=
 OpenBabel10272401223D

 55 61  0  0  1  0  0  0  0  0999 V2000
  193.1160  176.5440  138.4880 C   0  0  0  0  0  2  0  0  0  0  0  0
  189.3320  175.1950  134.7890 O   0  0  0  0  0  0  0  0  0  0  0  0
  191.5200  172.8500  136.9250 C   0  0  0  0  0  1  0  0  0  0  0  0
  194.3080  171.9270  136.2130 C   0  0  0  0  0  2  0  0  0  0  0  0
  195.2820  170.8570  135.7410 C   0  0  0  0  0  2  0  0  0  0  0  0
  195.4860  173.5930  134.6870 C   0  0  1  0  0  3  0  0  0  0  0  0
  196.5120  172.5080  134.3460 C   0  0  0  0  0  2  0  0  0  0  0  0
  191.8150  173.9180  135.8800 C   0  0  2  0  0  3  0  0  0  0  0  0
  196.6400  171.4830  135.4720 C   0  0  0  0  0  2  0  0  0  0  0  0
  190.9160  177.3820  137.6400 O   0  0  0  0  0  0  0  0  0  0  0  0
  194.1400  173.0410  135.1720 C   0  0  2  0  0  3  0  0  0  0  0  0
  188.8050  176.9760  140.2090 C   0  0  0  0  0  3  0  0  0  0  0  0
  193.3570  176.1810  137.0240 C   0  0  0  0  0  2  0  0  0  0  0  0
  191.3250  177.0180  140.0290 C   0  0  0  0  0  3  0  0  0  0  0  0
  195.3620  174.9550  136.8990 C   0  0  1  0  0  3  0  0  0  0  0  0
  189.1160  175.3820  136.1600 C   0  0  0  0  0  2  0  0  0  0  0  0
  196.0770  174.7080  135.5540 C   0  0  0  0  0  2  0  0  0  0  0  0
  189.6260  173.8320  134.6560 C   0  0  0  0  0  2  0  0  0  0  0  0
  191.1350  173.6120  134.5540 C   0  0  0  0  0  2  0  0  0  0  0  0
  189.7220  178.1550  137.7160 C   0  0  0  0  0  2  0  0  0  0  0  0
  188.2190  176.5910  136.4040 C   0  0  2  0  0  3  0  0  0  0  0  0
  191.7030  176.9820  138.7380 C   0  0  0  0  0  0  0  0  0  0  0  0
  193.3120  174.2180  135.7060 C   0  0  2  0  0  3  0  0  0  0  0  0
  193.8880  174.8250  136.9220 N   0  0  2  0  0  0  0  0  0  0  0  0
  188.4930  177.2550  137.7710 C   0  0  1  0  0  3  0  0  0  0  0  0
  188.5720  176.2570  138.9240 C   0  0  0  0  0  2  0  0  0  0  0  0
  190.0160  177.3020  140.6630 C   0  0  0  0  0  3  0  0  0  0  0  0
  185.0680  174.4610  135.6600 C   0  0  1  0  0  3  0  0  0  0  0  0
  182.7040  176.2020  137.7460 C   0  0  0  0  0  3  0  0  0  0  0  0
  183.2620  175.1780  137.1490 C   0  0  0  0  0  0  0  0  0  0  0  0
  186.8940  179.2130  136.9270 O   0  0  0  0  0  0  0  0  0  0  0  0
  186.7440  176.2520  136.0730 C   0  0  2  0  0  0  0  0  0  0  0  0
  183.4610  176.9510  138.7950 C   0  0  0  0  0  2  0  0  0  0  0  0
  183.7290  178.3860  138.3500 C   0  0  0  0  0  2  0  0  0  0  0  0
  186.0110  178.4430  137.2750 C   0  0  0  0  0  0  0  0  0  0  0  0
  186.3080  174.8990  136.4560 C   0  0  1  0  0  3  0  0  0  0  0  0
  185.6980  177.2210  136.4630 C   0  0  2  0  0  3  0  0  0  0  0  0
  185.3850  173.3510  134.8930 F   0  0  0  0  0  0  0  0  0  0  0  0
  185.2110  178.7370  138.5190 C   0  0  0  0  0  2  0  0  0  0  0  0
  185.9700  176.0450  137.3190 N   0  0  2  0  0  0  0  0  0  0  0  0
  183.8780  174.1820  136.5530 C   0  0  0  0  0  0  0  0  0  0  0  0
  183.3310  172.7940  136.6730 C   0  0  0  0  0  2  0  0  0  0  0  0
  181.4920  171.2320  135.4090 O   0  0  0  0  0  1  0  0  0  0  0  0
  181.7030  173.6760  134.4980 O   0  0  0  0  0  0  0  0  0  0  0  0
  181.7160  172.6600  135.8510 P   0  0  0  0  0  0  0  0  0  0  0  0
  180.4870  173.1220  136.9210 O   0  0  0  0  0  1  0  0  0  0  0  0
  195.4250  173.4000  138.6920 O   0  0  0  0  0  0  0  0  0  0  0  0
  196.0170  174.2560  138.0550 C   0  0  0  0  0  0  0  0  0  0  0  0
  197.4220  174.5970  138.4140 C   0  0  0  0  0  2  0  0  0  0  0  0
  199.3580  173.7790  137.0180 C   0  0  0  0  0  0  0  0  0  0  0  0
  198.3110  173.5380  137.9590 N   0  0  0  0  0  2  0  0  0  0  0  0
  199.5250  174.9300  136.5260 O   0  0  0  0  0  0  0  0  0  0  0  0
  200.2290  172.6590  136.5600 C   0  0  0  0  0  3  0  0  0  0  0  0
  200.1240  172.4790  135.0560 C   0  0  0  0  0  1  0  0  0  0  0  0
  199.8580  171.3660  137.2630 C   0  0  0  0  0  1  0  0  0  0  0  0
  1 22  1  0  0  0  0
  2 16  1  0  0  0  0
  5  4  1  0  0  0  0
  6  7  1  1  0  0  0
  6 11  1  0  0  0  0
  6 17  1  0  0  0  0
  7  9  1  0  0  0  0
  8  3  1  1  0  0  0
  9  5  1  0  0  0  0
 10 20  1  0  0  0  0
 10 22  1  0  0  0  0
 11 23  1  0  0  0  0
 11  4  1  1  0  0  0
 12 27  2  0  0  0  0
 13  1  1  0  0  0  0
 14 27  1  0  0  0  0
 15 24  1  0  0  0  0
 15 48  1  1  0  0  0
 17 15  1  0  0  0  0
 18  2  1  0  0  0  0
 19 18  1  0  0  0  0
 19  8  1  0  0  0  0
 20 25  1  0  0  0  0
 21 16  1  1  0  0  0
 21 25  1  0  0  0  0
 22 14  2  0  0  0  0
 23  8  1  0  0  0  0
 23 24  1  0  0  0  0
 24 13  1  0  0  0  0
 25 26  1  0  0  0  0
 26 12  1  0  0  0  0
 28 36  1  0  0  0  0
 28 41  1  0  0  0  0
 29 33  1  0  0  0  0
 30 29  2  0  0  0  0
 31 35  2  0  0  0  0
 32 21  1  0  0  0  0
 32 36  1  0  0  0  0
 32 37  1  0  0  0  0
 32 40  1  0  0  0  0
 34 39  1  0  0  0  0
 34 33  1  0  0  0  0
 35 39  1  0  0  0  0
 36 40  1  0  0  0  0
 37 35  1  0  0  0  0
 37 40  1  0  0  0  0
 38 28  1  0  0  0  0
 41 42  1  0  0  0  0
 41 30  2  0  0  0  0
 43 45  1  0  0  0  0
 44 45  2  0  0  0  0
 45 42  1  0  0  0  0
 45 46  1  0  0  0  0
 48 49  1  0  0  0  0
 48 47  2  0  0  0  0
 50 51  1  0  0  0  0
 51 49  1  0  0  0  0
 52 50  2  0  0  0  0
 53 50  1  0  0  0  0
 53 55  1  0  0  0  0
 54 53  1  0  0  0  0
M  END
>  <MODEL>
1

>  <REMARK>
 VINA RESULT:      -5.5      0.000      0.000
  Name = 
  7 active torsions:
  status: ('A' for Active; 'I' for Inactive)
    1  A    between atoms: C_8  and  C_43
    2  A    between atoms: C_10  and  C_32
    3  A    between atoms: P_29  and  C_38
    4  A    between atoms: C_33  and  C_52
    5  A    between atoms: C_34  and  N_39
    6  A    between atoms: C_34  and  C_52
    7  A    between atoms: C_38  and  C_53
                            x       y       z     vdW  Elec       q    Type
                         _______ _______ _______ _____ _____    ______ ____

>  <TORSDO>
F 7

$$$$
=
 OpenBabel10272401223D

 55 61  0  0  1  0  0  0  0  0999 V2000
  192.5190  176.6320  138.6450 C   0  0  0  0  0  2  0  0  0  0  0  0
  188.6600  175.7200  134.8900 O   0  0  0  0  0  0  0  0  0  0  0  0
  190.6570  173.1340  136.9320 C   0  0  0  0  0  1  0  0  0  0  0  0
  193.3700  172.0340  136.1860 C   0  0  0  0  0  2  0  0  0  0  0  0
  194.2640  170.9130  135.6710 C   0  0  0  0  0  2  0  0  0  0  0  0
  194.6770  173.6660  134.7300 C   0  0  1  0  0  3  0  0  0  0  0  0
  195.6200  172.5220  134.3460 C   0  0  0  0  0  2  0  0  0  0  0  0
  191.0350  174.2180  135.9310 C   0  0  2  0  0  3  0  0  0  0  0  0
  195.6660  171.4460  135.4300 C   0  0  0  0  0  2  0  0  0  0  0  0
  190.3920  177.6660  137.8290 O   0  0  0  0  0  0  0  0  0  0  0  0
  193.2910  173.1980  135.1900 C   0  0  2  0  0  3  0  0  0  0  0  0
  188.2460  177.3160  140.3770 C   0  0  0  0  0  3  0  0  0  0  0  0
  192.7380  176.3110  137.1670 C   0  0  0  0  0  2  0  0  0  0  0  0
  190.7630  177.1760  140.2020 C   0  0  0  0  0  3  0  0  0  0  0  0
  194.6460  174.9440  136.9950 C   0  0  1  0  0  3  0  0  0  0  0  0
  188.4520  175.8680  136.2670 C   0  0  0  0  0  2  0  0  0  0  0  0
  195.3470  174.6980  135.6410 C   0  0  0  0  0  2  0  0  0  0  0  0
  188.8510  174.3460  134.7020 C   0  0  0  0  0  2  0  0  0  0  0  0
  190.3400  174.0170  134.5930 C   0  0  0  0  0  2  0  0  0  0  0  0
  189.2590  178.5230  137.9340 C   0  0  0  0  0  2  0  0  0  0  0  0
  187.6480  177.1300  136.5590 C   0  0  2  0  0  3  0  0  0  0  0  0
  191.1420  177.1640  138.9100 C   0  0  0  0  0  0  0  0  0  0  0  0
  192.5510  174.4120  135.7710 C   0  0  2  0  0  3  0  0  0  0  0  0
  193.1670  174.9240  137.0110 N   0  0  2  0  0  0  0  0  0  0  0  0
  187.9650  177.7160  137.9520 C   0  0  1  0  0  3  0  0  0  0  0  0
  187.9650  176.6690  139.0640 C   0  0  0  0  0  2  0  0  0  0  0  0
  189.4760  177.5320  140.8450 C   0  0  0  0  0  3  0  0  0  0  0  0
  184.4160  175.3310  135.4010 C   0  0  1  0  0  3  0  0  0  0  0  0
  182.1800  176.4700  137.9840 C   0  0  0  0  0  3  0  0  0  0  0  0
  182.6870  175.6400  137.1070 C   0  0  0  0  0  0  0  0  0  0  0  0
  186.4130  179.5280  137.8350 O   0  0  0  0  0  0  0  0  0  0  0  0
  186.1530  176.9160  136.2130 C   0  0  2  0  0  0  0  0  0  0  0  0
  182.9950  176.8920  139.1640 C   0  0  0  0  0  2  0  0  0  0  0  0
  183.2840  178.3890  139.1160 C   0  0  0  0  0  2  0  0  0  0  0  0
  185.5230  178.7050  137.9990 C   0  0  0  0  0  0  0  0  0  0  0  0
  185.6970  175.5160  136.2310 C   0  0  1  0  0  3  0  0  0  0  0  0
  185.1490  177.7570  136.8980 C   0  0  2  0  0  3  0  0  0  0  0  0
  184.6750  174.4690  134.3460 F   0  0  0  0  0  0  0  0  0  0  0  0
  184.7800  178.6590  139.3090 C   0  0  0  0  0  2  0  0  0  0  0  0
  185.4220  176.3880  137.3890 N   0  0  2  0  0  0  0  0  0  0  0  0
  183.2540  174.8360  136.2350 C   0  0  0  0  0  0  0  0  0  0  0  0
  182.6770  173.4770  135.9960 C   0  0  0  0  0  2  0  0  0  0  0  0
  184.4830  172.8060  137.9230 O   0  0  0  0  0  1  0  0  0  0  0  0
  184.7540  171.5470  135.6450 O   0  0  0  0  0  0  0  0  0  0  0  0
  183.6900  172.1930  136.7910 P   0  0  0  0  0  0  0  0  0  0  0  0
  182.6920  170.9670  137.3960 O   0  0  0  0  0  1  0  0  0  0  0  0
  194.7550  173.0890  138.4730 O   0  0  0  0  0  0  0  0  0  0  0  0
  195.2430  174.1510  138.1230 C   0  0  0  0  0  0  0  0  0  0  0  0
  196.4640  174.6600  138.8070 C   0  0  0  0  0  2  0  0  0  0  0  0
  198.1970  173.4610  137.4210 C   0  0  0  0  0  0  0  0  0  0  0  0
  197.5780  174.6670  137.8710 N   0  0  0  0  0  2  0  0  0  0  0  0
  197.8060  172.3400  137.8520 O   0  0  0  0  0  0  0  0  0  0  0  0
  199.3540  173.5150  136.4810 C   0  0  0  0  0  3  0  0  0  0  0  0
  199.5580  174.9270  135.9640 C   0  0  0  0  0  1  0  0  0  0  0  0
  199.1480  172.5620  135.3180 C   0  0  0  0  0  1  0  0  0  0  0  0
  1 22  1  0  0  0  0
  2 16  1  0  0  0  0
  5  4  1  0  0  0  0
  6  7  1  1  0  0  0
  6 11  1  0  0  0  0
  6 17  1  0  0  0  0
  7  9  1  0  0  0  0
  8  3  1  1  0  0  0
  9  5  1  0  0  0  0
 10 20  1  0  0  0  0
 10 22  1  0  0  0  0
 11 23  1  0  0  0  0
 11  4  1  1  0  0  0
 12 27  2  0  0  0  0
 13  1  1  0  0  0  0
 14 27  1  0  0  0  0
 15 24  1  0  0  0  0
 15 48  1  1  0  0  0
 17 15  1  0  0  0  0
 18  2  1  0  0  0  0
 19 18  1  0  0  0  0
 19  8  1  0  0  0  0
 20 25  1  0  0  0  0
 21 16  1  1  0  0  0
 21 25  1  0  0  0  0
 22 14  2  0  0  0  0
 23  8  1  0  0  0  0
 23 24  1  0  0  0  0
 24 13  1  0  0  0  0
 25 26  1  0  0  0  0
 26 12  1  0  0  0  0
 28 36  1  0  0  0  0
 28 41  1  0  0  0  0
 29 33  1  0  0  0  0
 30 29  2  0  0  0  0
 31 35  2  0  0  0  0
 32 36  1  0  0  0  0
 32 21  1  0  0  0  0
 32 37  1  0  0  0  0
 32 40  1  0  0  0  0
 34 33  1  0  0  0  0
 34 39  1  0  0  0  0
 35 39  1  0  0  0  0
 36 40  1  0  0  0  0
 37 40  1  0  0  0  0
 37 35  1  0  0  0  0
 38 28  1  0  0  0  0
 41 30  2  0  0  0  0
 42 41  1  0  0  0  0
 42 45  1  0  0  0  0
 44 45  2  0  0  0  0
 45 46  1  0  0  0  0
 45 43  1  0  0  0  0
 48 47  2  0  0  0  0
 48 49  1  0  0  0  0
 50 52  2  0  0  0  0
 50 51  1  0  0  0  0
 51 49  1  0  0  0  0
 53 50  1  0  0  0  0
 54 53  1  0  0  0  0
 55 53  1  0  0  0  0
M  END
>  <MODEL>
2

>  <REMARK>
 VINA RESULT:      -4.3      1.263      1.409
  Name = 
  7 active torsions:
  status: ('A' for Active; 'I' for Inactive)
    1  A    between atoms: C_8  and  C_43
    2  A    between atoms: C_10  and  C_32
    3  A    between atoms: P_29  and  C_38
    4  A    between atoms: C_33  and  C_52
    5  A    between atoms: C_34  and  N_39
    6  A    between atoms: C_34  and  C_52
    7  A    between atoms: C_38  and  C_53
                            x       y       z     vdW  Elec       q    Type
                         _______ _______ _______ _____ _____    ______ ____

>  <TORSDO>
F 7

$$$$
=
 OpenBabel10272401223D

 55 61  0  0  1  0  0  0  0  0999 V2000
  189.1850  177.1410  139.3610 C   0  0  0  0  0  2  0  0  0  0  0  0
  190.8920  173.7440  135.4410 O   0  0  0  0  0  0  0  0  0  0  0  0
  189.1080  177.1370  135.0460 C   0  0  0  0  0  1  0  0  0  0  0  0
  186.1160  177.5560  135.0810 C   0  0  0  0  0  2  0  0  0  0  0  0
  184.7980  177.8520  134.3770 C   0  0  0  0  0  2  0  0  0  0  0  0
  184.9300  175.7350  136.4120 C   0  0  1  0  0  3  0  0  0  0  0  0
  183.6110  176.1620  135.7620 C   0  0  0  0  0  2  0  0  0  0  0  0
  188.7370  175.8120  135.6970 C   0  0  2  0  0  3  0  0  0  0  0  0
  183.6430  177.6300  135.3380 C   0  0  0  0  0  2  0  0  0  0  0  0
  191.0620  175.5460  138.9260 O   0  0  0  0  0  0  0  0  0  0  0  0
  186.1720  176.1120  135.5960 C   0  0  2  0  0  3  0  0  0  0  0  0
  193.7830  177.4840  138.6790 C   0  0  0  0  0  3  0  0  0  0  0  0
  188.3450  176.0980  138.6260 C   0  0  0  0  0  2  0  0  0  0  0  0
  191.4690  177.8600  139.6220 C   0  0  0  0  0  3  0  0  0  0  0  0
  186.1900  176.9900  138.3100 C   0  0  1  0  0  3  0  0  0  0  0  0
  191.6310  174.7930  136.0030 C   0  0  0  0  0  2  0  0  0  0  0  0
  184.9980  176.1010  137.8980 C   0  0  0  0  0  2  0  0  0  0  0  0
  190.2330  174.3190  134.3460 C   0  0  0  0  0  2  0  0  0  0  0  0
  188.7870  174.6620  134.7040 C   0  0  0  0  0  2  0  0  0  0  0  0
  192.3570  174.9960  139.1510 C   0  0  0  0  0  2  0  0  0  0  0  0
  192.8300  174.2540  136.7740 C   0  0  2  0  0  3  0  0  0  0  0  0
  190.6530  176.8460  139.2790 C   0  0  0  0  0  0  0  0  0  0  0  0
  187.4080  175.8520  136.4680 C   0  0  2  0  0  3  0  0  0  0  0  0
  187.4870  176.7480  137.6390 N   0  0  2  0  0  0  0  0  0  0  0  0
  193.2500  175.1880  137.9300 C   0  0  1  0  0  3  0  0  0  0  0  0
  193.3430  176.6560  137.5200 C   0  0  0  0  0  2  0  0  0  0  0  0
  192.9450  177.9900  139.5840 C   0  0  0  0  0  3  0  0  0  0  0  0
  196.2770  174.1560  135.0040 C   0  0  1  0  0  3  0  0  0  0  0  0
  196.8120  170.5950  135.0080 C   0  0  0  0  0  3  0  0  0  0  0  0
  197.1330  171.8630  135.0700 C   0  0  0  0  0  0  0  0  0  0  0  0
  191.7610  171.6240  135.8530 O   0  0  0  0  0  0  0  0  0  0  0  0
  193.9470  173.8010  135.7990 C   0  0  2  0  0  0  0  0  0  0  0  0
  195.9650  169.9890  136.0800 C   0  0  0  0  0  2  0  0  0  0  0  0
  194.6260  169.5250  135.5150 C   0  0  0  0  0  2  0  0  0  0  0  0
  192.9610  171.3910  135.8500 C   0  0  0  0  0  0  0  0  0  0  0  0
  195.3170  174.1560  136.2060 C   0  0  1  0  0  3  0  0  0  0  0  0
  193.9350  172.4030  135.3220 C   0  0  2  0  0  3  0  0  0  0  0  0
  196.7810  175.4350  134.8210 F   0  0  0  0  0  0  0  0  0  0  0  0
  193.4660  170.0640  136.3590 C   0  0  0  0  0  2  0  0  0  0  0  0
  194.8160  172.7900  136.4450 N   0  0  2  0  0  0  0  0  0  0  0  0
  197.3960  173.1480  135.1580 C   0  0  0  0  0  0  0  0  0  0  0  0
  198.8130  173.6070  135.3010 C   0  0  0  0  0  2  0  0  0  0  0  0
  200.1710  172.3580  137.3060 O   0  0  0  0  0  0  0  0  0  0  0  0
  197.9500  173.5400  138.0230 O   0  0  0  0  0  1  0  0  0  0  0  0
  199.3290  173.5860  137.0440 P   0  0  0  0  0  0  0  0  0  0  0  0
  200.2280  174.9770  137.3930 O   0  0  0  0  0  1  0  0  0  0  0  0
  186.3840  179.2610  137.6420 O   0  0  0  0  0  0  0  0  0  0  0  0
  185.8440  178.4500  138.3770 C   0  0  0  0  0  0  0  0  0  0  0  0
  184.8060  178.9110  139.3410 C   0  0  0  0  0  2  0  0  0  0  0  0
  184.9830  178.5100  141.8260 C   0  0  0  0  0  0  0  0  0  0  0  0
  185.4230  179.1640  140.6350 N   0  0  0  0  0  2  0  0  0  0  0  0
  184.0130  177.7020  141.7920 O   0  0  0  0  0  0  0  0  0  0  0  0
  185.6280  178.8190  143.1350 C   0  0  0  0  0  3  0  0  0  0  0  0
  186.6550  177.7600  143.4900 C   0  0  0  0  0  1  0  0  0  0  0  0
  184.5880  178.9220  144.2360 C   0  0  0  0  0  1  0  0  0  0  0  0
  2 16  1  0  0  0  0
  5  4  1  0  0  0  0
  5  9  1  0  0  0  0
  6  7  1  6  0  0  0
  6 17  1  0  0  0  0
  8  3  1  6  0  0  0
  8 23  1  0  0  0  0
  9  7  1  0  0  0  0
 10 20  1  0  0  0  0
 10 22  1  0  0  0  0
 11  4  1  1  0  0  0
 11  6  1  0  0  0  0
 11 23  1  0  0  0  0
 12 27  2  0  0  0  0
 13  1  1  0  0  0  0
 15 48  1  6  0  0  0
 17 15  1  0  0  0  0
 18 19  1  0  0  0  0
 18  2  1  0  0  0  0
 19  8  1  0  0  0  0
 21 16  1  6  0  0  0
 21 25  1  0  0  0  0
 22  1  1  0  0  0  0
 22 14  2  0  0  0  0
 23 24  1  0  0  0  0
 24 15  1  0  0  0  0
 24 13  1  0  0  0  0
 25 20  1  0  0  0  0
 26 25  1  0  0  0  0
 26 12  1  0  0  0  0
 27 14  1  0  0  0  0
 28 41  1  0  0  0  0
 28 36  1  0  0  0  0
 29 30  2  0  0  0  0
 29 33  1  0  0  0  0
 30 41  2  0  0  0  0
 32 36  1  0  0  0  0
 32 40  1  0  0  0  0
 32 21  1  0  0  0  0
 34 33  1  0  0  0  0
 34 39  1  0  0  0  0
 35 31  2  0  0  0  0
 35 39  1  0  0  0  0
 36 40  1  0  0  0  0
 37 32  1  0  0  0  0
 37 35  1  0  0  0  0
 37 40  1  0  0  0  0
 38 28  1  0  0  0  0
 41 42  1  0  0  0  0
 42 45  1  0  0  0  0
 45 43  2  0  0  0  0
 45 46  1  0  0  0  0
 45 44  1  0  0  0  0
 47 48  2  0  0  0  0
 48 49  1  0  0  0  0
 49 51  1  0  0  0  0
 50 53  1  0  0  0  0
 51 50  1  0  0  0  0
 52 50  2  0  0  0  0
 53 54  1  0  0  0  0
 53 55  1  0  0  0  0
M  END
>  <MODEL>
3

>  <REMARK>
 VINA RESULT:      -2.8      3.813     11.278
  Name = 
  7 active torsions:
  status: ('A' for Active; 'I' for Inactive)
    1  A    between atoms: C_8  and  C_43
    2  A    between atoms: C_10  and  C_32
    3  A    between atoms: P_29  and  C_38
    4  A    between atoms: C_33  and  C_52
    5  A    between atoms: C_34  and  N_39
    6  A    between atoms: C_34  and  C_52
    7  A    between atoms: C_38  and  C_53
                            x       y       z     vdW  Elec       q    Type
                         _______ _______ _______ _____ _____    ______ ____

>  <TORSDO>
F 7

$$$$
