=
 OpenBabel10272413313D

 32 36  0  0  1  0  0  0  0  0999 V2000
  187.9020  177.9620  137.4550 C   0  0  1  0  0  3  0  0  0  0  0  0
  188.0020  177.8830  142.5570 C   0  0  0  0  0  0  0  0  0  0  0  0
  183.3860  178.9770  143.9350 C   0  0  0  0  0  3  0  0  0  0  0  0
  183.7770  178.7980  145.1990 C   0  0  0  0  0  3  0  0  0  0  0  0
  188.6160  177.9010  140.2640 C   0  0  0  0  0  0  0  0  0  0  0  0
  186.3700  178.4020  140.8900 N   0  0  0  0  0  0  0  0  0  0  0  0
  186.8900  178.4800  138.4820 C   0  0  0  0  0  2  0  0  0  0  0  0
  184.3140  178.8040  142.7600 C   0  0  0  0  0  2  0  0  0  0  0  0
  186.6750  178.2420  142.2090 C   0  0  0  0  0  0  0  0  0  0  0  0
  185.7250  178.4280  143.1500 C   0  0  0  0  0  0  0  0  0  0  0  0
  187.4340  177.8800  144.9020 N   0  0  0  0  0  0  0  0  0  0  0  0
  189.3290  178.3030  137.8860 C   0  0  0  0  0  2  0  0  0  0  0  0
  187.2930  178.2250  139.9100 C   0  0  0  0  0  0  0  0  0  0  0  0
  189.6740  177.6580  139.2280 C   0  0  0  0  0  2  0  0  0  0  0  0
  185.1590  178.4200  145.5310 C   0  0  0  0  0  3  0  0  0  0  0  0
  186.0810  178.2440  144.5780 C   0  0  0  0  0  0  0  0  0  0  0  0
  188.9270  177.7240  141.5750 N   0  0  0  0  0  0  0  0  0  0  0  0
  188.3710  177.7030  143.8320 C   0  0  0  0  0  3  0  0  0  0  0  0
  186.5730  175.9610  137.1050 N   0  0  0  0  0  0  0  0  0  0  0  0
  187.7480  176.4950  137.2140 C   0  0  0  0  0  3  0  0  0  0  0  0
  186.3920  174.5640  136.8700 C   0  0  0  0  0  0  0  0  0  0  0  0
  187.2540  173.8980  136.2330 O   0  0  0  0  0  0  0  0  0  0  0  0
  185.1670  173.8880  137.3740 C   0  0  0  0  0  1  0  0  0  0  0  0
  187.8790  177.7110  146.2830 C   0  0  0  0  0  2  0  0  0  0  0  0
  192.0120  175.6030  144.8610 F   0  0  0  0  0  0  0  0  0  0  0  0
  189.9470  176.6100  145.4780 C   0  0  0  0  0  2  0  0  0  0  0  0
  189.8820  177.4240  147.7950 C   0  0  1  0  0  3  0  0  0  0  0  0
  191.3080  177.1500  147.8440 N   0  0  0  0  0  0  0  0  0  0  0  0
  191.9870  176.7890  146.8530 N   0  0  0  0  0  0  0  0  0  0  0  0
  191.4640  176.6980  145.5010 C   0  0  1  0  0  3  0  0  0  0  0  0
  189.5940  178.4910  148.6260 F   0  0  0  0  0  0  0  0  0  0  0  0
  189.4010  177.7020  146.3720 C   0  0  2  0  0  3  0  0  0  0  0  0
  1 20  1  1  0  0  0
  1 12  1  0  0  0  0
  1  7  1  0  0  0  0
  2 18  2  0  0  0  0
  3  4  2  0  0  0  0
  4 15  1  0  0  0  0
  5 17  2  0  0  0  0
  6  9  1  0  0  0  0
  7 13  1  0  0  0  0
  8 10  1  0  0  0  0
  8  3  1  0  0  0  0
  9  2  1  0  0  0  0
  9 10  2  0  0  0  0
 10 16  1  0  0  0  0
 11 24  1  0  0  0  0
 12 14  1  0  0  0  0
 13  5  1  0  0  0  0
 13  6  2  0  0  0  0
 14  5  1  0  0  0  0
 16 11  1  0  0  0  0
 16 15  2  0  0  0  0
 17  2  1  0  0  0  0
 18 11  1  0  0  0  0
 19 20  2  0  0  0  0
 21 19  1  0  0  0  0
 21 23  1  0  0  0  0
 22 21  2  0  0  0  0
 26 30  1  0  0  0  0
 26 32  1  0  0  0  0
 27 28  1  0  0  0  0
 27 31  1  1  0  0  0
 29 28  2  0  0  0  0
 30 25  1  1  0  0  0
 30 29  1  0  0  0  0
 32 24  1  1  0  0  0
 32 27  1  0  0  0  0
M  END
>  <MODEL>
1

>  <REMARK>
 VINA RESULT:     -10.4      0.000      0.000
  Name = 
  4 active torsions:
  status: ('A' for Active; 'I' for Inactive)
    1  A    between atoms: C_1  and  N_10
    2  A    between atoms: C_2  and  C_24
    3  A    between atoms: N_16  and  C_27
    4  A    between atoms: C_27  and  C_32
                            x       y       z     vdW  Elec       q    Type
                         _______ _______ _______ _____ _____    ______ ____

>  <TORSDO>
F 4

$$$$
=
 OpenBabel10272413313D

 32 36  0  0  1  0  0  0  0  0999 V2000
  182.7620  178.2980  139.7450 C   0  0  1  0  0  3  0  0  0  0  0  0
  187.1880  178.2600  142.2860 C   0  0  0  0  0  0  0  0  0  0  0  0
  185.9160  177.9500  147.0490 C   0  0  0  0  0  3  0  0  0  0  0  0
  187.2170  177.8960  147.3390 C   0  0  0  0  0  3  0  0  0  0  0  0
  185.5270  178.4540  140.6000 C   0  0  0  0  0  0  0  0  0  0  0  0
  184.8750  178.2730  142.8880 N   0  0  0  0  0  0  0  0  0  0  0  0
  183.0600  178.4970  141.2340 C   0  0  0  0  0  2  0  0  0  0  0  0
  185.3960  178.0560  145.6380 C   0  0  0  0  0  3  0  0  0  0  0  0
  186.1790  178.2120  143.2810 C   0  0  0  0  0  0  0  0  0  0  0  0
  186.4850  178.1120  144.5920 C   0  0  0  0  0  0  0  0  0  0  0  0
  188.9130  178.0930  143.9640 N   0  0  0  0  0  0  0  0  0  0  0  0
  183.7840  179.0440  138.8860 C   0  0  0  0  0  2  0  0  0  0  0  0
  184.5200  178.3740  141.5810 C   0  0  0  0  0  0  0  0  0  0  0  0
  185.2020  178.5310  139.1380 C   0  0  0  0  0  2  0  0  0  0  0  0
  188.2430  177.9410  146.2860 C   0  0  0  0  0  3  0  0  0  0  0  0
  187.9110  178.0430  144.9940 C   0  0  1  0  0  3  0  0  0  0  0  0
  186.8290  178.3780  140.9810 N   0  0  0  0  0  0  0  0  0  0  0  0
  188.4890  178.1970  142.5990 C   0  0  0  0  0  3  0  0  0  0  0  0
  182.4050  176.4830  138.1730 N   0  0  0  0  0  0  0  0  0  0  0  0
  182.7050  176.8490  139.3790 C   0  0  0  0  0  3  0  0  0  0  0  0
  182.3470  175.1080  137.7900 C   0  0  0  0  0  0  0  0  0  0  0  0
  181.2390  174.5300  137.6180 O   0  0  0  0  0  0  0  0  0  0  0  0
  183.6100  174.3470  137.6000 C   0  0  0  0  0  1  0  0  0  0  0  0
  190.3410  178.0650  144.2730 C   0  0  0  0  0  2  0  0  0  0  0  0
  193.0270  175.5600  147.4440 F   0  0  0  0  0  0  0  0  0  0  0  0
  191.7050  176.8580  145.9520 C   0  0  0  0  0  2  0  0  0  0  0  0
  191.5020  175.8970  143.6990 C   0  0  1  0  0  3  0  0  0  0  0  0
  192.1400  174.7080  144.2380 N   0  0  0  0  0  0  0  0  0  0  0  0
  192.4080  174.5460  145.4540 N   0  0  0  0  0  0  0  0  0  0  0  0
  192.0220  175.4760  146.5000 C   0  0  1  0  0  3  0  0  0  0  0  0
  190.6370  175.5300  142.6850 F   0  0  0  0  0  0  0  0  0  0  0  0
  190.7660  176.6900  144.7770 C   0  0  2  0  0  3  0  0  0  0  0  0
  1 20  1  6  0  0  0
  1  7  1  0  0  0  0
  2 18  2  0  0  0  0
  2  9  1  0  0  0  0
  3  4  1  0  0  0  0
  5 17  2  0  0  0  0
  5 13  1  0  0  0  0
  6  9  1  0  0  0  0
  7 13  1  0  0  0  0
  8  3  2  0  0  0  0
  9 10  2  0  0  0  0
 10 16  1  0  0  0  0
 10  8  1  0  0  0  0
 11 24  1  0  0  0  0
 11 16  1  0  0  0  0
 12 14  1  0  0  0  0
 12  1  1  0  0  0  0
 13  6  2  0  0  0  0
 14  5  1  0  0  0  0
 15  4  2  0  0  0  0
 16 15  1  1  0  0  0
 17  2  1  0  0  0  0
 18 11  1  0  0  0  0
 19 20  2  0  0  0  0
 21 19  1  0  0  0  0
 22 21  2  0  0  0  0
 23 21  1  0  0  0  0
 26 30  1  0  0  0  0
 27 31  1  6  0  0  0
 27 28  1  0  0  0  0
 27 32  1  0  0  0  0
 28 29  2  0  0  0  0
 29 30  1  0  0  0  0
 30 25  1  1  0  0  0
 32 24  1  6  0  0  0
 32 26  1  0  0  0  0
M  END
>  <MODEL>
2

>  <REMARK>
 VINA RESULT:      -9.8      2.613      3.700
  Name = 
  4 active torsions:
  status: ('A' for Active; 'I' for Inactive)
    1  A    between atoms: C_1  and  N_10
    2  A    between atoms: C_2  and  C_24
    3  A    between atoms: N_16  and  C_27
    4  A    between atoms: C_27  and  C_32
                            x       y       z     vdW  Elec       q    Type
                         _______ _______ _______ _____ _____    ______ ____

>  <TORSDO>
F 4

$$$$
=
 OpenBabel10272413313D

 32 36  0  0  1  0  0  0  0  0999 V2000
  182.6860  178.7850  140.6930 C   0  0  1  0  0  3  0  0  0  0  0  0
  187.7330  178.1810  141.1520 C   0  0  0  0  0  0  0  0  0  0  0  0
  188.4730  177.2870  145.9540 C   0  0  0  0  0  3  0  0  0  0  0  0
  189.7680  177.1290  145.6720 C   0  0  0  0  0  3  0  0  0  0  0  0
  185.5610  178.6850  140.3360 C   0  0  0  0  0  0  0  0  0  0  0  0
  185.8750  178.2270  142.6560 N   0  0  0  0  0  0  0  0  0  0  0  0
  183.5800  178.7630  141.9360 C   0  0  0  0  0  2  0  0  0  0  0  0
  187.4400  177.6100  144.9050 C   0  0  0  0  0  3  0  0  0  0  0  0
  187.2130  178.0480  142.4650 C   0  0  0  0  0  0  0  0  0  0  0  0
  188.0120  177.7550  143.5130 C   0  0  0  0  0  0  0  0  0  0  0  0
  189.9630  177.7020  141.9380 N   0  0  0  0  0  0  0  0  0  0  0  0
  183.3430  179.5900  139.5700 C   0  0  0  0  0  2  0  0  0  0  0  0
  185.0340  178.5230  141.6320 C   0  0  0  0  0  0  0  0  0  0  0  0
  184.6810  178.9780  139.1560 C   0  0  0  0  0  2  0  0  0  0  0  0
  190.2780  177.2680  144.2990 C   0  0  0  0  0  3  0  0  0  0  0  0
  189.4640  177.5610  143.2790 C   0  0  1  0  0  3  0  0  0  0  0  0
  186.8900  178.4940  140.1330 N   0  0  0  0  0  0  0  0  0  0  0  0
  189.0360  178.0120  140.8900 C   0  0  0  0  0  3  0  0  0  0  0  0
  181.4290  177.2170  139.3320 N   0  0  0  0  0  0  0  0  0  0  0  0
  182.3390  177.4050  140.2340 C   0  0  0  0  0  3  0  0  0  0  0  0
  181.0780  175.9110  138.8690 C   0  0  0  0  0  0  0  0  0  0  0  0
  181.4310  175.5140  137.7240 O   0  0  0  0  0  0  0  0  0  0  0  0
  180.2780  175.0130  139.7440 C   0  0  0  0  0  1  0  0  0  0  0  0
  191.3830  177.5610  141.6230 C   0  0  0  0  0  2  0  0  0  0  0  0
  190.4330  174.9920  137.6170 F   0  0  0  0  0  0  0  0  0  0  0  0
  190.8170  176.2230  139.6160 C   0  0  0  0  0  2  0  0  0  0  0  0
  193.0720  177.1850  139.7830 C   0  0  1  0  0  3  0  0  0  0  0  0
  193.2560  176.7840  138.3990 N   0  0  0  0  0  0  0  0  0  0  0  0
  192.3470  176.2980  137.6830 N   0  0  0  0  0  0  0  0  0  0  0  0
  190.9630  176.1710  138.1040 C   0  0  1  0  0  3  0  0  0  0  0  0
  193.8140  178.3250  140.0290 F   0  0  0  0  0  0  0  0  0  0  0  0
  191.5990  177.4160  140.1200 C   0  0  2  0  0  3  0  0  0  0  0  0
  1 20  1  6  0  0  0
  1  7  1  0  0  0  0
  2  9  1  0  0  0  0
  4  3  1  0  0  0  0
  5 13  1  0  0  0  0
  8  3  2  0  0  0  0
  9  6  1  0  0  0  0
  9 10  2  0  0  0  0
 10  8  1  0  0  0  0
 11 16  1  0  0  0  0
 12  1  1  0  0  0  0
 13  7  1  0  0  0  0
 13  6  2  0  0  0  0
 14 12  1  0  0  0  0
 14  5  1  0  0  0  0
 15  4  2  0  0  0  0
 16 10  1  0  0  0  0
 16 15  1  1  0  0  0
 17  5  2  0  0  0  0
 17  2  1  0  0  0  0
 18  2  2  0  0  0  0
 18 11  1  0  0  0  0
 19 20  2  0  0  0  0
 21 19  1  0  0  0  0
 21 23  1  0  0  0  0
 22 21  2  0  0  0  0
 24 11  1  0  0  0  0
 26 32  1  0  0  0  0
 27 31  1  6  0  0  0
 27 32  1  0  0  0  0
 28 27  1  0  0  0  0
 29 30  1  0  0  0  0
 29 28  2  0  0  0  0
 30 25  1  1  0  0  0
 30 26  1  0  0  0  0
 32 24  1  1  0  0  0
M  END
>  <MODEL>
3

>  <REMARK>
 VINA RESULT:      -9.0      3.467      5.764
  Name = 
  4 active torsions:
  status: ('A' for Active; 'I' for Inactive)
    1  A    between atoms: C_1  and  N_10
    2  A    between atoms: C_2  and  C_24
    3  A    between atoms: N_16  and  C_27
    4  A    between atoms: C_27  and  C_32
                            x       y       z     vdW  Elec       q    Type
                         _______ _______ _______ _____ _____    ______ ____

>  <TORSDO>
F 4

$$$$
=
 OpenBabel10272413313D

 32 36  0  0  1  0  0  0  0  0999 V2000
  186.5400  177.9160  136.8020 C   0  0  1  0  0  3  0  0  0  0  0  0
  189.0080  178.1110  141.2650 C   0  0  0  0  0  0  0  0  0  0  0  0
  185.4550  177.8970  144.6910 C   0  0  0  0  0  3  0  0  0  0  0  0
  186.4190  177.8980  145.6150 C   0  0  0  0  0  3  0  0  0  0  0  0
  188.4590  178.1950  138.9560 C   0  0  0  0  0  0  0  0  0  0  0  0
  186.7180  178.0590  140.5820 N   0  0  0  0  0  0  0  0  0  0  0  0
  186.0200  178.1690  138.2200 C   0  0  0  0  0  2  0  0  0  0  0  0
  185.7410  177.9430  143.2110 C   0  0  0  0  0  2  0  0  0  0  0  0
  187.6300  178.0570  141.5950 C   0  0  0  0  0  0  0  0  0  0  0  0
  187.2140  178.0070  142.8780 C   0  0  0  0  0  0  0  0  0  0  0  0
  189.6160  178.0560  143.5990 N   0  0  0  0  0  0  0  0  0  0  0  0
  187.8480  178.6730  136.5640 C   0  0  0  0  0  2  0  0  0  0  0  0
  187.0900  178.1090  139.2770 C   0  0  0  0  0  0  0  0  0  0  0  0
  188.9380  178.2180  137.5350 C   0  0  0  0  0  2  0  0  0  0  0  0
  187.8420  177.9490  145.2430 C   0  0  0  0  0  3  0  0  0  0  0  0
  188.2260  178.0000  143.9630 C   0  0  0  0  0  0  0  0  0  0  0  0
  189.3760  178.1770  139.9580 N   0  0  0  0  0  0  0  0  0  0  0  0
  189.9580  178.1040  142.2080 C   0  0  0  0  0  3  0  0  0  0  0  0
  185.6910  175.6520  136.5890 N   0  0  0  0  0  0  0  0  0  0  0  0
  186.7030  176.4560  136.5220 C   0  0  0  0  0  3  0  0  0  0  0  0
  185.8130  174.2540  136.3220 C   0  0  0  0  0  0  0  0  0  0  0  0
  186.0460  173.8350  135.1550 O   0  0  0  0  0  0  0  0  0  0  0  0
  185.6540  173.2790  137.4340 C   0  0  0  0  0  1  0  0  0  0  0  0
  190.6760  178.0880  144.6030 C   0  0  0  0  0  2  0  0  0  0  0  0
  193.0100  175.4100  147.9100 F   0  0  0  0  0  0  0  0  0  0  0  0
  191.8620  176.7930  146.3500 C   0  0  0  0  0  2  0  0  0  0  0  0
  191.7120  175.8420  144.0900 C   0  0  1  0  0  3  0  0  0  0  0  0
  192.2350  174.6130  144.6610 N   0  0  0  0  0  0  0  0  0  0  0  0
  192.4260  174.4360  145.8890 N   0  0  0  0  0  0  0  0  0  0  0  0
  192.0530  175.3940  146.9140 C   0  0  1  0  0  3  0  0  0  0  0  0
  190.8780  175.5330  143.0310 F   0  0  0  0  0  0  0  0  0  0  0  0
  190.9770  176.6880  145.1280 C   0  0  2  0  0  3  0  0  0  0  0  0
  1 20  1  1  0  0  0
  1  7  1  0  0  0  0
  2  9  1  0  0  0  0
  2 18  2  0  0  0  0
  3  4  2  0  0  0  0
  5 13  1  0  0  0  0
  5 17  2  0  0  0  0
  6  9  1  0  0  0  0
  7 13  1  0  0  0  0
  8  3  1  0  0  0  0
  9 10  2  0  0  0  0
 10  8  1  0  0  0  0
 10 16  1  0  0  0  0
 11 16  1  0  0  0  0
 11 24  1  0  0  0  0
 12  1  1  0  0  0  0
 12 14  1  0  0  0  0
 13  6  2  0  0  0  0
 14  5  1  0  0  0  0
 15  4  1  0  0  0  0
 16 15  2  0  0  0  0
 17  2  1  0  0  0  0
 18 11  1  0  0  0  0
 20 19  2  0  0  0  0
 21 19  1  0  0  0  0
 21 23  1  0  0  0  0
 22 21  2  0  0  0  0
 26 30  1  0  0  0  0
 27 31  1  6  0  0  0
 27 28  1  0  0  0  0
 27 32  1  0  0  0  0
 28 29  2  0  0  0  0
 29 30  1  0  0  0  0
 30 25  1  1  0  0  0
 32 24  1  6  0  0  0
 32 26  1  0  0  0  0
M  END
>  <MODEL>
4

>  <REMARK>
 VINA RESULT:      -9.0      1.740      2.444
  Name = 
  4 active torsions:
  status: ('A' for Active; 'I' for Inactive)
    1  A    between atoms: C_1  and  N_10
    2  A    between atoms: C_2  and  C_24
    3  A    between atoms: N_16  and  C_27
    4  A    between atoms: C_27  and  C_32
                            x       y       z     vdW  Elec       q    Type
                         _______ _______ _______ _____ _____    ______ ____

>  <TORSDO>
F 4

$$$$
=
 OpenBabel10272413313D

 32 36  0  0  1  0  0  0  0  0999 V2000
  192.5120  175.1960  136.4030 C   0  0  1  0  0  3  0  0  0  0  0  0
  189.0410  177.5470  139.3140 C   0  0  0  0  0  0  0  0  0  0  0  0
  190.2900  176.3990  143.9540 C   0  0  0  0  0  3  0  0  0  0  0  0
  189.2900  177.1850  144.3620 C   0  0  0  0  0  3  0  0  0  0  0  0
  190.2280  176.6190  137.4780 C   0  0  0  0  0  0  0  0  0  0  0  0
  190.8790  176.0690  139.7060 N   0  0  0  0  0  0  0  0  0  0  0  0
  192.1700  175.0220  137.8850 C   0  0  0  0  0  2  0  0  0  0  0  0
  190.6240  176.1900  142.4990 C   0  0  0  0  0  3  0  0  0  0  0  0
  189.8830  176.8470  140.2160 C   0  0  0  0  0  0  0  0  0  0  0  0
  189.7130  176.9370  141.5520 C   0  0  0  0  0  0  0  0  0  0  0  0
  187.7880  178.4920  141.1460 N   0  0  0  0  0  0  0  0  0  0  0  0
  191.2380  175.3340  135.5670 C   0  0  0  0  0  2  0  0  0  0  0  0
  191.0870  175.9490  138.3690 C   0  0  0  0  0  0  0  0  0  0  0  0
  190.4240  176.5560  135.9920 C   0  0  0  0  0  2  0  0  0  0  0  0
  188.4360  177.9030  143.4030 C   0  0  0  0  0  3  0  0  0  0  0  0
  188.6250  177.7940  142.0830 C   0  0  1  0  0  3  0  0  0  0  0  0
  189.2420  177.4100  137.9770 N   0  0  0  0  0  0  0  0  0  0  0  0
  188.0480  178.3350  139.7450 C   0  0  0  0  0  3  0  0  0  0  0  0
  194.5350  176.2020  135.5160 N   0  0  0  0  0  0  0  0  0  0  0  0
  193.4320  176.3530  136.1770 C   0  0  0  0  0  3  0  0  0  0  0  0
  195.4330  177.2890  135.2790 C   0  0  0  0  0  0  0  0  0  0  0  0
  195.2630  178.4040  135.8450 O   0  0  0  0  0  0  0  0  0  0  0  0
  196.5760  177.1040  134.3460 C   0  0  0  0  0  1  0  0  0  0  0  0
  186.6730  179.3300  141.5800 C   0  0  0  0  0  2  0  0  0  0  0  0
  182.6600  178.9530  138.8780 F   0  0  0  0  0  0  0  0  0  0  0  0
  184.6730  179.1670  140.1270 C   0  0  0  0  0  2  0  0  0  0  0  0
  184.3900  178.8460  142.5470 C   0  0  1  0  0  3  0  0  0  0  0  0
  183.0390  178.4050  142.2470 N   0  0  0  0  0  0  0  0  0  0  0  0
  182.5960  178.2420  141.0840 N   0  0  0  0  0  0  0  0  0  0  0  0
  183.4040  178.3670  139.8840 C   0  0  1  0  0  3  0  0  0  0  0  0
  184.8440  178.1870  143.6750 F   0  0  0  0  0  0  0  0  0  0  0  0
  185.3390  178.6210  141.3710 C   0  0  2  0  0  3  0  0  0  0  0  0
  1 20  1  1  0  0  0
  1  7  1  0  0  0  0
  2 18  2  0  0  0  0
  2  9  1  0  0  0  0
  3  4  1  0  0  0  0
  5 17  2  0  0  0  0
  5 13  1  0  0  0  0
  6  9  1  0  0  0  0
  7 13  1  0  0  0  0
  8  3  2  0  0  0  0
  9 10  2  0  0  0  0
 10 16  1  0  0  0  0
 10  8  1  0  0  0  0
 11 24  1  0  0  0  0
 11 16  1  0  0  0  0
 12 14  1  0  0  0  0
 12  1  1  0  0  0  0
 13  6  2  0  0  0  0
 14  5  1  0  0  0  0
 15  4  2  0  0  0  0
 16 15  1  6  0  0  0
 17  2  1  0  0  0  0
 18 11  1  0  0  0  0
 19 20  2  0  0  0  0
 21 19  1  0  0  0  0
 21 22  2  0  0  0  0
 23 21  1  0  0  0  0
 26 32  1  0  0  0  0
 27 31  1  1  0  0  0
 28 27  1  0  0  0  0
 29 28  2  0  0  0  0
 30 25  1  6  0  0  0
 30 26  1  0  0  0  0
 30 29  1  0  0  0  0
 32 24  1  1  0  0  0
 32 27  1  0  0  0  0
M  END
>  <MODEL>
5

>  <REMARK>
 VINA RESULT:      -8.7      4.431      6.939
  Name = 
  4 active torsions:
  status: ('A' for Active; 'I' for Inactive)
    1  A    between atoms: C_1  and  N_10
    2  A    between atoms: C_2  and  C_24
    3  A    between atoms: N_16  and  C_27
    4  A    between atoms: C_27  and  C_32
                            x       y       z     vdW  Elec       q    Type
                         _______ _______ _______ _____ _____    ______ ____

>  <TORSDO>
F 4

$$$$
=
 OpenBabel10272413313D

 32 36  0  0  1  0  0  0  0  0999 V2000
  190.3170  177.0460  137.3170 C   0  0  1  0  0  3  0  0  0  0  0  0
  188.8150  177.0190  142.1950 C   0  0  0  0  0  0  0  0  0  0  0  0
  184.4570  179.3460  142.1940 C   0  0  0  0  0  3  0  0  0  0  0  0
  184.3780  179.0870  143.5010 C   0  0  0  0  0  3  0  0  0  0  0  0
  190.0880  176.8350  140.1990 C   0  0  0  0  0  0  0  0  0  0  0  0
  187.9730  177.9370  140.1540 N   0  0  0  0  0  0  0  0  0  0  0  0
  189.2120  177.8340  138.0260 C   0  0  0  0  0  2  0  0  0  0  0  0
  185.6230  178.9100  141.3430 C   0  0  0  0  0  2  0  0  0  0  0  0
  187.8040  177.7200  141.4900 C   0  0  0  0  0  0  0  0  0  0  0  0
  186.6940  178.1710  142.1120 C   0  0  0  0  0  0  0  0  0  0  0  0
  187.5720  177.2060  144.2540 N   0  0  0  0  0  0  0  0  0  0  0  0
  191.5790  176.9930  138.1800 C   0  0  0  0  0  2  0  0  0  0  0  0
  189.0730  177.5010  139.4870 C   0  0  0  0  0  0  0  0  0  0  0  0
  191.3110  176.2980  139.5150 C   0  0  0  0  0  2  0  0  0  0  0  0
  185.4400  178.3530  144.2060 C   0  0  0  0  0  3  0  0  0  0  0  0
  186.5300  177.9190  143.5650 C   0  0  0  0  0  0  0  0  0  0  0  0
  189.9210  176.6000  141.5270 N   0  0  0  0  0  0  0  0  0  0  0  0
  188.7110  176.7650  143.5060 C   0  0  0  0  0  3  0  0  0  0  0  0
  188.6280  175.4420  136.6340 N   0  0  0  0  0  0  0  0  0  0  0  0
  189.8650  175.6720  136.9390 C   0  0  0  0  0  3  0  0  0  0  0  0
  188.1650  174.1420  136.2630 C   0  0  0  0  0  0  0  0  0  0  0  0
  188.1020  173.7990  135.0510 O   0  0  0  0  0  0  0  0  0  0  0  0
  187.7450  173.1850  137.3210 C   0  0  0  0  0  1  0  0  0  0  0  0
  187.5080  176.9440  145.6900 C   0  0  0  0  0  2  0  0  0  0  0  0
  192.0780  176.1650  147.1250 F   0  0  0  0  0  0  0  0  0  0  0  0
  189.8520  176.4880  146.3500 C   0  0  0  0  0  2  0  0  0  0  0  0
  188.4410  177.8010  147.8740 C   0  0  1  0  0  3  0  0  0  0  0  0
  189.6540  178.0810  148.6240 N   0  0  0  0  0  0  0  0  0  0  0  0
  190.8030  177.7400  148.2510 N   0  0  0  0  0  0  0  0  0  0  0  0
  191.0890  177.1170  146.9710 C   0  0  1  0  0  3  0  0  0  0  0  0
  187.5750  178.8720  147.9950 F   0  0  0  0  0  0  0  0  0  0  0  0
  188.7330  177.5050  146.4040 C   0  0  2  0  0  3  0  0  0  0  0  0
  1 20  1  1  0  0  0
  1  7  1  0  0  0  0
  1 12  1  0  0  0  0
  2 18  2  0  0  0  0
  3  4  2  0  0  0  0
  4 15  1  0  0  0  0
  5 17  2  0  0  0  0
  6  9  1  0  0  0  0
  7 13  1  0  0  0  0
  8 10  1  0  0  0  0
  8  3  1  0  0  0  0
  9 10  2  0  0  0  0
  9  2  1  0  0  0  0
 10 16  1  0  0  0  0
 11 24  1  0  0  0  0
 12 14  1  0  0  0  0
 13  6  2  0  0  0  0
 13  5  1  0  0  0  0
 14  5  1  0  0  0  0
 16 15  2  0  0  0  0
 16 11  1  0  0  0  0
 17  2  1  0  0  0  0
 18 11  1  0  0  0  0
 19 20  2  0  0  0  0
 21 19  1  0  0  0  0
 21 23  1  0  0  0  0
 22 21  2  0  0  0  0
 26 32  1  0  0  0  0
 26 30  1  0  0  0  0
 27 31  1  6  0  0  0
 27 28  1  0  0  0  0
 29 28  2  0  0  0  0
 30 25  1  1  0  0  0
 30 29  1  0  0  0  0
 32 24  1  1  0  0  0
 32 27  1  0  0  0  0
M  END
>  <MODEL>
6

>  <REMARK>
 VINA RESULT:      -8.7      1.524      1.834
  Name = 
  4 active torsions:
  status: ('A' for Active; 'I' for Inactive)
    1  A    between atoms: C_1  and  N_10
    2  A    between atoms: C_2  and  C_24
    3  A    between atoms: N_16  and  C_27
    4  A    between atoms: C_27  and  C_32
                            x       y       z     vdW  Elec       q    Type
                         _______ _______ _______ _____ _____    ______ ____

>  <TORSDO>
F 4

$$$$
=
 OpenBabel10272413313D

 32 36  0  0  1  0  0  0  0  0999 V2000
  181.5580  179.2360  138.9540 C   0  0  1  0  0  3  0  0  0  0  0  0
  185.8600  178.3590  141.5560 C   0  0  0  0  0  0  0  0  0  0  0  0
  184.5080  178.4330  146.3070 C   0  0  0  0  0  3  0  0  0  0  0  0
  185.7690  178.1220  146.6160 C   0  0  0  0  0  3  0  0  0  0  0  0
  184.2890  178.8460  139.8440 C   0  0  0  0  0  0  0  0  0  0  0  0
  183.5930  178.8590  142.1250 N   0  0  0  0  0  0  0  0  0  0  0  0
  181.8770  179.4060  140.4420 C   0  0  0  0  0  2  0  0  0  0  0  0
  184.0330  178.6080  144.8870 C   0  0  0  0  0  3  0  0  0  0  0  0
  184.8530  178.5430  142.5370 C   0  0  0  0  0  0  0  0  0  0  0  0
  185.1210  178.4150  143.8550 C   0  0  0  0  0  0  0  0  0  0  0  0
  187.5000  177.8860  143.2620 N   0  0  0  0  0  0  0  0  0  0  0  0
  182.7180  179.7370  138.0930 C   0  0  0  0  0  2  0  0  0  0  0  0
  183.2770  178.9970  140.8110 C   0  0  0  0  0  0  0  0  0  0  0  0
  183.9990  178.9510  138.3750 C   0  0  0  0  0  2  0  0  0  0  0  0
  186.7920  177.9320  145.5760 C   0  0  0  0  0  3  0  0  0  0  0  0
  186.4990  178.0670  144.2780 C   0  0  1  0  0  3  0  0  0  0  0  0
  185.5440  178.5160  140.2440 N   0  0  0  0  0  0  0  0  0  0  0  0
  187.1180  178.0410  141.8890 C   0  0  0  0  0  3  0  0  0  0  0  0
  180.6580  177.0490  139.4990 N   0  0  0  0  0  0  0  0  0  0  0  0
  181.2100  177.8210  138.6190 C   0  0  0  0  0  3  0  0  0  0  0  0
  180.3080  175.6940  139.2090 C   0  0  0  0  0  0  0  0  0  0  0  0
  180.2650  175.2770  138.0180 O   0  0  0  0  0  0  0  0  0  0  0  0
  179.9830  174.7660  140.3240 C   0  0  0  0  0  1  0  0  0  0  0  0
  188.8880  177.5750  143.5910 C   0  0  0  0  0  2  0  0  0  0  0  0
  190.5830  175.9820  139.3320 F   0  0  0  0  0  0  0  0  0  0  0  0
  189.6730  176.7160  141.4040 C   0  0  0  0  0  2  0  0  0  0  0  0
  191.2720  177.9190  142.8300 C   0  0  1  0  0  3  0  0  0  0  0  0
  192.1720  177.9070  141.6890 N   0  0  0  0  0  0  0  0  0  0  0  0
  191.8530  177.4910  140.5490 N   0  0  0  0  0  0  0  0  0  0  0  0
  190.5130  177.0650  140.1870 C   0  0  1  0  0  3  0  0  0  0  0  0
  191.5050  179.0550  143.5820 F   0  0  0  0  0  0  0  0  0  0  0  0
  189.8070  177.8430  142.4040 C   0  0  2  0  0  3  0  0  0  0  0  0
  1 20  1  1  0  0  0
  1  7  1  0  0  0  0
  2 18  2  0  0  0  0
  2  9  1  0  0  0  0
  3  4  1  0  0  0  0
  5 17  2  0  0  0  0
  5 13  1  0  0  0  0
  6  9  1  0  0  0  0
  7 13  1  0  0  0  0
  8  3  2  0  0  0  0
  9 10  2  0  0  0  0
 10 16  1  0  0  0  0
 10  8  1  0  0  0  0
 11 24  1  0  0  0  0
 11 16  1  0  0  0  0
 12 14  1  0  0  0  0
 12  1  1  0  0  0  0
 13  6  2  0  0  0  0
 14  5  1  0  0  0  0
 15  4  2  0  0  0  0
 16 15  1  1  0  0  0
 17  2  1  0  0  0  0
 18 11  1  0  0  0  0
 20 19  2  0  0  0  0
 21 19  1  0  0  0  0
 21 23  1  0  0  0  0
 22 21  2  0  0  0  0
 26 32  1  0  0  0  0
 27 31  1  6  0  0  0
 28 27  1  0  0  0  0
 29 28  2  0  0  0  0
 30 25  1  6  0  0  0
 30 29  1  0  0  0  0
 30 26  1  0  0  0  0
 32 27  1  0  0  0  0
 32 24  1  1  0  0  0
M  END
>  <MODEL>
7

>  <REMARK>
 VINA RESULT:      -8.5      3.379      4.730
  Name = 
  4 active torsions:
  status: ('A' for Active; 'I' for Inactive)
    1  A    between atoms: C_1  and  N_10
    2  A    between atoms: C_2  and  C_24
    3  A    between atoms: N_16  and  C_27
    4  A    between atoms: C_27  and  C_32
                            x       y       z     vdW  Elec       q    Type
                         _______ _______ _______ _____ _____    ______ ____

>  <TORSDO>
F 4

$$$$
=
 OpenBabel10272413313D

 32 36  0  0  1  0  0  0  0  0999 V2000
  180.6970  177.0410  136.3680 C   0  0  1  0  0  3  0  0  0  0  0  0
  184.7220  178.2340  139.2710 C   0  0  0  0  0  0  0  0  0  0  0  0
  182.8350  179.1430  143.7460 C   0  0  0  0  0  3  0  0  0  0  0  0
  184.0850  179.3230  144.1780 C   0  0  0  0  0  3  0  0  0  0  0  0
  183.2980  177.7490  137.4340 C   0  0  0  0  0  0  0  0  0  0  0  0
  182.3540  178.1510  139.5870 N   0  0  0  0  0  0  0  0  0  0  0  0
  180.7720  177.6860  137.7550 C   0  0  0  0  0  2  0  0  0  0  0  0
  182.5070  178.7840  142.3190 C   0  0  0  0  0  3  0  0  0  0  0  0
  183.5920  178.3550  140.1200 C   0  0  0  0  0  0  0  0  0  0  0  0
  183.7230  178.6660  141.4270 C   0  0  0  0  0  0  0  0  0  0  0  0
  186.2080  178.7490  141.1010 N   0  0  0  0  0  0  0  0  0  0  0  0
  181.7660  177.6250  135.4430 C   0  0  0  0  0  2  0  0  0  0  0  0
  182.1750  177.8360  138.2790 C   0  0  0  0  0  0  0  0  0  0  0  0
  183.1720  177.3710  135.9870 C   0  0  0  0  0  2  0  0  0  0  0  0
  185.2390  179.1860  143.2760 C   0  0  0  0  0  3  0  0  0  0  0  0
  185.0810  178.8780  141.9840 C   0  0  1  0  0  3  0  0  0  0  0  0
  184.5370  177.9350  137.9590 N   0  0  0  0  0  0  0  0  0  0  0  0
  185.9680  178.4130  139.7280 C   0  0  0  0  0  3  0  0  0  0  0  0
  180.0660  174.8740  137.2620 N   0  0  0  0  0  0  0  0  0  0  0  0
  180.8050  175.5510  136.4420 C   0  0  0  0  0  3  0  0  0  0  0  0
  180.1410  173.4500  137.3520 C   0  0  0  0  0  0  0  0  0  0  0  0
  179.9820  172.8620  138.4570 O   0  0  0  0  0  0  0  0  0  0  0  0
  180.4190  172.6520  136.1290 C   0  0  0  0  0  1  0  0  0  0  0  0
  187.5770  178.9740  141.5570 C   0  0  0  0  0  2  0  0  0  0  0  0
  190.0660  176.5920  144.9750 F   0  0  0  0  0  0  0  0  0  0  0  0
  188.8080  177.8130  143.3660 C   0  0  0  0  0  2  0  0  0  0  0  0
  189.3870  177.2910  141.0360 C   0  0  1  0  0  3  0  0  0  0  0  0
  190.1880  176.2020  141.5650 N   0  0  0  0  0  0  0  0  0  0  0  0
  190.2110  175.8720  142.7760 N   0  0  0  0  0  0  0  0  0  0  0  0
  189.3610  176.4630  143.7940 C   0  0  1  0  0  3  0  0  0  0  0  0
  188.9060  176.9390  139.7880 F   0  0  0  0  0  0  0  0  0  0  0  0
  188.2390  177.6650  141.9720 C   0  0  2  0  0  3  0  0  0  0  0  0
  1 20  1  1  0  0  0
  1  7  1  0  0  0  0
  2 18  2  0  0  0  0
  2  9  1  0  0  0  0
  3  4  1  0  0  0  0
  5 17  2  0  0  0  0
  5 13  1  0  0  0  0
  6  9  1  0  0  0  0
  7 13  1  0  0  0  0
  8  3  2  0  0  0  0
  9 10  2  0  0  0  0
 10 16  1  0  0  0  0
 10  8  1  0  0  0  0
 11 24  1  0  0  0  0
 11 16  1  0  0  0  0
 12 14  1  0  0  0  0
 12  1  1  0  0  0  0
 13  6  2  0  0  0  0
 14  5  1  0  0  0  0
 15  4  2  0  0  0  0
 16 15  1  6  0  0  0
 17  2  1  0  0  0  0
 18 11  1  0  0  0  0
 19 21  1  0  0  0  0
 20 19  2  0  0  0  0
 21 22  2  0  0  0  0
 23 21  1  0  0  0  0
 26 30  1  0  0  0  0
 27 31  1  6  0  0  0
 27 28  1  0  0  0  0
 27 32  1  0  0  0  0
 28 29  2  0  0  0  0
 29 30  1  0  0  0  0
 30 25  1  1  0  0  0
 32 24  1  6  0  0  0
 32 26  1  0  0  0  0
M  END
>  <MODEL>
8

>  <REMARK>
 VINA RESULT:      -8.3      3.687      5.296
  Name = 
  4 active torsions:
  status: ('A' for Active; 'I' for Inactive)
    1  A    between atoms: C_1  and  N_10
    2  A    between atoms: C_2  and  C_24
    3  A    between atoms: N_16  and  C_27
    4  A    between atoms: C_27  and  C_32
                            x       y       z     vdW  Elec       q    Type
                         _______ _______ _______ _____ _____    ______ ____

>  <TORSDO>
F 4

$$$$
=
 OpenBabel10272413313D

 32 36  0  0  1  0  0  0  0  0999 V2000
  190.6730  175.7700  135.5050 C   0  0  1  0  0  3  0  0  0  0  0  0
  189.4060  177.2210  140.2310 C   0  0  0  0  0  0  0  0  0  0  0  0
  184.8420  179.0660  139.8120 C   0  0  0  0  0  3  0  0  0  0  0  0
  184.8490  179.2430  141.1350 C   0  0  0  0  0  3  0  0  0  0  0  0
  190.5980  176.4950  138.3100 C   0  0  0  0  0  0  0  0  0  0  0  0
  188.3840  177.3500  138.0740 N   0  0  0  0  0  0  0  0  0  0  0  0
  189.5280  176.6560  136.0040 C   0  0  0  0  0  2  0  0  0  0  0  0
  186.0050  178.4690  139.0610 C   0  0  0  0  0  2  0  0  0  0  0  0
  188.2990  177.5700  139.4170 C   0  0  0  0  0  0  0  0  0  0  0  0
  187.1790  178.1100  139.9440 C   0  0  0  0  0  0  0  0  0  0  0  0
  188.2450  177.9710  142.2090 N   0  0  0  0  0  0  0  0  0  0  0  0
  191.9720  176.1020  136.2410 C   0  0  0  0  0  2  0  0  0  0  0  0
  189.4900  176.8090  137.5010 C   0  0  0  0  0  0  0  0  0  0  0  0
  191.8360  175.8630  137.7450 C   0  0  0  0  0  2  0  0  0  0  0  0
  186.0100  178.8660  141.9570 C   0  0  0  0  0  3  0  0  0  0  0  0
  187.1080  178.3340  141.4080 C   0  0  0  0  0  0  0  0  0  0  0  0
  190.5170  176.6950  139.6520 N   0  0  0  0  0  0  0  0  0  0  0  0
  189.3880  177.4010  141.5580 C   0  0  0  0  0  3  0  0  0  0  0  0
  189.1230  173.9020  135.4990 N   0  0  0  0  0  0  0  0  0  0  0  0
  190.3430  174.3160  135.6240 C   0  0  0  0  0  3  0  0  0  0  0  0
  188.7760  172.5190  135.6020 C   0  0  0  0  0  0  0  0  0  0  0  0
  188.0290  172.1070  136.5310 O   0  0  0  0  0  0  0  0  0  0  0  0
  189.3110  171.5540  134.6050 C   0  0  0  0  0  1  0  0  0  0  0  0
  188.2750  178.1890  143.6530 C   0  0  0  0  0  2  0  0  0  0  0  0
  190.3160  176.1180  147.5380 F   0  0  0  0  0  0  0  0  0  0  0  0
  189.2330  177.0960  145.6590 C   0  0  0  0  0  2  0  0  0  0  0  0
  190.6420  178.6630  144.3950 C   0  0  1  0  0  3  0  0  0  0  0  0
  191.7490  178.2000  145.2140 N   0  0  0  0  0  0  0  0  0  0  0  0
  191.6660  177.2550  146.0350 N   0  0  0  0  0  0  0  0  0  0  0  0
  190.4850  176.4270  146.2020 C   0  0  1  0  0  3  0  0  0  0  0  0
  191.1180  179.0240  143.1480 F   0  0  0  0  0  0  0  0  0  0  0  0
  189.5430  177.6090  144.2700 C   0  0  2  0  0  3  0  0  0  0  0  0
  1 20  1  1  0  0  0
  1  7  1  0  0  0  0
  1 12  1  0  0  0  0
  2 18  2  0  0  0  0
  3  4  2  0  0  0  0
  4 15  1  0  0  0  0
  5 17  2  0  0  0  0
  6  9  1  0  0  0  0
  7 13  1  0  0  0  0
  8  3  1  0  0  0  0
  8 10  1  0  0  0  0
  9 10  2  0  0  0  0
  9  2  1  0  0  0  0
 10 16  1  0  0  0  0
 11 24  1  0  0  0  0
 12 14  1  0  0  0  0
 13  6  2  0  0  0  0
 13  5  1  0  0  0  0
 14  5  1  0  0  0  0
 16 15  2  0  0  0  0
 16 11  1  0  0  0  0
 17  2  1  0  0  0  0
 18 11  1  0  0  0  0
 19 21  1  0  0  0  0
 19 20  2  0  0  0  0
 21 22  2  0  0  0  0
 23 21  1  0  0  0  0
 26 30  1  0  0  0  0
 27 31  1  6  0  0  0
 27 28  1  0  0  0  0
 28 29  2  0  0  0  0
 29 30  1  0  0  0  0
 30 25  1  1  0  0  0
 32 24  1  1  0  0  0
 32 27  1  0  0  0  0
 32 26  1  0  0  0  0
M  END
>  <MODEL>
9

>  <REMARK>
 VINA RESULT:      -8.1      2.379      3.432
  Name = 
  4 active torsions:
  status: ('A' for Active; 'I' for Inactive)
    1  A    between atoms: C_1  and  N_10
    2  A    between atoms: C_2  and  C_24
    3  A    between atoms: N_16  and  C_27
    4  A    between atoms: C_27  and  C_32
                            x       y       z     vdW  Elec       q    Type
                         _______ _______ _______ _____ _____    ______ ____

>  <TORSDO>
F 4

$$$$
