=
 OpenBabel10272400473D

 25 28  0  0  1  0  0  0  0  0999 V2000
  187.1690  177.9400  145.8630 C   0  0  0  0  0  0  0  0  0  0  0  0
  188.3530  177.4700  145.4660 C   0  0  0  0  0  0  0  0  0  0  0  0
  187.8280  177.9670  148.2770 C   0  0  0  0  0  2  0  0  0  0  0  0
  186.0520  178.2640  145.1310 C   0  0  0  0  0  0  0  0  0  0  0  0
  184.1660  178.8380  144.0950 N   0  0  0  0  0  0  0  0  0  0  0  0
  189.1570  177.4410  147.7780 C   0  0  0  0  0  3  0  0  0  0  0  0
  185.1410  178.6870  145.9940 C   0  0  0  0  0  0  0  0  0  0  0  0
  183.9410  179.0530  145.3380 N   0  0  0  0  0  0  0  0  0  0  0  0
  190.7010  176.7000  146.0000 C   0  0  0  0  0  0  0  0  0  0  0  0
  191.8100  176.4260  146.9580 C   0  0  0  0  0  1  0  0  0  0  0  0
  188.6530  177.2100  144.0980 N   0  0  0  0  0  2  0  0  0  0  0  0
  186.1300  177.9720  142.6300 C   0  0  0  0  0  1  0  0  0  0  0  0
  186.8920  178.1850  147.1720 N   0  0  0  0  0  0  0  0  0  0  0  0
  185.6180  178.6580  147.2870 C   0  0  0  0  0  3  0  0  0  0  0  0
  190.9040  176.4830  144.7330 N   0  0  0  0  0  0  0  0  0  0  0  0
  185.5080  178.3320  143.9320 C   0  0  0  0  0  0  0  0  0  0  0  0
  189.9180  176.7080  143.7520 N   0  0  0  0  0  0  0  0  0  0  0  0
  189.3970  177.2100  146.4750 C   0  0  0  0  0  0  0  0  0  0  0  0
  190.2380  176.4890  142.3540 C   0  0  0  0  0  2  0  0  0  0  0  0
  189.7780  177.6840  141.5280 C   0  0  0  0  0  2  0  0  0  0  0  0
  189.3390  177.2880  140.1160 C   0  0  2  0  0  3  0  0  0  0  0  0
  190.4530  176.5700  139.3750 C   0  0  0  0  0  1  0  0  0  0  0  0
  189.1480  178.5670  138.0310 C   0  0  0  0  0  3  0  0  0  0  0  0
  188.6930  179.6630  137.3090 O   0  0  0  0  0  1  0  0  0  0  0  0
  188.8600  178.4590  139.3210 C   0  0  0  0  0  3  0  0  0  0  0  0
  1 13  1  0  0  0  0
  2  1  2  0  0  0  0
  2 18  1  0  0  0  0
  4  1  1  0  0  0  0
  4  7  1  0  0  0  0
  5  8  2  0  0  0  0
  6  3  1  0  0  0  0
  7 14  2  0  0  0  0
  8  7  1  0  0  0  0
  9 18  1  0  0  0  0
  9 10  1  0  0  0  0
 11  2  1  0  0  0  0
 12 16  1  0  0  0  0
 13 14  1  0  0  0  0
 13  3  1  0  0  0  0
 15  9  2  0  0  0  0
 16  5  1  0  0  0  0
 16  4  2  0  0  0  0
 17 11  1  0  0  0  0
 17 15  1  0  0  0  0
 18  6  2  0  0  0  0
 19 17  1  0  0  0  0
 20 19  1  0  0  0  0
 21 22  1  6  0  0  0
 21 20  1  0  0  0  0
 23 25  2  0  0  0  0
 24 23  1  0  0  0  0
 25 21  1  0  0  0  0
M  END
>  <MODEL>
1

>  <REMARK>
 VINA RESULT:      -9.6      0.000      0.000
  Name = 
  4 active torsions:
  status: ('A' for Active; 'I' for Inactive)
    1  A    between atoms: C_6  and  C_15
    2  A    between atoms: C_6  and  N_23
    3  A    between atoms: C_12  and  C_21
    4  A    between atoms: C_15  and  C_21
                            x       y       z     vdW  Elec       q    Type
                         _______ _______ _______ _____ _____    ______ ____

>  <TORSDO>
F 4

$$$$
=
 OpenBabel10272400473D

 25 28  0  0  1  0  0  0  0  0999 V2000
  187.0200  177.9530  145.7130 C   0  0  0  0  0  0  0  0  0  0  0  0
  188.1860  177.4950  145.2530 C   0  0  0  0  0  0  0  0  0  0  0  0
  187.8030  177.9710  148.0900 C   0  0  0  0  0  2  0  0  0  0  0  0
  185.8640  178.2710  145.0420 C   0  0  0  0  0  0  0  0  0  0  0  0
  183.9230  178.8360  144.1090 N   0  0  0  0  0  0  0  0  0  0  0  0
  189.1080  177.4600  147.5200 C   0  0  0  0  0  3  0  0  0  0  0  0
  184.9950  178.6820  145.9530 C   0  0  0  0  0  0  0  0  0  0  0  0
  183.7600  179.0420  145.3630 N   0  0  0  0  0  0  0  0  0  0  0  0
  190.5640  176.7420  145.6600 C   0  0  0  0  0  0  0  0  0  0  0  0
  191.7240  176.4710  146.5580 C   0  0  0  0  0  1  0  0  0  0  0  0
  188.4160  177.2450  143.8700 N   0  0  0  0  0  2  0  0  0  0  0  0
  185.8150  177.9950  142.5380 C   0  0  0  0  0  1  0  0  0  0  0  0
  186.8090  178.1880  147.0370 N   0  0  0  0  0  0  0  0  0  0  0  0
  185.5390  178.6490  147.2200 C   0  0  0  0  0  3  0  0  0  0  0  0
  190.7030  176.5330  144.3830 N   0  0  0  0  0  0  0  0  0  0  0  0
  185.2580  178.3420  143.8740 C   0  0  0  0  0  0  0  0  0  0  0  0
  189.6660  176.7560  143.4550 N   0  0  0  0  0  0  0  0  0  0  0  0
  189.2820  177.2380  146.2050 C   0  0  0  0  0  0  0  0  0  0  0  0
  189.9150  176.5480  142.0410 C   0  0  0  0  0  2  0  0  0  0  0  0
  189.2390  177.6490  141.2330 C   0  0  0  0  0  2  0  0  0  0  0  0
  189.9220  177.8900  139.8840 C   0  0  2  0  0  3  0  0  0  0  0  0
  188.9190  178.3220  138.8290 C   0  0  0  0  0  1  0  0  0  0  0  0
  190.2350  175.9530  138.4100 C   0  0  0  0  0  3  0  0  0  0  0  0
  190.9600  174.8470  137.9860 O   0  0  0  0  0  1  0  0  0  0  0  0
  190.6860  176.6950  139.4130 C   0  0  0  0  0  3  0  0  0  0  0  0
  1 13  1  0  0  0  0
  2  1  2  0  0  0  0
  2 18  1  0  0  0  0
  4  1  1  0  0  0  0
  4  7  1  0  0  0  0
  5  8  2  0  0  0  0
  6  3  1  0  0  0  0
  7 14  2  0  0  0  0
  8  7  1  0  0  0  0
  9 18  1  0  0  0  0
  9 10  1  0  0  0  0
 11  2  1  0  0  0  0
 12 16  1  0  0  0  0
 13 14  1  0  0  0  0
 13  3  1  0  0  0  0
 15  9  2  0  0  0  0
 16  5  1  0  0  0  0
 16  4  2  0  0  0  0
 17 11  1  0  0  0  0
 17 15  1  0  0  0  0
 18  6  2  0  0  0  0
 19 17  1  0  0  0  0
 20 19  1  0  0  0  0
 21 22  1  6  0  0  0
 21 20  1  0  0  0  0
 23 25  2  0  0  0  0
 24 23  1  0  0  0  0
 25 21  1  0  0  0  0
M  END
>  <MODEL>
2

>  <REMARK>
 VINA RESULT:      -9.3      1.153      1.441
  Name = 
  4 active torsions:
  status: ('A' for Active; 'I' for Inactive)
    1  A    between atoms: C_6  and  C_15
    2  A    between atoms: C_6  and  N_23
    3  A    between atoms: C_12  and  C_21
    4  A    between atoms: C_15  and  C_21
                            x       y       z     vdW  Elec       q    Type
                         _______ _______ _______ _____ _____    ______ ____

>  <TORSDO>
F 4

$$$$
=
 OpenBabel10272400473D

 25 28  0  0  1  0  0  0  0  0999 V2000
  188.5350  177.5740  145.6560 C   0  0  0  0  0  0  0  0  0  0  0  0
  187.8530  177.8200  144.5360 C   0  0  0  0  0  0  0  0  0  0  0  0
  186.5150  177.8340  147.1110 C   0  0  0  0  0  2  0  0  0  0  0  0
  189.8660  177.2900  145.8410 C   0  0  0  0  0  0  0  0  0  0  0  0
  191.9900  176.8130  146.3110 N   0  0  0  0  0  0  0  0  0  0  0  0
  185.7840  178.0990  145.8130 C   0  0  0  0  0  3  0  0  0  0  0  0
  190.0440  177.1260  147.1430 C   0  0  0  0  0  0  0  0  0  0  0  0
  191.3930  176.8220  147.4450 N   0  0  0  0  0  0  0  0  0  0  0  0
  185.6800  178.3520  143.3600 C   0  0  0  0  0  0  0  0  0  0  0  0
  184.2130  178.6230  143.3630 C   0  0  0  0  0  1  0  0  0  0  0  0
  188.4690  177.8260  143.2520 N   0  0  0  0  0  2  0  0  0  0  0  0
  191.3620  177.1810  143.8160 C   0  0  0  0  0  1  0  0  0  0  0  0
  187.9370  177.5710  146.8780 N   0  0  0  0  0  0  0  0  0  0  0  0
  188.8650  177.2920  147.8380 C   0  0  0  0  0  3  0  0  0  0  0  0
  186.3090  178.3440  142.2210 N   0  0  0  0  0  0  0  0  0  0  0  0
  191.0390  177.1090  145.2670 C   0  0  0  0  0  0  0  0  0  0  0  0
  187.6930  178.1000  142.1140 N   0  0  0  0  0  0  0  0  0  0  0  0
  186.4070  178.0940  144.6210 C   0  0  0  0  0  0  0  0  0  0  0  0
  188.3120  178.0590  140.8030 C   0  0  0  0  0  2  0  0  0  0  0  0
  189.4630  177.0590  140.8090 C   0  0  0  0  0  2  0  0  0  0  0  0
  190.5040  177.3550  139.7270 C   0  0  2  0  0  3  0  0  0  0  0  0
  190.3960  176.3710  138.5760 C   0  0  0  0  0  1  0  0  0  0  0  0
  192.9320  177.0900  139.4860 C   0  0  0  0  0  3  0  0  0  0  0  0
  194.2190  177.1080  140.0070 O   0  0  0  0  0  1  0  0  0  0  0  0
  191.8970  177.3680  140.2680 C   0  0  0  0  0  3  0  0  0  0  0  0
  1  4  1  0  0  0  0
  1 13  1  0  0  0  0
  2 18  1  0  0  0  0
  2  1  2  0  0  0  0
  4  7  1  0  0  0  0
  5  8  2  0  0  0  0
  6  3  1  0  0  0  0
  7  8  1  0  0  0  0
  7 14  2  0  0  0  0
  9 10  1  0  0  0  0
  9 18  1  0  0  0  0
 11  2  1  0  0  0  0
 12 16  1  0  0  0  0
 13  3  1  0  0  0  0
 13 14  1  0  0  0  0
 15  9  2  0  0  0  0
 16  4  2  0  0  0  0
 16  5  1  0  0  0  0
 17 15  1  0  0  0  0
 17 11  1  0  0  0  0
 18  6  2  0  0  0  0
 19 20  1  0  0  0  0
 19 17  1  0  0  0  0
 21 22  1  6  0  0  0
 21 25  1  0  0  0  0
 21 20  1  0  0  0  0
 23 24  1  0  0  0  0
 23 25  2  0  0  0  0
M  END
>  <MODEL>
3

>  <REMARK>
 VINA RESULT:      -9.0      2.058      4.603
  Name = 
  4 active torsions:
  status: ('A' for Active; 'I' for Inactive)
    1  A    between atoms: C_6  and  C_15
    2  A    between atoms: C_6  and  N_23
    3  A    between atoms: C_12  and  C_21
    4  A    between atoms: C_15  and  C_21
                            x       y       z     vdW  Elec       q    Type
                         _______ _______ _______ _____ _____    ______ ____

>  <TORSDO>
F 4

$$$$
=
 OpenBabel10272400473D

 25 28  0  0  1  0  0  0  0  0999 V2000
  188.4580  177.6890  146.0460 C   0  0  0  0  0  0  0  0  0  0  0  0
  187.6710  177.9190  144.9930 C   0  0  0  0  0  0  0  0  0  0  0  0
  186.6050  178.0470  147.6890 C   0  0  0  0  0  2  0  0  0  0  0  0
  189.7950  177.3750  146.1040 C   0  0  0  0  0  0  0  0  0  0  0  0
  191.9430  176.8560  146.3720 N   0  0  0  0  0  0  0  0  0  0  0  0
  185.7510  178.2920  146.4630 C   0  0  0  0  0  3  0  0  0  0  0  0
  190.1000  177.2460  147.3860 C   0  0  0  0  0  0  0  0  0  0  0  0
  191.4660  176.9160  147.5590 N   0  0  0  0  0  0  0  0  0  0  0  0
  185.4020  178.4720  144.0260 C   0  0  0  0  0  0  0  0  0  0  0  0
  183.9510  178.7830  144.1690 C   0  0  0  0  0  1  0  0  0  0  0  0
  188.1530  177.8690  143.6530 N   0  0  0  0  0  2  0  0  0  0  0  0
  191.0730  177.1640  143.9430 C   0  0  0  0  0  1  0  0  0  0  0  0
  187.9890  177.7400  147.3220 N   0  0  0  0  0  0  0  0  0  0  0  0
  189.0020  177.4650  148.1910 C   0  0  0  0  0  3  0  0  0  0  0  0
  185.9120  178.4120  142.8300 N   0  0  0  0  0  0  0  0  0  0  0  0
  190.8980  177.1460  145.4200 C   0  0  0  0  0  0  0  0  0  0  0  0
  187.2710  178.1280  142.5920 N   0  0  0  0  0  0  0  0  0  0  0  0
  186.2480  178.2340  145.2150 C   0  0  0  0  0  0  0  0  0  0  0  0
  187.7520  178.0310  141.2270 C   0  0  0  0  0  2  0  0  0  0  0  0
  188.9900  177.1420  141.1810 C   0  0  0  0  0  2  0  0  0  0  0  0
  189.7600  177.2760  139.8640 C   0  0  2  0  0  3  0  0  0  0  0  0
  191.2600  177.2800  140.1020 C   0  0  0  0  0  1  0  0  0  0  0  0
  189.0170  178.3980  137.8120 C   0  0  0  0  0  3  0  0  0  0  0  0
  188.6440  179.5370  137.1110 O   0  0  0  0  0  1  0  0  0  0  0  0
  189.3560  178.4900  139.0910 C   0  0  0  0  0  3  0  0  0  0  0  0
  1  4  1  0  0  0  0
  1 13  1  0  0  0  0
  2 18  1  0  0  0  0
  2  1  2  0  0  0  0
  4  7  1  0  0  0  0
  5  8  2  0  0  0  0
  6  3  1  0  0  0  0
  7  8  1  0  0  0  0
  7 14  2  0  0  0  0
  9 10  1  0  0  0  0
  9 18  1  0  0  0  0
 11  2  1  0  0  0  0
 12 16  1  0  0  0  0
 13  3  1  0  0  0  0
 13 14  1  0  0  0  0
 15  9  2  0  0  0  0
 16  4  2  0  0  0  0
 16  5  1  0  0  0  0
 17 15  1  0  0  0  0
 17 11  1  0  0  0  0
 18  6  2  0  0  0  0
 19 17  1  0  0  0  0
 20 19  1  0  0  0  0
 21 22  1  1  0  0  0
 21 20  1  0  0  0  0
 23 25  2  0  0  0  0
 24 23  1  0  0  0  0
 25 21  1  0  0  0  0
M  END
>  <MODEL>
4

>  <REMARK>
 VINA RESULT:      -9.0      1.336      4.256
  Name = 
  4 active torsions:
  status: ('A' for Active; 'I' for Inactive)
    1  A    between atoms: C_6  and  C_15
    2  A    between atoms: C_6  and  N_23
    3  A    between atoms: C_12  and  C_21
    4  A    between atoms: C_15  and  C_21
                            x       y       z     vdW  Elec       q    Type
                         _______ _______ _______ _____ _____    ______ ____

>  <TORSDO>
F 4

$$$$
=
 OpenBabel10272400473D

 25 28  0  0  1  0  0  0  0  0999 V2000
  186.8030  178.0690  145.2560 C   0  0  0  0  0  0  0  0  0  0  0  0
  187.9350  177.6630  144.6780 C   0  0  0  0  0  0  0  0  0  0  0  0
  187.7440  177.8740  147.5670 C   0  0  0  0  0  2  0  0  0  0  0  0
  185.6030  178.4380  144.6960 C   0  0  0  0  0  0  0  0  0  0  0  0
  183.6030  179.0710  143.9510 N   0  0  0  0  0  0  0  0  0  0  0  0
  189.0090  177.4270  146.8650 C   0  0  0  0  0  3  0  0  0  0  0  0
  184.7980  178.7580  145.6980 C   0  0  0  0  0  0  0  0  0  0  0  0
  183.5250  179.1610  145.2270 N   0  0  0  0  0  0  0  0  0  0  0  0
  190.3360  176.8940  144.8540 C   0  0  0  0  0  0  0  0  0  0  0  0
  191.5550  176.5510  145.6430 C   0  0  0  0  0  1  0  0  0  0  0  0
  188.0720  177.5430  143.2660 N   0  0  0  0  0  2  0  0  0  0  0  0
  185.3850  178.3920  142.1870 C   0  0  0  0  0  1  0  0  0  0  0  0
  186.6810  178.1800  146.6060 N   0  0  0  0  0  0  0  0  0  0  0  0
  185.4260  178.6120  146.9160 C   0  0  0  0  0  3  0  0  0  0  0  0
  190.3890  176.8040  143.5560 N   0  0  0  0  0  0  0  0  0  0  0  0
  184.9200  178.6110  143.5830 C   0  0  0  0  0  0  0  0  0  0  0  0
  189.2910  177.1030  142.7250 N   0  0  0  0  0  0  0  0  0  0  0  0
  189.0940  177.3290  145.5260 C   0  0  0  0  0  0  0  0  0  0  0  0
  189.4450  177.0270  141.2840 C   0  0  0  0  0  2  0  0  0  0  0  0
  188.6070  178.1130  140.6200 C   0  0  0  0  0  2  0  0  0  0  0  0
  188.4230  177.8770  139.1190 C   0  0  2  0  0  3  0  0  0  0  0  0
  189.3240  178.7880  138.3040 C   0  0  0  0  0  1  0  0  0  0  0  0
  186.5820  177.5480  137.5300 C   0  0  0  0  0  3  0  0  0  0  0  0
  185.2560  177.7080  137.1490 O   0  0  0  0  0  1  0  0  0  0  0  0
  187.0000  178.0380  138.6890 C   0  0  0  0  0  3  0  0  0  0  0  0
  1 13  1  0  0  0  0
  2  1  2  0  0  0  0
  2 18  1  0  0  0  0
  4  1  1  0  0  0  0
  4  7  1  0  0  0  0
  5  8  2  0  0  0  0
  6  3  1  0  0  0  0
  7 14  2  0  0  0  0
  8  7  1  0  0  0  0
  9 18  1  0  0  0  0
  9 10  1  0  0  0  0
 11  2  1  0  0  0  0
 12 16  1  0  0  0  0
 13 14  1  0  0  0  0
 13  3  1  0  0  0  0
 15  9  2  0  0  0  0
 16  5  1  0  0  0  0
 16  4  2  0  0  0  0
 17 11  1  0  0  0  0
 17 15  1  0  0  0  0
 18  6  2  0  0  0  0
 19 17  1  0  0  0  0
 20 19  1  0  0  0  0
 21 22  1  6  0  0  0
 21 20  1  0  0  0  0
 23 25  2  0  0  0  0
 24 23  1  0  0  0  0
 25 21  1  0  0  0  0
M  END
>  <MODEL>
5

>  <REMARK>
 VINA RESULT:      -8.9      1.293      1.501
  Name = 
  4 active torsions:
  status: ('A' for Active; 'I' for Inactive)
    1  A    between atoms: C_6  and  C_15
    2  A    between atoms: C_6  and  N_23
    3  A    between atoms: C_12  and  C_21
    4  A    between atoms: C_15  and  C_21
                            x       y       z     vdW  Elec       q    Type
                         _______ _______ _______ _____ _____    ______ ____

>  <TORSDO>
F 4

$$$$
=
 OpenBabel10272400473D

 25 28  0  0  1  0  0  0  0  0999 V2000
  189.6150  177.3840  144.1100 C   0  0  0  0  0  0  0  0  0  0  0  0
  188.6690  177.6750  145.0050 C   0  0  0  0  0  0  0  0  0  0  0  0
  191.2850  176.7590  145.8660 C   0  0  0  0  0  2  0  0  0  0  0  0
  189.5860  177.4390  142.7370 C   0  0  0  0  0  0  0  0  0  0  0  0
  189.7020  177.4670  140.5140 N   0  0  0  0  0  0  0  0  0  0  0  0
  190.1780  177.0930  146.8420 C   0  0  0  0  0  3  0  0  0  0  0  0
  190.7790  177.0480  142.3140 C   0  0  0  0  0  0  0  0  0  0  0  0
  190.8550  177.0640  140.9010 N   0  0  0  0  0  0  0  0  0  0  0  0
  187.8940  177.8400  147.4050 C   0  0  0  0  0  0  0  0  0  0  0  0
  188.1140  177.6950  148.8730 C   0  0  0  0  0  1  0  0  0  0  0  0
  187.3740  178.1300  144.6270 N   0  0  0  0  0  2  0  0  0  0  0  0
  187.4600  178.1880  141.6110 C   0  0  0  0  0  1  0  0  0  0  0  0
  190.8510  176.9500  144.4810 N   0  0  0  0  0  0  0  0  0  0  0  0
  191.6080  176.7300  143.3690 C   0  0  0  0  0  3  0  0  0  0  0  0
  186.7320  178.2540  146.9870 N   0  0  0  0  0  0  0  0  0  0  0  0
  188.8700  177.7150  141.6660 C   0  0  0  0  0  0  0  0  0  0  0  0
  186.4280  178.4250  145.6220 N   0  0  0  0  0  0  0  0  0  0  0  0
  188.9670  177.5200  146.4400 C   0  0  0  0  0  0  0  0  0  0  0  0
  185.0940  178.8430  145.2340 C   0  0  0  0  0  2  0  0  0  0  0  0
  185.0450  179.0740  143.7280 C   0  0  0  0  0  2  0  0  0  0  0  0
  183.7950  178.4720  143.0820 C   0  0  2  0  0  3  0  0  0  0  0  0
  183.8680  178.5480  141.5670 C   0  0  0  0  0  1  0  0  0  0  0  0
  181.4000  178.9750  142.9050 C   0  0  0  0  0  3  0  0  0  0  0  0
  180.2420  179.5790  143.3770 O   0  0  0  0  0  1  0  0  0  0  0  0
  182.5370  179.1140  143.5720 C   0  0  0  0  0  3  0  0  0  0  0  0
  1 13  1  0  0  0  0
  1  2  2  0  0  0  0
  2 18  1  0  0  0  0
  3  6  1  0  0  0  0
  4  1  1  0  0  0  0
  5  8  2  0  0  0  0
  5 16  1  0  0  0  0
  7  4  1  0  0  0  0
  7 14  2  0  0  0  0
  8  7  1  0  0  0  0
  9 10  1  0  0  0  0
 11  2  1  0  0  0  0
 11 17  1  0  0  0  0
 12 16  1  0  0  0  0
 13  3  1  0  0  0  0
 14 13  1  0  0  0  0
 15  9  2  0  0  0  0
 16  4  2  0  0  0  0
 17 15  1  0  0  0  0
 18  6  2  0  0  0  0
 18  9  1  0  0  0  0
 19 17  1  0  0  0  0
 20 19  1  0  0  0  0
 21 22  1  6  0  0  0
 21 25  1  0  0  0  0
 21 20  1  0  0  0  0
 23 24  1  0  0  0  0
 23 25  2  0  0  0  0
M  END
>  <MODEL>
6

>  <REMARK>
 VINA RESULT:      -8.8      2.750      5.672
  Name = 
  4 active torsions:
  status: ('A' for Active; 'I' for Inactive)
    1  A    between atoms: C_6  and  C_15
    2  A    between atoms: C_6  and  N_23
    3  A    between atoms: C_12  and  C_21
    4  A    between atoms: C_15  and  C_21
                            x       y       z     vdW  Elec       q    Type
                         _______ _______ _______ _____ _____    ______ ____

>  <TORSDO>
F 4

$$$$
=
 OpenBabel10272400473D

 25 28  0  0  1  0  0  0  0  0999 V2000
  188.6450  177.5120  145.6120 C   0  0  0  0  0  0  0  0  0  0  0  0
  188.1100  177.6430  144.3970 C   0  0  0  0  0  0  0  0  0  0  0  0
  186.5070  178.0970  146.7730 C   0  0  0  0  0  2  0  0  0  0  0  0
  189.9230  177.1730  145.9880 C   0  0  0  0  0  0  0  0  0  0  0  0
  191.9390  176.6330  146.7620 N   0  0  0  0  0  0  0  0  0  0  0  0
  185.9430  178.2260  145.3750 C   0  0  0  0  0  3  0  0  0  0  0  0
  189.9450  177.1800  147.3120 C   0  0  0  0  0  0  0  0  0  0  0  0
  191.2260  176.8360  147.8070 N   0  0  0  0  0  0  0  0  0  0  0  0
  186.1240  178.1430  142.9140 C   0  0  0  0  0  0  0  0  0  0  0  0
  184.6920  178.5040  142.7100 C   0  0  0  0  0  1  0  0  0  0  0  0
  188.8600  177.4340  143.2040 N   0  0  0  0  0  2  0  0  0  0  0  0
  191.6150  176.6920  144.1850 C   0  0  0  0  0  1  0  0  0  0  0  0
  187.9200  177.7160  146.7460 N   0  0  0  0  0  0  0  0  0  0  0  0
  188.7140  177.5140  147.8350 C   0  0  0  0  0  3  0  0  0  0  0  0
  186.8710  177.9380  141.8680 N   0  0  0  0  0  0  0  0  0  0  0  0
  191.1330  176.8410  145.5840 C   0  0  0  0  0  0  0  0  0  0  0  0
  188.2340  177.5960  141.9580 N   0  0  0  0  0  0  0  0  0  0  0  0
  186.6880  178.0170  144.2750 C   0  0  0  0  0  0  0  0  0  0  0  0
  188.9870  177.3350  140.7450 C   0  0  0  0  0  2  0  0  0  0  0  0
  188.6740  178.4050  139.7060 C   0  0  0  0  0  2  0  0  0  0  0  0
  189.2850  178.0920  138.3380 C   0  0  2  0  0  3  0  0  0  0  0  0
  188.9790  179.1900  137.3340 C   0  0  0  0  0  1  0  0  0  0  0  0
  187.6310  176.6210  137.2780 C   0  0  0  0  0  3  0  0  0  0  0  0
  187.2350  175.3820  136.7890 O   0  0  0  0  0  1  0  0  0  0  0  0
  188.8380  176.7680  137.8070 C   0  0  0  0  0  3  0  0  0  0  0  0
  1  4  1  0  0  0  0
  1 13  1  0  0  0  0
  2  1  2  0  0  0  0
  4  7  1  0  0  0  0
  5  8  2  0  0  0  0
  6  3  1  0  0  0  0
  7  8  1  0  0  0  0
  7 14  2  0  0  0  0
  9 18  1  0  0  0  0
 10  9  1  0  0  0  0
 11  2  1  0  0  0  0
 12 16  1  0  0  0  0
 13  3  1  0  0  0  0
 13 14  1  0  0  0  0
 15 17  1  0  0  0  0
 15  9  2  0  0  0  0
 16  4  2  0  0  0  0
 16  5  1  0  0  0  0
 17 11  1  0  0  0  0
 18  2  1  0  0  0  0
 18  6  2  0  0  0  0
 19 17  1  0  0  0  0
 20 19  1  0  0  0  0
 21 22  1  6  0  0  0
 21 20  1  0  0  0  0
 23 25  2  0  0  0  0
 24 23  1  0  0  0  0
 25 21  1  0  0  0  0
M  END
>  <MODEL>
7

>  <REMARK>
 VINA RESULT:      -8.7      1.847      4.474
  Name = 
  4 active torsions:
  status: ('A' for Active; 'I' for Inactive)
    1  A    between atoms: C_6  and  C_15
    2  A    between atoms: C_6  and  N_23
    3  A    between atoms: C_12  and  C_21
    4  A    between atoms: C_15  and  C_21
                            x       y       z     vdW  Elec       q    Type
                         _______ _______ _______ _____ _____    ______ ____

>  <TORSDO>
F 4

$$$$
=
 OpenBabel10272400473D

 25 28  0  0  1  0  0  0  0  0999 V2000
  189.5310  177.4130  144.0550 C   0  0  0  0  0  0  0  0  0  0  0  0
  188.8340  177.7390  142.9640 C   0  0  0  0  0  0  0  0  0  0  0  0
  191.6050  176.9000  142.7510 C   0  0  0  0  0  2  0  0  0  0  0  0
  189.1550  177.3970  145.3760 C   0  0  0  0  0  0  0  0  0  0  0  0
  188.7090  177.3230  147.5570 N   0  0  0  0  0  0  0  0  0  0  0  0
  190.7760  177.2880  141.5450 C   0  0  0  0  0  3  0  0  0  0  0  0
  190.2120  177.0000  146.0690 C   0  0  0  0  0  0  0  0  0  0  0  0
  189.9320  176.9520  147.4550 N   0  0  0  0  0  0  0  0  0  0  0  0
  188.6960  178.0530  140.4600 C   0  0  0  0  0  0  0  0  0  0  0  0
  189.2950  178.0250  139.0940 C   0  0  0  0  0  1  0  0  0  0  0  0
  187.4730  178.1530  143.0220 N   0  0  0  0  0  2  0  0  0  0  0  0
  186.8010  178.0790  145.9630 C   0  0  0  0  0  1  0  0  0  0  0  0
  190.8310  177.0180  143.9890 N   0  0  0  0  0  0  0  0  0  0  0  0
  191.2890  176.7490  145.2450 C   0  0  0  0  0  3  0  0  0  0  0  0
  187.4530  178.4200  140.5880 N   0  0  0  0  0  0  0  0  0  0  0  0
  188.1860  177.6140  146.2440 C   0  0  0  0  0  0  0  0  0  0  0  0
  186.7980  178.4760  141.8340 N   0  0  0  0  0  0  0  0  0  0  0  0
  189.4920  177.6740  141.6460 C   0  0  0  0  0  0  0  0  0  0  0  0
  185.4260  178.9430  141.8990 C   0  0  0  0  0  2  0  0  0  0  0  0
  184.6970  178.2390  143.0370 C   0  0  0  0  0  2  0  0  0  0  0  0
  183.7000  179.1550  143.7510 C   0  0  2  0  0  3  0  0  0  0  0  0
  183.5690  178.7880  145.2190 C   0  0  0  0  0  1  0  0  0  0  0  0
  181.2880  178.7020  143.7390 C   0  0  0  0  0  3  0  0  0  0  0  0
  180.0490  178.7080  143.1130 O   0  0  0  0  0  1  0  0  0  0  0  0
  182.3570  179.1530  143.0960 C   0  0  0  0  0  3  0  0  0  0  0  0
  1  4  1  0  0  0  0
  2 11  1  0  0  0  0
  2  1  2  0  0  0  0
  3 13  1  0  0  0  0
  4  7  1  0  0  0  0
  4 16  2  0  0  0  0
  6 18  2  0  0  0  0
  6  3  1  0  0  0  0
  7  8  1  0  0  0  0
  8  5  2  0  0  0  0
  9 15  2  0  0  0  0
  9 18  1  0  0  0  0
 10  9  1  0  0  0  0
 12 16  1  0  0  0  0
 13  1  1  0  0  0  0
 13 14  1  0  0  0  0
 14  7  2  0  0  0  0
 15 17  1  0  0  0  0
 16  5  1  0  0  0  0
 17 19  1  0  0  0  0
 17 11  1  0  0  0  0
 18  2  1  0  0  0  0
 19 20  1  0  0  0  0
 20 21  1  0  0  0  0
 21 22  1  1  0  0  0
 24 23  1  0  0  0  0
 25 23  2  0  0  0  0
 25 21  1  0  0  0  0
M  END
>  <MODEL>
8

>  <REMARK>
 VINA RESULT:      -8.7      2.868      6.166
  Name = 
  4 active torsions:
  status: ('A' for Active; 'I' for Inactive)
    1  A    between atoms: C_6  and  C_15
    2  A    between atoms: C_6  and  N_23
    3  A    between atoms: C_12  and  C_21
    4  A    between atoms: C_15  and  C_21
                            x       y       z     vdW  Elec       q    Type
                         _______ _______ _______ _____ _____    ______ ____

>  <TORSDO>
F 4

$$$$
=
 OpenBabel10272400473D

 25 28  0  0  1  0  0  0  0  0999 V2000
  189.2570  177.4020  145.3350 C   0  0  0  0  0  0  0  0  0  0  0  0
  188.9370  177.5170  144.0450 C   0  0  0  0  0  0  0  0  0  0  0  0
  191.5520  176.5380  144.8350 C   0  0  0  0  0  2  0  0  0  0  0  0
  188.5220  177.6830  146.4610 C   0  0  0  0  0  0  0  0  0  0  0  0
  187.4700  178.0940  148.3810 N   0  0  0  0  0  0  0  0  0  0  0  0
  191.1450  176.6930  143.3860 C   0  0  0  0  0  3  0  0  0  0  0  0
  189.2920  177.3990  147.5010 C   0  0  0  0  0  0  0  0  0  0  0  0
  188.6260  177.6590  148.7220 N   0  0  0  0  0  0  0  0  0  0  0  0
  189.5480  177.2950  141.6030 C   0  0  0  0  0  0  0  0  0  0  0  0
  190.5040  176.9520  140.5110 C   0  0  0  0  0  1  0  0  0  0  0  0
  187.6650  177.9900  143.6130 N   0  0  0  0  0  2  0  0  0  0  0  0
  186.1810  178.5710  146.1750 C   0  0  0  0  0  1  0  0  0  0  0  0
  190.4750  176.9480  145.7390 N   0  0  0  0  0  0  0  0  0  0  0  0
  190.5270  176.9350  147.1000 C   0  0  0  0  0  3  0  0  0  0  0  0
  188.3650  177.7320  141.2800 N   0  0  0  0  0  0  0  0  0  0  0  0
  187.3740  178.1200  146.9410 C   0  0  0  0  0  0  0  0  0  0  0  0
  187.3920  178.0790  142.2380 N   0  0  0  0  0  0  0  0  0  0  0  0
  189.9320  177.1450  143.0220 C   0  0  0  0  0  0  0  0  0  0  0  0
  186.1130  178.6060  141.7990 C   0  0  0  0  0  2  0  0  0  0  0  0
  184.9980  178.0410  142.6710 C   0  0  0  0  0  2  0  0  0  0  0  0
  183.8310  179.0170  142.8370 C   0  0  2  0  0  3  0  0  0  0  0  0
  183.2730  178.9720  144.2490 C   0  0  0  0  0  1  0  0  0  0  0  0
  181.4670  178.8340  142.2050 C   0  0  0  0  0  3  0  0  0  0  0  0
  180.4690  178.6060  141.2670 O   0  0  0  0  0  1  0  0  0  0  0  0
  182.7410  178.7740  141.8440 C   0  0  0  0  0  3  0  0  0  0  0  0
  1 13  1  0  0  0  0
  1  4  1  0  0  0  0
  2  1  2  0  0  0  0
  3 13  1  0  0  0  0
  4 16  2  0  0  0  0
  4  7  1  0  0  0  0
  5  8  2  0  0  0  0
  6  3  1  0  0  0  0
  7  8  1  0  0  0  0
  9 18  1  0  0  0  0
 10  9  1  0  0  0  0
 11  2  1  0  0  0  0
 12 16  1  0  0  0  0
 13 14  1  0  0  0  0
 14  7  2  0  0  0  0
 15  9  2  0  0  0  0
 15 17  1  0  0  0  0
 16  5  1  0  0  0  0
 17 11  1  0  0  0  0
 18  6  2  0  0  0  0
 18  2  1  0  0  0  0
 19 17  1  0  0  0  0
 19 20  1  0  0  0  0
 20 21  1  0  0  0  0
 21 22  1  1  0  0  0
 24 23  1  0  0  0  0
 25 23  2  0  0  0  0
 25 21  1  0  0  0  0
M  END
>  <MODEL>
9

>  <REMARK>
 VINA RESULT:      -8.6      2.592      5.308
  Name = 
  4 active torsions:
  status: ('A' for Active; 'I' for Inactive)
    1  A    between atoms: C_6  and  C_15
    2  A    between atoms: C_6  and  N_23
    3  A    between atoms: C_12  and  C_21
    4  A    between atoms: C_15  and  C_21
                            x       y       z     vdW  Elec       q    Type
                         _______ _______ _______ _____ _____    ______ ____

>  <TORSDO>
F 4

$$$$
