=
 OpenBabel10272400253D

 31 34  0  0  1  0  0  0  0  0999 V2000
  185.1490  178.4110  145.7560 C   0  0  0  0  0  0  0  0  0  0  0  0
  188.3980  177.7370  143.9650 C   0  0  0  0  0  0  0  0  0  0  0  0
  189.3530  177.3840  144.9780 C   0  0  0  0  0  0  0  0  0  0  0  0
  189.9760  176.9760  147.3090 C   0  0  0  0  0  3  0  0  0  0  0  0
  187.0340  178.0690  144.2350 C   0  0  0  0  0  0  0  0  0  0  0  0
  184.3260  178.7470  144.6840 C   0  0  0  0  0  3  0  0  0  0  0  0
  189.0260  177.3210  146.3460 C   0  0  0  0  0  3  0  0  0  0  0  0
  187.9230  178.1080  141.5690 C   0  0  0  0  0  0  0  0  0  0  0  0
  184.6290  178.4110  147.0790 N   0  0  0  0  0  1  0  0  0  0  0  0
  191.0840  177.1260  143.2830 C   0  0  0  0  0  3  0  0  0  0  0  0
  191.2840  176.6850  146.9250 C   0  0  0  0  0  0  0  0  0  0  0  0
  186.6450  178.4210  141.8910 N   0  0  0  0  0  0  0  0  0  0  0  0
  188.8350  177.7640  142.6020 C   0  0  0  0  0  0  0  0  0  0  0  0
  186.4860  178.0790  145.5320 C   0  0  0  0  0  3  0  0  0  0  0  0
  192.2300  176.3410  147.8810 O   0  0  0  0  0  1  0  0  0  0  0  0
  186.1800  178.4120  143.1590 C   0  0  0  0  0  0  0  0  0  0  0  0
  184.8420  178.7470  143.3890 C   0  0  0  0  0  3  0  0  0  0  0  0
  190.1690  177.4610  142.2990 C   0  0  0  0  0  3  0  0  0  0  0  0
  190.6910  177.0830  144.6110 C   0  0  0  0  0  0  0  0  0  0  0  0
  191.6390  176.7380  145.5790 C   0  0  0  0  0  3  0  0  0  0  0  0
  187.3830  178.0760  139.1290 C   0  0  0  0  0  3  0  0  0  0  0  0
  188.2550  178.1700  140.1250 C   0  0  0  0  0  3  0  0  0  0  0  0
  187.0930  179.0930  137.0050 O   0  0  0  0  0  1  0  0  0  0  0  0
  187.8270  178.1330  137.7050 C   0  0  1  0  0  3  0  0  0  0  0  0
  189.3240  178.4250  137.6040 C   0  0  0  0  0  2  0  0  0  0  0  0
  189.8820  176.9150  135.8470 O   0  0  0  0  0  0  0  0  0  0  0  0
  190.0960  177.2790  137.0320 C   0  0  0  0  0  0  0  0  0  0  0  0
  191.0680  176.6150  137.8510 N   0  0  0  0  0  2  0  0  0  0  0  0
  192.0500  175.6640  137.4200 C   0  0  0  0  0  0  0  0  0  0  0  0
  191.6640  174.1120  137.0630 S   0  0  0  0  0  0  0  0  0  0  0  0
  193.4190  176.1450  137.1000 C   0  0  0  0  0  1  0  0  0  0  0  0
  1  9  1  0  0  0  0
  2  5  1  0  0  0  0
  2  3  1  0  0  0  0
  3  7  1  0  0  0  0
  5 14  2  0  0  0  0
  6  1  2  0  0  0  0
  7  4  2  0  0  0  0
  8 12  2  0  0  0  0
  8 13  1  0  0  0  0
 10 19  1  0  0  0  0
 11  4  1  0  0  0  0
 11 15  1  0  0  0  0
 12 16  1  0  0  0  0
 13  2  2  0  0  0  0
 14  1  1  0  0  0  0
 16 17  2  0  0  0  0
 16  5  1  0  0  0  0
 17  6  1  0  0  0  0
 18 13  1  0  0  0  0
 18 10  2  0  0  0  0
 19  3  2  0  0  0  0
 19 20  1  0  0  0  0
 20 11  2  0  0  0  0
 21 22  2  0  0  0  0
 22  8  1  0  0  0  0
 24 23  1  6  0  0  0
 24 21  1  0  0  0  0
 25 24  1  0  0  0  0
 26 27  2  0  0  0  0
 27 25  1  0  0  0  0
 27 28  1  0  0  0  0
 29 28  1  0  0  0  0
 30 29  2  0  0  0  0
 31 29  1  0  0  0  0
M  END
>  <MODEL>
1

>  <REMARK>
 VINA RESULT:     -10.6      0.000      0.000
  Name = 
  5 active torsions:
  status: ('A' for Active; 'I' for Inactive)
    1  A    between atoms: C_1  and  N_24
    2  A    between atoms: C_3  and  C_19
    3  A    between atoms: C_3  and  C_22
    4  A    between atoms: C_9  and  C_22
    5  A    between atoms: C_15  and  C_23
                            x       y       z     vdW  Elec       q    Type
                         _______ _______ _______ _____ _____    ______ ____

>  <TORSDO>
F 5

$$$$
=
 OpenBabel10272400253D

 31 34  0  0  1  0  0  0  0  0999 V2000
  185.4770  178.3790  145.5660 C   0  0  0  0  0  0  0  0  0  0  0  0
  188.8000  177.4270  144.0620 C   0  0  0  0  0  0  0  0  0  0  0  0
  189.6790  177.1480  145.1630 C   0  0  0  0  0  0  0  0  0  0  0  0
  190.1430  176.9570  147.5590 C   0  0  0  0  0  3  0  0  0  0  0  0
  187.4370  177.8270  144.2100 C   0  0  0  0  0  0  0  0  0  0  0  0
  184.7330  178.6310  144.4150 C   0  0  0  0  0  3  0  0  0  0  0  0
  189.2670  177.2330  146.5080 C   0  0  0  0  0  3  0  0  0  0  0  0
  188.4860  177.5690  141.6150 C   0  0  0  0  0  0  0  0  0  0  0  0
  184.8780  178.5280  146.8460 N   0  0  0  0  0  1  0  0  0  0  0  0
  191.4980  176.6670  143.6170 C   0  0  0  0  0  3  0  0  0  0  0  0
  191.4600  176.5890  147.2900 C   0  0  0  0  0  0  0  0  0  0  0  0
  187.2040  177.9530  141.8220 N   0  0  0  0  0  0  0  0  0  0  0  0
  189.3200  177.3030  142.7340 C   0  0  0  0  0  0  0  0  0  0  0  0
  186.8110  177.9840  145.4610 C   0  0  0  0  0  3  0  0  0  0  0  0
  192.3320  176.3140  148.3340 O   0  0  0  0  0  1  0  0  0  0  0  0
  186.6630  178.0870  143.0530 C   0  0  0  0  0  0  0  0  0  0  0  0
  185.3260  178.4840  143.1620 C   0  0  0  0  0  3  0  0  0  0  0  0
  190.6580  176.9300  142.5480 C   0  0  0  0  0  3  0  0  0  0  0  0
  191.0240  176.7700  144.9140 C   0  0  0  0  0  0  0  0  0  0  0  0
  191.8980  176.4950  145.9710 C   0  0  0  0  0  3  0  0  0  0  0  0
  188.8320  178.4550  139.3040 C   0  0  0  0  0  3  0  0  0  0  0  0
  188.9080  177.4760  140.1970 C   0  0  0  0  0  3  0  0  0  0  0  0
  189.7790  176.9600  137.7240 O   0  0  0  0  0  1  0  0  0  0  0  0
  189.2690  178.2490  137.8920 C   0  0  1  0  0  3  0  0  0  0  0  0
  188.1210  178.5020  136.9150 C   0  0  0  0  0  2  0  0  0  0  0  0
  186.6380  176.7170  137.4590 O   0  0  0  0  0  0  0  0  0  0  0  0
  186.8160  177.9620  137.4090 C   0  0  0  0  0  0  0  0  0  0  0  0
  185.7910  178.8790  137.8140 N   0  0  0  0  0  2  0  0  0  0  0  0
  184.5820  178.5610  138.5160 C   0  0  0  0  0  0  0  0  0  0  0  0
  183.5010  177.4710  137.9430 S   0  0  0  0  0  0  0  0  0  0  0  0
  184.3960  179.0870  139.8940 C   0  0  0  0  0  1  0  0  0  0  0  0
  1  9  1  0  0  0  0
  2  5  1  0  0  0  0
  2  3  1  0  0  0  0
  3  7  1  0  0  0  0
  5 14  2  0  0  0  0
  6  1  2  0  0  0  0
  7  4  2  0  0  0  0
  8 12  2  0  0  0  0
  8 13  1  0  0  0  0
 10 19  1  0  0  0  0
 11  4  1  0  0  0  0
 11 15  1  0  0  0  0
 12 16  1  0  0  0  0
 13  2  2  0  0  0  0
 14  1  1  0  0  0  0
 16 17  2  0  0  0  0
 16  5  1  0  0  0  0
 17  6  1  0  0  0  0
 18 13  1  0  0  0  0
 18 10  2  0  0  0  0
 19  3  2  0  0  0  0
 19 20  1  0  0  0  0
 20 11  2  0  0  0  0
 21 22  2  0  0  0  0
 22  8  1  0  0  0  0
 24 23  1  1  0  0  0
 24 21  1  0  0  0  0
 25 27  1  0  0  0  0
 25 24  1  0  0  0  0
 27 26  2  0  0  0  0
 27 28  1  0  0  0  0
 28 29  1  0  0  0  0
 29 31  1  0  0  0  0
 30 29  2  0  0  0  0
M  END
>  <MODEL>
2

>  <REMARK>
 VINA RESULT:     -10.5      2.342      3.237
  Name = 
  5 active torsions:
  status: ('A' for Active; 'I' for Inactive)
    1  A    between atoms: C_1  and  N_24
    2  A    between atoms: C_3  and  C_19
    3  A    between atoms: C_3  and  C_22
    4  A    between atoms: C_9  and  C_22
    5  A    between atoms: C_15  and  C_23
                            x       y       z     vdW  Elec       q    Type
                         _______ _______ _______ _____ _____    ______ ____

>  <TORSDO>
F 5

$$$$
=
 OpenBabel10272400253D

 31 34  0  0  1  0  0  0  0  0999 V2000
  185.2530  178.4140  145.5690 C   0  0  0  0  0  0  0  0  0  0  0  0
  188.5580  177.6300  143.9330 C   0  0  0  0  0  0  0  0  0  0  0  0
  189.4700  177.3080  144.9950 C   0  0  0  0  0  0  0  0  0  0  0  0
  189.9980  176.9880  147.3630 C   0  0  0  0  0  3  0  0  0  0  0  0
  187.1900  177.9880  144.1360 C   0  0  0  0  0  0  0  0  0  0  0  0
  184.4750  178.7150  144.4530 C   0  0  0  0  0  3  0  0  0  0  0  0
  189.0900  177.3050  146.3510 C   0  0  0  0  0  3  0  0  0  0  0  0
  188.1790  177.9080  141.5070 C   0  0  0  0  0  0  0  0  0  0  0  0
  184.6830  178.4730  146.8700 N   0  0  0  0  0  1  0  0  0  0  0  0
  191.2600  176.9610  143.3800 C   0  0  0  0  0  3  0  0  0  0  0  0
  191.3160  176.6670  147.0420 C   0  0  0  0  0  0  0  0  0  0  0  0
  186.8950  178.2480  141.7670 N   0  0  0  0  0  0  0  0  0  0  0  0
  189.0470  177.5970  142.5880 C   0  0  0  0  0  0  0  0  0  0  0  0
  186.5920  178.0570  145.4100 C   0  0  0  0  0  3  0  0  0  0  0  0
  192.2200  176.3530  148.0470 O   0  0  0  0  0  1  0  0  0  0  0  0
  186.3810  178.2970  143.0160 C   0  0  0  0  0  0  0  0  0  0  0  0
  185.0400  178.6550  143.1800 C   0  0  0  0  0  3  0  0  0  0  0  0
  190.3870  177.2660  142.3490 C   0  0  0  0  0  3  0  0  0  0  0  0
  190.8160  176.9770  144.6920 C   0  0  0  0  0  0  0  0  0  0  0  0
  191.7230  176.6620  145.7090 C   0  0  0  0  0  3  0  0  0  0  0  0
  187.7360  178.0640  139.0530 C   0  0  0  0  0  3  0  0  0  0  0  0
  188.5670  177.9070  140.0760 C   0  0  0  0  0  3  0  0  0  0  0  0
  189.2830  177.1190  137.5210 O   0  0  0  0  0  1  0  0  0  0  0  0
  188.2300  178.0290  137.6450 C   0  0  1  0  0  3  0  0  0  0  0  0
  187.1040  177.6790  136.6720 C   0  0  0  0  0  2  0  0  0  0  0  0
  187.4860  175.9770  135.0480 O   0  0  0  0  0  0  0  0  0  0  0  0
  187.1490  176.2510  136.2290 C   0  0  0  0  0  0  0  0  0  0  0  0
  186.8040  175.2200  137.1630 N   0  0  0  0  0  2  0  0  0  0  0  0
  187.0040  173.8090  137.0000 C   0  0  0  0  0  0  0  0  0  0  0  0
  188.4890  173.1590  136.7640 S   0  0  0  0  0  0  0  0  0  0  0  0
  185.8600  172.8930  137.2450 C   0  0  0  0  0  1  0  0  0  0  0  0
  1  9  1  0  0  0  0
  2  5  1  0  0  0  0
  2  3  1  0  0  0  0
  3  7  1  0  0  0  0
  5 14  2  0  0  0  0
  6  1  2  0  0  0  0
  7  4  2  0  0  0  0
  8 12  2  0  0  0  0
  8 13  1  0  0  0  0
 10 19  1  0  0  0  0
 11  4  1  0  0  0  0
 11 15  1  0  0  0  0
 12 16  1  0  0  0  0
 13  2  2  0  0  0  0
 14  1  1  0  0  0  0
 16 17  2  0  0  0  0
 16  5  1  0  0  0  0
 17  6  1  0  0  0  0
 18 13  1  0  0  0  0
 18 10  2  0  0  0  0
 19  3  2  0  0  0  0
 19 20  1  0  0  0  0
 20 11  2  0  0  0  0
 21 22  2  0  0  0  0
 22  8  1  0  0  0  0
 24 23  1  1  0  0  0
 24 21  1  0  0  0  0
 25 24  1  0  0  0  0
 26 27  2  0  0  0  0
 27 25  1  0  0  0  0
 27 28  1  0  0  0  0
 29 28  1  0  0  0  0
 29 31  1  0  0  0  0
 30 29  2  0  0  0  0
M  END
>  <MODEL>
3

>  <REMARK>
 VINA RESULT:     -10.1      1.823      2.293
  Name = 
  5 active torsions:
  status: ('A' for Active; 'I' for Inactive)
    1  A    between atoms: C_1  and  N_24
    2  A    between atoms: C_3  and  C_19
    3  A    between atoms: C_3  and  C_22
    4  A    between atoms: C_9  and  C_22
    5  A    between atoms: C_15  and  C_23
                            x       y       z     vdW  Elec       q    Type
                         _______ _______ _______ _____ _____    ______ ____

>  <TORSDO>
F 5

$$$$
=
 OpenBabel10272400253D

 31 34  0  0  1  0  0  0  0  0999 V2000
  188.7350  177.3070  147.2930 C   0  0  0  0  0  0  0  0  0  0  0  0
  187.5230  177.9780  143.7860 C   0  0  0  0  0  0  0  0  0  0  0  0
  186.1220  178.2770  143.8920 C   0  0  0  0  0  0  0  0  0  0  0  0
  184.0750  178.5940  145.1950 C   0  0  0  0  0  3  0  0  0  0  0  0
  188.3580  177.6630  144.9020 C   0  0  0  0  0  0  0  0  0  0  0  0
  190.0780  177.0240  147.0540 C   0  0  0  0  0  3  0  0  0  0  0  0
  185.4380  178.3000  145.1230 C   0  0  0  0  0  3  0  0  0  0  0  0
  189.5030  177.6980  142.3360 C   0  0  0  0  0  0  0  0  0  0  0  0
  188.2250  177.2720  148.6200 N   0  0  0  0  0  1  0  0  0  0  0  0
  185.9800  178.5590  141.4760 C   0  0  0  0  0  3  0  0  0  0  0  0
  183.3590  178.8720  144.0320 C   0  0  0  0  0  0  0  0  0  0  0  0
  190.2400  177.3990  143.4320 N   0  0  0  0  0  0  0  0  0  0  0  0
  188.1210  177.9880  142.4860 C   0  0  0  0  0  0  0  0  0  0  0  0
  187.8890  177.6210  146.2290 C   0  0  0  0  0  3  0  0  0  0  0  0
  182.0040  179.1640  144.1030 O   0  0  0  0  0  1  0  0  0  0  0  0
  189.7270  177.3740  144.6820 C   0  0  0  0  0  0  0  0  0  0  0  0
  190.5710  177.0580  145.7510 C   0  0  0  0  0  3  0  0  0  0  0  0
  187.3310  178.2750  141.3650 C   0  0  0  0  0  3  0  0  0  0  0  0
  185.3730  178.5650  142.7210 C   0  0  0  0  0  0  0  0  0  0  0  0
  184.0070  178.8570  142.7990 C   0  0  0  0  0  3  0  0  0  0  0  0
  191.4710  177.2280  140.8680 C   0  0  0  0  0  3  0  0  0  0  0  0
  190.2350  177.6780  141.0460 C   0  0  0  0  0  3  0  0  0  0  0  0
  193.4810  177.5670  139.6540 O   0  0  0  0  0  1  0  0  0  0  0  0
  192.1220  177.2710  139.5260 C   0  0  1  0  0  3  0  0  0  0  0  0
  191.9300  175.9530  138.7750 C   0  0  0  0  0  2  0  0  0  0  0  0
  190.1080  174.8340  137.7230 O   0  0  0  0  0  0  0  0  0  0  0  0
  190.6750  175.9320  137.9630 C   0  0  0  0  0  0  0  0  0  0  0  0
  190.1410  177.1680  137.4700 N   0  0  0  0  0  2  0  0  0  0  0  0
  188.8510  177.3730  136.8790 C   0  0  0  0  0  0  0  0  0  0  0  0
  188.6150  177.3260  135.2580 S   0  0  0  0  0  0  0  0  0  0  0  0
  187.6610  177.4370  137.7670 C   0  0  0  0  0  1  0  0  0  0  0  0
  1  9  1  0  0  0  0
  2  3  1  0  0  0  0
  2  5  1  0  0  0  0
  3  7  2  0  0  0  0
  5 14  1  0  0  0  0
  6  1  1  0  0  0  0
  7  4  1  0  0  0  0
  8 13  1  0  0  0  0
  8 12  2  0  0  0  0
 10 19  1  0  0  0  0
 11 15  1  0  0  0  0
 11  4  2  0  0  0  0
 12 16  1  0  0  0  0
 13  2  2  0  0  0  0
 14  1  2  0  0  0  0
 16  5  2  0  0  0  0
 16 17  1  0  0  0  0
 17  6  2  0  0  0  0
 18 10  2  0  0  0  0
 18 13  1  0  0  0  0
 19 20  2  0  0  0  0
 19  3  1  0  0  0  0
 20 11  1  0  0  0  0
 21 22  2  0  0  0  0
 22  8  1  0  0  0  0
 24 23  1  1  0  0  0
 24 21  1  0  0  0  0
 25 24  1  0  0  0  0
 26 27  2  0  0  0  0
 27 25  1  0  0  0  0
 28 27  1  0  0  0  0
 29 28  1  0  0  0  0
 29 31  1  0  0  0  0
 30 29  2  0  0  0  0
M  END
>  <MODEL>
4

>  <REMARK>
 VINA RESULT:      -9.8      2.554      4.991
  Name = 
  5 active torsions:
  status: ('A' for Active; 'I' for Inactive)
    1  A    between atoms: C_1  and  N_24
    2  A    between atoms: C_3  and  C_19
    3  A    between atoms: C_3  and  C_22
    4  A    between atoms: C_9  and  C_22
    5  A    between atoms: C_15  and  C_23
                            x       y       z     vdW  Elec       q    Type
                         _______ _______ _______ _____ _____    ______ ____

>  <TORSDO>
F 5

$$$$
=
 OpenBabel10272400253D

 31 34  0  0  1  0  0  0  0  0999 V2000
  190.1290  177.5740  140.7710 C   0  0  0  0  0  0  0  0  0  0  0  0
  188.3410  177.6250  144.0900 C   0  0  0  0  0  0  0  0  0  0  0  0
  189.3250  177.3010  145.0850 C   0  0  0  0  0  0  0  0  0  0  0  0
  191.6080  176.7300  145.7590 C   0  0  0  0  0  3  0  0  0  0  0  0
  188.6190  177.7090  142.6910 C   0  0  0  0  0  0  0  0  0  0  0  0
  189.0820  177.8880  139.9070 C   0  0  0  0  0  3  0  0  0  0  0  0
  190.6730  177.0440  144.7700 C   0  0  0  0  0  3  0  0  0  0  0  0
  185.9950  178.1980  143.5700 C   0  0  0  0  0  0  0  0  0  0  0  0
  191.4330  177.3420  140.2540 N   0  0  0  0  0  1  0  0  0  0  0  0
  187.6380  177.4670  146.8350 C   0  0  0  0  0  3  0  0  0  0  0  0
  191.2140  176.6630  147.0940 C   0  0  0  0  0  0  0  0  0  0  0  0
  186.3200  178.2540  142.2570 N   0  0  0  0  0  0  0  0  0  0  0  0
  186.9990  177.8740  144.5210 C   0  0  0  0  0  0  0  0  0  0  0  0
  189.8970  177.4860  142.1440 C   0  0  0  0  0  3  0  0  0  0  0  0
  192.1420  176.3520  148.0780 O   0  0  0  0  0  1  0  0  0  0  0  0
  187.5690  178.0270  141.7960 C   0  0  0  0  0  0  0  0  0  0  0  0
  187.8060  178.1140  140.4200 C   0  0  0  0  0  3  0  0  0  0  0  0
  186.6830  177.7840  145.8830 C   0  0  0  0  0  3  0  0  0  0  0  0
  188.9480  177.2280  146.4520 C   0  0  0  0  0  0  0  0  0  0  0  0
  189.8870  176.9120  147.4390 C   0  0  0  0  0  3  0  0  0  0  0  0
  183.5840  178.5470  143.0120 C   0  0  0  0  0  3  0  0  0  0  0  0
  184.5750  178.4770  143.8930 C   0  0  0  0  0  3  0  0  0  0  0  0
  182.0520  180.2140  143.7200 O   0  0  0  0  0  1  0  0  0  0  0  0
  182.1880  178.8520  143.4420 C   0  0  1  0  0  3  0  0  0  0  0  0
  181.1750  178.4180  142.3830 C   0  0  0  0  0  2  0  0  0  0  0  0
  181.2700  179.8440  140.4760 O   0  0  0  0  0  0  0  0  0  0  0  0
  181.6170  178.7500  140.9940 C   0  0  0  0  0  0  0  0  0  0  0  0
  182.4290  177.8110  140.2770 N   0  0  0  0  0  2  0  0  0  0  0  0
  183.1290  178.0420  139.0470 C   0  0  0  0  0  0  0  0  0  0  0  0
  182.4770  177.6730  137.5900 S   0  0  0  0  0  0  0  0  0  0  0  0
  184.3970  178.8160  139.0810 C   0  0  0  0  0  1  0  0  0  0  0  0
  1 14  1  0  0  0  0
  2 13  2  0  0  0  0
  2  3  1  0  0  0  0
  3 19  1  0  0  0  0
  4 11  2  0  0  0  0
  5  2  1  0  0  0  0
  6 17  1  0  0  0  0
  6  1  2  0  0  0  0
  7  3  2  0  0  0  0
  7  4  1  0  0  0  0
  8 22  1  0  0  0  0
  8 13  1  0  0  0  0
  9  1  1  0  0  0  0
 11 20  1  0  0  0  0
 11 15  1  0  0  0  0
 12  8  2  0  0  0  0
 13 18  1  0  0  0  0
 14  5  2  0  0  0  0
 16 12  1  0  0  0  0
 16  5  1  0  0  0  0
 17 16  2  0  0  0  0
 18 10  2  0  0  0  0
 19 10  1  0  0  0  0
 19 20  2  0  0  0  0
 21 24  1  0  0  0  0
 21 22  2  0  0  0  0
 24 23  1  6  0  0  0
 25 24  1  0  0  0  0
 26 27  2  0  0  0  0
 27 25  1  0  0  0  0
 28 27  1  0  0  0  0
 29 31  1  0  0  0  0
 29 28  1  0  0  0  0
 30 29  2  0  0  0  0
M  END
>  <MODEL>
5

>  <REMARK>
 VINA RESULT:      -9.7      3.395      6.135
  Name = 
  5 active torsions:
  status: ('A' for Active; 'I' for Inactive)
    1  A    between atoms: C_1  and  N_24
    2  A    between atoms: C_3  and  C_19
    3  A    between atoms: C_3  and  C_22
    4  A    between atoms: C_9  and  C_22
    5  A    between atoms: C_15  and  C_23
                            x       y       z     vdW  Elec       q    Type
                         _______ _______ _______ _____ _____    ______ ____

>  <TORSDO>
F 5

$$$$
=
 OpenBabel10272400253D

 31 34  0  0  1  0  0  0  0  0999 V2000
  188.5900  177.3480  147.5520 C   0  0  0  0  0  0  0  0  0  0  0  0
  187.7250  177.8720  143.9200 C   0  0  0  0  0  0  0  0  0  0  0  0
  186.3370  178.2400  143.8830 C   0  0  0  0  0  0  0  0  0  0  0  0
  184.2020  178.7230  144.9780 C   0  0  0  0  0  3  0  0  0  0  0  0
  188.4430  177.5840  145.1220 C   0  0  0  0  0  0  0  0  0  0  0  0
  189.9330  176.9910  147.4500 C   0  0  0  0  0  3  0  0  0  0  0  0
  185.5500  178.3640  145.0440 C   0  0  0  0  0  3  0  0  0  0  0  0
  189.8080  177.4200  142.6700 C   0  0  0  0  0  0  0  0  0  0  0  0
  187.9660  177.4120  148.8280 N   0  0  0  0  0  1  0  0  0  0  0  0
  186.4210  178.3890  141.4530 C   0  0  0  0  0  3  0  0  0  0  0  0
  183.6050  178.9660  143.7420 C   0  0  0  0  0  0  0  0  0  0  0  0
  190.4300  177.1510  143.8430 N   0  0  0  0  0  0  0  0  0  0  0  0
  188.4340  177.7810  142.6800 C   0  0  0  0  0  0  0  0  0  0  0  0
  187.8570  177.6380  146.4010 C   0  0  0  0  0  3  0  0  0  0  0  0
  182.2660  179.3230  143.6750 O   0  0  0  0  0  1  0  0  0  0  0  0
  189.8090  177.2210  145.0410 C   0  0  0  0  0  0  0  0  0  0  0  0
  190.5390  176.9290  146.1970 C   0  0  0  0  0  3  0  0  0  0  0  0
  187.7610  178.0390  141.4790 C   0  0  0  0  0  3  0  0  0  0  0  0
  185.7080  178.4940  142.6360 C   0  0  0  0  0  0  0  0  0  0  0  0
  184.3580  178.8520  142.5750 C   0  0  0  0  0  3  0  0  0  0  0  0
  191.9210  177.6550  141.3570 C   0  0  0  0  0  3  0  0  0  0  0  0
  190.6470  177.2940  141.4550 C   0  0  0  0  0  3  0  0  0  0  0  0
  193.9080  176.8940  140.3060 O   0  0  0  0  0  1  0  0  0  0  0  0
  192.6710  177.5010  140.0760 C   0  0  1  0  0  3  0  0  0  0  0  0
  191.8650  176.6990  139.0550 C   0  0  0  0  0  2  0  0  0  0  0  0
  193.5150  176.8250  137.3400 O   0  0  0  0  0  0  0  0  0  0  0  0
  192.7240  176.0930  137.9910 C   0  0  0  0  0  0  0  0  0  0  0  0
  192.6270  174.6870  137.7320 N   0  0  0  0  0  2  0  0  0  0  0  0
  193.5130  173.8970  136.9270 C   0  0  0  0  0  0  0  0  0  0  0  0
  195.0140  173.4810  137.4330 S   0  0  0  0  0  0  0  0  0  0  0  0
  192.9860  173.2750  135.6840 C   0  0  0  0  0  1  0  0  0  0  0  0
  1  9  1  0  0  0  0
  2  5  1  0  0  0  0
  3  2  1  0  0  0  0
  3  7  2  0  0  0  0
  4  7  1  0  0  0  0
  5 14  1  0  0  0  0
  6  1  1  0  0  0  0
  8 13  1  0  0  0  0
  8 12  2  0  0  0  0
 10 18  2  0  0  0  0
 10 19  1  0  0  0  0
 11  4  2  0  0  0  0
 12 16  1  0  0  0  0
 13  2  2  0  0  0  0
 14  1  2  0  0  0  0
 15 11  1  0  0  0  0
 16  5  2  0  0  0  0
 16 17  1  0  0  0  0
 17  6  2  0  0  0  0
 18 13  1  0  0  0  0
 19  3  1  0  0  0  0
 20 19  2  0  0  0  0
 20 11  1  0  0  0  0
 21 22  2  0  0  0  0
 22  8  1  0  0  0  0
 24 23  1  1  0  0  0
 24 21  1  0  0  0  0
 25 24  1  0  0  0  0
 26 27  2  0  0  0  0
 27 25  1  0  0  0  0
 28 27  1  0  0  0  0
 29 30  2  0  0  0  0
 29 28  1  0  0  0  0
 31 29  1  0  0  0  0
M  END
>  <MODEL>
6

>  <REMARK>
 VINA RESULT:      -9.6      2.731      4.955
  Name = 
  5 active torsions:
  status: ('A' for Active; 'I' for Inactive)
    1  A    between atoms: C_1  and  N_24
    2  A    between atoms: C_3  and  C_19
    3  A    between atoms: C_3  and  C_22
    4  A    between atoms: C_9  and  C_22
    5  A    between atoms: C_15  and  C_23
                            x       y       z     vdW  Elec       q    Type
                         _______ _______ _______ _____ _____    ______ ____

>  <TORSDO>
F 5

$$$$
=
 OpenBabel10272400253D

 31 34  0  0  1  0  0  0  0  0999 V2000
  190.4610  176.9460  146.2840 C   0  0  0  0  0  0  0  0  0  0  0  0
  188.1560  177.7280  143.4030 C   0  0  0  0  0  0  0  0  0  0  0  0
  186.8950  178.0970  143.9820 C   0  0  0  0  0  0  0  0  0  0  0  0
  185.4390  178.5010  145.9080 C   0  0  0  0  0  3  0  0  0  0  0  0
  189.3060  177.3550  144.1660 C   0  0  0  0  0  0  0  0  0  0  0  0
  191.6230  176.5980  145.5990 C   0  0  0  0  0  3  0  0  0  0  0  0
  186.6770  178.1380  145.3730 C   0  0  0  0  0  3  0  0  0  0  0  0
  189.5010  177.3670  141.3620 C   0  0  0  0  0  0  0  0  0  0  0  0
  190.4370  176.9200  147.7050 N   0  0  0  0  0  1  0  0  0  0  0  0
  185.9470  178.4200  141.7620 C   0  0  0  0  0  3  0  0  0  0  0  0
  184.3830  178.8310  145.0610 C   0  0  0  0  0  0  0  0  0  0  0  0
  190.5520  177.0150  142.1400 N   0  0  0  0  0  0  0  0  0  0  0  0
  188.2710  177.7250  141.9770 C   0  0  0  0  0  0  0  0  0  0  0  0
  189.3190  177.3180  145.5730 C   0  0  0  0  0  3  0  0  0  0  0  0
  183.1530  179.1920  145.5910 O   0  0  0  0  0  1  0  0  0  0  0  0
  190.4980  176.9990  143.4900 C   0  0  0  0  0  0  0  0  0  0  0  0
  191.6400  176.6250  144.2060 C   0  0  0  0  0  3  0  0  0  0  0  0
  187.1610  178.0690  141.1940 C   0  0  0  0  0  3  0  0  0  0  0  0
  185.8060  178.4390  143.1390 C   0  0  0  0  0  0  0  0  0  0  0  0
  184.5670  178.8000  143.6800 C   0  0  0  0  0  3  0  0  0  0  0  0
  190.4720  176.4190  139.2640 C   0  0  0  0  0  3  0  0  0  0  0  0
  189.7430  177.3280  139.9000 C   0  0  0  0  0  3  0  0  0  0  0  0
  189.9190  177.5280  137.2400 O   0  0  0  0  0  1  0  0  0  0  0  0
  190.6670  176.4820  137.7850 C   0  0  1  0  0  3  0  0  0  0  0  0
  192.1450  176.6400  137.4280 C   0  0  0  0  0  2  0  0  0  0  0  0
  192.3730  174.2680  137.5010 O   0  0  0  0  0  0  0  0  0  0  0  0
  192.9290  175.3860  137.6580 C   0  0  0  0  0  0  0  0  0  0  0  0
  194.3020  175.4860  138.0560 N   0  0  0  0  0  2  0  0  0  0  0  0
  195.2640  174.4230  138.1020 C   0  0  0  0  0  0  0  0  0  0  0  0
  195.6190  173.5110  136.7870 S   0  0  0  0  0  0  0  0  0  0  0  0
  196.1020  174.2700  139.3190 C   0  0  0  0  0  1  0  0  0  0  0  0
  1  9  1  0  0  0  0
  2  3  1  0  0  0  0
  2  5  1  0  0  0  0
  3  7  2  0  0  0  0
  5 14  1  0  0  0  0
  6  1  1  0  0  0  0
  7  4  1  0  0  0  0
  8 13  1  0  0  0  0
  8 12  2  0  0  0  0
 10 19  1  0  0  0  0
 11 15  1  0  0  0  0
 11  4  2  0  0  0  0
 12 16  1  0  0  0  0
 13  2  2  0  0  0  0
 14  1  2  0  0  0  0
 16  5  2  0  0  0  0
 16 17  1  0  0  0  0
 17  6  2  0  0  0  0
 18 10  2  0  0  0  0
 18 13  1  0  0  0  0
 19 20  2  0  0  0  0
 19  3  1  0  0  0  0
 20 11  1  0  0  0  0
 21 22  2  0  0  0  0
 22  8  1  0  0  0  0
 24 23  1  1  0  0  0
 24 21  1  0  0  0  0
 25 27  1  0  0  0  0
 25 24  1  0  0  0  0
 26 27  2  0  0  0  0
 27 28  1  0  0  0  0
 28 29  1  0  0  0  0
 29 31  1  0  0  0  0
 30 29  2  0  0  0  0
M  END
>  <MODEL>
7

>  <REMARK>
 VINA RESULT:      -9.6      2.746      4.693
  Name = 
  5 active torsions:
  status: ('A' for Active; 'I' for Inactive)
    1  A    between atoms: C_1  and  N_24
    2  A    between atoms: C_3  and  C_19
    3  A    between atoms: C_3  and  C_22
    4  A    between atoms: C_9  and  C_22
    5  A    between atoms: C_15  and  C_23
                            x       y       z     vdW  Elec       q    Type
                         _______ _______ _______ _____ _____    ______ ____

>  <TORSDO>
F 5

$$$$
=
 OpenBabel10272400253D

 31 34  0  0  1  0  0  0  0  0999 V2000
  190.4190  176.9090  146.3360 C   0  0  0  0  0  0  0  0  0  0  0  0
  188.1340  177.7000  143.4430 C   0  0  0  0  0  0  0  0  0  0  0  0
  186.8690  178.0690  144.0150 C   0  0  0  0  0  0  0  0  0  0  0  0
  185.4010  178.4670  145.9330 C   0  0  0  0  0  3  0  0  0  0  0  0
  189.2780  177.3250  144.2120 C   0  0  0  0  0  0  0  0  0  0  0  0
  191.5860  176.5620  145.6580 C   0  0  0  0  0  3  0  0  0  0  0  0
  186.6420  178.1060  145.4050 C   0  0  0  0  0  3  0  0  0  0  0  0
  189.4910  177.3440  141.4100 C   0  0  0  0  0  0  0  0  0  0  0  0
  190.3860  176.8790  147.7570 N   0  0  0  0  0  1  0  0  0  0  0  0
  185.9360  178.3980  141.7890 C   0  0  0  0  0  3  0  0  0  0  0  0
  184.3510  178.8010  145.0790 C   0  0  0  0  0  0  0  0  0  0  0  0
  190.5370  176.9900  142.1930 N   0  0  0  0  0  0  0  0  0  0  0  0
  188.2580  177.7010  142.0170 C   0  0  0  0  0  0  0  0  0  0  0  0
  189.2820  177.2840  145.6190 C   0  0  0  0  0  3  0  0  0  0  0  0
  183.1170  179.1610  145.6030 O   0  0  0  0  0  1  0  0  0  0  0  0
  190.4750  176.9690  143.5430 C   0  0  0  0  0  0  0  0  0  0  0  0
  191.6120  176.5930  144.2650 C   0  0  0  0  0  3  0  0  0  0  0  0
  187.1530  178.0470  141.2280 C   0  0  0  0  0  3  0  0  0  0  0  0
  185.7850  178.4130  143.1660 C   0  0  0  0  0  0  0  0  0  0  0  0
  184.5440  178.7740  143.7000 C   0  0  0  0  0  3  0  0  0  0  0  0
  190.6310  176.5340  139.3380 C   0  0  0  0  0  3  0  0  0  0  0  0
  189.7420  177.3080  139.9490 C   0  0  0  0  0  3  0  0  0  0  0  0
  192.1770  176.5930  137.5390 O   0  0  0  0  0  1  0  0  0  0  0  0
  190.8170  176.5900  137.8590 C   0  0  1  0  0  3  0  0  0  0  0  0
  190.1080  175.4260  137.1670 C   0  0  0  0  0  2  0  0  0  0  0  0
  187.8480  174.8370  136.6940 O   0  0  0  0  0  0  0  0  0  0  0  0
  188.7010  175.7570  136.7800 C   0  0  0  0  0  0  0  0  0  0  0  0
  188.3540  177.1220  136.5150 N   0  0  0  0  0  2  0  0  0  0  0  0
  187.0330  177.6590  136.3570 C   0  0  0  0  0  0  0  0  0  0  0  0
  186.2210  177.5750  134.9360 S   0  0  0  0  0  0  0  0  0  0  0  0
  186.3050  178.1290  137.5640 C   0  0  0  0  0  1  0  0  0  0  0  0
  1  9  1  0  0  0  0
  2  3  1  0  0  0  0
  2  5  1  0  0  0  0
  3  7  2  0  0  0  0
  5 14  1  0  0  0  0
  6  1  1  0  0  0  0
  7  4  1  0  0  0  0
  8 13  1  0  0  0  0
  8 12  2  0  0  0  0
 10 19  1  0  0  0  0
 11 15  1  0  0  0  0
 11  4  2  0  0  0  0
 12 16  1  0  0  0  0
 13  2  2  0  0  0  0
 14  1  2  0  0  0  0
 16  5  2  0  0  0  0
 16 17  1  0  0  0  0
 17  6  2  0  0  0  0
 18 10  2  0  0  0  0
 18 13  1  0  0  0  0
 19 20  2  0  0  0  0
 19  3  1  0  0  0  0
 20 11  1  0  0  0  0
 21 22  2  0  0  0  0
 22  8  1  0  0  0  0
 24 23  1  1  0  0  0
 24 21  1  0  0  0  0
 25 24  1  0  0  0  0
 26 27  2  0  0  0  0
 27 25  1  0  0  0  0
 28 27  1  0  0  0  0
 29 28  1  0  0  0  0
 29 31  1  0  0  0  0
 30 29  2  0  0  0  0
M  END
>  <MODEL>
8

>  <REMARK>
 VINA RESULT:      -9.6      2.931      4.998
  Name = 
  5 active torsions:
  status: ('A' for Active; 'I' for Inactive)
    1  A    between atoms: C_1  and  N_24
    2  A    between atoms: C_3  and  C_19
    3  A    between atoms: C_3  and  C_22
    4  A    between atoms: C_9  and  C_22
    5  A    between atoms: C_15  and  C_23
                            x       y       z     vdW  Elec       q    Type
                         _______ _______ _______ _____ _____    ______ ____

>  <TORSDO>
F 5

$$$$
=
 OpenBabel10272400253D

 31 34  0  0  1  0  0  0  0  0999 V2000
  183.7130  178.7500  143.1380 C   0  0  0  0  0  0  0  0  0  0  0  0
  187.3650  178.0290  143.7400 C   0  0  0  0  0  0  0  0  0  0  0  0
  187.5400  177.9860  145.1640 C   0  0  0  0  0  0  0  0  0  0  0  0
  186.6780  178.1300  147.4510 C   0  0  0  0  0  3  0  0  0  0  0  0
  186.1140  178.2800  143.0960 C   0  0  0  0  0  0  0  0  0  0  0  0
  183.6790  178.7770  141.7460 C   0  0  0  0  0  3  0  0  0  0  0  0
  186.4780  178.1770  146.0700 C   0  0  0  0  0  3  0  0  0  0  0  0
  188.3830  177.8490  141.4960 C   0  0  0  0  0  0  0  0  0  0  0  0
  182.5230  178.9740  143.8830 N   0  0  0  0  0  1  0  0  0  0  0  0
  189.9190  177.5470  144.8790 C   0  0  0  0  0  3  0  0  0  0  0  0
  187.9520  177.8910  147.9630 C   0  0  0  0  0  0  0  0  0  0  0  0
  187.1710  178.1000  140.9470 N   0  0  0  0  0  0  0  0  0  0  0  0
  188.5120  177.8150  142.9100 C   0  0  0  0  0  0  0  0  0  0  0  0
  184.9160  178.5050  143.8020 C   0  0  0  0  0  3  0  0  0  0  0  0
  188.1520  177.8440  149.3360 O   0  0  0  0  0  1  0  0  0  0  0  0
  186.0570  178.3100  141.6820 C   0  0  0  0  0  0  0  0  0  0  0  0
  184.8500  178.5570  141.0210 C   0  0  0  0  0  3  0  0  0  0  0  0
  189.7600  177.5830  143.5030 C   0  0  0  0  0  3  0  0  0  0  0  0
  188.8280  177.7430  145.7090 C   0  0  0  0  0  0  0  0  0  0  0  0
  189.0240  177.6980  147.0930 C   0  0  0  0  0  3  0  0  0  0  0  0
  189.4160  176.9460  139.4070 C   0  0  0  0  0  3  0  0  0  0  0  0
  189.4930  177.6420  140.5350 C   0  0  0  0  0  3  0  0  0  0  0  0
  191.2160  175.5500  138.7420 O   0  0  0  0  0  1  0  0  0  0  0  0
  190.6020  176.7840  138.5160 C   0  0  1  0  0  3  0  0  0  0  0  0
  190.2140  176.9270  137.0450 C   0  0  0  0  0  2  0  0  0  0  0  0
  188.9160  178.9160  136.8510 O   0  0  0  0  0  0  0  0  0  0  0  0
  188.9220  177.6580  136.8590 C   0  0  0  0  0  0  0  0  0  0  0  0
  187.7130  176.9060  136.6950 N   0  0  0  0  0  2  0  0  0  0  0  0
  186.4350  177.4110  136.2850 C   0  0  0  0  0  0  0  0  0  0  0  0
  186.0030  177.5110  134.7070 S   0  0  0  0  0  0  0  0  0  0  0  0
  185.4020  177.6680  137.3210 C   0  0  0  0  0  1  0  0  0  0  0  0
  1 14  1  0  0  0  0
  1  9  1  0  0  0  0
  2  3  1  0  0  0  0
  3 19  2  0  0  0  0
  3  7  1  0  0  0  0
  4 11  1  0  0  0  0
  5  2  1  0  0  0  0
  5 14  2  0  0  0  0
  6  1  2  0  0  0  0
  7  4  2  0  0  0  0
  8 13  1  0  0  0  0
 10 19  1  0  0  0  0
 11 15  1  0  0  0  0
 12  8  2  0  0  0  0
 12 16  1  0  0  0  0
 13 18  1  0  0  0  0
 13  2  2  0  0  0  0
 16  5  1  0  0  0  0
 17 16  2  0  0  0  0
 17  6  1  0  0  0  0
 18 10  2  0  0  0  0
 19 20  1  0  0  0  0
 20 11  2  0  0  0  0
 21 22  2  0  0  0  0
 22  8  1  0  0  0  0
 24 23  1  6  0  0  0
 24 21  1  0  0  0  0
 25 24  1  0  0  0  0
 26 27  2  0  0  0  0
 27 25  1  0  0  0  0
 28 27  1  0  0  0  0
 29 28  1  0  0  0  0
 29 31  1  0  0  0  0
 30 29  2  0  0  0  0
M  END
>  <MODEL>
9

>  <REMARK>
 VINA RESULT:      -9.4      2.283      3.388
  Name = 
  5 active torsions:
  status: ('A' for Active; 'I' for Inactive)
    1  A    between atoms: C_1  and  N_24
    2  A    between atoms: C_3  and  C_19
    3  A    between atoms: C_3  and  C_22
    4  A    between atoms: C_9  and  C_22
    5  A    between atoms: C_15  and  C_23
                            x       y       z     vdW  Elec       q    Type
                         _______ _______ _______ _____ _____    ______ ____

>  <TORSDO>
F 5

$$$$
