=
 OpenBabel10272400573D

 27 31  0  0  1  0  0  0  0  0999 V2000
  189.6570  175.4710  142.8660 S   0  0  0  0  0  0  0  0  0  0  0  0
  188.4620  177.8410  141.7770 C   0  0  2  0  0  3  0  0  0  0  0  0
  187.6090  176.6830  144.7220 N   0  0  0  0  0  2  0  0  0  0  0  0
  185.2160  179.1550  142.3880 N   0  0  0  0  0  0  0  0  0  0  0  0
  183.3170  179.3980  144.3540 Cl  0  0  0  0  0  0  0  0  0  0  0  0
  188.1250  178.5980  140.4750 C   0  0  0  0  0  2  0  0  0  0  0  0
  185.7810  178.2630  144.5550 C   0  0  0  0  0  0  0  0  0  0  0  0
  190.6490  177.9590  146.6600 C   0  0  0  0  0  2  0  0  0  0  0  0
  185.4920  178.0870  146.0140 C   0  0  0  0  0  1  0  0  0  0  0  0
  191.6490  178.0080  145.4990 C   0  0  0  0  0  2  0  0  0  0  0  0
  187.1540  177.8830  144.0200 C   0  0  2  0  0  3  0  0  0  0  0  0
  189.2160  176.5350  141.4390 C   0  0  1  0  0  3  0  0  0  0  0  0
  184.8810  178.8630  143.7510 C   0  0  0  0  0  0  0  0  0  0  0  0
  186.2460  178.6130  141.8200 C   0  0  0  0  0  0  0  0  0  0  0  0
  189.9870  176.8460  144.0190 C   0  0  2  0  0  3  0  0  0  0  0  0
  187.1180  177.6190  142.4960 C   0  0  1  0  0  3  0  0  0  0  0  0
  189.2100  177.9680  146.1470 C   0  0  0  0  0  2  0  0  0  0  0  0
  186.7800  179.1140  140.6180 N   0  0  0  0  0  2  0  0  0  0  0  0
  191.4310  176.8440  144.5290 C   0  0  2  0  0  3  0  0  0  0  0  0
  191.7490  175.6300  145.1460 O   0  0  0  0  0  1  0  0  0  0  0  0
  188.9970  176.7980  145.1820 C   0  0  1  0  0  3  0  0  0  0  0  0
  192.7150  177.1280  139.0040 C   0  0  0  0  0  3  0  0  0  0  0  0
  190.4380  176.7680  140.6000 C   0  0  0  0  0  0  0  0  0  0  0  0
  190.4440  176.3290  139.2720 C   0  0  0  0  0  3  0  0  0  0  0  0
  191.5770  176.5120  138.4730 C   0  0  0  0  0  3  0  0  0  0  0  0
  192.7160  177.5660  140.3310 C   0  0  0  0  0  3  0  0  0  0  0  0
  191.5810  177.3890  141.1310 C   0  0  0  0  0  3  0  0  0  0  0  0
  2  6  1  6  0  0  0
  2 16  1  0  0  0  0
  3 21  1  0  0  0  0
  4 13  1  0  0  0  0
  6 18  1  0  0  0  0
  7  9  1  0  0  0  0
 10  8  1  0  0  0  0
 11  7  1  1  0  0  0
 11  3  1  0  0  0  0
 12 23  1  1  0  0  0
 12  2  1  0  0  0  0
 12  1  1  0  0  0  0
 13  5  1  0  0  0  0
 13  7  2  0  0  0  0
 14  4  2  0  0  0  0
 15  1  1  6  0  0  0
 15 19  1  0  0  0  0
 15 21  1  0  0  0  0
 16 14  1  6  0  0  0
 16 11  1  0  0  0  0
 17  8  1  0  0  0  0
 18 14  1  0  0  0  0
 19 20  1  1  0  0  0
 19 10  1  0  0  0  0
 21 17  1  6  0  0  0
 22 26  1  0  0  0  0
 23 27  1  0  0  0  0
 24 23  2  0  0  0  0
 25 22  2  0  0  0  0
 25 24  1  0  0  0  0
 26 27  2  0  0  0  0
M  END
>  <MODEL>
1

>  <REMARK>
 VINA RESULT:      -7.8      0.000      0.000
  Name = 
  1 active torsions:
  status: ('A' for Active; 'I' for Inactive)
    1  A    between atoms: C_9  and  C_15
                            x       y       z     vdW  Elec       q    Type
                         _______ _______ _______ _____ _____    ______ ____

>  <TORSDO>
F 1

$$$$
=
 OpenBabel10272400573D

 27 31  0  0  1  0  0  0  0  0999 V2000
  189.2910  178.1130  136.9220 S   0  0  0  0  0  0  0  0  0  0  0  0
  189.1440  177.0760  139.5940 C   0  0  2  0  0  3  0  0  0  0  0  0
  186.6530  178.7280  138.2510 N   0  0  0  0  0  2  0  0  0  0  0  0
  187.2650  178.3200  142.3430 N   0  0  0  0  0  0  0  0  0  0  0  0
  184.8960  179.5610  142.9580 Cl  0  0  0  0  0  0  0  0  0  0  0  0
  189.9690  176.6410  140.8240 C   0  0  0  0  0  2  0  0  0  0  0  0
  185.7700  178.7680  140.5060 C   0  0  0  0  0  0  0  0  0  0  0  0
  185.3000  175.9000  136.0600 C   0  0  0  0  0  2  0  0  0  0  0  0
  184.4370  179.2030  139.9800 C   0  0  0  0  0  1  0  0  0  0  0  0
  186.6020  175.1060  135.8930 C   0  0  0  0  0  2  0  0  0  0  0  0
  186.7540  178.0900  139.5640 C   0  0  2  0  0  3  0  0  0  0  0  0
  190.0960  177.5120  138.4570 C   0  0  1  0  0  3  0  0  0  0  0  0
  186.0460  178.8650  141.8210 C   0  0  0  0  0  0  0  0  0  0  0  0
  188.2410  177.9890  141.5570 C   0  0  0  0  0  0  0  0  0  0  0  0
  187.8770  176.9640  137.0010 C   0  0  2  0  0  3  0  0  0  0  0  0
  188.2060  178.1930  140.0870 C   0  0  1  0  0  3  0  0  0  0  0  0
  185.3690  176.8160  137.2800 C   0  0  0  0  0  2  0  0  0  0  0  0
  189.2980  177.1700  141.9930 N   0  0  0  0  0  2  0  0  0  0  0  0
  187.8110  176.0380  135.7820 C   0  0  2  0  0  3  0  0  0  0  0  0
  187.7520  176.7710  134.5920 O   0  0  0  0  0  1  0  0  0  0  0  0
  186.5760  177.7500  137.1610 C   0  0  1  0  0  3  0  0  0  0  0  0
  193.0340  174.5450  137.4100 C   0  0  0  0  0  3  0  0  0  0  0  0
  191.1050  176.4580  138.1060 C   0  0  0  0  0  0  0  0  0  0  0  0
  192.4670  176.7540  138.2270 C   0  0  0  0  0  3  0  0  0  0  0  0
  193.4300  175.7990  137.8850 C   0  0  0  0  0  3  0  0  0  0  0  0
  191.6740  174.2450  137.2840 C   0  0  0  0  0  3  0  0  0  0  0  0
  190.7090  175.1960  137.6310 C   0  0  0  0  0  3  0  0  0  0  0  0
  1 12  1  0  0  0  0
  2 16  1  0  0  0  0
  2  6  1  1  0  0  0
  6 18  1  0  0  0  0
  7 13  2  0  0  0  0
  8 17  1  0  0  0  0
  9  7  1  0  0  0  0
 10  8  1  0  0  0  0
 11  3  1  6  0  0  0
 11 16  1  0  0  0  0
 11  7  1  0  0  0  0
 12 23  1  6  0  0  0
 12  2  1  0  0  0  0
 13  4  1  0  0  0  0
 13  5  1  0  0  0  0
 14 18  1  0  0  0  0
 14  4  2  0  0  0  0
 15  1  1  6  0  0  0
 15 21  1  0  0  0  0
 16 14  1  1  0  0  0
 19 20  1  6  0  0  0
 19 10  1  0  0  0  0
 19 15  1  0  0  0  0
 21 17  1  1  0  0  0
 21  3  1  0  0  0  0
 22 25  1  0  0  0  0
 23 24  1  0  0  0  0
 25 24  2  0  0  0  0
 26 22  2  0  0  0  0
 26 27  1  0  0  0  0
 27 23  2  0  0  0  0
M  END
>  <MODEL>
2

>  <REMARK>
 VINA RESULT:      -7.4      3.694      6.091
  Name = 
  1 active torsions:
  status: ('A' for Active; 'I' for Inactive)
    1  A    between atoms: C_9  and  C_15
                            x       y       z     vdW  Elec       q    Type
                         _______ _______ _______ _____ _____    ______ ____

>  <TORSDO>
F 1

$$$$
=
 OpenBabel10272400573D

 27 31  0  0  1  0  0  0  0  0999 V2000
  188.9740  178.7900  138.4230 S   0  0  0  0  0  0  0  0  0  0  0  0
  188.9980  177.0970  140.7400 C   0  0  2  0  0  3  0  0  0  0  0  0
  186.4350  179.0140  140.0370 N   0  0  0  0  0  2  0  0  0  0  0  0
  187.3150  177.5700  143.8350 N   0  0  0  0  0  0  0  0  0  0  0  0
  185.0010  178.5850  144.9050 Cl  0  0  0  0  0  0  0  0  0  0  0  0
  189.8990  176.3670  141.7580 C   0  0  0  0  0  2  0  0  0  0  0  0
  185.7040  178.4620  142.2800 C   0  0  0  0  0  0  0  0  0  0  0  0
  184.9190  176.8350  137.2840 C   0  0  0  0  0  2  0  0  0  0  0  0
  184.3430  179.0050  141.9730 C   0  0  0  0  0  1  0  0  0  0  0  0
  186.2000  176.1240  136.8320 C   0  0  0  0  0  2  0  0  0  0  0  0
  186.6180  178.0600  141.1310 C   0  0  2  0  0  3  0  0  0  0  0  0
  189.8750  177.8210  139.6940 C   0  0  1  0  0  3  0  0  0  0  0  0
  186.0670  178.2180  143.5540 C   0  0  0  0  0  0  0  0  0  0  0  0
  188.2340  177.4630  142.9280 C   0  0  0  0  0  0  0  0  0  0  0  0
  187.5600  177.6460  138.2960 C   0  0  2  0  0  3  0  0  0  0  0  0
  188.1030  178.0400  141.5660 C   0  0  1  0  0  3  0  0  0  0  0  0
  185.0750  177.4050  138.6930 C   0  0  0  0  0  2  0  0  0  0  0  0
  189.3120  176.5690  143.0660 N   0  0  0  0  0  2  0  0  0  0  0  0
  187.4060  177.0660  136.8860 C   0  0  2  0  0  3  0  0  0  0  0  0
  187.2740  178.0800  135.9330 O   0  0  0  0  0  1  0  0  0  0  0  0
  186.2790  178.3510  138.7390 C   0  0  1  0  0  3  0  0  0  0  0  0
  192.7140  175.2560  137.7230 C   0  0  0  0  0  3  0  0  0  0  0  0
  190.8500  176.9040  139.0160 C   0  0  0  0  0  0  0  0  0  0  0  0
  192.2190  177.1810  139.1070 C   0  0  0  0  0  3  0  0  0  0  0  0
  193.1500  176.3560  138.4680 C   0  0  0  0  0  3  0  0  0  0  0  0
  191.3480  174.9760  137.6250 C   0  0  0  0  0  3  0  0  0  0  0  0
  190.4150  175.7960  138.2710 C   0  0  0  0  0  3  0  0  0  0  0  0
  1 12  1  0  0  0  0
  2 16  1  0  0  0  0
  2  6  1  1  0  0  0
  6 18  1  0  0  0  0
  7 13  2  0  0  0  0
  8 17  1  0  0  0  0
  9  7  1  0  0  0  0
 10 19  1  0  0  0  0
 10  8  1  0  0  0  0
 11  3  1  6  0  0  0
 11 16  1  0  0  0  0
 11  7  1  0  0  0  0
 12 23  1  6  0  0  0
 12  2  1  0  0  0  0
 13  4  1  0  0  0  0
 13  5  1  0  0  0  0
 14 18  1  0  0  0  0
 14  4  2  0  0  0  0
 15  1  1  6  0  0  0
 15 21  1  0  0  0  0
 16 14  1  1  0  0  0
 19 20  1  6  0  0  0
 19 15  1  0  0  0  0
 21 17  1  1  0  0  0
 21  3  1  0  0  0  0
 22 25  1  0  0  0  0
 23 24  1  0  0  0  0
 25 24  2  0  0  0  0
 26 22  2  0  0  0  0
 26 27  1  0  0  0  0
 27 23  2  0  0  0  0
M  END
>  <MODEL>
3

>  <REMARK>
 VINA RESULT:      -7.0      3.115      5.351
  Name = 
  1 active torsions:
  status: ('A' for Active; 'I' for Inactive)
    1  A    between atoms: C_9  and  C_15
                            x       y       z     vdW  Elec       q    Type
                         _______ _______ _______ _____ _____    ______ ____

>  <TORSDO>
F 1

$$$$
=
 OpenBabel10272400573D

 27 31  0  0  1  0  0  0  0  0999 V2000
  190.1370  179.0600  143.1990 S   0  0  0  0  0  0  0  0  0  0  0  0
  187.9220  177.5460  144.2170 C   0  0  2  0  0  3  0  0  0  0  0  0
  187.7230  179.1980  141.3940 N   0  0  0  0  0  2  0  0  0  0  0  0
  184.4480  178.1080  143.7130 N   0  0  0  0  0  0  0  0  0  0  0  0
  182.6540  179.0110  141.8440 Cl  0  0  0  0  0  0  0  0  0  0  0  0
  187.2720  176.9660  145.4910 C   0  0  0  0  0  2  0  0  0  0  0  0
  185.3480  178.7540  141.5720 C   0  0  0  0  0  0  0  0  0  0  0  0
  189.6520  176.7120  139.2220 C   0  0  0  0  0  2  0  0  0  0  0  0
  185.1620  179.1630  140.1440 C   0  0  0  0  0  1  0  0  0  0  0  0
  190.5100  176.0740  140.3210 C   0  0  0  0  0  2  0  0  0  0  0  0
  186.7330  178.3440  142.0510 C   0  0  2  0  0  3  0  0  0  0  0  0
  189.2420  178.2600  144.5860 C   0  0  1  0  0  3  0  0  0  0  0  0
  184.2840  178.6330  142.3890 C   0  0  0  0  0  0  0  0  0  0  0  0
  185.6220  178.0080  144.2530 C   0  0  0  0  0  0  0  0  0  0  0  0
  189.6990  177.8000  141.9550 C   0  0  2  0  0  3  0  0  0  0  0  0
  186.8650  178.4720  143.5870 C   0  0  1  0  0  3  0  0  0  0  0  0
  188.4190  177.3930  139.8130 C   0  0  0  0  0  2  0  0  0  0  0  0
  185.8490  177.2150  145.3930 N   0  0  0  0  0  2  0  0  0  0  0  0
  190.9330  177.1090  141.3660 C   0  0  2  0  0  3  0  0  0  0  0  0
  191.8130  178.0380  140.8020 O   0  0  0  0  0  1  0  0  0  0  0  0
  188.8490  178.4320  140.8530 C   0  0  1  0  0  3  0  0  0  0  0  0
  191.9820  175.7880  146.8030 C   0  0  0  0  0  3  0  0  0  0  0  0
  190.1910  177.3760  145.3420 C   0  0  0  0  0  0  0  0  0  0  0  0
  190.1980  177.4260  146.7400 C   0  0  0  0  0  3  0  0  0  0  0  0
  191.0870  176.6310  147.4700 C   0  0  0  0  0  3  0  0  0  0  0  0
  191.9820  175.7370  145.4060 C   0  0  0  0  0  3  0  0  0  0  0  0
  191.0880  176.5270  144.6730 C   0  0  0  0  0  3  0  0  0  0  0  0
  1 12  1  0  0  0  0
  2 12  1  0  0  0  0
  2  6  1  1  0  0  0
  4 14  2  0  0  0  0
  5 13  1  0  0  0  0
  7 11  1  0  0  0  0
  7 13  2  0  0  0  0
  8 17  1  0  0  0  0
  8 10  1  0  0  0  0
  9  7  1  0  0  0  0
 10 19  1  0  0  0  0
 11  3  1  6  0  0  0
 11 16  1  0  0  0  0
 12 23  1  6  0  0  0
 13  4  1  0  0  0  0
 14 18  1  0  0  0  0
 15  1  1  1  0  0  0
 16  2  1  0  0  0  0
 16 14  1  1  0  0  0
 18  6  1  0  0  0  0
 19 20  1  6  0  0  0
 19 15  1  0  0  0  0
 21 17  1  6  0  0  0
 21  3  1  0  0  0  0
 21 15  1  0  0  0  0
 22 25  1  0  0  0  0
 23 24  1  0  0  0  0
 24 25  2  0  0  0  0
 26 22  2  0  0  0  0
 27 23  2  0  0  0  0
 27 26  1  0  0  0  0
M  END
>  <MODEL>
4

>  <REMARK>
 VINA RESULT:      -6.7      1.838      4.854
  Name = 
  1 active torsions:
  status: ('A' for Active; 'I' for Inactive)
    1  A    between atoms: C_9  and  C_15
                            x       y       z     vdW  Elec       q    Type
                         _______ _______ _______ _____ _____    ______ ____

>  <TORSDO>
F 1

$$$$
=
 OpenBabel10272400573D

 27 31  0  0  1  0  0  0  0  0999 V2000
  188.9820  178.9360  139.8680 S   0  0  0  0  0  0  0  0  0  0  0  0
  187.0440  177.9030  141.7150 C   0  0  2  0  0  3  0  0  0  0  0  0
  186.2090  178.8230  138.6830 N   0  0  0  0  0  2  0  0  0  0  0  0
  183.5630  178.6030  141.8820 N   0  0  0  0  0  0  0  0  0  0  0  0
  181.3920  179.1630  140.3000 Cl  0  0  0  0  0  0  0  0  0  0  0  0
  186.7060  177.7080  143.2080 C   0  0  0  0  0  2  0  0  0  0  0  0
  183.9370  178.6300  139.5010 C   0  0  0  0  0  0  0  0  0  0  0  0
  187.5110  175.7320  136.8450 C   0  0  0  0  0  2  0  0  0  0  0  0
  183.4230  178.6900  138.0960 C   0  0  0  0  0  1  0  0  0  0  0  0
  188.5940  175.3160  137.8490 C   0  0  0  0  0  2  0  0  0  0  0  0
  185.3880  178.2390  139.7430 C   0  0  2  0  0  3  0  0  0  0  0  0
  188.4290  178.5760  141.5790 C   0  0  1  0  0  3  0  0  0  0  0  0
  183.0970  178.7990  140.5400 C   0  0  0  0  0  0  0  0  0  0  0  0
  184.8290  178.5440  142.1490 C   0  0  0  0  0  0  0  0  0  0  0  0
  188.2330  177.4500  139.1220 C   0  0  2  0  0  3  0  0  0  0  0  0
  185.8870  178.7290  141.1240 C   0  0  1  0  0  3  0  0  0  0  0  0
  186.4700  176.6350  137.5040 C   0  0  0  0  0  2  0  0  0  0  0  0
  185.3060  178.0390  143.3740 N   0  0  0  0  0  2  0  0  0  0  0  0
  189.2760  176.5390  138.4680 C   0  0  2  0  0  3  0  0  0  0  0  0
  190.0140  177.2270  137.5000 O   0  0  0  0  0  1  0  0  0  0  0  0
  187.1570  177.8590  138.1160 C   0  0  1  0  0  3  0  0  0  0  0  0
  191.4800  176.3880  143.6840 C   0  0  0  0  0  3  0  0  0  0  0  0
  189.5120  177.8310  142.3020 C   0  0  0  0  0  0  0  0  0  0  0  0
  189.5020  176.4320  142.2870 C   0  0  0  0  0  3  0  0  0  0  0  0
  190.4860  175.7110  142.9700 C   0  0  0  0  0  3  0  0  0  0  0  0
  191.4930  177.7860  143.7070 C   0  0  0  0  0  3  0  0  0  0  0  0
  190.5130  178.5090  143.0170 C   0  0  0  0  0  3  0  0  0  0  0  0
  1 12  1  0  0  0  0
  2  6  1  1  0  0  0
  4 14  2  0  0  0  0
  5 13  1  0  0  0  0
  6 18  1  0  0  0  0
  7 11  1  0  0  0  0
  7 13  2  0  0  0  0
  8 17  1  0  0  0  0
  8 10  1  0  0  0  0
  9  7  1  0  0  0  0
 10 19  1  0  0  0  0
 11  3  1  6  0  0  0
 11 16  1  0  0  0  0
 12  2  1  0  0  0  0
 12 23  1  6  0  0  0
 13  4  1  0  0  0  0
 14 18  1  0  0  0  0
 15  1  1  6  0  0  0
 16  2  1  0  0  0  0
 16 14  1  1  0  0  0
 19 20  1  6  0  0  0
 19 15  1  0  0  0  0
 21 17  1  1  0  0  0
 21  3  1  0  0  0  0
 21 15  1  0  0  0  0
 22 26  1  0  0  0  0
 23 27  1  0  0  0  0
 24 23  2  0  0  0  0
 24 25  1  0  0  0  0
 25 22  2  0  0  0  0
 27 26  2  0  0  0  0
M  END
>  <MODEL>
5

>  <REMARK>
 VINA RESULT:      -6.7      2.917      5.414
  Name = 
  1 active torsions:
  status: ('A' for Active; 'I' for Inactive)
    1  A    between atoms: C_9  and  C_15
                            x       y       z     vdW  Elec       q    Type
                         _______ _______ _______ _____ _____    ______ ____

>  <TORSDO>
F 1

$$$$
=
 OpenBabel10272400573D

 27 31  0  0  1  0  0  0  0  0999 V2000
  187.5040  179.5690  141.1160 S   0  0  0  0  0  0  0  0  0  0  0  0
  188.3710  177.2640  142.5890 C   0  0  2  0  0  3  0  0  0  0  0  0
  186.2960  179.4490  143.8780 N   0  0  0  0  0  2  0  0  0  0  0  0
  188.6960  176.8910  146.1090 N   0  0  0  0  0  0  0  0  0  0  0  0
  187.5600  177.6740  148.4810 Cl  0  0  0  0  0  0  0  0  0  0  0  0
  189.4910  176.2140  142.7410 C   0  0  0  0  0  2  0  0  0  0  0  0
  186.7450  178.2970  145.9610 C   0  0  0  0  0  0  0  0  0  0  0  0
  183.1430  178.2800  142.0570 C   0  0  0  0  0  2  0  0  0  0  0  0
  185.5760  178.9850  146.5960 C   0  0  0  0  0  1  0  0  0  0  0  0
  183.8140  177.6630  140.8230 C   0  0  0  0  0  2  0  0  0  0  0  0
  186.8150  178.2040  144.4440 C   0  0  2  0  0  3  0  0  0  0  0  0
  188.7040  178.2150  141.4180 C   0  0  1  0  0  3  0  0  0  0  0  0
  187.6580  177.6640  146.7240 C   0  0  0  0  0  0  0  0  0  0  0  0
  188.9590  177.0060  144.8460 C   0  0  0  0  0  0  0  0  0  0  0  0
  186.0250  178.5990  141.5590 C   0  0  2  0  0  3  0  0  0  0  0  0
  188.2640  177.9680  143.9550 C   0  0  1  0  0  3  0  0  0  0  0  0
  184.1280  178.3950  143.2180 C   0  0  0  0  0  2  0  0  0  0  0  0
  189.7310  176.0500  144.1590 N   0  0  0  0  0  2  0  0  0  0  0  0
  185.0390  178.4750  140.3940 C   0  0  2  0  0  3  0  0  0  0  0  0
  184.6490  179.7330  139.9250 O   0  0  0  0  0  1  0  0  0  0  0  0
  185.3490  179.2120  142.7850 C   0  0  1  0  0  3  0  0  0  0  0  0
  189.5140  176.1620  137.7220 C   0  0  0  0  0  3  0  0  0  0  0  0
  188.9610  177.4870  140.1310 C   0  0  0  0  0  0  0  0  0  0  0  0
  190.2170  176.9090  139.9160 C   0  0  0  0  0  3  0  0  0  0  0  0
  190.4920  176.2430  138.7180 C   0  0  0  0  0  3  0  0  0  0  0  0
  188.2580  176.7400  137.9290 C   0  0  0  0  0  3  0  0  0  0  0  0
  187.9780  177.4010  139.1310 C   0  0  0  0  0  3  0  0  0  0  0  0
  1 12  1  0  0  0  0
  2  6  1  1  0  0  0
  2 16  1  0  0  0  0
  4 13  1  0  0  0  0
  6 18  1  0  0  0  0
  7  9  1  0  0  0  0
  7 13  2  0  0  0  0
  8 17  1  0  0  0  0
 10  8  1  0  0  0  0
 11  3  1  6  0  0  0
 11  7  1  0  0  0  0
 12 23  1  6  0  0  0
 12  2  1  0  0  0  0
 13  5  1  0  0  0  0
 14  4  2  0  0  0  0
 15  1  1  6  0  0  0
 15 21  1  0  0  0  0
 16 11  1  0  0  0  0
 16 14  1  1  0  0  0
 18 14  1  0  0  0  0
 19 20  1  1  0  0  0
 19 10  1  0  0  0  0
 19 15  1  0  0  0  0
 21 17  1  1  0  0  0
 21  3  1  0  0  0  0
 22 26  2  0  0  0  0
 22 25  1  0  0  0  0
 24 23  1  0  0  0  0
 25 24  2  0  0  0  0
 26 27  1  0  0  0  0
 27 23  2  0  0  0  0
M  END
>  <MODEL>
6

>  <REMARK>
 VINA RESULT:      -6.3      2.910      4.936
  Name = 
  1 active torsions:
  status: ('A' for Active; 'I' for Inactive)
    1  A    between atoms: C_9  and  C_15
                            x       y       z     vdW  Elec       q    Type
                         _______ _______ _______ _____ _____    ______ ____

>  <TORSDO>
F 1

$$$$
=
 OpenBabel10272400573D

 27 31  0  0  1  0  0  0  0  0999 V2000
  188.4460  175.8770  143.6500 S   0  0  0  0  0  0  0  0  0  0  0  0
  187.4670  178.1470  142.1930 C   0  0  2  0  0  3  0  0  0  0  0  0
  185.9800  177.0750  144.9100 N   0  0  0  0  0  2  0  0  0  0  0  0
  184.1280  179.3450  141.9590 N   0  0  0  0  0  0  0  0  0  0  0  0
  181.8110  179.5860  143.4090 Cl  0  0  0  0  0  0  0  0  0  0  0  0
  187.4240  178.8350  140.8120 C   0  0  0  0  0  2  0  0  0  0  0  0
  184.1930  178.5680  144.2390 C   0  0  0  0  0  0  0  0  0  0  0  0
  188.4320  178.5590  147.4410 C   0  0  0  0  0  2  0  0  0  0  0  0
  183.5730  178.4390  145.5970 C   0  0  0  0  0  1  0  0  0  0  0  0
  189.6770  178.6040  146.5470 C   0  0  0  0  0  2  0  0  0  0  0  0
  185.6660  178.2250  144.0620 C   0  0  2  0  0  3  0  0  0  0  0  0
  188.3210  176.8620  142.1080 C   0  0  1  0  0  3  0  0  0  0  0  0
  183.4900  179.0940  143.2180 C   0  0  0  0  0  0  0  0  0  0  0  0
  185.2810  178.8240  141.6770 C   0  0  0  0  0  0  0  0  0  0  0  0
  188.4500  177.3110  144.7770 C   0  0  2  0  0  3  0  0  0  0  0  0
  185.9990  177.8970  142.5870 C   0  0  1  0  0  3  0  0  0  0  0  0
  187.1560  178.4850  146.6050 C   0  0  0  0  0  2  0  0  0  0  0  0
  186.0680  179.2980  140.6100 N   0  0  0  0  0  2  0  0  0  0  0  0
  189.7320  177.3930  145.6120 C   0  0  2  0  0  3  0  0  0  0  0  0
  189.9330  176.2200  146.3470 O   0  0  0  0  0  1  0  0  0  0  0  0
  187.2140  177.2690  145.6760 C   0  0  1  0  0  3  0  0  0  0  0  0
  192.2680  177.5120  140.5180 C   0  0  0  0  0  3  0  0  0  0  0  0
  189.6990  177.1130  141.5690 C   0  0  0  0  0  0  0  0  0  0  0  0
  189.9430  176.9060  140.2060 C   0  0  0  0  0  3  0  0  0  0  0  0
  191.2230  177.1110  139.6800 C   0  0  0  0  0  3  0  0  0  0  0  0
  192.0310  177.7160  141.8810 C   0  0  0  0  0  3  0  0  0  0  0  0
  190.7490  177.5190  142.4080 C   0  0  0  0  0  3  0  0  0  0  0  0
  2  6  1  6  0  0  0
  2 16  1  0  0  0  0
  3 21  1  0  0  0  0
  4 13  1  0  0  0  0
  7  9  1  0  0  0  0
 10  8  1  0  0  0  0
 11  7  1  6  0  0  0
 11  3  1  0  0  0  0
 12 23  1  1  0  0  0
 12  2  1  0  0  0  0
 12  1  1  0  0  0  0
 13  5  1  0  0  0  0
 13  7  2  0  0  0  0
 14  4  2  0  0  0  0
 15  1  1  1  0  0  0
 15 19  1  0  0  0  0
 15 21  1  0  0  0  0
 16 14  1  6  0  0  0
 16 11  1  0  0  0  0
 17  8  1  0  0  0  0
 18  6  1  0  0  0  0
 18 14  1  0  0  0  0
 19 20  1  1  0  0  0
 19 10  1  0  0  0  0
 21 17  1  6  0  0  0
 22 26  1  0  0  0  0
 23 27  1  0  0  0  0
 24 23  2  0  0  0  0
 25 24  1  0  0  0  0
 25 22  2  0  0  0  0
 26 27  2  0  0  0  0
M  END
>  <MODEL>
7

>  <REMARK>
 VINA RESULT:      -6.1      1.326      1.635
  Name = 
  1 active torsions:
  status: ('A' for Active; 'I' for Inactive)
    1  A    between atoms: C_9  and  C_15
                            x       y       z     vdW  Elec       q    Type
                         _______ _______ _______ _____ _____    ______ ____

>  <TORSDO>
F 1

$$$$
=
 OpenBabel10272400573D

 27 31  0  0  1  0  0  0  0  0999 V2000
  187.2870  176.2580  143.9600 S   0  0  0  0  0  0  0  0  0  0  0  0
  189.7490  177.7310  143.9870 C   0  0  2  0  0  3  0  0  0  0  0  0
  188.3900  176.7040  141.1870 N   0  0  0  0  0  2  0  0  0  0  0  0
  192.4240  177.6000  141.6490 N   0  0  0  0  0  0  0  0  0  0  0  0
  192.9440  177.2570  138.9770 Cl  0  0  0  0  0  0  0  0  0  0  0  0
  190.9870  178.1000  144.8310 C   0  0  0  0  0  2  0  0  0  0  0  0
  190.5160  177.3180  140.2030 C   0  0  0  0  0  0  0  0  0  0  0  0
  185.6800  179.3910  140.9320 C   0  0  0  0  0  2  0  0  0  0  0  0
  189.9130  177.2220  138.8350 C   0  0  0  0  0  1  0  0  0  0  0  0
  185.5450  179.7150  142.4250 C   0  0  0  0  0  2  0  0  0  0  0  0
  189.6010  177.4960  141.4050 C   0  0  2  0  0  3  0  0  0  0  0  0
  188.7990  176.8410  144.8190 C   0  0  1  0  0  3  0  0  0  0  0  0
  191.8540  177.3690  140.3540 C   0  0  0  0  0  0  0  0  0  0  0  0
  191.7110  177.4820  142.7250 C   0  0  0  0  0  0  0  0  0  0  0  0
  187.0430  177.7760  142.9790 C   0  0  2  0  0  3  0  0  0  0  0  0
  190.2910  177.0500  142.7160 C   0  0  1  0  0  3  0  0  0  0  0  0
  187.0190  178.7200  140.6340 C   0  0  0  0  0  2  0  0  0  0  0  0
  192.1390  178.0060  143.9590 N   0  0  0  0  0  2  0  0  0  0  0  0
  185.7040  178.4560  143.2820 C   0  0  2  0  0  3  0  0  0  0  0  0
  184.6330  177.5830  143.0680 O   0  0  0  0  0  1  0  0  0  0  0  0
  187.1690  177.4580  141.4900 C   0  0  1  0  0  3  0  0  0  0  0  0
  187.7280  178.5660  148.6140 C   0  0  0  0  0  3  0  0  0  0  0  0
  188.4140  177.4640  146.1280 C   0  0  0  0  0  0  0  0  0  0  0  0
  189.3410  177.4720  147.1770 C   0  0  0  0  0  3  0  0  0  0  0  0
  189.0020  178.0260  148.4150 C   0  0  0  0  0  3  0  0  0  0  0  0
  186.7960  178.5580  147.5720 C   0  0  0  0  0  3  0  0  0  0  0  0
  187.1350  178.0110  146.3300 C   0  0  0  0  0  3  0  0  0  0  0  0
  1 12  1  0  0  0  0
  2 12  1  0  0  0  0
  2  6  1  1  0  0  0
  3 11  1  0  0  0  0
  3 21  1  0  0  0  0
  4 14  2  0  0  0  0
  5 13  1  0  0  0  0
  7 13  2  0  0  0  0
  8 10  1  0  0  0  0
  9  7  1  0  0  0  0
 10 19  1  0  0  0  0
 11  7  1  6  0  0  0
 11 16  1  0  0  0  0
 12 23  1  1  0  0  0
 13  4  1  0  0  0  0
 14 18  1  0  0  0  0
 15 19  1  0  0  0  0
 15  1  1  1  0  0  0
 16 14  1  6  0  0  0
 16  2  1  0  0  0  0
 17  8  1  0  0  0  0
 18  6  1  0  0  0  0
 19 20  1  6  0  0  0
 21 17  1  6  0  0  0
 21 15  1  0  0  0  0
 23 27  2  0  0  0  0
 23 24  1  0  0  0  0
 24 25  2  0  0  0  0
 25 22  1  0  0  0  0
 26 22  2  0  0  0  0
 27 26  1  0  0  0  0
M  END
>  <MODEL>
8

>  <REMARK>
 VINA RESULT:      -6.0      3.321      6.809
  Name = 
  1 active torsions:
  status: ('A' for Active; 'I' for Inactive)
    1  A    between atoms: C_9  and  C_15
                            x       y       z     vdW  Elec       q    Type
                         _______ _______ _______ _____ _____    ______ ____

>  <TORSDO>
F 1

$$$$
=
 OpenBabel10272400573D

 27 31  0  0  1  0  0  0  0  0999 V2000
  189.1370  176.2660  141.6800 S   0  0  0  0  0  0  0  0  0  0  0  0
  187.1570  178.3190  141.9880 C   0  0  2  0  0  3  0  0  0  0  0  0
  188.4730  176.7970  144.5750 N   0  0  0  0  0  2  0  0  0  0  0  0
  184.7900  178.7260  144.6080 N   0  0  0  0  0  0  0  0  0  0  0  0
  184.4670  178.3540  147.3070 Cl  0  0  0  0  0  0  0  0  0  0  0  0
  185.9810  179.0480  141.3040 C   0  0  0  0  0  2  0  0  0  0  0  0
  186.6910  177.8700  145.8170 C   0  0  0  0  0  0  0  0  0  0  0  0
  191.8040  178.6760  144.6200 C   0  0  0  0  0  2  0  0  0  0  0  0
  187.3810  177.5340  147.1020 C   0  0  0  0  0  1  0  0  0  0  0  0
  191.8680  179.0520  143.1340 C   0  0  0  0  0  2  0  0  0  0  0  0
  187.4960  177.8860  144.5250 C   0  0  2  0  0  3  0  0  0  0  0  0
  187.7530  177.2720  141.0200 C   0  0  1  0  0  3  0  0  0  0  0  0
  185.4050  178.2720  145.8200 C   0  0  0  0  0  0  0  0  0  0  0  0
  185.3350  178.5000  143.4540 C   0  0  0  0  0  0  0  0  0  0  0  0
  189.8670  177.6020  142.6820 C   0  0  2  0  0  3  0  0  0  0  0  0
  186.5860  177.7190  143.2850 C   0  0  1  0  0  3  0  0  0  0  0  0
  190.3720  178.3530  145.0430 C   0  0  0  0  0  2  0  0  0  0  0  0
  184.9380  179.1960  142.2970 N   0  0  0  0  0  2  0  0  0  0  0  0
  191.3000  177.9350  142.2550 C   0  0  2  0  0  3  0  0  0  0  0  0
  192.1210  176.8040  142.3140 O   0  0  0  0  0  1  0  0  0  0  0  0
  189.8120  177.2310  144.1640 C   0  0  1  0  0  3  0  0  0  0  0  0
  188.8630  178.9020  137.1940 C   0  0  0  0  0  3  0  0  0  0  0  0
  188.1550  177.8600  139.7000 C   0  0  0  0  0  0  0  0  0  0  0  0
  187.1890  178.0040  138.6970 C   0  0  0  0  0  3  0  0  0  0  0  0
  187.5400  178.5280  137.4490 C   0  0  0  0  0  3  0  0  0  0  0  0
  189.8330  178.7570  138.1910 C   0  0  0  0  0  3  0  0  0  0  0  0
  189.4830  178.2390  139.4430 C   0  0  0  0  0  3  0  0  0  0  0  0
  2  6  1  6  0  0  0
  2 16  1  0  0  0  0
  4 13  1  0  0  0  0
  6 18  1  0  0  0  0
  7 13  2  0  0  0  0
  7  9  1  0  0  0  0
  8 17  1  0  0  0  0
 10  8  1  0  0  0  0
 11  3  1  1  0  0  0
 11  7  1  0  0  0  0
 12 23  1  6  0  0  0
 12  1  1  0  0  0  0
 12  2  1  0  0  0  0
 13  5  1  0  0  0  0
 14  4  2  0  0  0  0
 15  1  1  6  0  0  0
 15 21  1  0  0  0  0
 16 14  1  1  0  0  0
 16 11  1  0  0  0  0
 18 14  1  0  0  0  0
 19 20  1  1  0  0  0
 19 15  1  0  0  0  0
 19 10  1  0  0  0  0
 21  3  1  0  0  0  0
 21 17  1  1  0  0  0
 22 25  2  0  0  0  0
 22 26  1  0  0  0  0
 24 23  2  0  0  0  0
 25 24  1  0  0  0  0
 26 27  2  0  0  0  0
 27 23  1  0  0  0  0
M  END
>  <MODEL>
9

>  <REMARK>
 VINA RESULT:      -6.0      1.832      2.545
  Name = 
  1 active torsions:
  status: ('A' for Active; 'I' for Inactive)
    1  A    between atoms: C_9  and  C_15
                            x       y       z     vdW  Elec       q    Type
                         _______ _______ _______ _____ _____    ______ ____

>  <TORSDO>
F 1

$$$$
