=
 OpenBabel10272401363D

 55 60  0  0  1  0  0  0  0  0999 V2000
  192.8040  176.9460  138.8040 C   0  0  0  0  0  2  0  0  0  0  0  0
  188.4770  179.0800  136.6560 C   0  0  0  0  0  2  0  0  0  0  0  0
  188.7970  177.3300  134.3470 C   0  0  0  0  0  2  0  0  0  0  0  0
  190.5620  176.0450  135.3800 C   0  0  0  0  0  2  0  0  0  0  0  0
  191.9350  176.9240  141.1850 C   0  0  0  0  0  2  0  0  0  0  0  0
  189.3270  177.6610  140.3330 C   0  0  1  0  0  3  0  0  0  0  0  0
  192.6700  175.4680  138.4670 C   0  0  0  0  0  2  0  0  0  0  0  0
  190.3140  177.1540  139.2840 C   0  0  0  0  0  2  0  0  0  0  0  0
  188.2480  179.3360  138.1420 C   0  0  0  0  0  2  0  0  0  0  0  0
  189.7470  178.2740  136.4140 C   0  0  0  0  0  2  0  0  0  0  0  0
  189.5450  177.1450  135.4340 C   0  0  0  0  0  0  0  0  0  0  0  0
  190.7920  177.4470  142.0560 C   0  0  0  0  0  2  0  0  0  0  0  0
  187.3550  178.2650  138.7890 C   0  0  2  0  0  0  0  0  0  0  0  0
  191.7310  177.4480  139.7680 C   0  0  2  0  0  3  0  0  0  0  0  0
  190.8030  175.4340  136.7560 C   0  0  2  0  0  3  0  0  0  0  0  0
  192.3150  175.3180  136.9930 C   0  0  2  0  0  3  0  0  0  0  0  0
  187.1420  178.5640  140.1490 O   0  0  0  0  0  0  0  0  0  0  0  0
  187.8930  177.4010  139.8890 C   0  0  2  0  0  3  0  0  0  0  0  0
  189.5550  176.9970  141.5550 O   0  0  0  0  0  0  0  0  0  0  0  0
  190.5540  173.0450  136.2000 O   0  0  0  0  0  0  0  0  0  0  0  0
  190.1270  173.1750  134.8640 C   0  0  0  0  0  2  0  0  0  0  0  0
  188.4950  174.3020  136.7650 C   0  0  2  0  0  3  0  0  0  0  0  0
  187.8850  173.1140  136.0280 C   0  0  0  0  0  2  0  0  0  0  0  0
  188.6440  172.8280  134.7310 C   0  0  0  0  0  2  0  0  0  0  0  0
  190.0180  174.1180  136.9600 C   0  0  2  0  0  3  0  0  0  0  0  0
  187.8720  174.4450  138.0040 O   0  0  0  0  0  1  0  0  0  0  0  0
  185.9390  176.4750  138.0530 F   0  0  0  0  0  0  0  0  0  0  0  0
  186.0140  177.8570  138.1310 C   0  0  0  0  0  0  0  0  0  0  0  0
  185.9590  178.3550  136.8390 F   0  0  0  0  0  0  0  0  0  0  0  0
  184.8180  178.4000  138.9500 C   0  0  1  0  0  3  0  0  0  0  0  0
  184.7670  179.7980  138.8800 O   0  0  0  0  0  1  0  0  0  0  0  0
  183.4340  177.7800  138.6210 C   0  0  2  0  0  0  0  0  0  0  0  0
  183.3540  176.5040  139.1880 O   0  0  0  0  0  1  0  0  0  0  0  0
  182.5900  176.4640  136.7860 F   0  0  0  0  0  0  0  0  0  0  0  0
  183.2440  177.6400  137.1070 C   0  0  0  0  0  2  0  0  0  0  0  0
  182.2990  178.6510  139.2070 C   0  0  2  0  0  3  0  0  0  0  0  0
  181.7780  178.1180  140.5470 C   0  0  2  0  0  3  0  0  0  0  0  0
  180.6490  177.3410  140.3640 F   0  0  0  0  0  0  0  0  0  0  0  0
  181.4820  179.1810  141.4000 O   0  0  0  0  0  1  0  0  0  0  0  0
  181.2400  178.7810  138.2960 O   0  0  0  0  0  0  0  0  0  0  0  0
  182.0400  180.8670  138.7620 O   0  0  0  0  0  1  0  0  0  0  0  0
  180.9610  180.1510  138.2440 C   0  0  1  0  0  3  0  0  0  0  0  0
  180.4410  179.6140  135.8590 O   0  0  0  0  0  0  0  0  0  0  0  0
  180.7170  180.5660  136.8330 C   0  0  0  0  0  0  0  0  0  0  0  0
  180.7770  181.7840  136.5210 O   0  0  0  0  0  1  0  0  0  0  0  0
  192.9280  174.0600  136.3800 C   0  0  0  0  0  2  0  0  0  0  0  0
  195.0980  174.8030  135.3790 C   0  0  0  0  0  3  0  0  0  0  0  0
  197.2210  174.2090  136.3970 C   0  0  0  0  0  0  0  0  0  0  0  0
  195.1360  173.5050  137.4240 C   0  0  0  0  0  3  0  0  0  0  0  0
  196.5330  173.5500  137.4270 C   0  0  0  0  0  3  0  0  0  0  0  0
  196.4940  174.8490  135.3820 C   0  0  0  0  0  3  0  0  0  0  0  0
  194.4170  174.1300  136.3990 C   0  0  0  0  0  0  0  0  0  0  0  0
  198.7170  174.2960  136.4270 C   0  0  0  0  0  3  0  0  0  0  0  0
  199.3220  173.3770  135.3770 C   0  0  0  0  0  2  0  0  0  0  0  0
  199.2440  174.8630  135.1180 C   0  0  0  0  0  2  0  0  0  0  0  0
  2  9  1  0  0  0  0
  3 11  2  0  0  0  0
  4 11  1  0  0  0  0
  5 12  1  0  0  0  0
  6  8  1  6  0  0  0
  6 19  1  0  0  0  0
  7  1  1  0  0  0  0
  8 14  1  0  0  0  0
  9 13  1  0  0  0  0
 10  2  1  0  0  0  0
 11 10  1  0  0  0  0
 13 28  1  6  0  0  0
 13 18  1  0  0  0  0
 13 17  1  0  0  0  0
 14  1  1  6  0  0  0
 14  5  1  0  0  0  0
 15  4  1  6  0  0  0
 15 25  1  0  0  0  0
 15 16  1  0  0  0  0
 16 46  1  1  0  0  0
 16  7  1  0  0  0  0
 18 17  1  1  0  0  0
 18  6  1  0  0  0  0
 19 12  1  0  0  0  0
 21 20  1  0  0  0  0
 22 25  1  0  0  0  0
 22 26  1  1  0  0  0
 23 22  1  0  0  0  0
 24 21  1  0  0  0  0
 24 23  1  0  0  0  0
 25 20  1  6  0  0  0
 27 28  1  0  0  0  0
 28 30  1  0  0  0  0
 29 28  1  0  0  0  0
 30 31  1  6  0  0  0
 32 30  1  0  0  0  0
 32 33  1  1  0  0  0
 32 36  1  0  0  0  0
 34 35  1  0  0  0  0
 35 32  1  0  0  0  0
 36 40  1  6  0  0  0
 36 37  1  0  0  0  0
 37 38  1  6  0  0  0
 37 39  1  0  0  0  0
 42 40  1  0  0  0  0
 42 41  1  6  0  0  0
 43 44  2  0  0  0  0
 44 42  1  0  0  0  0
 45 44  1  0  0  0  0
 46 52  1  0  0  0  0
 47 51  2  0  0  0  0
 47 52  1  0  0  0  0
 48 53  1  0  0  0  0
 48 50  2  0  0  0  0
 49 50  1  0  0  0  0
 51 48  1  0  0  0  0
 52 49  2  0  0  0  0
 54 53  1  0  0  0  0
 55 54  1  0  0  0  0
 55 53  1  0  0  0  0
M  END
>  <MODEL>
1

>  <REMARK>
 VINA RESULT:      -4.8      0.000      0.000
  Name = 
  13 active torsions:
  status: ('A' for Active; 'I' for Inactive)
    1  A    between atoms: C_1  and  C_53
    2  A    between atoms: C_6  and  C_14
    3  A    between atoms: C_6  and  C_20
    4  A    between atoms: C_6  and  C_53
    5  A    between atoms: C_8  and  C_20
    6  A    between atoms: C_8  and  C_43
    7  A    between atoms: C_10  and  C_32
    8  A    between atoms: C_11  and  C_29
    9  A    between atoms: C_11  and  O_38
   10  A    between atoms: C_26  and  C_45
   11  A    between atoms: C_33  and  C_49
   12  A    between atoms: C_33  and  C_52
   13  A    between atoms: O_38  and  C_53
                            x       y       z     vdW  Elec       q    Type
                         _______ _______ _______ _____ _____    ______ ____

>  <TORSDO>
F 13

$$$$
=
 OpenBabel10272401363D

 55 60  0  0  1  0  0  0  0  0999 V2000
  192.6610  176.7720  138.6240 C   0  0  0  0  0  2  0  0  0  0  0  0
  188.3200  179.0500  136.6600 C   0  0  0  0  0  2  0  0  0  0  0  0
  188.4590  177.2630  134.3620 C   0  0  0  0  0  2  0  0  0  0  0  0
  190.2210  175.9210  135.3250 C   0  0  0  0  0  2  0  0  0  0  0  0
  191.9100  176.8110  141.0450 C   0  0  0  0  0  2  0  0  0  0  0  0
  189.2930  177.6400  140.3100 C   0  0  1  0  0  3  0  0  0  0  0  0
  192.4530  175.2960  138.3140 C   0  0  0  0  0  2  0  0  0  0  0  0
  190.2080  177.0830  139.2220 C   0  0  0  0  0  2  0  0  0  0  0  0
  188.1740  179.3320  138.1520 C   0  0  0  0  0  2  0  0  0  0  0  0
  189.5450  178.1920  136.3680 C   0  0  0  0  0  2  0  0  0  0  0  0
  189.2520  177.0610  135.4140 C   0  0  0  0  0  0  0  0  0  0  0  0
  190.8310  177.3880  141.9630 C   0  0  0  0  0  2  0  0  0  0  0  0
  187.2730  178.3040  138.8560 C   0  0  2  0  0  0  0  0  0  0  0  0
  191.6570  177.3260  139.6320 C   0  0  2  0  0  3  0  0  0  0  0  0
  190.5050  175.3170  136.6950 C   0  0  2  0  0  3  0  0  0  0  0  0
  192.0210  175.1450  136.8600 C   0  0  2  0  0  3  0  0  0  0  0  0
  187.1390  178.6260  140.2210 O   0  0  0  0  0  0  0  0  0  0  0  0
  187.8300  177.4320  139.9390 C   0  0  2  0  0  3  0  0  0  0  0  0
  189.5540  176.9810  141.5280 O   0  0  0  0  0  0  0  0  0  0  0  0
  190.2900  172.8790  136.3990 O   0  0  0  0  0  0  0  0  0  0  0  0
  190.0320  172.8490  135.0140 C   0  0  0  0  0  2  0  0  0  0  0  0
  188.1960  174.1960  136.5520 C   0  0  2  0  0  3  0  0  0  0  0  0
  187.6640  172.9290  135.8910 C   0  0  0  0  0  2  0  0  0  0  0  0
  188.5710  172.4890  134.7410 C   0  0  0  0  0  2  0  0  0  0  0  0
  189.6810  174.0350  136.9540 C   0  0  2  0  0  3  0  0  0  0  0  0
  187.4280  174.4860  137.6780 O   0  0  0  0  0  1  0  0  0  0  0  0
  185.7510  176.5620  138.2210 F   0  0  0  0  0  0  0  0  0  0  0  0
  185.8860  177.9420  138.2680 C   0  0  0  0  0  0  0  0  0  0  0  0
  185.7910  178.4180  136.9710 F   0  0  0  0  0  0  0  0  0  0  0  0
  184.7540  178.5490  139.1320 C   0  0  1  0  0  3  0  0  0  0  0  0
  184.5570  179.8970  138.8090 O   0  0  0  0  0  1  0  0  0  0  0  0
  183.4080  177.7770  139.1230 C   0  0  2  0  0  0  0  0  0  0  0  0
  183.6630  176.4040  139.1990 O   0  0  0  0  0  1  0  0  0  0  0  0
  181.8440  176.9640  137.4780 F   0  0  0  0  0  0  0  0  0  0  0  0
  182.6320  178.0460  137.8300 C   0  0  0  0  0  2  0  0  0  0  0  0
  182.5450  178.1850  140.3400 C   0  0  2  0  0  3  0  0  0  0  0  0
  181.2330  178.8660  139.9300 C   0  0  2  0  0  3  0  0  0  0  0  0
  181.2130  180.1870  140.3390 F   0  0  0  0  0  0  0  0  0  0  0  0
  180.1500  178.1870  140.4870 O   0  0  0  0  0  1  0  0  0  0  0  0
  183.2640  179.0130  141.2140 O   0  0  0  0  0  0  0  0  0  0  0  0
  184.8240  178.1720  142.6520 O   0  0  0  0  0  1  0  0  0  0  0  0
  183.4600  178.2510  142.3710 C   0  0  1  0  0  3  0  0  0  0  0  0
  181.3650  179.0050  143.5040 O   0  0  0  0  0  0  0  0  0  0  0  0
  182.7480  178.8780  143.5200 C   0  0  0  0  0  0  0  0  0  0  0  0
  183.4070  179.3100  144.5020 O   0  0  0  0  0  1  0  0  0  0  0  0
  192.5540  173.8560  136.2350 C   0  0  0  0  0  2  0  0  0  0  0  0
  194.6840  174.8660  135.3940 C   0  0  0  0  0  3  0  0  0  0  0  0
  196.8410  173.8920  135.9430 C   0  0  0  0  0  0  0  0  0  0  0  0
  194.7990  172.9080  136.8160 C   0  0  0  0  0  3  0  0  0  0  0  0
  196.1930  172.9170  136.7180 C   0  0  0  0  0  3  0  0  0  0  0  0
  196.0780  174.8760  135.2960 C   0  0  0  0  0  3  0  0  0  0  0  0
  194.0430  173.8810  136.1520 C   0  0  0  0  0  0  0  0  0  0  0  0
  198.3380  173.9290  135.8770 C   0  0  0  0  0  3  0  0  0  0  0  0
  198.9150  172.5610  136.2080 C   0  0  0  0  0  2  0  0  0  0  0  0
  198.8440  173.0180  134.7690 C   0  0  0  0  0  2  0  0  0  0  0  0
  2  9  1  0  0  0  0
  3 11  2  0  0  0  0
  4 11  1  0  0  0  0
  5 12  1  0  0  0  0
  6  8  1  6  0  0  0
  6 19  1  0  0  0  0
  7  1  1  0  0  0  0
  8 14  1  0  0  0  0
  9 13  1  0  0  0  0
 10  2  1  0  0  0  0
 11 10  1  0  0  0  0
 13 28  1  6  0  0  0
 13 18  1  0  0  0  0
 13 17  1  0  0  0  0
 14  1  1  6  0  0  0
 14  5  1  0  0  0  0
 15  4  1  6  0  0  0
 15 16  1  0  0  0  0
 15 25  1  0  0  0  0
 16 46  1  1  0  0  0
 16  7  1  0  0  0  0
 18 17  1  1  0  0  0
 18  6  1  0  0  0  0
 19 12  1  0  0  0  0
 21 20  1  0  0  0  0
 22 25  1  0  0  0  0
 22 26  1  1  0  0  0
 23 22  1  0  0  0  0
 24 21  1  0  0  0  0
 24 23  1  0  0  0  0
 25 20  1  6  0  0  0
 27 28  1  0  0  0  0
 28 30  1  0  0  0  0
 29 28  1  0  0  0  0
 30 31  1  6  0  0  0
 32 30  1  0  0  0  0
 32 33  1  1  0  0  0
 32 36  1  0  0  0  0
 34 35  1  0  0  0  0
 35 32  1  0  0  0  0
 36 40  1  1  0  0  0
 37 38  1  1  0  0  0
 37 36  1  0  0  0  0
 37 39  1  0  0  0  0
 40 42  1  0  0  0  0
 42 41  1  1  0  0  0
 42 44  1  0  0  0  0
 43 44  2  0  0  0  0
 44 45  1  0  0  0  0
 47 52  1  0  0  0  0
 48 50  2  0  0  0  0
 50 49  1  0  0  0  0
 51 47  2  0  0  0  0
 51 48  1  0  0  0  0
 52 46  1  0  0  0  0
 52 49  2  0  0  0  0
 53 48  1  0  0  0  0
 53 54  1  0  0  0  0
 55 53  1  0  0  0  0
 55 54  1  0  0  0  0
M  END
>  <MODEL>
2

>  <REMARK>
 VINA RESULT:      -4.7      1.358      2.283
  Name = 
  13 active torsions:
  status: ('A' for Active; 'I' for Inactive)
    1  A    between atoms: C_1  and  C_53
    2  A    between atoms: C_6  and  C_14
    3  A    between atoms: C_6  and  C_20
    4  A    between atoms: C_6  and  C_53
    5  A    between atoms: C_8  and  C_20
    6  A    between atoms: C_8  and  C_43
    7  A    between atoms: C_10  and  C_32
    8  A    between atoms: C_11  and  C_29
    9  A    between atoms: C_11  and  O_38
   10  A    between atoms: C_26  and  C_45
   11  A    between atoms: C_33  and  C_49
   12  A    between atoms: C_33  and  C_52
   13  A    between atoms: O_38  and  C_53
                            x       y       z     vdW  Elec       q    Type
                         _______ _______ _______ _____ _____    ______ ____

>  <TORSDO>
F 13

$$$$
=
 OpenBabel10272401363D

 55 60  0  0  1  0  0  0  0  0999 V2000
  191.9490  176.6910  138.3040 C   0  0  0  0  0  2  0  0  0  0  0  0
  187.5500  179.0230  136.5400 C   0  0  0  0  0  2  0  0  0  0  0  0
  187.4500  177.1060  134.3470 C   0  0  0  0  0  2  0  0  0  0  0  0
  189.2340  175.7530  135.2530 C   0  0  0  0  0  2  0  0  0  0  0  0
  191.3870  176.8940  140.7680 C   0  0  0  0  0  2  0  0  0  0  0  0
  188.7520  177.7820  140.1840 C   0  0  1  0  0  3  0  0  0  0  0  0
  191.6670  175.2100  138.0970 C   0  0  0  0  0  2  0  0  0  0  0  0
  189.5610  177.1300  139.0650 C   0  0  0  0  0  2  0  0  0  0  0  0
  187.5290  179.3920  138.0200 C   0  0  0  0  0  2  0  0  0  0  0  0
  188.7190  178.1030  136.2080 C   0  0  0  0  0  2  0  0  0  0  0  0
  188.3140  176.9330  135.3470 C   0  0  0  0  0  0  0  0  0  0  0  0
  190.4030  177.5630  141.7280 C   0  0  0  0  0  2  0  0  0  0  0  0
  186.6500  178.4410  138.8480 C   0  0  2  0  0  0  0  0  0  0  0  0
  191.0450  177.3400  139.3500 C   0  0  2  0  0  3  0  0  0  0  0  0
  189.6020  175.2150  136.6310 C   0  0  2  0  0  3  0  0  0  0  0  0
  191.1190  174.9940  136.6920 C   0  0  2  0  0  3  0  0  0  0  0  0
  186.6320  178.8440  140.1980 O   0  0  0  0  0  0  0  0  0  0  0  0
  187.2580  177.6100  139.9360 C   0  0  2  0  0  3  0  0  0  0  0  0
  189.0830  177.1820  141.4150 O   0  0  0  0  0  0  0  0  0  0  0  0
  189.2730  172.7770  136.4840 O   0  0  0  0  0  0  0  0  0  0  0  0
  188.8970  172.6880  135.1290 C   0  0  0  0  0  2  0  0  0  0  0  0
  187.2500  174.1840  136.7400 C   0  0  2  0  0  3  0  0  0  0  0  0
  186.6170  172.9080  136.1940 C   0  0  0  0  0  2  0  0  0  0  0  0
  187.4060  172.3750  134.9970 C   0  0  0  0  0  2  0  0  0  0  0  0
  188.7570  173.9830  137.0250 C   0  0  2  0  0  3  0  0  0  0  0  0
  186.5920  174.5610  137.9100 O   0  0  0  0  0  1  0  0  0  0  0  0
  184.9720  176.7480  138.5800 F   0  0  0  0  0  0  0  0  0  0  0  0
  185.2100  178.1010  138.3880 C   0  0  0  0  0  0  0  0  0  0  0  0
  185.0800  178.3630  137.0350 F   0  0  0  0  0  0  0  0  0  0  0  0
  184.1750  178.9320  139.1830 C   0  0  1  0  0  3  0  0  0  0  0  0
  184.3040  180.2940  138.8870 O   0  0  0  0  0  1  0  0  0  0  0  0
  182.6970  178.4760  139.0520 C   0  0  2  0  0  0  0  0  0  0  0  0
  181.8760  179.6020  138.9320 O   0  0  0  0  0  1  0  0  0  0  0  0
  183.3140  177.0220  140.8740 F   0  0  0  0  0  0  0  0  0  0  0  0
  182.2540  177.6960  140.2940 C   0  0  0  0  0  2  0  0  0  0  0  0
  182.5140  177.5950  137.7950 C   0  0  2  0  0  3  0  0  0  0  0  0
  181.8550  178.3530  136.6360 C   0  0  2  0  0  3  0  0  0  0  0  0
  180.4960  178.1020  136.5890 F   0  0  0  0  0  0  0  0  0  0  0  0
  182.4420  177.9770  135.4270 O   0  0  0  0  0  1  0  0  0  0  0  0
  181.7790  176.4380  138.0920 O   0  0  0  0  0  0  0  0  0  0  0  0
  183.1320  174.6020  138.0210 O   0  0  0  0  0  1  0  0  0  0  0  0
  182.3090  175.4390  137.2680 C   0  0  1  0  0  3  0  0  0  0  0  0
  180.7340  174.9470  135.3920 O   0  0  0  0  0  0  0  0  0  0  0  0
  181.2050  174.6420  136.6620 C   0  0  0  0  0  0  0  0  0  0  0  0
  180.6880  173.6960  137.3130 O   0  0  0  0  0  1  0  0  0  0  0  0
  191.5580  173.6530  136.1050 C   0  0  0  0  0  2  0  0  0  0  0  0
  193.5880  174.6570  135.0410 C   0  0  0  0  0  3  0  0  0  0  0  0
  195.7680  173.6060  135.2470 C   0  0  0  0  0  0  0  0  0  0  0  0
  193.8300  172.6230  136.3320 C   0  0  0  0  0  3  0  0  0  0  0  0
  195.1990  172.6050  136.0500 C   0  0  0  0  0  3  0  0  0  0  0  0
  194.9560  174.6410  134.7580 C   0  0  0  0  0  3  0  0  0  0  0  0
  193.0230  173.6480  135.8260 C   0  0  0  0  0  0  0  0  0  0  0  0
  197.2430  173.6120  134.9830 C   0  0  0  0  0  3  0  0  0  0  0  0
  197.9900  174.2010  136.1700 C   0  0  0  0  0  2  0  0  0  0  0  0
  197.9640  172.7040  135.9680 C   0  0  0  0  0  2  0  0  0  0  0  0
  2  9  1  0  0  0  0
  3 11  2  0  0  0  0
  4 11  1  0  0  0  0
  5 12  1  0  0  0  0
  6  8  1  6  0  0  0
  6 19  1  0  0  0  0
  7  1  1  0  0  0  0
  8 14  1  0  0  0  0
  9 13  1  0  0  0  0
 10  2  1  0  0  0  0
 11 10  1  0  0  0  0
 13 28  1  6  0  0  0
 13 18  1  0  0  0  0
 13 17  1  0  0  0  0
 14  1  1  6  0  0  0
 14  5  1  0  0  0  0
 15  4  1  6  0  0  0
 15 16  1  0  0  0  0
 15 25  1  0  0  0  0
 16 46  1  1  0  0  0
 16  7  1  0  0  0  0
 18  6  1  0  0  0  0
 18 17  1  1  0  0  0
 19 12  1  0  0  0  0
 21 20  1  0  0  0  0
 22 25  1  0  0  0  0
 22 26  1  1  0  0  0
 23 22  1  0  0  0  0
 24 21  1  0  0  0  0
 24 23  1  0  0  0  0
 25 20  1  6  0  0  0
 28 27  1  0  0  0  0
 28 30  1  0  0  0  0
 29 28  1  0  0  0  0
 30 31  1  6  0  0  0
 32 33  1  6  0  0  0
 32 30  1  0  0  0  0
 32 35  1  0  0  0  0
 35 34  1  0  0  0  0
 36 40  1  1  0  0  0
 36 32  1  0  0  0  0
 37 39  1  6  0  0  0
 37 36  1  0  0  0  0
 38 37  1  0  0  0  0
 42 41  1  1  0  0  0
 42 40  1  0  0  0  0
 43 44  2  0  0  0  0
 44 42  1  0  0  0  0
 44 45  1  0  0  0  0
 47 52  1  0  0  0  0
 48 50  2  0  0  0  0
 50 49  1  0  0  0  0
 51 47  2  0  0  0  0
 51 48  1  0  0  0  0
 52 46  1  0  0  0  0
 52 49  2  0  0  0  0
 53 48  1  0  0  0  0
 53 55  1  0  0  0  0
 53 54  1  0  0  0  0
 55 54  1  0  0  0  0
M  END
>  <MODEL>
3

>  <REMARK>
 VINA RESULT:      -4.3      1.608      2.623
  Name = 
  13 active torsions:
  status: ('A' for Active; 'I' for Inactive)
    1  A    between atoms: C_1  and  C_53
    2  A    between atoms: C_6  and  C_14
    3  A    between atoms: C_6  and  C_20
    4  A    between atoms: C_6  and  C_53
    5  A    between atoms: C_8  and  C_20
    6  A    between atoms: C_8  and  C_43
    7  A    between atoms: C_10  and  C_32
    8  A    between atoms: C_11  and  C_29
    9  A    between atoms: C_11  and  O_38
   10  A    between atoms: C_26  and  C_45
   11  A    between atoms: C_33  and  C_49
   12  A    between atoms: C_33  and  C_52
   13  A    between atoms: O_38  and  C_53
                            x       y       z     vdW  Elec       q    Type
                         _______ _______ _______ _____ _____    ______ ____

>  <TORSDO>
F 13

$$$$
=
 OpenBabel10272401363D

 55 60  0  0  1  0  0  0  0  0999 V2000
  191.9180  176.9340  139.1090 C   0  0  0  0  0  2  0  0  0  0  0  0
  187.8270  179.1390  136.6010 C   0  0  0  0  0  2  0  0  0  0  0  0
  188.2820  177.3470  134.3470 C   0  0  0  0  0  2  0  0  0  0  0  0
  189.9280  176.0360  135.5320 C   0  0  0  0  0  2  0  0  0  0  0  0
  190.8650  176.9680  141.4150 C   0  0  0  0  0  2  0  0  0  0  0  0
  188.3500  177.7540  140.3520 C   0  0  1  0  0  3  0  0  0  0  0  0
  191.7730  175.4540  138.7820 C   0  0  0  0  0  2  0  0  0  0  0  0
  189.4040  177.2080  139.3900 C   0  0  0  0  0  2  0  0  0  0  0  0
  187.4890  179.4220  138.0600 C   0  0  0  0  0  2  0  0  0  0  0  0
  189.0910  178.2990  136.4700 C   0  0  0  0  0  2  0  0  0  0  0  0
  188.9390  177.1610  135.4920 C   0  0  0  0  0  0  0  0  0  0  0  0
  189.6700  177.5310  142.1860 C   0  0  0  0  0  2  0  0  0  0  0  0
  186.5210  178.3830  138.6490 C   0  0  2  0  0  0  0  0  0  0  0  0
  190.7860  177.4760  139.9800 C   0  0  2  0  0  3  0  0  0  0  0  0
  190.0460  175.4400  136.9300 C   0  0  2  0  0  3  0  0  0  0  0  0
  191.5310  175.2910  137.2870 C   0  0  2  0  0  3  0  0  0  0  0  0
  186.2100  178.7070  139.9850 O   0  0  0  0  0  0  0  0  0  0  0  0
  186.9490  177.5220  139.7990 C   0  0  2  0  0  3  0  0  0  0  0  0
  188.4650  177.1030  141.5960 O   0  0  0  0  0  0  0  0  0  0  0  0
  189.8780  173.0090  136.5580 O   0  0  0  0  0  0  0  0  0  0  0  0
  189.7350  173.0120  135.1560 C   0  0  0  0  0  2  0  0  0  0  0  0
  187.7670  174.3070  136.5700 C   0  0  2  0  0  3  0  0  0  0  0  0
  187.3020  173.0530  135.8360 C   0  0  0  0  0  2  0  0  0  0  0  0
  188.3040  172.6490  134.7540 C   0  0  0  0  0  2  0  0  0  0  0  0
  189.2150  174.1460  137.0890 C   0  0  2  0  0  3  0  0  0  0  0  0
  186.9060  174.5630  137.6360 O   0  0  0  0  0  1  0  0  0  0  0  0
  185.1040  176.6160  137.8600 F   0  0  0  0  0  0  0  0  0  0  0  0
  185.2260  177.9970  137.8930 C   0  0  0  0  0  0  0  0  0  0  0  0
  185.3010  178.4440  136.5850 F   0  0  0  0  0  0  0  0  0  0  0  0
  183.9870  178.6150  138.5860 C   0  0  1  0  0  3  0  0  0  0  0  0
  184.1960  179.9740  138.8500 O   0  0  0  0  0  1  0  0  0  0  0  0
  182.6290  178.3950  137.8680 C   0  0  2  0  0  0  0  0  0  0  0  0
  182.8640  177.9650  136.5580 O   0  0  0  0  0  1  0  0  0  0  0  0
  180.5160  179.5070  138.2020 F   0  0  0  0  0  0  0  0  0  0  0  0
  181.8270  179.6990  137.8030 C   0  0  0  0  0  2  0  0  0  0  0  0
  181.8010  177.3130  138.5990 C   0  0  2  0  0  3  0  0  0  0  0  0
  182.0530  177.3010  140.1120 C   0  0  2  0  0  3  0  0  0  0  0  0
  182.7050  176.1430  140.4950 F   0  0  0  0  0  0  0  0  0  0  0  0
  180.8420  177.4050  140.7970 O   0  0  0  0  0  1  0  0  0  0  0  0
  182.0440  176.0410  138.0610 O   0  0  0  0  0  0  0  0  0  0  0  0
  180.1640  176.0790  136.7660 O   0  0  0  0  0  1  0  0  0  0  0  0
  180.7800  175.4740  137.8620 C   0  0  1  0  0  3  0  0  0  0  0  0
  180.0870  173.1090  138.2740 O   0  0  0  0  0  1  0  0  0  0  0  0
  180.9140  174.0100  137.6150 C   0  0  0  0  0  0  0  0  0  0  0  0
  181.7910  173.5890  136.8160 O   0  0  0  0  0  0  0  0  0  0  0  0
  192.1580  174.0100  136.7400 C   0  0  0  0  0  2  0  0  0  0  0  0
  194.4660  173.2110  137.2850 C   0  0  0  0  0  3  0  0  0  0  0  0
  196.4290  174.4210  136.5240 C   0  0  0  0  0  0  0  0  0  0  0  0
  194.2070  175.2060  135.9360 C   0  0  0  0  0  3  0  0  0  0  0  0
  195.5970  175.3420  135.8690 C   0  0  0  0  0  3  0  0  0  0  0  0
  195.8550  173.3460  137.2180 C   0  0  0  0  0  3  0  0  0  0  0  0
  193.6400  174.1410  136.6460 C   0  0  0  0  0  0  0  0  0  0  0  0
  197.9190  174.5420  136.4130 C   0  0  0  0  0  3  0  0  0  0  0  0
  198.4210  173.7870  135.1910 C   0  0  0  0  0  2  0  0  0  0  0  0
  198.3000  175.2920  135.1460 C   0  0  0  0  0  2  0  0  0  0  0  0
  2  9  1  0  0  0  0
  3 11  2  0  0  0  0
  5 12  1  0  0  0  0
  6  8  1  6  0  0  0
  6 19  1  0  0  0  0
  7  1  1  0  0  0  0
  8 14  1  0  0  0  0
  9 13  1  0  0  0  0
 10  2  1  0  0  0  0
 11  4  1  0  0  0  0
 11 10  1  0  0  0  0
 13 28  1  6  0  0  0
 13 18  1  0  0  0  0
 13 17  1  0  0  0  0
 14  1  1  6  0  0  0
 14  5  1  0  0  0  0
 15  4  1  6  0  0  0
 15 25  1  0  0  0  0
 15 16  1  0  0  0  0
 16 46  1  1  0  0  0
 16  7  1  0  0  0  0
 18 17  1  1  0  0  0
 18  6  1  0  0  0  0
 19 12  1  0  0  0  0
 21 20  1  0  0  0  0
 22 25  1  0  0  0  0
 22 26  1  1  0  0  0
 23 22  1  0  0  0  0
 24 21  1  0  0  0  0
 24 23  1  0  0  0  0
 25 20  1  6  0  0  0
 27 28  1  0  0  0  0
 28 30  1  0  0  0  0
 29 28  1  0  0  0  0
 30 31  1  6  0  0  0
 32 33  1  6  0  0  0
 32 30  1  0  0  0  0
 32 36  1  0  0  0  0
 35 32  1  0  0  0  0
 35 34  1  0  0  0  0
 36 40  1  6  0  0  0
 36 37  1  0  0  0  0
 37 38  1  1  0  0  0
 37 39  1  0  0  0  0
 42 41  1  6  0  0  0
 42 40  1  0  0  0  0
 44 42  1  0  0  0  0
 44 43  1  0  0  0  0
 45 44  2  0  0  0  0
 48 51  2  0  0  0  0
 49 52  1  0  0  0  0
 50 49  2  0  0  0  0
 50 48  1  0  0  0  0
 51 47  1  0  0  0  0
 52 46  1  0  0  0  0
 52 47  2  0  0  0  0
 53 48  1  0  0  0  0
 54 53  1  0  0  0  0
 55 54  1  0  0  0  0
 55 53  1  0  0  0  0
M  END
>  <MODEL>
4

>  <REMARK>
 VINA RESULT:      -4.3      1.613      2.406
  Name = 
  13 active torsions:
  status: ('A' for Active; 'I' for Inactive)
    1  A    between atoms: C_1  and  C_53
    2  A    between atoms: C_6  and  C_14
    3  A    between atoms: C_6  and  C_20
    4  A    between atoms: C_6  and  C_53
    5  A    between atoms: C_8  and  C_20
    6  A    between atoms: C_8  and  C_43
    7  A    between atoms: C_10  and  C_32
    8  A    between atoms: C_11  and  C_29
    9  A    between atoms: C_11  and  O_38
   10  A    between atoms: C_26  and  C_45
   11  A    between atoms: C_33  and  C_49
   12  A    between atoms: C_33  and  C_52
   13  A    between atoms: O_38  and  C_53
                            x       y       z     vdW  Elec       q    Type
                         _______ _______ _______ _____ _____    ______ ____

>  <TORSDO>
F 13

$$$$
=
 OpenBabel10272401363D

 55 60  0  0  1  0  0  0  0  0999 V2000
  188.0230  176.6060  134.4230 C   0  0  0  0  0  2  0  0  0  0  0  0
  188.2690  179.1150  139.0630 C   0  0  0  0  0  2  0  0  0  0  0  0
  185.4220  178.6230  139.4460 C   0  0  0  0  0  2  0  0  0  0  0  0
  185.2670  177.1600  137.5310 C   0  0  0  0  0  2  0  0  0  0  0  0
  190.2670  175.4440  134.6290 C   0  0  0  0  0  2  0  0  0  0  0  0
  190.5430  176.2690  137.3350 C   0  0  1  0  0  3  0  0  0  0  0  0
  187.0980  175.4310  134.7090 C   0  0  0  0  0  2  0  0  0  0  0  0
  189.1650  176.3700  136.6840 C   0  0  0  0  0  2  0  0  0  0  0  0
  189.7120  178.6560  138.8780 C   0  0  0  0  0  2  0  0  0  0  0  0
  187.3720  178.6110  137.9400 C   0  0  0  0  0  2  0  0  0  0  0  0
  186.0740  178.0310  138.4450 C   0  0  0  0  0  0  0  0  0  0  0  0
  191.5400  175.4240  135.4770 C   0  0  0  0  0  2  0  0  0  0  0  0
  190.0050  177.3390  139.6160 C   0  0  2  0  0  0  0  0  0  0  0  0
  189.3480  176.5310  135.1780 C   0  0  2  0  0  3  0  0  0  0  0  0
  186.1010  176.0180  136.9620 C   0  0  2  0  0  3  0  0  0  0  0  0
  185.8630  175.9320  135.4480 C   0  0  2  0  0  3  0  0  0  0  0  0
  191.3560  176.9760  139.4460 O   0  0  0  0  0  0  0  0  0  0  0  0
  190.4130  176.1200  138.8450 C   0  0  2  0  0  3  0  0  0  0  0  0
  191.2240  175.1480  136.8210 O   0  0  0  0  0  0  0  0  0  0  0  0
  187.0170  173.8460  137.6820 O   0  0  0  0  0  0  0  0  0  0  0  0
  187.0600  173.2000  136.4300 C   0  0  0  0  0  2  0  0  0  0  0  0
  184.5720  173.9780  137.2980 C   0  0  2  0  0  3  0  0  0  0  0  0
  184.7720  172.4690  137.2110 C   0  0  0  0  0  2  0  0  0  0  0  0
  185.9760  172.1260  136.3340 C   0  0  0  0  0  2  0  0  0  0  0  0
  185.8770  174.6920  137.7230 C   0  0  2  0  0  3  0  0  0  0  0  0
  183.5590  174.2580  138.2140 O   0  0  0  0  0  1  0  0  0  0  0  0
  189.1550  175.8660  141.3060 F   0  0  0  0  0  0  0  0  0  0  0  0
  189.6020  177.1630  141.1010 C   0  0  0  0  0  0  0  0  0  0  0  0
  188.5580  178.0210  141.4040 F   0  0  0  0  0  0  0  0  0  0  0  0
  190.8050  177.4550  142.0300 C   0  0  1  0  0  3  0  0  0  0  0  0
  191.7590  178.2380  141.3690 O   0  0  0  0  0  1  0  0  0  0  0  0
  190.4590  178.0600  143.4160 C   0  0  2  0  0  0  0  0  0  0  0  0
  189.1260  178.4810  143.4160 O   0  0  0  0  0  1  0  0  0  0  0  0
  190.6790  180.1980  144.5090 F   0  0  0  0  0  0  0  0  0  0  0  0
  191.3410  179.2750  143.7180 C   0  0  0  0  0  2  0  0  0  0  0  0
  190.6400  177.0000  144.5280 C   0  0  2  0  0  3  0  0  0  0  0  0
  191.4500  175.7860  144.0570 C   0  0  2  0  0  3  0  0  0  0  0  0
  190.6460  174.8880  143.3780 F   0  0  0  0  0  0  0  0  0  0  0  0
  192.0370  175.1530  145.1530 O   0  0  0  0  0  1  0  0  0  0  0  0
  189.4000  176.5840  145.0360 O   0  0  0  0  0  0  0  0  0  0  0  0
  190.4650  177.8490  146.6090 O   0  0  0  0  0  1  0  0  0  0  0  0
  189.3950  176.9850  146.3760 C   0  0  1  0  0  3  0  0  0  0  0  0
  187.6760  177.7770  148.0080 O   0  0  0  0  0  1  0  0  0  0  0  0
  188.1150  177.6800  146.6930 C   0  0  0  0  0  0  0  0  0  0  0  0
  187.4210  178.1670  145.7620 O   0  0  0  0  0  0  0  0  0  0  0  0
  184.6110  175.1390  135.0770 C   0  0  0  0  0  2  0  0  0  0  0  0
  183.5060  177.2740  134.3850 C   0  0  0  0  0  3  0  0  0  0  0  0
  181.1880  177.7320  134.9490 C   0  0  0  0  0  0  0  0  0  0  0  0
  182.2110  175.6280  135.6020 C   0  0  0  0  0  3  0  0  0  0  0  0
  181.0990  176.4740  135.5640 C   0  0  0  0  0  3  0  0  0  0  0  0
  182.3940  178.1200  134.3460 C   0  0  0  0  0  3  0  0  0  0  0  0
  183.4160  176.0290  135.0140 C   0  0  0  0  0  0  0  0  0  0  0  0
  179.9820  178.6180  134.8690 C   0  0  0  0  0  3  0  0  0  0  0  0
  180.1050  179.7700  135.8540 C   0  0  0  0  0  2  0  0  0  0  0  0
  180.3720  180.0070  134.3860 C   0  0  0  0  0  2  0  0  0  0  0  0
  1  7  1  0  0  0  0
  4 11  1  0  0  0  0
  5 14  1  0  0  0  0
  5 12  1  0  0  0  0
  6  8  1  6  0  0  0
  6 18  1  0  0  0  0
  7 16  1  0  0  0  0
  9  2  1  0  0  0  0
  9 13  1  0  0  0  0
 10 11  1  0  0  0  0
 10  2  1  0  0  0  0
 11  3  2  0  0  0  0
 12 19  1  0  0  0  0
 13 28  1  1  0  0  0
 14  1  1  6  0  0  0
 14  8  1  0  0  0  0
 15  4  1  1  0  0  0
 15 25  1  0  0  0  0
 16 46  1  1  0  0  0
 16 15  1  0  0  0  0
 17 13  1  0  0  0  0
 18 17  1  1  0  0  0
 18 13  1  0  0  0  0
 19  6  1  0  0  0  0
 21 20  1  0  0  0  0
 22 25  1  0  0  0  0
 22 26  1  1  0  0  0
 23 22  1  0  0  0  0
 24 21  1  0  0  0  0
 24 23  1  0  0  0  0
 25 20  1  6  0  0  0
 28 27  1  0  0  0  0
 28 29  1  0  0  0  0
 28 30  1  0  0  0  0
 30 31  1  6  0  0  0
 30 32  1  0  0  0  0
 32 33  1  6  0  0  0
 32 35  1  0  0  0  0
 32 36  1  0  0  0  0
 35 34  1  0  0  0  0
 36 40  1  6  0  0  0
 37 38  1  1  0  0  0
 37 36  1  0  0  0  0
 37 39  1  0  0  0  0
 40 42  1  0  0  0  0
 42 41  1  6  0  0  0
 42 44  1  0  0  0  0
 44 43  1  0  0  0  0
 45 44  2  0  0  0  0
 47 52  1  0  0  0  0
 48 50  2  0  0  0  0
 50 49  1  0  0  0  0
 51 47  2  0  0  0  0
 51 48  1  0  0  0  0
 52 46  1  0  0  0  0
 52 49  2  0  0  0  0
 53 48  1  0  0  0  0
 53 54  1  0  0  0  0
 55 53  1  0  0  0  0
 55 54  1  0  0  0  0
M  END
>  <MODEL>
5

>  <REMARK>
 VINA RESULT:      -3.8      3.998      9.464
  Name = 
  13 active torsions:
  status: ('A' for Active; 'I' for Inactive)
    1  A    between atoms: C_1  and  C_53
    2  A    between atoms: C_6  and  C_14
    3  A    between atoms: C_6  and  C_20
    4  A    between atoms: C_6  and  C_53
    5  A    between atoms: C_8  and  C_20
    6  A    between atoms: C_8  and  C_43
    7  A    between atoms: C_10  and  C_32
    8  A    between atoms: C_11  and  C_29
    9  A    between atoms: C_11  and  O_38
   10  A    between atoms: C_26  and  C_45
   11  A    between atoms: C_33  and  C_49
   12  A    between atoms: C_33  and  C_52
   13  A    between atoms: O_38  and  C_53
                            x       y       z     vdW  Elec       q    Type
                         _______ _______ _______ _____ _____    ______ ____

>  <TORSDO>
F 13

$$$$
=
 OpenBabel10272401363D

 55 60  0  0  1  0  0  0  0  0999 V2000
  183.4740  175.7110  136.1470 C   0  0  0  0  0  2  0  0  0  0  0  0
  188.3660  177.3380  134.9990 C   0  0  0  0  0  2  0  0  0  0  0  0
  187.9050  179.7420  136.5820 C   0  0  0  0  0  2  0  0  0  0  0  0
  185.8010  178.9400  137.4570 C   0  0  0  0  0  2  0  0  0  0  0  0
  184.0650  173.2600  136.4160 C   0  0  0  0  0  2  0  0  0  0  0  0
  186.8460  173.8250  136.2690 C   0  0  1  0  0  3  0  0  0  0  0  0
  183.3100  176.0980  137.6100 C   0  0  0  0  0  2  0  0  0  0  0  0
  185.8840  174.9850  136.5170 C   0  0  0  0  0  2  0  0  0  0  0  0
  188.4910  175.8270  134.8340 C   0  0  0  0  0  2  0  0  0  0  0  0
  186.9800  177.7350  135.4920 C   0  0  0  0  0  2  0  0  0  0  0  0
  187.0260  178.7400  136.6160 C   0  0  0  0  0  0  0  0  0  0  0  0
  185.2010  172.2620  136.1830 C   0  0  0  0  0  2  0  0  0  0  0  0
  189.0520  175.1450  136.0930 C   0  0  2  0  0  0  0  0  0  0  0  0
  184.5260  174.6270  135.9210 C   0  0  2  0  0  3  0  0  0  0  0  0
  185.2890  177.6220  138.0280 C   0  0  2  0  0  3  0  0  0  0  0  0
  183.7730  177.5360  137.8040 C   0  0  2  0  0  3  0  0  0  0  0  0
  189.1840  173.7590  135.8780 O   0  0  0  0  0  0  0  0  0  0  0  0
  188.2250  174.1410  136.8360 C   0  0  2  0  0  3  0  0  0  0  0  0
  186.3510  172.6610  136.8900 O   0  0  0  0  0  0  0  0  0  0  0  0
  184.7010  177.6840  140.4200 O   0  0  0  0  0  0  0  0  0  0  0  0
  184.6050  179.0800  140.5860 C   0  0  0  0  0  2  0  0  0  0  0  0
  187.0640  178.1250  139.8180 C   0  0  2  0  0  3  0  0  0  0  0  0
  187.0280  178.7380  141.2140 C   0  0  0  0  0  2  0  0  0  0  0  0
  185.7880  179.6140  141.3950 C   0  0  0  0  0  2  0  0  0  0  0  0
  185.7360  177.4020  139.4900 C   0  0  2  0  0  3  0  0  0  0  0  0
  188.1260  177.2250  139.7360 O   0  0  0  0  0  1  0  0  0  0  0  0
  190.3700  175.2500  138.0940 F   0  0  0  0  0  0  0  0  0  0  0  0
  190.3290  175.6890  136.7790 C   0  0  0  0  0  0  0  0  0  0  0  0
  190.2930  177.0730  136.7990 F   0  0  0  0  0  0  0  0  0  0  0  0
  191.5960  175.2110  136.0280 C   0  0  1  0  0  3  0  0  0  0  0  0
  191.8770  176.0560  134.9470 O   0  0  0  0  0  1  0  0  0  0  0  0
  192.8600  174.9940  136.9020 C   0  0  2  0  0  0  0  0  0  0  0  0
  192.5200  174.2320  138.0240 O   0  0  0  0  0  1  0  0  0  0  0  0
  192.9410  176.6570  138.6460 F   0  0  0  0  0  0  0  0  0  0  0  0
  193.4220  176.3330  137.3900 C   0  0  0  0  0  2  0  0  0  0  0  0
  193.9450  174.2370  136.1030 C   0  0  2  0  0  3  0  0  0  0  0  0
  193.7300  172.7190  136.1080 C   0  0  2  0  0  3  0  0  0  0  0  0
  194.9350  172.0490  136.2120 F   0  0  0  0  0  0  0  0  0  0  0  0
  193.0750  172.3270  134.9400 O   0  0  0  0  0  1  0  0  0  0  0  0
  195.2290  174.5430  136.5800 O   0  0  0  0  0  0  0  0  0  0  0  0
  195.4440  175.6570  134.6000 O   0  0  0  0  0  1  0  0  0  0  0  0
  196.0210  174.7030  135.4380 C   0  0  1  0  0  3  0  0  0  0  0  0
  197.6410  175.6020  137.1150 O   0  0  0  0  0  1  0  0  0  0  0  0
  197.3910  175.1430  135.8280 C   0  0  0  0  0  0  0  0  0  0  0  0
  198.3210  175.1130  134.9800 O   0  0  0  0  0  0  0  0  0  0  0  0
  182.9620  178.2600  138.8770 C   0  0  0  0  0  2  0  0  0  0  0  0
  181.4580  179.2170  137.1220 C   0  0  0  0  0  3  0  0  0  0  0  0
  180.8200  181.5600  137.1510 C   0  0  0  0  0  0  0  0  0  0  0  0
  182.2470  180.6610  138.8990 C   0  0  0  0  0  3  0  0  0  0  0  0
  181.5530  181.7350  138.3350 C   0  0  0  0  0  3  0  0  0  0  0  0
  180.7640  180.2900  136.5570 C   0  0  0  0  0  3  0  0  0  0  0  0
  182.2020  179.4010  138.2910 C   0  0  0  0  0  0  0  0  0  0  0  0
  180.0400  182.7020  136.5730 C   0  0  0  0  0  3  0  0  0  0  0  0
  180.7420  184.0210  136.8580 C   0  0  0  0  0  2  0  0  0  0  0  0
  180.8410  183.3990  135.4850 C   0  0  0  0  0  2  0  0  0  0  0  0
  1  7  1  0  0  0  0
  2 10  1  0  0  0  0
  3 11  2  0  0  0  0
  6  8  1  1  0  0  0
  6 18  1  0  0  0  0
  6 19  1  0  0  0  0
  7 16  1  0  0  0  0
  9  2  1  0  0  0  0
  9 13  1  0  0  0  0
 10 11  1  0  0  0  0
 11  4  1  0  0  0  0
 12  5  1  0  0  0  0
 12 19  1  0  0  0  0
 13 28  1  1  0  0  0
 13 18  1  0  0  0  0
 14  1  1  1  0  0  0
 14  5  1  0  0  0  0
 14  8  1  0  0  0  0
 15  4  1  1  0  0  0
 15 25  1  0  0  0  0
 16 15  1  0  0  0  0
 16 46  1  1  0  0  0
 17 13  1  0  0  0  0
 18 17  1  6  0  0  0
 20 21  1  0  0  0  0
 21 24  1  0  0  0  0
 22 26  1  1  0  0  0
 22 23  1  0  0  0  0
 23 24  1  0  0  0  0
 25 22  1  0  0  0  0
 25 20  1  1  0  0  0
 28 29  1  0  0  0  0
 28 27  1  0  0  0  0
 30 31  1  6  0  0  0
 30 28  1  0  0  0  0
 30 32  1  0  0  0  0
 32 35  1  0  0  0  0
 32 33  1  1  0  0  0
 35 34  1  0  0  0  0
 36 37  1  0  0  0  0
 36 40  1  1  0  0  0
 36 32  1  0  0  0  0
 37 39  1  6  0  0  0
 37 38  1  0  0  0  0
 42 41  1  6  0  0  0
 42 44  1  0  0  0  0
 42 40  1  0  0  0  0
 44 43  1  0  0  0  0
 45 44  2  0  0  0  0
 47 52  1  0  0  0  0
 48 50  2  0  0  0  0
 50 49  1  0  0  0  0
 51 47  2  0  0  0  0
 51 48  1  0  0  0  0
 52 46  1  0  0  0  0
 52 49  2  0  0  0  0
 53 54  1  0  0  0  0
 53 48  1  0  0  0  0
 55 53  1  0  0  0  0
 55 54  1  0  0  0  0
M  END
>  <MODEL>
6

>  <REMARK>
 VINA RESULT:      -3.6      3.175     11.532
  Name = 
  13 active torsions:
  status: ('A' for Active; 'I' for Inactive)
    1  A    between atoms: C_1  and  C_53
    2  A    between atoms: C_6  and  C_14
    3  A    between atoms: C_6  and  C_20
    4  A    between atoms: C_6  and  C_53
    5  A    between atoms: C_8  and  C_20
    6  A    between atoms: C_8  and  C_43
    7  A    between atoms: C_10  and  C_32
    8  A    between atoms: C_11  and  C_29
    9  A    between atoms: C_11  and  O_38
   10  A    between atoms: C_26  and  C_45
   11  A    between atoms: C_33  and  C_49
   12  A    between atoms: C_33  and  C_52
   13  A    between atoms: O_38  and  C_53
                            x       y       z     vdW  Elec       q    Type
                         _______ _______ _______ _____ _____    ______ ____

>  <TORSDO>
F 13

$$$$
=
 OpenBabel10272401363D

 55 60  0  0  1  0  0  0  0  0999 V2000
  182.0220  175.7810  136.2500 C   0  0  0  0  0  2  0  0  0  0  0  0
  186.9930  176.0720  134.4910 C   0  0  0  0  0  2  0  0  0  0  0  0
  187.2750  178.6590  135.8040 C   0  0  0  0  0  2  0  0  0  0  0  0
  185.1570  178.4730  136.9500 C   0  0  0  0  0  2  0  0  0  0  0  0
  182.0660  173.2990  136.7620 C   0  0  0  0  0  2  0  0  0  0  0  0
  184.8680  173.1650  136.3060 C   0  0  1  0  0  3  0  0  0  0  0  0
  182.1180  176.3370  137.6640 C   0  0  0  0  0  2  0  0  0  0  0  0
  184.2300  174.5400  136.4940 C   0  0  0  0  0  2  0  0  0  0  0  0
  186.7520  174.5660  134.5000 C   0  0  0  0  0  2  0  0  0  0  0  0
  185.8000  176.8350  135.0510 C   0  0  0  0  0  2  0  0  0  0  0  0
  186.2000  177.9050  136.0370 C   0  0  0  0  0  0  0  0  0  0  0  0
  182.9100  172.0400  136.5540 C   0  0  0  0  0  2  0  0  0  0  0  0
  187.2820  173.8960  135.7790 C   0  0  2  0  0  0  0  0  0  0  0  0
  182.7670  174.4610  136.0670 C   0  0  2  0  0  3  0  0  0  0  0  0
  184.4260  177.3780  137.7190 C   0  0  2  0  0  3  0  0  0  0  0  0
  182.9150  177.6350  137.6400 C   0  0  2  0  0  3  0  0  0  0  0  0
  187.0690  172.5040  135.7240 O   0  0  0  0  0  0  0  0  0  0  0  0
  186.3370  173.1970  136.7080 C   0  0  2  0  0  3  0  0  0  0  0  0
  184.1940  172.2200  137.1050 O   0  0  0  0  0  0  0  0  0  0  0  0
  183.9590  176.8470  140.0800 O   0  0  0  0  0  0  0  0  0  0  0  0
  183.2330  178.0050  140.4250 C   0  0  0  0  0  2  0  0  0  0  0  0
  185.8260  178.4070  139.6130 C   0  0  2  0  0  3  0  0  0  0  0  0
  185.5590  178.7460  141.0760 C   0  0  0  0  0  2  0  0  0  0  0  0
  184.0610  178.9160  141.3320 C   0  0  0  0  0  2  0  0  0  0  0  0
  184.9740  177.2010  139.1530 C   0  0  2  0  0  3  0  0  0  0  0  0
  187.1810  178.1210  139.4460 O   0  0  0  0  0  1  0  0  0  0  0  0
  189.6280  173.8560  135.2850 F   0  0  0  0  0  0  0  0  0  0  0  0
  188.7190  174.1840  136.2800 C   0  0  0  0  0  0  0  0  0  0  0  0
  188.9950  173.3900  137.3800 F   0  0  0  0  0  0  0  0  0  0  0  0
  188.8740  175.6760  136.6590 C   0  0  1  0  0  3  0  0  0  0  0  0
  188.3990  175.9060  137.9560 O   0  0  0  0  0  1  0  0  0  0  0  0
  190.2930  176.2770  136.4770 C   0  0  2  0  0  0  0  0  0  0  0  0
  190.4370  177.3830  137.3190 O   0  0  0  0  0  1  0  0  0  0  0  0
  189.6660  177.8010  134.7160 F   0  0  0  0  0  0  0  0  0  0  0  0
  190.5060  176.7470  135.0340 C   0  0  0  0  0  2  0  0  0  0  0  0
  191.3720  175.2330  136.8450 C   0  0  2  0  0  3  0  0  0  0  0  0
  191.9550  175.4570  138.2460 C   0  0  2  0  0  3  0  0  0  0  0  0
  190.9740  175.8680  139.1300 F   0  0  0  0  0  0  0  0  0  0  0  0
  192.9670  176.4160  138.1920 O   0  0  0  0  0  1  0  0  0  0  0  0
  192.4020  175.2130  135.8920 O   0  0  0  0  0  0  0  0  0  0  0  0
  191.8980  173.3870  134.6190 O   0  0  0  0  0  1  0  0  0  0  0  0
  192.6800  173.8600  135.6740 C   0  0  1  0  0  3  0  0  0  0  0  0
  194.8050  174.6650  134.6350 O   0  0  0  0  0  0  0  0  0  0  0  0
  194.1230  173.6840  135.3440 C   0  0  0  0  0  0  0  0  0  0  0  0
  194.7210  172.6350  135.6980 O   0  0  0  0  0  1  0  0  0  0  0  0
  182.4170  178.6330  138.6850 C   0  0  0  0  0  2  0  0  0  0  0  0
  181.2440  179.6960  136.7470 C   0  0  0  0  0  3  0  0  0  0  0  0
  180.6400  182.0480  136.7770 C   0  0  0  0  0  0  0  0  0  0  0  0
  181.7390  181.0450  138.6970 C   0  0  0  0  0  3  0  0  0  0  0  0
  181.1650  182.1570  138.0740 C   0  0  0  0  0  3  0  0  0  0  0  0
  180.6690  180.8070  136.1240 C   0  0  0  0  0  3  0  0  0  0  0  0
  181.7810  179.8140  138.0330 C   0  0  0  0  0  0  0  0  0  0  0  0
  179.9830  183.2290  136.1300 C   0  0  0  0  0  3  0  0  0  0  0  0
  181.0300  184.2390  135.6830 C   0  0  0  0  0  2  0  0  0  0  0  0
  180.3850  183.3270  134.6660 C   0  0  0  0  0  2  0  0  0  0  0  0
  1  7  1  0  0  0  0
  2  9  1  0  0  0  0
  2 10  1  0  0  0  0
  3 11  2  0  0  0  0
  6  8  1  1  0  0  0
  6 18  1  0  0  0  0
  6 19  1  0  0  0  0
  9 13  1  0  0  0  0
 10 11  1  0  0  0  0
 11  4  1  0  0  0  0
 12  5  1  0  0  0  0
 12 19  1  0  0  0  0
 13 28  1  1  0  0  0
 13 18  1  0  0  0  0
 14  1  1  1  0  0  0
 14  8  1  0  0  0  0
 14  5  1  0  0  0  0
 15  4  1  1  0  0  0
 15 25  1  0  0  0  0
 16  7  1  0  0  0  0
 16 15  1  0  0  0  0
 16 46  1  1  0  0  0
 17 13  1  0  0  0  0
 18 17  1  6  0  0  0
 20 21  1  0  0  0  0
 21 24  1  0  0  0  0
 22 26  1  1  0  0  0
 22 23  1  0  0  0  0
 23 24  1  0  0  0  0
 25 22  1  0  0  0  0
 25 20  1  1  0  0  0
 27 28  1  0  0  0  0
 28 30  1  0  0  0  0
 28 29  1  0  0  0  0
 30 31  1  1  0  0  0
 32 30  1  0  0  0  0
 32 36  1  0  0  0  0
 32 33  1  1  0  0  0
 34 35  1  0  0  0  0
 35 32  1  0  0  0  0
 36 40  1  6  0  0  0
 36 37  1  0  0  0  0
 37 39  1  6  0  0  0
 37 38  1  0  0  0  0
 42 41  1  6  0  0  0
 42 40  1  0  0  0  0
 43 44  2  0  0  0  0
 44 42  1  0  0  0  0
 44 45  1  0  0  0  0
 47 52  1  0  0  0  0
 48 50  2  0  0  0  0
 50 49  1  0  0  0  0
 51 47  2  0  0  0  0
 51 48  1  0  0  0  0
 52 46  1  0  0  0  0
 52 49  2  0  0  0  0
 53 48  1  0  0  0  0
 54 53  1  0  0  0  0
 55 54  1  0  0  0  0
 55 53  1  0  0  0  0
M  END
>  <MODEL>
7

>  <REMARK>
 VINA RESULT:      -2.2      3.228     11.032
  Name = 
  13 active torsions:
  status: ('A' for Active; 'I' for Inactive)
    1  A    between atoms: C_1  and  C_53
    2  A    between atoms: C_6  and  C_14
    3  A    between atoms: C_6  and  C_20
    4  A    between atoms: C_6  and  C_53
    5  A    between atoms: C_8  and  C_20
    6  A    between atoms: C_8  and  C_43
    7  A    between atoms: C_10  and  C_32
    8  A    between atoms: C_11  and  C_29
    9  A    between atoms: C_11  and  O_38
   10  A    between atoms: C_26  and  C_45
   11  A    between atoms: C_33  and  C_49
   12  A    between atoms: C_33  and  C_52
   13  A    between atoms: O_38  and  C_53
                            x       y       z     vdW  Elec       q    Type
                         _______ _______ _______ _____ _____    ______ ____

>  <TORSDO>
F 13

$$$$
=
 OpenBabel10272401363D

 55 60  0  0  1  0  0  0  0  0999 V2000
  186.4600  178.8790  136.7270 C   0  0  0  0  0  2  0  0  0  0  0  0
  187.0120  179.1710  141.9710 C   0  0  0  0  0  2  0  0  0  0  0  0
  184.1360  178.7980  142.2650 C   0  0  0  0  0  2  0  0  0  0  0  0
  183.8140  178.2960  139.9240 C   0  0  0  0  0  2  0  0  0  0  0  0
  188.5830  177.5590  136.3090 C   0  0  0  0  0  2  0  0  0  0  0  0
  188.9760  177.1420  139.0930 C   0  0  1  0  0  3  0  0  0  0  0  0
  185.4300  177.7730  136.5450 C   0  0  0  0  0  2  0  0  0  0  0  0
  187.6050  177.6210  138.6190 C   0  0  0  0  0  2  0  0  0  0  0  0
  188.4010  178.7160  141.5350 C   0  0  0  0  0  2  0  0  0  0  0  0
  186.0550  179.2620  140.7900 C   0  0  0  0  0  2  0  0  0  0  0  0
  184.7140  178.6320  141.0750 C   0  0  0  0  0  0  0  0  0  0  0  0
  189.8600  177.0800  137.0020 C   0  0  0  0  0  2  0  0  0  0  0  0
  188.5760  177.1920  141.6380 C   0  0  2  0  0  0  0  0  0  0  0  0
  187.7820  178.3850  137.3100 C   0  0  2  0  0  3  0  0  0  0  0  0
  184.5250  177.4360  138.8860 C   0  0  2  0  0  3  0  0  0  0  0  0
  184.2590  178.0160  137.4900 C   0  0  2  0  0  3  0  0  0  0  0  0
  189.8830  176.8250  141.2600 O   0  0  0  0  0  0  0  0  0  0  0  0
  188.8530  176.3820  140.4070 C   0  0  2  0  0  3  0  0  0  0  0  0
  189.5380  176.2900  138.1220 O   0  0  0  0  0  0  0  0  0  0  0  0
  185.1810  175.0970  138.4690 O   0  0  0  0  0  0  0  0  0  0  0  0
  185.0130  175.0690  137.0700 C   0  0  0  0  0  2  0  0  0  0  0  0
  182.7570  175.6020  138.5440 C   0  0  2  0  0  3  0  0  0  0  0  0
  182.7260  174.2740  137.7950 C   0  0  0  0  0  2  0  0  0  0  0  0
  183.7810  174.2480  136.6870 C   0  0  0  0  0  2  0  0  0  0  0  0
  184.1850  175.9360  139.0340 C   0  0  2  0  0  3  0  0  0  0  0  0
  181.8850  175.5380  139.6310 O   0  0  0  0  0  1  0  0  0  0  0  0
  187.7290  175.1680  142.6070 F   0  0  0  0  0  0  0  0  0  0  0  0
  188.1780  176.4400  142.9320 C   0  0  0  0  0  0  0  0  0  0  0  0
  187.1370  177.1070  143.5560 F   0  0  0  0  0  0  0  0  0  0  0  0
  189.3850  176.3380  143.8950 C   0  0  1  0  0  3  0  0  0  0  0  0
  190.5510  176.0100  143.1910 O   0  0  0  0  0  1  0  0  0  0  0  0
  189.6240  177.5660  144.8140 C   0  0  2  0  0  0  0  0  0  0  0  0
  188.4880  178.3810  144.7980 O   0  0  0  0  0  1  0  0  0  0  0  0
  190.4570  179.7180  144.1160 F   0  0  0  0  0  0  0  0  0  0  0  0
  190.8120  178.3960  144.3190 C   0  0  0  0  0  2  0  0  0  0  0  0
  189.8820  177.1080  146.2690 C   0  0  2  0  0  3  0  0  0  0  0  0
  189.0160  177.8610  147.2850 C   0  0  2  0  0  3  0  0  0  0  0  0
  189.7950  178.6590  148.1040 F   0  0  0  0  0  0  0  0  0  0  0  0
  188.2970  176.9540  148.0630 O   0  0  0  0  0  1  0  0  0  0  0  0
  191.2380  177.2340  146.6040 O   0  0  0  0  0  0  0  0  0  0  0  0
  192.0440  175.1640  146.0810 O   0  0  0  0  0  1  0  0  0  0  0  0
  191.6100  175.9880  147.1200 C   0  0  1  0  0  3  0  0  0  0  0  0
  192.6660  177.1970  149.0350 O   0  0  0  0  0  1  0  0  0  0  0  0
  192.7070  176.1570  148.1150 C   0  0  0  0  0  0  0  0  0  0  0  0
  193.6820  175.3610  148.1110 O   0  0  0  0  0  0  0  0  0  0  0  0
  182.9310  177.5580  136.8890 C   0  0  0  0  0  2  0  0  0  0  0  0
  181.8240  178.7620  134.9960 C   0  0  0  0  0  3  0  0  0  0  0  0
  180.7720  180.9270  135.3250 C   0  0  0  0  0  0  0  0  0  0  0  0
  181.7980  179.7700  137.1990 C   0  0  0  0  0  3  0  0  0  0  0  0
  181.0980  180.8680  136.6890 C   0  0  0  0  0  3  0  0  0  0  0  0
  181.1240  179.8600  134.4860 C   0  0  0  0  0  3  0  0  0  0  0  0
  182.1630  178.7170  136.3520 C   0  0  0  0  0  0  0  0  0  0  0  0
  179.9820  182.0820  134.7900 C   0  0  0  0  0  3  0  0  0  0  0  0
  179.9820  183.2310  135.7870 C   0  0  0  0  0  2  0  0  0  0  0  0
  180.8820  183.2890  134.5750 C   0  0  0  0  0  2  0  0  0  0  0  0
  1 14  1  0  0  0  0
  4 11  1  0  0  0  0
  5 12  1  0  0  0  0
  6  8  1  6  0  0  0
  6 18  1  0  0  0  0
  7  1  1  0  0  0  0
  7 16  1  0  0  0  0
  9 13  1  0  0  0  0
  9  2  1  0  0  0  0
 10 11  1  0  0  0  0
 10  2  1  0  0  0  0
 11  3  2  0  0  0  0
 12 19  1  0  0  0  0
 13 28  1  1  0  0  0
 14  5  1  6  0  0  0
 14  8  1  0  0  0  0
 15 25  1  0  0  0  0
 15  4  1  1  0  0  0
 16 46  1  6  0  0  0
 16 15  1  0  0  0  0
 17 13  1  0  0  0  0
 18 17  1  1  0  0  0
 18 13  1  0  0  0  0
 19  6  1  0  0  0  0
 21 20  1  0  0  0  0
 22 25  1  0  0  0  0
 22 26  1  1  0  0  0
 23 22  1  0  0  0  0
 24 21  1  0  0  0  0
 24 23  1  0  0  0  0
 25 20  1  6  0  0  0
 27 28  1  0  0  0  0
 28 29  1  0  0  0  0
 28 30  1  0  0  0  0
 30 31  1  6  0  0  0
 30 32  1  0  0  0  0
 32 33  1  6  0  0  0
 32 36  1  0  0  0  0
 34 35  1  0  0  0  0
 35 32  1  0  0  0  0
 36 40  1  1  0  0  0
 36 37  1  0  0  0  0
 37 39  1  1  0  0  0
 37 38  1  0  0  0  0
 40 42  1  0  0  0  0
 42 41  1  6  0  0  0
 42 44  1  0  0  0  0
 44 43  1  0  0  0  0
 45 44  2  0  0  0  0
 47 52  1  0  0  0  0
 48 50  2  0  0  0  0
 50 49  1  0  0  0  0
 51 47  2  0  0  0  0
 51 48  1  0  0  0  0
 52 46  1  0  0  0  0
 52 49  2  0  0  0  0
 53 48  1  0  0  0  0
 53 54  1  0  0  0  0
 55 53  1  0  0  0  0
 55 54  1  0  0  0  0
M  END
>  <MODEL>
8

>  <REMARK>
 VINA RESULT:      -2.1      4.562     10.732
  Name = 
  13 active torsions:
  status: ('A' for Active; 'I' for Inactive)
    1  A    between atoms: C_1  and  C_53
    2  A    between atoms: C_6  and  C_14
    3  A    between atoms: C_6  and  C_20
    4  A    between atoms: C_6  and  C_53
    5  A    between atoms: C_8  and  C_20
    6  A    between atoms: C_8  and  C_43
    7  A    between atoms: C_10  and  C_32
    8  A    between atoms: C_11  and  C_29
    9  A    between atoms: C_11  and  O_38
   10  A    between atoms: C_26  and  C_45
   11  A    between atoms: C_33  and  C_49
   12  A    between atoms: C_33  and  C_52
   13  A    between atoms: O_38  and  C_53
                            x       y       z     vdW  Elec       q    Type
                         _______ _______ _______ _____ _____    ______ ____

>  <TORSDO>
F 13

$$$$
=
 OpenBabel10272401363D

 55 60  0  0  1  0  0  0  0  0999 V2000
  182.7620  175.6840  136.4210 C   0  0  0  0  0  2  0  0  0  0  0  0
  187.6330  176.8050  134.7150 C   0  0  0  0  0  2  0  0  0  0  0  0
  187.5440  179.3120  136.2010 C   0  0  0  0  0  2  0  0  0  0  0  0
  185.4790  178.7460  137.3200 C   0  0  0  0  0  2  0  0  0  0  0  0
  183.1650  173.2050  136.7650 C   0  0  0  0  0  2  0  0  0  0  0  0
  185.9550  173.5070  136.3170 C   0  0  1  0  0  3  0  0  0  0  0  0
  182.7820  176.1510  137.8700 C   0  0  0  0  0  2  0  0  0  0  0  0
  185.1260  174.7600  136.5940 C   0  0  0  0  0  2  0  0  0  0  0  0
  187.6110  175.2840  134.6210 C   0  0  0  0  0  2  0  0  0  0  0  0
  186.3440  177.3490  135.3180 C   0  0  0  0  0  2  0  0  0  0  0  0
  186.5900  178.3970  136.3760 C   0  0  0  0  0  0  0  0  0  0  0  0
  184.1810  172.0980  136.4780 C   0  0  0  0  0  2  0  0  0  0  0  0
  188.2360  174.6120  135.8550 C   0  0  2  0  0  0  0  0  0  0  0  0
  183.6890  174.5000  136.1540 C   0  0  2  0  0  3  0  0  0  0  0  0
  184.9170  177.5070  138.0080 C   0  0  2  0  0  3  0  0  0  0  0  0
  183.3840  177.5500  137.9380 C   0  0  2  0  0  3  0  0  0  0  0  0
  188.2260  173.2110  135.7050 O   0  0  0  0  0  0  0  0  0  0  0  0
  187.4060  173.7230  136.7300 C   0  0  2  0  0  3  0  0  0  0  0  0
  185.4280  172.4240  137.0470 O   0  0  0  0  0  0  0  0  0  0  0  0
  184.5230  177.5610  140.4410 O   0  0  0  0  0  0  0  0  0  0  0  0
  184.3850  178.9540  140.6090 C   0  0  0  0  0  2  0  0  0  0  0  0
  186.8100  178.0920  139.6460 C   0  0  2  0  0  3  0  0  0  0  0  0
  186.8630  178.7130  141.0380 C   0  0  0  0  0  2  0  0  0  0  0  0
  185.6070  179.5400  141.3170 C   0  0  0  0  0  2  0  0  0  0  0  0
  185.4900  177.3150  139.4310 C   0  0  2  0  0  3  0  0  0  0  0  0
  187.8970  177.2350  139.4810 O   0  0  0  0  0  1  0  0  0  0  0  0
  190.0040  174.2530  137.4360 F   0  0  0  0  0  0  0  0  0  0  0  0
  189.6190  175.0690  136.3820 C   0  0  0  0  0  0  0  0  0  0  0  0
  189.5280  176.3640  136.8650 F   0  0  0  0  0  0  0  0  0  0  0  0
  190.6790  175.0040  135.2570 C   0  0  1  0  0  3  0  0  0  0  0  0
  190.7240  176.2130  134.5520 O   0  0  0  0  0  1  0  0  0  0  0  0
  192.1030  174.5650  135.6920 C   0  0  2  0  0  0  0  0  0  0  0  0
  192.8650  174.2780  134.5550 O   0  0  0  0  0  1  0  0  0  0  0  0
  191.4200  172.2620  135.8930 F   0  0  0  0  0  0  0  0  0  0  0  0
  192.0450  173.3020  136.5570 C   0  0  0  0  0  2  0  0  0  0  0  0
  192.8000  175.7000  136.4780 C   0  0  2  0  0  3  0  0  0  0  0  0
  194.2410  175.9390  136.0140 C   0  0  2  0  0  3  0  0  0  0  0  0
  194.4640  177.2810  135.7640 F   0  0  0  0  0  0  0  0  0  0  0  0
  194.4990  175.2000  134.8600 O   0  0  0  0  0  1  0  0  0  0  0  0
  192.7740  175.4480  137.8580 O   0  0  0  0  0  0  0  0  0  0  0  0
  191.2510  176.8590  138.8050 O   0  0  0  0  0  1  0  0  0  0  0  0
  192.5930  176.6970  138.4600 C   0  0  1  0  0  3  0  0  0  0  0  0
  194.6990  176.2150  139.7160 O   0  0  0  0  0  0  0  0  0  0  0  0
  193.4390  176.7980  139.6840 C   0  0  0  0  0  0  0  0  0  0  0  0
  193.0000  177.4010  140.6980 O   0  0  0  0  0  1  0  0  0  0  0  0
  182.7520  178.3930  139.0450 C   0  0  0  0  0  2  0  0  0  0  0  0
  181.6140  179.5470  137.1380 C   0  0  0  0  0  3  0  0  0  0  0  0
  180.7260  181.7950  137.3770 C   0  0  0  0  0  0  0  0  0  0  0  0
  181.7840  180.6930  139.2650 C   0  0  0  0  0  3  0  0  0  0  0  0
  181.1280  181.8010  138.7220 C   0  0  0  0  0  3  0  0  0  0  0  0
  180.9580  180.6540  136.5940 C   0  0  0  0  0  3  0  0  0  0  0  0
  182.0290  179.5650  138.4730 C   0  0  0  0  0  0  0  0  0  0  0  0
  179.9820  182.9650  136.8090 C   0  0  0  0  0  3  0  0  0  0  0  0
  180.9110  184.1600  136.6580 C   0  0  0  0  0  2  0  0  0  0  0  0
  180.5410  183.3400  135.4450 C   0  0  0  0  0  2  0  0  0  0  0  0
  1  7  1  0  0  0  0
  2 10  1  0  0  0  0
  3 11  2  0  0  0  0
  6  8  1  1  0  0  0
  6 18  1  0  0  0  0
  6 19  1  0  0  0  0
  7 16  1  0  0  0  0
  9  2  1  0  0  0  0
  9 13  1  0  0  0  0
 10 11  1  0  0  0  0
 11  4  1  0  0  0  0
 12  5  1  0  0  0  0
 12 19  1  0  0  0  0
 13 28  1  1  0  0  0
 13 18  1  0  0  0  0
 14  1  1  1  0  0  0
 14  8  1  0  0  0  0
 14  5  1  0  0  0  0
 15  4  1  1  0  0  0
 15 25  1  0  0  0  0
 16 15  1  0  0  0  0
 16 46  1  1  0  0  0
 17 13  1  0  0  0  0
 18 17  1  6  0  0  0
 20 21  1  0  0  0  0
 21 24  1  0  0  0  0
 22 26  1  1  0  0  0
 22 23  1  0  0  0  0
 23 24  1  0  0  0  0
 25 22  1  0  0  0  0
 25 20  1  1  0  0  0
 28 29  1  0  0  0  0
 28 27  1  0  0  0  0
 30 31  1  1  0  0  0
 30 32  1  0  0  0  0
 30 28  1  0  0  0  0
 32 33  1  6  0  0  0
 32 36  1  0  0  0  0
 32 35  1  0  0  0  0
 34 35  1  0  0  0  0
 36 40  1  1  0  0  0
 37 39  1  6  0  0  0
 37 36  1  0  0  0  0
 38 37  1  0  0  0  0
 40 42  1  0  0  0  0
 42 41  1  1  0  0  0
 42 44  1  0  0  0  0
 44 43  2  0  0  0  0
 44 45  1  0  0  0  0
 47 52  1  0  0  0  0
 48 50  2  0  0  0  0
 50 49  1  0  0  0  0
 51 47  2  0  0  0  0
 51 48  1  0  0  0  0
 52 46  1  0  0  0  0
 52 49  2  0  0  0  0
 53 48  1  0  0  0  0
 54 53  1  0  0  0  0
 55 54  1  0  0  0  0
 55 53  1  0  0  0  0
M  END
>  <MODEL>
9

>  <REMARK>
 VINA RESULT:      -2.1      3.176     11.031
  Name = 
  13 active torsions:
  status: ('A' for Active; 'I' for Inactive)
    1  A    between atoms: C_1  and  C_53
    2  A    between atoms: C_6  and  C_14
    3  A    between atoms: C_6  and  C_20
    4  A    between atoms: C_6  and  C_53
    5  A    between atoms: C_8  and  C_20
    6  A    between atoms: C_8  and  C_43
    7  A    between atoms: C_10  and  C_32
    8  A    between atoms: C_11  and  C_29
    9  A    between atoms: C_11  and  O_38
   10  A    between atoms: C_26  and  C_45
   11  A    between atoms: C_33  and  C_49
   12  A    between atoms: C_33  and  C_52
   13  A    between atoms: O_38  and  C_53
                            x       y       z     vdW  Elec       q    Type
                         _______ _______ _______ _____ _____    ______ ____

>  <TORSDO>
F 13

$$$$
