=
 OpenBabel10262423403D

 34 38  0  0  1  0  0  0  0  0999 V2000
  192.0740  174.7360  137.6050 C   0  0  2  0  0  3  0  0  0  0  0  0
  189.8670  173.9620  136.5870 C   0  0  1  0  0  3  0  0  0  0  0  0
  189.9460  176.0210  138.0330 C   0  0  1  0  0  3  0  0  0  0  0  0
  187.7880  177.2580  138.4350 C   0  0  2  0  0  3  0  0  0  0  0  0
  189.9460  173.7890  135.0810 C   0  0  0  0  0  1  0  0  0  0  0  0
  187.8720  175.4280  136.7310 N   0  0  0  0  0  2  0  0  0  0  0  0
  190.7190  175.1720  137.0190 C   0  0  1  0  0  3  0  0  0  0  0  0
  190.7610  177.2060  138.5550 C   0  0  1  0  0  3  0  0  0  0  0  0
  192.8770  175.9420  138.1020 C   0  0  0  0  0  2  0  0  0  0  0  0
  188.3970  174.0870  137.0160 C   0  0  0  0  0  2  0  0  0  0  0  0
  188.5860  178.4450  138.9850 C   0  0  0  0  0  2  0  0  0  0  0  0
  189.9400  178.0240  139.5710 C   0  0  1  0  0  3  0  0  0  0  0  0
  188.6330  176.5050  137.3970 C   0  0  2  0  0  3  0  0  0  0  0  0
  192.0900  176.7300  139.1420 C   0  0  0  0  0  2  0  0  0  0  0  0
  190.7270  176.2760  142.8760 C   0  0  0  0  0  0  0  0  0  0  0  0
  189.4520  176.1980  143.4440 C   0  0  0  0  0  3  0  0  0  0  0  0
  189.7940  177.3890  140.9300 C   0  0  0  0  0  0  0  0  0  0  0  0
  188.3480  176.7120  142.7580 C   0  0  0  0  0  3  0  0  0  0  0  0
  190.8980  176.8680  141.6220 C   0  0  0  0  0  3  0  0  0  0  0  0
  188.5200  177.3040  141.5030 C   0  0  0  0  0  3  0  0  0  0  0  0
  191.7970  175.7830  143.5450 F   0  0  0  0  0  0  0  0  0  0  0  0
  193.8030  174.7860  135.7460 C   0  0  0  0  0  1  0  0  0  0  0  0
  192.9100  173.9150  136.6200 C   0  0  0  0  0  2  0  0  0  0  0  0
  186.5000  177.7970  137.8320 C   0  0  0  0  0  2  0  0  0  0  0  0
  185.9110  178.7880  138.7140 N   0  0  0  0  0  2  0  0  0  0  0  0
  185.0220  178.7120  140.8660 C   0  0  0  0  0  3  0  0  0  0  0  0
  184.9080  178.4180  139.6140 N   0  0  0  0  0  0  0  0  0  0  0  0
  185.6090  178.6120  143.9910 Cl  0  0  0  0  0  0  0  0  0  0  0  0
  183.9590  178.3160  141.8360 C   0  0  1  0  0  3  0  0  0  0  0  0
  184.1110  179.0910  143.1520 C   0  0  1  0  0  3  0  0  0  0  0  0
  181.6730  179.0750  143.3640 N   0  0  0  0  0  2  0  0  0  0  0  0
  181.5430  178.8720  141.9520 C   0  0  0  0  0  3  0  0  0  0  0  0
  182.6030  178.5350  141.2150 C   0  0  0  0  0  3  0  0  0  0  0  0
  182.9230  178.7880  144.0610 C   0  0  0  0  0  2  0  0  0  0  0  0
  1 23  1  6  0  0  0
  1  9  1  0  0  0  0
  2  5  1  6  0  0  0
  2 10  1  0  0  0  0
  2  7  1  0  0  0  0
  3  8  1  0  0  0  0
  4 11  1  0  0  0  0
  6 10  1  0  0  0  0
  6 13  1  0  0  0  0
  7  1  1  0  0  0  0
  7  3  1  0  0  0  0
  8 14  1  0  0  0  0
  8 12  1  0  0  0  0
  9 14  1  0  0  0  0
 11 12  1  0  0  0  0
 12 17  1  0  0  0  0
 13  3  1  0  0  0  0
 13  4  1  0  0  0  0
 15 16  1  0  0  0  0
 15 21  1  0  0  0  0
 17 20  2  0  0  0  0
 17 19  1  0  0  0  0
 18 16  2  0  0  0  0
 19 15  2  0  0  0  0
 20 18  1  0  0  0  0
 22 23  1  0  0  0  0
 24  4  1  0  0  0  0
 24 25  1  0  0  0  0
 25 27  1  0  0  0  0
 26 29  1  0  0  0  0
 27 26  2  0  0  0  0
 29 30  1  0  0  0  0
 30 28  1  0  0  0  0
 30 34  1  0  0  0  0
 31 34  1  0  0  0  0
 32 31  1  0  0  0  0
 33 29  1  0  0  0  0
 33 32  2  0  0  0  0
M  END
>  <MODEL>
1

>  <REMARK>
 VINA RESULT:      -8.0      0.000      0.000
  Name = 
  6 active torsions:
  status: ('A' for Active; 'I' for Inactive)
    1  A    between atoms: C_1  and  C_19
    2  A    between atoms: C_3  and  C_13
    3  A    between atoms: C_5  and  C_18
    4  A    between atoms: C_12  and  C_28
    5  A    between atoms: N_17  and  N_29
    6  A    between atoms: C_18  and  N_29
                            x       y       z     vdW  Elec       q    Type
                         _______ _______ _______ _____ _____    ______ ____

>  <TORSDO>
F 6

$$$$
=
 OpenBabel10262423403D

 34 38  0  0  1  0  0  0  0  0999 V2000
  186.3500  177.8450  142.8160 C   0  0  2  0  0  3  0  0  0  0  0  0
  188.3850  176.5210  143.5980 C   0  0  1  0  0  3  0  0  0  0  0  0
  188.3310  177.5220  141.2890 C   0  0  1  0  0  3  0  0  0  0  0  0
  190.3330  177.1570  139.8030 C   0  0  2  0  0  3  0  0  0  0  0  0
  188.9550  177.0410  144.9040 C   0  0  0  0  0  1  0  0  0  0  0  0
  190.4460  176.5170  142.2180 N   0  0  0  0  0  2  0  0  0  0  0  0
  187.8800  177.7000  142.7410 C   0  0  1  0  0  3  0  0  0  0  0  0
  187.8080  178.6270  140.3680 C   0  0  1  0  0  3  0  0  0  0  0  0
  185.8540  178.9690  141.9010 C   0  0  0  0  0  2  0  0  0  0  0  0
  189.4420  175.6710  142.8750 C   0  0  0  0  0  2  0  0  0  0  0  0
  189.8110  178.2430  138.8550 C   0  0  0  0  0  2  0  0  0  0  0  0
  188.2870  178.3990  138.9210 C   0  0  1  0  0  3  0  0  0  0  0  0
  189.8660  177.4550  141.2350 C   0  0  2  0  0  3  0  0  0  0  0  0
  186.2850  178.7280  140.4590 C   0  0  0  0  0  2  0  0  0  0  0  0
  187.5290  175.0900  137.1670 C   0  0  0  0  0  0  0  0  0  0  0  0
  186.2020  175.2950  136.7790 C   0  0  0  0  0  3  0  0  0  0  0  0
  187.5740  177.2970  138.1800 C   0  0  0  0  0  0  0  0  0  0  0  0
  185.5600  176.4980  137.0880 C   0  0  0  0  0  3  0  0  0  0  0  0
  188.2140  176.0890  137.8640 C   0  0  0  0  0  3  0  0  0  0  0  0
  186.2460  177.4960  137.7860 C   0  0  0  0  0  3  0  0  0  0  0  0
  188.1480  173.9220  136.8720 F   0  0  0  0  0  0  0  0  0  0  0  0
  184.4780  178.7400  144.2800 C   0  0  0  0  0  1  0  0  0  0  0  0
  185.8430  178.0660  144.2430 C   0  0  0  0  0  2  0  0  0  0  0  0
  191.8510  177.1310  139.6970 C   0  0  0  0  0  2  0  0  0  0  0  0
  192.2560  176.4470  138.4830 N   0  0  0  0  0  2  0  0  0  0  0  0
  193.8200  174.8690  137.7800 C   0  0  0  0  0  3  0  0  0  0  0  0
  193.5750  176.0120  138.3300 N   0  0  0  0  0  0  0  0  0  0  0  0
  195.2640  174.9630  134.9470 Cl  0  0  0  0  0  0  0  0  0  0  0  0
  195.2250  174.3940  137.6180 C   0  0  1  0  0  3  0  0  0  0  0  0
  195.9620  175.2340  136.5650 C   0  0  1  0  0  3  0  0  0  0  0  0
  198.0120  174.9500  137.8730 N   0  0  0  0  0  2  0  0  0  0  0  0
  197.2360  174.6770  139.0450 C   0  0  0  0  0  3  0  0  0  0  0  0
  195.9280  174.4330  138.9510 C   0  0  0  0  0  3  0  0  0  0  0  0
  197.4350  174.8360  136.5360 C   0  0  0  0  0  2  0  0  0  0  0  0
  1 23  1  1  0  0  0
  2  5  1  1  0  0  0
  3  7  1  0  0  0  0
  4 13  1  0  0  0  0
  6 10  1  0  0  0  0
  7  1  1  0  0  0  0
  7  2  1  0  0  0  0
  8 14  1  0  0  0  0
  8  3  1  0  0  0  0
  9  1  1  0  0  0  0
 10  2  1  0  0  0  0
 11 12  1  0  0  0  0
 11  4  1  0  0  0  0
 12  8  1  0  0  0  0
 13  3  1  0  0  0  0
 13  6  1  0  0  0  0
 14  9  1  0  0  0  0
 15 19  1  0  0  0  0
 16 18  1  0  0  0  0
 16 15  2  0  0  0  0
 17 12  1  0  0  0  0
 18 20  2  0  0  0  0
 19 17  2  0  0  0  0
 20 17  1  0  0  0  0
 21 15  1  0  0  0  0
 23 22  1  0  0  0  0
 24  4  1  0  0  0  0
 25 24  1  0  0  0  0
 26 27  2  0  0  0  0
 27 25  1  0  0  0  0
 28 30  1  0  0  0  0
 29 26  1  0  0  0  0
 29 33  1  0  0  0  0
 30 29  1  0  0  0  0
 31 32  1  0  0  0  0
 33 32  2  0  0  0  0
 34 30  1  0  0  0  0
 34 31  1  0  0  0  0
M  END
>  <MODEL>
2

>  <REMARK>
 VINA RESULT:      -7.9      4.022      9.338
  Name = 
  6 active torsions:
  status: ('A' for Active; 'I' for Inactive)
    1  A    between atoms: C_1  and  C_19
    2  A    between atoms: C_3  and  C_13
    3  A    between atoms: C_5  and  C_18
    4  A    between atoms: C_12  and  C_28
    5  A    between atoms: N_17  and  N_29
    6  A    between atoms: C_18  and  N_29
                            x       y       z     vdW  Elec       q    Type
                         _______ _______ _______ _____ _____    ______ ____

>  <TORSDO>
F 6

$$$$
=
 OpenBabel10262423403D

 34 38  0  0  1  0  0  0  0  0999 V2000
  186.7670  177.7390  142.5340 C   0  0  2  0  0  3  0  0  0  0  0  0
  188.7730  176.5490  143.5670 C   0  0  1  0  0  3  0  0  0  0  0  0
  188.8720  177.3760  141.1920 C   0  0  1  0  0  3  0  0  0  0  0  0
  190.9960  176.9760  139.8950 C   0  0  2  0  0  3  0  0  0  0  0  0
  189.2230  177.1830  144.8700 C   0  0  0  0  0  1  0  0  0  0  0  0
  190.9360  176.5180  142.3540 N   0  0  0  0  0  2  0  0  0  0  0  0
  188.3030  177.6430  142.5880 C   0  0  1  0  0  3  0  0  0  0  0  0
  188.3910  178.3910  140.1530 C   0  0  1  0  0  3  0  0  0  0  0  0
  186.3130  178.7750  141.5010 C   0  0  0  0  0  2  0  0  0  0  0  0
  189.9090  175.6870  142.9930 C   0  0  0  0  0  2  0  0  0  0  0  0
  190.5180  177.9700  138.8310 C   0  0  0  0  0  2  0  0  0  0  0  0
  188.9890  178.0760  138.7680 C   0  0  1  0  0  3  0  0  0  0  0  0
  190.4080  177.3600  141.2610 C   0  0  2  0  0  3  0  0  0  0  0  0
  186.8630  178.4440  140.1190 C   0  0  0  0  0  2  0  0  0  0  0  0
  188.5020  174.6570  137.1330 C   0  0  0  0  0  0  0  0  0  0  0  0
  187.1710  174.7500  136.7180 C   0  0  0  0  0  3  0  0  0  0  0  0
  188.3710  176.8980  138.0600 C   0  0  0  0  0  0  0  0  0  0  0  0
  186.4390  175.9140  136.9700 C   0  0  0  0  0  3  0  0  0  0  0  0
  189.1010  175.7280  137.8010 C   0  0  0  0  0  3  0  0  0  0  0  0
  187.0390  176.9850  137.6390 C   0  0  0  0  0  3  0  0  0  0  0  0
  189.2080  173.5270  136.8930 F   0  0  0  0  0  0  0  0  0  0  0  0
  184.7060  178.5360  143.7840 C   0  0  0  0  0  1  0  0  0  0  0  0
  186.1430  178.0450  143.8970 C   0  0  0  0  0  2  0  0  0  0  0  0
  192.5170  176.9960  139.9080 C   0  0  0  0  0  2  0  0  0  0  0  0
  193.0260  177.2200  138.5680 N   0  0  0  0  0  2  0  0  0  0  0  0
  193.4740  175.0070  137.9890 C   0  0  0  0  0  3  0  0  0  0  0  0
  193.8210  176.2510  137.9490 N   0  0  0  0  0  0  0  0  0  0  0  0
  196.2900  174.1780  139.2150 Cl  0  0  0  0  0  0  0  0  0  0  0  0
  194.3200  173.9660  137.3350 C   0  0  1  0  0  3  0  0  0  0  0  0
  195.0870  173.1540  138.3880 C   0  0  1  0  0  3  0  0  0  0  0  0
  194.8690  171.1950  136.9370 N   0  0  0  0  0  2  0  0  0  0  0  0
  193.7420  171.7920  136.2860 C   0  0  0  0  0  3  0  0  0  0  0  0
  193.4560  173.0820  136.4740 C   0  0  0  0  0  3  0  0  0  0  0  0
  195.8150  171.9980  137.7080 C   0  0  0  0  0  2  0  0  0  0  0  0
  1  7  1  0  0  0  0
  1 23  1  1  0  0  0
  2  5  1  1  0  0  0
  3 13  1  0  0  0  0
  3  7  1  0  0  0  0
  4 24  1  0  0  0  0
  4 13  1  0  0  0  0
  6 10  1  0  0  0  0
  7  2  1  0  0  0  0
  8  3  1  0  0  0  0
  9  1  1  0  0  0  0
 10  2  1  0  0  0  0
 11  4  1  0  0  0  0
 12 11  1  0  0  0  0
 12  8  1  0  0  0  0
 13  6  1  0  0  0  0
 14  8  1  0  0  0  0
 14  9  1  0  0  0  0
 15 19  1  0  0  0  0
 16 18  1  0  0  0  0
 16 15  2  0  0  0  0
 17 12  1  0  0  0  0
 18 20  2  0  0  0  0
 19 17  2  0  0  0  0
 20 17  1  0  0  0  0
 21 15  1  0  0  0  0
 22 23  1  0  0  0  0
 25 24  1  0  0  0  0
 27 26  2  0  0  0  0
 27 25  1  0  0  0  0
 29 26  1  0  0  0  0
 29 30  1  0  0  0  0
 30 28  1  0  0  0  0
 31 34  1  0  0  0  0
 32 33  2  0  0  0  0
 32 31  1  0  0  0  0
 33 29  1  0  0  0  0
 34 30  1  0  0  0  0
M  END
>  <MODEL>
3

>  <REMARK>
 VINA RESULT:      -7.5      3.822      8.917
  Name = 
  6 active torsions:
  status: ('A' for Active; 'I' for Inactive)
    1  A    between atoms: C_1  and  C_19
    2  A    between atoms: C_3  and  C_13
    3  A    between atoms: C_5  and  C_18
    4  A    between atoms: C_12  and  C_28
    5  A    between atoms: N_17  and  N_29
    6  A    between atoms: C_18  and  N_29
                            x       y       z     vdW  Elec       q    Type
                         _______ _______ _______ _____ _____    ______ ____

>  <TORSDO>
F 6

$$$$
=
 OpenBabel10262423403D

 34 38  0  0  1  0  0  0  0  0999 V2000
  182.9680  177.4040  136.7160 C   0  0  2  0  0  3  0  0  0  0  0  0
  183.5500  178.4080  138.9870 C   0  0  1  0  0  3  0  0  0  0  0  0
  185.3650  177.5000  137.4970 C   0  0  1  0  0  3  0  0  0  0  0  0
  187.7390  177.6120  138.3340 C   0  0  2  0  0  3  0  0  0  0  0  0
  183.0060  179.8130  139.1630 C   0  0  0  0  0  1  0  0  0  0  0  0
  185.9270  178.8080  139.5760 N   0  0  0  0  0  2  0  0  0  0  0  0
  184.0040  178.2020  137.5280 C   0  0  1  0  0  3  0  0  0  0  0  0
  185.8450  177.2060  136.0750 C   0  0  1  0  0  3  0  0  0  0  0  0
  183.4660  177.1400  135.2910 C   0  0  0  0  0  2  0  0  0  0  0  0
  184.6790  178.1600  140.0010 C   0  0  0  0  0  2  0  0  0  0  0  0
  188.2380  177.2920  136.9210 C   0  0  0  0  0  2  0  0  0  0  0  0
  187.2140  176.4980  136.1000 C   0  0  1  0  0  3  0  0  0  0  0  0
  186.3970  178.3540  138.2510 C   0  0  2  0  0  3  0  0  0  0  0  0
  184.7970  176.3990  135.3070 C   0  0  0  0  0  2  0  0  0  0  0  0
  186.0610  173.1470  137.5280 C   0  0  0  0  0  0  0  0  0  0  0  0
  187.1680  172.3430  137.2420 C   0  0  0  0  0  3  0  0  0  0  0  0
  187.1730  175.0460  136.5010 C   0  0  0  0  0  0  0  0  0  0  0  0
  188.2780  172.8870  136.5900 C   0  0  0  0  0  3  0  0  0  0  0  0
  186.0630  174.4940  137.1600 C   0  0  0  0  0  3  0  0  0  0  0  0
  188.2790  174.2360  136.2220 C   0  0  0  0  0  3  0  0  0  0  0  0
  184.9830  172.6170  138.1550 F   0  0  0  0  0  0  0  0  0  0  0  0
  181.3000  178.7250  135.3300 C   0  0  0  0  0  1  0  0  0  0  0  0
  181.5950  178.0800  136.6780 C   0  0  0  0  0  2  0  0  0  0  0  0
  188.8040  178.4450  139.0310 C   0  0  0  0  0  2  0  0  0  0  0  0
  189.5220  177.6330  139.9960 N   0  0  0  0  0  2  0  0  0  0  0  0
  189.6390  176.7190  142.1370 C   0  0  0  0  0  3  0  0  0  0  0  0
  188.9840  177.4150  141.2680 N   0  0  0  0  0  0  0  0  0  0  0  0
  191.4990  176.7220  144.7170 Cl  0  0  0  0  0  0  0  0  0  0  0  0
  189.0700  176.4760  143.4950 C   0  0  1  0  0  3  0  0  0  0  0  0
  189.8210  177.2990  144.5500 C   0  0  1  0  0  3  0  0  0  0  0  0
  187.7130  177.5290  145.7720 N   0  0  0  0  0  2  0  0  0  0  0  0
  186.9780  177.2680  144.5710 C   0  0  0  0  0  3  0  0  0  0  0  0
  187.5970  176.7940  143.4880 C   0  0  0  0  0  3  0  0  0  0  0  0
  189.1200  177.1590  145.8990 C   0  0  0  0  0  2  0  0  0  0  0  0
  1 23  1  6  0  0  0
  1  7  1  0  0  0  0
  2  5  1  6  0  0  0
  2 10  1  0  0  0  0
  3  7  1  0  0  0  0
  3 13  1  0  0  0  0
  4 24  1  0  0  0  0
  6 10  1  0  0  0  0
  7  2  1  0  0  0  0
  8 12  1  0  0  0  0
  8  3  1  0  0  0  0
  9 14  1  0  0  0  0
  9  1  1  0  0  0  0
 11  4  1  0  0  0  0
 12 17  1  0  0  0  0
 12 11  1  0  0  0  0
 13  4  1  0  0  0  0
 13  6  1  0  0  0  0
 14  8  1  0  0  0  0
 15 21  1  0  0  0  0
 16 15  1  0  0  0  0
 17 19  1  0  0  0  0
 18 16  2  0  0  0  0
 19 15  2  0  0  0  0
 20 17  2  0  0  0  0
 20 18  1  0  0  0  0
 22 23  1  0  0  0  0
 24 25  1  0  0  0  0
 25 27  1  0  0  0  0
 26 29  1  0  0  0  0
 27 26  2  0  0  0  0
 29 30  1  0  0  0  0
 30 28  1  0  0  0  0
 30 34  1  0  0  0  0
 31 34  1  0  0  0  0
 32 31  1  0  0  0  0
 33 29  1  0  0  0  0
 33 32  2  0  0  0  0
M  END
>  <MODEL>
4

>  <REMARK>
 VINA RESULT:      -7.5      3.320      6.996
  Name = 
  6 active torsions:
  status: ('A' for Active; 'I' for Inactive)
    1  A    between atoms: C_1  and  C_19
    2  A    between atoms: C_3  and  C_13
    3  A    between atoms: C_5  and  C_18
    4  A    between atoms: C_12  and  C_28
    5  A    between atoms: N_17  and  N_29
    6  A    between atoms: C_18  and  N_29
                            x       y       z     vdW  Elec       q    Type
                         _______ _______ _______ _____ _____    ______ ____

>  <TORSDO>
F 6

$$$$
=
 OpenBabel10262423403D

 34 38  0  0  1  0  0  0  0  0999 V2000
  191.2730  174.3170  137.3730 C   0  0  2  0  0  3  0  0  0  0  0  0
  188.9590  173.8730  136.3960 C   0  0  1  0  0  3  0  0  0  0  0  0
  189.3880  175.9490  137.7530 C   0  0  1  0  0  3  0  0  0  0  0  0
  187.4640  177.5380  138.1100 C   0  0  2  0  0  3  0  0  0  0  0  0
  188.9930  173.6280  134.8990 C   0  0  0  0  0  1  0  0  0  0  0  0
  187.2310  175.6500  136.4860 N   0  0  0  0  0  2  0  0  0  0  0  0
  190.0010  174.9450  136.7740 C   0  0  1  0  0  3  0  0  0  0  0  0
  190.3900  177.0060  138.2210 C   0  0  1  0  0  3  0  0  0  0  0  0
  192.2670  175.3950  137.8160 C   0  0  0  0  0  2  0  0  0  0  0  0
  187.5330  174.2530  136.8250 C   0  0  0  0  0  2  0  0  0  0  0  0
  188.4510  178.6000  138.6070 C   0  0  0  0  0  2  0  0  0  0  0  0
  189.7240  177.9880  139.2050 C   0  0  1  0  0  3  0  0  0  0  0  0
  188.1650  176.6150  137.1020 C   0  0  2  0  0  3  0  0  0  0  0  0
  191.6300  176.3440  138.8240 C   0  0  0  0  0  2  0  0  0  0  0  0
  190.1820  176.1220  142.5070 C   0  0  0  0  0  0  0  0  0  0  0  0
  188.9860  176.4390  143.1580 C   0  0  0  0  0  3  0  0  0  0  0  0
  189.4910  177.4420  140.5900 C   0  0  0  0  0  0  0  0  0  0  0  0
  188.0420  177.2540  142.5280 C   0  0  0  0  0  3  0  0  0  0  0  0
  190.4330  176.6200  141.2270 C   0  0  0  0  0  3  0  0  0  0  0  0
  188.2950  177.7530  141.2460 C   0  0  0  0  0  3  0  0  0  0  0  0
  191.0990  175.3360  143.1210 F   0  0  0  0  0  0  0  0  0  0  0  0
  193.4670  173.5050  136.3850 C   0  0  0  0  0  1  0  0  0  0  0  0
  191.9540  173.3310  136.4210 C   0  0  0  0  0  2  0  0  0  0  0  0
  186.2750  178.2550  137.4890 C   0  0  0  0  0  2  0  0  0  0  0  0
  185.0700  177.9730  138.2460 N   0  0  0  0  0  2  0  0  0  0  0  0
  183.7670  178.3740  140.1370 C   0  0  0  0  0  3  0  0  0  0  0  0
  184.8720  178.5650  139.4970 N   0  0  0  0  0  0  0  0  0  0  0  0
  180.8790  179.3790  141.0140 Cl  0  0  0  0  0  0  0  0  0  0  0  0
  183.5460  179.0080  141.4700 C   0  0  1  0  0  3  0  0  0  0  0  0
  182.1580  178.6460  142.0160 C   0  0  1  0  0  3  0  0  0  0  0  0
  183.1150  178.6660  144.2690 N   0  0  0  0  0  2  0  0  0  0  0  0
  184.4220  178.4530  143.7240 C   0  0  0  0  0  3  0  0  0  0  0  0
  184.6420  178.5890  142.4150 C   0  0  0  0  0  3  0  0  0  0  0  0
  182.0210  179.1690  143.4430 C   0  0  0  0  0  2  0  0  0  0  0  0
  1 23  1  6  0  0  0
  1  9  1  0  0  0  0
  2  5  1  6  0  0  0
  2  7  1  0  0  0  0
  2 10  1  0  0  0  0
  3  8  1  0  0  0  0
  4 11  1  0  0  0  0
  6 10  1  0  0  0  0
  6 13  1  0  0  0  0
  7  1  1  0  0  0  0
  7  3  1  0  0  0  0
  8 14  1  0  0  0  0
  8 12  1  0  0  0  0
  9 14  1  0  0  0  0
 11 12  1  0  0  0  0
 12 17  1  0  0  0  0
 13  3  1  0  0  0  0
 13  4  1  0  0  0  0
 15 21  1  0  0  0  0
 15 16  1  0  0  0  0
 17 19  1  0  0  0  0
 17 20  2  0  0  0  0
 18 16  2  0  0  0  0
 19 15  2  0  0  0  0
 20 18  1  0  0  0  0
 22 23  1  0  0  0  0
 24  4  1  0  0  0  0
 24 25  1  0  0  0  0
 25 27  1  0  0  0  0
 26 29  1  0  0  0  0
 27 26  2  0  0  0  0
 28 30  1  0  0  0  0
 29 30  1  0  0  0  0
 29 33  1  0  0  0  0
 30 34  1  0  0  0  0
 32 31  1  0  0  0  0
 33 32  2  0  0  0  0
 34 31  1  0  0  0  0
M  END
>  <MODEL>
5

>  <REMARK>
 VINA RESULT:      -7.5      1.286      1.513
  Name = 
  6 active torsions:
  status: ('A' for Active; 'I' for Inactive)
    1  A    between atoms: C_1  and  C_19
    2  A    between atoms: C_3  and  C_13
    3  A    between atoms: C_5  and  C_18
    4  A    between atoms: C_12  and  C_28
    5  A    between atoms: N_17  and  N_29
    6  A    between atoms: C_18  and  N_29
                            x       y       z     vdW  Elec       q    Type
                         _______ _______ _______ _____ _____    ______ ____

>  <TORSDO>
F 6

$$$$
=
 OpenBabel10262423403D

 34 38  0  0  1  0  0  0  0  0999 V2000
  182.2580  178.6310  140.7430 C   0  0  2  0  0  3  0  0  0  0  0  0
  183.9190  178.4120  142.6650 C   0  0  1  0  0  3  0  0  0  0  0  0
  184.7200  178.3420  140.2800 C   0  0  1  0  0  3  0  0  0  0  0  0
  187.1890  178.0380  139.8780 C   0  0  2  0  0  3  0  0  0  0  0  0
  183.8210  179.5550  143.6580 C   0  0  0  0  0  1  0  0  0  0  0  0
  186.3530  178.4820  142.1930 N   0  0  0  0  0  2  0  0  0  0  0  0
  183.6830  178.9390  141.2360 C   0  0  1  0  0  3  0  0  0  0  0  0
  184.5030  178.7730  138.8280 C   0  0  1  0  0  3  0  0  0  0  0  0
  182.0610  179.0900  139.2950 C   0  0  0  0  0  2  0  0  0  0  0  0
  185.2760  177.7070  142.8220 C   0  0  0  0  0  2  0  0  0  0  0  0
  186.9870  178.4430  138.4130 C   0  0  0  0  0  2  0  0  0  0  0  0
  185.5690  178.1440  137.9100 C   0  0  1  0  0  3  0  0  0  0  0  0
  186.1310  178.7260  140.7530 C   0  0  2  0  0  3  0  0  0  0  0  0
  183.0830  178.4370  138.3720 C   0  0  0  0  0  2  0  0  0  0  0  0
  183.9670  174.7050  137.4560 C   0  0  0  0  0  0  0  0  0  0  0  0
  185.0760  173.9440  137.0790 C   0  0  0  0  0  3  0  0  0  0  0  0
  185.3730  176.6790  137.6160 C   0  0  0  0  0  0  0  0  0  0  0  0
  186.3330  174.5460  136.9710 C   0  0  0  0  0  3  0  0  0  0  0  0
  184.1140  176.0680  137.7260 C   0  0  0  0  0  3  0  0  0  0  0  0
  186.4800  175.9100  137.2410 C   0  0  0  0  0  3  0  0  0  0  0  0
  182.7480  174.1220  137.5550 F   0  0  0  0  0  0  0  0  0  0  0  0
  180.2260  178.1880  142.2000 C   0  0  0  0  0  1  0  0  0  0  0  0
  181.1760  179.2380  141.6390 C   0  0  0  0  0  2  0  0  0  0  0  0
  188.6020  178.4320  140.2830 C   0  0  0  0  0  2  0  0  0  0  0  0
  189.2100  177.3750  141.0690 N   0  0  0  0  0  2  0  0  0  0  0  0
  189.1660  177.2850  143.3970 C   0  0  0  0  0  3  0  0  0  0  0  0
  189.7680  177.6610  142.3180 N   0  0  0  0  0  0  0  0  0  0  0  0
  187.3070  178.0380  145.8660 Cl  0  0  0  0  0  0  0  0  0  0  0  0
  189.7520  177.5920  144.7350 C   0  0  1  0  0  3  0  0  0  0  0  0
  188.8240  177.1030  145.8560 C   0  0  1  0  0  3  0  0  0  0  0  0
  190.8140  176.6100  147.1940 N   0  0  0  0  0  2  0  0  0  0  0  0
  191.6070  176.5390  146.0030 C   0  0  0  0  0  3  0  0  0  0  0  0
  191.1230  176.9750  144.8390 C   0  0  0  0  0  3  0  0  0  0  0  0
  189.5170  177.2810  147.2040 C   0  0  0  0  0  2  0  0  0  0  0  0
  1  7  1  0  0  0  0
  1 23  1  1  0  0  0
  2 10  1  0  0  0  0
  2  5  1  1  0  0  0
  3 13  1  0  0  0  0
  3  7  1  0  0  0  0
  4 24  1  0  0  0  0
  4 13  1  0  0  0  0
  6 10  1  0  0  0  0
  7  2  1  0  0  0  0
  8  3  1  0  0  0  0
  9  1  1  0  0  0  0
 11  4  1  0  0  0  0
 12 11  1  0  0  0  0
 12  8  1  0  0  0  0
 13  6  1  0  0  0  0
 14  8  1  0  0  0  0
 14  9  1  0  0  0  0
 15 21  1  0  0  0  0
 15 19  1  0  0  0  0
 16 15  2  0  0  0  0
 17 19  2  0  0  0  0
 17 12  1  0  0  0  0
 18 16  1  0  0  0  0
 18 20  2  0  0  0  0
 20 17  1  0  0  0  0
 23 22  1  0  0  0  0
 24 25  1  0  0  0  0
 25 27  1  0  0  0  0
 26 29  1  0  0  0  0
 27 26  2  0  0  0  0
 29 33  1  0  0  0  0
 29 30  1  0  0  0  0
 30 28  1  0  0  0  0
 30 34  1  0  0  0  0
 31 34  1  0  0  0  0
 32 31  1  0  0  0  0
 33 32  2  0  0  0  0
M  END
>  <MODEL>
6

>  <REMARK>
 VINA RESULT:      -7.4      3.779      8.173
  Name = 
  6 active torsions:
  status: ('A' for Active; 'I' for Inactive)
    1  A    between atoms: C_1  and  C_19
    2  A    between atoms: C_3  and  C_13
    3  A    between atoms: C_5  and  C_18
    4  A    between atoms: C_12  and  C_28
    5  A    between atoms: N_17  and  N_29
    6  A    between atoms: C_18  and  N_29
                            x       y       z     vdW  Elec       q    Type
                         _______ _______ _______ _____ _____    ______ ____

>  <TORSDO>
F 6

$$$$
=
 OpenBabel10262423403D

 34 38  0  0  1  0  0  0  0  0999 V2000
  184.9720  178.0410  145.2760 C   0  0  2  0  0  3  0  0  0  0  0  0
  187.1580  176.9130  144.6010 C   0  0  1  0  0  3  0  0  0  0  0  0
  185.7810  178.1430  142.8890 C   0  0  1  0  0  3  0  0  0  0  0  0
  186.6330  178.2030  140.5180 C   0  0  2  0  0  3  0  0  0  0  0  0
  188.3330  177.3580  145.4510 C   0  0  0  0  0  1  0  0  0  0  0  0
  188.1010  177.3250  142.3440 N   0  0  0  0  0  2  0  0  0  0  0  0
  186.2070  178.1030  144.3600 C   0  0  1  0  0  3  0  0  0  0  0  0
  184.7830  179.2640  142.5940 C   0  0  1  0  0  3  0  0  0  0  0  0
  183.9990  179.1840  144.9730 C   0  0  0  0  0  2  0  0  0  0  0  0
  187.6730  176.2900  143.2940 C   0  0  0  0  0  2  0  0  0  0  0  0
  185.6220  179.3090  140.1970 C   0  0  0  0  0  2  0  0  0  0  0  0
  184.3860  179.2590  141.1040 C   0  0  1  0  0  3  0  0  0  0  0  0
  187.0280  178.2810  142.0010 C   0  0  2  0  0  3  0  0  0  0  0  0
  183.5650  179.1580  143.5120 C   0  0  0  0  0  2  0  0  0  0  0  0
  182.9370  176.0930  139.5310 C   0  0  0  0  0  0  0  0  0  0  0  0
  181.6120  176.1610  139.9710 C   0  0  0  0  0  3  0  0  0  0  0  0
  183.4350  178.1610  140.7030 C   0  0  0  0  0  0  0  0  0  0  0  0
  181.1960  177.2270  140.7740 C   0  0  0  0  0  3  0  0  0  0  0  0
  183.8460  177.0900  139.8940 C   0  0  0  0  0  3  0  0  0  0  0  0
  182.1070  178.2240  141.1370 C   0  0  0  0  0  3  0  0  0  0  0  0
  183.3400  175.0570  138.7570 F   0  0  0  0  0  0  0  0  0  0  0  0
  185.9820  179.3440  147.2070 C   0  0  0  0  0  1  0  0  0  0  0  0
  185.3350  178.0380  146.7630 C   0  0  0  0  0  2  0  0  0  0  0  0
  187.8350  178.3840  139.6030 C   0  0  0  0  0  2  0  0  0  0  0  0
  187.4070  178.4150  138.2160 N   0  0  0  0  0  2  0  0  0  0  0  0
  187.9230  176.3120  137.3540 C   0  0  0  0  0  3  0  0  0  0  0  0
  187.0410  177.2310  137.5690 N   0  0  0  0  0  0  0  0  0  0  0  0
  190.0710  174.6370  135.7100 Cl  0  0  0  0  0  0  0  0  0  0  0  0
  187.5430  175.0480  136.6580 C   0  0  1  0  0  3  0  0  0  0  0  0
  188.7040  174.0440  136.6890 C   0  0  1  0  0  3  0  0  0  0  0  0
  187.0520  172.2430  136.8340 N   0  0  0  0  0  2  0  0  0  0  0  0
  186.0820  173.1640  137.3460 C   0  0  0  0  0  3  0  0  0  0  0  0
  186.2990  174.4790  137.2910 C   0  0  0  0  0  3  0  0  0  0  0  0
  188.2370  172.7090  136.1170 C   0  0  0  0  0  2  0  0  0  0  0  0
  1 23  1  1  0  0  0
  2  5  1  1  0  0  0
  3  7  1  0  0  0  0
  4 13  1  0  0  0  0
  6 10  1  0  0  0  0
  7  2  1  0  0  0  0
  7  1  1  0  0  0  0
  8  3  1  0  0  0  0
  8 14  1  0  0  0  0
  9  1  1  0  0  0  0
 10  2  1  0  0  0  0
 11  4  1  0  0  0  0
 11 12  1  0  0  0  0
 12  8  1  0  0  0  0
 13  6  1  0  0  0  0
 13  3  1  0  0  0  0
 14  9  1  0  0  0  0
 15 19  2  0  0  0  0
 15 16  1  0  0  0  0
 16 18  2  0  0  0  0
 17 12  1  0  0  0  0
 17 20  2  0  0  0  0
 18 20  1  0  0  0  0
 19 17  1  0  0  0  0
 21 15  1  0  0  0  0
 23 22  1  0  0  0  0
 24  4  1  0  0  0  0
 25 24  1  0  0  0  0
 26 27  2  0  0  0  0
 27 25  1  0  0  0  0
 28 30  1  0  0  0  0
 29 30  1  0  0  0  0
 29 33  1  0  0  0  0
 29 26  1  0  0  0  0
 31 32  1  0  0  0  0
 33 32  2  0  0  0  0
 34 30  1  0  0  0  0
 34 31  1  0  0  0  0
M  END
>  <MODEL>
7

>  <REMARK>
 VINA RESULT:      -7.3      3.610      8.362
  Name = 
  6 active torsions:
  status: ('A' for Active; 'I' for Inactive)
    1  A    between atoms: C_1  and  C_19
    2  A    between atoms: C_3  and  C_13
    3  A    between atoms: C_5  and  C_18
    4  A    between atoms: C_12  and  C_28
    5  A    between atoms: N_17  and  N_29
    6  A    between atoms: C_18  and  N_29
                            x       y       z     vdW  Elec       q    Type
                         _______ _______ _______ _____ _____    ______ ____

>  <TORSDO>
F 6

$$$$
=
 OpenBabel10262423403D

 34 38  0  0  1  0  0  0  0  0999 V2000
  186.1550  177.9530  142.7760 C   0  0  2  0  0  3  0  0  0  0  0  0
  188.1680  176.6500  143.6440 C   0  0  1  0  0  3  0  0  0  0  0  0
  188.1810  177.6050  141.3150 C   0  0  1  0  0  3  0  0  0  0  0  0
  190.2280  177.2150  139.8960 C   0  0  2  0  0  3  0  0  0  0  0  0
  188.6990  177.1980  144.9560 C   0  0  0  0  0  1  0  0  0  0  0  0
  190.2700  176.6240  142.3270 N   0  0  0  0  0  2  0  0  0  0  0  0
  187.6870  177.8110  142.7490 C   0  0  1  0  0  3  0  0  0  0  0  0
  187.6840  178.6890  140.3570 C   0  0  1  0  0  3  0  0  0  0  0  0
  185.6850  179.0570  141.8240 C   0  0  0  0  0  2  0  0  0  0  0  0
  189.2480  175.7890  142.9700 C   0  0  0  0  0  2  0  0  0  0  0  0
  189.7320  178.2800  138.9120 C   0  0  0  0  0  2  0  0  0  0  0  0
  188.2060  178.4340  138.9300 C   0  0  1  0  0  3  0  0  0  0  0  0
  189.7170  177.5400  141.3080 C   0  0  2  0  0  3  0  0  0  0  0  0
  186.1580  178.7880  140.4000 C   0  0  0  0  0  2  0  0  0  0  0  0
  185.5710  176.3630  137.0930 C   0  0  0  0  0  0  0  0  0  0  0  0
  186.2870  175.1890  136.8400 C   0  0  0  0  0  3  0  0  0  0  0  0
  187.5180  177.3150  138.1900 C   0  0  0  0  0  0  0  0  0  0  0  0
  187.6150  175.0750  137.2610 C   0  0  0  0  0  3  0  0  0  0  0  0
  186.1840  177.4220  137.7670 C   0  0  0  0  0  3  0  0  0  0  0  0
  188.2270  176.1360  137.9360 C   0  0  0  0  0  3  0  0  0  0  0  0
  184.2870  176.4750  136.6790 F   0  0  0  0  0  0  0  0  0  0  0  0
  184.6280  179.3680  144.2300 C   0  0  0  0  0  1  0  0  0  0  0  0
  185.6050  178.2010  144.1830 C   0  0  0  0  0  2  0  0  0  0  0  0
  191.7470  177.1910  139.8360 C   0  0  0  0  0  2  0  0  0  0  0  0
  192.1900  176.9130  138.4820 N   0  0  0  0  0  2  0  0  0  0  0  0
  191.9080  175.0500  137.1120 C   0  0  0  0  0  3  0  0  0  0  0  0
  192.5170  175.6080  138.1050 N   0  0  0  0  0  0  0  0  0  0  0  0
  189.9760  173.3820  135.2130 Cl  0  0  0  0  0  0  0  0  0  0  0  0
  192.2470  173.6540  136.7050 C   0  0  1  0  0  3  0  0  0  0  0  0
  191.7580  173.3730  135.2780 C   0  0  1  0  0  3  0  0  0  0  0  0
  193.7080  171.9270  134.9680 N   0  0  0  0  0  2  0  0  0  0  0  0
  194.3920  172.6100  136.0240 C   0  0  0  0  0  3  0  0  0  0  0  0
  193.7320  173.4370  136.8370 C   0  0  0  0  0  3  0  0  0  0  0  0
  192.2560  172.0020  134.8300 C   0  0  0  0  0  2  0  0  0  0  0  0
  1 23  1  1  0  0  0
  2  5  1  1  0  0  0
  3  7  1  0  0  0  0
  4 13  1  0  0  0  0
  6 10  1  0  0  0  0
  7  1  1  0  0  0  0
  7  2  1  0  0  0  0
  8 14  1  0  0  0  0
  8  3  1  0  0  0  0
  9  1  1  0  0  0  0
 10  2  1  0  0  0  0
 11 12  1  0  0  0  0
 11  4  1  0  0  0  0
 12  8  1  0  0  0  0
 13  3  1  0  0  0  0
 13  6  1  0  0  0  0
 14  9  1  0  0  0  0
 15 19  1  0  0  0  0
 16 15  2  0  0  0  0
 16 18  1  0  0  0  0
 17 12  1  0  0  0  0
 18 20  2  0  0  0  0
 19 17  2  0  0  0  0
 20 17  1  0  0  0  0
 21 15  1  0  0  0  0
 23 22  1  0  0  0  0
 24  4  1  0  0  0  0
 25 24  1  0  0  0  0
 26 27  2  0  0  0  0
 27 25  1  0  0  0  0
 28 30  1  0  0  0  0
 29 33  1  0  0  0  0
 29 26  1  0  0  0  0
 30 29  1  0  0  0  0
 31 32  1  0  0  0  0
 32 33  2  0  0  0  0
 34 31  1  0  0  0  0
 34 30  1  0  0  0  0
M  END
>  <MODEL>
8

>  <REMARK>
 VINA RESULT:      -7.1      3.739      8.869
  Name = 
  6 active torsions:
  status: ('A' for Active; 'I' for Inactive)
    1  A    between atoms: C_1  and  C_19
    2  A    between atoms: C_3  and  C_13
    3  A    between atoms: C_5  and  C_18
    4  A    between atoms: C_12  and  C_28
    5  A    between atoms: N_17  and  N_29
    6  A    between atoms: C_18  and  N_29
                            x       y       z     vdW  Elec       q    Type
                         _______ _______ _______ _____ _____    ______ ____

>  <TORSDO>
F 6

$$$$
=
 OpenBabel10262423403D

 34 38  0  0  1  0  0  0  0  0999 V2000
  185.1830  178.0460  144.8930 C   0  0  2  0  0  3  0  0  0  0  0  0
  187.4130  176.8680  144.5090 C   0  0  1  0  0  3  0  0  0  0  0  0
  186.2690  178.0700  142.6160 C   0  0  1  0  0  3  0  0  0  0  0  0
  187.3940  178.0520  140.3620 C   0  0  2  0  0  3  0  0  0  0  0  0
  188.4880  177.3180  145.4800 C   0  0  0  0  0  1  0  0  0  0  0  0
  188.6210  177.2030  142.3690 N   0  0  0  0  0  2  0  0  0  0  0  0
  186.5180  178.0640  144.1270 C   0  0  1  0  0  3  0  0  0  0  0  0
  185.3320  179.1970  142.1770 C   0  0  1  0  0  3  0  0  0  0  0  0
  184.2730  179.1940  144.4480 C   0  0  0  0  0  2  0  0  0  0  0  0
  188.0660  176.2010  143.2880 C   0  0  0  0  0  2  0  0  0  0  0  0
  186.4470  179.1630  139.8950 C   0  0  0  0  0  2  0  0  0  0  0  0
  185.1130  179.1560  140.6520 C   0  0  1  0  0  3  0  0  0  0  0  0
  187.6140  178.1650  141.8780 C   0  0  2  0  0  3  0  0  0  0  0  0
  184.0130  179.1340  142.9480 C   0  0  0  0  0  2  0  0  0  0  0  0
  183.4950  176.4500  138.4930 C   0  0  0  0  0  0  0  0  0  0  0  0
  182.4420  176.0470  139.3190 C   0  0  0  0  0  3  0  0  0  0  0  0
  184.1960  178.0620  140.1690 C   0  0  0  0  0  0  0  0  0  0  0  0
  182.2630  176.6500  140.5680 C   0  0  0  0  0  3  0  0  0  0  0  0
  184.3690  177.4550  138.9150 C   0  0  0  0  0  3  0  0  0  0  0  0
  183.1380  177.6560  140.9900 C   0  0  0  0  0  3  0  0  0  0  0  0
  183.6710  175.8620  137.2860 F   0  0  0  0  0  0  0  0  0  0  0  0
  185.9470  179.4010  146.9000 C   0  0  0  0  0  1  0  0  0  0  0  0
  185.3690  178.0790  146.4120 C   0  0  0  0  0  2  0  0  0  0  0  0
  188.6970  178.1900  139.5900 C   0  0  0  0  0  2  0  0  0  0  0  0
  188.5800  177.5510  138.2920 N   0  0  0  0  0  2  0  0  0  0  0  0
  190.4930  176.2480  138.5610 C   0  0  0  0  0  3  0  0  0  0  0  0
  189.6540  176.8260  137.7680 N   0  0  0  0  0  0  0  0  0  0  0  0
  190.0350  173.5330  136.9670 Cl  0  0  0  0  0  0  0  0  0  0  0  0
  191.6460  175.4760  138.0100 C   0  0  1  0  0  3  0  0  0  0  0  0
  191.2600  174.7980  136.6880 C   0  0  1  0  0  3  0  0  0  0  0  0
  193.5570  175.1460  135.9180 N   0  0  0  0  0  2  0  0  0  0  0  0
  193.7220  176.2080  136.8640 C   0  0  0  0  0  3  0  0  0  0  0  0
  192.8300  176.3920  137.8390 C   0  0  0  0  0  3  0  0  0  0  0  0
  192.4950  174.1540  136.0670 C   0  0  0  0  0  2  0  0  0  0  0  0
  1 23  1  1  0  0  0
  2  5  1  1  0  0  0
  3  7  1  0  0  0  0
  4 13  1  0  0  0  0
  6 10  1  0  0  0  0
  7  2  1  0  0  0  0
  7  1  1  0  0  0  0
  8  3  1  0  0  0  0
  8 14  1  0  0  0  0
  9  1  1  0  0  0  0
 10  2  1  0  0  0  0
 11  4  1  0  0  0  0
 11 12  1  0  0  0  0
 12  8  1  0  0  0  0
 13  6  1  0  0  0  0
 13  3  1  0  0  0  0
 14  9  1  0  0  0  0
 15 19  2  0  0  0  0
 15 16  1  0  0  0  0
 16 18  2  0  0  0  0
 17 12  1  0  0  0  0
 17 20  2  0  0  0  0
 18 20  1  0  0  0  0
 19 17  1  0  0  0  0
 21 15  1  0  0  0  0
 23 22  1  0  0  0  0
 24  4  1  0  0  0  0
 25 24  1  0  0  0  0
 27 25  1  0  0  0  0
 27 26  2  0  0  0  0
 29 26  1  0  0  0  0
 30 28  1  0  0  0  0
 30 29  1  0  0  0  0
 31 34  1  0  0  0  0
 31 32  1  0  0  0  0
 32 33  2  0  0  0  0
 33 29  1  0  0  0  0
 34 30  1  0  0  0  0
M  END
>  <MODEL>
9

>  <REMARK>
 VINA RESULT:      -6.9      3.337      8.850
  Name = 
  6 active torsions:
  status: ('A' for Active; 'I' for Inactive)
    1  A    between atoms: C_1  and  C_19
    2  A    between atoms: C_3  and  C_13
    3  A    between atoms: C_5  and  C_18
    4  A    between atoms: C_12  and  C_28
    5  A    between atoms: N_17  and  N_29
    6  A    between atoms: C_18  and  N_29
                            x       y       z     vdW  Elec       q    Type
                         _______ _______ _______ _____ _____    ______ ____

>  <TORSDO>
F 6

$$$$
