=
 OpenBabel10272400053D

 34 38  0  0  1  0  0  0  0  0999 V2000
  188.6620  177.2880  143.4570 N   0  0  0  0  0  0  0  0  0  0  0  0
  190.5440  175.9240  142.7860 C   0  0  2  0  0  3  0  0  0  0  0  0
  189.5420  177.1090  144.6110 C   0  0  1  0  0  3  0  0  0  0  0  0
  190.8720  176.5930  144.1060 C   0  0  1  0  0  3  0  0  0  0  0  0
  189.3120  176.6660  142.2990 C   0  0  2  0  0  3  0  0  0  0  0  0
  190.2110  174.5780  142.9670 O   0  0  0  0  0  1  0  0  0  0  0  0
  191.1170  176.8080  139.3830 C   0  0  2  0  0  3  0  0  0  0  0  0
  189.2380  178.3270  139.0880 C   0  0  2  0  0  3  0  0  0  0  0  0
  189.6900  177.7370  141.2730 C   0  0  2  0  0  3  0  0  0  0  0  0
  189.7900  176.7730  137.1520 C   0  0  0  0  0  2  0  0  0  0  0  0
  188.8370  177.8590  137.6970 C   0  0  0  0  0  2  0  0  0  0  0  0
  188.5840  178.7870  141.1560 C   0  0  0  0  0  2  0  0  0  0  0  0
  189.7270  177.1680  139.8890 C   0  0  2  0  0  3  0  0  0  0  0  0
  191.1490  176.6490  137.8850 C   0  0  2  0  0  3  0  0  0  0  0  0
  191.0880  175.5470  138.7610 O   0  0  0  0  0  0  0  0  0  0  0  0
  188.1910  178.9120  139.8050 O   0  0  0  0  0  0  0  0  0  0  0  0
  191.5410  175.6690  145.1210 C   0  0  0  0  0  2  0  0  0  0  0  0
  191.9430  176.4350  146.3690 C   0  0  0  0  0  2  0  0  0  0  0  0
  192.5550  175.5740  147.2800 O   0  0  0  0  0  1  0  0  0  0  0  0
  187.4460  176.5330  143.7180 C   0  0  0  0  0  2  0  0  0  0  0  0
  186.3140  177.4840  144.0530 C   0  0  0  0  0  2  0  0  0  0  0  0
  184.3830  178.1370  142.7220 C   0  0  0  0  0  3  0  0  0  0  0  0
  185.6970  177.9790  142.7970 C   0  0  0  0  0  3  0  0  0  0  0  0
  181.5630  178.6340  142.3700 O   0  0  0  0  0  0  0  0  0  0  0  0
  183.7530  178.6110  141.5290 N   0  0  0  0  0  0  0  0  0  0  0  0
  182.3630  178.8360  141.4180 C   0  0  0  0  0  0  0  0  0  0  0  0
  180.5570  179.6010  139.8220 C   0  0  0  0  0  1  0  0  0  0  0  0
  183.0250  179.4690  139.1990 C   0  0  0  0  0  2  0  0  0  0  0  0
  184.6040  178.9870  140.0220 S   0  0  0  0  0  0  0  0  0  0  0  0
  181.9400  179.3060  140.1530 N   0  0  0  0  0  0  0  0  0  0  0  0
  189.7220  178.4430  145.3190 C   0  0  0  0  0  2  0  0  0  0  0  0
  188.8860  178.4920  146.5830 C   0  0  0  0  0  2  0  0  0  0  0  0
  188.6340  177.1050  147.0640 C   0  0  0  0  0  3  0  0  0  0  0  0
  188.1670  176.9200  148.1750 O   0  0  0  0  0  0  0  0  0  0  0  0
  1 20  1  0  0  0  0
  1  3  1  0  0  0  0
  2  6  1  1  0  0  0
  2  4  1  0  0  0  0
  3 31  1  6  0  0  0
  4  3  1  0  0  0  0
  4 17  1  1  0  0  0
  5  2  1  0  0  0  0
  5  1  1  1  0  0  0
  7 15  1  1  0  0  0
  7 13  1  0  0  0  0
  8 11  1  6  0  0  0
  8 16  1  0  0  0  0
  8 13  1  0  0  0  0
  9 12  1  6  0  0  0
  9  5  1  0  0  0  0
 10 11  1  0  0  0  0
 10 14  1  0  0  0  0
 13  9  1  0  0  0  0
 14 15  1  0  0  0  0
 14  7  1  0  0  0  0
 16 12  1  0  0  0  0
 17 18  1  0  0  0  0
 18 19  1  0  0  0  0
 20 21  1  0  0  0  0
 22 23  2  0  0  0  0
 23 21  1  0  0  0  0
 25 22  1  0  0  0  0
 26 25  1  0  0  0  0
 26 24  2  0  0  0  0
 27 30  1  0  0  0  0
 28 29  1  0  0  0  0
 28 30  1  0  0  0  0
 29 25  1  0  0  0  0
 30 26  1  0  0  0  0
 31 32  1  0  0  0  0
 32 33  1  0  0  0  0
 33 34  2  0  0  0  0
M  END
>  <MODEL>
1

>  <REMARK>
 VINA RESULT:      -7.3      0.000      0.000
  Name = 
  10 active torsions:
  status: ('A' for Active; 'I' for Inactive)
    1  A    between atoms: C_3  and  N_13
    2  A    between atoms: C_4  and  C_31
    3  A    between atoms: N_5  and  C_18
    4  A    between atoms: C_7  and  C_8
    5  A    between atoms: C_8  and  C_28
    6  A    between atoms: C_12  and  C_16
    7  A    between atoms: C_16  and  C_23
    8  A    between atoms: C_17  and  C_29
    9  A    between atoms: C_18  and  C_29
   10  A    between atoms: C_23  and  C_26
                            x       y       z     vdW  Elec       q    Type
                         _______ _______ _______ _____ _____    ______ ____

>  <TORSDO>
F 10

$$$$
=
 OpenBabel10272400053D

 34 38  0  0  1  0  0  0  0  0999 V2000
  184.2540  178.2380  140.8680 N   0  0  0  0  0  0  0  0  0  0  0  0
  184.3860  179.4060  138.7540 C   0  0  2  0  0  3  0  0  0  0  0  0
  182.9730  178.0980  140.1800 C   0  0  1  0  0  3  0  0  0  0  0  0
  183.1780  178.4910  138.7320 C   0  0  1  0  0  3  0  0  0  0  0  0
  185.1730  178.9380  139.9660 C   0  0  2  0  0  3  0  0  0  0  0  0
  184.0120  180.7390  138.9530 O   0  0  0  0  0  1  0  0  0  0  0  0
  185.9440  176.9940  137.2460 C   0  0  2  0  0  3  0  0  0  0  0  0
  188.0540  177.9110  138.0390 C   0  0  2  0  0  3  0  0  0  0  0  0
  186.3120  178.0050  139.5490 C   0  0  2  0  0  3  0  0  0  0  0  0
  187.6390  177.9540  135.5300 C   0  0  0  0  0  2  0  0  0  0  0  0
  188.5910  178.3420  136.6810 C   0  0  0  0  0  2  0  0  0  0  0  0
  187.6410  178.4790  140.1410 C   0  0  0  0  0  2  0  0  0  0  0  0
  186.5750  178.1000  138.0790 C   0  0  2  0  0  3  0  0  0  0  0  0
  186.5690  176.8890  135.8780 C   0  0  2  0  0  3  0  0  0  0  0  0
  185.3400  177.5430  136.1000 O   0  0  0  0  0  0  0  0  0  0  0  0
  188.5920  178.6310  139.1080 O   0  0  0  0  0  0  0  0  0  0  0  0
  181.9250  179.1320  138.1390 C   0  0  0  0  0  2  0  0  0  0  0  0
  181.6480  178.5930  136.7460 C   0  0  0  0  0  2  0  0  0  0  0  0
  180.3660  178.0450  136.6940 O   0  0  0  0  0  1  0  0  0  0  0  0
  184.0380  179.1080  142.0140 C   0  0  0  0  0  2  0  0  0  0  0  0
  184.2450  178.3270  143.2970 C   0  0  0  0  0  2  0  0  0  0  0  0
  186.2030  177.9320  144.6890 C   0  0  0  0  0  3  0  0  0  0  0  0
  185.6910  178.0390  143.4710 C   0  0  0  0  0  3  0  0  0  0  0  0
  187.4900  177.4980  147.2340 O   0  0  0  0  0  0  0  0  0  0  0  0
  187.5910  177.6550  144.8960 N   0  0  0  0  0  0  0  0  0  0  0  0
  188.1640  177.4520  146.1700 C   0  0  0  0  0  0  0  0  0  0  0  0
  190.3420  176.9520  147.3550 C   0  0  0  0  0  1  0  0  0  0  0  0
  190.1330  177.1810  144.8250 C   0  0  0  0  0  2  0  0  0  0  0  0
  188.7940  177.5250  143.6030 S   0  0  0  0  0  0  0  0  0  0  0  0
  189.5540  177.1890  146.1580 N   0  0  0  0  0  0  0  0  0  0  0  0
  182.5020  176.6540  140.2780 C   0  0  0  0  0  2  0  0  0  0  0  0
  182.9040  175.8780  139.0390 C   0  0  0  0  0  2  0  0  0  0  0  0
  181.7080  175.1980  138.4710 C   0  0  0  0  0  3  0  0  0  0  0  0
  180.5910  175.5210  138.8380 O   0  0  0  0  0  0  0  0  0  0  0  0
  1 20  1  0  0  0  0
  2  6  1  1  0  0  0
  2  5  1  0  0  0  0
  3 31  1  6  0  0  0
  3  1  1  0  0  0  0
  4 17  1  1  0  0  0
  4  2  1  0  0  0  0
  4  3  1  0  0  0  0
  5  1  1  1  0  0  0
  7 15  1  6  0  0  0
  7 13  1  0  0  0  0
  8 11  1  6  0  0  0
  8 13  1  0  0  0  0
  8 16  1  0  0  0  0
  9  5  1  0  0  0  0
  9 12  1  1  0  0  0
 10 14  1  0  0  0  0
 10 11  1  0  0  0  0
 13  9  1  0  0  0  0
 14 15  1  0  0  0  0
 14  7  1  0  0  0  0
 16 12  1  0  0  0  0
 18 17  1  0  0  0  0
 19 18  1  0  0  0  0
 20 21  1  0  0  0  0
 21 23  1  0  0  0  0
 22 25  1  0  0  0  0
 23 22  2  0  0  0  0
 25 26  1  0  0  0  0
 26 24  2  0  0  0  0
 28 30  1  0  0  0  0
 29 28  1  0  0  0  0
 29 25  1  0  0  0  0
 30 26  1  0  0  0  0
 30 27  1  0  0  0  0
 32 31  1  0  0  0  0
 33 34  2  0  0  0  0
 33 32  1  0  0  0  0
M  END
>  <MODEL>
2

>  <REMARK>
 VINA RESULT:      -6.6      2.774      7.945
  Name = 
  10 active torsions:
  status: ('A' for Active; 'I' for Inactive)
    1  A    between atoms: C_3  and  N_13
    2  A    between atoms: C_4  and  C_31
    3  A    between atoms: N_5  and  C_18
    4  A    between atoms: C_7  and  C_8
    5  A    between atoms: C_8  and  C_28
    6  A    between atoms: C_12  and  C_16
    7  A    between atoms: C_16  and  C_23
    8  A    between atoms: C_17  and  C_29
    9  A    between atoms: C_18  and  C_29
   10  A    between atoms: C_23  and  C_26
                            x       y       z     vdW  Elec       q    Type
                         _______ _______ _______ _____ _____    ______ ____

>  <TORSDO>
F 10

$$$$
=
 OpenBabel10272400053D

 34 38  0  0  1  0  0  0  0  0999 V2000
  186.5000  177.8230  138.9170 N   0  0  0  0  0  0  0  0  0  0  0  0
  188.4210  178.4150  137.5700 C   0  0  2  0  0  3  0  0  0  0  0  0
  186.2080  177.4960  137.5230 C   0  0  1  0  0  3  0  0  0  0  0  0
  187.5150  177.5100  136.7590 C   0  0  1  0  0  3  0  0  0  0  0  0
  187.8910  178.2820  138.9870 C   0  0  2  0  0  3  0  0  0  0  0  0
  188.2960  179.7490  137.1710 O   0  0  0  0  0  1  0  0  0  0  0  0
  190.4540  176.0890  138.3570 C   0  0  2  0  0  3  0  0  0  0  0  0
  190.8890  177.0180  140.5640 C   0  0  2  0  0  3  0  0  0  0  0  0
  188.7310  177.2880  139.7920 C   0  0  2  0  0  3  0  0  0  0  0  0
  192.8600  176.8530  138.9640 C   0  0  0  0  0  2  0  0  0  0  0  0
  192.3660  177.3160  140.3530 C   0  0  0  0  0  2  0  0  0  0  0  0
  188.9160  177.7780  141.2290 C   0  0  0  0  0  2  0  0  0  0  0  0
  190.1420  177.2470  139.2940 C   0  0  2  0  0  3  0  0  0  0  0  0
  191.9370  175.8500  138.2290 C   0  0  2  0  0  3  0  0  0  0  0  0
  191.1970  176.5520  137.2550 O   0  0  0  0  0  0  0  0  0  0  0  0
  190.2920  177.8150  141.5440 O   0  0  0  0  0  0  0  0  0  0  0  0
  187.3190  177.9620  135.3130 C   0  0  0  0  0  2  0  0  0  0  0  0
  187.5890  176.8210  134.3480 C   0  0  0  0  0  2  0  0  0  0  0  0
  188.6720  176.0640  134.7960 O   0  0  0  0  0  1  0  0  0  0  0  0
  185.6610  178.9550  139.2820 C   0  0  0  0  0  2  0  0  0  0  0  0
  184.5510  178.4930  140.2060 C   0  0  0  0  0  2  0  0  0  0  0  0
  185.1000  177.8930  142.5010 C   0  0  0  0  0  3  0  0  0  0  0  0
  184.8950  178.8490  141.6050 C   0  0  0  0  0  3  0  0  0  0  0  0
  187.2750  176.7520  144.0140 O   0  0  0  0  0  0  0  0  0  0  0  0
  185.4340  178.1970  143.8580 N   0  0  0  0  0  0  0  0  0  0  0  0
  186.5140  177.6030  144.5470 C   0  0  0  0  0  0  0  0  0  0  0  0
  187.7200  177.5600  146.7690 C   0  0  0  0  0  1  0  0  0  0  0  0
  185.6890  179.0260  146.2950 C   0  0  0  0  0  2  0  0  0  0  0  0
  184.5570  179.3510  144.8750 S   0  0  0  0  0  0  0  0  0  0  0  0
  186.6760  178.0410  145.8820 N   0  0  0  0  0  0  0  0  0  0  0  0
  185.5630  176.1200  137.4520 C   0  0  0  0  0  2  0  0  0  0  0  0
  184.2270  176.1950  136.7400 C   0  0  0  0  0  2  0  0  0  0  0  0
  183.1310  176.2260  137.7470 C   0  0  0  0  0  3  0  0  0  0  0  0
  183.1190  175.4170  138.6610 O   0  0  0  0  0  0  0  0  0  0  0  0
  1 20  1  0  0  0  0
  2  6  1  6  0  0  0
  2  5  1  0  0  0  0
  3 31  1  1  0  0  0
  3  1  1  0  0  0  0
  4 17  1  6  0  0  0
  4  3  1  0  0  0  0
  4  2  1  0  0  0  0
  5  1  1  6  0  0  0
  5  9  1  0  0  0  0
  7 15  1  6  0  0  0
  7 13  1  0  0  0  0
  8 11  1  6  0  0  0
  8 16  1  0  0  0  0
  9 12  1  1  0  0  0
 10 11  1  0  0  0  0
 12 16  1  0  0  0  0
 13  9  1  0  0  0  0
 13  8  1  0  0  0  0
 14  7  1  0  0  0  0
 14 10  1  0  0  0  0
 15 14  1  0  0  0  0
 18 19  1  0  0  0  0
 18 17  1  0  0  0  0
 20 21  1  0  0  0  0
 21 23  1  0  0  0  0
 22 25  1  0  0  0  0
 23 22  2  0  0  0  0
 24 26  2  0  0  0  0
 25 26  1  0  0  0  0
 25 29  1  0  0  0  0
 26 30  1  0  0  0  0
 29 28  1  0  0  0  0
 30 28  1  0  0  0  0
 30 27  1  0  0  0  0
 32 31  1  0  0  0  0
 32 33  1  0  0  0  0
 33 34  2  0  0  0  0
M  END
>  <MODEL>
3

>  <REMARK>
 VINA RESULT:      -6.3      2.953      6.855
  Name = 
  10 active torsions:
  status: ('A' for Active; 'I' for Inactive)
    1  A    between atoms: C_3  and  N_13
    2  A    between atoms: C_4  and  C_31
    3  A    between atoms: N_5  and  C_18
    4  A    between atoms: C_7  and  C_8
    5  A    between atoms: C_8  and  C_28
    6  A    between atoms: C_12  and  C_16
    7  A    between atoms: C_16  and  C_23
    8  A    between atoms: C_17  and  C_29
    9  A    between atoms: C_18  and  C_29
   10  A    between atoms: C_23  and  C_26
                            x       y       z     vdW  Elec       q    Type
                         _______ _______ _______ _____ _____    ______ ____

>  <TORSDO>
F 10

$$$$
=
 OpenBabel10272400053D

 34 38  0  0  1  0  0  0  0  0999 V2000
  189.2880  177.1780  138.2910 N   0  0  0  0  0  0  0  0  0  0  0  0
  191.3580  176.6860  139.4430 C   0  0  2  0  0  3  0  0  0  0  0  0
  189.9790  176.1110  137.5690 C   0  0  1  0  0  3  0  0  0  0  0  0
  191.0550  175.5570  138.4780 C   0  0  1  0  0  3  0  0  0  0  0  0
  190.0570  177.4680  139.5050 C   0  0  2  0  0  3  0  0  0  0  0  0
  192.3590  177.5260  138.9450 O   0  0  0  0  0  1  0  0  0  0  0  0
  190.7030  176.1140  142.5910 C   0  0  2  0  0  3  0  0  0  0  0  0
  188.9350  177.7520  142.9300 C   0  0  2  0  0  3  0  0  0  0  0  0
  189.2470  177.0810  140.7440 C   0  0  2  0  0  3  0  0  0  0  0  0
  190.8480  177.7440  144.6070 C   0  0  0  0  0  2  0  0  0  0  0  0
  189.5360  178.4230  144.1570 C   0  0  0  0  0  2  0  0  0  0  0  0
  188.0460  178.0130  140.9170 C   0  0  0  0  0  2  0  0  0  0  0  0
  190.0240  177.3400  141.9980 C   0  0  2  0  0  3  0  0  0  0  0  0
  191.0980  176.3280  144.0300 C   0  0  2  0  0  3  0  0  0  0  0  0
  192.0200  176.4330  142.9680 O   0  0  0  0  0  0  0  0  0  0  0  0
  188.0660  178.5760  142.2120 O   0  0  0  0  0  0  0  0  0  0  0  0
  192.2690  175.0750  137.6860 C   0  0  0  0  0  2  0  0  0  0  0  0
  192.2990  175.7020  136.3040 C   0  0  0  0  0  2  0  0  0  0  0  0
  193.5800  176.1780  136.0240 O   0  0  0  0  0  1  0  0  0  0  0  0
  189.3410  178.3700  137.4590 C   0  0  0  0  0  2  0  0  0  0  0  0
  187.9840  178.6160  136.8280 C   0  0  0  0  0  2  0  0  0  0  0  0
  185.6550  178.4580  137.5210 C   0  0  0  0  0  3  0  0  0  0  0  0
  186.9210  178.1300  137.7430 C   0  0  0  0  0  3  0  0  0  0  0  0
  184.8380  179.6920  139.9970 O   0  0  0  0  0  0  0  0  0  0  0  0
  184.6030  178.0090  138.3800 N   0  0  0  0  0  0  0  0  0  0  0  0
  184.2490  178.6570  139.5830 C   0  0  0  0  0  0  0  0  0  0  0  0
  182.6560  178.5560  141.5440 C   0  0  0  0  0  1  0  0  0  0  0  0
  182.6460  176.8720  139.6310 C   0  0  0  0  0  2  0  0  0  0  0  0
  183.5920  176.5890  138.0730 S   0  0  0  0  0  0  0  0  0  0  0  0
  183.1800  178.0550  140.2860 N   0  0  0  0  0  0  0  0  0  0  0  0
  188.9820  175.0240  137.1990 C   0  0  0  0  0  2  0  0  0  0  0  0
  188.6150  175.1160  135.7310 C   0  0  0  0  0  2  0  0  0  0  0  0
  187.1580  174.8550  135.5670 C   0  0  0  0  0  3  0  0  0  0  0  0
  186.4170  174.9020  136.5360 O   0  0  0  0  0  0  0  0  0  0  0  0
  2  6  1  6  0  0  0
  2  5  1  0  0  0  0
  3 31  1  1  0  0  0
  3  1  1  0  0  0  0
  3  4  1  0  0  0  0
  4 17  1  6  0  0  0
  4  2  1  0  0  0  0
  5  1  1  6  0  0  0
  5  9  1  0  0  0  0
  7 15  1  6  0  0  0
  7 14  1  0  0  0  0
  8 11  1  1  0  0  0
  9 12  1  1  0  0  0
  9 13  1  0  0  0  0
 11 10  1  0  0  0  0
 12 16  1  0  0  0  0
 13  7  1  0  0  0  0
 13  8  1  0  0  0  0
 14 10  1  0  0  0  0
 15 14  1  0  0  0  0
 16  8  1  0  0  0  0
 18 17  1  0  0  0  0
 19 18  1  0  0  0  0
 20  1  1  0  0  0  0
 21 20  1  0  0  0  0
 21 23  1  0  0  0  0
 22 23  2  0  0  0  0
 22 25  1  0  0  0  0
 25 26  1  0  0  0  0
 26 24  2  0  0  0  0
 26 30  1  0  0  0  0
 28 30  1  0  0  0  0
 29 25  1  0  0  0  0
 29 28  1  0  0  0  0
 30 27  1  0  0  0  0
 32 31  1  0  0  0  0
 33 32  1  0  0  0  0
 33 34  2  0  0  0  0
M  END
>  <MODEL>
4

>  <REMARK>
 VINA RESULT:      -6.2      2.485      6.315
  Name = 
  10 active torsions:
  status: ('A' for Active; 'I' for Inactive)
    1  A    between atoms: C_3  and  N_13
    2  A    between atoms: C_4  and  C_31
    3  A    between atoms: N_5  and  C_18
    4  A    between atoms: C_7  and  C_8
    5  A    between atoms: C_8  and  C_28
    6  A    between atoms: C_12  and  C_16
    7  A    between atoms: C_16  and  C_23
    8  A    between atoms: C_17  and  C_29
    9  A    between atoms: C_18  and  C_29
   10  A    between atoms: C_23  and  C_26
                            x       y       z     vdW  Elec       q    Type
                         _______ _______ _______ _____ _____    ______ ____

>  <TORSDO>
F 10

$$$$
=
 OpenBabel10272400053D

 34 38  0  0  1  0  0  0  0  0999 V2000
  190.7640  176.1070  137.3870 N   0  0  0  0  0  0  0  0  0  0  0  0
  189.3870  174.3590  136.4390 C   0  0  2  0  0  3  0  0  0  0  0  0
  191.5940  175.2900  136.5030 C   0  0  1  0  0  3  0  0  0  0  0  0
  190.6710  174.4560  135.6400 C   0  0  1  0  0  3  0  0  0  0  0  0
  189.3840  175.6260  137.2770 C   0  0  2  0  0  3  0  0  0  0  0  0
  189.4060  173.2560  137.2990 O   0  0  0  0  0  1  0  0  0  0  0  0
  186.1070  175.9190  136.3030 C   0  0  2  0  0  3  0  0  0  0  0  0
  186.7480  178.0980  137.1760 C   0  0  2  0  0  3  0  0  0  0  0  0
  188.5030  176.7010  136.6360 C   0  0  2  0  0  3  0  0  0  0  0  0
  184.4910  177.1750  137.9000 C   0  0  0  0  0  2  0  0  0  0  0  0
  185.5150  178.3230  138.0400 C   0  0  0  0  0  2  0  0  0  0  0  0
  188.9610  178.0970  137.0610 C   0  0  0  0  0  2  0  0  0  0  0  0
  187.1100  176.6510  137.1820 C   0  0  2  0  0  3  0  0  0  0  0  0
  184.6840  176.2550  136.6690 C   0  0  2  0  0  3  0  0  0  0  0  0
  185.3130  175.0660  137.0910 O   0  0  0  0  0  0  0  0  0  0  0  0
  187.8710  178.8070  137.6110 O   0  0  0  0  0  0  0  0  0  0  0  0
  191.2910  173.1040  135.2930 C   0  0  0  0  0  2  0  0  0  0  0  0
  192.5240  172.8410  136.1390 C   0  0  0  0  0  2  0  0  0  0  0  0
  193.6570  172.7910  135.3260 O   0  0  0  0  0  1  0  0  0  0  0  0
  191.1980  175.8460  138.7510 C   0  0  0  0  0  2  0  0  0  0  0  0
  191.2070  177.1400  139.5420 C   0  0  0  0  0  2  0  0  0  0  0  0
  189.2070  177.6180  140.8460 C   0  0  0  0  0  3  0  0  0  0  0  0
  190.3650  176.9800  140.7560 C   0  0  0  0  0  3  0  0  0  0  0  0
  186.6840  178.9510  141.2730 O   0  0  0  0  0  0  0  0  0  0  0  0
  188.3690  177.4900  141.9990 N   0  0  0  0  0  0  0  0  0  0  0  0
  187.1410  178.1700  142.1500 C   0  0  0  0  0  0  0  0  0  0  0  0
  185.1890  178.4980  143.7230 C   0  0  0  0  0  1  0  0  0  0  0  0
  187.1680  176.9750  144.2310 C   0  0  0  0  0  2  0  0  0  0  0  0
  188.7350  176.4690  143.3980 S   0  0  0  0  0  0  0  0  0  0  0  0
  186.4640  177.9050  143.3630 N   0  0  0  0  0  0  0  0  0  0  0  0
  192.4560  176.1980  135.6390 C   0  0  0  0  0  2  0  0  0  0  0  0
  193.8200  176.3950  136.2710 C   0  0  0  0  0  2  0  0  0  0  0  0
  194.8180  176.6990  135.2080 C   0  0  0  0  0  3  0  0  0  0  0  0
  195.9060  177.1630  135.5090 O   0  0  0  0  0  0  0  0  0  0  0  0
  1 20  1  0  0  0  0
  2  5  1  0  0  0  0
  2  6  1  1  0  0  0
  3 31  1  6  0  0  0
  3  1  1  0  0  0  0
  4 17  1  1  0  0  0
  4  2  1  0  0  0  0
  4  3  1  0  0  0  0
  5  1  1  6  0  0  0
  7 14  1  0  0  0  0
  7 15  1  1  0  0  0
  7 13  1  0  0  0  0
  8 13  1  0  0  0  0
  8 16  1  0  0  0  0
  8 11  1  1  0  0  0
  9 12  1  1  0  0  0
  9 13  1  0  0  0  0
  9  5  1  0  0  0  0
 10 11  1  0  0  0  0
 12 16  1  0  0  0  0
 14 15  1  0  0  0  0
 14 10  1  0  0  0  0
 17 18  1  0  0  0  0
 19 18  1  0  0  0  0
 20 21  1  0  0  0  0
 21 23  1  0  0  0  0
 22 25  1  0  0  0  0
 23 22  2  0  0  0  0
 24 26  2  0  0  0  0
 25 26  1  0  0  0  0
 25 29  1  0  0  0  0
 26 30  1  0  0  0  0
 29 28  1  0  0  0  0
 30 27  1  0  0  0  0
 30 28  1  0  0  0  0
 31 32  1  0  0  0  0
 33 34  2  0  0  0  0
 33 32  1  0  0  0  0
M  END
>  <MODEL>
5

>  <REMARK>
 VINA RESULT:      -6.1      3.686      7.481
  Name = 
  10 active torsions:
  status: ('A' for Active; 'I' for Inactive)
    1  A    between atoms: C_3  and  N_13
    2  A    between atoms: C_4  and  C_31
    3  A    between atoms: N_5  and  C_18
    4  A    between atoms: C_7  and  C_8
    5  A    between atoms: C_8  and  C_28
    6  A    between atoms: C_12  and  C_16
    7  A    between atoms: C_16  and  C_23
    8  A    between atoms: C_17  and  C_29
    9  A    between atoms: C_18  and  C_29
   10  A    between atoms: C_23  and  C_26
                            x       y       z     vdW  Elec       q    Type
                         _______ _______ _______ _____ _____    ______ ____

>  <TORSDO>
F 10

$$$$
=
 OpenBabel10272400053D

 34 38  0  0  1  0  0  0  0  0999 V2000
  190.7350  176.0750  137.4670 N   0  0  0  0  0  0  0  0  0  0  0  0
  189.3640  174.3370  136.4910 C   0  0  2  0  0  3  0  0  0  0  0  0
  191.5750  175.2580  136.5930 C   0  0  1  0  0  3  0  0  0  0  0  0
  190.6610  174.4330  135.7120 C   0  0  1  0  0  3  0  0  0  0  0  0
  189.3550  175.6010  137.3340 C   0  0  2  0  0  3  0  0  0  0  0  0
  189.3650  173.2310  137.3460 O   0  0  0  0  0  1  0  0  0  0  0  0
  186.0670  175.9550  136.4140 C   0  0  2  0  0  3  0  0  0  0  0  0
  186.7800  178.1370  137.2230 C   0  0  2  0  0  3  0  0  0  0  0  0
  188.4890  176.6830  136.6840 C   0  0  2  0  0  3  0  0  0  0  0  0
  184.5150  177.2890  138.0110 C   0  0  0  0  0  2  0  0  0  0  0  0
  185.5690  178.4130  138.1040 C   0  0  0  0  0  2  0  0  0  0  0  0
  188.9900  178.0760  137.0670 C   0  0  0  0  0  2  0  0  0  0  0  0
  187.1060  176.6820  137.2570 C   0  0  2  0  0  3  0  0  0  0  0  0
  184.6610  176.3360  136.7990 C   0  0  2  0  0  3  0  0  0  0  0  0
  185.2680  175.1410  137.2370 O   0  0  0  0  0  0  0  0  0  0  0  0
  187.9280  178.8260  137.6190 O   0  0  0  0  0  0  0  0  0  0  0  0
  191.2800  173.0790  135.3690 C   0  0  0  0  0  2  0  0  0  0  0  0
  192.5080  172.8130  136.2210 C   0  0  0  0  0  2  0  0  0  0  0  0
  193.0890  171.5980  135.8540 O   0  0  0  0  0  1  0  0  0  0  0  0
  191.1460  175.8070  138.8370 C   0  0  0  0  0  2  0  0  0  0  0  0
  191.3430  177.1140  139.5790 C   0  0  0  0  0  2  0  0  0  0  0  0
  190.8360  177.0950  141.9600 C   0  0  0  0  0  3  0  0  0  0  0  0
  190.3900  177.1840  140.7150 C   0  0  0  0  0  3  0  0  0  0  0  0
  191.6040  177.1070  144.7410 O   0  0  0  0  0  0  0  0  0  0  0  0
  189.9490  177.1590  143.0800 N   0  0  0  0  0  0  0  0  0  0  0  0
  190.3860  177.1610  144.4220 C   0  0  0  0  0  0  0  0  0  0  0  0
  189.5750  177.2440  146.8160 C   0  0  0  0  0  1  0  0  0  0  0  0
  188.0190  177.2850  144.7980 C   0  0  0  0  0  2  0  0  0  0  0  0
  188.1840  177.2450  142.9610 S   0  0  0  0  0  0  0  0  0  0  0  0
  189.3500  177.2300  145.3820 N   0  0  0  0  0  0  0  0  0  0  0  0
  192.4540  176.1660  135.7460 C   0  0  0  0  0  2  0  0  0  0  0  0
  193.7560  176.4640  136.4640 C   0  0  0  0  0  2  0  0  0  0  0  0
  194.8530  175.6650  135.8520 C   0  0  0  0  0  3  0  0  0  0  0  0
  196.0120  176.0270  135.9730 O   0  0  0  0  0  0  0  0  0  0  0  0
  1 20  1  0  0  0  0
  2  5  1  0  0  0  0
  2  6  1  1  0  0  0
  3 31  1  6  0  0  0
  3  1  1  0  0  0  0
  4 17  1  1  0  0  0
  4  2  1  0  0  0  0
  4  3  1  0  0  0  0
  5  1  1  6  0  0  0
  7 14  1  0  0  0  0
  7 15  1  1  0  0  0
  7 13  1  0  0  0  0
  8 13  1  0  0  0  0
  8 16  1  0  0  0  0
  8 11  1  1  0  0  0
  9 12  1  1  0  0  0
  9 13  1  0  0  0  0
  9  5  1  0  0  0  0
 10 11  1  0  0  0  0
 12 16  1  0  0  0  0
 14 15  1  0  0  0  0
 14 10  1  0  0  0  0
 17 18  1  0  0  0  0
 19 18  1  0  0  0  0
 20 21  1  0  0  0  0
 21 23  1  0  0  0  0
 22 25  1  0  0  0  0
 23 22  2  0  0  0  0
 25 26  1  0  0  0  0
 26 24  2  0  0  0  0
 26 30  1  0  0  0  0
 28 30  1  0  0  0  0
 29 25  1  0  0  0  0
 29 28  1  0  0  0  0
 30 27  1  0  0  0  0
 31 32  1  0  0  0  0
 33 34  2  0  0  0  0
 33 32  1  0  0  0  0
M  END
>  <MODEL>
6

>  <REMARK>
 VINA RESULT:      -5.9      3.355      8.013
  Name = 
  10 active torsions:
  status: ('A' for Active; 'I' for Inactive)
    1  A    between atoms: C_3  and  N_13
    2  A    between atoms: C_4  and  C_31
    3  A    between atoms: N_5  and  C_18
    4  A    between atoms: C_7  and  C_8
    5  A    between atoms: C_8  and  C_28
    6  A    between atoms: C_12  and  C_16
    7  A    between atoms: C_16  and  C_23
    8  A    between atoms: C_17  and  C_29
    9  A    between atoms: C_18  and  C_29
   10  A    between atoms: C_23  and  C_26
                            x       y       z     vdW  Elec       q    Type
                         _______ _______ _______ _____ _____    ______ ____

>  <TORSDO>
F 10

$$$$
=
 OpenBabel10272400053D

 34 38  0  0  1  0  0  0  0  0999 V2000
  183.0150  177.5170  139.8030 N   0  0  0  0  0  0  0  0  0  0  0  0
  183.5520  179.3980  138.3800 C   0  0  2  0  0  3  0  0  0  0  0  0
  181.9010  178.4630  139.8430 C   0  0  1  0  0  3  0  0  0  0  0  0
  182.0680  179.4270  138.6880 C   0  0  1  0  0  3  0  0  0  0  0  0
  183.9880  178.0130  138.8270 C   0  0  2  0  0  3  0  0  0  0  0  0
  184.2470  180.3480  139.1340 O   0  0  0  0  0  1  0  0  0  0  0  0
  186.0050  177.6050  136.0790 C   0  0  2  0  0  3  0  0  0  0  0  0
  185.4070  175.3640  136.8160 C   0  0  2  0  0  3  0  0  0  0  0  0
  184.0690  177.0560  137.6350 C   0  0  2  0  0  3  0  0  0  0  0  0
  187.8420  175.7750  136.2040 C   0  0  0  0  0  2  0  0  0  0  0  0
  186.8050  174.7650  136.7420 C   0  0  0  0  0  2  0  0  0  0  0  0
  183.5750  175.6630  138.0270 C   0  0  0  0  0  2  0  0  0  0  0  0
  185.4920  176.7870  137.2560 C   0  0  2  0  0  3  0  0  0  0  0  0
  187.2550  177.0130  135.4810 C   0  0  2  0  0  3  0  0  0  0  0  0
  187.2860  178.1080  136.3690 O   0  0  0  0  0  0  0  0  0  0  0  0
  184.5630  174.7040  137.7130 O   0  0  0  0  0  0  0  0  0  0  0  0
  181.5320  180.8150  139.0280 C   0  0  0  0  0  2  0  0  0  0  0  0
  181.1310  181.5650  137.7700 C   0  0  0  0  0  2  0  0  0  0  0  0
  181.0040  182.9260  138.0460 O   0  0  0  0  0  1  0  0  0  0  0  0
  183.6620  177.5550  141.1060 C   0  0  0  0  0  2  0  0  0  0  0  0
  183.0950  178.6960  141.9280 C   0  0  0  0  0  2  0  0  0  0  0  0
  184.9410  178.1230  143.4080 C   0  0  0  0  0  3  0  0  0  0  0  0
  183.7810  178.7440  143.2430 C   0  0  0  0  0  3  0  0  0  0  0  0
  187.6160  177.1580  143.8930 O   0  0  0  0  0  0  0  0  0  0  0  0
  185.6320  178.1470  144.6600 N   0  0  0  0  0  0  0  0  0  0  0  0
  186.9450  177.6580  144.8350 C   0  0  0  0  0  0  0  0  0  0  0  0
  188.7730  177.3350  146.5520 C   0  0  0  0  0  1  0  0  0  0  0  0
  186.5100  178.3800  147.0820 C   0  0  0  0  0  2  0  0  0  0  0  0
  184.9600  178.7860  146.1680 S   0  0  0  0  0  0  0  0  0  0  0  0
  187.4490  177.7750  146.1520 N   0  0  0  0  0  0  0  0  0  0  0  0
  180.5890  177.7040  139.7190 C   0  0  0  0  0  2  0  0  0  0  0  0
  180.7690  176.2590  140.1390 C   0  0  0  0  0  2  0  0  0  0  0  0
  179.9880  175.3770  139.2280 C   0  0  0  0  0  3  0  0  0  0  0  0
  180.0760  175.5180  138.0200 O   0  0  0  0  0  0  0  0  0  0  0  0
  1  3  1  0  0  0  0
  1 20  1  0  0  0  0
  2  4  1  0  0  0  0
  2  5  1  0  0  0  0
  2  6  1  1  0  0  0
  3 31  1  6  0  0  0
  4 17  1  1  0  0  0
  4  3  1  0  0  0  0
  5  1  1  1  0  0  0
  7 15  1  1  0  0  0
  7 13  1  0  0  0  0
  8 11  1  1  0  0  0
  8 13  1  0  0  0  0
  8 16  1  0  0  0  0
  9 12  1  1  0  0  0
  9  5  1  0  0  0  0
 10 11  1  0  0  0  0
 13  9  1  0  0  0  0
 14  7  1  0  0  0  0
 14 10  1  0  0  0  0
 14 15  1  0  0  0  0
 16 12  1  0  0  0  0
 18 19  1  0  0  0  0
 18 17  1  0  0  0  0
 20 21  1  0  0  0  0
 21 23  1  0  0  0  0
 22 25  1  0  0  0  0
 23 22  2  0  0  0  0
 24 26  2  0  0  0  0
 25 26  1  0  0  0  0
 25 29  1  0  0  0  0
 26 30  1  0  0  0  0
 29 28  1  0  0  0  0
 30 27  1  0  0  0  0
 30 28  1  0  0  0  0
 31 32  1  0  0  0  0
 33 32  1  0  0  0  0
 34 33  2  0  0  0  0
M  END
>  <MODEL>
7

>  <REMARK>
 VINA RESULT:      -5.9      3.422      8.327
  Name = 
  10 active torsions:
  status: ('A' for Active; 'I' for Inactive)
    1  A    between atoms: C_3  and  N_13
    2  A    between atoms: C_4  and  C_31
    3  A    between atoms: N_5  and  C_18
    4  A    between atoms: C_7  and  C_8
    5  A    between atoms: C_8  and  C_28
    6  A    between atoms: C_12  and  C_16
    7  A    between atoms: C_16  and  C_23
    8  A    between atoms: C_17  and  C_29
    9  A    between atoms: C_18  and  C_29
   10  A    between atoms: C_23  and  C_26
                            x       y       z     vdW  Elec       q    Type
                         _______ _______ _______ _____ _____    ______ ____

>  <TORSDO>
F 10

$$$$
=
 OpenBabel10272400053D

 34 38  0  0  1  0  0  0  0  0999 V2000
  182.7130  177.9910  140.1920 N   0  0  0  0  0  0  0  0  0  0  0  0
  182.7760  179.6410  138.4230 C   0  0  2  0  0  3  0  0  0  0  0  0
  181.5510  178.8680  140.3320 C   0  0  1  0  0  3  0  0  0  0  0  0
  181.3910  179.6360  139.0380 C   0  0  1  0  0  3  0  0  0  0  0  0
  183.4170  178.3740  138.9650 C   0  0  2  0  0  3  0  0  0  0  0  0
  183.5230  180.7390  138.8600 O   0  0  0  0  0  1  0  0  0  0  0  0
  185.1920  177.3670  136.2050 C   0  0  2  0  0  3  0  0  0  0  0  0
  184.4730  175.3290  137.3250 C   0  0  2  0  0  3  0  0  0  0  0  0
  183.3360  177.2410  137.9390 C   0  0  2  0  0  3  0  0  0  0  0  0
  186.8830  175.4210  136.5140 C   0  0  0  0  0  2  0  0  0  0  0  0
  185.8100  174.6030  137.2660 C   0  0  0  0  0  2  0  0  0  0  0  0
  182.7630  175.9750  138.5780 C   0  0  0  0  0  2  0  0  0  0  0  0
  184.7010  176.7900  137.5250 C   0  0  2  0  0  3  0  0  0  0  0  0
  186.3450  176.5800  135.6380 C   0  0  2  0  0  3  0  0  0  0  0  0
  186.5270  177.7920  136.3350 O   0  0  0  0  0  0  0  0  0  0  0  0
  183.6470  174.8940  138.3640 O   0  0  0  0  0  0  0  0  0  0  0  0
  180.8140  181.0300  139.2780 C   0  0  0  0  0  2  0  0  0  0  0  0
  180.4230  181.6870  137.9660 C   0  0  0  0  0  2  0  0  0  0  0  0
  181.0620  182.9220  137.8430 O   0  0  0  0  0  1  0  0  0  0  0  0
  183.6090  178.2780  141.3030 C   0  0  0  0  0  2  0  0  0  0  0  0
  184.9640  178.7030  140.7720 C   0  0  0  0  0  2  0  0  0  0  0  0
  185.6710  178.3020  143.0670 C   0  0  0  0  0  3  0  0  0  0  0  0
  186.0050  178.4090  141.7880 C   0  0  0  0  0  3  0  0  0  0  0  0
  185.3220  178.6310  145.9110 O   0  0  0  0  0  0  0  0  0  0  0  0
  186.6460  178.0190  144.0750 N   0  0  0  0  0  0  0  0  0  0  0  0
  186.4150  178.2020  145.4550 C   0  0  0  0  0  0  0  0  0  0  0  0
  187.4860  177.9730  147.7350 C   0  0  0  0  0  1  0  0  0  0  0  0
  188.6700  177.3870  145.5550 C   0  0  0  0  0  2  0  0  0  0  0  0
  188.2750  177.4030  143.7530 S   0  0  0  0  0  0  0  0  0  0  0  0
  187.5070  177.8620  146.2870 N   0  0  0  0  0  0  0  0  0  0  0  0
  180.3150  178.0260  140.6090 C   0  0  0  0  0  2  0  0  0  0  0  0
  179.9820  178.0410  142.0880 C   0  0  0  0  0  2  0  0  0  0  0  0
  180.1900  179.4120  142.6290 C   0  0  0  0  0  3  0  0  0  0  0  0
  181.1040  179.6280  143.4080 O   0  0  0  0  0  0  0  0  0  0  0  0
  1  3  1  0  0  0  0
  1 20  1  0  0  0  0
  2  6  1  1  0  0  0
  2  5  1  0  0  0  0
  2  4  1  0  0  0  0
  3 31  1  6  0  0  0
  4 17  1  1  0  0  0
  4  3  1  0  0  0  0
  5  1  1  1  0  0  0
  7 15  1  1  0  0  0
  7 13  1  0  0  0  0
  8 11  1  1  0  0  0
  8 13  1  0  0  0  0
  8 16  1  0  0  0  0
  9 12  1  1  0  0  0
  9  5  1  0  0  0  0
 10 11  1  0  0  0  0
 13  9  1  0  0  0  0
 14  7  1  0  0  0  0
 14 15  1  0  0  0  0
 14 10  1  0  0  0  0
 16 12  1  0  0  0  0
 18 17  1  0  0  0  0
 19 18  1  0  0  0  0
 21 20  1  0  0  0  0
 21 23  1  0  0  0  0
 22 25  1  0  0  0  0
 23 22  2  0  0  0  0
 25 26  1  0  0  0  0
 26 24  2  0  0  0  0
 26 30  1  0  0  0  0
 28 30  1  0  0  0  0
 29 25  1  0  0  0  0
 29 28  1  0  0  0  0
 30 27  1  0  0  0  0
 31 32  1  0  0  0  0
 32 33  1  0  0  0  0
 33 34  2  0  0  0  0
M  END
>  <MODEL>
8

>  <REMARK>
 VINA RESULT:      -5.9      3.545      8.253
  Name = 
  10 active torsions:
  status: ('A' for Active; 'I' for Inactive)
    1  A    between atoms: C_3  and  N_13
    2  A    between atoms: C_4  and  C_31
    3  A    between atoms: N_5  and  C_18
    4  A    between atoms: C_7  and  C_8
    5  A    between atoms: C_8  and  C_28
    6  A    between atoms: C_12  and  C_16
    7  A    between atoms: C_16  and  C_23
    8  A    between atoms: C_17  and  C_29
    9  A    between atoms: C_18  and  C_29
   10  A    between atoms: C_23  and  C_26
                            x       y       z     vdW  Elec       q    Type
                         _______ _______ _______ _____ _____    ______ ____

>  <TORSDO>
F 10

$$$$
=
 OpenBabel10272400053D

 34 38  0  0  1  0  0  0  0  0999 V2000
  190.6170  176.9640  142.2730 N   0  0  0  0  0  0  0  0  0  0  0  0
  189.9290  178.4160  144.0820 C   0  0  2  0  0  3  0  0  0  0  0  0
  191.3250  176.5620  143.4870 C   0  0  1  0  0  3  0  0  0  0  0  0
  190.6270  177.2050  144.6670 C   0  0  1  0  0  3  0  0  0  0  0  0
  189.6720  178.0240  142.6370 C   0  0  2  0  0  3  0  0  0  0  0  0
  190.7600  179.5400  144.0980 O   0  0  0  0  0  1  0  0  0  0  0  0
  187.0850  177.0460  144.6680 C   0  0  2  0  0  3  0  0  0  0  0  0
  186.0670  178.2380  142.8060 C   0  0  2  0  0  3  0  0  0  0  0  0
  188.2350  177.5310  142.4530 C   0  0  2  0  0  3  0  0  0  0  0  0
  185.2120  178.7800  145.1400 C   0  0  0  0  0  2  0  0  0  0  0  0
  185.1250  179.1030  143.6320 C   0  0  0  0  0  2  0  0  0  0  0  0
  187.6030  178.1620  141.2110 C   0  0  0  0  0  2  0  0  0  0  0  0
  187.3470  178.0390  143.5460 C   0  0  2  0  0  3  0  0  0  0  0  0
  185.8860  177.4320  145.4960 C   0  0  2  0  0  3  0  0  0  0  0  0
  187.2080  177.6880  145.9140 O   0  0  0  0  0  0  0  0  0  0  0  0
  186.3880  178.7900  141.5640 O   0  0  0  0  0  0  0  0  0  0  0  0
  191.6070  177.5350  145.7910 C   0  0  0  0  0  2  0  0  0  0  0  0
  191.1570  176.9130  147.1020 C   0  0  0  0  0  2  0  0  0  0  0  0
  192.2440  176.7940  147.9690 O   0  0  0  0  0  1  0  0  0  0  0  0
  191.5970  177.5580  141.3770 C   0  0  0  0  0  2  0  0  0  0  0  0
  191.0210  177.6540  139.9780 C   0  0  0  0  0  2  0  0  0  0  0  0
  192.3990  176.3600  138.4420 C   0  0  0  0  0  3  0  0  0  0  0  0
  191.3340  176.4090  139.2310 C   0  0  0  0  0  3  0  0  0  0  0  0
  194.9810  175.0770  138.3660 O   0  0  0  0  0  0  0  0  0  0  0  0
  192.7320  175.1800  137.7070 N   0  0  0  0  0  0  0  0  0  0  0  0
  194.0190  174.5980  137.7090 C   0  0  0  0  0  0  0  0  0  0  0  0
  195.3730  172.6760  136.7770 C   0  0  0  0  0  1  0  0  0  0  0  0
  192.9090  173.0530  136.2460 C   0  0  0  0  0  2  0  0  0  0  0  0
  191.6000  174.2730  136.6920 S   0  0  0  0  0  0  0  0  0  0  0  0
  194.1410  173.4320  136.9180 N   0  0  0  0  0  0  0  0  0  0  0  0
  191.2940  175.0460  143.6110 C   0  0  0  0  0  2  0  0  0  0  0  0
  192.3030  174.5750  144.6400 C   0  0  0  0  0  2  0  0  0  0  0  0
  192.1520  173.1080  144.8460 C   0  0  0  0  0  3  0  0  0  0  0  0
  191.4160  172.4630  144.1170 O   0  0  0  0  0  0  0  0  0  0  0  0
  1  3  1  0  0  0  0
  2  6  1  6  0  0  0
  2  4  1  0  0  0  0
  3 31  1  1  0  0  0
  3  4  1  0  0  0  0
  4 17  1  1  0  0  0
  5  1  1  1  0  0  0
  5  2  1  0  0  0  0
  7 14  1  0  0  0  0
  7 15  1  1  0  0  0
  8 13  1  0  0  0  0
  8 11  1  1  0  0  0
  9 12  1  6  0  0  0
  9  5  1  0  0  0  0
  9 13  1  0  0  0  0
 10 14  1  0  0  0  0
 11 10  1  0  0  0  0
 12 16  1  0  0  0  0
 13  7  1  0  0  0  0
 14 15  1  0  0  0  0
 16  8  1  0  0  0  0
 17 18  1  0  0  0  0
 18 19  1  0  0  0  0
 20  1  1  0  0  0  0
 21 20  1  0  0  0  0
 22 23  2  0  0  0  0
 23 21  1  0  0  0  0
 25 26  1  0  0  0  0
 25 22  1  0  0  0  0
 26 24  2  0  0  0  0
 27 30  1  0  0  0  0
 28 29  1  0  0  0  0
 28 30  1  0  0  0  0
 29 25  1  0  0  0  0
 30 26  1  0  0  0  0
 31 32  1  0  0  0  0
 32 33  1  0  0  0  0
 34 33  2  0  0  0  0
M  END
>  <MODEL>
9

>  <REMARK>
 VINA RESULT:      -5.7      3.492      7.587
  Name = 
  10 active torsions:
  status: ('A' for Active; 'I' for Inactive)
    1  A    between atoms: C_3  and  N_13
    2  A    between atoms: C_4  and  C_31
    3  A    between atoms: N_5  and  C_18
    4  A    between atoms: C_7  and  C_8
    5  A    between atoms: C_8  and  C_28
    6  A    between atoms: C_12  and  C_16
    7  A    between atoms: C_16  and  C_23
    8  A    between atoms: C_17  and  C_29
    9  A    between atoms: C_18  and  C_29
   10  A    between atoms: C_23  and  C_26
                            x       y       z     vdW  Elec       q    Type
                         _______ _______ _______ _____ _____    ______ ____

>  <TORSDO>
F 10

$$$$
