=
 OpenBabel10272401103D

 27 30  0  0  1  0  0  0  0  0999 V2000
  188.8950  177.3620  144.0770 N   0  0  0  0  0  0  0  0  0  0  0  0
  187.9650  175.5010  143.0170 O   0  0  0  0  0  0  0  0  0  0  0  0
  188.5320  176.6210  142.8910 C   0  0  0  0  0  0  0  0  0  0  0  0
  189.2070  178.1150  138.9490 C   0  0  0  0  0  3  0  0  0  0  0  0
  191.3610  176.8860  138.7390 C   0  0  0  0  0  1  0  0  0  0  0  0
  189.9460  176.7580  140.8110 C   0  0  0  0  0  0  0  0  0  0  0  0
  190.8740  175.9370  141.3690 F   0  0  0  0  0  0  0  0  0  0  0  0
  188.7930  177.1380  141.5250 C   0  0  0  0  0  0  0  0  0  0  0  0
  190.1480  177.2570  139.5170 C   0  0  0  0  0  0  0  0  0  0  0  0
  187.8930  177.9740  140.9340 N   0  0  0  0  0  0  0  0  0  0  0  0
  188.0730  178.4650  139.6800 C   0  0  0  0  0  3  0  0  0  0  0  0
  190.1410  179.0090  145.3440 N   0  0  0  0  0  2  0  0  0  0  0  0
  189.7340  178.5670  144.0010 C   0  0  1  0  0  3  0  0  0  0  0  0
  191.1350  178.3790  144.4570 C   0  0  2  0  0  3  0  0  0  0  0  0
  192.2130  174.7340  144.5310 C   0  0  0  0  0  3  0  0  0  0  0  0
  192.3620  174.5070  145.9010 C   0  0  0  0  0  3  0  0  0  0  0  0
  191.8030  175.9880  144.0700 C   0  0  0  0  0  3  0  0  0  0  0  0
  192.1080  175.5380  146.8110 C   0  0  0  0  0  3  0  0  0  0  0  0
  191.6950  176.7900  146.3500 C   0  0  0  0  0  3  0  0  0  0  0  0
  191.5130  177.0160  144.9760 C   0  0  0  0  0  0  0  0  0  0  0  0
  188.1460  177.1070  145.3080 C   0  0  0  0  0  2  0  0  0  0  0  0
  184.2680  178.9440  145.1890 C   0  0  0  0  0  3  0  0  0  0  0  0
  186.7940  177.7420  145.2600 C   0  0  0  0  0  0  0  0  0  0  0  0
  186.1380  178.0670  146.4520 C   0  0  0  0  0  3  0  0  0  0  0  0
  184.8760  178.6660  146.4170 C   0  0  0  0  0  3  0  0  0  0  0  0
  184.9230  178.6240  143.9970 C   0  0  0  0  0  3  0  0  0  0  0  0
  186.1860  178.0250  144.0320 C   0  0  0  0  0  3  0  0  0  0  0  0
  1 21  1  0  0  0  0
  3  2  2  0  0  0  0
  3  1  1  0  0  0  0
  4  9  2  0  0  0  0
  4 11  1  0  0  0  0
  5  9  1  0  0  0  0
  6  7  1  0  0  0  0
  6  8  2  0  0  0  0
  8  3  1  0  0  0  0
  9  6  1  0  0  0  0
 10  8  1  0  0  0  0
 11 10  2  0  0  0  0
 13  1  1  1  0  0  0
 13 14  1  0  0  0  0
 13 12  1  0  0  0  0
 14 20  1  1  0  0  0
 14 12  1  0  0  0  0
 15 16  1  0  0  0  0
 16 18  2  0  0  0  0
 17 15  2  0  0  0  0
 17 20  1  0  0  0  0
 19 18  1  0  0  0  0
 20 19  2  0  0  0  0
 22 25  1  0  0  0  0
 23 21  1  0  0  0  0
 23 24  1  0  0  0  0
 25 24  2  0  0  0  0
 26 27  1  0  0  0  0
 26 22  2  0  0  0  0
 27 23  2  0  0  0  0
M  END
>  <MODEL>
1

>  <REMARK>
 VINA RESULT:      -7.9      0.000      0.000
  Name = 
  5 active torsions:
  status: ('A' for Active; 'I' for Inactive)
    1  A    between atoms: N_2  and  C_6
    2  A    between atoms: N_2  and  C_15
    3  A    between atoms: C_6  and  C_9
    4  A    between atoms: C_14  and  C_19
    5  A    between atoms: C_18  and  C_26
                            x       y       z     vdW  Elec       q    Type
                         _______ _______ _______ _____ _____    ______ ____

>  <TORSDO>
F 5

$$$$
=
 OpenBabel10272401103D

 27 30  0  0  1  0  0  0  0  0999 V2000
  189.0310  177.3000  143.8530 N   0  0  0  0  0  0  0  0  0  0  0  0
  188.3380  175.2820  142.9050 O   0  0  0  0  0  0  0  0  0  0  0  0
  188.8750  176.4090  142.7250 C   0  0  0  0  0  0  0  0  0  0  0  0
  190.2160  177.4740  138.8150 C   0  0  0  0  0  3  0  0  0  0  0  0
  188.1250  178.7340  138.3270 C   0  0  0  0  0  1  0  0  0  0  0  0
  188.5030  177.5700  140.5220 C   0  0  0  0  0  0  0  0  0  0  0  0
  187.2730  177.9810  140.9270 F   0  0  0  0  0  0  0  0  0  0  0  0
  189.3160  176.7800  141.3580 C   0  0  0  0  0  0  0  0  0  0  0  0
  188.9630  177.9110  139.2420 C   0  0  0  0  0  0  0  0  0  0  0  0
  190.5380  176.3770  140.9080 N   0  0  0  0  0  0  0  0  0  0  0  0
  190.9980  176.7010  139.6710 C   0  0  0  0  0  3  0  0  0  0  0  0
  190.1810  179.0400  145.0860 N   0  0  0  0  0  2  0  0  0  0  0  0
  189.8250  178.5330  143.7510 C   0  0  1  0  0  3  0  0  0  0  0  0
  191.2200  178.4150  144.2490 C   0  0  2  0  0  3  0  0  0  0  0  0
  191.9920  175.6830  146.7760 C   0  0  0  0  0  3  0  0  0  0  0  0
  192.2630  174.5930  145.9460 C   0  0  0  0  0  3  0  0  0  0  0  0
  191.6670  176.9220  146.2200 C   0  0  0  0  0  3  0  0  0  0  0  0
  192.2000  174.7400  144.5570 C   0  0  0  0  0  3  0  0  0  0  0  0
  191.8780  175.9810  144.0010 C   0  0  0  0  0  3  0  0  0  0  0  0
  191.6350  177.0890  144.8290 C   0  0  0  0  0  0  0  0  0  0  0  0
  188.1180  177.1470  144.9860 C   0  0  0  0  0  2  0  0  0  0  0  0
  184.4240  179.2210  144.2930 C   0  0  0  0  0  3  0  0  0  0  0  0
  186.8350  177.8760  144.7500 C   0  0  0  0  0  0  0  0  0  0  0  0
  186.2450  177.8480  143.4810 C   0  0  0  0  0  3  0  0  0  0  0  0
  185.0410  178.5210  143.2530 C   0  0  0  0  0  3  0  0  0  0  0  0
  185.0080  179.2470  145.5620 C   0  0  0  0  0  3  0  0  0  0  0  0
  186.2130  178.5740  145.7900 C   0  0  0  0  0  3  0  0  0  0  0  0
  1 21  1  0  0  0  0
  3  2  2  0  0  0  0
  3  1  1  0  0  0  0
  4  9  2  0  0  0  0
  4 11  1  0  0  0  0
  5  9  1  0  0  0  0
  6  7  1  0  0  0  0
  6  8  2  0  0  0  0
  8  3  1  0  0  0  0
  9  6  1  0  0  0  0
 10  8  1  0  0  0  0
 11 10  2  0  0  0  0
 13  1  1  1  0  0  0
 13 14  1  0  0  0  0
 13 12  1  0  0  0  0
 14 20  1  1  0  0  0
 14 12  1  0  0  0  0
 16 15  2  0  0  0  0
 17 15  1  0  0  0  0
 18 16  1  0  0  0  0
 19 18  2  0  0  0  0
 19 20  1  0  0  0  0
 20 17  2  0  0  0  0
 22 26  1  0  0  0  0
 23 21  1  0  0  0  0
 23 27  1  0  0  0  0
 24 23  2  0  0  0  0
 25 24  1  0  0  0  0
 25 22  2  0  0  0  0
 26 27  2  0  0  0  0
M  END
>  <MODEL>
2

>  <REMARK>
 VINA RESULT:      -7.4      1.163      2.017
  Name = 
  5 active torsions:
  status: ('A' for Active; 'I' for Inactive)
    1  A    between atoms: N_2  and  C_6
    2  A    between atoms: N_2  and  C_15
    3  A    between atoms: C_6  and  C_9
    4  A    between atoms: C_14  and  C_19
    5  A    between atoms: C_18  and  C_26
                            x       y       z     vdW  Elec       q    Type
                         _______ _______ _______ _____ _____    ______ ____

>  <TORSDO>
F 5

$$$$
=
 OpenBabel10272401103D

 27 30  0  0  1  0  0  0  0  0999 V2000
  189.4780  176.9970  143.4080 N   0  0  0  0  0  0  0  0  0  0  0  0
  187.9660  175.2210  143.3030 O   0  0  0  0  0  0  0  0  0  0  0  0
  188.1370  176.4610  143.4630 C   0  0  0  0  0  0  0  0  0  0  0  0
  184.7440  178.9680  144.1170 C   0  0  0  0  0  3  0  0  0  0  0  0
  184.8740  178.6770  146.5860 C   0  0  0  0  0  1  0  0  0  0  0  0
  186.5000  177.5710  145.0220 C   0  0  0  0  0  0  0  0  0  0  0  0
  187.1120  177.0020  146.0940 F   0  0  0  0  0  0  0  0  0  0  0  0
  186.9530  177.3180  143.7120 C   0  0  0  0  0  0  0  0  0  0  0  0
  185.3860  178.3980  145.2160 C   0  0  0  0  0  0  0  0  0  0  0  0
  186.3030  177.8980  142.6630 N   0  0  0  0  0  0  0  0  0  0  0  0
  185.2220  178.7040  142.8350 C   0  0  0  0  0  3  0  0  0  0  0  0
  191.0680  178.7430  142.8650 N   0  0  0  0  0  2  0  0  0  0  0  0
  189.7220  178.4470  143.3830 C   0  0  1  0  0  3  0  0  0  0  0  0
  189.8910  179.0250  142.0250 C   0  0  2  0  0  3  0  0  0  0  0  0
  188.6230  177.1590  138.9650 C   0  0  0  0  0  3  0  0  0  0  0  0
  189.7480  176.4190  138.5950 C   0  0  0  0  0  3  0  0  0  0  0  0
  188.6720  177.9920  140.0860 C   0  0  0  0  0  3  0  0  0  0  0  0
  190.9260  176.5190  139.3400 C   0  0  0  0  0  3  0  0  0  0  0  0
  190.9740  177.3490  140.4630 C   0  0  0  0  0  3  0  0  0  0  0  0
  189.8370  178.0720  140.8590 C   0  0  0  0  0  0  0  0  0  0  0  0
  190.5930  176.1050  143.7230 C   0  0  0  0  0  2  0  0  0  0  0  0
  191.7030  176.3750  147.8620 C   0  0  0  0  0  3  0  0  0  0  0  0
  190.9710  176.1990  145.1660 C   0  0  0  0  0  0  0  0  0  0  0  0
  192.0520  175.4550  145.6500 C   0  0  0  0  0  3  0  0  0  0  0  0
  192.4170  175.5420  146.9960 C   0  0  0  0  0  3  0  0  0  0  0  0
  190.6250  177.1230  147.3800 C   0  0  0  0  0  3  0  0  0  0  0  0
  190.2600  177.0360  146.0330 C   0  0  0  0  0  3  0  0  0  0  0  0
  1  3  1  0  0  0  0
  1 21  1  0  0  0  0
  2  3  2  0  0  0  0
  3  8  1  0  0  0  0
  4  9  1  0  0  0  0
  6  9  2  0  0  0  0
  6  7  1  0  0  0  0
  8  6  1  0  0  0  0
  9  5  1  0  0  0  0
 10 11  1  0  0  0  0
 10  8  2  0  0  0  0
 11  4  2  0  0  0  0
 12 13  1  0  0  0  0
 13  1  1  6  0  0  0
 14 20  1  6  0  0  0
 14 12  1  0  0  0  0
 14 13  1  0  0  0  0
 15 17  1  0  0  0  0
 16 15  2  0  0  0  0
 16 18  1  0  0  0  0
 17 20  2  0  0  0  0
 18 19  2  0  0  0  0
 19 20  1  0  0  0  0
 21 23  1  0  0  0  0
 23 24  2  0  0  0  0
 23 27  1  0  0  0  0
 24 25  1  0  0  0  0
 25 22  2  0  0  0  0
 26 22  1  0  0  0  0
 27 26  2  0  0  0  0
M  END
>  <MODEL>
3

>  <REMARK>
 VINA RESULT:      -7.1      1.709      5.646
  Name = 
  5 active torsions:
  status: ('A' for Active; 'I' for Inactive)
    1  A    between atoms: N_2  and  C_6
    2  A    between atoms: N_2  and  C_15
    3  A    between atoms: C_6  and  C_9
    4  A    between atoms: C_14  and  C_19
    5  A    between atoms: C_18  and  C_26
                            x       y       z     vdW  Elec       q    Type
                         _______ _______ _______ _____ _____    ______ ____

>  <TORSDO>
F 5

$$$$
=
 OpenBabel10272401103D

 27 30  0  0  1  0  0  0  0  0999 V2000
  183.4470  178.2790  139.8240 N   0  0  0  0  0  0  0  0  0  0  0  0
  184.5140  180.2520  139.1780 O   0  0  0  0  0  0  0  0  0  0  0  0
  184.5230  178.9910  139.1730 C   0  0  0  0  0  0  0  0  0  0  0  0
  187.7060  176.9230  137.2190 C   0  0  0  0  0  3  0  0  0  0  0  0
  189.2710  177.3290  139.1110 C   0  0  0  0  0  1  0  0  0  0  0  0
  186.9000  178.1590  139.1370 C   0  0  0  0  0  0  0  0  0  0  0  0
  187.1280  178.7110  140.3570 F   0  0  0  0  0  0  0  0  0  0  0  0
  185.6470  178.2880  138.5070 C   0  0  0  0  0  0  0  0  0  0  0  0
  187.9310  177.4740  138.4800 C   0  0  0  0  0  0  0  0  0  0  0  0
  185.4630  177.7300  137.2760 N   0  0  0  0  0  0  0  0  0  0  0  0
  186.4520  177.0610  136.6270 C   0  0  0  0  0  3  0  0  0  0  0  0
  181.9080  176.4120  139.9550 N   0  0  0  0  0  2  0  0  0  0  0  0
  183.2930  176.8240  139.6790 C   0  0  1  0  0  3  0  0  0  0  0  0
  182.4020  176.4010  138.5670 C   0  0  2  0  0  3  0  0  0  0  0  0
  181.5190  178.6990  135.6700 C   0  0  0  0  0  3  0  0  0  0  0  0
  180.4330  179.4080  136.1880 C   0  0  0  0  0  3  0  0  0  0  0  0
  182.1610  177.7340  136.4510 C   0  0  0  0  0  3  0  0  0  0  0  0
  179.9820  179.1470  137.4860 C   0  0  0  0  0  3  0  0  0  0  0  0
  180.6270  178.1850  138.2670 C   0  0  0  0  0  3  0  0  0  0  0  0
  181.7390  177.4900  137.7640 C   0  0  0  0  0  0  0  0  0  0  0  0
  182.7210  178.9560  140.8980 C   0  0  0  0  0  2  0  0  0  0  0  0
  184.7450  178.5430  144.6620 C   0  0  0  0  0  3  0  0  0  0  0  0
  183.4320  178.8160  142.2040 C   0  0  0  0  0  0  0  0  0  0  0  0
  182.7300  179.0040  143.4000 C   0  0  0  0  0  3  0  0  0  0  0  0
  183.3860  178.8680  144.6270 C   0  0  0  0  0  3  0  0  0  0  0  0
  185.4470  178.3510  143.4690 C   0  0  0  0  0  3  0  0  0  0  0  0
  184.7910  178.4860  142.2410 C   0  0  0  0  0  3  0  0  0  0  0  0
  1 21  1  0  0  0  0
  3  2  2  0  0  0  0
  3  1  1  0  0  0  0
  4  9  1  0  0  0  0
  6  7  1  0  0  0  0
  8  6  1  0  0  0  0
  8  3  1  0  0  0  0
  9  5  1  0  0  0  0
  9  6  2  0  0  0  0
 10  8  2  0  0  0  0
 11  4  2  0  0  0  0
 11 10  1  0  0  0  0
 13  1  1  6  0  0  0
 13 12  1  0  0  0  0
 14 20  1  6  0  0  0
 14 13  1  0  0  0  0
 14 12  1  0  0  0  0
 15 16  2  0  0  0  0
 15 17  1  0  0  0  0
 16 18  1  0  0  0  0
 17 20  2  0  0  0  0
 18 19  2  0  0  0  0
 20 19  1  0  0  0  0
 21 23  1  0  0  0  0
 23 27  2  0  0  0  0
 23 24  1  0  0  0  0
 24 25  2  0  0  0  0
 25 22  1  0  0  0  0
 26 22  2  0  0  0  0
 27 26  1  0  0  0  0
M  END
>  <MODEL>
4

>  <REMARK>
 VINA RESULT:      -6.5      4.830      8.252
  Name = 
  5 active torsions:
  status: ('A' for Active; 'I' for Inactive)
    1  A    between atoms: N_2  and  C_6
    2  A    between atoms: N_2  and  C_15
    3  A    between atoms: C_6  and  C_9
    4  A    between atoms: C_14  and  C_19
    5  A    between atoms: C_18  and  C_26
                            x       y       z     vdW  Elec       q    Type
                         _______ _______ _______ _____ _____    ______ ____

>  <TORSDO>
F 5

$$$$
=
 OpenBabel10272401103D

 27 30  0  0  1  0  0  0  0  0999 V2000
  189.2260  177.8480  142.7950 N   0  0  0  0  0  0  0  0  0  0  0  0
  190.4560  179.6580  143.6080 O   0  0  0  0  0  0  0  0  0  0  0  0
  189.9500  178.5270  143.8450 C   0  0  0  0  0  0  0  0  0  0  0  0
  190.3760  176.9120  147.7740 C   0  0  0  0  0  3  0  0  0  0  0  0
  192.3840  175.5910  147.1260 C   0  0  0  0  0  1  0  0  0  0  0  0
  191.1650  177.0570  145.4910 C   0  0  0  0  0  0  0  0  0  0  0  0
  192.0440  176.6780  144.5270 F   0  0  0  0  0  0  0  0  0  0  0  0
  190.1090  177.9440  145.2000 C   0  0  0  0  0  0  0  0  0  0  0  0
  191.2880  176.5390  146.7870 C   0  0  0  0  0  0  0  0  0  0  0  0
  189.2400  178.2880  146.1920 N   0  0  0  0  0  0  0  0  0  0  0  0
  189.3480  177.7970  147.4550 C   0  0  0  0  0  3  0  0  0  0  0  0
  188.4120  176.1660  144.3370 N   0  0  0  0  0  2  0  0  0  0  0  0
  188.7910  176.4510  142.9440 C   0  0  1  0  0  3  0  0  0  0  0  0
  187.3610  176.2820  143.3100 C   0  0  2  0  0  3  0  0  0  0  0  0
  185.0620  179.2340  142.6380 C   0  0  0  0  0  3  0  0  0  0  0  0
  184.9180  179.7810  143.9160 C   0  0  0  0  0  3  0  0  0  0  0  0
  185.8660  178.1070  142.4470 C   0  0  0  0  0  3  0  0  0  0  0  0
  185.5710  179.1950  145.0040 C   0  0  0  0  0  3  0  0  0  0  0  0
  186.3770  178.0700  144.8120 C   0  0  0  0  0  3  0  0  0  0  0  0
  186.5520  177.5340  143.5260 C   0  0  0  0  0  0  0  0  0  0  0  0
  188.6310  178.6570  141.7310 C   0  0  0  0  0  2  0  0  0  0  0  0
  189.4980  177.0420  137.8490 C   0  0  0  0  0  3  0  0  0  0  0  0
  188.9370  178.0880  140.3840 C   0  0  0  0  0  0  0  0  0  0  0  0
  187.9490  178.0810  139.3930 C   0  0  0  0  0  3  0  0  0  0  0  0
  188.2290  177.5570  138.1270 C   0  0  0  0  0  3  0  0  0  0  0  0
  190.4880  177.0530  138.8350 C   0  0  0  0  0  3  0  0  0  0  0  0
  190.2090  177.5770  140.1010 C   0  0  0  0  0  3  0  0  0  0  0  0
  1  3  1  0  0  0  0
  2  3  2  0  0  0  0
  3  8  1  0  0  0  0
  6  9  1  0  0  0  0
  7  6  1  0  0  0  0
  8  6  2  0  0  0  0
  8 10  1  0  0  0  0
  9  5  1  0  0  0  0
  9  4  2  0  0  0  0
 10 11  2  0  0  0  0
 11  4  1  0  0  0  0
 13  1  1  1  0  0  0
 13 14  1  0  0  0  0
 13 12  1  0  0  0  0
 14 20  1  1  0  0  0
 14 12  1  0  0  0  0
 15 16  1  0  0  0  0
 16 18  2  0  0  0  0
 17 15  2  0  0  0  0
 17 20  1  0  0  0  0
 19 18  1  0  0  0  0
 20 19  2  0  0  0  0
 21  1  1  0  0  0  0
 22 25  2  0  0  0  0
 22 26  1  0  0  0  0
 23 21  1  0  0  0  0
 24 23  2  0  0  0  0
 25 24  1  0  0  0  0
 26 27  2  0  0  0  0
 27 23  1  0  0  0  0
M  END
>  <MODEL>
5

>  <REMARK>
 VINA RESULT:      -6.1      1.745      6.385
  Name = 
  5 active torsions:
  status: ('A' for Active; 'I' for Inactive)
    1  A    between atoms: N_2  and  C_6
    2  A    between atoms: N_2  and  C_15
    3  A    between atoms: C_6  and  C_9
    4  A    between atoms: C_14  and  C_19
    5  A    between atoms: C_18  and  C_26
                            x       y       z     vdW  Elec       q    Type
                         _______ _______ _______ _____ _____    ______ ____

>  <TORSDO>
F 5

$$$$
=
 OpenBabel10272401103D

 27 30  0  0  1  0  0  0  0  0999 V2000
  188.8470  177.8920  143.6530 N   0  0  0  0  0  0  0  0  0  0  0  0
  189.5730  179.8170  142.5490 O   0  0  0  0  0  0  0  0  0  0  0  0
  189.2850  178.5920  142.4660 C   0  0  0  0  0  0  0  0  0  0  0  0
  189.7500  176.6460  138.6950 C   0  0  0  0  0  3  0  0  0  0  0  0
  187.5740  177.5200  137.8580 C   0  0  0  0  0  1  0  0  0  0  0  0
  188.4320  178.0510  140.1590 C   0  0  0  0  0  0  0  0  0  0  0  0
  187.3060  178.7760  140.3890 F   0  0  0  0  0  0  0  0  0  0  0  0
  189.4200  177.9140  141.1540 C   0  0  0  0  0  0  0  0  0  0  0  0
  188.6040  177.4060  138.9270 C   0  0  0  0  0  0  0  0  0  0  0  0
  190.5290  177.1670  140.8880 N   0  0  0  0  0  0  0  0  0  0  0  0
  190.7120  176.5370  139.6980 C   0  0  0  0  0  3  0  0  0  0  0  0
  187.6360  176.1610  144.8390 N   0  0  0  0  0  2  0  0  0  0  0  0
  188.3070  176.5260  143.5810 C   0  0  1  0  0  3  0  0  0  0  0  0
  186.8250  176.4410  143.6410 C   0  0  2  0  0  3  0  0  0  0  0  0
  184.7780  179.5390  142.8240 C   0  0  0  0  0  3  0  0  0  0  0  0
  184.5250  180.0580  144.0960 C   0  0  0  0  0  3  0  0  0  0  0  0
  185.5350  178.3730  142.6830 C   0  0  0  0  0  3  0  0  0  0  0  0
  185.0220  179.4060  145.2290 C   0  0  0  0  0  3  0  0  0  0  0  0
  185.7820  178.2420  145.0860 C   0  0  0  0  0  3  0  0  0  0  0  0
  186.0660  177.7320  143.8100 C   0  0  0  0  0  0  0  0  0  0  0  0
  189.2610  178.4140  144.9550 C   0  0  0  0  0  2  0  0  0  0  0  0
  191.9820  175.7350  146.9180 C   0  0  0  0  0  3  0  0  0  0  0  0
  190.2140  177.4840  145.6330 C   0  0  0  0  0  0  0  0  0  0  0  0
  190.1550  177.3200  147.0210 C   0  0  0  0  0  3  0  0  0  0  0  0
  191.0380  176.4470  147.6630 C   0  0  0  0  0  3  0  0  0  0  0  0
  192.0410  175.8940  145.5300 C   0  0  0  0  0  3  0  0  0  0  0  0
  191.1570  176.7670  144.8880 C   0  0  0  0  0  3  0  0  0  0  0  0
  1 21  1  0  0  0  0
  3  2  2  0  0  0  0
  3  1  1  0  0  0  0
  4  9  2  0  0  0  0
  4 11  1  0  0  0  0
  5  9  1  0  0  0  0
  6  7  1  0  0  0  0
  6  8  2  0  0  0  0
  8  3  1  0  0  0  0
  9  6  1  0  0  0  0
 10  8  1  0  0  0  0
 11 10  2  0  0  0  0
 13 14  1  0  0  0  0
 13  1  1  1  0  0  0
 13 12  1  0  0  0  0
 14 20  1  1  0  0  0
 14 12  1  0  0  0  0
 15 16  1  0  0  0  0
 16 18  2  0  0  0  0
 17 15  2  0  0  0  0
 17 20  1  0  0  0  0
 19 18  1  0  0  0  0
 20 19  2  0  0  0  0
 21 23  1  0  0  0  0
 22 25  1  0  0  0  0
 23 24  1  0  0  0  0
 24 25  2  0  0  0  0
 26 22  2  0  0  0  0
 27 26  1  0  0  0  0
 27 23  2  0  0  0  0
M  END
>  <MODEL>
6

>  <REMARK>
 VINA RESULT:      -5.9      1.820      5.218
  Name = 
  5 active torsions:
  status: ('A' for Active; 'I' for Inactive)
    1  A    between atoms: N_2  and  C_6
    2  A    between atoms: N_2  and  C_15
    3  A    between atoms: C_6  and  C_9
    4  A    between atoms: C_14  and  C_19
    5  A    between atoms: C_18  and  C_26
                            x       y       z     vdW  Elec       q    Type
                         _______ _______ _______ _____ _____    ______ ____

>  <TORSDO>
F 5

$$$$
=
 OpenBabel10272401103D

 27 30  0  0  1  0  0  0  0  0999 V2000
  188.8870  177.9030  143.4930 N   0  0  0  0  0  0  0  0  0  0  0  0
  189.5010  179.8640  142.3840 O   0  0  0  0  0  0  0  0  0  0  0  0
  189.2440  178.6320  142.2970 C   0  0  0  0  0  0  0  0  0  0  0  0
  189.4180  176.7290  138.4790 C   0  0  0  0  0  3  0  0  0  0  0  0
  191.8230  176.1530  138.7590 C   0  0  0  0  0  1  0  0  0  0  0  0
  190.5320  177.3920  140.5230 C   0  0  0  0  0  0  0  0  0  0  0  0
  191.6590  177.4470  141.2800 F   0  0  0  0  0  0  0  0  0  0  0  0
  189.3310  177.9770  140.9690 C   0  0  0  0  0  0  0  0  0  0  0  0
  190.5680  176.7700  139.2670 C   0  0  0  0  0  0  0  0  0  0  0  0
  188.2260  177.9120  140.1720 N   0  0  0  0  0  0  0  0  0  0  0  0
  188.2440  177.3110  138.9540 C   0  0  0  0  0  3  0  0  0  0  0  0
  187.7670  176.1280  144.7040 N   0  0  0  0  0  2  0  0  0  0  0  0
  188.3830  176.5230  143.4270 C   0  0  1  0  0  3  0  0  0  0  0  0
  186.9060  176.3960  143.5380 C   0  0  2  0  0  3  0  0  0  0  0  0
  184.8430  179.5050  142.8090 C   0  0  0  0  0  3  0  0  0  0  0  0
  184.5270  179.9470  144.0960 C   0  0  0  0  0  3  0  0  0  0  0  0
  185.6260  178.3600  142.6350 C   0  0  0  0  0  3  0  0  0  0  0  0
  184.9860  179.2390  145.2100 C   0  0  0  0  0  3  0  0  0  0  0  0
  185.7720  178.0960  145.0360 C   0  0  0  0  0  3  0  0  0  0  0  0
  186.1190  177.6640  143.7460 C   0  0  0  0  0  0  0  0  0  0  0  0
  189.3520  178.4170  144.7810 C   0  0  0  0  0  2  0  0  0  0  0  0
  191.9830  175.6310  146.7170 C   0  0  0  0  0  3  0  0  0  0  0  0
  190.2740  177.4500  145.4490 C   0  0  0  0  0  0  0  0  0  0  0  0
  190.2220  177.2880  146.8380 C   0  0  0  0  0  3  0  0  0  0  0  0
  191.0760  176.3810  147.4710 C   0  0  0  0  0  3  0  0  0  0  0  0
  192.0340  175.7870  145.3290 C   0  0  0  0  0  3  0  0  0  0  0  0
  191.1790  176.6950  144.6950 C   0  0  0  0  0  3  0  0  0  0  0  0
  1 21  1  0  0  0  0
  3  2  2  0  0  0  0
  3  1  1  0  0  0  0
  4 11  2  0  0  0  0
  4  9  1  0  0  0  0
  5  9  1  0  0  0  0
  6  8  1  0  0  0  0
  6  7  1  0  0  0  0
  8  3  1  0  0  0  0
  9  6  2  0  0  0  0
 10  8  2  0  0  0  0
 11 10  1  0  0  0  0
 13  1  1  1  0  0  0
 13 14  1  0  0  0  0
 13 12  1  0  0  0  0
 14 20  1  1  0  0  0
 14 12  1  0  0  0  0
 15 16  1  0  0  0  0
 16 18  2  0  0  0  0
 17 15  2  0  0  0  0
 17 20  1  0  0  0  0
 19 18  1  0  0  0  0
 20 19  2  0  0  0  0
 21 23  1  0  0  0  0
 22 25  1  0  0  0  0
 23 24  1  0  0  0  0
 24 25  2  0  0  0  0
 26 22  2  0  0  0  0
 27 26  1  0  0  0  0
 27 23  2  0  0  0  0
M  END
>  <MODEL>
7

>  <REMARK>
 VINA RESULT:      -5.8      1.504      5.006
  Name = 
  5 active torsions:
  status: ('A' for Active; 'I' for Inactive)
    1  A    between atoms: N_2  and  C_6
    2  A    between atoms: N_2  and  C_15
    3  A    between atoms: C_6  and  C_9
    4  A    between atoms: C_14  and  C_19
    5  A    between atoms: C_18  and  C_26
                            x       y       z     vdW  Elec       q    Type
                         _______ _______ _______ _____ _____    ______ ____

>  <TORSDO>
F 5

$$$$
=
 OpenBabel10272401103D

 27 30  0  0  1  0  0  0  0  0999 V2000
  184.2960  178.2520  139.3200 N   0  0  0  0  0  0  0  0  0  0  0  0
  185.7690  179.1630  137.7550 O   0  0  0  0  0  0  0  0  0  0  0  0
  185.1130  178.1540  138.1320 C   0  0  0  0  0  0  0  0  0  0  0  0
  185.3370  174.5360  135.8770 C   0  0  0  0  0  3  0  0  0  0  0  0
  187.6850  174.1140  136.5890 C   0  0  0  0  0  1  0  0  0  0  0  0
  186.3970  176.1310  137.3560 C   0  0  0  0  0  0  0  0  0  0  0  0
  187.4900  176.5370  138.0550 F   0  0  0  0  0  0  0  0  0  0  0  0
  185.2170  176.9010  137.3460 C   0  0  0  0  0  0  0  0  0  0  0  0
  186.4500  174.9450  136.6110 C   0  0  0  0  0  0  0  0  0  0  0  0
  184.1480  176.4650  136.6210 N   0  0  0  0  0  0  0  0  0  0  0  0
  184.1820  175.3170  135.8950 C   0  0  0  0  0  3  0  0  0  0  0  0
  182.3870  177.6630  140.6910 N   0  0  0  0  0  2  0  0  0  0  0  0
  183.3570  177.1840  139.6940 C   0  0  1  0  0  3  0  0  0  0  0  0
  181.9450  177.4340  139.3050 C   0  0  2  0  0  3  0  0  0  0  0  0
  181.1320  179.9750  136.5960 C   0  0  0  0  0  3  0  0  0  0  0  0
  180.9250  181.1360  137.3460 C   0  0  0  0  0  3  0  0  0  0  0  0
  181.4740  178.7810  137.2360 C   0  0  0  0  0  3  0  0  0  0  0  0
  181.0530  181.1010  138.7370 C   0  0  0  0  0  3  0  0  0  0  0  0
  181.3990  179.9080  139.3770 C   0  0  0  0  0  3  0  0  0  0  0  0
  181.6390  178.7450  138.6270 C   0  0  0  0  0  0  0  0  0  0  0  0
  184.6530  179.2530  140.3250 C   0  0  0  0  0  2  0  0  0  0  0  0
  187.4500  177.6600  143.1670 C   0  0  0  0  0  3  0  0  0  0  0  0
  185.6330  178.7030  141.3110 C   0  0  0  0  0  0  0  0  0  0  0  0
  185.2160  178.4130  142.6150 C   0  0  0  0  0  3  0  0  0  0  0  0
  186.1240  177.8930  143.5420 C   0  0  0  0  0  3  0  0  0  0  0  0
  187.8680  177.9450  141.8640 C   0  0  0  0  0  3  0  0  0  0  0  0
  186.9600  178.4650  140.9360 C   0  0  0  0  0  3  0  0  0  0  0  0
  1 21  1  0  0  0  0
  2  3  2  0  0  0  0
  3  1  1  0  0  0  0
  4 11  2  0  0  0  0
  4  9  1  0  0  0  0
  5  9  1  0  0  0  0
  6  7  1  0  0  0  0
  8  6  1  0  0  0  0
  8  3  1  0  0  0  0
  9  6  2  0  0  0  0
 10  8  2  0  0  0  0
 11 10  1  0  0  0  0
 13  1  1  6  0  0  0
 13 12  1  0  0  0  0
 14 20  1  6  0  0  0
 14 13  1  0  0  0  0
 14 12  1  0  0  0  0
 15 17  2  0  0  0  0
 15 16  1  0  0  0  0
 16 18  2  0  0  0  0
 17 20  1  0  0  0  0
 18 19  1  0  0  0  0
 20 19  2  0  0  0  0
 21 23  1  0  0  0  0
 22 25  1  0  0  0  0
 23 24  1  0  0  0  0
 24 25  2  0  0  0  0
 26 22  2  0  0  0  0
 27 23  2  0  0  0  0
 27 26  1  0  0  0  0
M  END
>  <MODEL>
8

>  <REMARK>
 VINA RESULT:      -5.8      5.078      8.384
  Name = 
  5 active torsions:
  status: ('A' for Active; 'I' for Inactive)
    1  A    between atoms: N_2  and  C_6
    2  A    between atoms: N_2  and  C_15
    3  A    between atoms: C_6  and  C_9
    4  A    between atoms: C_14  and  C_19
    5  A    between atoms: C_18  and  C_26
                            x       y       z     vdW  Elec       q    Type
                         _______ _______ _______ _____ _____    ______ ____

>  <TORSDO>
F 5

$$$$
=
 OpenBabel10272401103D

 27 30  0  0  1  0  0  0  0  0999 V2000
  189.4500  177.7120  142.0160 N   0  0  0  0  0  0  0  0  0  0  0  0
  189.0060  180.0050  142.0430 O   0  0  0  0  0  0  0  0  0  0  0  0
  188.5690  178.8420  141.8250 C   0  0  0  0  0  0  0  0  0  0  0  0
  184.5520  178.4130  140.4450 C   0  0  0  0  0  3  0  0  0  0  0  0
  183.6330  178.5470  142.7540 C   0  0  0  0  0  1  0  0  0  0  0  0
  186.0970  178.6920  142.2860 C   0  0  0  0  0  0  0  0  0  0  0  0
  186.3230  178.8090  143.6200 F   0  0  0  0  0  0  0  0  0  0  0  0
  187.1660  178.6810  141.3690 C   0  0  0  0  0  0  0  0  0  0  0  0
  184.7850  178.5520  141.8120 C   0  0  0  0  0  0  0  0  0  0  0  0
  186.8970  178.5490  140.0390 N   0  0  0  0  0  0  0  0  0  0  0  0
  185.6310  178.4140  139.5640 C   0  0  0  0  0  3  0  0  0  0  0  0
  189.8940  175.4080  142.6190 N   0  0  0  0  0  2  0  0  0  0  0  0
  188.9460  176.3320  141.9760 C   0  0  1  0  0  3  0  0  0  0  0  0
  188.6350  175.7460  143.3050 C   0  0  2  0  0  3  0  0  0  0  0  0
  188.0670  177.9470  146.3520 C   0  0  0  0  0  3  0  0  0  0  0  0
  189.3630  178.0760  146.8570 C   0  0  0  0  0  3  0  0  0  0  0  0
  187.8400  177.2010  145.1930 C   0  0  0  0  0  3  0  0  0  0  0  0
  190.4320  177.4510  146.2080 C   0  0  0  0  0  3  0  0  0  0  0  0
  190.2040  176.7080  145.0470 C   0  0  0  0  0  3  0  0  0  0  0  0
  188.9080  176.5990  144.5160 C   0  0  0  0  0  0  0  0  0  0  0  0
  190.8920  177.9340  141.9070 C   0  0  0  0  0  2  0  0  0  0  0  0
  192.4130  176.5400  138.1420 C   0  0  0  0  0  3  0  0  0  0  0  0
  191.4150  177.4540  140.5920 C   0  0  0  0  0  0  0  0  0  0  0  0
  192.7930  177.2880  140.4130 C   0  0  0  0  0  3  0  0  0  0  0  0
  193.2910  176.8330  139.1890 C   0  0  0  0  0  3  0  0  0  0  0  0
  191.0360  176.7000  138.3200 C   0  0  0  0  0  3  0  0  0  0  0  0
  190.5370  177.1560  139.5440 C   0  0  0  0  0  3  0  0  0  0  0  0
  3  1  1  0  0  0  0
  3  2  2  0  0  0  0
  4  9  1  0  0  0  0
  6  7  1  0  0  0  0
  8  3  1  0  0  0  0
  8  6  1  0  0  0  0
  9  6  2  0  0  0  0
  9  5  1  0  0  0  0
 10  8  2  0  0  0  0
 11 10  1  0  0  0  0
 11  4  2  0  0  0  0
 12 14  1  0  0  0  0
 13  1  1  1  0  0  0
 13 12  1  0  0  0  0
 13 14  1  0  0  0  0
 14 20  1  1  0  0  0
 15 16  1  0  0  0  0
 17 15  2  0  0  0  0
 18 16  2  0  0  0  0
 19 18  1  0  0  0  0
 20 19  2  0  0  0  0
 20 17  1  0  0  0  0
 21  1  1  0  0  0  0
 22 26  2  0  0  0  0
 22 25  1  0  0  0  0
 23 21  1  0  0  0  0
 24 23  1  0  0  0  0
 25 24  2  0  0  0  0
 26 27  1  0  0  0  0
 27 23  2  0  0  0  0
M  END
>  <MODEL>
9

>  <REMARK>
 VINA RESULT:      -5.6      2.424      5.708
  Name = 
  5 active torsions:
  status: ('A' for Active; 'I' for Inactive)
    1  A    between atoms: N_2  and  C_6
    2  A    between atoms: N_2  and  C_15
    3  A    between atoms: C_6  and  C_9
    4  A    between atoms: C_14  and  C_19
    5  A    between atoms: C_18  and  C_26
                            x       y       z     vdW  Elec       q    Type
                         _______ _______ _______ _____ _____    ______ ____

>  <TORSDO>
F 5

$$$$
