=
 OpenBabel10272413573D

 30 34  0  0  1  0  0  0  0  0999 V2000
  184.8390  177.8380  140.0690 C   0  0  1  0  0  3  0  0  0  0  0  0
  185.5150  178.7570  142.4670 C   0  0  1  0  0  3  0  0  0  0  0  0
  181.0690  178.4190  141.4210 C   0  0  1  0  0  3  0  0  0  0  0  0
  183.6360  177.5900  139.1460 C   0  0  2  0  0  3  0  0  0  0  0  0
  185.8560  178.6370  139.3930 N   0  0  0  0  0  0  0  0  0  0  0  0
  185.9350  177.3860  135.7130 S   0  0  0  0  0  0  0  0  0  0  0  0
  181.7760  176.1240  137.5410 C   0  0  0  0  0  0  0  0  0  0  0  0
  185.5370  177.1460  137.4770 C   0  0  1  0  0  3  0  0  0  0  0  0
  187.1490  179.0200  137.4410 N   0  0  0  0  0  2  0  0  0  0  0  0
  181.0250  177.4110  137.8440 C   0  0  1  0  0  3  0  0  0  0  0  0
  181.1580  177.5060  140.3280 O   0  0  0  0  0  0  0  0  0  0  0  0
  186.2110  178.2780  138.1930 C   0  0  0  0  0  0  0  0  0  0  0  0
  184.0150  177.2450  137.7120 C   0  0  1  0  0  3  0  0  0  0  0  0
  184.8870  178.5340  144.1770 S   0  0  0  0  0  0  0  0  0  0  0  0
  181.1100  175.0570  137.4620 O   0  0  0  0  0  0  0  0  0  0  0  0
  188.6310  177.7870  135.9730 C   0  0  0  0  0  1  0  0  0  0  0  0
  186.7770  177.9230  142.3240 C   0  0  0  0  0  1  0  0  0  0  0  0
  182.3910  178.5680  142.1940 C   0  0  2  0  0  3  0  0  0  0  0  0
  183.5650  179.8000  144.0860 C   0  0  0  0  0  2  0  0  0  0  0  0
  187.3150  178.5320  136.0860 C   0  0  1  0  0  3  0  0  0  0  0  0
  184.4340  178.3130  141.4750 C   0  0  1  0  0  3  0  0  0  0  0  0
  182.7700  178.6860  139.0750 O   0  0  0  0  0  0  0  0  0  0  0  0
  180.3480  179.7420  141.1370 C   0  0  0  0  0  1  0  0  0  0  0  0
  181.4520  178.1870  139.1190 C   0  0  1  0  0  3  0  0  0  0  0  0
  183.8290  174.8660  136.8350 C   0  0  0  0  0  1  0  0  0  0  0  0
  182.2370  179.2300  143.5660 C   0  0  0  0  0  2  0  0  0  0  0  0
  183.3730  179.2200  141.4480 O   0  0  0  0  0  0  0  0  0  0  0  0
  183.2040  176.0990  137.2990 N   0  0  0  0  0  0  0  0  0  0  0  0
  181.0530  178.2960  136.6900 N   0  0  0  0  0  2  0  0  0  0  0  0
  180.2440  179.3430  136.9740 O   0  0  0  0  0  1  0  0  0  0  0  0
  1  5  1  6  0  0  0
  1 21  1  0  0  0  0
  2 17  1  1  0  0  0
  2 14  1  0  0  0  0
  3 23  1  6  0  0  0
  3 18  1  0  0  0  0
  4 22  1  6  0  0  0
  4  1  1  0  0  0  0
  6 20  1  0  0  0  0
  7 10  1  0  0  0  0
  8  6  1  6  0  0  0
  8 13  1  0  0  0  0
  8 12  1  0  0  0  0
  9 12  1  0  0  0  0
 10 29  1  6  0  0  0
 10 24  1  0  0  0  0
 11  3  1  0  0  0  0
 12  5  2  0  0  0  0
 13 28  1  1  0  0  0
 13  4  1  0  0  0  0
 15  7  2  0  0  0  0
 18 26  1  1  0  0  0
 19 14  1  0  0  0  0
 20 16  1  1  0  0  0
 20  9  1  0  0  0  0
 21 27  1  6  0  0  0
 21  2  1  0  0  0  0
 24 22  1  6  0  0  0
 24 11  1  0  0  0  0
 25 28  1  0  0  0  0
 26 19  1  0  0  0  0
 27 18  1  0  0  0  0
 28  7  1  0  0  0  0
 29 30  1  0  0  0  0
M  END
>  <MODEL>
1

>  <REMARK>
 VINA RESULT:      -5.9      0.000      0.000
  Name = 
  1 active torsions:
  status: ('A' for Active; 'I' for Inactive)
    1  A    between atoms: C_10  and  N_15
                            x       y       z     vdW  Elec       q    Type
                         _______ _______ _______ _____ _____    ______ ____

>  <TORSDO>
F 1

$$$$
=
 OpenBabel10272413573D

 30 34  0  0  1  0  0  0  0  0999 V2000
  191.0340  175.6940  137.7200 C   0  0  1  0  0  3  0  0  0  0  0  0
  193.1780  174.1500  137.4580 C   0  0  1  0  0  3  0  0  0  0  0  0
  189.6670  173.5330  134.5830 C   0  0  1  0  0  3  0  0  0  0  0  0
  189.6100  175.9160  137.1850 C   0  0  2  0  0  3  0  0  0  0  0  0
  191.0280  175.5680  139.1740 N   0  0  0  0  0  0  0  0  0  0  0  0
  188.4050  178.1320  140.4630 S   0  0  0  0  0  0  0  0  0  0  0  0
  187.4230  177.2700  135.9330 C   0  0  0  0  0  0  0  0  0  0  0  0
  189.5570  177.5260  139.1850 C   0  0  1  0  0  3  0  0  0  0  0  0
  190.2650  176.3900  141.2640 N   0  0  0  0  0  2  0  0  0  0  0  0
  187.0140  175.8090  135.8460 C   0  0  1  0  0  3  0  0  0  0  0  0
  189.0040  174.7850  134.7570 O   0  0  0  0  0  0  0  0  0  0  0  0
  190.3690  176.4600  139.8570 C   0  0  0  0  0  0  0  0  0  0  0  0
  188.7840  176.8940  138.0080 C   0  0  1  0  0  3  0  0  0  0  0  0
  194.1440  173.4820  136.0470 S   0  0  0  0  0  0  0  0  0  0  0  0
  187.1000  178.0300  134.9820 O   0  0  0  0  0  0  0  0  0  0  0  0
  190.2170  178.4830  142.4860 C   0  0  0  0  0  1  0  0  0  0  0  0
  193.9650  175.3070  138.0510 C   0  0  0  0  0  1  0  0  0  0  0  0
  191.0620  173.4920  135.2310 C   0  0  2  0  0  3  0  0  0  0  0  0
  193.0800  172.0240  135.7310 C   0  0  0  0  0  2  0  0  0  0  0  0
  189.3870  177.3990  141.8250 C   0  0  1  0  0  3  0  0  0  0  0  0
  191.8050  174.6060  136.9530 C   0  0  1  0  0  3  0  0  0  0  0  0
  188.8670  174.7330  137.1100 O   0  0  0  0  0  0  0  0  0  0  0  0
  188.8170  172.2810  134.8260 C   0  0  0  0  0  1  0  0  0  0  0  0
  188.1560  174.7580  135.8930 C   0  0  1  0  0  3  0  0  0  0  0  0
  188.3220  179.2540  137.1800 C   0  0  0  0  0  1  0  0  0  0  0  0
  191.9360  172.3300  134.7520 C   0  0  0  0  0  2  0  0  0  0  0  0
  191.0010  173.5130  136.6250 O   0  0  0  0  0  0  0  0  0  0  0  0
  188.1230  177.8120  137.0800 N   0  0  0  0  0  0  0  0  0  0  0  0
  186.0160  175.5020  136.8590 N   0  0  0  0  0  2  0  0  0  0  0  0
  185.6010  174.2330  136.6360 O   0  0  0  0  0  1  0  0  0  0  0  0
  1  5  1  1  0  0  0
  2 17  1  6  0  0  0
  3 11  1  0  0  0  0
  3 23  1  1  0  0  0
  3 18  1  0  0  0  0
  4 22  1  1  0  0  0
  4  1  1  0  0  0  0
  4 13  1  0  0  0  0
  5 12  2  0  0  0  0
  6 20  1  0  0  0  0
  7 28  1  0  0  0  0
  8 12  1  1  0  0  0
  8  6  1  0  0  0  0
  9 20  1  0  0  0  0
 10 24  1  0  0  0  0
 10  7  1  0  0  0  0
 10 29  1  1  0  0  0
 12  9  1  0  0  0  0
 13 28  1  6  0  0  0
 13  8  1  0  0  0  0
 14  2  1  0  0  0  0
 15  7  2  0  0  0  0
 18 26  1  1  0  0  0
 18 27  1  0  0  0  0
 19 14  1  0  0  0  0
 20 16  1  6  0  0  0
 21 27  1  1  0  0  0
 21  2  1  0  0  0  0
 21  1  1  0  0  0  0
 24 11  1  6  0  0  0
 24 22  1  0  0  0  0
 26 19  1  0  0  0  0
 28 25  1  0  0  0  0
 30 29  1  0  0  0  0
M  END
>  <MODEL>
2

>  <REMARK>
 VINA RESULT:      -5.8      5.401      8.769
  Name = 
  1 active torsions:
  status: ('A' for Active; 'I' for Inactive)
    1  A    between atoms: C_10  and  N_15
                            x       y       z     vdW  Elec       q    Type
                         _______ _______ _______ _____ _____    ______ ____

>  <TORSDO>
F 1

$$$$
=
 OpenBabel10272413573D

 30 34  0  0  1  0  0  0  0  0999 V2000
  187.0880  177.7020  141.0690 C   0  0  1  0  0  3  0  0  0  0  0  0
  188.5030  177.5500  143.3100 C   0  0  1  0  0  3  0  0  0  0  0  0
  184.0730  178.6770  143.5850 C   0  0  1  0  0  3  0  0  0  0  0  0
  185.7070  178.0850  140.5140 C   0  0  2  0  0  3  0  0  0  0  0  0
  188.1470  178.4140  140.3600 N   0  0  0  0  0  0  0  0  0  0  0  0
  187.0580  178.5210  136.6290 S   0  0  0  0  0  0  0  0  0  0  0  0
  183.1850  177.7550  139.2050 C   0  0  0  0  0  0  0  0  0  0  0  0
  186.9760  177.7950  138.3000 C   0  0  1  0  0  3  0  0  0  0  0  0
  189.0640  179.1190  138.2890 N   0  0  0  0  0  2  0  0  0  0  0  0
  182.9700  179.0000  140.0500 C   0  0  1  0  0  3  0  0  0  0  0  0
  183.6350  178.2020  142.3120 O   0  0  0  0  0  0  0  0  0  0  0  0
  188.1120  178.4140  139.0580 C   0  0  0  0  0  0  0  0  0  0  0  0
  185.6500  178.1720  138.9950 C   0  0  1  0  0  3  0  0  0  0  0  0
  188.2030  176.9130  145.0060 S   0  0  0  0  0  0  0  0  0  0  0  0
  182.2090  176.9740  139.0460 O   0  0  0  0  0  0  0  0  0  0  0  0
  189.7320  178.1450  136.1720 C   0  0  0  0  0  1  0  0  0  0  0  0
  189.3690  176.5370  142.5820 C   0  0  0  0  0  1  0  0  0  0  0  0
  185.5000  178.2280  143.9400 C   0  0  2  0  0  3  0  0  0  0  0  0
  187.3730  178.4130  145.6530 C   0  0  0  0  0  2  0  0  0  0  0  0
  188.7810  179.1000  136.8660 C   0  0  1  0  0  3  0  0  0  0  0  0
  187.1570  177.7490  142.6040 C   0  0  1  0  0  3  0  0  0  0  0  0
  185.2470  179.3130  141.0000 O   0  0  0  0  0  0  0  0  0  0  0  0
  183.7760  180.1500  143.8930 C   0  0  0  0  0  1  0  0  0  0  0  0
  183.8770  179.1630  141.2980 C   0  0  1  0  0  3  0  0  0  0  0  0
  184.5280  176.3580  137.6110 C   0  0  0  0  0  1  0  0  0  0  0  0
  185.8540  178.3950  145.4200 C   0  0  0  0  0  2  0  0  0  0  0  0
  186.4650  178.8380  143.1370 O   0  0  0  0  0  0  0  0  0  0  0  0
  184.4460  177.4690  138.5510 N   0  0  0  0  0  0  0  0  0  0  0  0
  183.0450  180.1920  139.2210 N   0  0  0  0  0  2  0  0  0  0  0  0
  181.8980  180.2500  138.5040 O   0  0  0  0  0  1  0  0  0  0  0  0
  1  5  1  6  0  0  0
  1 21  1  0  0  0  0
  2 17  1  6  0  0  0
  2 14  1  0  0  0  0
  3 23  1  6  0  0  0
  3 18  1  0  0  0  0
  4 22  1  1  0  0  0
  4  1  1  0  0  0  0
  6 20  1  0  0  0  0
  7 10  1  0  0  0  0
  8  6  1  6  0  0  0
  8 13  1  0  0  0  0
  8 12  1  0  0  0  0
  9 12  1  0  0  0  0
 10 29  1  6  0  0  0
 10 24  1  0  0  0  0
 11  3  1  0  0  0  0
 12  5  2  0  0  0  0
 13 28  1  6  0  0  0
 13  4  1  0  0  0  0
 14 19  1  0  0  0  0
 15  7  2  0  0  0  0
 18 26  1  1  0  0  0
 20 16  1  6  0  0  0
 20  9  1  0  0  0  0
 21 27  1  6  0  0  0
 21  2  1  0  0  0  0
 24 22  1  6  0  0  0
 24 11  1  0  0  0  0
 25 28  1  0  0  0  0
 26 19  1  0  0  0  0
 27 18  1  0  0  0  0
 28  7  1  0  0  0  0
 30 29  1  0  0  0  0
M  END
>  <MODEL>
3

>  <REMARK>
 VINA RESULT:      -5.7      2.033      2.989
  Name = 
  1 active torsions:
  status: ('A' for Active; 'I' for Inactive)
    1  A    between atoms: C_10  and  N_15
                            x       y       z     vdW  Elec       q    Type
                         _______ _______ _______ _____ _____    ______ ____

>  <TORSDO>
F 1

$$$$
=
 OpenBabel10272413573D

 30 34  0  0  1  0  0  0  0  0999 V2000
  183.6200  176.0560  137.6930 C   0  0  1  0  0  3  0  0  0  0  0  0
  182.6050  173.8290  136.6620 C   0  0  1  0  0  3  0  0  0  0  0  0
  187.1310  174.4880  136.4300 C   0  0  1  0  0  3  0  0  0  0  0  0
  184.9260  176.8520  137.8450 C   0  0  2  0  0  3  0  0  0  0  0  0
  182.5670  176.8900  137.1220 N   0  0  0  0  0  0  0  0  0  0  0  0
  183.0030  180.4100  138.7140 S   0  0  0  0  0  0  0  0  0  0  0  0
  187.1120  178.1430  139.1620 C   0  0  0  0  0  0  0  0  0  0  0  0
  183.2670  178.6050  138.7230 C   0  0  1  0  0  3  0  0  0  0  0  0
  181.4180  178.9650  137.1220 N   0  0  0  0  0  2  0  0  0  0  0  0
  187.6440  177.9220  137.7560 C   0  0  1  0  0  3  0  0  0  0  0  0
  187.2720  175.4810  137.4460 O   0  0  0  0  0  0  0  0  0  0  0  0
  182.3780  178.0680  137.6420 C   0  0  0  0  0  0  0  0  0  0  0  0
  184.7320  178.2650  138.3760 C   0  0  1  0  0  3  0  0  0  0  0  0
  183.0980  172.0620  136.6250 S   0  0  0  0  0  0  0  0  0  0  0  0
  187.9260  178.0550  140.1210 O   0  0  0  0  0  0  0  0  0  0  0  0
  180.2650  180.4020  138.6960 C   0  0  0  0  0  1  0  0  0  0  0  0
  181.4910  173.9780  137.6840 C   0  0  0  0  0  1  0  0  0  0  0  0
  185.7370  173.8390  136.4070 C   0  0  2  0  0  3  0  0  0  0  0  0
  184.2320  172.1860  135.1910 C   0  0  0  0  0  2  0  0  0  0  0  0
  181.4470  180.2690  137.7570 C   0  0  1  0  0  3  0  0  0  0  0  0
  183.8240  174.6820  137.0310 C   0  0  1  0  0  3  0  0  0  0  0  0
  185.6320  176.9730  136.6440 O   0  0  0  0  0  0  0  0  0  0  0  0
  187.6830  174.8560  135.0480 C   0  0  0  0  0  1  0  0  0  0  0  0
  186.9970  176.7750  136.9350 C   0  0  1  0  0  3  0  0  0  0  0  0
  185.3300  178.8660  140.7740 C   0  0  0  0  0  1  0  0  0  0  0  0
  185.6690  172.5380  135.6030 C   0  0  0  0  0  2  0  0  0  0  0  0
  184.7450  174.7240  135.9840 O   0  0  0  0  0  0  0  0  0  0  0  0
  185.7300  178.4900  139.4230 N   0  0  0  0  0  0  0  0  0  0  0  0
  187.5980  179.1630  136.9980 N   0  0  0  0  0  2  0  0  0  0  0  0
  188.6770  179.8930  137.3640 O   0  0  0  0  0  1  0  0  0  0  0  0
  1  5  1  6  0  0  0
  1  4  1  0  0  0  0
  2 21  1  0  0  0  0
  2 17  1  1  0  0  0
  3 23  1  6  0  0  0
  3 11  1  0  0  0  0
  4 22  1  6  0  0  0
  4 13  1  0  0  0  0
  5 12  2  0  0  0  0
  6  8  1  0  0  0  0
  7 28  1  0  0  0  0
  7 15  2  0  0  0  0
  8 12  1  6  0  0  0
  9 12  1  0  0  0  0
  9 20  1  0  0  0  0
 10 29  1  6  0  0  0
 10  7  1  0  0  0  0
 13  8  1  0  0  0  0
 13 28  1  1  0  0  0
 14  2  1  0  0  0  0
 18 26  1  6  0  0  0
 18  3  1  0  0  0  0
 19 26  1  0  0  0  0
 19 14  1  0  0  0  0
 20 16  1  1  0  0  0
 20  6  1  0  0  0  0
 21 27  1  6  0  0  0
 21  1  1  0  0  0  0
 24 22  1  1  0  0  0
 24 11  1  0  0  0  0
 24 10  1  0  0  0  0
 27 18  1  0  0  0  0
 28 25  1  0  0  0  0
 29 30  1  0  0  0  0
M  END
>  <MODEL>
4

>  <REMARK>
 VINA RESULT:      -5.6      3.084      7.048
  Name = 
  1 active torsions:
  status: ('A' for Active; 'I' for Inactive)
    1  A    between atoms: C_10  and  N_15
                            x       y       z     vdW  Elec       q    Type
                         _______ _______ _______ _____ _____    ______ ____

>  <TORSDO>
F 1

$$$$
=
 OpenBabel10272413573D

 30 34  0  0  1  0  0  0  0  0999 V2000
  187.5160  173.7710  135.8430 C   0  0  1  0  0  3  0  0  0  0  0  0
  186.2940  171.4150  135.7780 C   0  0  1  0  0  3  0  0  0  0  0  0
  183.8030  175.1520  136.6720 C   0  0  1  0  0  3  0  0  0  0  0  0
  187.2900  175.2600  136.1490 C   0  0  2  0  0  3  0  0  0  0  0  0
  188.6450  173.2490  136.6060 N   0  0  0  0  0  0  0  0  0  0  0  0
  191.3180  176.0730  136.6350 S   0  0  0  0  0  0  0  0  0  0  0  0
  187.1590  178.0790  135.6800 C   0  0  0  0  0  0  0  0  0  0  0  0
  189.8480  175.2670  135.9140 C   0  0  1  0  0  3  0  0  0  0  0  0
  190.8800  173.5360  137.3460 N   0  0  0  0  0  2  0  0  0  0  0  0
  186.2940  177.8990  136.9160 C   0  0  1  0  0  3  0  0  0  0  0  0
  184.6920  176.1470  136.1680 O   0  0  0  0  0  0  0  0  0  0  0  0
  189.7520  173.9350  136.5970 C   0  0  0  0  0  0  0  0  0  0  0  0
  188.5720  176.0780  136.2250 C   0  0  1  0  0  3  0  0  0  0  0  0
  184.6930  170.7880  135.1360 S   0  0  0  0  0  0  0  0  0  0  0  0
  186.8220  178.9640  134.8480 O   0  0  0  0  0  0  0  0  0  0  0  0
  193.0660  173.9790  136.3970 C   0  0  0  0  0  1  0  0  0  0  0  0
  187.3820  170.9860  134.8080 C   0  0  0  0  0  1  0  0  0  0  0  0
  184.2240  173.7200  136.3000 C   0  0  2  0  0  3  0  0  0  0  0  0
  183.6830  171.2510  136.5930 C   0  0  0  0  0  2  0  0  0  0  0  0
  191.9670  174.4960  137.3050 C   0  0  1  0  0  3  0  0  0  0  0  0
  186.2230  172.9400  135.9020 C   0  0  1  0  0  3  0  0  0  0  0  0
  186.6130  175.4710  137.3550 O   0  0  0  0  0  0  0  0  0  0  0  0
  183.3550  175.3240  138.1280 C   0  0  0  0  0  1  0  0  0  0  0  0
  185.6690  176.4950  137.1350 C   0  0  1  0  0  3  0  0  0  0  0  0
  189.2430  177.6560  134.3470 C   0  0  0  0  0  1  0  0  0  0  0  0
  183.1210  172.6770  136.4940 C   0  0  0  0  0  2  0  0  0  0  0  0
  185.3900  173.3210  136.9560 O   0  0  0  0  0  0  0  0  0  0  0  0
  188.3650  177.3070  135.4570 N   0  0  0  0  0  0  0  0  0  0  0  0
  187.0220  178.3090  138.1070 N   0  0  0  0  0  2  0  0  0  0  0  0
  186.1100  178.7880  138.9850 O   0  0  0  0  0  1  0  0  0  0  0  0
  1 21  1  0  0  0  0
  1  4  1  0  0  0  0
  1  5  1  1  0  0  0
  2 17  1  6  0  0  0
  2 21  1  0  0  0  0
  3 23  1  1  0  0  0
  4 13  1  0  0  0  0
  4 22  1  1  0  0  0
  6 20  1  0  0  0  0
  7 10  1  0  0  0  0
  8 13  1  0  0  0  0
  8 12  1  1  0  0  0
  8  6  1  0  0  0  0
 10 24  1  0  0  0  0
 10 29  1  1  0  0  0
 11  3  1  0  0  0  0
 12  5  2  0  0  0  0
 12  9  1  0  0  0  0
 13 28  1  6  0  0  0
 14  2  1  0  0  0  0
 14 19  1  0  0  0  0
 15  7  2  0  0  0  0
 18 26  1  1  0  0  0
 18  3  1  0  0  0  0
 18 27  1  0  0  0  0
 20 16  1  6  0  0  0
 20  9  1  0  0  0  0
 21 27  1  1  0  0  0
 24 11  1  6  0  0  0
 24 22  1  0  0  0  0
 25 28  1  0  0  0  0
 26 19  1  0  0  0  0
 28  7  1  0  0  0  0
 29 30  1  0  0  0  0
M  END
>  <MODEL>
5

>  <REMARK>
 VINA RESULT:      -5.3      4.565      7.147
  Name = 
  1 active torsions:
  status: ('A' for Active; 'I' for Inactive)
    1  A    between atoms: C_10  and  N_15
                            x       y       z     vdW  Elec       q    Type
                         _______ _______ _______ _____ _____    ______ ____

>  <TORSDO>
F 1

$$$$
=
 OpenBabel10272413573D

 30 34  0  0  1  0  0  0  0  0999 V2000
  188.5350  177.2360  140.7440 C   0  0  1  0  0  3  0  0  0  0  0  0
  187.5980  178.0570  143.0890 C   0  0  1  0  0  3  0  0  0  0  0  0
  184.9300  178.4820  139.3910 C   0  0  1  0  0  3  0  0  0  0  0  0
  188.2090  177.1870  139.2430 C   0  0  2  0  0  3  0  0  0  0  0  0
  189.8450  177.8370  140.9720 N   0  0  0  0  0  0  0  0  0  0  0  0
  192.1350  176.5380  138.1100 S   0  0  0  0  0  0  0  0  0  0  0  0
  187.6710  176.0440  136.6770 C   0  0  0  0  0  0  0  0  0  0  0  0
  190.6520  176.3970  139.1630 C   0  0  1  0  0  3  0  0  0  0  0  0
  192.1360  177.9620  140.3700 N   0  0  0  0  0  2  0  0  0  0  0  0
  187.0950  177.4450  136.5530 C   0  0  1  0  0  3  0  0  0  0  0  0
  185.5830  177.5520  138.5280 O   0  0  0  0  0  0  0  0  0  0  0  0
  190.8430  177.4050  140.2560 C   0  0  0  0  0  0  0  0  0  0  0  0
  189.3800  176.7620  138.3680 C   0  0  1  0  0  3  0  0  0  0  0  0
  185.9820  177.9720  143.9540 S   0  0  0  0  0  0  0  0  0  0  0  0
  187.0780  175.1070  136.0770 O   0  0  0  0  0  0  0  0  0  0  0  0
  194.0250  176.4700  140.0900 C   0  0  0  0  0  1  0  0  0  0  0  0
  188.5120  177.0150  143.7100 C   0  0  0  0  0  1  0  0  0  0  0  0
  185.4270  178.4100  140.8450 C   0  0  2  0  0  3  0  0  0  0  0  0
  185.2360  179.4460  143.1610 C   0  0  0  0  0  2  0  0  0  0  0  0
  193.0780  177.4330  139.4020 C   0  0  1  0  0  3  0  0  0  0  0  0
  187.3810  177.7940  141.5950 C   0  0  1  0  0  3  0  0  0  0  0  0
  187.7660  178.4160  138.7430 O   0  0  0  0  0  0  0  0  0  0  0  0
  184.7650  179.9050  138.8460 C   0  0  0  0  0  1  0  0  0  0  0  0
  186.6880  178.1530  137.8730 C   0  0  1  0  0  3  0  0  0  0  0  0
  189.4820  174.4380  137.3390 C   0  0  0  0  0  1  0  0  0  0  0  0
  184.5090  179.1080  141.8510 C   0  0  0  0  0  2  0  0  0  0  0  0
  186.7380  178.8700  140.9820 O   0  0  0  0  0  0  0  0  0  0  0  0
  188.8870  175.7680  137.4140 N   0  0  0  0  0  0  0  0  0  0  0  0
  187.9940  178.2960  135.7900 N   0  0  0  0  0  2  0  0  0  0  0  0
  188.2400  177.6630  134.6180 O   0  0  0  0  0  1  0  0  0  0  0  0
  1  5  1  6  0  0  0
  1 21  1  0  0  0  0
  2 17  1  1  0  0  0
  2 14  1  0  0  0  0
  3 23  1  6  0  0  0
  3 18  1  0  0  0  0
  4 22  1  6  0  0  0
  4  1  1  0  0  0  0
  6 20  1  0  0  0  0
  7 28  1  0  0  0  0
  8  6  1  6  0  0  0
  8 12  1  0  0  0  0
 10 29  1  1  0  0  0
 10  7  1  0  0  0  0
 10 24  1  0  0  0  0
 11  3  1  0  0  0  0
 12  9  1  0  0  0  0
 12  5  2  0  0  0  0
 13 28  1  1  0  0  0
 13  8  1  0  0  0  0
 13  4  1  0  0  0  0
 15  7  2  0  0  0  0
 18 27  1  0  0  0  0
 18 26  1  1  0  0  0
 19 14  1  0  0  0  0
 20 16  1  1  0  0  0
 20  9  1  0  0  0  0
 21 27  1  6  0  0  0
 21  2  1  0  0  0  0
 24 11  1  1  0  0  0
 24 22  1  0  0  0  0
 25 28  1  0  0  0  0
 26 19  1  0  0  0  0
 30 29  1  0  0  0  0
M  END
>  <MODEL>
6

>  <REMARK>
 VINA RESULT:      -4.9      3.768      5.123
  Name = 
  1 active torsions:
  status: ('A' for Active; 'I' for Inactive)
    1  A    between atoms: C_10  and  N_15
                            x       y       z     vdW  Elec       q    Type
                         _______ _______ _______ _____ _____    ______ ____

>  <TORSDO>
F 1

$$$$
=
 OpenBabel10272413573D

 30 34  0  0  1  0  0  0  0  0999 V2000
  185.1270  175.9380  136.6110 C   0  0  1  0  0  3  0  0  0  0  0  0
  182.4760  175.9060  136.4620 C   0  0  1  0  0  3  0  0  0  0  0  0
  184.4980  179.2510  138.8490 C   0  0  1  0  0  3  0  0  0  0  0  0
  186.3080  176.6670  137.2700 C   0  0  2  0  0  3  0  0  0  0  0  0
  185.2060  174.5000  136.8490 N   0  0  0  0  0  0  0  0  0  0  0  0
  188.9740  173.5760  136.5960 S   0  0  0  0  0  0  0  0  0  0  0  0
  188.7140  178.2040  137.4520 C   0  0  0  0  0  0  0  0  0  0  0  0
  187.5690  174.6830  136.2350 C   0  0  1  0  0  3  0  0  0  0  0  0
  186.5310  172.5330  136.8770 N   0  0  0  0  0  2  0  0  0  0  0  0
  188.1050  178.3580  138.8370 C   0  0  1  0  0  3  0  0  0  0  0  0
  185.8120  179.1630  138.3000 O   0  0  0  0  0  0  0  0  0  0  0  0
  186.3450  173.9110  136.6260 C   0  0  0  0  0  0  0  0  0  0  0  0
  187.6470  175.9610  137.0970 C   0  0  1  0  0  3  0  0  0  0  0  0
  181.1620  177.1710  136.2530 S   0  0  0  0  0  0  0  0  0  0  0  0
  189.3400  179.1870  136.9710 O   0  0  0  0  0  0  0  0  0  0  0  0
  188.0070  171.3160  135.3890 C   0  0  0  0  0  1  0  0  0  0  0  0
  182.6560  175.2000  135.1290 C   0  0  0  0  0  1  0  0  0  0  0  0
  183.4630  178.4130  138.0780 C   0  0  2  0  0  3  0  0  0  0  0  0
  181.0380  177.6440  138.0190 C   0  0  0  0  0  2  0  0  0  0  0  0
  187.9000  172.0940  136.6860 C   0  0  1  0  0  3  0  0  0  0  0  0
  183.7690  176.5960  136.9110 C   0  0  1  0  0  3  0  0  0  0  0  0
  186.1340  176.8540  138.6450 O   0  0  0  0  0  0  0  0  0  0  0  0
  184.3960  179.1390  140.3740 C   0  0  0  0  0  1  0  0  0  0  0  0
  186.5710  178.1590  138.9530 C   0  0  1  0  0  3  0  0  0  0  0  0
  189.3940  176.8300  135.4660 C   0  0  0  0  0  1  0  0  0  0  0  0
  182.0100  178.7720  138.3980 C   0  0  0  0  0  2  0  0  0  0  0  0
  183.6700  177.0420  138.2300 O   0  0  0  0  0  0  0  0  0  0  0  0
  188.6340  176.9670  136.7030 N   0  0  0  0  0  0  0  0  0  0  0  0
  188.7920  177.4990  139.7880 N   0  0  0  0  0  2  0  0  0  0  0  0
  188.4030  177.8860  141.0260 O   0  0  0  0  0  1  0  0  0  0  0  0
  1  5  1  1  0  0  0
  1 21  1  0  0  0  0
  1  4  1  0  0  0  0
  2 17  1  6  0  0  0
  2 21  1  0  0  0  0
  3 23  1  1  0  0  0
  4 22  1  1  0  0  0
  6 20  1  0  0  0  0
  7 10  1  0  0  0  0
  8  6  1  1  0  0  0
  8 12  1  0  0  0  0
  8 13  1  0  0  0  0
 10 24  1  0  0  0  0
 10 29  1  1  0  0  0
 11  3  1  0  0  0  0
 12  5  2  0  0  0  0
 12  9  1  0  0  0  0
 13 28  1  6  0  0  0
 13  4  1  0  0  0  0
 14  2  1  0  0  0  0
 14 19  1  0  0  0  0
 15  7  2  0  0  0  0
 18 27  1  0  0  0  0
 18 26  1  1  0  0  0
 18  3  1  0  0  0  0
 19 26  1  0  0  0  0
 20 16  1  6  0  0  0
 20  9  1  0  0  0  0
 21 27  1  1  0  0  0
 22 24  1  0  0  0  0
 24 11  1  6  0  0  0
 25 28  1  0  0  0  0
 28  7  1  0  0  0  0
 29 30  1  0  0  0  0
M  END
>  <MODEL>
7

>  <REMARK>
 VINA RESULT:      -4.9      3.228      6.083
  Name = 
  1 active torsions:
  status: ('A' for Active; 'I' for Inactive)
    1  A    between atoms: C_10  and  N_15
                            x       y       z     vdW  Elec       q    Type
                         _______ _______ _______ _____ _____    ______ ____

>  <TORSDO>
F 1

$$$$
=
 OpenBabel10272413573D

 30 34  0  0  1  0  0  0  0  0999 V2000
  186.0080  178.3360  138.4790 C   0  0  1  0  0  3  0  0  0  0  0  0
  188.5220  177.8570  137.7740 C   0  0  1  0  0  3  0  0  0  0  0  0
  185.1570  176.3090  135.0820 C   0  0  1  0  0  3  0  0  0  0  0  0
  184.5500  178.0380  138.0970 C   0  0  2  0  0  3  0  0  0  0  0  0
  186.2570  178.0000  139.8780 N   0  0  0  0  0  0  0  0  0  0  0  0
  183.0560  179.0480  141.8200 S   0  0  0  0  0  0  0  0  0  0  0  0
  181.8560  178.5580  137.2870 C   0  0  0  0  0  0  0  0  0  0  0  0
  184.1600  179.1640  140.3720 C   0  0  1  0  0  3  0  0  0  0  0  0
  185.5380  178.1130  142.1350 N   0  0  0  0  0  2  0  0  0  0  0  0
  182.0370  177.0880  136.9450 C   0  0  1  0  0  3  0  0  0  0  0  0
  184.0930  177.1400  135.5420 O   0  0  0  0  0  0  0  0  0  0  0  0
  185.4080  178.4320  140.7650 C   0  0  0  0  0  0  0  0  0  0  0  0
  183.5340  178.4580  139.1500 C   0  0  1  0  0  3  0  0  0  0  0  0
  189.4620  177.8610  136.1970 S   0  0  0  0  0  0  0  0  0  0  0  0
  181.1320  179.2550  136.5270 O   0  0  0  0  0  0  0  0  0  0  0  0
  184.8570  179.7940  143.7430 C   0  0  0  0  0  1  0  0  0  0  0  0
  188.8750  179.1290  138.5270 C   0  0  0  0  0  1  0  0  0  0  0  0
  186.5350  176.7400  135.6120 C   0  0  2  0  0  3  0  0  0  0  0  0
  189.0130  176.1630  135.6760 C   0  0  0  0  0  2  0  0  0  0  0  0
  184.4270  178.5810  142.9420 C   0  0  1  0  0  3  0  0  0  0  0  0
  187.0240  177.7850  137.4640 C   0  0  1  0  0  3  0  0  0  0  0  0
  184.3200  176.6810  137.8430 O   0  0  0  0  0  0  0  0  0  0  0  0
  184.9020  174.7980  135.1330 C   0  0  0  0  0  1  0  0  0  0  0  0
  183.4910  176.5990  136.7060 C   0  0  1  0  0  3  0  0  0  0  0  0
  182.0820  180.5220  138.8330 C   0  0  0  0  0  1  0  0  0  0  0  0
  187.7140  176.1210  134.8570 C   0  0  0  0  0  2  0  0  0  0  0  0
  186.6690  176.5230  136.9840 O   0  0  0  0  0  0  0  0  0  0  0  0
  182.4450  179.1570  138.4670 N   0  0  0  0  0  0  0  0  0  0  0  0
  181.3890  176.2530  137.9440 N   0  0  0  0  0  2  0  0  0  0  0  0
  181.4700  174.9750  137.5050 O   0  0  0  0  0  1  0  0  0  0  0  0
  1  5  1  1  0  0  0
  2 17  1  6  0  0  0
  3 23  1  1  0  0  0
  3 11  1  0  0  0  0
  3 18  1  0  0  0  0
  4 22  1  1  0  0  0
  4  1  1  0  0  0  0
  4 13  1  0  0  0  0
  5 12  2  0  0  0  0
  6 20  1  0  0  0  0
  7 28  1  0  0  0  0
  8 12  1  1  0  0  0
  8  6  1  0  0  0  0
  9 20  1  0  0  0  0
 10  7  1  0  0  0  0
 10 29  1  1  0  0  0
 12  9  1  0  0  0  0
 13 28  1  6  0  0  0
 13  8  1  0  0  0  0
 14  2  1  0  0  0  0
 15  7  2  0  0  0  0
 18 26  1  6  0  0  0
 18 27  1  0  0  0  0
 19 14  1  0  0  0  0
 20 16  1  6  0  0  0
 21 27  1  1  0  0  0
 21  2  1  0  0  0  0
 21  1  1  0  0  0  0
 24 11  1  6  0  0  0
 24 10  1  0  0  0  0
 24 22  1  0  0  0  0
 26 19  1  0  0  0  0
 28 25  1  0  0  0  0
 30 29  1  0  0  0  0
M  END
>  <MODEL>
8

>  <REMARK>
 VINA RESULT:      -4.7      2.198      5.859
  Name = 
  1 active torsions:
  status: ('A' for Active; 'I' for Inactive)
    1  A    between atoms: C_10  and  N_15
                            x       y       z     vdW  Elec       q    Type
                         _______ _______ _______ _____ _____    ______ ____

>  <TORSDO>
F 1

$$$$
=
 OpenBabel10272413573D

 30 34  0  0  1  0  0  0  0  0999 V2000
  185.7700  175.3020  136.8970 C   0  0  1  0  0  3  0  0  0  0  0  0
  187.9180  174.0480  135.9700 C   0  0  1  0  0  3  0  0  0  0  0  0
  188.5050  177.6380  138.7510 C   0  0  1  0  0  3  0  0  0  0  0  0
  185.3210  176.5200  137.7200 C   0  0  2  0  0  3  0  0  0  0  0  0
  185.1030  175.2800  135.5980 N   0  0  0  0  0  0  0  0  0  0  0  0
  181.4580  176.4710  136.2410 S   0  0  0  0  0  0  0  0  0  0  0  0
  184.0890  177.9800  139.8500 C   0  0  0  0  0  0  0  0  0  0  0  0
  183.0370  175.7640  136.8200 C   0  0  1  0  0  3  0  0  0  0  0  0
  183.0900  175.4980  134.3630 N   0  0  0  0  0  2  0  0  0  0  0  0
  185.0800  178.9820  139.2780 C   0  0  1  0  0  3  0  0  0  0  0  0
  187.2060  177.6890  139.3400 O   0  0  0  0  0  0  0  0  0  0  0  0
  183.8130  175.4520  135.5760 C   0  0  0  0  0  0  0  0  0  0  0  0
  183.8260  176.7990  137.6510 C   0  0  1  0  0  3  0  0  0  0  0  0
  189.5400  173.5430  136.6660 S   0  0  0  0  0  0  0  0  0  0  0  0
  183.8830  177.9990  141.0930 O   0  0  0  0  0  0  0  0  0  0  0  0
  180.8500  174.5730  134.3630 C   0  0  0  0  0  1  0  0  0  0  0  0
  187.0420  172.8090  135.8920 C   0  0  0  0  0  1  0  0  0  0  0  0
  188.7470  176.3630  137.9260 C   0  0  2  0  0  3  0  0  0  0  0  0
  190.3900  175.1470  136.4100 C   0  0  0  0  0  2  0  0  0  0  0  0
  181.6880  175.8230  134.5420 C   0  0  1  0  0  3  0  0  0  0  0  0
  187.2960  175.1180  136.8730 C   0  0  1  0  0  3  0  0  0  0  0  0
  185.9630  177.7020  137.3360 O   0  0  0  0  0  0  0  0  0  0  0  0
  188.9920  178.9290  138.0820 C   0  0  0  0  0  1  0  0  0  0  0  0
  186.3000  178.4010  138.5140 C   0  0  1  0  0  3  0  0  0  0  0  0
  182.2910  176.2480  139.6020 C   0  0  0  0  0  1  0  0  0  0  0  0
  190.2200  176.1010  137.6010 C   0  0  0  0  0  2  0  0  0  0  0  0
  187.9790  176.3300  136.7600 O   0  0  0  0  0  0  0  0  0  0  0  0
  183.3550  177.0520  139.0140 N   0  0  0  0  0  0  0  0  0  0  0  0
  184.3900  179.9560  138.4470 N   0  0  0  0  0  2  0  0  0  0  0  0
  183.4630  180.5590  139.2280 O   0  0  0  0  0  1  0  0  0  0  0  0
  1  5  1  6  0  0  0
  1  4  1  0  0  0  0
  2 17  1  1  0  0  0
  2 14  1  0  0  0  0
  2 21  1  0  0  0  0
  3 23  1  6  0  0  0
  3 11  1  0  0  0  0
  4 22  1  6  0  0  0
  6  8  1  0  0  0  0
  7 15  2  0  0  0  0
  8 12  1  6  0  0  0
  8 13  1  0  0  0  0
  9 20  1  0  0  0  0
  9 12  1  0  0  0  0
 10 29  1  6  0  0  0
 10  7  1  0  0  0  0
 12  5  2  0  0  0  0
 13  4  1  0  0  0  0
 13 28  1  1  0  0  0
 18 26  1  6  0  0  0
 18  3  1  0  0  0  0
 19 14  1  0  0  0  0
 19 26  1  0  0  0  0
 20 16  1  1  0  0  0
 20  6  1  0  0  0  0
 21 27  1  6  0  0  0
 21  1  1  0  0  0  0
 24 22  1  6  0  0  0
 24 10  1  0  0  0  0
 24 11  1  0  0  0  0
 27 18  1  0  0  0  0
 28 25  1  0  0  0  0
 28  7  1  0  0  0  0
 29 30  1  0  0  0  0
M  END
>  <MODEL>
9

>  <REMARK>
 VINA RESULT:      -4.6      3.283      6.384
  Name = 
  1 active torsions:
  status: ('A' for Active; 'I' for Inactive)
    1  A    between atoms: C_10  and  N_15
                            x       y       z     vdW  Elec       q    Type
                         _______ _______ _______ _____ _____    ______ ____

>  <TORSDO>
F 1

$$$$
