=
 OpenBabel10272401213D

 55 60  0  0  1  0  0  0  0  0999 V2000
  185.0840  177.6680  140.4390 C   0  0  0  0  0  2  0  0  0  0  0  0
  185.5410  177.9500  135.8540 O   0  0  0  0  0  1  0  0  0  0  0  0
  185.1450  174.2490  135.9990 C   0  0  0  0  0  2  0  0  0  0  0  0
  182.3020  173.9930  135.4950 C   0  0  0  0  0  3  0  0  0  0  0  0
  180.9460  173.9830  135.1720 C   0  0  0  0  0  3  0  0  0  0  0  0
  181.7730  174.7190  137.7550 C   0  0  0  0  0  0  0  0  0  0  0  0
  180.4130  174.6790  137.4200 C   0  0  0  0  0  3  0  0  0  0  0  0
  184.6520  173.9300  138.4010 C   0  0  0  0  0  1  0  0  0  0  0  0
  180.0000  174.3170  136.1380 C   0  0  0  0  0  3  0  0  0  0  0  0
  187.3230  178.1430  141.4430 C   0  0  0  0  0  3  0  0  0  0  0  0
  182.7440  174.3410  136.7850 C   0  0  0  0  0  0  0  0  0  0  0  0
  188.4200  178.7120  138.9300 C   0  0  0  0  0  0  0  0  0  0  0  0
  184.1680  178.3120  139.4060 C   0  0  0  0  0  2  0  0  0  0  0  0
  187.0610  178.4120  139.0560 C   0  0  0  0  0  3  0  0  0  0  0  0
  182.2590  176.6650  139.3630 C   0  0  1  0  0  3  0  0  0  0  0  0
  187.1640  176.4320  136.8260 C   0  0  0  0  0  2  0  0  0  0  0  0
  182.1260  175.1450  139.1530 C   0  0  0  0  0  2  0  0  0  0  0  0
  185.7260  176.6610  136.3610 C   0  0  2  0  0  3  0  0  0  0  0  0
  185.2800  175.6230  135.3480 C   0  0  0  0  0  2  0  0  0  0  0  0
  188.6820  178.4540  141.3240 C   0  0  0  0  0  3  0  0  0  0  0  0
  188.1990  177.1930  135.9950 C   0  0  1  0  0  3  0  0  0  0  0  0
  186.5030  178.1300  140.3090 C   0  0  0  0  0  0  0  0  0  0  0  0
  184.1570  174.2690  137.0770 N   0  0  0  0  0  0  0  0  0  0  0  0
  183.4500  177.2420  138.5970 C   0  0  0  0  0  2  0  0  0  0  0  0
  189.3660  177.6820  136.8530 C   0  0  0  0  0  2  0  0  0  0  0  0
  189.0100  178.9770  137.5810 C   0  0  0  0  0  2  0  0  0  0  0  0
  189.2310  178.7330  140.0680 C   0  0  0  0  0  3  0  0  0  0  0  0
  181.3930  180.8170  137.5520 C   0  0  0  0  0  0  0  0  0  0  0  0
  180.2560  177.2630  137.8890 C   0  0  0  0  0  2  0  0  0  0  0  0
  181.2400  181.2210  136.1970 N   0  0  0  0  0  1  0  0  0  0  0  0
  181.0370  179.4900  137.9560 N   0  0  0  0  0  0  0  0  0  0  0  0
  179.9880  177.1820  140.3680 C   0  0  0  0  0  1  0  0  0  0  0  0
  181.2680  178.9810  139.2930 C   0  0  0  0  0  2  0  0  0  0  0  0
  181.8460  181.6360  138.3910 O   0  0  0  0  0  0  0  0  0  0  0  0
  180.4990  178.5030  137.0470 C   0  0  0  0  0  2  0  0  0  0  0  0
  180.9520  177.4940  139.2340 C   0  0  1  0  0  0  0  0  0  0  0  0
  188.6520  176.4120  134.8420 N   0  0  0  0  0  2  0  0  0  0  0  0
  189.9320  176.9120  134.3470 C   0  0  0  0  0  2  0  0  0  0  0  0
  193.5720  172.9470  134.6860 C   0  0  0  0  0  1  0  0  0  0  0  0
  192.6570  175.4600  137.3840 C   0  0  0  0  0  2  0  0  0  0  0  0
  193.4590  174.2820  136.8780 C   0  0  2  0  0  0  0  0  0  0  0  0
  191.1070  174.7230  134.3960 C   0  0  0  0  0  2  0  0  0  0  0  0
  193.6240  176.0200  135.0440 C   0  0  1  0  0  3  0  0  0  0  0  0
  193.8940  175.7100  136.5220 C   0  0  1  0  0  3  0  0  0  0  0  0
  191.0690  176.1310  134.9770 C   0  0  1  0  0  3  0  0  0  0  0  0
  190.4970  172.4380  135.1610 C   0  0  0  0  0  1  0  0  0  0  0  0
  192.3880  176.8800  134.7730 C   0  0  0  0  0  2  0  0  0  0  0  0
  192.7150  173.3580  135.8780 C   0  0  1  0  0  3  0  0  0  0  0  0
  191.2550  173.7010  135.5220 C   0  0  1  0  0  3  0  0  0  0  0  0
  194.2550  173.6230  137.9970 C   0  0  0  0  0  2  0  0  0  0  0  0
  196.5740  172.9010  137.8020 N   0  0  0  0  0  1  0  0  0  0  0  0
  195.2030  172.5600  137.4680 C   0  0  0  0  0  2  0  0  0  0  0  0
  194.8540  176.6790  134.4450 C   0  0  0  0  0  2  0  0  0  0  0  0
  196.3310  178.2620  134.8720 C   0  0  0  0  0  1  0  0  0  0  0  0
  195.6680  177.1850  135.4590 O   0  0  0  0  0  0  0  0  0  0  0  0
  3 23  1  0  0  0  0
  4 11  1  0  0  0  0
  5  4  2  0  0  0  0
  5  9  1  0  0  0  0
  6 17  1  0  0  0  0
  7  6  1  0  0  0  0
  9  7  2  0  0  0  0
 11 23  1  0  0  0  0
 11  6  2  0  0  0  0
 12 14  2  0  0  0  0
 12 27  1  0  0  0  0
 13  1  1  0  0  0  0
 14 22  1  0  0  0  0
 15 24  1  6  0  0  0
 17 15  1  0  0  0  0
 18  2  1  6  0  0  0
 18 16  1  0  0  0  0
 19  3  1  0  0  0  0
 19 18  1  0  0  0  0
 20 10  1  0  0  0  0
 21 37  1  6  0  0  0
 21 16  1  0  0  0  0
 21 25  1  0  0  0  0
 22  1  1  0  0  0  0
 22 10  2  0  0  0  0
 23  8  1  0  0  0  0
 24 13  1  0  0  0  0
 25 26  1  0  0  0  0
 26 12  1  0  0  0  0
 27 20  2  0  0  0  0
 28 31  1  0  0  0  0
 28 34  2  0  0  0  0
 29 36  1  0  0  0  0
 30 28  1  0  0  0  0
 31 33  1  0  0  0  0
 35 29  1  0  0  0  0
 35 31  1  0  0  0  0
 36 33  1  0  0  0  0
 36 15  1  0  0  0  0
 36 32  1  1  0  0  0
 38 37  1  0  0  0  0
 41 40  1  0  0  0  0
 41 50  1  1  0  0  0
 42 45  1  0  0  0  0
 42 49  1  0  0  0  0
 43 53  1  1  0  0  0
 43 44  1  0  0  0  0
 44 41  1  0  0  0  0
 44 40  1  1  0  0  0
 45 38  1  6  0  0  0
 47 45  1  0  0  0  0
 47 43  1  0  0  0  0
 48 39  1  6  0  0  0
 48 41  1  0  0  0  0
 49 46  1  6  0  0  0
 49 48  1  0  0  0  0
 52 51  1  0  0  0  0
 52 50  1  0  0  0  0
 53 55  1  0  0  0  0
 54 55  1  0  0  0  0
M  END
>  <MODEL>
1

>  <REMARK>
 VINA RESULT:      -3.8      0.000      0.000
  Name = 
  8 active torsions:
  status: ('A' for Active; 'I' for Inactive)
    1  A    between atoms: C_6  and  C_25
    2  A    between atoms: C_8  and  C_20
    3  A    between atoms: C_8  and  N_22
    4  A    between atoms: C_12  and  C_30
    5  A    between atoms: N_22  and  C_43
    6  A    between atoms: C_25  and  C_38
    7  A    between atoms: C_30  and  O_50
    8  A    between atoms: C_33  and  C_52
                            x       y       z     vdW  Elec       q    Type
                         _______ _______ _______ _____ _____    ______ ____

>  <TORSDO>
F 8

$$$$
=
 OpenBabel10272401213D

 55 60  0  0  1  0  0  0  0  0999 V2000
  186.7950  173.3650  134.8440 C   0  0  0  0  0  2  0  0  0  0  0  0
  186.3680  175.7690  138.7630 O   0  0  0  0  0  1  0  0  0  0  0  0
  185.0880  178.4390  136.5040 C   0  0  0  0  0  2  0  0  0  0  0  0
  182.2310  177.9910  136.7070 C   0  0  0  0  0  3  0  0  0  0  0  0
  180.8800  177.7340  136.9370 C   0  0  0  0  0  3  0  0  0  0  0  0
  182.3720  176.0360  135.2680 C   0  0  0  0  0  0  0  0  0  0  0  0
  181.0080  175.8080  135.4900 C   0  0  0  0  0  3  0  0  0  0  0  0
  185.0270  177.2310  134.3460 C   0  0  0  0  0  1  0  0  0  0  0  0
  180.2660  176.6480  136.3200 C   0  0  0  0  0  3  0  0  0  0  0  0
  189.2360  173.1790  134.3460 C   0  0  0  0  0  3  0  0  0  0  0  0
  182.9980  177.1670  135.8630 C   0  0  0  0  0  0  0  0  0  0  0  0
  189.9090  174.4480  136.7500 C   0  0  0  0  0  0  0  0  0  0  0  0
  185.8820  173.1260  136.0400 C   0  0  0  0  0  2  0  0  0  0  0  0
  188.5730  174.1740  136.4460 C   0  0  0  0  0  3  0  0  0  0  0  0
  183.6510  173.8120  135.0860 C   0  0  1  0  0  3  0  0  0  0  0  0
  187.7170  176.9490  137.1280 C   0  0  0  0  0  2  0  0  0  0  0  0
  183.0970  175.0640  134.3790 C   0  0  0  0  0  2  0  0  0  0  0  0
  186.3200  176.5570  137.6100 C   0  0  2  0  0  3  0  0  0  0  0  0
  185.4300  177.7660  137.8300 C   0  0  0  0  0  2  0  0  0  0  0  0
  190.5770  173.4410  134.6510 C   0  0  0  0  0  3  0  0  0  0  0  0
  188.7200  177.1410  138.2680 C   0  0  1  0  0  3  0  0  0  0  0  0
  188.2270  173.5360  135.2470 C   0  0  0  0  0  0  0  0  0  0  0  0
  184.3760  177.5230  135.6130 N   0  0  0  0  0  0  0  0  0  0  0  0
  184.7680  174.1620  136.0690 C   0  0  0  0  0  2  0  0  0  0  0  0
  190.1220  176.6760  137.8740 C   0  0  0  0  0  2  0  0  0  0  0  0
  190.2600  175.1610  138.0170 C   0  0  0  0  0  2  0  0  0  0  0  0
  190.9120  174.0790  135.8490 C   0  0  0  0  0  3  0  0  0  0  0  0
  183.7460  169.2450  135.7220 C   0  0  0  0  0  0  0  0  0  0  0  0
  182.7720  172.5720  137.1440 C   0  0  0  0  0  2  0  0  0  0  0  0
  184.3490  168.4670  136.7480 N   0  0  0  0  0  1  0  0  0  0  0  0
  183.2850  170.5730  135.9970 N   0  0  0  0  0  0  0  0  0  0  0  0
  181.1830  173.2980  135.3640 C   0  0  0  0  0  1  0  0  0  0  0  0
  182.7610  171.4570  134.9750 C   0  0  0  0  0  2  0  0  0  0  0  0
  183.6220  168.7570  134.5700 O   0  0  0  0  0  0  0  0  0  0  0  0
  183.3850  171.1910  137.2990 C   0  0  0  0  0  2  0  0  0  0  0  0
  182.5970  172.8140  135.6410 C   0  0  1  0  0  0  0  0  0  0  0  0
  188.7170  178.5170  138.7690 N   0  0  0  0  0  2  0  0  0  0  0  0
  188.0740  178.5900  140.0790 C   0  0  0  0  0  2  0  0  0  0  0  0
  190.4140  174.9810  143.3340 C   0  0  0  0  0  1  0  0  0  0  0  0
  190.7860  178.7610  143.4520 C   0  0  0  0  0  2  0  0  0  0  0  0
  191.1050  177.3740  143.9640 C   0  0  2  0  0  0  0  0  0  0  0  0
  188.5560  176.7860  141.7190 C   0  0  0  0  0  2  0  0  0  0  0  0
  191.4150  177.2270  141.4560 C   0  0  1  0  0  3  0  0  0  0  0  0
  191.8570  177.9280  142.7480 C   0  0  1  0  0  3  0  0  0  0  0  0
  189.0350  178.1170  141.1520 C   0  0  1  0  0  3  0  0  0  0  0  0
  187.4700  176.0030  143.8120 C   0  0  0  0  0  1  0  0  0  0  0  0
  190.4520  178.0280  140.5780 C   0  0  0  0  0  2  0  0  0  0  0  0
  189.9520  176.3430  143.8410 C   0  0  1  0  0  3  0  0  0  0  0  0
  188.6120  176.8210  143.2450 C   0  0  1  0  0  3  0  0  0  0  0  0
  191.8730  177.4260  145.2790 C   0  0  0  0  0  2  0  0  0  0  0  0
  192.0630  175.8050  147.0900 N   0  0  0  0  0  1  0  0  0  0  0  0
  191.1460  176.6860  146.3890 C   0  0  0  0  0  2  0  0  0  0  0  0
  192.6470  176.8430  140.6550 C   0  0  0  0  0  2  0  0  0  0  0  0
  193.2410  176.9510  138.5330 C   0  0  0  0  0  1  0  0  0  0  0  0
  192.8340  177.7440  139.6050 O   0  0  0  0  0  0  0  0  0  0  0  0
  1 22  1  0  0  0  0
  1 13  1  0  0  0  0
  3 19  1  0  0  0  0
  4  5  1  0  0  0  0
  6  7  2  0  0  0  0
  6 11  1  0  0  0  0
  7  9  1  0  0  0  0
  8 23  1  0  0  0  0
  9  5  2  0  0  0  0
 10 20  2  0  0  0  0
 10 22  1  0  0  0  0
 11  4  2  0  0  0  0
 12 26  1  0  0  0  0
 13 24  1  0  0  0  0
 14 12  1  0  0  0  0
 15 17  1  1  0  0  0
 15 36  1  0  0  0  0
 15 24  1  0  0  0  0
 16 18  1  0  0  0  0
 16 21  1  0  0  0  0
 17  6  1  0  0  0  0
 18 19  1  0  0  0  0
 18  2  1  1  0  0  0
 20 27  1  0  0  0  0
 21 37  1  6  0  0  0
 22 14  2  0  0  0  0
 23 11  1  0  0  0  0
 23  3  1  0  0  0  0
 25 26  1  0  0  0  0
 25 21  1  0  0  0  0
 27 12  2  0  0  0  0
 28 31  1  0  0  0  0
 28 30  1  0  0  0  0
 29 35  1  0  0  0  0
 31 35  1  0  0  0  0
 33 36  1  0  0  0  0
 33 31  1  0  0  0  0
 34 28  2  0  0  0  0
 36 32  1  6  0  0  0
 36 29  1  0  0  0  0
 37 38  1  0  0  0  0
 40 41  1  0  0  0  0
 41 50  1  1  0  0  0
 42 49  1  0  0  0  0
 43 53  1  6  0  0  0
 43 44  1  0  0  0  0
 44 40  1  6  0  0  0
 44 41  1  0  0  0  0
 45 38  1  6  0  0  0
 45 42  1  0  0  0  0
 47 45  1  0  0  0  0
 47 43  1  0  0  0  0
 48 39  1  6  0  0  0
 48 41  1  0  0  0  0
 49 46  1  1  0  0  0
 49 48  1  0  0  0  0
 50 52  1  0  0  0  0
 52 51  1  0  0  0  0
 54 55  1  0  0  0  0
 55 53  1  0  0  0  0
M  END
>  <MODEL>
2

>  <REMARK>
 VINA RESULT:      -2.8      3.388      6.907
  Name = 
  8 active torsions:
  status: ('A' for Active; 'I' for Inactive)
    1  A    between atoms: C_6  and  C_25
    2  A    between atoms: C_8  and  C_20
    3  A    between atoms: C_8  and  N_22
    4  A    between atoms: C_12  and  C_30
    5  A    between atoms: N_22  and  C_43
    6  A    between atoms: C_25  and  C_38
    7  A    between atoms: C_30  and  O_50
    8  A    between atoms: C_33  and  C_52
                            x       y       z     vdW  Elec       q    Type
                         _______ _______ _______ _____ _____    ______ ____

>  <TORSDO>
F 8

$$$$
=
 OpenBabel10272401213D

 55 60  0  0  1  0  0  0  0  0999 V2000
  185.1600  177.4840  140.4880 C   0  0  0  0  0  2  0  0  0  0  0  0
  185.7140  178.2120  135.9630 O   0  0  0  0  0  1  0  0  0  0  0  0
  185.4430  174.5030  135.7510 C   0  0  0  0  0  2  0  0  0  0  0  0
  182.6230  174.2040  135.1510 C   0  0  0  0  0  3  0  0  0  0  0  0
  181.2760  174.1810  134.7920 C   0  0  0  0  0  3  0  0  0  0  0  0
  182.0170  174.6960  137.4540 C   0  0  0  0  0  0  0  0  0  0  0  0
  180.6670  174.6440  137.0800 C   0  0  0  0  0  3  0  0  0  0  0  0
  184.9050  173.9430  138.0990 C   0  0  0  0  0  1  0  0  0  0  0  0
  180.2970  174.3910  135.7600 C   0  0  0  0  0  3  0  0  0  0  0  0
  187.3570  177.9340  141.5900 C   0  0  0  0  0  3  0  0  0  0  0  0
  183.0220  174.4430  136.4790 C   0  0  0  0  0  0  0  0  0  0  0  0
  188.4930  178.7730  139.1710 C   0  0  0  0  0  0  0  0  0  0  0  0
  184.2470  178.1930  139.4960 C   0  0  0  0  0  2  0  0  0  0  0  0
  187.1430  178.4190  139.2330 C   0  0  0  0  0  3  0  0  0  0  0  0
  182.3980  176.4970  139.2490 C   0  0  1  0  0  3  0  0  0  0  0  0
  187.3660  176.6620  136.8320 C   0  0  0  0  0  2  0  0  0  0  0  0
  182.3220  174.9990  138.8940 C   0  0  0  0  0  2  0  0  0  0  0  0
  185.9310  176.8880  136.3520 C   0  0  2  0  0  3  0  0  0  0  0  0
  185.5450  175.9360  135.2350 C   0  0  0  0  0  2  0  0  0  0  0  0
  188.7080  178.2990  141.5380 C   0  0  0  0  0  3  0  0  0  0  0  0
  188.3930  177.5310  136.1030 C   0  0  1  0  0  3  0  0  0  0  0  0
  186.5650  178.0020  140.4400 C   0  0  0  0  0  0  0  0  0  0  0  0
  184.4300  174.3890  136.7990 N   0  0  0  0  0  0  0  0  0  0  0  0
  183.5860  177.1810  138.5720 C   0  0  0  0  0  2  0  0  0  0  0  0
  189.5220  177.9740  137.0330 C   0  0  0  0  0  2  0  0  0  0  0  0
  189.1040  179.1830  137.8700 C   0  0  0  0  0  2  0  0  0  0  0  0
  189.2750  178.7130  140.3280 C   0  0  0  0  0  3  0  0  0  0  0  0
  181.4500  180.8160  137.9410 C   0  0  0  0  0  0  0  0  0  0  0  0
  180.4390  177.2130  137.7680 C   0  0  0  0  0  2  0  0  0  0  0  0
  181.3400  181.3870  136.6430 N   0  0  0  0  0  1  0  0  0  0  0  0
  181.1290  179.4370  138.1560 N   0  0  0  0  0  0  0  0  0  0  0  0
  180.0670  176.8030  140.2000 C   0  0  0  0  0  1  0  0  0  0  0  0
  181.3200  178.7680  139.4270 C   0  0  0  0  0  2  0  0  0  0  0  0
  181.8340  181.5350  138.9000 O   0  0  0  0  0  0  0  0  0  0  0  0
  180.6710  178.5590  137.1040 C   0  0  0  0  0  2  0  0  0  0  0  0
  181.0660  177.2920  139.1630 C   0  0  1  0  0  0  0  0  0  0  0  0
  188.8990  176.8770  134.8940 N   0  0  0  0  0  2  0  0  0  0  0  0
  190.2560  177.3240  134.5930 C   0  0  0  0  0  2  0  0  0  0  0  0
  192.6040  173.7310  137.8590 C   0  0  0  0  0  1  0  0  0  0  0  0
  193.8110  174.8550  134.4360 C   0  0  0  0  0  2  0  0  0  0  0  0
  193.9480  174.0170  135.6870 C   0  0  2  0  0  0  0  0  0  0  0  0
  191.3690  176.1610  136.4860 C   0  0  0  0  0  2  0  0  0  0  0  0
  191.5460  173.7010  134.9510 C   0  0  1  0  0  3  0  0  0  0  0  0
  193.0210  173.5520  134.5570 C   0  0  1  0  0  3  0  0  0  0  0  0
  191.2510  176.2430  134.9690 C   0  0  1  0  0  3  0  0  0  0  0  0
  193.0320  176.8350  138.2050 C   0  0  0  0  0  1  0  0  0  0  0  0
  190.8280  174.9100  134.3460 C   0  0  0  0  0  2  0  0  0  0  0  0
  193.4190  174.6800  136.9870 C   0  0  1  0  0  3  0  0  0  0  0  0
  192.8410  176.1070  136.8900 C   0  0  1  0  0  3  0  0  0  0  0  0
  195.2990  173.3160  135.7480 C   0  0  0  0  0  2  0  0  0  0  0  0
  197.3240  174.6220  136.1110 N   0  0  0  0  0  1  0  0  0  0  0  0
  196.2210  173.9500  136.7750 C   0  0  0  0  0  2  0  0  0  0  0  0
  190.8060  172.4260  134.5880 C   0  0  0  0  0  2  0  0  0  0  0  0
  188.8740  171.3600  134.5750 C   0  0  0  0  0  1  0  0  0  0  0  0
  189.5450  172.4190  135.1860 O   0  0  0  0  0  0  0  0  0  0  0  0
  3 23  1  0  0  0  0
  4 11  1  0  0  0  0
  5  4  2  0  0  0  0
  5  9  1  0  0  0  0
  6 17  1  0  0  0  0
  7  6  1  0  0  0  0
  9  7  2  0  0  0  0
 11 23  1  0  0  0  0
 11  6  2  0  0  0  0
 12 14  2  0  0  0  0
 12 27  1  0  0  0  0
 13  1  1  0  0  0  0
 14 22  1  0  0  0  0
 15 24  1  6  0  0  0
 17 15  1  0  0  0  0
 18  2  1  6  0  0  0
 18 16  1  0  0  0  0
 19  3  1  0  0  0  0
 19 18  1  0  0  0  0
 20 10  1  0  0  0  0
 21 37  1  6  0  0  0
 21 16  1  0  0  0  0
 21 25  1  0  0  0  0
 22  1  1  0  0  0  0
 22 10  2  0  0  0  0
 23  8  1  0  0  0  0
 24 13  1  0  0  0  0
 25 26  1  0  0  0  0
 26 12  1  0  0  0  0
 27 20  2  0  0  0  0
 28 31  1  0  0  0  0
 28 34  2  0  0  0  0
 29 36  1  0  0  0  0
 30 28  1  0  0  0  0
 31 33  1  0  0  0  0
 35 29  1  0  0  0  0
 35 31  1  0  0  0  0
 36 15  1  0  0  0  0
 36 33  1  0  0  0  0
 36 32  1  1  0  0  0
 38 37  1  0  0  0  0
 40 41  1  0  0  0  0
 41 50  1  1  0  0  0
 41 48  1  0  0  0  0
 42 49  1  0  0  0  0
 43 53  1  6  0  0  0
 44 40  1  6  0  0  0
 44 43  1  0  0  0  0
 44 41  1  0  0  0  0
 45 38  1  1  0  0  0
 45 42  1  0  0  0  0
 47 43  1  0  0  0  0
 47 45  1  0  0  0  0
 48 39  1  6  0  0  0
 49 48  1  0  0  0  0
 49 46  1  1  0  0  0
 50 52  1  0  0  0  0
 51 52  1  0  0  0  0
 53 55  1  0  0  0  0
 54 55  1  0  0  0  0
M  END
>  <MODEL>
3

>  <REMARK>
 VINA RESULT:      -2.5      1.413      2.426
  Name = 
  8 active torsions:
  status: ('A' for Active; 'I' for Inactive)
    1  A    between atoms: C_6  and  C_25
    2  A    between atoms: C_8  and  C_20
    3  A    between atoms: C_8  and  N_22
    4  A    between atoms: C_12  and  C_30
    5  A    between atoms: N_22  and  C_43
    6  A    between atoms: C_25  and  C_38
    7  A    between atoms: C_30  and  O_50
    8  A    between atoms: C_33  and  C_52
                            x       y       z     vdW  Elec       q    Type
                         _______ _______ _______ _____ _____    ______ ____

>  <TORSDO>
F 8

$$$$
=
 OpenBabel10272401213D

 55 60  0  0  1  0  0  0  0  0999 V2000
  184.2470  179.1630  142.9630 C   0  0  0  0  0  2  0  0  0  0  0  0
  183.5380  175.7200  139.9700 O   0  0  0  0  0  1  0  0  0  0  0  0
  185.2350  178.0060  137.5680 C   0  0  0  0  0  2  0  0  0  0  0  0
  187.9590  177.0300  137.7320 C   0  0  0  0  0  3  0  0  0  0  0  0
  189.2150  176.4340  137.8330 C   0  0  0  0  0  3  0  0  0  0  0  0
  188.2840  178.1120  139.8860 C   0  0  0  0  0  0  0  0  0  0  0  0
  189.5540  177.5240  139.9590 C   0  0  0  0  0  3  0  0  0  0  0  0
  185.9050  179.8480  139.0770 C   0  0  0  0  0  1  0  0  0  0  0  0
  190.0170  176.6890  138.9420 C   0  0  0  0  0  3  0  0  0  0  0  0
  182.0280  180.2110  143.4330 C   0  0  0  0  0  3  0  0  0  0  0  0
  187.4740  177.8880  138.7370 C   0  0  0  0  0  0  0  0  0  0  0  0
  180.7010  178.2950  141.8800 C   0  0  0  0  0  0  0  0  0  0  0  0
  184.8300  177.7560  142.9390 C   0  0  0  0  0  2  0  0  0  0  0  0
  182.0810  178.2100  142.0800 C   0  0  0  0  0  3  0  0  0  0  0  0
  187.1990  178.2300  142.2140 C   0  0  1  0  0  3  0  0  0  0  0  0
  182.6040  177.8110  139.1700 C   0  0  0  0  0  2  0  0  0  0  0  0
  187.8580  178.9770  141.0390 C   0  0  0  0  0  2  0  0  0  0  0  0
  183.8460  176.9400  139.3630 C   0  0  2  0  0  3  0  0  0  0  0  0
  184.5920  176.7120  138.0620 C   0  0  0  0  0  2  0  0  0  0  0  0
  180.6430  180.2960  143.2450 C   0  0  0  0  0  3  0  0  0  0  0  0
  181.3330  177.0040  138.8970 C   0  0  1  0  0  3  0  0  0  0  0  0
  182.7530  179.1620  142.8590 C   0  0  0  0  0  0  0  0  0  0  0  0
  186.1930  178.5260  138.5430 N   0  0  0  0  0  0  0  0  0  0  0  0
  185.8510  177.6260  141.8180 C   0  0  0  0  0  2  0  0  0  0  0  0
  180.1030  177.6490  139.5360 C   0  0  0  0  0  2  0  0  0  0  0  0
  180.0030  177.2920  141.0190 C   0  0  0  0  0  2  0  0  0  0  0  0
  179.9820  179.3420  142.4660 C   0  0  0  0  0  3  0  0  0  0  0  0
  191.6380  178.4960  143.4340 C   0  0  0  0  0  0  0  0  0  0  0  0
  188.1550  177.6320  144.5100 C   0  0  0  0  0  2  0  0  0  0  0  0
  192.2690  179.2350  144.4720 N   0  0  0  0  0  1  0  0  0  0  0  0
  190.2870  178.0450  143.5840 N   0  0  0  0  0  0  0  0  0  0  0  0
  187.6820  175.8240  142.8570 C   0  0  0  0  0  1  0  0  0  0  0  0
  189.5510  177.3820  142.5260 C   0  0  0  0  0  2  0  0  0  0  0  0
  192.2770  178.2440  142.3810 O   0  0  0  0  0  0  0  0  0  0  0  0
  189.5000  178.2880  144.7710 C   0  0  0  0  0  2  0  0  0  0  0  0
  188.1170  177.2720  143.0220 C   0  0  1  0  0  0  0  0  0  0  0  0
  181.1440  176.7540  137.4660 N   0  0  0  0  0  2  0  0  0  0  0  0
  180.4750  175.4750  137.2470 C   0  0  0  0  0  2  0  0  0  0  0  0
  182.4320  171.3680  134.3490 C   0  0  0  0  0  1  0  0  0  0  0  0
  183.8360  172.7660  137.5910 C   0  0  0  0  0  2  0  0  0  0  0  0
  183.8750  171.7970  136.4310 C   0  0  2  0  0  0  0  0  0  0  0  0
  180.8140  173.3320  136.0360 C   0  0  0  0  0  2  0  0  0  0  0  0
  183.5430  174.0700  135.3680 C   0  0  1  0  0  3  0  0  0  0  0  0
  184.4460  173.2100  136.2620 C   0  0  1  0  0  3  0  0  0  0  0  0
  181.4930  174.4200  136.8590 C   0  0  1  0  0  3  0  0  0  0  0  0
  180.0720  170.9890  136.4050 C   0  0  0  0  0  1  0  0  0  0  0  0
  182.6570  175.0740  136.1100 C   0  0  0  0  0  2  0  0  0  0  0  0
  182.4890  171.3790  135.8730 C   0  0  1  0  0  3  0  0  0  0  0  0
  181.2300  171.9560  136.5520 C   0  0  1  0  0  3  0  0  0  0  0  0
  184.9110  170.7020  136.6500 C   0  0  0  0  0  2  0  0  0  0  0  0
  185.6500  170.1240  134.4000 N   0  0  0  0  0  1  0  0  0  0  0  0
  184.8810  169.6630  135.5420 C   0  0  0  0  0  2  0  0  0  0  0  0
  184.4020  174.7960  134.3480 C   0  0  0  0  0  2  0  0  0  0  0  0
  186.3170  175.8910  134.4200 C   0  0  0  0  0  1  0  0  0  0  0  0
  185.7530  174.6380  134.6620 O   0  0  0  0  0  0  0  0  0  0  0  0
  3 19  1  0  0  0  0
  3 23  1  0  0  0  0
  4  5  2  0  0  0  0
  4 11  1  0  0  0  0
  5  9  1  0  0  0  0
  6  7  1  0  0  0  0
  6 17  1  0  0  0  0
  9  7  2  0  0  0  0
 11  6  2  0  0  0  0
 12 14  2  0  0  0  0
 12 27  1  0  0  0  0
 13  1  1  0  0  0  0
 14 22  1  0  0  0  0
 15 17  1  6  0  0  0
 15 36  1  0  0  0  0
 16 18  1  0  0  0  0
 18  2  1  6  0  0  0
 19 18  1  0  0  0  0
 20 10  1  0  0  0  0
 21 37  1  6  0  0  0
 21 16  1  0  0  0  0
 21 25  1  0  0  0  0
 22  1  1  0  0  0  0
 22 10  2  0  0  0  0
 23 11  1  0  0  0  0
 23  8  1  0  0  0  0
 24 15  1  0  0  0  0
 24 13  1  0  0  0  0
 25 26  1  0  0  0  0
 26 12  1  0  0  0  0
 27 20  2  0  0  0  0
 28 31  1  0  0  0  0
 28 30  1  0  0  0  0
 29 35  1  0  0  0  0
 31 35  1  0  0  0  0
 33 36  1  0  0  0  0
 33 31  1  0  0  0  0
 34 28  2  0  0  0  0
 36 32  1  6  0  0  0
 36 29  1  0  0  0  0
 38 37  1  0  0  0  0
 41 50  1  1  0  0  0
 41 40  1  0  0  0  0
 42 49  1  0  0  0  0
 42 45  1  0  0  0  0
 43 53  1  6  0  0  0
 43 47  1  0  0  0  0
 43 44  1  0  0  0  0
 44 41  1  0  0  0  0
 44 40  1  1  0  0  0
 45 38  1  6  0  0  0
 47 45  1  0  0  0  0
 48 39  1  6  0  0  0
 48 41  1  0  0  0  0
 48 49  1  0  0  0  0
 49 46  1  6  0  0  0
 51 52  1  0  0  0  0
 52 50  1  0  0  0  0
 53 55  1  0  0  0  0
 54 55  1  0  0  0  0
M  END
>  <MODEL>
4

>  <REMARK>
 VINA RESULT:      -1.5      3.777      8.870
  Name = 
  8 active torsions:
  status: ('A' for Active; 'I' for Inactive)
    1  A    between atoms: C_6  and  C_25
    2  A    between atoms: C_8  and  C_20
    3  A    between atoms: C_8  and  N_22
    4  A    between atoms: C_12  and  C_30
    5  A    between atoms: N_22  and  C_43
    6  A    between atoms: C_25  and  C_38
    7  A    between atoms: C_30  and  O_50
    8  A    between atoms: C_33  and  C_52
                            x       y       z     vdW  Elec       q    Type
                         _______ _______ _______ _____ _____    ______ ____

>  <TORSDO>
F 8

$$$$
=
 OpenBabel10272401213D

 55 60  0  0  1  0  0  0  0  0999 V2000
  190.6990  173.5810  134.6950 C   0  0  0  0  0  2  0  0  0  0  0  0
  189.8000  174.9490  139.0130 O   0  0  0  0  0  1  0  0  0  0  0  0
  188.3260  177.9240  137.3250 C   0  0  0  0  0  2  0  0  0  0  0  0
  185.5360  177.1470  137.2070 C   0  0  0  0  0  3  0  0  0  0  0  0
  184.2150  176.7060  137.2710 C   0  0  0  0  0  3  0  0  0  0  0  0
  185.9770  175.6060  135.3780 C   0  0  0  0  0  0  0  0  0  0  0  0
  184.6400  175.1930  135.4400 C   0  0  0  0  0  3  0  0  0  0  0  0
  188.5150  177.2520  134.9520 C   0  0  0  0  0  1  0  0  0  0  0  0
  183.7640  175.7350  136.3810 C   0  0  0  0  0  3  0  0  0  0  0  0
  193.1670  173.7690  134.3520 C   0  0  0  0  0  3  0  0  0  0  0  0
  186.4350  176.6270  136.2590 C   0  0  0  0  0  0  0  0  0  0  0  0
  193.5660  174.5060  137.0240 C   0  0  0  0  0  0  0  0  0  0  0  0
  189.7630  172.9770  135.7340 C   0  0  0  0  0  2  0  0  0  0  0  0
  192.2890  174.1730  136.5660 C   0  0  0  0  0  3  0  0  0  0  0  0
  187.5160  173.6310  134.7950 C   0  0  1  0  0  3  0  0  0  0  0  0
  191.0790  176.6100  137.7920 C   0  0  0  0  0  2  0  0  0  0  0  0
  186.8540  174.9490  134.3500 C   0  0  0  0  0  2  0  0  0  0  0  0
  189.7160  175.9740  138.0670 C   0  0  2  0  0  3  0  0  0  0  0  0
  188.6800  177.0000  138.4870 C   0  0  0  0  0  2  0  0  0  0  0  0
  194.4510  174.0900  134.8080 C   0  0  0  0  0  3  0  0  0  0  0  0
  191.9950  176.6340  139.0170 C   0  0  1  0  0  3  0  0  0  0  0  0
  192.0800  173.8000  135.2320 C   0  0  0  0  0  0  0  0  0  0  0  0
  187.7720  177.1710  136.2000 N   0  0  0  0  0  0  0  0  0  0  0  0
  188.5350  173.8560  135.9130 C   0  0  0  0  0  2  0  0  0  0  0  0
  193.4600  176.4210  138.6340 C   0  0  0  0  0  2  0  0  0  0  0  0
  193.7680  174.9360  138.4420 C   0  0  0  0  0  2  0  0  0  0  0  0
  194.6490  174.4630  136.1410 C   0  0  0  0  0  3  0  0  0  0  0  0
  188.3080  169.1400  135.4860 C   0  0  0  0  0  0  0  0  0  0  0  0
  186.3390  172.1550  136.5210 C   0  0  0  0  0  2  0  0  0  0  0  0
  188.7290  168.4440  136.6530 N   0  0  0  0  0  1  0  0  0  0  0  0
  187.5390  170.3430  135.5980 N   0  0  0  0  0  0  0  0  0  0  0  0
  185.2220  172.6470  134.3460 C   0  0  0  0  0  1  0  0  0  0  0  0
  187.1710  171.1570  134.4580 C   0  0  0  0  0  2  0  0  0  0  0  0
  188.6190  168.6900  134.3540 O   0  0  0  0  0  0  0  0  0  0  0  0
  187.1360  170.9090  136.8660 C   0  0  0  0  0  2  0  0  0  0  0  0
  186.5620  172.4280  135.0310 C   0  0  1  0  0  0  0  0  0  0  0  0
  191.8050  177.8480  139.8150 N   0  0  0  0  0  2  0  0  0  0  0  0
  190.3940  178.0370  140.1420 C   0  0  0  0  0  2  0  0  0  0  0  0
  189.5250  179.1800  145.3410 C   0  0  0  0  0  1  0  0  0  0  0  0
  190.3340  175.7850  143.8410 C   0  0  0  0  0  2  0  0  0  0  0  0
  190.0130  176.6790  145.0180 C   0  0  2  0  0  0  0  0  0  0  0  0
  190.4930  178.9360  142.4570 C   0  0  0  0  0  2  0  0  0  0  0  0
  188.2720  177.2510  143.2720 C   0  0  1  0  0  3  0  0  0  0  0  0
  188.8780  176.1400  144.1390 C   0  0  1  0  0  3  0  0  0  0  0  0
  190.1570  177.7180  141.6060 C   0  0  1  0  0  3  0  0  0  0  0  0
  192.3340  179.6210  143.9790 C   0  0  0  0  0  1  0  0  0  0  0  0
  188.7140  177.2490  141.8060 C   0  0  0  0  0  2  0  0  0  0  0  0
  190.5440  178.1330  144.9060 C   0  0  1  0  0  3  0  0  0  0  0  0
  191.3510  178.5160  143.6490 C   0  0  1  0  0  3  0  0  0  0  0  0
  190.2080  175.9530  146.3430 C   0  0  0  0  0  2  0  0  0  0  0  0
  189.0740  177.1690  148.1240 N   0  0  0  0  0  1  0  0  0  0  0  0
  190.3620  176.9210  147.5020 C   0  0  0  0  0  2  0  0  0  0  0  0
  186.7580  177.1730  143.3550 C   0  0  0  0  0  2  0  0  0  0  0  0
  185.3840  178.8960  143.2340 C   0  0  0  0  0  1  0  0  0  0  0  0
  186.1820  178.0650  142.4480 O   0  0  0  0  0  0  0  0  0  0  0  0
  1 22  1  0  0  0  0
  1 13  1  0  0  0  0
  3 19  1  0  0  0  0
  4  5  1  0  0  0  0
  6  7  2  0  0  0  0
  6 11  1  0  0  0  0
  7  9  1  0  0  0  0
  8 23  1  0  0  0  0
  9  5  2  0  0  0  0
 10 20  2  0  0  0  0
 10 22  1  0  0  0  0
 11  4  2  0  0  0  0
 12 26  1  0  0  0  0
 13 24  1  0  0  0  0
 14 12  1  0  0  0  0
 15 17  1  1  0  0  0
 15 36  1  0  0  0  0
 15 24  1  0  0  0  0
 16 18  1  0  0  0  0
 16 21  1  0  0  0  0
 17  6  1  0  0  0  0
 18 19  1  0  0  0  0
 18  2  1  1  0  0  0
 20 27  1  0  0  0  0
 21 37  1  6  0  0  0
 22 14  2  0  0  0  0
 23 11  1  0  0  0  0
 23  3  1  0  0  0  0
 25 21  1  0  0  0  0
 26 25  1  0  0  0  0
 27 12  2  0  0  0  0
 28 31  1  0  0  0  0
 28 30  1  0  0  0  0
 29 35  1  0  0  0  0
 31 35  1  0  0  0  0
 33 36  1  0  0  0  0
 33 31  1  0  0  0  0
 34 28  2  0  0  0  0
 36 32  1  6  0  0  0
 36 29  1  0  0  0  0
 37 38  1  0  0  0  0
 40 41  1  0  0  0  0
 41 50  1  1  0  0  0
 42 49  1  0  0  0  0
 43 53  1  6  0  0  0
 43 44  1  0  0  0  0
 44 40  1  6  0  0  0
 44 41  1  0  0  0  0
 45 38  1  6  0  0  0
 45 47  1  0  0  0  0
 45 42  1  0  0  0  0
 47 43  1  0  0  0  0
 48 41  1  0  0  0  0
 48 39  1  6  0  0  0
 49 46  1  1  0  0  0
 49 48  1  0  0  0  0
 50 52  1  0  0  0  0
 52 51  1  0  0  0  0
 55 54  1  0  0  0  0
 55 53  1  0  0  0  0
M  END
>  <MODEL>
5

>  <REMARK>
 VINA RESULT:      -1.5      3.816      8.857
  Name = 
  8 active torsions:
  status: ('A' for Active; 'I' for Inactive)
    1  A    between atoms: C_6  and  C_25
    2  A    between atoms: C_8  and  C_20
    3  A    between atoms: C_8  and  N_22
    4  A    between atoms: C_12  and  C_30
    5  A    between atoms: N_22  and  C_43
    6  A    between atoms: C_25  and  C_38
    7  A    between atoms: C_30  and  O_50
    8  A    between atoms: C_33  and  C_52
                            x       y       z     vdW  Elec       q    Type
                         _______ _______ _______ _____ _____    ______ ____

>  <TORSDO>
F 8

$$$$
=
 OpenBabel10272401213D

 55 60  0  0  1  0  0  0  0  0999 V2000
  191.7480  177.6470  140.9840 C   0  0  0  0  0  2  0  0  0  0  0  0
  187.3690  176.1890  140.8480 O   0  0  0  0  0  1  0  0  0  0  0  0
  186.9640  178.9350  138.3640 C   0  0  0  0  0  2  0  0  0  0  0  0
  187.3140  177.4730  135.8850 C   0  0  0  0  0  3  0  0  0  0  0  0
  187.4240  176.6600  134.7580 C   0  0  0  0  0  3  0  0  0  0  0  0
  189.7190  177.3510  136.2240 C   0  0  0  0  0  0  0  0  0  0  0  0
  189.8130  176.5570  135.0740 C   0  0  0  0  0  3  0  0  0  0  0  0
  189.3050  179.6990  138.1320 C   0  0  0  0  0  1  0  0  0  0  0  0
  188.6750  176.2100  134.3460 C   0  0  0  0  0  3  0  0  0  0  0  0
  192.0890  178.7790  143.1860 C   0  0  0  0  0  3  0  0  0  0  0  0
  188.4490  177.8480  136.6280 C   0  0  0  0  0  0  0  0  0  0  0  0
  189.5050  178.1020  144.0280 C   0  0  0  0  0  0  0  0  0  0  0  0
  191.1760  176.3250  140.4900 C   0  0  0  0  0  2  0  0  0  0  0  0
  189.9840  177.6610  142.7910 C   0  0  0  0  0  3  0  0  0  0  0  0
  191.4240  176.5970  137.9950 C   0  0  1  0  0  3  0  0  0  0  0  0
  187.5130  178.5520  141.3770 C   0  0  0  0  0  2  0  0  0  0  0  0
  190.9950  177.6530  136.9580 C   0  0  0  0  0  2  0  0  0  0  0  0
  187.5570  177.4630  140.3050 C   0  0  2  0  0  3  0  0  0  0  0  0
  186.5600  177.7160  139.1900 C   0  0  0  0  0  2  0  0  0  0  0  0
  191.6190  179.2150  144.4300 C   0  0  0  0  0  3  0  0  0  0  0  0
  186.5560  178.2330  142.5270 C   0  0  1  0  0  3  0  0  0  0  0  0
  191.2770  177.9910  142.3630 C   0  0  0  0  0  0  0  0  0  0  0  0
  188.2770  178.7450  137.7480 N   0  0  0  0  0  0  0  0  0  0  0  0
  190.4470  176.5260  139.1700 C   0  0  0  0  0  2  0  0  0  0  0  0
  187.0900  178.7410  143.8660 C   0  0  0  0  0  2  0  0  0  0  0  0
  188.1120  177.7700  144.4560 C   0  0  0  0  0  2  0  0  0  0  0  0
  190.3270  178.8800  144.8480 C   0  0  0  0  0  3  0  0  0  0  0  0
  195.0700  175.2580  135.5090 C   0  0  0  0  0  0  0  0  0  0  0  0
  192.7960  174.4730  138.3810 C   0  0  0  0  0  2  0  0  0  0  0  0
  196.4110  174.9970  135.9010 N   0  0  0  0  0  1  0  0  0  0  0  0
  193.9920  175.0470  136.4290 N   0  0  0  0  0  0  0  0  0  0  0  0
  190.6380  174.3440  137.1360 C   0  0  0  0  0  1  0  0  0  0  0  0
  192.6170  175.3930  136.1300 C   0  0  0  0  0  2  0  0  0  0  0  0
  194.8380  175.6770  134.3460 O   0  0  0  0  0  0  0  0  0  0  0  0
  194.1850  174.5560  137.7740 C   0  0  0  0  0  2  0  0  0  0  0  0
  191.8500  175.2140  137.4310 C   0  0  1  0  0  0  0  0  0  0  0  0
  185.2000  178.7140  142.2560 N   0  0  0  0  0  2  0  0  0  0  0  0
  184.3230  177.6080  141.8780 C   0  0  0  0  0  2  0  0  0  0  0  0
  180.3840  177.0000  138.2450 C   0  0  0  0  0  1  0  0  0  0  0  0
  182.8810  179.8540  138.4670 C   0  0  0  0  0  2  0  0  0  0  0  0
  181.7010  179.1640  137.8210 C   0  0  2  0  0  0  0  0  0  0  0  0
  182.8240  176.8030  140.0670 C   0  0  0  0  0  2  0  0  0  0  0  0
  181.1700  179.1790  140.2960 C   0  0  1  0  0  3  0  0  0  0  0  0
  181.4860  180.0370  139.0640 C   0  0  1  0  0  3  0  0  0  0  0  0
  183.4150  178.0350  140.7410 C   0  0  1  0  0  3  0  0  0  0  0  0
  183.1760  175.5680  137.9390 C   0  0  0  0  0  1  0  0  0  0  0  0
  182.3340  178.9830  141.2690 C   0  0  0  0  0  2  0  0  0  0  0  0
  181.7300  177.6140  137.8780 C   0  0  1  0  0  3  0  0  0  0  0  0
  182.9410  176.9360  138.5500 C   0  0  1  0  0  3  0  0  0  0  0  0
  181.3260  179.8180  136.4970 C   0  0  0  0  0  2  0  0  0  0  0  0
  180.1910  179.1870  134.4350 N   0  0  0  0  0  1  0  0  0  0  0  0
  181.2330  178.8040  135.3700 C   0  0  0  0  0  2  0  0  0  0  0  0
  179.9820  179.7810  141.0260 C   0  0  0  0  0  2  0  0  0  0  0  0
  180.0420  180.6060  143.0720 C   0  0  0  0  0  1  0  0  0  0  0  0
  180.0050  179.4020  142.3690 O   0  0  0  0  0  0  0  0  0  0  0  0
  1 22  1  0  0  0  0
  3 19  1  0  0  0  0
  4 11  1  0  0  0  0
  5  4  2  0  0  0  0
  6 11  2  0  0  0  0
  6 17  1  0  0  0  0
  7  6  1  0  0  0  0
  9  5  1  0  0  0  0
  9  7  2  0  0  0  0
 10 20  1  0  0  0  0
 11 23  1  0  0  0  0
 12 26  1  0  0  0  0
 12 27  1  0  0  0  0
 13  1  1  0  0  0  0
 14 12  2  0  0  0  0
 15 17  1  6  0  0  0
 15 24  1  0  0  0  0
 16 21  1  0  0  0  0
 18  2  1  1  0  0  0
 18 16  1  0  0  0  0
 19 18  1  0  0  0  0
 20 27  2  0  0  0  0
 21 37  1  6  0  0  0
 21 25  1  0  0  0  0
 22 14  1  0  0  0  0
 22 10  2  0  0  0  0
 23  8  1  0  0  0  0
 23  3  1  0  0  0  0
 24 13  1  0  0  0  0
 25 26  1  0  0  0  0
 28 30  1  0  0  0  0
 28 31  1  0  0  0  0
 31 35  1  0  0  0  0
 33 31  1  0  0  0  0
 33 36  1  0  0  0  0
 34 28  2  0  0  0  0
 35 29  1  0  0  0  0
 36 32  1  6  0  0  0
 36 15  1  0  0  0  0
 36 29  1  0  0  0  0
 38 37  1  0  0  0  0
 41 50  1  6  0  0  0
 41 48  1  0  0  0  0
 41 40  1  0  0  0  0
 41 44  1  0  0  0  0
 42 45  1  0  0  0  0
 43 53  1  1  0  0  0
 43 47  1  0  0  0  0
 44 40  1  1  0  0  0
 44 43  1  0  0  0  0
 45 47  1  0  0  0  0
 45 38  1  1  0  0  0
 48 39  1  1  0  0  0
 48 49  1  0  0  0  0
 49 46  1  6  0  0  0
 49 42  1  0  0  0  0
 51 52  1  0  0  0  0
 52 50  1  0  0  0  0
 53 55  1  0  0  0  0
 55 54  1  0  0  0  0
M  END
>  <MODEL>
6

>  <REMARK>
 VINA RESULT:      -1.2      2.472     10.659
  Name = 
  8 active torsions:
  status: ('A' for Active; 'I' for Inactive)
    1  A    between atoms: C_6  and  C_25
    2  A    between atoms: C_8  and  C_20
    3  A    between atoms: C_8  and  N_22
    4  A    between atoms: C_12  and  C_30
    5  A    between atoms: N_22  and  C_43
    6  A    between atoms: C_25  and  C_38
    7  A    between atoms: C_30  and  O_50
    8  A    between atoms: C_33  and  C_52
                            x       y       z     vdW  Elec       q    Type
                         _______ _______ _______ _____ _____    ______ ____

>  <TORSDO>
F 8

$$$$
