=
 OpenBabel10272401483D

 28 31  0  0  1  0  0  0  0  0999 V2000
  189.0200  177.7870  145.9630 C   0  0  1  0  0  3  0  0  0  0  0  0
  187.9960  176.9170  145.2240 C   0  0  2  0  0  3  0  0  0  0  0  0
  191.6150  176.7020  145.1250 C   0  0  0  0  0  2  0  0  0  0  0  0
  189.1990  178.4560  143.6420 O   0  0  0  0  0  1  0  0  0  0  0  0
  191.3060  176.9330  146.6150 C   0  0  0  0  0  2  0  0  0  0  0  0
  190.3760  176.3260  144.3110 C   0  0  1  0  0  3  0  0  0  0  0  0
  189.8090  176.9230  146.9460 C   0  0  0  0  0  2  0  0  0  0  0  0
  189.2730  177.3700  144.5210 C   0  0  1  0  0  0  0  0  0  0  0  0
  186.7770  177.7110  144.8280 C   0  0  0  0  0  0  0  0  0  0  0  0
  184.4450  179.0640  144.0450 C   0  0  0  0  0  3  0  0  0  0  0  0
  186.3920  177.7450  143.4800 C   0  0  0  0  0  3  0  0  0  0  0  0
  186.2690  178.2650  147.1450 O   0  0  0  0  0  1  0  0  0  0  0  0
  185.9540  178.3290  145.7930 C   0  0  0  0  0  0  0  0  0  0  0  0
  184.8010  179.0110  145.3940 C   0  0  0  0  0  3  0  0  0  0  0  0
  185.2370  178.4260  143.0880 C   0  0  0  0  0  3  0  0  0  0  0  0
  190.7240  176.1700  142.8390 C   0  0  0  0  0  2  0  0  0  0  0  0
  191.7980  177.0100  142.5070 O   0  0  0  0  0  0  0  0  0  0  0  0
  192.6760  177.3430  140.3800 F   0  0  0  0  0  0  0  0  0  0  0  0
  191.5770  177.5200  141.2110 C   0  0  1  0  0  3  0  0  0  0  0  0
  190.3020  176.9580  140.5860 C   0  0  0  0  0  2  0  0  0  0  0  0
  189.0450  178.1940  139.0510 C   0  0  0  0  0  2  0  0  0  0  0  0
  189.9640  176.1190  138.4380 C   0  0  0  0  0  2  0  0  0  0  0  0
  188.8300  178.1340  136.5060 C   0  0  1  0  0  3  0  0  0  0  0  0
  190.2200  177.3410  139.1870 N   0  0  0  0  0  0  0  0  0  0  0  0
  189.9490  177.1780  136.1780 C   0  0  0  0  0  3  0  0  0  0  0  0
  190.4510  176.2720  137.0300 C   0  0  0  0  0  3  0  0  0  0  0  0
  187.4850  177.4270  136.5700 C   0  0  0  0  0  1  0  0  0  0  0  0
  189.1000  178.9910  137.7480 C   0  0  0  0  0  2  0  0  0  0  0  0
  1  7  1  1  0  0  0
  2  9  1  6  0  0  0
  2  1  1  0  0  0  0
  3  5  1  0  0  0  0
  5  7  1  0  0  0  0
  6 16  1  6  0  0  0
  6  8  1  0  0  0  0
  6  3  1  0  0  0  0
  8  4  1  6  0  0  0
  8  2  1  0  0  0  0
  8  1  1  0  0  0  0
  9 13  1  0  0  0  0
 10 14  1  0  0  0  0
 11  9  2  0  0  0  0
 13 12  1  0  0  0  0
 14 13  2  0  0  0  0
 15 11  1  0  0  0  0
 15 10  2  0  0  0  0
 17 16  1  0  0  0  0
 19 18  1  6  0  0  0
 19 17  1  0  0  0  0
 20 19  1  0  0  0  0
 21 24  1  0  0  0  0
 22 24  1  0  0  0  0
 23 27  1  1  0  0  0
 23 28  1  0  0  0  0
 24 20  1  0  0  0  0
 25 23  1  0  0  0  0
 25 26  2  0  0  0  0
 26 22  1  0  0  0  0
 28 21  1  0  0  0  0
M  END
>  <MODEL>
1

>  <REMARK>
 VINA RESULT:      -9.0      0.000      0.000
  Name = 
  6 active torsions:
  status: ('A' for Active; 'I' for Inactive)
    1  A    between atoms: C_2  and  C_3
    2  A    between atoms: C_5  and  O_20
    3  A    between atoms: C_5  and  C_21
    4  A    between atoms: C_10  and  N_13
    5  A    between atoms: C_10  and  C_25
    6  A    between atoms: O_20  and  C_25
                            x       y       z     vdW  Elec       q    Type
                         _______ _______ _______ _____ _____    ______ ____

>  <TORSDO>
F 6

$$$$
=
 OpenBabel10272401483D

 28 31  0  0  1  0  0  0  0  0999 V2000
  188.9620  177.6520  146.2220 C   0  0  1  0  0  3  0  0  0  0  0  0
  188.1940  176.8980  145.1290 C   0  0  2  0  0  3  0  0  0  0  0  0
  191.7450  176.7960  145.8590 C   0  0  0  0  0  2  0  0  0  0  0  0
  189.6240  178.7190  144.1510 O   0  0  0  0  0  1  0  0  0  0  0  0
  191.0880  176.7560  147.2500 C   0  0  0  0  0  2  0  0  0  0  0  0
  190.7540  176.5370  144.7230 C   0  0  1  0  0  3  0  0  0  0  0  0
  189.5590  176.6500  147.2100 C   0  0  0  0  0  2  0  0  0  0  0  0
  189.5650  177.4990  144.8330 C   0  0  1  0  0  0  0  0  0  0  0  0
  187.0490  177.7170  144.5900 C   0  0  0  0  0  0  0  0  0  0  0  0
  184.8630  179.1200  143.5240 C   0  0  0  0  0  3  0  0  0  0  0  0
  186.8830  177.8300  143.2020 C   0  0  0  0  0  3  0  0  0  0  0  0
  186.1740  178.1370  146.8250 O   0  0  0  0  0  1  0  0  0  0  0  0
  186.0790  178.2810  145.4450 C   0  0  0  0  0  0  0  0  0  0  0  0
  185.0000  178.9890  144.9070 C   0  0  0  0  0  3  0  0  0  0  0  0
  185.8020  178.5360  142.6710 C   0  0  0  0  0  3  0  0  0  0  0  0
  191.4400  176.6490  143.3710 C   0  0  0  0  0  2  0  0  0  0  0  0
  190.5440  176.3010  142.3470 O   0  0  0  0  0  0  0  0  0  0  0  0
  191.8390  177.9990  141.4310 F   0  0  0  0  0  0  0  0  0  0  0  0
  190.6930  177.2260  141.2950 C   0  0  1  0  0  3  0  0  0  0  0  0
  190.6290  176.5510  139.9270 C   0  0  0  0  0  2  0  0  0  0  0  0
  189.4010  176.3110  137.9530 C   0  0  0  0  0  2  0  0  0  0  0  0
  189.0080  178.1350  139.3820 C   0  0  0  0  0  2  0  0  0  0  0  0
  187.1930  177.2980  137.1280 C   0  0  1  0  0  3  0  0  0  0  0  0
  189.3040  176.7100  139.3510 N   0  0  0  0  0  0  0  0  0  0  0  0
  186.7220  177.9640  138.3960 C   0  0  0  0  0  3  0  0  0  0  0  0
  187.5260  178.3480  139.3980 C   0  0  0  0  0  3  0  0  0  0  0  0
  187.9000  178.2790  136.2050 C   0  0  0  0  0  1  0  0  0  0  0  0
  188.0150  176.0280  137.3720 C   0  0  0  0  0  2  0  0  0  0  0  0
  1  7  1  1  0  0  0
  2  9  1  6  0  0  0
  2  1  1  0  0  0  0
  3  5  1  0  0  0  0
  6 16  1  6  0  0  0
  6  8  1  0  0  0  0
  6  3  1  0  0  0  0
  7  5  1  0  0  0  0
  8  4  1  6  0  0  0
  8  2  1  0  0  0  0
  8  1  1  0  0  0  0
  9 13  1  0  0  0  0
 10 14  1  0  0  0  0
 11  9  2  0  0  0  0
 13 12  1  0  0  0  0
 14 13  2  0  0  0  0
 15 11  1  0  0  0  0
 15 10  2  0  0  0  0
 17 16  1  0  0  0  0
 19 18  1  1  0  0  0
 19 17  1  0  0  0  0
 20 19  1  0  0  0  0
 21 24  1  0  0  0  0
 22 26  1  0  0  0  0
 23 27  1  1  0  0  0
 23 28  1  0  0  0  0
 23 25  1  0  0  0  0
 24 22  1  0  0  0  0
 24 20  1  0  0  0  0
 25 26  2  0  0  0  0
 28 21  1  0  0  0  0
M  END
>  <MODEL>
2

>  <REMARK>
 VINA RESULT:      -8.9      0.931      1.611
  Name = 
  6 active torsions:
  status: ('A' for Active; 'I' for Inactive)
    1  A    between atoms: C_2  and  C_3
    2  A    between atoms: C_5  and  O_20
    3  A    between atoms: C_5  and  C_21
    4  A    between atoms: C_10  and  N_13
    5  A    between atoms: C_10  and  C_25
    6  A    between atoms: O_20  and  C_25
                            x       y       z     vdW  Elec       q    Type
                         _______ _______ _______ _____ _____    ______ ____

>  <TORSDO>
F 6

$$$$
=
 OpenBabel10272401483D

 28 31  0  0  1  0  0  0  0  0999 V2000
  186.9300  177.6410  146.0030 C   0  0  1  0  0  3  0  0  0  0  0  0
  188.1900  178.3180  145.4490 C   0  0  2  0  0  3  0  0  0  0  0  0
  184.8540  178.2680  144.0250 C   0  0  0  0  0  2  0  0  0  0  0  0
  187.5530  176.3110  144.0760 O   0  0  0  0  0  1  0  0  0  0  0  0
  184.6050  178.5040  145.5260 C   0  0  0  0  0  2  0  0  0  0  0  0
  186.3170  178.4650  143.6260 C   0  0  1  0  0  3  0  0  0  0  0  0
  185.8860  178.7040  146.3420 C   0  0  0  0  0  2  0  0  0  0  0  0
  187.2240  177.6000  144.5090 C   0  0  1  0  0  0  0  0  0  0  0  0
  189.4310  177.5210  145.7600 C   0  0  0  0  0  0  0  0  0  0  0  0
  191.8220  176.1480  146.2870 C   0  0  0  0  0  3  0  0  0  0  0  0
  190.2800  177.1400  144.7110 C   0  0  0  0  0  3  0  0  0  0  0  0
  189.0310  177.6600  148.1590 O   0  0  0  0  0  1  0  0  0  0  0  0
  189.8150  177.2440  147.0890 C   0  0  0  0  0  0  0  0  0  0  0  0
  191.0010  176.5490  147.3430 C   0  0  0  0  0  3  0  0  0  0  0  0
  191.4650  176.4490  144.9710 C   0  0  0  0  0  3  0  0  0  0  0  0
  186.5210  178.1600  142.1500 C   0  0  0  0  0  2  0  0  0  0  0  0
  187.4930  179.0190  141.6120 O   0  0  0  0  0  0  0  0  0  0  0  0
  188.5410  176.9510  141.4520 F   0  0  0  0  0  0  0  0  0  0  0  0
  188.4480  178.2360  140.9330 C   0  0  1  0  0  3  0  0  0  0  0  0
  188.2050  178.2170  139.4260 C   0  0  0  0  0  2  0  0  0  0  0  0
  190.1380  177.2310  138.5570 C   0  0  0  0  0  2  0  0  0  0  0  0
  188.0440  176.8070  137.5770 C   0  0  0  0  0  2  0  0  0  0  0  0
  190.5500  175.2280  137.0260 C   0  0  1  0  0  3  0  0  0  0  0  0
  188.7300  176.9910  138.8480 N   0  0  0  0  0  0  0  0  0  0  0  0
  189.1570  174.6560  136.9740 C   0  0  0  0  0  3  0  0  0  0  0  0
  188.0360  175.3550  137.2080 C   0  0  0  0  0  3  0  0  0  0  0  0
  190.8380  176.1190  135.8270 C   0  0  0  0  0  1  0  0  0  0  0  0
  190.8830  175.9110  138.3570 C   0  0  0  0  0  2  0  0  0  0  0  0
  1  7  1  6  0  0  0
  2  9  1  1  0  0  0
  2  1  1  0  0  0  0
  3  5  1  0  0  0  0
  5  7  1  0  0  0  0
  6 16  1  6  0  0  0
  6  3  1  0  0  0  0
  6  8  1  0  0  0  0
  8  4  1  6  0  0  0
  8  2  1  0  0  0  0
  8  1  1  0  0  0  0
  9 13  1  0  0  0  0
 10 14  1  0  0  0  0
 11 15  1  0  0  0  0
 11  9  2  0  0  0  0
 13 14  2  0  0  0  0
 13 12  1  0  0  0  0
 15 10  2  0  0  0  0
 17 16  1  0  0  0  0
 19 18  1  1  0  0  0
 19 17  1  0  0  0  0
 20 19  1  0  0  0  0
 21 24  1  0  0  0  0
 22 24  1  0  0  0  0
 23 27  1  6  0  0  0
 23 28  1  0  0  0  0
 24 20  1  0  0  0  0
 25 23  1  0  0  0  0
 25 26  2  0  0  0  0
 26 22  1  0  0  0  0
 28 21  1  0  0  0  0
M  END
>  <MODEL>
3

>  <REMARK>
 VINA RESULT:      -8.7      1.879      4.287
  Name = 
  6 active torsions:
  status: ('A' for Active; 'I' for Inactive)
    1  A    between atoms: C_2  and  C_3
    2  A    between atoms: C_5  and  O_20
    3  A    between atoms: C_5  and  C_21
    4  A    between atoms: C_10  and  N_13
    5  A    between atoms: C_10  and  C_25
    6  A    between atoms: O_20  and  C_25
                            x       y       z     vdW  Elec       q    Type
                         _______ _______ _______ _____ _____    ______ ____

>  <TORSDO>
F 6

$$$$
=
 OpenBabel10272401483D

 28 31  0  0  1  0  0  0  0  0999 V2000
  188.9140  177.7200  145.9270 C   0  0  1  0  0  3  0  0  0  0  0  0
  188.0400  176.9410  144.9350 C   0  0  2  0  0  3  0  0  0  0  0  0
  191.6500  176.8700  145.2910 C   0  0  0  0  0  2  0  0  0  0  0  0
  189.3480  178.7480  143.7770 O   0  0  0  0  0  1  0  0  0  0  0  0
  191.1410  176.8540  146.7440 C   0  0  0  0  0  2  0  0  0  0  0  0
  190.5470  176.5820  144.2710 C   0  0  1  0  0  3  0  0  0  0  0  0
  189.6180  176.7410  146.8660 C   0  0  0  0  0  2  0  0  0  0  0  0
  189.3700  177.5410  144.4850 C   0  0  1  0  0  0  0  0  0  0  0  0
  186.8400  177.7440  144.5030 C   0  0  0  0  0  0  0  0  0  0  0  0
  184.5490  179.1160  143.6370 C   0  0  0  0  0  3  0  0  0  0  0  0
  186.5660  177.8800  143.1340 C   0  0  0  0  0  3  0  0  0  0  0  0
  186.1310  178.0990  146.8060 O   0  0  0  0  0  1  0  0  0  0  0  0
  185.9270  178.2670  145.4410 C   0  0  0  0  0  0  0  0  0  0  0  0
  184.7950  178.9610  145.0030 C   0  0  0  0  0  3  0  0  0  0  0  0
  185.4320  178.5710  142.7020 C   0  0  0  0  0  3  0  0  0  0  0  0
  191.0860  176.6700  142.8520 C   0  0  0  0  0  2  0  0  0  0  0  0
  190.2320  175.9880  141.9700 O   0  0  0  0  0  0  0  0  0  0  0  0
  189.1750  177.8220  141.0100 F   0  0  0  0  0  0  0  0  0  0  0  0
  190.0690  176.7770  140.8140 C   0  0  1  0  0  3  0  0  0  0  0  0
  191.4060  177.2740  140.2680 C   0  0  0  0  0  2  0  0  0  0  0  0
  190.4450  176.0290  138.5400 C   0  0  0  0  0  2  0  0  0  0  0  0
  192.7790  176.2720  138.6740 C   0  0  0  0  0  2  0  0  0  0  0  0
  191.2950  175.2370  136.2650 C   0  0  1  0  0  3  0  0  0  0  0  0
  191.5140  176.9700  138.8510 N   0  0  0  0  0  0  0  0  0  0  0  0
  192.5950  175.9960  136.2000 C   0  0  0  0  0  3  0  0  0  0  0  0
  193.2660  176.4510  137.2690 C   0  0  0  0  0  3  0  0  0  0  0  0
  191.4970  173.8140  136.7620 C   0  0  0  0  0  1  0  0  0  0  0  0
  190.1930  175.9740  137.0330 C   0  0  0  0  0  2  0  0  0  0  0  0
  1  7  1  1  0  0  0
  2  9  1  6  0  0  0
  2  1  1  0  0  0  0
  3  5  1  0  0  0  0
  5  7  1  0  0  0  0
  6 16  1  6  0  0  0
  6  8  1  0  0  0  0
  6  3  1  0  0  0  0
  8  4  1  6  0  0  0
  8  2  1  0  0  0  0
  8  1  1  0  0  0  0
  9 13  1  0  0  0  0
 10 14  1  0  0  0  0
 11  9  2  0  0  0  0
 13 12  1  0  0  0  0
 14 13  2  0  0  0  0
 15 11  1  0  0  0  0
 15 10  2  0  0  0  0
 17 16  1  0  0  0  0
 19 18  1  1  0  0  0
 19 17  1  0  0  0  0
 20 19  1  0  0  0  0
 21 24  1  0  0  0  0
 22 24  1  0  0  0  0
 23 27  1  1  0  0  0
 23 28  1  0  0  0  0
 24 20  1  0  0  0  0
 25 23  1  0  0  0  0
 25 26  2  0  0  0  0
 26 22  1  0  0  0  0
 28 21  1  0  0  0  0
M  END
>  <MODEL>
4

>  <REMARK>
 VINA RESULT:      -8.6      1.437      1.990
  Name = 
  6 active torsions:
  status: ('A' for Active; 'I' for Inactive)
    1  A    between atoms: C_2  and  C_3
    2  A    between atoms: C_5  and  O_20
    3  A    between atoms: C_5  and  C_21
    4  A    between atoms: C_10  and  N_13
    5  A    between atoms: C_10  and  C_25
    6  A    between atoms: O_20  and  C_25
                            x       y       z     vdW  Elec       q    Type
                         _______ _______ _______ _____ _____    ______ ____

>  <TORSDO>
F 6

$$$$
=
 OpenBabel10272401483D

 28 31  0  0  1  0  0  0  0  0999 V2000
  189.6790  176.9340  144.8300 C   0  0  1  0  0  3  0  0  0  0  0  0
  189.3420  178.1190  143.9170 C   0  0  2  0  0  3  0  0  0  0  0  0
  187.6650  177.0770  146.9600 C   0  0  0  0  0  2  0  0  0  0  0  0
  187.6230  176.2960  143.7190 O   0  0  0  0  0  1  0  0  0  0  0  0
  189.1590  176.9350  147.3010 C   0  0  0  0  0  2  0  0  0  0  0  0
  187.4210  177.8740  145.6780 C   0  0  1  0  0  3  0  0  0  0  0  0
  190.0980  177.4520  146.2050 C   0  0  0  0  0  2  0  0  0  0  0  0
  188.2270  177.2710  144.5220 C   0  0  1  0  0  0  0  0  0  0  0  0
  189.6220  177.8030  142.4700 C   0  0  0  0  0  0  0  0  0  0  0  0
  190.1110  177.3530  139.7420 C   0  0  0  0  0  3  0  0  0  0  0  0
  188.5870  177.9200  141.5320 C   0  0  0  0  0  3  0  0  0  0  0  0
  191.9890  177.4340  142.9120 O   0  0  0  0  0  1  0  0  0  0  0  0
  190.9240  177.4980  142.0210 C   0  0  0  0  0  0  0  0  0  0  0  0
  191.1570  177.2630  140.6630 C   0  0  0  0  0  3  0  0  0  0  0  0
  188.8270  177.6870  140.1760 C   0  0  0  0  0  3  0  0  0  0  0  0
  185.9370  177.9340  145.3530 C   0  0  0  0  0  2  0  0  0  0  0  0
  185.3980  179.1550  145.7870 O   0  0  0  0  0  0  0  0  0  0  0  0
  184.8850  180.6290  144.0640 F   0  0  0  0  0  0  0  0  0  0  0  0
  184.4350  179.5730  144.8460 C   0  0  1  0  0  3  0  0  0  0  0  0
  183.9310  178.4130  143.9910 C   0  0  0  0  0  2  0  0  0  0  0  0
  182.5630  178.2650  142.1010 C   0  0  0  0  0  2  0  0  0  0  0  0
  184.9030  178.1910  141.8840 C   0  0  0  0  0  2  0  0  0  0  0  0
  182.9790  178.6050  139.6030 C   0  0  1  0  0  3  0  0  0  0  0  0
  183.8100  178.8290  142.6030 N   0  0  0  0  0  0  0  0  0  0  0  0
  184.3740  179.1730  139.6510 C   0  0  0  0  0  3  0  0  0  0  0  0
  185.2390  178.9840  140.6590 C   0  0  0  0  0  3  0  0  0  0  0  0
  182.9890  177.1080  139.3330 C   0  0  0  0  0  1  0  0  0  0  0  0
  182.1240  178.9740  140.8200 C   0  0  0  0  0  2  0  0  0  0  0  0
  1  7  1  1  0  0  0
  2  9  1  6  0  0  0
  2  8  1  0  0  0  0
  2  1  1  0  0  0  0
  3  5  1  0  0  0  0
  6 16  1  6  0  0  0
  6  3  1  0  0  0  0
  7  5  1  0  0  0  0
  8  4  1  6  0  0  0
  8  1  1  0  0  0  0
  8  6  1  0  0  0  0
 10 15  2  0  0  0  0
 10 14  1  0  0  0  0
 11  9  2  0  0  0  0
 13  9  1  0  0  0  0
 13 12  1  0  0  0  0
 14 13  2  0  0  0  0
 15 11  1  0  0  0  0
 16 17  1  0  0  0  0
 19 18  1  6  0  0  0
 19 17  1  0  0  0  0
 20 19  1  0  0  0  0
 21 24  1  0  0  0  0
 22 24  1  0  0  0  0
 23 27  1  1  0  0  0
 23 25  1  0  0  0  0
 23 28  1  0  0  0  0
 24 20  1  0  0  0  0
 25 26  2  0  0  0  0
 26 22  1  0  0  0  0
 28 21  1  0  0  0  0
M  END
>  <MODEL>
5

>  <REMARK>
 VINA RESULT:      -8.4      3.022      5.909
  Name = 
  6 active torsions:
  status: ('A' for Active; 'I' for Inactive)
    1  A    between atoms: C_2  and  C_3
    2  A    between atoms: C_5  and  O_20
    3  A    between atoms: C_5  and  C_21
    4  A    between atoms: C_10  and  N_13
    5  A    between atoms: C_10  and  C_25
    6  A    between atoms: O_20  and  C_25
                            x       y       z     vdW  Elec       q    Type
                         _______ _______ _______ _____ _____    ______ ____

>  <TORSDO>
F 6

$$$$
=
 OpenBabel10272401483D

 28 31  0  0  1  0  0  0  0  0999 V2000
  190.2270  176.9840  144.2890 C   0  0  1  0  0  3  0  0  0  0  0  0
  189.5720  178.1330  143.5130 C   0  0  2  0  0  3  0  0  0  0  0  0
  188.7840  176.9340  146.8440 C   0  0  0  0  0  2  0  0  0  0  0  0
  188.0290  176.1570  143.6910 O   0  0  0  0  0  1  0  0  0  0  0  0
  190.3230  176.9320  146.8120 C   0  0  0  0  0  2  0  0  0  0  0  0
  188.1650  177.7060  145.6780 C   0  0  1  0  0  3  0  0  0  0  0  0
  190.9170  177.5360  145.5350 C   0  0  0  0  0  2  0  0  0  0  0  0
  188.7180  177.1820  144.3480 C   0  0  1  0  0  0  0  0  0  0  0  0
  189.5210  177.8460  142.0330 C   0  0  0  0  0  0  0  0  0  0  0  0
  189.4250  177.1680  139.3110 C   0  0  0  0  0  3  0  0  0  0  0  0
  190.5760  177.1410  141.4370 C   0  0  0  0  0  3  0  0  0  0  0  0
  187.2970  178.8180  141.8270 O   0  0  0  0  0  1  0  0  0  0  0  0
  188.3890  178.1740  141.2580 C   0  0  0  0  0  0  0  0  0  0  0  0
  188.3540  177.8440  139.9000 C   0  0  0  0  0  3  0  0  0  0  0  0
  190.5330  176.8110  140.0810 C   0  0  0  0  0  3  0  0  0  0  0  0
  186.6470  177.6260  145.7210 C   0  0  0  0  0  2  0  0  0  0  0  0
  186.0890  178.6520  144.9410 O   0  0  0  0  0  0  0  0  0  0  0  0
  184.0890  178.4310  146.1040 F   0  0  0  0  0  0  0  0  0  0  0  0
  184.6990  178.4360  144.8560 C   0  0  1  0  0  3  0  0  0  0  0  0
  184.0250  179.4210  143.9040 C   0  0  0  0  0  2  0  0  0  0  0  0
  183.7380  178.7800  141.6740 C   0  0  0  0  0  2  0  0  0  0  0  0
  181.8960  179.4770  142.9570 C   0  0  0  0  0  2  0  0  0  0  0  0
  181.7040  178.0700  140.3000 C   0  0  1  0  0  3  0  0  0  0  0  0
  183.1340  178.7130  142.9990 N   0  0  0  0  0  0  0  0  0  0  0  0
  180.6820  177.9490  141.4010 C   0  0  0  0  0  3  0  0  0  0  0  0
  180.7560  178.5810  142.5820 C   0  0  0  0  0  3  0  0  0  0  0  0
  181.6230  179.4190  139.6000 C   0  0  0  0  0  1  0  0  0  0  0  0
  183.1300  177.7270  140.7470 C   0  0  0  0  0  2  0  0  0  0  0  0
  1  8  1  0  0  0  0
  1  7  1  1  0  0  0
  2  9  1  6  0  0  0
  2  1  1  0  0  0  0
  2  8  1  0  0  0  0
  5  3  1  0  0  0  0
  6 16  1  6  0  0  0
  6  3  1  0  0  0  0
  7  5  1  0  0  0  0
  8  4  1  6  0  0  0
  8  6  1  0  0  0  0
 10 14  2  0  0  0  0
 10 15  1  0  0  0  0
 11  9  1  0  0  0  0
 13 12  1  0  0  0  0
 13  9  2  0  0  0  0
 14 13  1  0  0  0  0
 15 11  2  0  0  0  0
 17 16  1  0  0  0  0
 19 17  1  0  0  0  0
 19 18  1  1  0  0  0
 20 19  1  0  0  0  0
 21 24  1  0  0  0  0
 22 24  1  0  0  0  0
 23 27  1  1  0  0  0
 23 28  1  0  0  0  0
 23 25  1  0  0  0  0
 24 20  1  0  0  0  0
 25 26  2  0  0  0  0
 26 22  1  0  0  0  0
 28 21  1  0  0  0  0
M  END
>  <MODEL>
6

>  <REMARK>
 VINA RESULT:      -8.4      3.386      6.455
  Name = 
  6 active torsions:
  status: ('A' for Active; 'I' for Inactive)
    1  A    between atoms: C_2  and  C_3
    2  A    between atoms: C_5  and  O_20
    3  A    between atoms: C_5  and  C_21
    4  A    between atoms: C_10  and  N_13
    5  A    between atoms: C_10  and  C_25
    6  A    between atoms: O_20  and  C_25
                            x       y       z     vdW  Elec       q    Type
                         _______ _______ _______ _____ _____    ______ ____

>  <TORSDO>
F 6

$$$$
=
 OpenBabel10272401483D

 28 31  0  0  1  0  0  0  0  0999 V2000
  187.0290  177.4430  145.2350 C   0  0  1  0  0  3  0  0  0  0  0  0
  188.3380  178.1830  144.9310 C   0  0  2  0  0  3  0  0  0  0  0  0
  185.2770  178.1350  142.9840 C   0  0  0  0  0  2  0  0  0  0  0  0
  187.9980  176.2470  143.3640 O   0  0  0  0  0  1  0  0  0  0  0  0
  184.7830  178.2760  144.4350 C   0  0  0  0  0  2  0  0  0  0  0  0
  186.7780  178.3920  142.8390 C   0  0  1  0  0  3  0  0  0  0  0  0
  185.9090  178.4580  145.4590 C   0  0  0  0  0  2  0  0  0  0  0  0
  187.5600  177.4990  143.8090 C   0  0  1  0  0  0  0  0  0  0  0  0
  189.5390  177.3990  145.3950 C   0  0  0  0  0  0  0  0  0  0  0  0
  191.8620  176.0470  146.2040 C   0  0  0  0  0  3  0  0  0  0  0  0
  190.4560  176.9280  144.4440 C   0  0  0  0  0  3  0  0  0  0  0  0
  188.9670  177.7320  147.7390 O   0  0  0  0  0  1  0  0  0  0  0  0
  189.8200  177.2240  146.7660 C   0  0  0  0  0  0  0  0  0  0  0  0
  190.9720  176.5390  147.1600 C   0  0  0  0  0  3  0  0  0  0  0  0
  191.6070  176.2460  144.8450 C   0  0  0  0  0  3  0  0  0  0  0  0
  187.2260  178.1820  141.4010 C   0  0  0  0  0  2  0  0  0  0  0  0
  188.5950  178.4680  141.2780 O   0  0  0  0  0  0  0  0  0  0  0  0
  189.0000  179.0100  139.0540 F   0  0  0  0  0  0  0  0  0  0  0  0
  189.0300  178.0100  140.0180 C   0  0  1  0  0  3  0  0  0  0  0  0
  190.4010  177.3430  140.0940 C   0  0  0  0  0  2  0  0  0  0  0  0
  189.9460  176.0510  138.2010 C   0  0  0  0  0  2  0  0  0  0  0  0
  192.1610  176.3550  138.9280 C   0  0  0  0  0  2  0  0  0  0  0  0
  191.3730  175.2500  136.2380 C   0  0  1  0  0  3  0  0  0  0  0  0
  190.8780  177.0230  138.7590 N   0  0  0  0  0  0  0  0  0  0  0  0
  192.6290  176.0410  136.4970 C   0  0  0  0  0  3  0  0  0  0  0  0
  192.9910  176.5260  137.6930 C   0  0  0  0  0  3  0  0  0  0  0  0
  191.4690  173.8390  136.7980 C   0  0  0  0  0  1  0  0  0  0  0  0
  190.0940  175.9690  136.6810 C   0  0  0  0  0  2  0  0  0  0  0  0
  1  7  1  6  0  0  0
  2  1  1  0  0  0  0
  2  9  1  1  0  0  0
  3  5  1  0  0  0  0
  5  7  1  0  0  0  0
  6 16  1  6  0  0  0
  6  3  1  0  0  0  0
  6  8  1  0  0  0  0
  8  4  1  6  0  0  0
  8  2  1  0  0  0  0
  8  1  1  0  0  0  0
  9 13  1  0  0  0  0
 10 14  1  0  0  0  0
 11 15  1  0  0  0  0
 11  9  2  0  0  0  0
 13 14  2  0  0  0  0
 13 12  1  0  0  0  0
 15 10  2  0  0  0  0
 17 16  1  0  0  0  0
 19 18  1  6  0  0  0
 19 20  1  0  0  0  0
 19 17  1  0  0  0  0
 21 24  1  0  0  0  0
 23 25  1  0  0  0  0
 23 28  1  0  0  0  0
 23 27  1  1  0  0  0
 24 22  1  0  0  0  0
 24 20  1  0  0  0  0
 25 26  2  0  0  0  0
 26 22  1  0  0  0  0
 28 21  1  0  0  0  0
M  END
>  <MODEL>
7

>  <REMARK>
 VINA RESULT:      -8.4      1.746      4.261
  Name = 
  6 active torsions:
  status: ('A' for Active; 'I' for Inactive)
    1  A    between atoms: C_2  and  C_3
    2  A    between atoms: C_5  and  O_20
    3  A    between atoms: C_5  and  C_21
    4  A    between atoms: C_10  and  N_13
    5  A    between atoms: C_10  and  C_25
    6  A    between atoms: O_20  and  C_25
                            x       y       z     vdW  Elec       q    Type
                         _______ _______ _______ _____ _____    ______ ____

>  <TORSDO>
F 6

$$$$
=
 OpenBabel10272401483D

 28 31  0  0  1  0  0  0  0  0999 V2000
  189.2330  177.6800  143.9440 C   0  0  1  0  0  3  0  0  0  0  0  0
  188.0270  176.9910  143.2920 C   0  0  2  0  0  3  0  0  0  0  0  0
  191.4030  177.3100  142.0030 C   0  0  0  0  0  2  0  0  0  0  0  0
  188.6100  179.1290  142.1060 O   0  0  0  0  0  1  0  0  0  0  0  0
  191.6120  176.9660  143.4890 C   0  0  0  0  0  2  0  0  0  0  0  0
  189.9650  177.0780  141.5350 C   0  0  1  0  0  3  0  0  0  0  0  0
  190.3150  176.6430  144.2390 C   0  0  0  0  0  2  0  0  0  0  0  0
  188.9870  177.8260  142.4490 C   0  0  1  0  0  0  0  0  0  0  0  0
  186.7380  177.7030  143.6180 C   0  0  0  0  0  0  0  0  0  0  0  0
  184.2660  178.9150  144.1640 C   0  0  0  0  0  3  0  0  0  0  0  0
  185.8940  178.1020  142.5720 C   0  0  0  0  0  3  0  0  0  0  0  0
  187.0910  177.4400  146.0140 O   0  0  0  0  0  1  0  0  0  0  0  0
  186.3100  177.8780  144.9510 C   0  0  0  0  0  0  0  0  0  0  0  0
  185.0840  178.4940  145.2150 C   0  0  0  0  0  3  0  0  0  0  0  0
  184.6690  178.7140  142.8420 C   0  0  0  0  0  3  0  0  0  0  0  0
  189.7970  177.4900  140.0810 C   0  0  0  0  0  2  0  0  0  0  0  0
  188.5470  177.0630  139.6020 O   0  0  0  0  0  0  0  0  0  0  0  0
  188.9190  179.0840  138.5170 F   0  0  0  0  0  0  0  0  0  0  0  0
  187.9870  178.1070  138.8390 C   0  0  1  0  0  3  0  0  0  0  0  0
  187.2670  177.5840  137.5980 C   0  0  0  0  0  2  0  0  0  0  0  0
  185.5780  178.4200  138.9810 C   0  0  0  0  0  2  0  0  0  0  0  0
  185.0870  176.7960  137.3540 C   0  0  0  0  0  2  0  0  0  0  0  0
  183.0270  178.4280  138.8270 C   0  0  1  0  0  3  0  0  0  0  0  0
  185.8720  177.9930  137.6190 N   0  0  0  0  0  0  0  0  0  0  0  0
  182.8550  177.9110  137.4230 C   0  0  0  0  0  3  0  0  0  0  0  0
  183.7630  177.1750  136.7650 C   0  0  0  0  0  3  0  0  0  0  0  0
  182.8960  177.3170  139.8580 C   0  0  0  0  0  1  0  0  0  0  0  0
  184.3000  179.2590  139.0230 C   0  0  0  0  0  2  0  0  0  0  0  0
  1  7  1  6  0  0  0
  2  9  1  1  0  0  0
  2  1  1  0  0  0  0
  3  5  1  0  0  0  0
  5  7  1  0  0  0  0
  6 16  1  6  0  0  0
  6  3  1  0  0  0  0
  6  8  1  0  0  0  0
  8  4  1  6  0  0  0
  8  2  1  0  0  0  0
  8  1  1  0  0  0  0
  9 13  1  0  0  0  0
 10 14  1  0  0  0  0
 11 15  1  0  0  0  0
 11  9  2  0  0  0  0
 13 14  2  0  0  0  0
 13 12  1  0  0  0  0
 15 10  2  0  0  0  0
 17 16  1  0  0  0  0
 19 18  1  6  0  0  0
 19 17  1  0  0  0  0
 20 24  1  0  0  0  0
 20 19  1  0  0  0  0
 21 28  1  0  0  0  0
 22 24  1  0  0  0  0
 23 28  1  0  0  0  0
 23 27  1  1  0  0  0
 24 21  1  0  0  0  0
 25 23  1  0  0  0  0
 26 22  1  0  0  0  0
 26 25  2  0  0  0  0
M  END
>  <MODEL>
8

>  <REMARK>
 VINA RESULT:      -8.2      2.645      3.777
  Name = 
  6 active torsions:
  status: ('A' for Active; 'I' for Inactive)
    1  A    between atoms: C_2  and  C_3
    2  A    between atoms: C_5  and  O_20
    3  A    between atoms: C_5  and  C_21
    4  A    between atoms: C_10  and  N_13
    5  A    between atoms: C_10  and  C_25
    6  A    between atoms: O_20  and  C_25
                            x       y       z     vdW  Elec       q    Type
                         _______ _______ _______ _____ _____    ______ ____

>  <TORSDO>
F 6

$$$$
=
 OpenBabel10272401483D

 28 31  0  0  1  0  0  0  0  0999 V2000
  186.7640  177.7020  146.1990 C   0  0  1  0  0  3  0  0  0  0  0  0
  187.9670  178.4100  145.5640 C   0  0  2  0  0  3  0  0  0  0  0  0
  184.5140  178.4130  144.4540 C   0  0  0  0  0  2  0  0  0  0  0  0
  187.2050  176.4670  144.1620 O   0  0  0  0  0  1  0  0  0  0  0  0
  184.4050  178.5780  145.9800 C   0  0  0  0  0  2  0  0  0  0  0  0
  185.9340  178.6350  143.9300 C   0  0  1  0  0  3  0  0  0  0  0  0
  185.7560  178.7440  146.6840 C   0  0  0  0  0  2  0  0  0  0  0  0
  186.9180  177.7330  144.6840 C   0  0  1  0  0  0  0  0  0  0  0  0
  189.2310  177.6040  145.7210 C   0  0  0  0  0  0  0  0  0  0  0  0
  191.6600  176.2160  145.9570 C   0  0  0  0  0  3  0  0  0  0  0  0
  189.9690  177.2600  144.5790 C   0  0  0  0  0  3  0  0  0  0  0  0
  189.0750  177.6590  148.1510 O   0  0  0  0  0  1  0  0  0  0  0  0
  189.7460  177.2810  146.9940 C   0  0  0  0  0  0  0  0  0  0  0  0
  190.9500  176.5790  147.1030 C   0  0  0  0  0  3  0  0  0  0  0  0
  191.1730  176.5610  144.6950 C   0  0  0  0  0  3  0  0  0  0  0  0
  186.0000  178.4010  142.4300 C   0  0  0  0  0  2  0  0  0  0  0  0
  185.0260  179.1750  141.7790 O   0  0  0  0  0  0  0  0  0  0  0  0
  184.4230  179.7970  139.6220 F   0  0  0  0  0  0  0  0  0  0  0  0
  185.0230  178.8260  140.4140 C   0  0  1  0  0  3  0  0  0  0  0  0
  186.4210  178.4740  139.9110 C   0  0  0  0  0  2  0  0  0  0  0  0
  185.5200  177.3400  138.0770 C   0  0  0  0  0  2  0  0  0  0  0  0
  187.7740  178.0070  138.0710 C   0  0  0  0  0  2  0  0  0  0  0  0
  186.2530  177.0770  135.6430 C   0  0  1  0  0  3  0  0  0  0  0  0
  186.4300  178.4120  138.4590 N   0  0  0  0  0  0  0  0  0  0  0  0
  187.3820  178.0740  135.6070 C   0  0  0  0  0  3  0  0  0  0  0  0
  188.0700  178.4850  136.6830 C   0  0  0  0  0  3  0  0  0  0  0  0
  186.7580  175.6610  135.8790 C   0  0  0  0  0  1  0  0  0  0  0  0
  185.1240  177.4630  136.6050 C   0  0  0  0  0  2  0  0  0  0  0  0
  1  7  1  6  0  0  0
  2  9  1  1  0  0  0
  2  1  1  0  0  0  0
  3  5  1  0  0  0  0
  5  7  1  0  0  0  0
  6 16  1  6  0  0  0
  6  3  1  0  0  0  0
  6  8  1  0  0  0  0
  8  4  1  6  0  0  0
  8  2  1  0  0  0  0
  8  1  1  0  0  0  0
  9 13  1  0  0  0  0
 10 14  1  0  0  0  0
 11 15  1  0  0  0  0
 11  9  2  0  0  0  0
 13 14  2  0  0  0  0
 13 12  1  0  0  0  0
 15 10  2  0  0  0  0
 17 16  1  0  0  0  0
 19 18  1  6  0  0  0
 19 17  1  0  0  0  0
 20 19  1  0  0  0  0
 21 24  1  0  0  0  0
 22 24  1  0  0  0  0
 23 27  1  1  0  0  0
 23 28  1  0  0  0  0
 24 20  1  0  0  0  0
 25 23  1  0  0  0  0
 25 26  2  0  0  0  0
 26 22  1  0  0  0  0
 28 21  1  0  0  0  0
M  END
>  <MODEL>
9

>  <REMARK>
 VINA RESULT:      -8.1      2.700      4.912
  Name = 
  6 active torsions:
  status: ('A' for Active; 'I' for Inactive)
    1  A    between atoms: C_2  and  C_3
    2  A    between atoms: C_5  and  O_20
    3  A    between atoms: C_5  and  C_21
    4  A    between atoms: C_10  and  N_13
    5  A    between atoms: C_10  and  C_25
    6  A    between atoms: O_20  and  C_25
                            x       y       z     vdW  Elec       q    Type
                         _______ _______ _______ _____ _____    ______ ____

>  <TORSDO>
F 6

$$$$
