=
 OpenBabel10272414473D

 37 42  0  0  1  0  0  0  0  0999 V2000
  186.2360  178.5750  141.1030 C   0  0  0  0  0  3  0  0  0  0  0  0
  189.2510  178.4090  137.2120 C   0  0  0  0  0  2  0  0  0  0  0  0
  184.9150  177.3530  136.7910 C   0  0  1  0  0  3  0  0  0  0  0  0
  187.4040  176.8210  136.3620 C   0  0  2  0  0  3  0  0  0  0  0  0
  184.2540  178.2470  137.8510 C   0  0  1  0  0  3  0  0  0  0  0  0
  186.3920  177.8410  136.9010 C   0  0  2  0  0  3  0  0  0  0  0  0
  182.7290  178.3360  138.1490 C   0  0  2  0  0  0  0  0  0  0  0  0
  187.2030  175.2090  137.1650 S   0  0  0  0  0  0  0  0  0  0  0  0
  186.5320  178.2190  138.3560 C   0  0  0  0  0  0  0  0  0  0  0  0
  187.5190  178.4620  140.5440 C   0  0  0  0  0  3  0  0  0  0  0  0
  183.3750  175.3460  136.9920 C   0  0  0  0  0  1  0  0  0  0  0  0
  185.6510  175.0550  136.4360 O   0  0  0  0  0  0  0  0  0  0  0  0
  187.6860  178.2710  139.1640 C   0  0  0  0  0  0  0  0  0  0  0  0
  183.0790  177.1550  140.2200 C   0  0  0  0  0  2  0  0  0  0  0  0
  184.7900  175.8570  137.1950 C   0  0  1  0  0  3  0  0  0  0  0  0
  185.2860  178.4430  138.9010 C   0  0  0  0  0  0  0  0  0  0  0  0
  188.8670  177.2700  136.2740 C   0  0  0  0  0  2  0  0  0  0  0  0
  182.2340  177.3960  139.1040 O   0  0  0  0  0  0  0  0  0  0  0  0
  189.0680  177.9920  138.6600 C   0  0  0  0  0  2  0  0  0  0  0  0
  183.6960  178.4190  140.8370 C   0  0  2  0  0  3  0  0  0  0  0  0
  185.0940  178.5410  140.2840 C   0  0  0  0  0  0  0  0  0  0  0  0
  181.9850  178.1030  136.8420 C   0  0  0  0  0  1  0  0  0  0  0  0
  182.4070  179.7780  138.5830 C   0  0  0  0  0  2  0  0  0  0  0  0
  181.0340  180.2680  138.1220 C   0  0  0  0  0  2  0  0  0  0  0  0
  180.3760  182.7710  135.2710 C   0  0  0  0  0  2  0  0  0  0  0  0
  180.6950  181.4220  135.9340 C   0  0  0  0  0  2  0  0  0  0  0  0
  181.1330  181.5960  137.3910 C   0  0  0  0  0  3  0  0  0  0  0  0
  180.0310  183.8770  137.1970 C   0  0  0  0  0  2  0  0  0  0  0  0
  180.3130  182.6740  138.1100 C   0  0  0  0  0  2  0  0  0  0  0  0
  180.8410  183.8470  136.0480 O   0  0  0  0  0  0  0  0  0  0  0  0
  183.6100  178.4130  142.3780 C   0  0  2  0  0  3  0  0  0  0  0  0
  182.2090  178.8210  144.2690 C   0  0  0  0  0  1  0  0  0  0  0  0
  182.2170  178.4290  142.8670 N   0  0  0  0  0  0  0  0  0  0  0  0
  180.0670  178.7320  141.7700 C   0  0  0  0  0  1  0  0  0  0  0  0
  181.3920  179.3770  142.1260 C   0  0  0  0  0  2  0  0  0  0  0  0
  184.5340  179.4540  143.0520 C   0  0  0  0  0  2  0  0  0  0  0  0
  185.2930  178.9000  144.2500 C   0  0  0  0  0  1  0  0  0  0  0  0
  2 19  1  0  0  0  0
  3  6  1  0  0  0  0
  3 15  1  0  0  0  0
  3  5  1  0  0  0  0
  4  6  1  0  0  0  0
  4  8  1  0  0  0  0
  5  7  1  0  0  0  0
  5 16  1  0  0  0  0
  6  9  1  0  0  0  0
  7 23  1  0  0  0  0
  7 18  1  0  0  0  0
  9 16  2  0  0  0  0
  9 13  1  0  0  0  0
 10  1  1  0  0  0  0
 11 15  1  0  0  0  0
 12  8  1  0  0  0  0
 12 15  1  0  0  0  0
 13 10  2  0  0  0  0
 14 20  1  0  0  0  0
 16 21  1  0  0  0  0
 17  4  1  0  0  0  0
 17  2  1  0  0  0  0
 18 14  1  0  0  0  0
 19 13  1  0  0  0  0
 20 31  1  0  0  0  0
 21 20  1  0  0  0  0
 21  1  2  0  0  0  0
 22  7  1  0  0  0  0
 24 23  1  0  0  0  0
 25 26  1  0  0  0  0
 25 30  1  0  0  0  0
 26 27  1  0  0  0  0
 27 29  1  0  0  0  0
 27 24  1  0  0  0  0
 28 29  1  0  0  0  0
 30 28  1  0  0  0  0
 31 33  1  0  0  0  0
 31 36  1  0  0  0  0
 33 32  1  0  0  0  0
 34 35  1  0  0  0  0
 35 33  1  0  0  0  0
 36 37  1  0  0  0  0
M  END
>  <MODEL>
1

>  <REMARK>
 VINA RESULT:      -6.7      0.000      0.000
  Name = 
  7 active torsions:
  status: ('A' for Active; 'I' for Inactive)
    1  A    between atoms: C_7  and  C_14
    2  A    between atoms: C_7  and  C_15
    3  A    between atoms: C_8  and  C_15
    4  A    between atoms: C_11  and  C_26
    5  A    between atoms: N_17  and  C_23
    6  A    between atoms: N_17  and  C_26
    7  A    between atoms: C_26  and  C_33
                            x       y       z     vdW  Elec       q    Type
                         _______ _______ _______ _____ _____    ______ ____

>  <TORSDO>
F 7

$$$$
=
 OpenBabel10272414473D

 37 42  0  0  1  0  0  0  0  0999 V2000
  181.0090  177.1970  137.7580 C   0  0  0  0  0  3  0  0  0  0  0  0
  183.3280  173.2070  136.0360 C   0  0  0  0  0  2  0  0  0  0  0  0
  185.6520  176.6780  137.6630 C   0  0  1  0  0  3  0  0  0  0  0  0
  185.2480  174.9170  135.8200 C   0  0  2  0  0  3  0  0  0  0  0  0
  184.7050  177.2350  138.7360 C   0  0  1  0  0  3  0  0  0  0  0  0
  184.8510  175.4170  137.2160 C   0  0  2  0  0  3  0  0  0  0  0  0
  184.9930  178.4470  139.6690 C   0  0  2  0  0  0  0  0  0  0  0  0
  185.1060  176.2350  134.5850 S   0  0  0  0  0  0  0  0  0  0  0  0
  183.4100  175.8320  137.3940 C   0  0  0  0  0  0  0  0  0  0  0  0
  181.0480  176.0480  136.9520 C   0  0  0  0  0  3  0  0  0  0  0  0
  186.6610  178.8740  136.8890 C   0  0  0  0  0  1  0  0  0  0  0  0
  186.3760  177.0900  135.3700 O   0  0  0  0  0  0  0  0  0  0  0  0
  182.2510  175.3550  136.7480 C   0  0  0  0  0  0  0  0  0  0  0  0
  183.4020  179.7640  138.4280 C   0  0  0  0  0  2  0  0  0  0  0  0
  185.7960  177.6920  136.4940 C   0  0  1  0  0  3  0  0  0  0  0  0
  183.3370  176.8930  138.2700 C   0  0  0  0  0  0  0  0  0  0  0  0
  184.6370  173.5900  135.3550 C   0  0  0  0  0  2  0  0  0  0  0  0
  184.6260  179.7250  139.1470 O   0  0  0  0  0  0  0  0  0  0  0  0
  182.2550  174.2400  135.7480 C   0  0  0  0  0  2  0  0  0  0  0  0
  182.2490  178.9960  139.0900 C   0  0  2  0  0  3  0  0  0  0  0  0
  182.1680  177.6520  138.4120 C   0  0  0  0  0  0  0  0  0  0  0  0
  186.4880  178.4730  139.9500 C   0  0  0  0  0  1  0  0  0  0  0  0
  184.3010  178.1880  141.0200 C   0  0  0  0  0  2  0  0  0  0  0  0
  184.7480  179.1360  142.1340 C   0  0  0  0  0  2  0  0  0  0  0  0
  186.9910  177.5780  144.8480 C   0  0  0  0  0  2  0  0  0  0  0  0
  186.5250  177.9600  143.4340 C   0  0  0  0  0  2  0  0  0  0  0  0
  185.0540  178.3840  143.4170 C   0  0  0  0  0  3  0  0  0  0  0  0
  185.3690  178.7090  145.9170 C   0  0  0  0  0  2  0  0  0  0  0  0
  184.6880  179.2300  144.6420 C   0  0  0  0  0  2  0  0  0  0  0  0
  185.9000  177.4210  145.7230 O   0  0  0  0  0  0  0  0  0  0  0  0
  180.9340  179.8040  139.0800 C   0  0  2  0  0  3  0  0  0  0  0  0
  180.0070  180.5660  137.0150 C   0  0  0  0  0  1  0  0  0  0  0  0
  180.9440  180.8900  138.0800 N   0  0  0  0  0  0  0  0  0  0  0  0
  180.5890  183.2490  137.6010 C   0  0  0  0  0  1  0  0  0  0  0  0
  180.5470  182.1670  138.6630 C   0  0  0  0  0  2  0  0  0  0  0  0
  180.4650  180.2380  140.4880 C   0  0  0  0  0  2  0  0  0  0  0  0
  180.7530  179.2030  141.5660 C   0  0  0  0  0  1  0  0  0  0  0  0
  1 21  1  0  0  0  0
  3  5  1  0  0  0  0
  4  6  1  0  0  0  0
  5  7  1  0  0  0  0
  6  9  1  0  0  0  0
  6  3  1  0  0  0  0
  7 22  1  0  0  0  0
  7 23  1  0  0  0  0
  8 12  1  0  0  0  0
  8  4  1  0  0  0  0
  9 16  1  0  0  0  0
 10  1  2  0  0  0  0
 12 15  1  0  0  0  0
 13 10  1  0  0  0  0
 13  9  2  0  0  0  0
 14 20  1  0  0  0  0
 14 18  1  0  0  0  0
 15 11  1  0  0  0  0
 15  3  1  0  0  0  0
 16 21  2  0  0  0  0
 16  5  1  0  0  0  0
 17  4  1  0  0  0  0
 17  2  1  0  0  0  0
 18  7  1  0  0  0  0
 19  2  1  0  0  0  0
 19 13  1  0  0  0  0
 21 20  1  0  0  0  0
 23 24  1  0  0  0  0
 24 27  1  0  0  0  0
 25 30  1  0  0  0  0
 26 25  1  0  0  0  0
 27 26  1  0  0  0  0
 27 29  1  0  0  0  0
 29 28  1  0  0  0  0
 30 28  1  0  0  0  0
 31 20  1  0  0  0  0
 31 36  1  0  0  0  0
 32 33  1  0  0  0  0
 33 35  1  0  0  0  0
 33 31  1  0  0  0  0
 34 35  1  0  0  0  0
 36 37  1  0  0  0  0
M  END
>  <MODEL>
2

>  <REMARK>
 VINA RESULT:      -6.5      2.219      6.223
  Name = 
  7 active torsions:
  status: ('A' for Active; 'I' for Inactive)
    1  A    between atoms: C_7  and  C_14
    2  A    between atoms: C_7  and  C_15
    3  A    between atoms: C_8  and  C_15
    4  A    between atoms: C_11  and  C_26
    5  A    between atoms: N_17  and  C_23
    6  A    between atoms: N_17  and  C_26
    7  A    between atoms: C_26  and  C_33
                            x       y       z     vdW  Elec       q    Type
                         _______ _______ _______ _____ _____    ______ ____

>  <TORSDO>
F 7

$$$$
=
 OpenBabel10272414473D

 37 42  0  0  1  0  0  0  0  0999 V2000
  193.5040  176.2150  138.6600 C   0  0  0  0  0  3  0  0  0  0  0  0
  189.2780  177.2860  140.9540 C   0  0  0  0  0  2  0  0  0  0  0  0
  189.2750  175.8540  136.7060 C   0  0  1  0  0  3  0  0  0  0  0  0
  188.4840  177.5220  138.5110 C   0  0  2  0  0  3  0  0  0  0  0  0
  190.5030  174.9330  136.6680 C   0  0  1  0  0  3  0  0  0  0  0  0
  189.2570  176.2280  138.2200 C   0  0  2  0  0  3  0  0  0  0  0  0
  190.9940  174.1160  135.4370 C   0  0  2  0  0  0  0  0  0  0  0  0
  189.1150  178.9010  137.5190 S   0  0  0  0  0  0  0  0  0  0  0  0
  190.7190  176.2200  138.6020 C   0  0  0  0  0  0  0  0  0  0  0  0
  192.7820  176.8850  139.6610 C   0  0  0  0  0  3  0  0  0  0  0  0
  189.4310  176.7730  134.3460 C   0  0  0  0  0  1  0  0  0  0  0  0
  188.5700  178.1070  136.0930 O   0  0  0  0  0  0  0  0  0  0  0  0
  191.3790  176.9070  139.6410 C   0  0  0  0  0  0  0  0  0  0  0  0
  192.8570  175.6260  135.1960 C   0  0  0  0  0  2  0  0  0  0  0  0
  189.5160  177.1100  135.8230 C   0  0  1  0  0  3  0  0  0  0  0  0
  191.4340  175.4750  137.6910 C   0  0  0  0  0  0  0  0  0  0  0  0
  188.2710  177.8900  139.9830 C   0  0  0  0  0  2  0  0  0  0  0  0
  191.8880  174.8040  134.5610 O   0  0  0  0  0  0  0  0  0  0  0  0
  190.6800  177.7760  140.6410 C   0  0  0  0  0  2  0  0  0  0  0  0
  193.5350  174.9850  136.4160 C   0  0  2  0  0  3  0  0  0  0  0  0
  192.8320  175.5170  137.6400 C   0  0  0  0  0  0  0  0  0  0  0  0
  189.7710  173.7130  134.6280 C   0  0  0  0  0  1  0  0  0  0  0  0
  191.6280  172.8100  135.9500 C   0  0  0  0  0  2  0  0  0  0  0  0
  191.7860  171.7370  134.8720 C   0  0  0  0  0  2  0  0  0  0  0  0
  194.8370  170.4270  136.8210 C   0  0  0  0  0  2  0  0  0  0  0  0
  193.8220  171.4500  136.2880 C   0  0  0  0  0  2  0  0  0  0  0  0
  193.0300  170.8970  135.0990 C   0  0  0  0  0  3  0  0  0  0  0  0
  193.8050  168.6310  135.9490 C   0  0  0  0  0  2  0  0  0  0  0  0
  192.6610  169.4220  135.2950 C   0  0  0  0  0  2  0  0  0  0  0  0
  195.0080  169.3580  135.9230 O   0  0  0  0  0  0  0  0  0  0  0  0
  195.0640  175.1960  136.4070 C   0  0  2  0  0  3  0  0  0  0  0  0
  196.4620  176.7040  135.1910 C   0  0  0  0  0  1  0  0  0  0  0  0
  195.5780  175.5530  135.0700 N   0  0  0  0  0  0  0  0  0  0  0  0
  197.7940  174.8550  134.3460 C   0  0  0  0  0  1  0  0  0  0  0  0
  196.3350  174.4600  134.4700 C   0  0  0  0  0  2  0  0  0  0  0  0
  195.8480  174.0630  137.1090 C   0  0  0  0  0  2  0  0  0  0  0  0
  196.8640  174.5710  138.1220 C   0  0  0  0  0  1  0  0  0  0  0  0
  1 10  1  0  0  0  0
  3  6  1  0  0  0  0
  4 17  1  0  0  0  0
  5  3  1  0  0  0  0
  5 16  1  0  0  0  0
  6  4  1  0  0  0  0
  6  9  1  0  0  0  0
  7 23  1  0  0  0  0
  7  5  1  0  0  0  0
  8  4  1  0  0  0  0
  9 13  1  0  0  0  0
 11 15  1  0  0  0  0
 12  8  1  0  0  0  0
 13 10  2  0  0  0  0
 13 19  1  0  0  0  0
 14 20  1  0  0  0  0
 15 12  1  0  0  0  0
 15  3  1  0  0  0  0
 16  9  2  0  0  0  0
 17  2  1  0  0  0  0
 18 14  1  0  0  0  0
 18  7  1  0  0  0  0
 19  2  1  0  0  0  0
 20 21  1  0  0  0  0
 21 16  1  0  0  0  0
 21  1  2  0  0  0  0
 22  7  1  0  0  0  0
 24 27  1  0  0  0  0
 24 23  1  0  0  0  0
 26 25  1  0  0  0  0
 27 29  1  0  0  0  0
 27 26  1  0  0  0  0
 29 28  1  0  0  0  0
 30 28  1  0  0  0  0
 30 25  1  0  0  0  0
 31 20  1  0  0  0  0
 31 36  1  0  0  0  0
 33 32  1  0  0  0  0
 33 31  1  0  0  0  0
 34 35  1  0  0  0  0
 35 33  1  0  0  0  0
 36 37  1  0  0  0  0
M  END
>  <MODEL>
3

>  <REMARK>
 VINA RESULT:      -6.2      6.394     11.896
  Name = 
  7 active torsions:
  status: ('A' for Active; 'I' for Inactive)
    1  A    between atoms: C_7  and  C_14
    2  A    between atoms: C_7  and  C_15
    3  A    between atoms: C_8  and  C_15
    4  A    between atoms: C_11  and  C_26
    5  A    between atoms: N_17  and  C_23
    6  A    between atoms: N_17  and  C_26
    7  A    between atoms: C_26  and  C_33
                            x       y       z     vdW  Elec       q    Type
                         _______ _______ _______ _____ _____    ______ ____

>  <TORSDO>
F 7

$$$$
=
 OpenBabel10272414473D

 37 42  0  0  1  0  0  0  0  0999 V2000
  186.9340  178.5000  139.6190 C   0  0  0  0  0  3  0  0  0  0  0  0
  187.0200  177.0340  134.9180 C   0  0  0  0  0  2  0  0  0  0  0  0
  183.2400  176.8040  137.3150 C   0  0  1  0  0  3  0  0  0  0  0  0
  184.9490  175.7180  135.7150 C   0  0  2  0  0  3  0  0  0  0  0  0
  183.3890  177.9880  138.2810 C   0  0  1  0  0  3  0  0  0  0  0  0
  184.5140  177.0000  136.4390 C   0  0  2  0  0  3  0  0  0  0  0  0
  182.3500  178.4310  139.3520 C   0  0  2  0  0  0  0  0  0  0  0  0
  185.1810  174.3520  136.8820 S   0  0  0  0  0  0  0  0  0  0  0  0
  185.5140  177.6000  137.3980 C   0  0  0  0  0  0  0  0  0  0  0  0
  187.6220  178.0340  138.4880 C   0  0  0  0  0  3  0  0  0  0  0  0
  182.0200  175.2130  138.8720 C   0  0  0  0  0  1  0  0  0  0  0  0
  183.4960  174.3790  137.2290 O   0  0  0  0  0  0  0  0  0  0  0  0
  186.9230  177.5670  137.3650 C   0  0  0  0  0  0  0  0  0  0  0  0
  183.8030  177.5990  141.0860 C   0  0  0  0  0  2  0  0  0  0  0  0
  183.3000  175.4610  138.0960 C   0  0  1  0  0  3  0  0  0  0  0  0
  184.8530  178.1620  138.4680 C   0  0  0  0  0  0  0  0  0  0  0  0
  186.0930  175.8440  134.7020 C   0  0  0  0  0  2  0  0  0  0  0  0
  182.4740  177.7970  140.6270 O   0  0  0  0  0  0  0  0  0  0  0  0
  187.7150  176.9320  136.2640 C   0  0  0  0  0  2  0  0  0  0  0  0
  184.7320  178.8060  140.8870 C   0  0  2  0  0  3  0  0  0  0  0  0
  185.5280  178.5460  139.6330 C   0  0  0  0  0  0  0  0  0  0  0  0
  180.9630  178.1180  138.8120 C   0  0  0  0  0  1  0  0  0  0  0  0
  182.4280  179.9620  139.4930 C   0  0  0  0  0  2  0  0  0  0  0  0
  181.1330  180.6820  139.1160 C   0  0  0  0  0  2  0  0  0  0  0  0
  180.3100  181.8320  135.5350 C   0  0  0  0  0  2  0  0  0  0  0  0
  180.5250  180.8540  136.7010 C   0  0  0  0  0  2  0  0  0  0  0  0
  181.2990  181.5050  137.8510 C   0  0  0  0  0  3  0  0  0  0  0  0
  180.6020  183.6920  136.7620 C   0  0  0  0  0  2  0  0  0  0  0  0
  180.8630  182.9560  138.0850 C   0  0  0  0  0  2  0  0  0  0  0  0
  181.1190  182.9750  135.6680 O   0  0  0  0  0  0  0  0  0  0  0  0
  185.5820  179.0970  142.1420 C   0  0  2  0  0  3  0  0  0  0  0  0
  187.6960  178.0360  142.4680 C   0  0  0  0  0  1  0  0  0  0  0  0
  186.2610  177.8920  142.6580 N   0  0  0  0  0  0  0  0  0  0  0  0
  187.3220  177.5140  144.8140 C   0  0  0  0  0  1  0  0  0  0  0  0
  186.0070  177.6940  144.0810 C   0  0  0  0  0  2  0  0  0  0  0  0
  184.8330  179.9160  143.2190 C   0  0  0  0  0  2  0  0  0  0  0  0
  183.5430  179.2570  143.6880 C   0  0  0  0  0  1  0  0  0  0  0  0
  1 21  1  0  0  0  0
  2 19  1  0  0  0  0
  3 15  1  0  0  0  0
  3  5  1  0  0  0  0
  4  6  1  0  0  0  0
  4  8  1  0  0  0  0
  5 16  1  0  0  0  0
  5  7  1  0  0  0  0
  6  3  1  0  0  0  0
  6  9  1  0  0  0  0
  7 23  1  0  0  0  0
  7 18  1  0  0  0  0
  8 12  1  0  0  0  0
  9 16  1  0  0  0  0
 10  1  2  0  0  0  0
 12 15  1  0  0  0  0
 13  9  2  0  0  0  0
 13 10  1  0  0  0  0
 15 11  1  0  0  0  0
 16 21  2  0  0  0  0
 17  2  1  0  0  0  0
 17  4  1  0  0  0  0
 18 14  1  0  0  0  0
 19 13  1  0  0  0  0
 20 14  1  0  0  0  0
 20 31  1  0  0  0  0
 21 20  1  0  0  0  0
 22  7  1  0  0  0  0
 24 23  1  0  0  0  0
 25 30  1  0  0  0  0
 25 26  1  0  0  0  0
 26 27  1  0  0  0  0
 27 29  1  0  0  0  0
 27 24  1  0  0  0  0
 28 29  1  0  0  0  0
 30 28  1  0  0  0  0
 31 33  1  0  0  0  0
 31 36  1  0  0  0  0
 32 33  1  0  0  0  0
 33 35  1  0  0  0  0
 35 34  1  0  0  0  0
 36 37  1  0  0  0  0
M  END
>  <MODEL>
4

>  <REMARK>
 VINA RESULT:      -5.9      1.512      2.608
  Name = 
  7 active torsions:
  status: ('A' for Active; 'I' for Inactive)
    1  A    between atoms: C_7  and  C_14
    2  A    between atoms: C_7  and  C_15
    3  A    between atoms: C_8  and  C_15
    4  A    between atoms: C_11  and  C_26
    5  A    between atoms: N_17  and  C_23
    6  A    between atoms: N_17  and  C_26
    7  A    between atoms: C_26  and  C_33
                            x       y       z     vdW  Elec       q    Type
                         _______ _______ _______ _____ _____    ______ ____

>  <TORSDO>
F 7

$$$$
=
 OpenBabel10272414473D

 37 42  0  0  1  0  0  0  0  0999 V2000
  190.0820  173.0760  135.5400 C   0  0  0  0  0  3  0  0  0  0  0  0
  194.2120  170.4200  135.9350 C   0  0  0  0  0  2  0  0  0  0  0  0
  194.1220  174.7140  137.2210 C   0  0  1  0  0  3  0  0  0  0  0  0
  195.2480  172.7830  135.9300 C   0  0  2  0  0  3  0  0  0  0  0  0
  192.6710  174.8860  137.6930 C   0  0  1  0  0  3  0  0  0  0  0  0
  194.1280  173.1890  136.8980 C   0  0  2  0  0  3  0  0  0  0  0  0
  192.0510  176.1850  138.2860 C   0  0  2  0  0  0  0  0  0  0  0  0
  195.1820  173.7600  134.4040 S   0  0  0  0  0  0  0  0  0  0  0  0
  192.7140  172.9200  136.4370 C   0  0  0  0  0  0  0  0  0  0  0  0
  190.8910  171.9950  135.1570 C   0  0  0  0  0  3  0  0  0  0  0  0
  194.4750  177.0370  136.2630 C   0  0  0  0  0  1  0  0  0  0  0  0
  195.5650  175.1730  135.3080 O   0  0  0  0  0  0  0  0  0  0  0  0
  192.2230  171.9060  135.5910 C   0  0  0  0  0  0  0  0  0  0  0  0
  190.8020  176.5030  136.2500 C   0  0  0  0  0  2  0  0  0  0  0  0
  194.3760  175.5570  135.9400 C   0  0  1  0  0  3  0  0  0  0  0  0
  191.8790  173.9150  136.8950 C   0  0  0  0  0  0  0  0  0  0  0  0
  195.4400  171.2840  135.6750 C   0  0  0  0  0  2  0  0  0  0  0  0
  191.5050  177.0970  137.3310 O   0  0  0  0  0  0  0  0  0  0  0  0
  193.0750  170.8190  135.0120 C   0  0  0  0  0  2  0  0  0  0  0  0
  189.8510  175.3670  136.6560 C   0  0  2  0  0  3  0  0  0  0  0  0
  190.5780  174.0710  136.4010 C   0  0  0  0  0  0  0  0  0  0  0  0
  193.1450  176.9160  139.0510 C   0  0  0  0  0  1  0  0  0  0  0  0
  190.9890  175.7800  139.3250 C   0  0  0  0  0  2  0  0  0  0  0  0
  190.3570  176.9660  140.0550 C   0  0  0  0  0  2  0  0  0  0  0  0
  190.9790  177.0270  143.8540 C   0  0  0  0  0  2  0  0  0  0  0  0
  191.3190  176.9360  142.3580 C   0  0  0  0  0  2  0  0  0  0  0  0
  190.0780  176.6390  141.5110 C   0  0  0  0  0  3  0  0  0  0  0  0
  188.7930  177.4500  143.5480 C   0  0  0  0  0  2  0  0  0  0  0  0
  188.8480  177.4050  142.0130 C   0  0  0  0  0  2  0  0  0  0  0  0
  189.6900  176.5290  144.1180 O   0  0  0  0  0  0  0  0  0  0  0  0
  188.4780  175.4840  135.9610 C   0  0  2  0  0  3  0  0  0  0  0  0
  187.5810  177.0020  134.3500 C   0  0  0  0  0  1  0  0  0  0  0  0
  188.0880  176.8860  135.7090 N   0  0  0  0  0  0  0  0  0  0  0  0
  187.6470  178.2240  137.6920 C   0  0  0  0  0  1  0  0  0  0  0  0
  187.0440  177.3320  136.6240 C   0  0  0  0  0  2  0  0  0  0  0  0
  187.3750  174.6260  136.6230 C   0  0  0  0  0  2  0  0  0  0  0  0
  186.4750  173.9210  135.6180 C   0  0  0  0  0  1  0  0  0  0  0  0
  1 21  1  0  0  0  0
  3  5  1  0  0  0  0
  4  6  1  0  0  0  0
  5  7  1  0  0  0  0
  6  3  1  0  0  0  0
  7 22  1  0  0  0  0
  7 23  1  0  0  0  0
  8 12  1  0  0  0  0
  8  4  1  0  0  0  0
  9 16  1  0  0  0  0
  9  6  1  0  0  0  0
 10  1  2  0  0  0  0
 10 13  1  0  0  0  0
 12 15  1  0  0  0  0
 13  9  2  0  0  0  0
 14 20  1  0  0  0  0
 14 18  1  0  0  0  0
 15 11  1  0  0  0  0
 15  3  1  0  0  0  0
 16  5  1  0  0  0  0
 17  4  1  0  0  0  0
 17  2  1  0  0  0  0
 18  7  1  0  0  0  0
 19 13  1  0  0  0  0
 19  2  1  0  0  0  0
 21 20  1  0  0  0  0
 21 16  2  0  0  0  0
 23 24  1  0  0  0  0
 24 27  1  0  0  0  0
 25 30  1  0  0  0  0
 26 25  1  0  0  0  0
 27 29  1  0  0  0  0
 27 26  1  0  0  0  0
 28 30  1  0  0  0  0
 29 28  1  0  0  0  0
 31 36  1  0  0  0  0
 31 20  1  0  0  0  0
 32 33  1  0  0  0  0
 33 31  1  0  0  0  0
 33 35  1  0  0  0  0
 35 34  1  0  0  0  0
 37 36  1  0  0  0  0
M  END
>  <MODEL>
5

>  <REMARK>
 VINA RESULT:      -5.9      5.937      9.930
  Name = 
  7 active torsions:
  status: ('A' for Active; 'I' for Inactive)
    1  A    between atoms: C_7  and  C_14
    2  A    between atoms: C_7  and  C_15
    3  A    between atoms: C_8  and  C_15
    4  A    between atoms: C_11  and  C_26
    5  A    between atoms: N_17  and  C_23
    6  A    between atoms: N_17  and  C_26
    7  A    between atoms: C_26  and  C_33
                            x       y       z     vdW  Elec       q    Type
                         _______ _______ _______ _____ _____    ______ ____

>  <TORSDO>
F 7

$$$$
=
 OpenBabel10272414473D

 37 42  0  0  1  0  0  0  0  0999 V2000
  185.4840  178.6980  140.8740 C   0  0  0  0  0  3  0  0  0  0  0  0
  181.1500  178.3980  143.1950 C   0  0  0  0  0  2  0  0  0  0  0  0
  181.4500  177.5810  138.7980 C   0  0  1  0  0  3  0  0  0  0  0  0
  180.2960  178.7540  140.7870 C   0  0  2  0  0  3  0  0  0  0  0  0
  182.8650  176.9990  138.6670 C   0  0  1  0  0  3  0  0  0  0  0  0
  181.3580  177.7370  140.3460 C   0  0  2  0  0  3  0  0  0  0  0  0
  183.5270  176.4960  137.3510 C   0  0  2  0  0  0  0  0  0  0  0  0
  180.5620  180.3640  139.9970 S   0  0  0  0  0  0  0  0  0  0  0  0
  182.7810  178.0340  140.7570 C   0  0  0  0  0  0  0  0  0  0  0  0
  184.6320  179.0340  141.9380 C   0  0  0  0  0  3  0  0  0  0  0  0
  181.3520  178.8130  136.5810 C   0  0  0  0  0  1  0  0  0  0  0  0
  180.2110  179.6560  138.4680 O   0  0  0  0  0  0  0  0  0  0  0  0
  183.2650  178.7180  141.8900 C   0  0  0  0  0  0  0  0  0  0  0  0
  184.9630  178.4310  137.3500 C   0  0  0  0  0  2  0  0  0  0  0  0
  181.3680  178.9630  138.0910 C   0  0  1  0  0  3  0  0  0  0  0  0
  183.6460  177.6120  139.7710 C   0  0  0  0  0  0  0  0  0  0  0  0
  180.0150  178.8620  142.2900 C   0  0  0  0  0  2  0  0  0  0  0  0
  184.2180  177.4890  136.5920 O   0  0  0  0  0  0  0  0  0  0  0  0
  182.3870  179.2510  142.9790 C   0  0  0  0  0  2  0  0  0  0  0  0
  185.7900  177.8190  138.4900 C   0  0  2  0  0  3  0  0  0  0  0  0
  184.9920  177.9990  139.7570 C   0  0  0  0  0  0  0  0  0  0  0  0
  182.4300  175.9180  136.4690 C   0  0  0  0  0  1  0  0  0  0  0  0
  184.4650  175.3260  137.7030 C   0  0  0  0  0  2  0  0  0  0  0  0
  185.3200  174.8470  136.5290 C   0  0  0  0  0  2  0  0  0  0  0  0
  183.6380  171.4050  136.9120 C   0  0  0  0  0  2  0  0  0  0  0  0
  184.2350  172.7520  137.3470 C   0  0  0  0  0  2  0  0  0  0  0  0
  185.0980  173.3720  136.2430 C   0  0  0  0  0  3  0  0  0  0  0  0
  183.8450  171.7830  134.7060 C   0  0  0  0  0  2  0  0  0  0  0  0
  184.4780  173.1750  134.8550 C   0  0  0  0  0  2  0  0  0  0  0  0
  184.2530  170.9240  135.7420 O   0  0  0  0  0  0  0  0  0  0  0  0
  187.2210  178.3940  138.5420 C   0  0  2  0  0  3  0  0  0  0  0  0
  188.9560  179.5190  137.3450 C   0  0  0  0  0  1  0  0  0  0  0  0
  187.7530  178.7120  137.2020 N   0  0  0  0  0  0  0  0  0  0  0  0
  187.6960  177.6710  135.0040 C   0  0  0  0  0  1  0  0  0  0  0  0
  188.1000  177.5070  136.4560 C   0  0  0  0  0  2  0  0  0  0  0  0
  188.1850  177.5740  139.4310 C   0  0  0  0  0  2  0  0  0  0  0  0
  188.7140  178.3540  140.6260 C   0  0  0  0  0  1  0  0  0  0  0  0
  1 10  1  0  0  0  0
  3  6  1  0  0  0  0
  4 17  1  0  0  0  0
  5  3  1  0  0  0  0
  5 16  1  0  0  0  0
  6  9  1  0  0  0  0
  6  4  1  0  0  0  0
  7 23  1  0  0  0  0
  7  5  1  0  0  0  0
  8  4  1  0  0  0  0
  9 13  1  0  0  0  0
 11 15  1  0  0  0  0
 12  8  1  0  0  0  0
 13 10  2  0  0  0  0
 13 19  1  0  0  0  0
 14 20  1  0  0  0  0
 15 12  1  0  0  0  0
 15  3  1  0  0  0  0
 16  9  2  0  0  0  0
 17  2  1  0  0  0  0
 18 14  1  0  0  0  0
 18  7  1  0  0  0  0
 19  2  1  0  0  0  0
 20 31  1  0  0  0  0
 20 21  1  0  0  0  0
 21 16  1  0  0  0  0
 21  1  2  0  0  0  0
 22  7  1  0  0  0  0
 24 23  1  0  0  0  0
 25 26  1  0  0  0  0
 27 24  1  0  0  0  0
 27 26  1  0  0  0  0
 28 29  1  0  0  0  0
 28 30  1  0  0  0  0
 29 27  1  0  0  0  0
 30 25  1  0  0  0  0
 31 36  1  0  0  0  0
 33 32  1  0  0  0  0
 33 31  1  0  0  0  0
 34 35  1  0  0  0  0
 35 33  1  0  0  0  0
 36 37  1  0  0  0  0
M  END
>  <MODEL>
6

>  <REMARK>
 VINA RESULT:      -5.7      2.820      7.306
  Name = 
  7 active torsions:
  status: ('A' for Active; 'I' for Inactive)
    1  A    between atoms: C_7  and  C_14
    2  A    between atoms: C_7  and  C_15
    3  A    between atoms: C_8  and  C_15
    4  A    between atoms: C_11  and  C_26
    5  A    between atoms: N_17  and  C_23
    6  A    between atoms: N_17  and  C_26
    7  A    between atoms: C_26  and  C_33
                            x       y       z     vdW  Elec       q    Type
                         _______ _______ _______ _____ _____    ______ ____

>  <TORSDO>
F 7

$$$$
=
 OpenBabel10272414473D

 37 42  0  0  1  0  0  0  0  0999 V2000
  184.4140  175.2130  137.2850 C   0  0  0  0  0  3  0  0  0  0  0  0
  187.8390  171.6910  136.9310 C   0  0  0  0  0  2  0  0  0  0  0  0
  189.0080  176.0180  137.0030 C   0  0  1  0  0  3  0  0  0  0  0  0
  189.1850  173.6650  135.9570 C   0  0  2  0  0  3  0  0  0  0  0  0
  187.9100  176.6410  137.8780 C   0  0  1  0  0  3  0  0  0  0  0  0
  188.6210  174.5110  137.1060 C   0  0  2  0  0  3  0  0  0  0  0  0
  187.8090  178.1400  138.2850 C   0  0  2  0  0  0  0  0  0  0  0  0
  188.7000  174.3390  134.3460 S   0  0  0  0  0  0  0  0  0  0  0  0
  187.1170  174.5410  137.2410 C   0  0  0  0  0  0  0  0  0  0  0  0
  184.8070  173.9090  136.9460 C   0  0  0  0  0  3  0  0  0  0  0  0
  189.3570  177.9630  135.4110 C   0  0  0  0  0  1  0  0  0  0  0  0
  189.6450  175.7420  134.6640 O   0  0  0  0  0  0  0  0  0  0  0  0
  186.1650  173.5560  136.9080 C   0  0  0  0  0  0  0  0  0  0  0  0
  185.9390  178.4060  136.7880 C   0  0  0  0  0  2  0  0  0  0  0  0
  188.8840  176.5270  135.5390 C   0  0  1  0  0  3  0  0  0  0  0  0
  186.7140  175.7840  137.6790 C   0  0  0  0  0  0  0  0  0  0  0  0
  188.9980  172.1460  136.0520 C   0  0  0  0  0  2  0  0  0  0  0  0
  187.1010  178.9790  137.3700 O   0  0  0  0  0  0  0  0  0  0  0  0
  186.5200  172.2010  136.3790 C   0  0  0  0  0  2  0  0  0  0  0  0
  185.0400  177.6460  137.7740 C   0  0  2  0  0  3  0  0  0  0  0  0
  185.3720  176.1810  137.6340 C   0  0  0  0  0  0  0  0  0  0  0  0
  189.2230  178.6850  138.4140 C   0  0  0  0  0  1  0  0  0  0  0  0
  187.1830  178.2140  139.6910 C   0  0  0  0  0  2  0  0  0  0  0  0
  188.2110  178.3230  140.8170 C   0  0  0  0  0  2  0  0  0  0  0  0
  188.1430  177.6080  144.6000 C   0  0  0  0  0  2  0  0  0  0  0  0
  188.7490  177.8410  143.2070 C   0  0  0  0  0  2  0  0  0  0  0  0
  187.7010  177.6920  142.1010 C   0  0  0  0  0  3  0  0  0  0  0  0
  186.0220  178.0210  143.9800 C   0  0  0  0  0  2  0  0  0  0  0  0
  186.3520  178.2980  142.5050 C   0  0  0  0  0  2  0  0  0  0  0  0
  186.8640  177.0280  144.5130 O   0  0  0  0  0  0  0  0  0  0  0  0
  183.5480  177.9900  137.5820 C   0  0  2  0  0  3  0  0  0  0  0  0
  182.4620  179.4550  139.1260 C   0  0  0  0  0  1  0  0  0  0  0  0
  182.8160  178.0680  138.8620 N   0  0  0  0  0  0  0  0  0  0  0  0
  181.7250  176.0810  139.7460 C   0  0  0  0  0  1  0  0  0  0  0  0
  181.5860  177.2830  138.8330 C   0  0  0  0  0  2  0  0  0  0  0  0
  182.8500  177.1340  136.5010 C   0  0  0  0  0  2  0  0  0  0  0  0
  182.8850  177.7650  135.1160 C   0  0  0  0  0  1  0  0  0  0  0  0
  1 21  1  0  0  0  0
  3  6  1  0  0  0  0
  3  5  1  0  0  0  0
  4 17  1  0  0  0  0
  4  6  1  0  0  0  0
  5  7  1  0  0  0  0
  6  9  1  0  0  0  0
  7 22  1  0  0  0  0
  7 23  1  0  0  0  0
  8 12  1  0  0  0  0
  8  4  1  0  0  0  0
  9 16  1  0  0  0  0
 10  1  2  0  0  0  0
 11 15  1  0  0  0  0
 12 15  1  0  0  0  0
 13 10  1  0  0  0  0
 13  9  2  0  0  0  0
 14 18  1  0  0  0  0
 14 20  1  0  0  0  0
 15  3  1  0  0  0  0
 16  5  1  0  0  0  0
 17  2  1  0  0  0  0
 18  7  1  0  0  0  0
 19 13  1  0  0  0  0
 19  2  1  0  0  0  0
 21 16  2  0  0  0  0
 21 20  1  0  0  0  0
 23 24  1  0  0  0  0
 24 27  1  0  0  0  0
 26 25  1  0  0  0  0
 27 29  1  0  0  0  0
 27 26  1  0  0  0  0
 28 30  1  0  0  0  0
 29 28  1  0  0  0  0
 30 25  1  0  0  0  0
 31 20  1  0  0  0  0
 31 33  1  0  0  0  0
 33 32  1  0  0  0  0
 35 33  1  0  0  0  0
 35 34  1  0  0  0  0
 36 31  1  0  0  0  0
 37 36  1  0  0  0  0
M  END
>  <MODEL>
7

>  <REMARK>
 VINA RESULT:      -5.5      2.991      6.611
  Name = 
  7 active torsions:
  status: ('A' for Active; 'I' for Inactive)
    1  A    between atoms: C_7  and  C_14
    2  A    between atoms: C_7  and  C_15
    3  A    between atoms: C_8  and  C_15
    4  A    between atoms: C_11  and  C_26
    5  A    between atoms: N_17  and  C_23
    6  A    between atoms: N_17  and  C_26
    7  A    between atoms: C_26  and  C_33
                            x       y       z     vdW  Elec       q    Type
                         _______ _______ _______ _____ _____    ______ ____

>  <TORSDO>
F 7

$$$$
=
 OpenBabel10272414473D

 37 42  0  0  1  0  0  0  0  0999 V2000
  186.5470  172.8330  136.5740 C   0  0  0  0  0  3  0  0  0  0  0  0
  191.1480  174.3390  137.4840 C   0  0  0  0  0  2  0  0  0  0  0  0
  187.9290  177.2960  136.4890 C   0  0  1  0  0  3  0  0  0  0  0  0
  190.3140  176.3740  136.1350 C   0  0  2  0  0  3  0  0  0  0  0  0
  186.6740  176.6230  137.0630 C   0  0  1  0  0  3  0  0  0  0  0  0
  189.0230  176.2900  136.9600 C   0  0  2  0  0  3  0  0  0  0  0  0
  185.2320  177.2090  137.0410 C   0  0  2  0  0  0  0  0  0  0  0  0
  189.9780  176.1690  134.3670 S   0  0  0  0  0  0  0  0  0  0  0  0
  188.3070  174.9590  136.9500 C   0  0  0  0  0  0  0  0  0  0  0  0
  187.9290  172.5980  136.6350 C   0  0  0  0  0  3  0  0  0  0  0  0
  186.8610  178.3990  134.4680 C   0  0  0  0  0  1  0  0  0  0  0  0
  189.0980  177.6480  134.3760 O   0  0  0  0  0  0  0  0  0  0  0  0
  188.8310  173.6580  136.8130 C   0  0  0  0  0  0  0  0  0  0  0  0
  184.6140  175.5860  135.3700 C   0  0  0  0  0  2  0  0  0  0  0  0
  187.8500  177.3470  134.9370 C   0  0  1  0  0  3  0  0  0  0  0  0
  186.9460  175.1640  137.0000 C   0  0  0  0  0  0  0  0  0  0  0  0
  191.5070  175.5420  136.6200 C   0  0  0  0  0  2  0  0  0  0  0  0
  184.4640  176.9050  135.8760 O   0  0  0  0  0  0  0  0  0  0  0  0
  190.2940  173.3570  136.7020 C   0  0  0  0  0  2  0  0  0  0  0  0
  184.5980  174.4870  136.4420 C   0  0  2  0  0  3  0  0  0  0  0  0
  186.0360  174.1340  136.7320 C   0  0  0  0  0  0  0  0  0  0  0  0
  185.3430  178.7220  137.1420 C   0  0  0  0  0  1  0  0  0  0  0  0
  184.5040  176.7390  138.3140 C   0  0  0  0  0  2  0  0  0  0  0  0
  183.6590  177.8280  138.9770 C   0  0  0  0  0  2  0  0  0  0  0  0
  185.1210  179.1650  142.2790 C   0  0  0  0  0  2  0  0  0  0  0  0
  185.0950  178.7490  140.8000 C   0  0  0  0  0  2  0  0  0  0  0  0
  183.8830  177.8700  140.4790 C   0  0  0  0  0  3  0  0  0  0  0  0
  182.9280  178.8220  142.6330 C   0  0  0  0  0  2  0  0  0  0  0  0
  182.6200  178.3530  141.2020 C   0  0  0  0  0  2  0  0  0  0  0  0
  184.2090  178.4100  143.0400 O   0  0  0  0  0  0  0  0  0  0  0  0
  183.7100  173.2920  136.0350 C   0  0  2  0  0  3  0  0  0  0  0  0
  182.1360  172.6740  134.3480 C   0  0  0  0  0  1  0  0  0  0  0  0
  182.4990  173.7110  135.3020 N   0  0  0  0  0  0  0  0  0  0  0  0
  180.1030  173.3760  135.5610 C   0  0  0  0  0  1  0  0  0  0  0  0
  181.3670  173.9190  136.1990 C   0  0  0  0  0  2  0  0  0  0  0  0
  183.4440  172.2980  137.1890 C   0  0  0  0  0  2  0  0  0  0  0  0
  183.4460  170.8420  136.7430 C   0  0  0  0  0  1  0  0  0  0  0  0
  1 10  2  0  0  0  0
  1 21  1  0  0  0  0
  3  6  1  0  0  0  0
  3  5  1  0  0  0  0
  4 17  1  0  0  0  0
  4  6  1  0  0  0  0
  7  5  1  0  0  0  0
  7 22  1  0  0  0  0
  7 23  1  0  0  0  0
  8 12  1  0  0  0  0
  8  4  1  0  0  0  0
  9  6  1  0  0  0  0
  9 16  1  0  0  0  0
 10 13  1  0  0  0  0
 11 15  1  0  0  0  0
 12 15  1  0  0  0  0
 13  9  2  0  0  0  0
 14 18  1  0  0  0  0
 14 20  1  0  0  0  0
 15  3  1  0  0  0  0
 16  5  1  0  0  0  0
 17  2  1  0  0  0  0
 18  7  1  0  0  0  0
 19 13  1  0  0  0  0
 19  2  1  0  0  0  0
 20 21  1  0  0  0  0
 21 16  2  0  0  0  0
 23 24  1  0  0  0  0
 24 27  1  0  0  0  0
 25 30  1  0  0  0  0
 26 25  1  0  0  0  0
 27 26  1  0  0  0  0
 27 29  1  0  0  0  0
 28 30  1  0  0  0  0
 29 28  1  0  0  0  0
 31 20  1  0  0  0  0
 31 36  1  0  0  0  0
 32 33  1  0  0  0  0
 33 31  1  0  0  0  0
 33 35  1  0  0  0  0
 34 35  1  0  0  0  0
 37 36  1  0  0  0  0
M  END
>  <MODEL>
8

>  <REMARK>
 VINA RESULT:      -5.4      3.497      6.326
  Name = 
  7 active torsions:
  status: ('A' for Active; 'I' for Inactive)
    1  A    between atoms: C_7  and  C_14
    2  A    between atoms: C_7  and  C_15
    3  A    between atoms: C_8  and  C_15
    4  A    between atoms: C_11  and  C_26
    5  A    between atoms: N_17  and  C_23
    6  A    between atoms: N_17  and  C_26
    7  A    between atoms: C_26  and  C_33
                            x       y       z     vdW  Elec       q    Type
                         _______ _______ _______ _____ _____    ______ ____

>  <TORSDO>
F 7

$$$$
=
 OpenBabel10272414473D

 37 42  0  0  1  0  0  0  0  0999 V2000
  186.0560  178.0600  138.4770 C   0  0  0  0  0  3  0  0  0  0  0  0
  181.7910  178.4450  140.9100 C   0  0  0  0  0  2  0  0  0  0  0  0
  181.9120  176.7420  136.7650 C   0  0  1  0  0  3  0  0  0  0  0  0
  180.8750  178.3480  138.5000 C   0  0  2  0  0  3  0  0  0  0  0  0
  183.2970  176.0790  136.7220 C   0  0  1  0  0  3  0  0  0  0  0  0
  181.8780  177.2120  138.2510 C   0  0  2  0  0  3  0  0  0  0  0  0
  183.8940  175.2880  135.5210 C   0  0  2  0  0  0  0  0  0  0  0  0
  181.1830  179.7490  137.3940 S   0  0  0  0  0  0  0  0  0  0  0  0
  183.3250  177.5170  138.5590 C   0  0  0  0  0  0  0  0  0  0  0  0
  185.2540  178.6450  139.4690 C   0  0  0  0  0  3  0  0  0  0  0  0
  181.7960  177.5040  134.3470 C   0  0  0  0  0  1  0  0  0  0  0  0
  180.7530  178.7660  136.0490 O   0  0  0  0  0  0  0  0  0  0  0  0
  183.8740  178.3910  139.5190 C   0  0  0  0  0  0  0  0  0  0  0  0
  185.4100  177.1120  135.0930 C   0  0  0  0  0  2  0  0  0  0  0  0
  181.8670  177.9560  135.7940 C   0  0  1  0  0  3  0  0  0  0  0  0
  184.1390  176.8630  137.6610 C   0  0  0  0  0  0  0  0  0  0  0  0
  180.6480  178.7700  139.9560 C   0  0  0  0  0  2  0  0  0  0  0  0
  184.6010  176.0730  134.5600 O   0  0  0  0  0  0  0  0  0  0  0  0
  183.0550  179.1760  140.4960 C   0  0  0  0  0  2  0  0  0  0  0  0
  186.2470  176.7040  136.3150 C   0  0  2  0  0  3  0  0  0  0  0  0
  185.4990  177.1740  137.5370 C   0  0  0  0  0  0  0  0  0  0  0  0
  182.7460  174.5980  134.8010 C   0  0  0  0  0  1  0  0  0  0  0  0
  184.7920  174.1700  136.0820 C   0  0  0  0  0  2  0  0  0  0  0  0
  184.1210  173.3250  137.1650 C   0  0  0  0  0  2  0  0  0  0  0  0
  182.8170  170.0260  135.6700 C   0  0  0  0  0  2  0  0  0  0  0  0
  182.7640  171.3690  136.4130 C   0  0  0  0  0  2  0  0  0  0  0  0
  184.1600  171.8460  136.8230 C   0  0  0  0  0  3  0  0  0  0  0  0
  184.9740  170.2060  135.0610 C   0  0  0  0  0  2  0  0  0  0  0  0
  185.2020  171.5690  135.7330 C   0  0  0  0  0  2  0  0  0  0  0  0
  184.0780  169.4150  135.8030 O   0  0  0  0  0  0  0  0  0  0  0  0
  187.7020  177.2070  136.2150 C   0  0  2  0  0  3  0  0  0  0  0  0
  189.2550  177.6680  134.4590 C   0  0  0  0  0  1  0  0  0  0  0  0
  188.4210  176.6370  135.0590 N   0  0  0  0  0  0  0  0  0  0  0  0
  188.6030  174.2110  135.1240 C   0  0  0  0  0  1  0  0  0  0  0  0
  189.2830  175.5270  135.4500 C   0  0  0  0  0  2  0  0  0  0  0  0
  188.4770  177.1250  137.5510 C   0  0  0  0  0  2  0  0  0  0  0  0
  189.3230  178.3590  137.8340 C   0  0  0  0  0  1  0  0  0  0  0  0
  1 10  1  0  0  0  0
  3  6  1  0  0  0  0
  4 17  1  0  0  0  0
  5  3  1  0  0  0  0
  5 16  1  0  0  0  0
  6  4  1  0  0  0  0
  6  9  1  0  0  0  0
  7 23  1  0  0  0  0
  7  5  1  0  0  0  0
  8  4  1  0  0  0  0
  9 13  1  0  0  0  0
 10 13  2  0  0  0  0
 11 15  1  0  0  0  0
 12  8  1  0  0  0  0
 13 19  1  0  0  0  0
 14 20  1  0  0  0  0
 15 12  1  0  0  0  0
 15  3  1  0  0  0  0
 16  9  2  0  0  0  0
 17  2  1  0  0  0  0
 18 14  1  0  0  0  0
 18  7  1  0  0  0  0
 19  2  1  0  0  0  0
 20 21  1  0  0  0  0
 21 16  1  0  0  0  0
 21  1  2  0  0  0  0
 22  7  1  0  0  0  0
 23 24  1  0  0  0  0
 25 30  1  0  0  0  0
 25 26  1  0  0  0  0
 26 27  1  0  0  0  0
 27 24  1  0  0  0  0
 28 29  1  0  0  0  0
 28 30  1  0  0  0  0
 29 27  1  0  0  0  0
 31 20  1  0  0  0  0
 31 36  1  0  0  0  0
 32 33  1  0  0  0  0
 33 35  1  0  0  0  0
 33 31  1  0  0  0  0
 34 35  1  0  0  0  0
 36 37  1  0  0  0  0
M  END
>  <MODEL>
9

>  <REMARK>
 VINA RESULT:      -5.3      3.270      7.930
  Name = 
  7 active torsions:
  status: ('A' for Active; 'I' for Inactive)
    1  A    between atoms: C_7  and  C_14
    2  A    between atoms: C_7  and  C_15
    3  A    between atoms: C_8  and  C_15
    4  A    between atoms: C_11  and  C_26
    5  A    between atoms: N_17  and  C_23
    6  A    between atoms: N_17  and  C_26
    7  A    between atoms: C_26  and  C_33
                            x       y       z     vdW  Elec       q    Type
                         _______ _______ _______ _____ _____    ______ ____

>  <TORSDO>
F 7

$$$$
