=
 OpenBabel10272401543D

 28 31  0  0  1  0  0  0  0  0999 V2000
  187.2150  178.5400  140.4910 C   0  0  1  0  0  3  0  0  0  0  0  0
  184.3520  179.3020  144.4990 C   0  0  0  0  0  1  0  0  0  0  0  0
  187.6340  177.2660  144.1120 C   0  0  2  0  0  3  0  0  0  0  0  0
  186.0250  177.3180  146.0310 C   0  0  0  0  0  1  0  0  0  0  0  0
  185.7880  178.8850  142.5020 C   0  0  2  0  0  3  0  0  0  0  0  0
  188.0440  177.8900  142.7820 C   0  0  0  0  0  2  0  0  0  0  0  0
  184.8580  179.0530  140.1740 C   0  0  0  0  0  3  0  0  0  0  0  0
  185.3230  178.3240  143.8510 C   0  0  1  0  0  3  0  0  0  0  0  0
  184.6580  179.0440  141.5910 N   0  0  0  0  0  2  0  0  0  0  0  0
  186.5110  178.0690  144.7970 C   0  0  2  0  0  3  0  0  0  0  0  0
  186.0280  178.8010  139.6680 N   0  0  0  0  0  0  0  0  0  0  0  0
  186.8330  177.9710  141.8650 C   0  0  2  0  0  3  0  0  0  0  0  0
  188.0720  177.7640  138.2250 C   0  0  0  0  0  2  0  0  0  0  0  0
  188.1960  177.6310  139.7500 C   0  0  1  0  0  3  0  0  0  0  0  0
  188.9570  176.7360  137.5150 C   0  0  0  0  0  0  0  0  0  0  0  0
  190.6130  177.5350  139.2460 C   0  0  0  0  0  2  0  0  0  0  0  0
  190.2040  176.3790  138.3320 C   0  0  0  0  0  2  0  0  0  0  0  0
  189.5690  177.8630  140.2320 N   0  0  0  0  0  2  0  0  0  0  0  0
  188.1550  175.4730  137.2730 C   0  0  0  0  0  1  0  0  0  0  0  0
  189.3820  177.3030  136.1760 C   0  0  0  0  0  1  0  0  0  0  0  0
  188.8400  177.6270  146.2960 C   0  0  0  0  0  3  0  0  0  0  0  0
  189.9940  176.4520  144.5130 C   0  0  0  0  0  0  0  0  0  0  0  0
  191.1000  176.8370  146.6360 C   0  0  0  0  0  0  0  0  0  0  0  0
  188.8430  177.1060  144.9930 C   0  0  0  0  0  0  0  0  0  0  0  0
  191.1150  176.3190  145.3390 C   0  0  0  0  0  3  0  0  0  0  0  0
  190.0640  175.7890  142.8870 Cl  0  0  0  0  0  0  0  0  0  0  0  0
  192.1900  176.7050  147.4300 F   0  0  0  0  0  0  0  0  0  0  0  0
  189.9640  177.4910  147.1140 C   0  0  0  0  0  3  0  0  0  0  0  0
  1 11  1  6  0  0  0
  1 12  1  0  0  0  0
  3 10  1  0  0  0  0
  3 24  1  1  0  0  0
  5  9  1  6  0  0  0
  5  8  1  0  0  0  0
  6  3  1  0  0  0  0
  7  9  1  0  0  0  0
  8  2  1  1  0  0  0
  8 10  1  0  0  0  0
 10  4  1  1  0  0  0
 11  7  2  0  0  0  0
 12  5  1  0  0  0  0
 12  6  1  1  0  0  0
 14 13  1  6  0  0  0
 14 18  1  0  0  0  0
 14  1  1  0  0  0  0
 15 13  1  0  0  0  0
 15 17  1  0  0  0  0
 16 18  1  0  0  0  0
 17 16  1  0  0  0  0
 19 15  1  0  0  0  0
 20 15  1  0  0  0  0
 21 28  1  0  0  0  0
 22 24  1  0  0  0  0
 22 25  2  0  0  0  0
 23 28  2  0  0  0  0
 23 27  1  0  0  0  0
 24 21  2  0  0  0  0
 25 23  1  0  0  0  0
 26 22  1  0  0  0  0
M  END
>  <MODEL>
1

>  <REMARK>
 VINA RESULT:     -10.0      0.000      0.000
  Name = 
  2 active torsions:
  status: ('A' for Active; 'I' for Inactive)
    1  A    between atoms: C_1  and  C_3
    2  A    between atoms: C_10  and  C_13
                            x       y       z     vdW  Elec       q    Type
                         _______ _______ _______ _____ _____    ______ ____

>  <TORSDO>
F 2

$$$$
=
 OpenBabel10272401543D

 28 31  0  0  1  0  0  0  0  0999 V2000
  184.4140  179.1020  142.7710 C   0  0  1  0  0  3  0  0  0  0  0  0
  186.5040  178.5670  147.2630 C   0  0  0  0  0  1  0  0  0  0  0  0
  187.7410  177.4150  143.7690 C   0  0  2  0  0  3  0  0  0  0  0  0
  188.6180  176.8050  146.0350 C   0  0  0  0  0  1  0  0  0  0  0  0
  185.4660  178.8000  145.0080 C   0  0  2  0  0  3  0  0  0  0  0  0
  186.8000  178.3130  142.9720 C   0  0  0  0  0  2  0  0  0  0  0  0
  182.9860  179.1070  144.7420 C   0  0  0  0  0  3  0  0  0  0  0  0
  186.3980  177.9470  145.8760 C   0  0  1  0  0  3  0  0  0  0  0  0
  184.1200  178.8360  145.5720 N   0  0  0  0  0  2  0  0  0  0  0  0
  187.8010  177.8270  145.2530 C   0  0  2  0  0  3  0  0  0  0  0  0
  183.1180  179.2090  143.4530 N   0  0  0  0  0  0  0  0  0  0  0  0
  185.4070  178.2570  143.5810 C   0  0  2  0  0  3  0  0  0  0  0  0
  182.7540  178.3430  140.9990 C   0  0  0  0  0  2  0  0  0  0  0  0
  184.2320  178.5650  141.3510 C   0  0  1  0  0  3  0  0  0  0  0  0
  182.6150  177.6660  139.6320 C   0  0  0  0  0  0  0  0  0  0  0  0
  184.3540  179.3960  139.0280 C   0  0  0  0  0  2  0  0  0  0  0  0
  183.7670  178.0250  138.6860 C   0  0  0  0  0  2  0  0  0  0  0  0
  184.9240  179.4360  140.3850 N   0  0  0  0  0  2  0  0  0  0  0  0
  182.5920  176.1630  139.8230 C   0  0  0  0  0  1  0  0  0  0  0  0
  181.3030  178.0950  139.0080 C   0  0  0  0  0  1  0  0  0  0  0  0
  190.2570  177.3710  143.9160 C   0  0  0  0  0  3  0  0  0  0  0  0
  189.2230  177.4390  141.7210 C   0  0  0  0  0  0  0  0  0  0  0  0
  191.6380  177.4000  141.9310 C   0  0  0  0  0  0  0  0  0  0  0  0
  189.0990  177.4020  143.1230 C   0  0  0  0  0  0  0  0  0  0  0  0
  190.4930  177.4360  141.1330 C   0  0  0  0  0  3  0  0  0  0  0  0
  187.8120  177.4900  140.6750 Cl  0  0  0  0  0  0  0  0  0  0  0  0
  192.8640  177.3980  141.3550 F   0  0  0  0  0  0  0  0  0  0  0  0
  191.5210  177.3690  143.3210 C   0  0  0  0  0  3  0  0  0  0  0  0
  1 11  1  1  0  0  0
  1 12  1  0  0  0  0
  3 24  1  6  0  0  0
  3 10  1  0  0  0  0
  5  9  1  1  0  0  0
  5  8  1  0  0  0  0
  6  3  1  0  0  0  0
  7  9  1  0  0  0  0
  8  2  1  1  0  0  0
 10  8  1  0  0  0  0
 10  4  1  1  0  0  0
 11  7  2  0  0  0  0
 12  6  1  6  0  0  0
 12  5  1  0  0  0  0
 14 13  1  6  0  0  0
 14  1  1  0  0  0  0
 15 19  1  0  0  0  0
 15 13  1  0  0  0  0
 16 18  1  0  0  0  0
 17 16  1  0  0  0  0
 17 15  1  0  0  0  0
 18 14  1  0  0  0  0
 20 15  1  0  0  0  0
 22 24  1  0  0  0  0
 23 28  2  0  0  0  0
 24 21  2  0  0  0  0
 25 22  2  0  0  0  0
 25 23  1  0  0  0  0
 26 22  1  0  0  0  0
 27 23  1  0  0  0  0
 28 21  1  0  0  0  0
M  END
>  <MODEL>
2

>  <REMARK>
 VINA RESULT:      -9.8      2.732      4.518
  Name = 
  2 active torsions:
  status: ('A' for Active; 'I' for Inactive)
    1  A    between atoms: C_1  and  C_3
    2  A    between atoms: C_10  and  C_13
                            x       y       z     vdW  Elec       q    Type
                         _______ _______ _______ _____ _____    ______ ____

>  <TORSDO>
F 2

$$$$
=
 OpenBabel10272401543D

 28 31  0  0  1  0  0  0  0  0999 V2000
  189.6740  178.0240  139.7640 C   0  0  1  0  0  3  0  0  0  0  0  0
  185.5480  178.9340  142.4070 C   0  0  0  0  0  1  0  0  0  0  0  0
  188.7900  177.0380  143.3910 C   0  0  2  0  0  3  0  0  0  0  0  0
  186.5980  177.1520  144.5980 C   0  0  0  0  0  1  0  0  0  0  0  0
  187.6130  178.4440  141.0960 C   0  0  2  0  0  3  0  0  0  0  0  0
  189.6370  177.5840  142.2460 C   0  0  0  0  0  2  0  0  0  0  0  0
  187.5790  178.3960  138.5840 C   0  0  0  0  0  3  0  0  0  0  0  0
  186.7060  177.9600  142.2340 C   0  0  1  0  0  3  0  0  0  0  0  0
  186.8830  178.4800  139.8320 N   0  0  0  0  0  2  0  0  0  0  0  0
  187.4800  177.8340  143.5590 C   0  0  2  0  0  3  0  0  0  0  0  0
  188.8570  178.1660  138.5520 N   0  0  0  0  0  0  0  0  0  0  0  0
  188.8350  177.5380  140.9540 C   0  0  2  0  0  3  0  0  0  0  0  0
  191.1400  176.9210  138.0010 C   0  0  0  0  0  2  0  0  0  0  0  0
  190.8740  177.1120  139.5010 C   0  0  1  0  0  3  0  0  0  0  0  0
  192.2470  175.8880  137.7720 C   0  0  0  0  0  0  0  0  0  0  0  0
  193.3390  177.2150  139.6220 C   0  0  0  0  0  2  0  0  0  0  0  0
  193.2610  175.8590  138.9210 C   0  0  0  0  0  2  0  0  0  0  0  0
  192.0560  177.6030  140.2320 N   0  0  0  0  0  2  0  0  0  0  0  0
  191.6240  174.5130  137.6370 C   0  0  0  0  0  1  0  0  0  0  0  0
  192.9650  176.2240  136.4810 C   0  0  0  0  0  1  0  0  0  0  0  0
  189.0920  177.5550  145.8400 C   0  0  0  0  0  3  0  0  0  0  0  0
  190.8930  176.4350  144.6570 C   0  0  0  0  0  0  0  0  0  0  0  0
  191.1240  176.9650  147.0120 C   0  0  0  0  0  0  0  0  0  0  0  0
  189.6040  177.0030  144.6550 C   0  0  0  0  0  0  0  0  0  0  0  0
  191.6440  176.4180  145.8370 C   0  0  0  0  0  3  0  0  0  0  0  0
  191.5940  175.7390  143.2040 Cl  0  0  0  0  0  0  0  0  0  0  0  0
  191.8570  176.9440  148.1500 F   0  0  0  0  0  0  0  0  0  0  0  0
  189.8500  177.5340  147.0140 C   0  0  0  0  0  3  0  0  0  0  0  0
  1 11  1  6  0  0  0
  1 12  1  0  0  0  0
  3 10  1  0  0  0  0
  3 24  1  1  0  0  0
  5  9  1  6  0  0  0
  5  8  1  0  0  0  0
  6  3  1  0  0  0  0
  7  9  1  0  0  0  0
  8  2  1  1  0  0  0
  8 10  1  0  0  0  0
 10  4  1  1  0  0  0
 11  7  2  0  0  0  0
 12  5  1  0  0  0  0
 12  6  1  1  0  0  0
 14 13  1  6  0  0  0
 14  1  1  0  0  0  0
 14 18  1  0  0  0  0
 15 13  1  0  0  0  0
 15 17  1  0  0  0  0
 16 18  1  0  0  0  0
 17 16  1  0  0  0  0
 19 15  1  0  0  0  0
 20 15  1  0  0  0  0
 21 28  1  0  0  0  0
 22 25  2  0  0  0  0
 23 28  2  0  0  0  0
 23 27  1  0  0  0  0
 24 22  1  0  0  0  0
 24 21  2  0  0  0  0
 25 23  1  0  0  0  0
 26 22  1  0  0  0  0
M  END
>  <MODEL>
3

>  <REMARK>
 VINA RESULT:      -9.2      1.553      2.331
  Name = 
  2 active torsions:
  status: ('A' for Active; 'I' for Inactive)
    1  A    between atoms: C_1  and  C_3
    2  A    between atoms: C_10  and  C_13
                            x       y       z     vdW  Elec       q    Type
                         _______ _______ _______ _____ _____    ______ ____

>  <TORSDO>
F 2

$$$$
=
 OpenBabel10272401543D

 28 31  0  0  1  0  0  0  0  0999 V2000
  185.7950  177.9220  144.2260 C   0  0  1  0  0  3  0  0  0  0  0  0
  180.9060  178.8850  144.2390 C   0  0  0  0  0  1  0  0  0  0  0  0
  183.3750  178.4850  141.2710 C   0  0  2  0  0  3  0  0  0  0  0  0
  181.0200  179.3380  141.2620 C   0  0  0  0  0  1  0  0  0  0  0  0
  183.3570  178.4290  144.2070 C   0  0  2  0  0  3  0  0  0  0  0  0
  184.4760  177.8080  142.0810 C   0  0  0  0  0  2  0  0  0  0  0  0
  184.8110  178.9860  146.1800 C   0  0  0  0  0  3  0  0  0  0  0  0
  182.1960  179.0890  143.4550 C   0  0  1  0  0  3  0  0  0  0  0  0
  183.5430  179.0450  145.5180 N   0  0  0  0  0  2  0  0  0  0  0  0
  182.0370  178.5100  142.0370 C   0  0  2  0  0  3  0  0  0  0  0  0
  185.8500  178.4890  145.5790 N   0  0  0  0  0  0  0  0  0  0  0  0
  184.6530  178.5360  143.4040 C   0  0  2  0  0  3  0  0  0  0  0  0
  188.0650  176.8650  143.7760 C   0  0  0  0  0  2  0  0  0  0  0  0
  187.1460  178.0690  143.5250 C   0  0  1  0  0  3  0  0  0  0  0  0
  189.4580  177.1110  143.1890 C   0  0  0  0  0  0  0  0  0  0  0  0
  188.0730  177.9220  141.2390 C   0  0  0  0  0  2  0  0  0  0  0  0
  189.4180  178.0260  141.9600 C   0  0  0  0  0  2  0  0  0  0  0  0
  186.9490  178.3460  142.0910 N   0  0  0  0  0  2  0  0  0  0  0  0
  190.3360  177.7530  144.2450 C   0  0  0  0  0  1  0  0  0  0  0  0
  190.0640  175.7780  142.8000 C   0  0  0  0  0  1  0  0  0  0  0  0
  182.9220  176.4600  139.8390 C   0  0  0  0  0  3  0  0  0  0  0  0
  183.4830  178.5540  138.7460 C   0  0  0  0  0  0  0  0  0  0  0  0
  183.0420  176.5680  137.4260 C   0  0  0  0  0  0  0  0  0  0  0  0
  183.2510  177.8220  139.9260 C   0  0  0  0  0  0  0  0  0  0  0  0
  183.3750  177.9220  137.5020 C   0  0  0  0  0  3  0  0  0  0  0  0
  183.9100  180.2580  138.7890 Cl  0  0  0  0  0  0  0  0  0  0  0  0
  182.9400  175.9630  136.2190 F   0  0  0  0  0  0  0  0  0  0  0  0
  182.8170  175.8370  138.5930 C   0  0  0  0  0  3  0  0  0  0  0  0
  1 11  1  1  0  0  0
  3 24  1  6  0  0  0
  3 10  1  0  0  0  0
  3  6  1  0  0  0  0
  5  9  1  1  0  0  0
  8  5  1  0  0  0  0
  8  2  1  1  0  0  0
  9  7  1  0  0  0  0
 10  4  1  6  0  0  0
 10  8  1  0  0  0  0
 11  7  2  0  0  0  0
 12  6  1  6  0  0  0
 12  5  1  0  0  0  0
 12  1  1  0  0  0  0
 14 13  1  6  0  0  0
 14  1  1  0  0  0  0
 15 13  1  0  0  0  0
 15 19  1  0  0  0  0
 16 17  1  0  0  0  0
 16 18  1  0  0  0  0
 17 15  1  0  0  0  0
 18 14  1  0  0  0  0
 20 15  1  0  0  0  0
 21 24  1  0  0  0  0
 22 26  1  0  0  0  0
 22 24  2  0  0  0  0
 23 25  2  0  0  0  0
 23 28  1  0  0  0  0
 25 22  1  0  0  0  0
 27 23  1  0  0  0  0
 28 21  2  0  0  0  0
M  END
>  <MODEL>
4

>  <REMARK>
 VINA RESULT:      -8.9      4.064      7.043
  Name = 
  2 active torsions:
  status: ('A' for Active; 'I' for Inactive)
    1  A    between atoms: C_1  and  C_3
    2  A    between atoms: C_10  and  C_13
                            x       y       z     vdW  Elec       q    Type
                         _______ _______ _______ _____ _____    ______ ____

>  <TORSDO>
F 2

$$$$
=
 OpenBabel10272401543D

 28 31  0  0  1  0  0  0  0  0999 V2000
  189.7100  176.7140  143.6040 C   0  0  1  0  0  3  0  0  0  0  0  0
  188.0270  177.3580  148.2500 C   0  0  0  0  0  1  0  0  0  0  0  0
  186.5980  178.6190  144.8680 C   0  0  2  0  0  3  0  0  0  0  0  0
  185.9500  179.2710  147.1980 C   0  0  0  0  0  1  0  0  0  0  0  0
  188.8630  177.0710  145.9180 C   0  0  2  0  0  3  0  0  0  0  0  0
  187.4090  177.6640  143.9960 C   0  0  0  0  0  2  0  0  0  0  0  0
  191.2860  176.5950  145.4540 C   0  0  0  0  0  3  0  0  0  0  0  0
  188.0650  177.9800  146.8600 C   0  0  1  0  0  3  0  0  0  0  0  0
  190.2440  176.9380  146.3730 N   0  0  0  0  0  2  0  0  0  0  0  0
  186.6280  178.2010  146.3520 C   0  0  2  0  0  3  0  0  0  0  0  0
  191.0460  176.5120  144.1800 N   0  0  0  0  0  0  0  0  0  0  0  0
  188.8450  177.6200  144.4920 C   0  0  2  0  0  3  0  0  0  0  0  0
  190.6140  176.3070  141.2610 C   0  0  0  0  0  2  0  0  0  0  0  0
  189.8150  177.2480  142.1750 C   0  0  1  0  0  3  0  0  0  0  0  0
  190.8290  176.9390  139.8830 C   0  0  0  0  0  0  0  0  0  0  0  0
  188.3810  177.4860  140.1770 C   0  0  0  0  0  2  0  0  0  0  0  0
  189.6890  177.8880  139.4940 C   0  0  0  0  0  2  0  0  0  0  0  0
  188.4740  177.5530  141.6450 N   0  0  0  0  0  2  0  0  0  0  0  0
  192.1290  177.7190  139.8910 C   0  0  0  0  0  1  0  0  0  0  0  0
  190.9330  175.8340  138.8520 C   0  0  0  0  0  1  0  0  0  0  0  0
  184.1000  178.4560  145.1650 C   0  0  0  0  0  3  0  0  0  0  0  0
  184.9730  179.0930  142.9910 C   0  0  0  0  0  0  0  0  0  0  0  0
  182.5800  178.9140  143.3410 C   0  0  0  0  0  0  0  0  0  0  0  0
  185.1970  178.7310  144.3330 C   0  0  0  0  0  0  0  0  0  0  0  0
  183.6650  179.1850  142.5030 C   0  0  0  0  0  3  0  0  0  0  0  0
  186.3040  179.4390  141.8970 Cl  0  0  0  0  0  0  0  0  0  0  0  0
  181.3170  179.0040  142.8610 F   0  0  0  0  0  0  0  0  0  0  0  0
  182.7970  178.5490  144.6700 C   0  0  0  0  0  3  0  0  0  0  0  0
  1 11  1  1  0  0  0
  1 12  1  0  0  0  0
  3 24  1  6  0  0  0
  3 10  1  0  0  0  0
  5  9  1  1  0  0  0
  5  8  1  0  0  0  0
  6  3  1  0  0  0  0
  7  9  1  0  0  0  0
  8  2  1  1  0  0  0
 10  8  1  0  0  0  0
 10  4  1  1  0  0  0
 11  7  2  0  0  0  0
 12  6  1  6  0  0  0
 12  5  1  0  0  0  0
 14 13  1  6  0  0  0
 14  1  1  0  0  0  0
 15 19  1  0  0  0  0
 15 13  1  0  0  0  0
 16 18  1  0  0  0  0
 17 15  1  0  0  0  0
 17 16  1  0  0  0  0
 18 14  1  0  0  0  0
 20 15  1  0  0  0  0
 22 24  1  0  0  0  0
 23 28  2  0  0  0  0
 24 21  2  0  0  0  0
 25 22  2  0  0  0  0
 25 23  1  0  0  0  0
 26 22  1  0  0  0  0
 27 23  1  0  0  0  0
 28 21  1  0  0  0  0
M  END
>  <MODEL>
5

>  <REMARK>
 VINA RESULT:      -8.8      3.159      5.524
  Name = 
  2 active torsions:
  status: ('A' for Active; 'I' for Inactive)
    1  A    between atoms: C_1  and  C_3
    2  A    between atoms: C_10  and  C_13
                            x       y       z     vdW  Elec       q    Type
                         _______ _______ _______ _____ _____    ______ ____

>  <TORSDO>
F 2

$$$$
=
 OpenBabel10272401543D

 28 31  0  0  1  0  0  0  0  0999 V2000
  188.5770  177.2670  141.0900 C   0  0  1  0  0  3  0  0  0  0  0  0
  187.0000  177.9410  136.4100 C   0  0  0  0  0  1  0  0  0  0  0  0
  190.4980  176.9300  137.7570 C   0  0  2  0  0  3  0  0  0  0  0  0
  189.8370  177.6260  135.4430 C   0  0  0  0  0  1  0  0  0  0  0  0
  187.8200  177.6220  138.7440 C   0  0  2  0  0  3  0  0  0  0  0  0
  190.0160  176.5410  139.1510 C   0  0  0  0  0  2  0  0  0  0  0  0
  186.6820  178.7410  140.6860 C   0  0  0  0  0  3  0  0  0  0  0  0
  188.2230  178.0070  137.3160 C   0  0  1  0  0  3  0  0  0  0  0  0
  186.8350  178.5610  139.2750 N   0  0  0  0  0  2  0  0  0  0  0  0
  189.3230  177.0780  136.7690 C   0  0  2  0  0  3  0  0  0  0  0  0
  187.4950  178.1620  141.5190 N   0  0  0  0  0  0  0  0  0  0  0  0
  189.0410  177.5900  139.6620 C   0  0  2  0  0  3  0  0  0  0  0  0
  189.3220  177.9190  143.4330 C   0  0  0  0  0  2  0  0  0  0  0  0
  189.7350  177.3030  142.0880 C   0  0  1  0  0  3  0  0  0  0  0  0
  190.5360  178.0780  144.3540 C   0  0  0  0  0  0  0  0  0  0  0  0
  190.9870  175.7350  143.5280 C   0  0  0  0  0  2  0  0  0  0  0  0
  191.6080  177.0140  144.0930 C   0  0  0  0  0  2  0  0  0  0  0  0
  190.3240  175.9610  142.2330 N   0  0  0  0  0  2  0  0  0  0  0  0
  191.1470  179.4480  144.1370 C   0  0  0  0  0  1  0  0  0  0  0  0
  190.0710  177.9770  145.7920 C   0  0  0  0  0  1  0  0  0  0  0  0
  192.8610  176.3370  137.1120 C   0  0  0  0  0  3  0  0  0  0  0  0
  191.1540  174.6160  136.9790 C   0  0  0  0  0  0  0  0  0  0  0  0
  193.4460  174.1110  136.3680 C   0  0  0  0  0  0  0  0  0  0  0  0
  191.5250  175.9400  137.2800 C   0  0  0  0  0  0  0  0  0  0  0  0
  192.1180  173.7080  136.5260 C   0  0  0  0  0  3  0  0  0  0  0  0
  189.4960  174.0620  137.1570 Cl  0  0  0  0  0  0  0  0  0  0  0  0
  194.3740  173.2270  135.9290 F   0  0  0  0  0  0  0  0  0  0  0  0
  193.8170  175.4250  136.6590 C   0  0  0  0  0  3  0  0  0  0  0  0
  1 11  1  1  0  0  0
  1 14  1  0  0  0  0
  3 24  1  6  0  0  0
  3  6  1  0  0  0  0
  5  9  1  1  0  0  0
  5 12  1  0  0  0  0
  7 11  2  0  0  0  0
  8  2  1  6  0  0  0
  8  5  1  0  0  0  0
  9  7  1  0  0  0  0
 10  4  1  6  0  0  0
 10  8  1  0  0  0  0
 10  3  1  0  0  0  0
 12  6  1  6  0  0  0
 12  1  1  0  0  0  0
 13 15  1  0  0  0  0
 14 18  1  0  0  0  0
 14 13  1  1  0  0  0
 15 20  1  0  0  0  0
 16 17  1  0  0  0  0
 17 15  1  0  0  0  0
 18 16  1  0  0  0  0
 19 15  1  0  0  0  0
 21 24  1  0  0  0  0
 22 26  1  0  0  0  0
 22 24  2  0  0  0  0
 23 25  2  0  0  0  0
 23 28  1  0  0  0  0
 25 22  1  0  0  0  0
 27 23  1  0  0  0  0
 28 21  2  0  0  0  0
M  END
>  <MODEL>
6

>  <REMARK>
 VINA RESULT:      -8.8      3.303      7.354
  Name = 
  2 active torsions:
  status: ('A' for Active; 'I' for Inactive)
    1  A    between atoms: C_1  and  C_3
    2  A    between atoms: C_10  and  C_13
                            x       y       z     vdW  Elec       q    Type
                         _______ _______ _______ _____ _____    ______ ____

>  <TORSDO>
F 2

$$$$
=
 OpenBabel10272401543D

 28 31  0  0  1  0  0  0  0  0999 V2000
  187.6290  177.3940  141.8630 C   0  0  1  0  0  3  0  0  0  0  0  0
  186.4550  178.4510  137.1360 C   0  0  0  0  0  1  0  0  0  0  0  0
  189.7950  177.2020  138.6720 C   0  0  2  0  0  3  0  0  0  0  0  0
  189.3470  178.0820  136.3700 C   0  0  0  0  0  1  0  0  0  0  0  0
  187.0740  177.9400  139.4980 C   0  0  2  0  0  3  0  0  0  0  0  0
  189.1900  176.7410  139.9950 C   0  0  0  0  0  2  0  0  0  0  0  0
  185.8280  178.9710  141.4210 C   0  0  0  0  0  3  0  0  0  0  0  0
  187.6040  178.4030  138.1360 C   0  0  1  0  0  3  0  0  0  0  0  0
  186.0860  178.8810  140.0160 N   0  0  0  0  0  2  0  0  0  0  0  0
  188.7090  177.4670  137.6110 C   0  0  2  0  0  3  0  0  0  0  0  0
  186.5500  178.3030  142.2710 N   0  0  0  0  0  0  0  0  0  0  0  0
  188.2160  177.7930  140.5020 C   0  0  2  0  0  3  0  0  0  0  0  0
  189.7840  178.3910  142.7750 C   0  0  0  0  0  2  0  0  0  0  0  0
  188.7040  177.3130  142.9480 C   0  0  1  0  0  3  0  0  0  0  0  0
  190.9200  178.1890  143.7820 C   0  0  0  0  0  0  0  0  0  0  0  0
  188.9630  177.8580  145.3430 C   0  0  0  0  0  2  0  0  0  0  0  0
  190.4360  177.5390  145.0830 C   0  0  0  0  0  2  0  0  0  0  0  0
  188.0830  177.3370  144.2840 N   0  0  0  0  0  2  0  0  0  0  0  0
  191.9820  177.3030  143.1620 C   0  0  0  0  0  1  0  0  0  0  0  0
  191.5370  179.5370  144.0970 C   0  0  0  0  0  1  0  0  0  0  0  0
  190.4350  175.1220  137.4000 C   0  0  0  0  0  3  0  0  0  0  0  0
  192.1680  176.3360  138.5900 C   0  0  0  0  0  0  0  0  0  0  0  0
  192.7170  174.3250  137.3520 C   0  0  0  0  0  0  0  0  0  0  0  0
  190.8200  176.2050  138.2070 C   0  0  0  0  0  0  0  0  0  0  0  0
  193.1100  175.3960  138.1580 C   0  0  0  0  0  3  0  0  0  0  0  0
  192.7100  177.6620  139.6070 Cl  0  0  0  0  0  0  0  0  0  0  0  0
  193.6350  173.4190  136.9370 F   0  0  0  0  0  0  0  0  0  0  0  0
  191.3810  174.1870  136.9740 C   0  0  0  0  0  3  0  0  0  0  0  0
  1 11  1  1  0  0  0
  1 14  1  0  0  0  0
  3 24  1  6  0  0  0
  3  6  1  0  0  0  0
  5  9  1  1  0  0  0
  5 12  1  0  0  0  0
  7 11  2  0  0  0  0
  8  2  1  6  0  0  0
  8  5  1  0  0  0  0
  9  7  1  0  0  0  0
 10  4  1  6  0  0  0
 10  8  1  0  0  0  0
 10  3  1  0  0  0  0
 12  6  1  6  0  0  0
 12  1  1  0  0  0  0
 13 15  1  0  0  0  0
 14 13  1  1  0  0  0
 14 18  1  0  0  0  0
 15 20  1  0  0  0  0
 15 17  1  0  0  0  0
 17 16  1  0  0  0  0
 18 16  1  0  0  0  0
 19 15  1  0  0  0  0
 21 24  1  0  0  0  0
 22 26  1  0  0  0  0
 23 25  2  0  0  0  0
 24 22  2  0  0  0  0
 25 22  1  0  0  0  0
 27 23  1  0  0  0  0
 28 23  1  0  0  0  0
 28 21  2  0  0  0  0
M  END
>  <MODEL>
7

>  <REMARK>
 VINA RESULT:      -8.7      2.965      6.648
  Name = 
  2 active torsions:
  status: ('A' for Active; 'I' for Inactive)
    1  A    between atoms: C_1  and  C_3
    2  A    between atoms: C_10  and  C_13
                            x       y       z     vdW  Elec       q    Type
                         _______ _______ _______ _____ _____    ______ ____

>  <TORSDO>
F 2

$$$$
=
 OpenBabel10272401543D

 28 31  0  0  1  0  0  0  0  0999 V2000
  187.1590  177.3240  143.3380 C   0  0  1  0  0  3  0  0  0  0  0  0
  182.7180  178.9310  141.7480 C   0  0  0  0  0  1  0  0  0  0  0  0
  186.0880  178.5920  139.8510 C   0  0  2  0  0  3  0  0  0  0  0  0
  183.9850  179.7500  139.1390 C   0  0  0  0  0  1  0  0  0  0  0  0
  184.9560  178.1550  142.5260 C   0  0  2  0  0  3  0  0  0  0  0  0
  186.7460  177.6720  140.8760 C   0  0  0  0  0  2  0  0  0  0  0  0
  185.5930  178.2470  144.9560 C   0  0  0  0  0  3  0  0  0  0  0  0
  184.2200  179.0590  141.5310 C   0  0  1  0  0  3  0  0  0  0  0  0
  184.6800  178.5640  143.9000 N   0  0  0  0  0  2  0  0  0  0  0  0
  184.5660  178.6970  140.0750 C   0  0  2  0  0  3  0  0  0  0  0  0
  186.7410  177.6970  144.6950 N   0  0  0  0  0  0  0  0  0  0  0  0
  186.4640  178.1890  142.2780 C   0  0  2  0  0  3  0  0  0  0  0  0
  189.3680  177.6590  144.5540 C   0  0  0  0  0  2  0  0  0  0  0  0
  188.6820  177.3780  143.2100 C   0  0  1  0  0  3  0  0  0  0  0  0
  190.8750  177.8560  144.3660 C   0  0  0  0  0  0  0  0  0  0  0  0
  190.5710  175.8150  142.9110 C   0  0  0  0  0  2  0  0  0  0  0  0
  191.4220  177.0580  143.1770 C   0  0  0  0  0  2  0  0  0  0  0  0
  189.1820  176.1530  142.5600 N   0  0  0  0  0  2  0  0  0  0  0  0
  191.1590  179.3270  144.1370 C   0  0  0  0  0  1  0  0  0  0  0  0
  191.5850  177.4170  145.6310 C   0  0  0  0  0  1  0  0  0  0  0  0
  185.4400  177.5840  137.6340 C   0  0  0  0  0  3  0  0  0  0  0  0
  187.7530  178.2310  137.9840 C   0  0  0  0  0  0  0  0  0  0  0  0
  187.0660  177.2520  135.8750 C   0  0  0  0  0  0  0  0  0  0  0  0
  186.4330  178.1330  138.4610 C   0  0  0  0  0  0  0  0  0  0  0  0
  188.0620  177.7920  136.6920 C   0  0  0  0  0  3  0  0  0  0  0  0
  189.0420  178.8990  138.9750 Cl  0  0  0  0  0  0  0  0  0  0  0  0
  187.3730  176.8280  134.6260 F   0  0  0  0  0  0  0  0  0  0  0  0
  185.7570  177.1460  136.3450 C   0  0  0  0  0  3  0  0  0  0  0  0
  1 11  1  1  0  0  0
  3 24  1  6  0  0  0
  3 10  1  0  0  0  0
  3  6  1  0  0  0  0
  5  9  1  1  0  0  0
  8  2  1  6  0  0  0
  8  5  1  0  0  0  0
  9  7  1  0  0  0  0
 10  4  1  6  0  0  0
 10  8  1  0  0  0  0
 11  7  2  0  0  0  0
 12  6  1  6  0  0  0
 12  5  1  0  0  0  0
 12  1  1  0  0  0  0
 14  1  1  0  0  0  0
 14 13  1  1  0  0  0
 15 13  1  0  0  0  0
 15 20  1  0  0  0  0
 16 17  1  0  0  0  0
 17 15  1  0  0  0  0
 18 16  1  0  0  0  0
 18 14  1  0  0  0  0
 19 15  1  0  0  0  0
 21 24  1  0  0  0  0
 22 24  2  0  0  0  0
 22 26  1  0  0  0  0
 23 28  1  0  0  0  0
 23 25  2  0  0  0  0
 25 22  1  0  0  0  0
 27 23  1  0  0  0  0
 28 21  2  0  0  0  0
M  END
>  <MODEL>
8

>  <REMARK>
 VINA RESULT:      -8.4      3.336      6.737
  Name = 
  2 active torsions:
  status: ('A' for Active; 'I' for Inactive)
    1  A    between atoms: C_1  and  C_3
    2  A    between atoms: C_10  and  C_13
                            x       y       z     vdW  Elec       q    Type
                         _______ _______ _______ _____ _____    ______ ____

>  <TORSDO>
F 2

$$$$
=
 OpenBabel10272401543D

 28 31  0  0  1  0  0  0  0  0999 V2000
  185.2890  178.9300  143.0280 C   0  0  1  0  0  3  0  0  0  0  0  0
  188.3750  177.8750  146.7950 C   0  0  0  0  0  1  0  0  0  0  0  0
  188.7040  177.1270  143.0000 C   0  0  2  0  0  3  0  0  0  0  0  0
  190.0770  176.2580  144.9060 C   0  0  0  0  0  1  0  0  0  0  0  0
  186.8360  178.3690  144.8970 C   0  0  2  0  0  3  0  0  0  0  0  0
  187.6270  178.1150  142.5580 C   0  0  0  0  0  2  0  0  0  0  0  0
  184.3750  178.7140  145.2730 C   0  0  0  0  0  3  0  0  0  0  0  0
  187.9210  177.4180  145.4150 C   0  0  1  0  0  3  0  0  0  0  0  0
  185.6650  178.3440  145.7690 N   0  0  0  0  0  2  0  0  0  0  0  0
  189.1300  177.3660  144.4630 C   0  0  2  0  0  3  0  0  0  0  0  0
  184.1980  178.9630  144.0100 N   0  0  0  0  0  0  0  0  0  0  0  0
  186.4200  177.9940  143.4750 C   0  0  2  0  0  3  0  0  0  0  0  0
  183.2220  178.5180  141.6030 C   0  0  0  0  0  2  0  0  0  0  0  0
  184.7560  178.5600  141.6420 C   0  0  1  0  0  3  0  0  0  0  0  0
  182.7250  178.0000  140.2500 C   0  0  0  0  0  0  0  0  0  0  0  0
  184.4880  179.6090  139.4220 C   0  0  0  0  0  2  0  0  0  0  0  0
  183.6890  178.3430  139.1080 C   0  0  0  0  0  2  0  0  0  0  0  0
  185.3280  179.4560  140.6220 N   0  0  0  0  0  2  0  0  0  0  0  0
  182.5700  176.4940  140.3210 C   0  0  0  0  0  1  0  0  0  0  0  0
  181.3710  178.6140  139.9620 C   0  0  0  0  0  1  0  0  0  0  0  0
  189.8200  176.4790  140.8350 C   0  0  0  0  0  3  0  0  0  0  0  0
  191.0190  177.9240  142.3730 C   0  0  0  0  0  0  0  0  0  0  0  0
  192.0390  177.2600  140.2760 C   0  0  0  0  0  0  0  0  0  0  0  0
  189.8670  177.1830  142.0480 C   0  0  0  0  0  0  0  0  0  0  0  0
  192.0980  177.9600  141.4830 C   0  0  0  0  0  3  0  0  0  0  0  0
  191.1440  178.8170  143.8820 Cl  0  0  0  0  0  0  0  0  0  0  0  0
  193.0880  177.2990  139.4190 F   0  0  0  0  0  0  0  0  0  0  0  0
  190.9020  176.5190  139.9520 C   0  0  0  0  0  3  0  0  0  0  0  0
  1 12  1  0  0  0  0
  1 11  1  1  0  0  0
  3 24  1  6  0  0  0
  3 10  1  0  0  0  0
  5  8  1  0  0  0  0
  5  9  1  1  0  0  0
  6  3  1  0  0  0  0
  7  9  1  0  0  0  0
  8  2  1  1  0  0  0
 10  4  1  1  0  0  0
 10  8  1  0  0  0  0
 11  7  2  0  0  0  0
 12  6  1  6  0  0  0
 12  5  1  0  0  0  0
 14 13  1  1  0  0  0
 14  1  1  0  0  0  0
 15 19  1  0  0  0  0
 15 13  1  0  0  0  0
 16 18  1  0  0  0  0
 17 16  1  0  0  0  0
 17 15  1  0  0  0  0
 18 14  1  0  0  0  0
 20 15  1  0  0  0  0
 21 24  1  0  0  0  0
 22 26  1  0  0  0  0
 23 25  2  0  0  0  0
 24 22  2  0  0  0  0
 25 22  1  0  0  0  0
 27 23  1  0  0  0  0
 28 23  1  0  0  0  0
 28 21  2  0  0  0  0
M  END
>  <MODEL>
9

>  <REMARK>
 VINA RESULT:      -8.1      2.599      5.073
  Name = 
  2 active torsions:
  status: ('A' for Active; 'I' for Inactive)
    1  A    between atoms: C_1  and  C_3
    2  A    between atoms: C_10  and  C_13
                            x       y       z     vdW  Elec       q    Type
                         _______ _______ _______ _____ _____    ______ ____

>  <TORSDO>
F 2

$$$$
