=
 OpenBabel10272413503D

 30 31  0  0  1  0  0  0  0  0999 V2000
  189.3190  178.0970  141.7570 C   0  0  2  0  0  3  0  0  0  0  0  0
  189.8170  177.5820  143.1220 C   0  0  1  0  0  3  0  0  0  0  0  0
  189.9140  176.0820  143.1110 C   0  0  0  0  0  0  0  0  0  0  0  0
  191.2150  175.4150  143.4150 C   0  0  0  0  0  2  0  0  0  0  0  0
  191.6180  177.5320  145.2590 S   0  0  0  0  0  0  0  0  0  0  0  0
  188.9250  175.4040  142.8860 O   0  0  0  0  0  0  0  0  0  0  0  0
  191.6500  175.7430  144.8340 C   0  0  0  0  0  2  0  0  0  0  0  0
  190.9380  179.7290  143.8300 C   0  0  0  0  0  1  0  0  0  0  0  0
  191.1140  178.2330  143.6420 C   0  0  2  0  0  3  0  0  0  0  0  0
  187.1460  178.5410  140.2730 O   0  0  0  0  0  0  0  0  0  0  0  0
  187.6200  178.7620  141.7040 S   0  0  1  0  0  0  0  0  0  0  0  0
  186.5920  177.6560  142.6890 C   0  0  0  0  0  2  0  0  0  0  0  0
  183.5460  179.1240  144.5100 C   0  0  2  0  0  3  0  0  0  0  0  0
  183.7970  178.5110  145.8840 C   0  0  0  0  0  2  0  0  0  0  0  0
  182.1870  179.0460  144.2070 O   0  0  0  0  0  1  0  0  0  0  0  0
  186.1140  177.8400  145.1590 C   0  0  1  0  0  3  0  0  0  0  0  0
  185.6950  179.8840  146.3860 O   0  0  0  0  0  1  0  0  0  0  0  0
  184.3460  178.3760  143.4510 C   0  0  0  0  0  2  0  0  0  0  0  0
  185.2820  178.5570  146.2330 C   0  0  1  0  0  3  0  0  0  0  0  0
  185.8430  178.4310  143.7620 C   0  0  2  0  0  3  0  0  0  0  0  0
  187.5950  177.8980  145.5340 C   0  0  0  0  0  2  0  0  0  0  0  0
  187.8170  177.4220  146.9590 C   0  0  0  0  0  2  0  0  0  0  0  0
  188.8690  176.5260  147.0020 F   0  0  0  0  0  0  0  0  0  0  0  0
  189.5510  177.0720  140.6550 C   0  0  0  0  0  2  0  0  0  0  0  0
  190.4650  177.6280  139.5720 C   0  0  1  0  0  3  0  0  0  0  0  0
  192.6210  176.4870  138.3190 S   0  0  0  0  0  1  0  0  0  0  0  0
  191.8950  177.1860  139.8310 C   0  0  0  0  0  2  0  0  0  0  0  0
  190.0110  177.1280  138.2070 C   0  0  0  0  0  2  0  0  0  0  0  0
  189.2620  178.2150  137.4540 C   0  0  0  0  0  2  0  0  0  0  0  0
  189.2580  179.3850  138.1900 F   0  0  0  0  0  0  0  0  0  0  0  0
  1 24  1  6  0  0  0
  2  1  1  6  0  0  0
  2  9  1  0  0  0  0
  3  2  1  0  0  0  0
  3  4  1  0  0  0  0
  4  7  1  0  0  0  0
  6  3  2  0  0  0  0
  7  5  1  0  0  0  0
  9  8  1  1  0  0  0
  9  5  1  0  0  0  0
 11 10  2  6  0  0  0
 11  1  1  0  0  0  0
 11 12  1  0  0  0  0
 13 15  1  6  0  0  0
 13 14  1  0  0  0  0
 14 19  1  0  0  0  0
 16 21  1  1  0  0  0
 16 19  1  0  0  0  0
 18 20  1  0  0  0  0
 18 13  1  0  0  0  0
 19 17  1  6  0  0  0
 20 12  1  6  0  0  0
 20 16  1  0  0  0  0
 21 22  1  0  0  0  0
 22 23  1  0  0  0  0
 25 28  1  6  0  0  0
 25 27  1  0  0  0  0
 25 24  1  0  0  0  0
 26 27  1  0  0  0  0
 29 30  1  0  0  0  0
 29 28  1  0  0  0  0
M  END
>  <MODEL>
1

>  <REMARK>
 VINA RESULT:      -7.0      0.000      0.000
  Name = 
  11 active torsions:
  status: ('A' for Active; 'I' for Inactive)
    1  A    between atoms: C_3  and  C_11
    2  A    between atoms: C_3  and  C_19
    3  A    between atoms: S_4  and  C_13
    4  A    between atoms: S_4  and  C_23
    5  A    between atoms: C_5  and  C_9
    6  A    between atoms: C_6  and  C_8
    7  A    between atoms: C_6  and  C_9
    8  A    between atoms: C_6  and  C_21
    9  A    between atoms: C_7  and  C_13
   10  A    between atoms: C_8  and  C_13
   11  A    between atoms: C_23  and  C_29
                            x       y       z     vdW  Elec       q    Type
                         _______ _______ _______ _____ _____    ______ ____

>  <TORSDO>
F 11

$$$$
=
 OpenBabel10272413503D

 30 31  0  0  1  0  0  0  0  0999 V2000
  186.8780  177.9040  142.0830 C   0  0  2  0  0  3  0  0  0  0  0  0
  185.5330  178.6530  142.1830 C   0  0  1  0  0  3  0  0  0  0  0  0
  184.7970  178.5820  140.8750 C   0  0  0  0  0  0  0  0  0  0  0  0
  183.4230  177.9990  140.8210 C   0  0  0  0  0  2  0  0  0  0  0  0
  183.0610  179.1830  143.3740 S   0  0  0  0  0  0  0  0  0  0  0  0
  185.3050  179.0270  139.8590 O   0  0  0  0  0  0  0  0  0  0  0  0
  182.4720  178.8300  141.6670 C   0  0  0  0  0  2  0  0  0  0  0  0
  185.3240  178.5010  144.6940 C   0  0  0  0  0  1  0  0  0  0  0  0
  184.6340  178.2420  143.3660 C   0  0  2  0  0  3  0  0  0  0  0  0
  188.0540  175.8550  143.3230 O   0  0  0  0  0  0  0  0  0  0  0  0
  187.5740  177.2650  143.6450 S   0  0  1  0  0  0  0  0  0  0  0  0
  189.0890  178.1890  143.9620 C   0  0  0  0  0  2  0  0  0  0  0  0
  188.7180  177.7110  147.7550 C   0  0  2  0  0  3  0  0  0  0  0  0
  189.5190  176.4190  147.8920 C   0  0  0  0  0  2  0  0  0  0  0  0
  187.5750  177.6350  148.5490 O   0  0  0  0  0  1  0  0  0  0  0  0
  190.3840  176.7110  145.5440 C   0  0  1  0  0  3  0  0  0  0  0  0
  191.6450  177.4430  147.4760 O   0  0  0  0  0  1  0  0  0  0  0  0
  188.3140  177.9220  146.3020 C   0  0  0  0  0  2  0  0  0  0  0  0
  190.7650  176.4600  147.0110 C   0  0  1  0  0  3  0  0  0  0  0  0
  189.5470  177.9950  145.4000 C   0  0  2  0  0  3  0  0  0  0  0  0
  191.6480  176.7440  144.6840 C   0  0  0  0  0  2  0  0  0  0  0  0
  191.7080  175.5450  143.7540 C   0  0  0  0  0  2  0  0  0  0  0  0
  192.4150  174.5160  144.3480 F   0  0  0  0  0  0  0  0  0  0  0  0
  187.9080  178.7090  141.3020 C   0  0  0  0  0  2  0  0  0  0  0  0
  188.6140  177.8400  140.2700 C   0  0  1  0  0  3  0  0  0  0  0  0
  187.9050  177.9670  137.6240 S   0  0  0  0  0  1  0  0  0  0  0  0
  188.8670  178.6470  139.0080 C   0  0  0  0  0  2  0  0  0  0  0  0
  189.9360  177.3390  140.8360 C   0  0  0  0  0  2  0  0  0  0  0  0
  191.0060  177.2990  139.7580 C   0  0  0  0  0  2  0  0  0  0  0  0
  192.2350  177.6270  140.2990 F   0  0  0  0  0  0  0  0  0  0  0  0
  1 24  1  1  0  0  0
  1 11  1  0  0  0  0
  2  1  1  6  0  0  0
  2  9  1  0  0  0  0
  3  2  1  0  0  0  0
  4  3  1  0  0  0  0
  4  7  1  0  0  0  0
  6  3  2  0  0  0  0
  7  5  1  0  0  0  0
  9  5  1  0  0  0  0
  9  8  1  1  0  0  0
 11 10  2  6  0  0  0
 11 12  1  0  0  0  0
 13 14  1  0  0  0  0
 13 15  1  1  0  0  0
 16 21  1  6  0  0  0
 16 19  1  0  0  0  0
 18 13  1  0  0  0  0
 19 17  1  1  0  0  0
 19 14  1  0  0  0  0
 20 12  1  6  0  0  0
 20 16  1  0  0  0  0
 20 18  1  0  0  0  0
 22 23  1  0  0  0  0
 22 21  1  0  0  0  0
 25 27  1  6  0  0  0
 25 28  1  0  0  0  0
 25 24  1  0  0  0  0
 26 27  1  0  0  0  0
 29 30  1  0  0  0  0
 29 28  1  0  0  0  0
M  END
>  <MODEL>
2

>  <REMARK>
 VINA RESULT:      -6.6      2.547      5.424
  Name = 
  11 active torsions:
  status: ('A' for Active; 'I' for Inactive)
    1  A    between atoms: C_3  and  C_11
    2  A    between atoms: C_3  and  C_19
    3  A    between atoms: S_4  and  C_13
    4  A    between atoms: S_4  and  C_23
    5  A    between atoms: C_5  and  C_9
    6  A    between atoms: C_6  and  C_8
    7  A    between atoms: C_6  and  C_9
    8  A    between atoms: C_6  and  C_21
    9  A    between atoms: C_7  and  C_13
   10  A    between atoms: C_8  and  C_13
   11  A    between atoms: C_23  and  C_29
                            x       y       z     vdW  Elec       q    Type
                         _______ _______ _______ _____ _____    ______ ____

>  <TORSDO>
F 11

$$$$
=
 OpenBabel10272413503D

 30 31  0  0  1  0  0  0  0  0999 V2000
  189.3680  176.9520  141.1290 C   0  0  2  0  0  3  0  0  0  0  0  0
  189.8550  177.3410  139.7180 C   0  0  1  0  0  3  0  0  0  0  0  0
  191.3350  177.1120  139.5950 C   0  0  0  0  0  0  0  0  0  0  0  0
  191.8650  176.2060  138.5330 C   0  0  0  0  0  2  0  0  0  0  0  0
  189.7550  177.2160  136.9280 S   0  0  0  0  0  0  0  0  0  0  0  0
  192.1110  177.6870  140.3410 O   0  0  0  0  0  0  0  0  0  0  0  0
  191.5210  176.7580  137.1580 C   0  0  0  0  0  2  0  0  0  0  0  0
  187.6140  177.0970  138.5820 C   0  0  0  0  0  1  0  0  0  0  0  0
  189.0790  176.6980  138.5510 C   0  0  2  0  0  3  0  0  0  0  0  0
  187.7070  179.0320  140.9340 O   0  0  0  0  0  0  0  0  0  0  0  0
  188.3710  178.1960  142.0210 S   0  0  1  0  0  0  0  0  0  0  0  0
  187.0060  177.3140  142.8000 C   0  0  0  0  0  2  0  0  0  0  0  0
  183.8450  179.2000  143.8960 C   0  0  2  0  0  3  0  0  0  0  0  0
  183.8070  178.7380  145.3500 C   0  0  0  0  0  2  0  0  0  0  0  0
  182.5540  179.1830  143.3690 O   0  0  0  0  0  1  0  0  0  0  0  0
  186.1430  177.8240  145.1150 C   0  0  1  0  0  3  0  0  0  0  0  0
  185.7120  180.0240  146.0280 O   0  0  0  0  0  1  0  0  0  0  0  0
  184.7390  178.2770  143.0780 C   0  0  0  0  0  2  0  0  0  0  0  0
  185.2130  178.7210  145.9460 C   0  0  1  0  0  3  0  0  0  0  0  0
  186.1610  178.2620  143.6390 C   0  0  2  0  0  3  0  0  0  0  0  0
  187.5400  177.8210  145.7350 C   0  0  0  0  0  2  0  0  0  0  0  0
  187.4770  177.5310  147.2250 C   0  0  0  0  0  2  0  0  0  0  0  0
  188.4780  176.6460  147.5800 F   0  0  0  0  0  0  0  0  0  0  0  0
  190.5110  176.4330  141.9910 C   0  0  0  0  0  2  0  0  0  0  0  0
  190.5320  177.1230  143.3480 C   0  0  1  0  0  3  0  0  0  0  0  0
  191.5180  176.5610  145.8440 S   0  0  0  0  0  1  0  0  0  0  0  0
  190.4510  176.0830  144.4530 C   0  0  0  0  0  2  0  0  0  0  0  0
  191.8130  177.9320  143.4940 C   0  0  0  0  0  2  0  0  0  0  0  0
  191.5060  179.3590  143.9210 C   0  0  0  0  0  2  0  0  0  0  0  0
  190.3000  179.4030  144.5940 F   0  0  0  0  0  0  0  0  0  0  0  0
  1 24  1  1  0  0  0
  1 11  1  0  0  0  0
  2  1  1  1  0  0  0
  3  2  1  0  0  0  0
  3  6  2  0  0  0  0
  4  3  1  0  0  0  0
  5  7  1  0  0  0  0
  5  9  1  0  0  0  0
  7  4  1  0  0  0  0
  9  8  1  6  0  0  0
  9  2  1  0  0  0  0
 11 10  2  6  0  0  0
 11 12  1  0  0  0  0
 13 15  1  6  0  0  0
 13 14  1  0  0  0  0
 14 19  1  0  0  0  0
 16 21  1  1  0  0  0
 16 19  1  0  0  0  0
 18 20  1  0  0  0  0
 18 13  1  0  0  0  0
 19 17  1  6  0  0  0
 20 12  1  6  0  0  0
 20 16  1  0  0  0  0
 21 22  1  0  0  0  0
 22 23  1  0  0  0  0
 25 24  1  6  0  0  0
 25 28  1  0  0  0  0
 25 27  1  0  0  0  0
 27 26  1  0  0  0  0
 28 29  1  0  0  0  0
 29 30  1  0  0  0  0
M  END
>  <MODEL>
3

>  <REMARK>
 VINA RESULT:      -6.2      1.757      4.139
  Name = 
  11 active torsions:
  status: ('A' for Active; 'I' for Inactive)
    1  A    between atoms: C_3  and  C_11
    2  A    between atoms: C_3  and  C_19
    3  A    between atoms: S_4  and  C_13
    4  A    between atoms: S_4  and  C_23
    5  A    between atoms: C_5  and  C_9
    6  A    between atoms: C_6  and  C_8
    7  A    between atoms: C_6  and  C_9
    8  A    between atoms: C_6  and  C_21
    9  A    between atoms: C_7  and  C_13
   10  A    between atoms: C_8  and  C_13
   11  A    between atoms: C_23  and  C_29
                            x       y       z     vdW  Elec       q    Type
                         _______ _______ _______ _____ _____    ______ ____

>  <TORSDO>
F 11

$$$$
=
 OpenBabel10272413503D

 30 31  0  0  1  0  0  0  0  0999 V2000
  187.8600  176.9540  142.9610 C   0  0  2  0  0  3  0  0  0  0  0  0
  188.7850  176.5850  144.1390 C   0  0  1  0  0  3  0  0  0  0  0  0
  190.1280  176.1460  143.6310 C   0  0  0  0  0  0  0  0  0  0  0  0
  191.3640  176.8550  144.0760 C   0  0  0  0  0  2  0  0  0  0  0  0
  190.0470  177.1200  146.5750 S   0  0  0  0  0  0  0  0  0  0  0  0
  190.2180  175.1890  142.8790 O   0  0  0  0  0  0  0  0  0  0  0  0
  191.5380  176.7070  145.5790 C   0  0  0  0  0  2  0  0  0  0  0  0
  187.5680  177.9540  145.8770 C   0  0  0  0  0  1  0  0  0  0  0  0
  188.9140  177.6590  145.2390 C   0  0  2  0  0  3  0  0  0  0  0  0
  189.3090  179.1700  142.6340 O   0  0  0  0  0  0  0  0  0  0  0  0
  188.4890  178.2050  141.7890 S   0  0  1  0  0  0  0  0  0  0  0  0
  189.7060  177.3810  140.7460 C   0  0  0  0  0  2  0  0  0  0  0  0
  187.5460  178.0580  137.6430 C   0  0  2  0  0  3  0  0  0  0  0  0
  188.6640  178.1100  136.6050 C   0  0  0  0  0  2  0  0  0  0  0  0
  186.6260  179.0740  137.3860 O   0  0  0  0  0  1  0  0  0  0  0  0
  190.2730  177.1630  138.2970 C   0  0  1  0  0  3  0  0  0  0  0  0
  189.1350  175.7620  136.6850 O   0  0  0  0  0  1  0  0  0  0  0  0
  188.1240  178.2380  139.0410 C   0  0  0  0  0  2  0  0  0  0  0  0
  189.7030  177.0250  136.8770 C   0  0  1  0  0  3  0  0  0  0  0  0
  189.1490  177.1460  139.3500 C   0  0  2  0  0  3  0  0  0  0  0  0
  191.3120  176.0690  138.5420 C   0  0  0  0  0  2  0  0  0  0  0  0
  192.7230  176.6200  138.4260 C   0  0  0  0  0  2  0  0  0  0  0  0
  193.1160  177.1780  139.6280 F   0  0  0  0  0  0  0  0  0  0  0  0
  186.4550  177.2970  143.4410 C   0  0  0  0  0  2  0  0  0  0  0  0
  185.8610  178.4370  142.6250 C   0  0  1  0  0  3  0  0  0  0  0  0
  184.5560  179.0220  140.2860 S   0  0  0  0  0  1  0  0  0  0  0  0
  184.7920  177.8950  141.6910 C   0  0  0  0  0  2  0  0  0  0  0  0
  185.2520  179.4750  143.5580 C   0  0  0  0  0  2  0  0  0  0  0  0
  183.9290  178.9850  144.1240 C   0  0  0  0  0  2  0  0  0  0  0  0
  184.0930  178.5960  145.4400 F   0  0  0  0  0  0  0  0  0  0  0  0
  1 24  1  1  0  0  0
  2  1  1  6  0  0  0
  2  9  1  0  0  0  0
  3  4  1  0  0  0  0
  3  2  1  0  0  0  0
  4  7  1  0  0  0  0
  6  3  2  0  0  0  0
  7  5  1  0  0  0  0
  9  8  1  1  0  0  0
  9  5  1  0  0  0  0
 11 10  2  1  0  0  0
 11  1  1  0  0  0  0
 12 11  1  0  0  0  0
 13 15  1  6  0  0  0
 13 18  1  0  0  0  0
 14 19  1  0  0  0  0
 14 13  1  0  0  0  0
 16 21  1  1  0  0  0
 16 20  1  0  0  0  0
 18 20  1  0  0  0  0
 19 17  1  1  0  0  0
 19 16  1  0  0  0  0
 20 12  1  1  0  0  0
 22 21  1  0  0  0  0
 22 23  1  0  0  0  0
 25 27  1  6  0  0  0
 25 24  1  0  0  0  0
 25 28  1  0  0  0  0
 26 27  1  0  0  0  0
 28 29  1  0  0  0  0
 29 30  1  0  0  0  0
M  END
>  <MODEL>
4

>  <REMARK>
 VINA RESULT:      -6.0      2.717      6.579
  Name = 
  11 active torsions:
  status: ('A' for Active; 'I' for Inactive)
    1  A    between atoms: C_3  and  C_11
    2  A    between atoms: C_3  and  C_19
    3  A    between atoms: S_4  and  C_13
    4  A    between atoms: S_4  and  C_23
    5  A    between atoms: C_5  and  C_9
    6  A    between atoms: C_6  and  C_8
    7  A    between atoms: C_6  and  C_9
    8  A    between atoms: C_6  and  C_21
    9  A    between atoms: C_7  and  C_13
   10  A    between atoms: C_8  and  C_13
   11  A    between atoms: C_23  and  C_29
                            x       y       z     vdW  Elec       q    Type
                         _______ _______ _______ _____ _____    ______ ____

>  <TORSDO>
F 11

$$$$
=
 OpenBabel10272413503D

 30 31  0  0  1  0  0  0  0  0999 V2000
  182.9480  178.7910  140.8200 C   0  0  2  0  0  3  0  0  0  0  0  0
  181.8400  178.3770  139.8310 C   0  0  1  0  0  3  0  0  0  0  0  0
  181.2900  179.5840  139.1260 C   0  0  0  0  0  0  0  0  0  0  0  0
  181.3250  179.6590  137.6350 C   0  0  0  0  0  2  0  0  0  0  0  0
  180.8380  176.8650  137.7040 S   0  0  0  0  0  0  0  0  0  0  0  0
  180.7870  180.4940  139.7650 O   0  0  0  0  0  0  0  0  0  0  0  0
  180.4830  178.5420  137.0380 C   0  0  0  0  0  2  0  0  0  0  0  0
  182.5930  175.9820  139.5680 C   0  0  0  0  0  1  0  0  0  0  0  0
  182.2230  177.2610  138.8380 C   0  0  2  0  0  3  0  0  0  0  0  0
  184.8560  179.9190  139.3350 O   0  0  0  0  0  0  0  0  0  0  0  0
  184.6670  178.6880  140.2120 S   0  0  1  0  0  0  0  0  0  0  0  0
  185.7440  178.9790  141.6270 C   0  0  0  0  0  2  0  0  0  0  0  0
  189.0760  177.4820  140.4400 C   0  0  2  0  0  3  0  0  0  0  0  0
  189.8270  177.5400  141.7680 C   0  0  0  0  0  2  0  0  0  0  0  0
  189.9260  177.8740  139.4080 O   0  0  0  0  0  1  0  0  0  0  0  0
  187.6660  178.0400  142.9640 C   0  0  1  0  0  3  0  0  0  0  0  0
  188.5550  175.7940  142.8060 O   0  0  0  0  0  1  0  0  0  0  0  0
  187.8680  178.4090  140.4840 C   0  0  0  0  0  2  0  0  0  0  0  0
  188.9120  177.1410  142.9230 C   0  0  1  0  0  3  0  0  0  0  0  0
  186.9200  178.0140  141.6170 C   0  0  2  0  0  3  0  0  0  0  0  0
  186.7710  177.6230  144.1300 C   0  0  0  0  0  2  0  0  0  0  0  0
  187.5090  177.7340  145.4530 C   0  0  0  0  0  2  0  0  0  0  0  0
  186.7590  177.1620  146.4640 F   0  0  0  0  0  0  0  0  0  0  0  0
  182.7900  178.0880  142.1620 C   0  0  0  0  0  2  0  0  0  0  0  0
  182.5910  179.0950  143.2870 C   0  0  1  0  0  3  0  0  0  0  0  0
  179.9820  178.3550  143.6940 S   0  0  0  0  0  1  0  0  0  0  0  0
  181.1760  179.6460  143.2370 C   0  0  0  0  0  2  0  0  0  0  0  0
  182.8340  178.4210  144.6310 C   0  0  0  0  0  2  0  0  0  0  0  0
  183.9140  179.1480  145.4140 C   0  0  0  0  0  2  0  0  0  0  0  0
  184.3180  178.3780  146.4890 F   0  0  0  0  0  0  0  0  0  0  0  0
  1 24  1  1  0  0  0
  2  1  1  6  0  0  0
  3  6  2  0  0  0  0
  3  2  1  0  0  0  0
  4  3  1  0  0  0  0
  5  9  1  0  0  0  0
  7  4  1  0  0  0  0
  7  5  1  0  0  0  0
  9  8  1  1  0  0  0
  9  2  1  0  0  0  0
 11 10  2  6  0  0  0
 11  1  1  0  0  0  0
 11 12  1  0  0  0  0
 13 15  1  6  0  0  0
 13 18  1  0  0  0  0
 13 14  1  0  0  0  0
 14 19  1  0  0  0  0
 16 21  1  1  0  0  0
 18 20  1  0  0  0  0
 19 17  1  6  0  0  0
 19 16  1  0  0  0  0
 20 12  1  1  0  0  0
 20 16  1  0  0  0  0
 21 22  1  0  0  0  0
 22 23  1  0  0  0  0
 25 24  1  6  0  0  0
 25 28  1  0  0  0  0
 27 25  1  0  0  0  0
 27 26  1  0  0  0  0
 28 29  1  0  0  0  0
 29 30  1  0  0  0  0
M  END
>  <MODEL>
5

>  <REMARK>
 VINA RESULT:      -6.0      3.867      8.357
  Name = 
  11 active torsions:
  status: ('A' for Active; 'I' for Inactive)
    1  A    between atoms: C_3  and  C_11
    2  A    between atoms: C_3  and  C_19
    3  A    between atoms: S_4  and  C_13
    4  A    between atoms: S_4  and  C_23
    5  A    between atoms: C_5  and  C_9
    6  A    between atoms: C_6  and  C_8
    7  A    between atoms: C_6  and  C_9
    8  A    between atoms: C_6  and  C_21
    9  A    between atoms: C_7  and  C_13
   10  A    between atoms: C_8  and  C_13
   11  A    between atoms: C_23  and  C_29
                            x       y       z     vdW  Elec       q    Type
                         _______ _______ _______ _____ _____    ______ ____

>  <TORSDO>
F 11

$$$$
=
 OpenBabel10272413503D

 30 31  0  0  1  0  0  0  0  0999 V2000
  187.5520  177.7980  143.0680 C   0  0  2  0  0  3  0  0  0  0  0  0
  186.0610  177.8710  143.4580 C   0  0  1  0  0  3  0  0  0  0  0  0
  185.9160  178.0030  144.9470 C   0  0  0  0  0  0  0  0  0  0  0  0
  185.1820  179.1670  145.5260 C   0  0  0  0  0  2  0  0  0  0  0  0
  183.4870  178.9400  143.2630 S   0  0  0  0  0  0  0  0  0  0  0  0
  186.3710  177.1460  145.6880 O   0  0  0  0  0  0  0  0  0  0  0  0
  183.7310  179.1440  145.0750 C   0  0  0  0  0  2  0  0  0  0  0  0
  185.2330  178.6710  141.2120 C   0  0  0  0  0  1  0  0  0  0  0  0
  185.2330  178.9330  142.7070 C   0  0  2  0  0  3  0  0  0  0  0  0
  188.9380  179.5370  141.5940 O   0  0  0  0  0  0  0  0  0  0  0  0
  187.9860  178.3660  141.3880 S   0  0  1  0  0  0  0  0  0  0  0  0
  189.0120  177.0830  140.6480 C   0  0  0  0  0  2  0  0  0  0  0  0
  187.6400  178.1740  137.2300 C   0  0  2  0  0  3  0  0  0  0  0  0
  188.9720  178.3860  136.5170 C   0  0  0  0  0  2  0  0  0  0  0  0
  186.7640  179.2050  136.8950 O   0  0  0  0  0  1  0  0  0  0  0  0
  190.1650  177.2250  138.4080 C   0  0  1  0  0  3  0  0  0  0  0  0
  189.5170  176.0560  136.3900 O   0  0  0  0  0  1  0  0  0  0  0  0
  187.8520  178.1580  138.7380 C   0  0  0  0  0  2  0  0  0  0  0  0
  189.9630  177.2850  136.8860 C   0  0  1  0  0  3  0  0  0  0  0  0
  188.8210  177.0440  139.1390 C   0  0  2  0  0  3  0  0  0  0  0  0
  191.1630  176.1190  138.7500 C   0  0  0  0  0  2  0  0  0  0  0  0
  192.5880  176.5630  138.4680 C   0  0  0  0  0  2  0  0  0  0  0  0
  193.0790  177.2910  139.5350 F   0  0  0  0  0  0  0  0  0  0  0  0
  188.1380  176.4230  143.3590 C   0  0  0  0  0  2  0  0  0  0  0  0
  189.3650  176.5290  144.2540 C   0  0  1  0  0  3  0  0  0  0  0  0
  191.6130  177.6560  143.1610 S   0  0  0  0  0  1  0  0  0  0  0  0
  190.6110  176.1710  143.4610 C   0  0  0  0  0  2  0  0  0  0  0  0
  189.4880  177.9470  144.7940 C   0  0  0  0  0  2  0  0  0  0  0  0
  189.5900  177.9430  146.3100 C   0  0  0  0  0  2  0  0  0  0  0  0
  190.5580  177.0440  146.7170 F   0  0  0  0  0  0  0  0  0  0  0  0
  1 24  1  6  0  0  0
  2  1  1  1  0  0  0
  2  3  1  0  0  0  0
  3  4  1  0  0  0  0
  3  6  2  0  0  0  0
  5  7  1  0  0  0  0
  7  4  1  0  0  0  0
  9  8  1  6  0  0  0
  9  5  1  0  0  0  0
  9  2  1  0  0  0  0
 11 10  2  1  0  0  0
 11  1  1  0  0  0  0
 12 11  1  0  0  0  0
 13 15  1  1  0  0  0
 13 18  1  0  0  0  0
 14 19  1  0  0  0  0
 14 13  1  0  0  0  0
 16 21  1  6  0  0  0
 16 20  1  0  0  0  0
 18 20  1  0  0  0  0
 19 17  1  1  0  0  0
 19 16  1  0  0  0  0
 20 12  1  1  0  0  0
 22 21  1  0  0  0  0
 22 23  1  0  0  0  0
 25 24  1  6  0  0  0
 25 28  1  0  0  0  0
 26 27  1  0  0  0  0
 27 25  1  0  0  0  0
 28 29  1  0  0  0  0
 29 30  1  0  0  0  0
M  END
>  <MODEL>
6

>  <REMARK>
 VINA RESULT:      -5.8      2.219      7.055
  Name = 
  11 active torsions:
  status: ('A' for Active; 'I' for Inactive)
    1  A    between atoms: C_3  and  C_11
    2  A    between atoms: C_3  and  C_19
    3  A    between atoms: S_4  and  C_13
    4  A    between atoms: S_4  and  C_23
    5  A    between atoms: C_5  and  C_9
    6  A    between atoms: C_6  and  C_8
    7  A    between atoms: C_6  and  C_9
    8  A    between atoms: C_6  and  C_21
    9  A    between atoms: C_7  and  C_13
   10  A    between atoms: C_8  and  C_13
   11  A    between atoms: C_23  and  C_29
                            x       y       z     vdW  Elec       q    Type
                         _______ _______ _______ _____ _____    ______ ____

>  <TORSDO>
F 11

$$$$
=
 OpenBabel10272413503D

 30 31  0  0  1  0  0  0  0  0999 V2000
  188.9810  176.9590  138.4360 C   0  0  2  0  0  3  0  0  0  0  0  0
  187.8510  177.1920  137.4120 C   0  0  1  0  0  3  0  0  0  0  0  0
  188.1270  178.4260  136.6010 C   0  0  0  0  0  0  0  0  0  0  0  0
  188.2130  178.3380  135.1130 C   0  0  0  0  0  2  0  0  0  0  0  0
  186.1710  176.3820  135.3310 S   0  0  0  0  0  0  0  0  0  0  0  0
  188.2510  179.5090  137.1500 O   0  0  0  0  0  0  0  0  0  0  0  0
  186.8810  177.8830  134.5400 C   0  0  0  0  0  2  0  0  0  0  0  0
  187.0490  174.8000  137.3460 C   0  0  0  0  0  1  0  0  0  0  0  0
  187.5120  175.9840  136.5160 C   0  0  2  0  0  3  0  0  0  0  0  0
  187.4440  178.4130  140.0620 O   0  0  0  0  0  0  0  0  0  0  0  0
  188.8770  177.9010  139.9970 S   0  0  1  0  0  0  0  0  0  0  0  0
  188.9820  176.7040  141.3400 C   0  0  0  0  0  2  0  0  0  0  0  0
  187.1140  178.0180  144.4280 C   0  0  2  0  0  3  0  0  0  0  0  0
  187.9290  177.2990  145.4990 C   0  0  0  0  0  2  0  0  0  0  0  0
  185.7610  177.9610  144.7580 O   0  0  0  0  0  1  0  0  0  0  0  0
  189.6590  176.6930  143.7710 C   0  0  1  0  0  3  0  0  0  0  0  0
  189.8970  178.6330  145.1980 O   0  0  0  0  0  1  0  0  0  0  0  0
  187.3350  177.3570  143.0740 C   0  0  0  0  0  2  0  0  0  0  0  0
  189.4160  177.3210  145.1510 C   0  0  1  0  0  3  0  0  0  0  0  0
  188.8140  177.3900  142.6880 C   0  0  2  0  0  3  0  0  0  0  0  0
  191.1530  176.7240  143.4490 C   0  0  0  0  0  2  0  0  0  0  0  0
  191.9540  175.9720  144.4980 C   0  0  0  0  0  2  0  0  0  0  0  0
  192.1540  174.6640  144.0960 F   0  0  0  0  0  0  0  0  0  0  0  0
  190.3540  177.0980  137.7920 C   0  0  0  0  0  2  0  0  0  0  0  0
  191.3460  176.1150  138.4000 C   0  0  1  0  0  3  0  0  0  0  0  0
  193.1380  174.3280  137.3450 S   0  0  0  0  0  1  0  0  0  0  0  0
  191.4130  174.8600  137.5450 C   0  0  0  0  0  2  0  0  0  0  0  0
  192.7240  176.7580  138.4800 C   0  0  0  0  0  2  0  0  0  0  0  0
  193.0870  177.0840  139.9200 C   0  0  0  0  0  2  0  0  0  0  0  0
  192.2210  178.0380  140.4210 F   0  0  0  0  0  0  0  0  0  0  0  0
  1 24  1  6  0  0  0
  1 11  1  0  0  0  0
  2  1  1  6  0  0  0
  3  6  2  0  0  0  0
  3  2  1  0  0  0  0
  4  3  1  0  0  0  0
  5  9  1  0  0  0  0
  7  4  1  0  0  0  0
  7  5  1  0  0  0  0
  9  8  1  1  0  0  0
  9  2  1  0  0  0  0
 11 10  2  6  0  0  0
 11 12  1  0  0  0  0
 13 15  1  1  0  0  0
 13 14  1  0  0  0  0
 16 21  1  6  0  0  0
 16 19  1  0  0  0  0
 18 13  1  0  0  0  0
 19 17  1  6  0  0  0
 19 14  1  0  0  0  0
 20 12  1  6  0  0  0
 20 18  1  0  0  0  0
 20 16  1  0  0  0  0
 21 22  1  0  0  0  0
 23 22  1  0  0  0  0
 24 25  1  0  0  0  0
 25 27  1  6  0  0  0
 25 28  1  0  0  0  0
 26 27  1  0  0  0  0
 28 29  1  0  0  0  0
 29 30  1  0  0  0  0
M  END
>  <MODEL>
7

>  <REMARK>
 VINA RESULT:      -5.8      2.647      5.567
  Name = 
  11 active torsions:
  status: ('A' for Active; 'I' for Inactive)
    1  A    between atoms: C_3  and  C_11
    2  A    between atoms: C_3  and  C_19
    3  A    between atoms: S_4  and  C_13
    4  A    between atoms: S_4  and  C_23
    5  A    between atoms: C_5  and  C_9
    6  A    between atoms: C_6  and  C_8
    7  A    between atoms: C_6  and  C_9
    8  A    between atoms: C_6  and  C_21
    9  A    between atoms: C_7  and  C_13
   10  A    between atoms: C_8  and  C_13
   11  A    between atoms: C_23  and  C_29
                            x       y       z     vdW  Elec       q    Type
                         _______ _______ _______ _____ _____    ______ ____

>  <TORSDO>
F 11

$$$$
=
 OpenBabel10272413503D

 30 31  0  0  1  0  0  0  0  0999 V2000
  188.0750  178.3140  141.3510 C   0  0  2  0  0  3  0  0  0  0  0  0
  188.6870  177.6000  140.1280 C   0  0  1  0  0  3  0  0  0  0  0  0
  187.9390  177.9700  138.8780 C   0  0  0  0  0  0  0  0  0  0  0  0
  188.6630  178.5900  137.7300 C   0  0  0  0  0  2  0  0  0  0  0  0
  190.8200  176.9010  138.4640 S   0  0  0  0  0  0  0  0  0  0  0  0
  186.7440  177.7370  138.7850 O   0  0  0  0  0  0  0  0  0  0  0  0
  189.7080  177.6260  137.1910 C   0  0  0  0  0  2  0  0  0  0  0  0
  190.9640  177.2190  141.1490 C   0  0  0  0  0  1  0  0  0  0  0  0
  190.2090  177.7750  139.9550 C   0  0  2  0  0  3  0  0  0  0  0  0
  188.4250  175.9510  142.5390 O   0  0  0  0  0  0  0  0  0  0  0  0
  188.0610  177.3800  142.9200 S   0  0  1  0  0  0  0  0  0  0  0  0
  189.4700  177.9550  143.8860 C   0  0  0  0  0  2  0  0  0  0  0  0
  187.1630  178.0500  146.9550 C   0  0  2  0  0  3  0  0  0  0  0  0
  187.8250  176.9360  147.7610 C   0  0  0  0  0  2  0  0  0  0  0  0
  185.7770  177.9290  147.0490 O   0  0  0  0  0  1  0  0  0  0  0  0
  189.7920  176.9720  146.1870 C   0  0  1  0  0  3  0  0  0  0  0  0
  189.7990  178.1950  148.2760 O   0  0  0  0  0  1  0  0  0  0  0  0
  187.5830  177.9570  145.4940 C   0  0  0  0  0  2  0  0  0  0  0  0
  189.3460  177.0260  147.6560 C   0  0  1  0  0  3  0  0  0  0  0  0
  189.1020  178.0720  145.3580 C   0  0  2  0  0  3  0  0  0  0  0  0
  191.3160  177.0600  146.1100 C   0  0  0  0  0  2  0  0  0  0  0  0
  191.9240  175.7120  145.7640 C   0  0  0  0  0  2  0  0  0  0  0  0
  191.9980  175.5620  144.3910 F   0  0  0  0  0  0  0  0  0  0  0  0
  186.7010  178.8880  141.0320 C   0  0  0  0  0  2  0  0  0  0  0  0
  185.6600  178.4040  142.0320 C   0  0  1  0  0  3  0  0  0  0  0  0
  183.7920  179.2250  143.8640 S   0  0  0  0  0  1  0  0  0  0  0  0
  185.4060  179.4840  143.0700 C   0  0  0  0  0  2  0  0  0  0  0  0
  184.3630  178.0720  141.3060 C   0  0  0  0  0  2  0  0  0  0  0  0
  184.2060  178.9270  140.0590 C   0  0  0  0  0  2  0  0  0  0  0  0
  183.4860  178.2390  139.1010 F   0  0  0  0  0  0  0  0  0  0  0  0
  1 24  1  6  0  0  0
  1 11  1  0  0  0  0
  2  1  1  1  0  0  0
  3  2  1  0  0  0  0
  4  3  1  0  0  0  0
  5  9  1  0  0  0  0
  6  3  2  0  0  0  0
  7  4  1  0  0  0  0
  7  5  1  0  0  0  0
  9  2  1  0  0  0  0
  9  8  1  1  0  0  0
 11 10  2  6  0  0  0
 11 12  1  0  0  0  0
 13 15  1  6  0  0  0
 13 14  1  0  0  0  0
 16 21  1  1  0  0  0
 16 19  1  0  0  0  0
 18 13  1  0  0  0  0
 19 14  1  0  0  0  0
 19 17  1  6  0  0  0
 20 12  1  6  0  0  0
 20 18  1  0  0  0  0
 20 16  1  0  0  0  0
 22 21  1  0  0  0  0
 23 22  1  0  0  0  0
 25 24  1  6  0  0  0
 25 27  1  0  0  0  0
 27 26  1  0  0  0  0
 28 25  1  0  0  0  0
 29 28  1  0  0  0  0
 30 29  1  0  0  0  0
M  END
>  <MODEL>
8

>  <REMARK>
 VINA RESULT:      -5.8      2.361      5.206
  Name = 
  11 active torsions:
  status: ('A' for Active; 'I' for Inactive)
    1  A    between atoms: C_3  and  C_11
    2  A    between atoms: C_3  and  C_19
    3  A    between atoms: S_4  and  C_13
    4  A    between atoms: S_4  and  C_23
    5  A    between atoms: C_5  and  C_9
    6  A    between atoms: C_6  and  C_8
    7  A    between atoms: C_6  and  C_9
    8  A    between atoms: C_6  and  C_21
    9  A    between atoms: C_7  and  C_13
   10  A    between atoms: C_8  and  C_13
   11  A    between atoms: C_23  and  C_29
                            x       y       z     vdW  Elec       q    Type
                         _______ _______ _______ _____ _____    ______ ____

>  <TORSDO>
F 11

$$$$
=
 OpenBabel10272413503D

 30 31  0  0  1  0  0  0  0  0999 V2000
  189.1450  177.0030  137.2890 C   0  0  2  0  0  3  0  0  0  0  0  0
  190.4550  176.4350  136.7040 C   0  0  1  0  0  3  0  0  0  0  0  0
  190.9600  175.3030  137.5530 C   0  0  0  0  0  0  0  0  0  0  0  0
  191.1790  173.9560  136.9490 C   0  0  0  0  0  2  0  0  0  0  0  0
  192.0020  175.3730  134.6330 S   0  0  0  0  0  0  0  0  0  0  0  0
  191.2220  175.4880  138.7310 O   0  0  0  0  0  0  0  0  0  0  0  0
  192.2500  174.0360  135.8720 C   0  0  0  0  0  2  0  0  0  0  0  0
  190.0740  177.2530  134.3460 C   0  0  0  0  0  1  0  0  0  0  0  0
  190.3990  176.0490  135.2120 C   0  0  2  0  0  3  0  0  0  0  0  0
  188.9600  179.5820  137.9450 O   0  0  0  0  0  0  0  0  0  0  0  0
  189.3140  178.2560  138.6050 S   0  0  1  0  0  0  0  0  0  0  0  0
  187.9740  177.9720  139.7760 C   0  0  0  0  0  2  0  0  0  0  0  0
  190.6130  177.1160  142.4320 C   0  0  2  0  0  3  0  0  0  0  0  0
  189.9700  177.8290  143.6180 C   0  0  0  0  0  2  0  0  0  0  0  0
  191.9890  177.3420  142.4450 O   0  0  0  0  0  1  0  0  0  0  0  0
  187.8450  178.1070  142.2920 C   0  0  1  0  0  3  0  0  0  0  0  0
  188.1600  176.2740  143.8410 O   0  0  0  0  0  1  0  0  0  0  0  0
  190.0250  177.6380  141.1280 C   0  0  0  0  0  2  0  0  0  0  0  0
  188.4570  177.6220  143.6150 C   0  0  1  0  0  3  0  0  0  0  0  0
  188.5120  177.4180  141.0870 C   0  0  2  0  0  3  0  0  0  0  0  0
  186.3320  177.8930  142.3170 C   0  0  0  0  0  2  0  0  0  0  0  0
  185.5910  179.2100  142.1660 C   0  0  0  0  0  2  0  0  0  0  0  0
  185.4480  179.5240  140.8280 F   0  0  0  0  0  0  0  0  0  0  0  0
  188.1890  175.8900  137.6980 C   0  0  0  0  0  2  0  0  0  0  0  0
  187.1450  175.6410  136.6180 C   0  0  1  0  0  3  0  0  0  0  0  0
  185.2610  173.7840  137.3410 S   0  0  0  0  0  1  0  0  0  0  0  0
  186.8440  174.1540  136.5290 C   0  0  0  0  0  2  0  0  0  0  0  0
  185.8700  176.4060  136.9480 C   0  0  0  0  0  2  0  0  0  0  0  0
  185.5220  177.3840  135.8380 C   0  0  0  0  0  2  0  0  0  0  0  0
  186.6440  178.1050  135.4740 F   0  0  0  0  0  0  0  0  0  0  0  0
  1 24  1  1  0  0  0
  1 11  1  0  0  0  0
  2  1  1  1  0  0  0
  2  3  1  0  0  0  0
  3  6  2  0  0  0  0
  4  3  1  0  0  0  0
  5  9  1  0  0  0  0
  5  7  1  0  0  0  0
  7  4  1  0  0  0  0
  9  8  1  6  0  0  0
  9  2  1  0  0  0  0
 11 10  2  6  0  0  0
 11 12  1  0  0  0  0
 13 15  1  6  0  0  0
 13 14  1  0  0  0  0
 16 21  1  1  0  0  0
 16 19  1  0  0  0  0
 18 13  1  0  0  0  0
 19 14  1  0  0  0  0
 19 17  1  6  0  0  0
 20 12  1  6  0  0  0
 20 18  1  0  0  0  0
 20 16  1  0  0  0  0
 22 21  1  0  0  0  0
 23 22  1  0  0  0  0
 25 27  1  1  0  0  0
 25 28  1  0  0  0  0
 25 24  1  0  0  0  0
 27 26  1  0  0  0  0
 29 28  1  0  0  0  0
 30 29  1  0  0  0  0
M  END
>  <MODEL>
9

>  <REMARK>
 VINA RESULT:      -5.6      3.376      6.274
  Name = 
  11 active torsions:
  status: ('A' for Active; 'I' for Inactive)
    1  A    between atoms: C_3  and  C_11
    2  A    between atoms: C_3  and  C_19
    3  A    between atoms: S_4  and  C_13
    4  A    between atoms: S_4  and  C_23
    5  A    between atoms: C_5  and  C_9
    6  A    between atoms: C_6  and  C_8
    7  A    between atoms: C_6  and  C_9
    8  A    between atoms: C_6  and  C_21
    9  A    between atoms: C_7  and  C_13
   10  A    between atoms: C_8  and  C_13
   11  A    between atoms: C_23  and  C_29
                            x       y       z     vdW  Elec       q    Type
                         _______ _______ _______ _____ _____    ______ ____

>  <TORSDO>
F 11

$$$$
