=
 OpenBabel10272400353D

 31 34  0  0  1  0  0  0  0  0999 V2000
  192.0210  176.3420  146.7760 C   0  0  1  0  0  3  0  0  0  0  0  0
  189.6720  177.6640  144.0950 C   0  0  0  0  0  0  0  0  0  0  0  0
  190.3890  177.5580  142.7910 C   0  0  0  0  0  0  0  0  0  0  0  0
  192.3790  177.7290  141.4260 C   0  0  0  0  0  3  0  0  0  0  0  0
  190.2530  177.4260  145.3020 C   0  0  0  0  0  0  0  0  0  0  0  0
  190.7660  175.9140  147.5130 C   0  0  0  0  0  2  0  0  0  0  0  0
  191.7570  177.8330  142.6700 C   0  0  0  0  0  3  0  0  0  0  0  0
  187.3710  177.8230  145.2780 C   0  0  1  0  0  3  0  0  0  0  0  0
  192.8760  175.2660  146.6410 F   0  0  0  0  0  0  0  0  0  0  0  0
  188.1530  177.0290  141.7100 C   0  0  0  0  0  2  0  0  0  0  0  0
  191.6570  177.3750  140.3310 N   0  0  0  0  0  0  0  0  0  0  0  0
  188.0120  176.9580  146.3500 C   0  0  0  0  0  2  0  0  0  0  0  0
  188.1620  177.7840  143.9540 C   0  0  2  0  0  3  0  0  0  0  0  0
  191.6600  176.8830  145.3970 C   0  0  0  0  0  2  0  0  0  0  0  0
  189.5960  176.7570  139.1500 C   0  0  0  0  0  1  0  0  0  0  0  0
  189.4040  177.5210  146.5640 C   0  0  1  0  0  3  0  0  0  0  0  0
  189.9890  177.0560  147.7680 O   0  0  0  0  0  0  0  0  0  0  0  0
  187.7000  176.7170  143.0670 N   0  0  0  0  0  2  0  0  0  0  0  0
  189.6560  177.2050  141.6360 C   0  0  0  0  0  0  0  0  0  0  0  0
  190.3240  177.1180  140.4010 C   0  0  0  0  0  0  0  0  0  0  0  0
  185.8890  177.5050  145.0970 C   0  0  0  0  0  2  0  0  0  0  0  0
  185.1960  179.8480  145.3090 C   0  0  0  0  0  2  0  0  0  0  0  0
  185.1340  178.7050  144.6220 C   0  0  0  0  0  0  0  0  0  0  0  0
  183.1480  179.4630  143.5310 O   0  0  0  0  0  1  0  0  0  0  0  0
  184.2040  178.5500  143.4550 C   0  0  1  0  0  3  0  0  0  0  0  0
  185.7080  179.8300  142.0760 O   0  0  0  0  0  1  0  0  0  0  0  0
  184.9440  178.6620  142.1190 C   0  0  2  0  0  3  0  0  0  0  0  0
  183.9660  178.6520  140.9540 C   0  0  0  0  0  2  0  0  0  0  0  0
  184.6210  179.1580  139.7140 C   0  0  0  0  0  0  0  0  0  0  0  0
  184.1550  180.3160  139.1050 O   0  0  0  0  0  0  0  0  0  0  0  0
  185.6130  178.5520  139.2350 O   0  0  0  0  0  1  0  0  0  0  0  0
  1  9  1  6  0  0  0
  1  6  1  0  0  0  0
  2  5  2  0  0  0  0
  3  2  1  0  0  0  0
  4  7  2  0  0  0  0
  5 14  1  0  0  0  0
  5 16  1  0  0  0  0
  6 17  1  0  0  0  0
  7  3  1  0  0  0  0
  8 21  1  6  0  0  0
  8 12  1  0  0  0  0
 10 18  1  0  0  0  0
 11 20  2  0  0  0  0
 11  4  1  0  0  0  0
 13 18  1  6  0  0  0
 13  2  1  0  0  0  0
 13  8  1  0  0  0  0
 14  1  1  0  0  0  0
 15 20  1  0  0  0  0
 16 12  1  6  0  0  0
 16 17  1  0  0  0  0
 19 10  1  0  0  0  0
 19  3  2  0  0  0  0
 20 19  1  0  0  0  0
 23 21  1  0  0  0  0
 23 22  2  0  0  0  0
 25 24  1  6  0  0  0
 25 23  1  0  0  0  0
 27 26  1  1  0  0  0
 27 25  1  0  0  0  0
 28 27  1  0  0  0  0
 29 28  1  0  0  0  0
 30 29  2  0  0  0  0
 31 29  1  0  0  0  0
M  END
>  <MODEL>
1

>  <REMARK>
 VINA RESULT:      -8.8      0.000      0.000
  Name = 
  6 active torsions:
  status: ('A' for Active; 'I' for Inactive)
    1  A    between atoms: C_1  and  C_24
    2  A    between atoms: C_9  and  C_22
    3  A    between atoms: C_9  and  C_23
    4  A    between atoms: C_15  and  C_23
    5  A    between atoms: C_19  and  C_22
    6  A    between atoms: C_19  and  C_24
                            x       y       z     vdW  Elec       q    Type
                         _______ _______ _______ _____ _____    ______ ____

>  <TORSDO>
F 6

$$$$
=
 OpenBabel10272400353D

 31 34  0  0  1  0  0  0  0  0999 V2000
  191.9330  176.2800  146.6910 C   0  0  1  0  0  3  0  0  0  0  0  0
  189.7070  177.6700  143.9400 C   0  0  0  0  0  0  0  0  0  0  0  0
  190.4660  177.5550  142.6600 C   0  0  0  0  0  0  0  0  0  0  0  0
  192.5060  177.6900  141.3660 C   0  0  0  0  0  3  0  0  0  0  0  0
  190.2410  177.4110  145.1640 C   0  0  0  0  0  0  0  0  0  0  0  0
  190.6440  175.8750  147.3810 C   0  0  0  0  0  2  0  0  0  0  0  0
  191.8440  177.8000  142.5880 C   0  0  0  0  0  3  0  0  0  0  0  0
  187.3710  177.8730  145.0430 C   0  0  1  0  0  3  0  0  0  0  0  0
  192.7680  175.1850  146.5780 F   0  0  0  0  0  0  0  0  0  0  0  0
  188.2580  177.0830  141.4990 C   0  0  0  0  0  2  0  0  0  0  0  0
  191.8150  177.3580  140.2440 N   0  0  0  0  0  0  0  0  0  0  0  0
  187.9560  176.9880  146.1310 C   0  0  0  0  0  2  0  0  0  0  0  0
  188.2060  177.8250  143.7470 C   0  0  2  0  0  3  0  0  0  0  0  0
  191.6320  176.8370  145.3040 C   0  0  0  0  0  2  0  0  0  0  0  0
  189.7830  176.7940  138.9890 C   0  0  0  0  0  1  0  0  0  0  0  0
  189.3510  177.5180  146.3970 C   0  0  1  0  0  3  0  0  0  0  0  0
  189.8840  177.0320  147.6170 O   0  0  0  0  0  0  0  0  0  0  0  0
  187.7520  176.7730  142.8380 N   0  0  0  0  0  2  0  0  0  0  0  0
  189.7660  177.2260  141.4780 C   0  0  0  0  0  0  0  0  0  0  0  0
  190.4750  177.1320  140.2670 C   0  0  0  0  0  0  0  0  0  0  0  0
  185.8900  177.5890  144.8100 C   0  0  0  0  0  2  0  0  0  0  0  0
  184.8680  179.0970  146.4520 C   0  0  0  0  0  2  0  0  0  0  0  0
  185.0500  178.7740  145.1700 C   0  0  0  0  0  0  0  0  0  0  0  0
  185.1810  179.8610  143.0460 O   0  0  0  0  0  1  0  0  0  0  0  0
  184.3130  179.4880  144.0770 C   0  0  1  0  0  3  0  0  0  0  0  0
  183.0100  178.8160  142.1650 O   0  0  0  0  0  1  0  0  0  0  0  0
  183.1400  178.6590  143.5470 C   0  0  2  0  0  3  0  0  0  0  0  0
  181.8390  179.0600  144.2270 C   0  0  0  0  0  2  0  0  0  0  0  0
  180.7370  179.1730  143.2290 C   0  0  0  0  0  0  0  0  0  0  0  0
  180.3740  180.4180  142.7330 O   0  0  0  0  0  0  0  0  0  0  0  0
  180.1550  178.1370  142.8160 O   0  0  0  0  0  1  0  0  0  0  0  0
  1  9  1  6  0  0  0
  1  6  1  0  0  0  0
  2  5  2  0  0  0  0
  3  2  1  0  0  0  0
  4  7  2  0  0  0  0
  5 14  1  0  0  0  0
  5 16  1  0  0  0  0
  6 17  1  0  0  0  0
  7  3  1  0  0  0  0
  8 21  1  6  0  0  0
  8 12  1  0  0  0  0
 10 18  1  0  0  0  0
 11 20  2  0  0  0  0
 11  4  1  0  0  0  0
 13 18  1  6  0  0  0
 13  2  1  0  0  0  0
 13  8  1  0  0  0  0
 14  1  1  0  0  0  0
 15 20  1  0  0  0  0
 16 12  1  6  0  0  0
 16 17  1  0  0  0  0
 19 10  1  0  0  0  0
 19  3  2  0  0  0  0
 20 19  1  0  0  0  0
 21 23  1  0  0  0  0
 23 22  2  0  0  0  0
 25 24  1  6  0  0  0
 25 23  1  0  0  0  0
 27 26  1  6  0  0  0
 27 25  1  0  0  0  0
 27 28  1  0  0  0  0
 29 28  1  0  0  0  0
 30 29  2  0  0  0  0
 31 29  1  0  0  0  0
M  END
>  <MODEL>
2

>  <REMARK>
 VINA RESULT:      -8.2      1.446      2.091
  Name = 
  6 active torsions:
  status: ('A' for Active; 'I' for Inactive)
    1  A    between atoms: C_1  and  C_24
    2  A    between atoms: C_9  and  C_22
    3  A    between atoms: C_9  and  C_23
    4  A    between atoms: C_15  and  C_23
    5  A    between atoms: C_19  and  C_22
    6  A    between atoms: C_19  and  C_24
                            x       y       z     vdW  Elec       q    Type
                         _______ _______ _______ _____ _____    ______ ____

>  <TORSDO>
F 6

$$$$
=
 OpenBabel10272400353D

 31 34  0  0  1  0  0  0  0  0999 V2000
  191.4070  177.5640  144.2960 C   0  0  1  0  0  3  0  0  0  0  0  0
  187.9180  177.4510  142.7870 C   0  0  0  0  0  0  0  0  0  0  0  0
  186.9540  177.7470  143.8870 C   0  0  0  0  0  0  0  0  0  0  0  0
  186.1970  177.5500  146.1760 C   0  0  0  0  0  3  0  0  0  0  0  0
  189.2510  177.2560  142.9790 C   0  0  0  0  0  0  0  0  0  0  0  0
  191.8670  178.0230  142.9260 C   0  0  0  0  0  2  0  0  0  0  0  0
  187.1320  177.2540  145.1860 C   0  0  0  0  0  3  0  0  0  0  0  0
  188.3250  177.4420  140.2270 C   0  0  1  0  0  3  0  0  0  0  0  0
  191.8410  178.4530  145.2600 F   0  0  0  0  0  0  0  0  0  0  0  0
  185.5180  178.9570  142.1770 C   0  0  0  0  0  2  0  0  0  0  0  0
  185.1070  178.3050  145.8800 N   0  0  0  0  0  0  0  0  0  0  0  0
  189.7400  177.8640  140.5860 C   0  0  0  0  0  2  0  0  0  0  0  0
  187.3420  177.6650  141.3960 C   0  0  2  0  0  3  0  0  0  0  0  0
  189.8850  177.4740  144.3340 C   0  0  0  0  0  2  0  0  0  0  0  0
  183.6540  179.5900  144.3760 C   0  0  0  0  0  1  0  0  0  0  0  0
  190.1440  177.0070  141.7700 C   0  0  1  0  0  3  0  0  0  0  0  0
  191.5440  177.0270  141.9910 O   0  0  0  0  0  0  0  0  0  0  0  0
  186.7290  178.9920  141.3550 N   0  0  0  0  0  2  0  0  0  0  0  0
  185.8060  178.5190  143.5990 C   0  0  0  0  0  0  0  0  0  0  0  0
  184.8860  178.7880  144.6280 C   0  0  0  0  0  0  0  0  0  0  0  0
  187.8530  178.0760  138.9220 C   0  0  0  0  0  2  0  0  0  0  0  0
  189.1620  178.8640  137.0030 C   0  0  0  0  0  2  0  0  0  0  0  0
  188.8500  177.8620  137.8270 C   0  0  0  0  0  0  0  0  0  0  0  0
  188.5400  175.7690  136.7160 O   0  0  0  0  0  1  0  0  0  0  0  0
  189.3700  176.4740  137.5940 C   0  0  1  0  0  3  0  0  0  0  0  0
  190.9300  175.8290  135.8760 O   0  0  0  0  0  1  0  0  0  0  0  0
  190.8200  176.4850  137.1040 C   0  0  2  0  0  3  0  0  0  0  0  0
  191.7400  175.8220  138.1180 C   0  0  0  0  0  2  0  0  0  0  0  0
  193.0470  176.5370  138.1880 C   0  0  0  0  0  0  0  0  0  0  0  0
  193.8340  176.6590  137.0510 O   0  0  0  0  0  0  0  0  0  0  0  0
  193.4230  177.0540  139.2720 O   0  0  0  0  0  1  0  0  0  0  0  0
  1 14  1  0  0  0  0
  1  9  1  1  0  0  0
  2  5  2  0  0  0  0
  2  3  1  0  0  0  0
  3  7  1  0  0  0  0
  5 14  1  0  0  0  0
  6  1  1  0  0  0  0
  7  4  2  0  0  0  0
  8 21  1  6  0  0  0
  8 12  1  0  0  0  0
  8 13  1  0  0  0  0
 10 19  1  0  0  0  0
 11  4  1  0  0  0  0
 13 18  1  1  0  0  0
 13  2  1  0  0  0  0
 15 20  1  0  0  0  0
 16 12  1  6  0  0  0
 16 17  1  0  0  0  0
 16  5  1  0  0  0  0
 17  6  1  0  0  0  0
 18 10  1  0  0  0  0
 19  3  2  0  0  0  0
 19 20  1  0  0  0  0
 20 11  2  0  0  0  0
 22 23  2  0  0  0  0
 23 21  1  0  0  0  0
 25 24  1  6  0  0  0
 25 23  1  0  0  0  0
 27 26  1  6  0  0  0
 27 25  1  0  0  0  0
 27 28  1  0  0  0  0
 28 29  1  0  0  0  0
 29 31  1  0  0  0  0
 30 29  2  0  0  0  0
M  END
>  <MODEL>
3

>  <REMARK>
 VINA RESULT:      -8.1      3.339      6.605
  Name = 
  6 active torsions:
  status: ('A' for Active; 'I' for Inactive)
    1  A    between atoms: C_1  and  C_24
    2  A    between atoms: C_9  and  C_22
    3  A    between atoms: C_9  and  C_23
    4  A    between atoms: C_15  and  C_23
    5  A    between atoms: C_19  and  C_22
    6  A    between atoms: C_19  and  C_24
                            x       y       z     vdW  Elec       q    Type
                         _______ _______ _______ _____ _____    ______ ____

>  <TORSDO>
F 6

$$$$
=
 OpenBabel10272400353D

 31 34  0  0  1  0  0  0  0  0999 V2000
  187.9140  177.2160  137.4250 C   0  0  1  0  0  3  0  0  0  0  0  0
  186.4680  178.6640  140.6290 C   0  0  0  0  0  0  0  0  0  0  0  0
  185.0110  178.8840  140.3950 C   0  0  0  0  0  0  0  0  0  0  0  0
  183.1470  179.5530  139.0050 C   0  0  0  0  0  3  0  0  0  0  0  0
  187.3460  178.2970  139.6570 C   0  0  0  0  0  0  0  0  0  0  0  0
  188.9070  176.5030  138.3230 C   0  0  0  0  0  2  0  0  0  0  0  0
  184.5170  179.3540  139.1710 C   0  0  0  0  0  3  0  0  0  0  0  0
  188.3330  178.3080  142.3940 C   0  0  1  0  0  3  0  0  0  0  0  0
  187.2880  176.3020  136.5980 F   0  0  0  0  0  0  0  0  0  0  0  0
  184.6200  178.2610  142.8250 C   0  0  0  0  0  2  0  0  0  0  0  0
  182.2930  179.3030  140.0320 N   0  0  0  0  0  0  0  0  0  0  0  0
  188.9360  177.3610  141.3700 C   0  0  0  0  0  2  0  0  0  0  0  0
  186.8480  178.6070  142.1010 C   0  0  2  0  0  3  0  0  0  0  0  0
  186.8690  177.9370  138.2690 C   0  0  0  0  0  2  0  0  0  0  0  0
  181.7350  178.6350  142.3260 C   0  0  0  0  0  1  0  0  0  0  0  0
  188.8050  178.0570  140.0290 C   0  0  1  0  0  3  0  0  0  0  0  0
  189.6310  177.4700  139.0390 O   0  0  0  0  0  0  0  0  0  0  0  0
  185.9540  177.6600  142.7660 N   0  0  0  0  0  2  0  0  0  0  0  0
  184.1050  178.6450  141.4530 C   0  0  0  0  0  0  0  0  0  0  0  0
  182.7330  178.8650  141.2410 C   0  0  0  0  0  0  0  0  0  0  0  0
  188.5750  177.8330  143.8240 C   0  0  0  0  0  2  0  0  0  0  0  0
  190.6510  179.1390  143.8550 C   0  0  0  0  0  2  0  0  0  0  0  0
  190.0030  178.0310  144.2230 C   0  0  0  0  0  0  0  0  0  0  0  0
  191.9790  176.6950  144.3460 O   0  0  0  0  0  1  0  0  0  0  0  0
  190.7170  176.9060  144.9100 C   0  0  1  0  0  3  0  0  0  0  0  0
  191.9800  176.5600  146.9320 O   0  0  0  0  0  1  0  0  0  0  0  0
  190.8110  177.1290  146.4220 C   0  0  2  0  0  3  0  0  0  0  0  0
  189.6050  176.5360  147.1340 C   0  0  0  0  0  2  0  0  0  0  0  0
  188.7400  177.6160  147.6920 C   0  0  0  0  0  0  0  0  0  0  0  0
  189.2210  178.4370  148.7040 O   0  0  0  0  0  1  0  0  0  0  0  0
  187.5870  177.8010  147.2270 O   0  0  0  0  0  0  0  0  0  0  0  0
  1  9  1  6  0  0  0
  1 14  1  0  0  0  0
  1  6  1  0  0  0  0
  3  2  1  0  0  0  0
  3 19  1  0  0  0  0
  4  7  1  0  0  0  0
  4 11  2  0  0  0  0
  5 16  1  0  0  0  0
  5  2  2  0  0  0  0
  6 17  1  0  0  0  0
  7  3  2  0  0  0  0
  8 21  1  1  0  0  0
 11 20  1  0  0  0  0
 12  8  1  0  0  0  0
 13  2  1  6  0  0  0
 13  8  1  0  0  0  0
 13 18  1  0  0  0  0
 14  5  1  0  0  0  0
 16 12  1  1  0  0  0
 17 16  1  0  0  0  0
 18 10  1  0  0  0  0
 19 10  1  0  0  0  0
 20 19  2  0  0  0  0
 20 15  1  0  0  0  0
 21 23  1  0  0  0  0
 22 23  2  0  0  0  0
 23 25  1  0  0  0  0
 25 24  1  6  0  0  0
 25 27  1  0  0  0  0
 27 26  1  1  0  0  0
 27 28  1  0  0  0  0
 28 29  1  0  0  0  0
 29 30  1  0  0  0  0
 31 29  2  0  0  0  0
M  END
>  <MODEL>
4

>  <REMARK>
 VINA RESULT:      -7.9      3.408      7.578
  Name = 
  6 active torsions:
  status: ('A' for Active; 'I' for Inactive)
    1  A    between atoms: C_1  and  C_24
    2  A    between atoms: C_9  and  C_22
    3  A    between atoms: C_9  and  C_23
    4  A    between atoms: C_15  and  C_23
    5  A    between atoms: C_19  and  C_22
    6  A    between atoms: C_19  and  C_24
                            x       y       z     vdW  Elec       q    Type
                         _______ _______ _______ _____ _____    ______ ____

>  <TORSDO>
F 6

$$$$
=
 OpenBabel10272400353D

 31 34  0  0  1  0  0  0  0  0999 V2000
  191.4280  177.3820  144.0320 C   0  0  1  0  0  3  0  0  0  0  0  0
  187.9680  177.4700  142.4570 C   0  0  0  0  0  0  0  0  0  0  0  0
  186.9930  177.7410  143.5540 C   0  0  0  0  0  0  0  0  0  0  0  0
  186.1840  177.4490  145.8150 C   0  0  0  0  0  3  0  0  0  0  0  0
  189.2890  177.2200  142.6620 C   0  0  0  0  0  0  0  0  0  0  0  0
  191.9310  177.8980  142.6970 C   0  0  0  0  0  2  0  0  0  0  0  0
  187.1290  177.1730  144.8270 C   0  0  0  0  0  3  0  0  0  0  0  0
  188.4240  177.5830  139.9080 C   0  0  1  0  0  3  0  0  0  0  0  0
  191.8720  178.2040  145.0500 F   0  0  0  0  0  0  0  0  0  0  0  0
  185.6320  179.0880  141.8860 C   0  0  0  0  0  2  0  0  0  0  0  0
  185.1270  178.2560  145.5400 N   0  0  0  0  0  0  0  0  0  0  0  0
  189.8460  177.9360  140.3140 C   0  0  0  0  0  2  0  0  0  0  0  0
  187.4270  177.7770  141.0690 C   0  0  2  0  0  3  0  0  0  0  0  0
  189.9030  177.3430  144.0380 C   0  0  0  0  0  2  0  0  0  0  0  0
  183.7480  179.6680  144.0820 C   0  0  0  0  0  1  0  0  0  0  0  0
  190.1980  177.0040  141.4570 C   0  0  1  0  0  3  0  0  0  0  0  0
  191.5920  176.9640  141.7040 O   0  0  0  0  0  0  0  0  0  0  0  0
  186.8600  179.1250  141.0890 N   0  0  0  0  0  2  0  0  0  0  0  0
  185.8770  178.5650  143.2870 C   0  0  0  0  0  0  0  0  0  0  0  0
  184.9470  178.8110  144.3130 C   0  0  0  0  0  0  0  0  0  0  0  0
  188.0000  178.3010  138.6300 C   0  0  0  0  0  2  0  0  0  0  0  0
  185.9330  177.4170  137.6500 C   0  0  0  0  0  2  0  0  0  0  0  0
  187.2660  177.3770  137.7110 C   0  0  0  0  0  0  0  0  0  0  0  0
  187.2940  175.7750  135.9390 O   0  0  0  0  0  1  0  0  0  0  0  0
  188.0450  176.3230  136.9830 C   0  0  1  0  0  3  0  0  0  0  0  0
  189.2240  177.5950  135.3110 O   0  0  0  0  0  1  0  0  0  0  0  0
  189.3920  176.8540  136.4830 C   0  0  2  0  0  3  0  0  0  0  0  0
  190.3640  175.7130  136.2270 C   0  0  0  0  0  2  0  0  0  0  0  0
  190.5270  174.8770  137.4510 C   0  0  0  0  0  0  0  0  0  0  0  0
  190.0650  173.5680  137.4640 O   0  0  0  0  0  0  0  0  0  0  0  0
  191.1090  175.3480  138.4610 O   0  0  0  0  0  1  0  0  0  0  0  0
  1 14  1  0  0  0  0
  1  9  1  1  0  0  0
  2  5  2  0  0  0  0
  2  3  1  0  0  0  0
  3  7  1  0  0  0  0
  5 14  1  0  0  0  0
  6  1  1  0  0  0  0
  7  4  2  0  0  0  0
  8 21  1  6  0  0  0
  8 12  1  0  0  0  0
  8 13  1  0  0  0  0
 10 19  1  0  0  0  0
 11  4  1  0  0  0  0
 13 18  1  1  0  0  0
 13  2  1  0  0  0  0
 15 20  1  0  0  0  0
 16 12  1  6  0  0  0
 16 17  1  0  0  0  0
 16  5  1  0  0  0  0
 17  6  1  0  0  0  0
 18 10  1  0  0  0  0
 19  3  2  0  0  0  0
 19 20  1  0  0  0  0
 20 11  2  0  0  0  0
 22 23  2  0  0  0  0
 23 21  1  0  0  0  0
 25 24  1  6  0  0  0
 25 23  1  0  0  0  0
 27 26  1  6  0  0  0
 27 25  1  0  0  0  0
 28 27  1  0  0  0  0
 28 29  1  0  0  0  0
 29 30  2  0  0  0  0
 29 31  1  0  0  0  0
M  END
>  <MODEL>
5

>  <REMARK>
 VINA RESULT:      -7.9      3.295      6.283
  Name = 
  6 active torsions:
  status: ('A' for Active; 'I' for Inactive)
    1  A    between atoms: C_1  and  C_24
    2  A    between atoms: C_9  and  C_22
    3  A    between atoms: C_9  and  C_23
    4  A    between atoms: C_15  and  C_23
    5  A    between atoms: C_19  and  C_22
    6  A    between atoms: C_19  and  C_24
                            x       y       z     vdW  Elec       q    Type
                         _______ _______ _______ _____ _____    ______ ____

>  <TORSDO>
F 6

$$$$
=
 OpenBabel10272400353D

 31 34  0  0  1  0  0  0  0  0999 V2000
  187.4780  177.5720  137.9730 C   0  0  1  0  0  3  0  0  0  0  0  0
  188.0850  178.1430  141.6830 C   0  0  0  0  0  0  0  0  0  0  0  0
  186.7580  178.4130  142.3090 C   0  0  0  0  0  0  0  0  0  0  0  0
  184.5560  179.4140  142.3020 C   0  0  0  0  0  3  0  0  0  0  0  0
  188.2840  178.0400  140.3410 C   0  0  0  0  0  0  0  0  0  0  0  0
  188.6840  176.6530  138.0270 C   0  0  0  0  0  2  0  0  0  0  0  0
  185.7760  179.1820  141.6700 C   0  0  0  0  0  3  0  0  0  0  0  0
  190.5220  177.3470  142.0660 C   0  0  1  0  0  3  0  0  0  0  0  0
  186.4010  176.9010  137.4250 F   0  0  0  0  0  0  0  0  0  0  0  0
  187.5840  177.1850  144.3720 C   0  0  0  0  0  2  0  0  0  0  0  0
  184.3220  178.9070  143.5410 N   0  0  0  0  0  0  0  0  0  0  0  0
  190.3820  176.6970  140.6990 C   0  0  0  0  0  2  0  0  0  0  0  0
  189.1520  177.7090  142.6760 C   0  0  2  0  0  3  0  0  0  0  0  0
  187.1200  178.0500  139.3760 C   0  0  0  0  0  2  0  0  0  0  0  0
  184.9320  177.6700  145.5700 C   0  0  0  0  0  1  0  0  0  0  0  0
  189.6800  177.7140  139.8220 C   0  0  1  0  0  3  0  0  0  0  0  0
  189.7950  177.4040  138.4440 O   0  0  0  0  0  0  0  0  0  0  0  0
  188.6050  176.6210  143.4860 N   0  0  0  0  0  2  0  0  0  0  0  0
  186.4980  177.9080  143.6030 C   0  0  0  0  0  0  0  0  0  0  0  0
  185.2540  178.1730  144.2030 C   0  0  0  0  0  0  0  0  0  0  0  0
  191.3950  176.5200  143.0060 C   0  0  0  0  0  2  0  0  0  0  0  0
  191.8070  178.4150  144.5080 C   0  0  0  0  0  2  0  0  0  0  0  0
  191.4530  177.1350  144.3680 C   0  0  0  0  0  0  0  0  0  0  0  0
  192.3560  175.4190  145.7640 O   0  0  0  0  0  1  0  0  0  0  0  0
  191.2510  176.2510  145.5620 C   0  0  1  0  0  3  0  0  0  0  0  0
  191.9320  176.9130  147.7760 O   0  0  0  0  0  1  0  0  0  0  0  0
  190.9240  177.0600  146.8200 C   0  0  2  0  0  3  0  0  0  0  0  0
  189.5930  176.6240  147.4150 C   0  0  0  0  0  2  0  0  0  0  0  0
  188.8650  177.7930  147.9880 C   0  0  0  0  0  0  0  0  0  0  0  0
  187.4830  177.8720  147.8770 O   0  0  0  0  0  0  0  0  0  0  0  0
  189.5000  178.6920  148.5960 O   0  0  0  0  0  1  0  0  0  0  0  0
  1  9  1  1  0  0  0
  1  6  1  0  0  0  0
  1 14  1  0  0  0  0
  2  3  1  0  0  0  0
  3 19  1  0  0  0  0
  4 11  2  0  0  0  0
  5  2  2  0  0  0  0
  6 17  1  0  0  0  0
  7  4  1  0  0  0  0
  7  3  2  0  0  0  0
  8 13  1  0  0  0  0
  8 21  1  1  0  0  0
 11 20  1  0  0  0  0
 12  8  1  0  0  0  0
 13  2  1  6  0  0  0
 13 18  1  0  0  0  0
 14  5  1  0  0  0  0
 16  5  1  0  0  0  0
 16 12  1  1  0  0  0
 17 16  1  0  0  0  0
 18 10  1  0  0  0  0
 19 20  2  0  0  0  0
 19 10  1  0  0  0  0
 20 15  1  0  0  0  0
 21 23  1  0  0  0  0
 23 22  2  0  0  0  0
 23 25  1  0  0  0  0
 25 24  1  1  0  0  0
 25 27  1  0  0  0  0
 27 28  1  0  0  0  0
 27 26  1  1  0  0  0
 28 29  1  0  0  0  0
 29 31  1  0  0  0  0
 30 29  2  0  0  0  0
M  END
>  <MODEL>
6

>  <REMARK>
 VINA RESULT:      -7.9      3.277      7.444
  Name = 
  6 active torsions:
  status: ('A' for Active; 'I' for Inactive)
    1  A    between atoms: C_1  and  C_24
    2  A    between atoms: C_9  and  C_22
    3  A    between atoms: C_9  and  C_23
    4  A    between atoms: C_15  and  C_23
    5  A    between atoms: C_19  and  C_22
    6  A    between atoms: C_19  and  C_24
                            x       y       z     vdW  Elec       q    Type
                         _______ _______ _______ _____ _____    ______ ____

>  <TORSDO>
F 6

$$$$
=
 OpenBabel10272400353D

 31 34  0  0  1  0  0  0  0  0999 V2000
  188.2550  177.0450  137.3350 C   0  0  1  0  0  3  0  0  0  0  0  0
  187.3430  178.3840  140.7750 C   0  0  0  0  0  0  0  0  0  0  0  0
  185.8840  178.6940  140.7530 C   0  0  0  0  0  0  0  0  0  0  0  0
  183.8940  179.5390  139.6670 C   0  0  0  0  0  3  0  0  0  0  0  0
  188.0590  178.0260  139.6750 C   0  0  0  0  0  0  0  0  0  0  0  0
  189.3150  176.2300  138.0520 C   0  0  0  0  0  2  0  0  0  0  0  0
  185.2600  179.2590  139.6330 C   0  0  0  0  0  3  0  0  0  0  0  0
  189.4030  177.8290  142.2480 C   0  0  1  0  0  3  0  0  0  0  0  0
  187.4710  176.2140  136.5580 F   0  0  0  0  0  0  0  0  0  0  0  0
  185.7850  177.9570  143.1810 C   0  0  0  0  0  2  0  0  0  0  0  0
  183.1730  179.2780  140.7870 N   0  0  0  0  0  0  0  0  0  0  0  0
  189.8040  176.9110  141.1060 C   0  0  0  0  0  2  0  0  0  0  0  0
  187.9130  178.2230  142.1760 C   0  0  2  0  0  3  0  0  0  0  0  0
  187.3790  177.7720  138.3490 C   0  0  0  0  0  2  0  0  0  0  0  0
  182.8880  178.5120  143.1010 C   0  0  0  0  0  1  0  0  0  0  0  0
  189.5370  177.6880  139.8310 C   0  0  1  0  0  3  0  0  0  0  0  0
  190.1860  177.1140  138.7090 O   0  0  0  0  0  0  0  0  0  0  0  0
  187.0600  177.2890  142.9100 N   0  0  0  0  0  2  0  0  0  0  0  0
  185.1160  178.4440  141.9120 C   0  0  0  0  0  0  0  0  0  0  0  0
  183.7430  178.7490  141.9020 C   0  0  0  0  0  0  0  0  0  0  0  0
  189.8060  177.2620  143.6060 C   0  0  0  0  0  2  0  0  0  0  0  0
  190.8790  179.3380  144.3510 C   0  0  0  0  0  2  0  0  0  0  0  0
  190.0130  178.3540  144.6060 C   0  0  0  0  0  0  0  0  0  0  0  0
  187.9590  178.3790  145.8250 O   0  0  0  0  0  1  0  0  0  0  0  0
  189.3440  178.2370  145.9440 C   0  0  1  0  0  3  0  0  0  0  0  0
  188.6920  176.5360  147.5190 O   0  0  0  0  0  1  0  0  0  0  0  0
  189.7140  176.9320  146.6530 C   0  0  2  0  0  3  0  0  0  0  0  0
  191.0100  177.0860  147.4340 C   0  0  0  0  0  2  0  0  0  0  0  0
  192.0020  176.0540  147.0170 C   0  0  0  0  0  0  0  0  0  0  0  0
  192.9260  175.5680  147.9330 O   0  0  0  0  0  1  0  0  0  0  0  0
  191.9830  175.6020  145.8430 O   0  0  0  0  0  0  0  0  0  0  0  0
  1  9  1  1  0  0  0
  1  6  1  0  0  0  0
  1 14  1  0  0  0  0
  3  2  1  0  0  0  0
  3 19  1  0  0  0  0
  4 11  2  0  0  0  0
  5 16  1  0  0  0  0
  5  2  2  0  0  0  0
  6 17  1  0  0  0  0
  7  4  1  0  0  0  0
  7  3  2  0  0  0  0
  8 21  1  1  0  0  0
 11 20  1  0  0  0  0
 12  8  1  0  0  0  0
 13  2  1  6  0  0  0
 13  8  1  0  0  0  0
 13 18  1  0  0  0  0
 14  5  1  0  0  0  0
 16 12  1  1  0  0  0
 17 16  1  0  0  0  0
 18 10  1  0  0  0  0
 19 10  1  0  0  0  0
 20 19  2  0  0  0  0
 20 15  1  0  0  0  0
 21 23  1  0  0  0  0
 22 23  2  0  0  0  0
 23 25  1  0  0  0  0
 25 24  1  6  0  0  0
 25 27  1  0  0  0  0
 27 28  1  0  0  0  0
 27 26  1  1  0  0  0
 29 28  1  0  0  0  0
 29 30  1  0  0  0  0
 31 29  2  0  0  0  0
M  END
>  <MODEL>
7

>  <REMARK>
 VINA RESULT:      -7.8      3.300      7.441
  Name = 
  6 active torsions:
  status: ('A' for Active; 'I' for Inactive)
    1  A    between atoms: C_1  and  C_24
    2  A    between atoms: C_9  and  C_22
    3  A    between atoms: C_9  and  C_23
    4  A    between atoms: C_15  and  C_23
    5  A    between atoms: C_19  and  C_22
    6  A    between atoms: C_19  and  C_24
                            x       y       z     vdW  Elec       q    Type
                         _______ _______ _______ _____ _____    ______ ____

>  <TORSDO>
F 6

$$$$
=
 OpenBabel10272400353D

 31 34  0  0  1  0  0  0  0  0999 V2000
  184.7370  178.5450  138.8210 C   0  0  1  0  0  3  0  0  0  0  0  0
  186.6370  178.6030  142.1140 C   0  0  0  0  0  0  0  0  0  0  0  0
  185.6320  178.8080  143.1980 C   0  0  0  0  0  0  0  0  0  0  0  0
  183.6340  179.8370  144.0930 C   0  0  0  0  0  3  0  0  0  0  0  0
  186.3470  178.6780  140.7870 C   0  0  0  0  0  0  0  0  0  0  0  0
  185.8260  177.6090  138.3330 C   0  0  0  0  0  2  0  0  0  0  0  0
  184.5390  179.6720  143.0460 C   0  0  0  0  0  3  0  0  0  0  0  0
  188.9990  177.7240  141.5090 C   0  0  1  0  0  3  0  0  0  0  0  0
  183.4970  177.9720  138.6150 F   0  0  0  0  0  0  0  0  0  0  0  0
  187.0490  177.3000  144.6700 C   0  0  0  0  0  2  0  0  0  0  0  0
  183.8170  179.1720  145.2630 N   0  0  0  0  0  0  0  0  0  0  0  0
  188.3500  177.2660  140.2140 C   0  0  0  0  0  2  0  0  0  0  0  0
  187.9540  178.0220  142.6040 C   0  0  2  0  0  3  0  0  0  0  0  0
  184.9230  178.8360  140.3060 C   0  0  0  0  0  2  0  0  0  0  0  0
  185.0180  177.6630  146.7810 C   0  0  0  0  0  1  0  0  0  0  0  0
  187.4500  178.4030  139.7710 C   0  0  1  0  0  3  0  0  0  0  0  0
  187.0570  178.2780  138.4160 O   0  0  0  0  0  0  0  0  0  0  0  0
  187.6580  176.8440  143.4190 N   0  0  0  0  0  2  0  0  0  0  0  0
  185.8100  178.1380  144.4290 C   0  0  0  0  0  0  0  0  0  0  0  0
  184.8740  178.3400  145.4590 C   0  0  0  0  0  0  0  0  0  0  0  0
  190.0920  176.7640  141.9720 C   0  0  0  0  0  2  0  0  0  0  0  0
  192.2950  177.5490  141.2340 C   0  0  0  0  0  2  0  0  0  0  0  0
  191.3810  177.4860  142.2040 C   0  0  0  0  0  0  0  0  0  0  0  0
  190.7590  178.9930  143.9510 O   0  0  0  0  0  1  0  0  0  0  0  0
  191.6740  178.0020  143.5820 C   0  0  1  0  0  3  0  0  0  0  0  0
  191.8410  175.6330  143.9820 O   0  0  0  0  0  1  0  0  0  0  0  0
  191.7210  176.8730  144.6140 C   0  0  2  0  0  3  0  0  0  0  0  0
  190.4740  176.8800  145.4850 C   0  0  0  0  0  2  0  0  0  0  0  0
  190.8420  176.9030  146.9300 C   0  0  0  0  0  0  0  0  0  0  0  0
  192.1100  176.5030  147.3310 O   0  0  0  0  0  0  0  0  0  0  0  0
  190.0130  177.3130  147.7830 O   0  0  0  0  0  1  0  0  0  0  0  0
  1  9  1  1  0  0  0
  1 14  1  0  0  0  0
  2  3  1  0  0  0  0
  3 19  1  0  0  0  0
  4 11  2  0  0  0  0
  5  2  2  0  0  0  0
  6 17  1  0  0  0  0
  6  1  1  0  0  0  0
  7  3  2  0  0  0  0
  7  4  1  0  0  0  0
  8 21  1  1  0  0  0
  8 13  1  0  0  0  0
 11 20  1  0  0  0  0
 12  8  1  0  0  0  0
 13  2  1  6  0  0  0
 13 18  1  0  0  0  0
 14  5  1  0  0  0  0
 16 12  1  1  0  0  0
 16  5  1  0  0  0  0
 17 16  1  0  0  0  0
 18 10  1  0  0  0  0
 19 10  1  0  0  0  0
 19 20  2  0  0  0  0
 20 15  1  0  0  0  0
 21 23  1  0  0  0  0
 22 23  2  0  0  0  0
 23 25  1  0  0  0  0
 25 24  1  1  0  0  0
 25 27  1  0  0  0  0
 27 26  1  6  0  0  0
 27 28  1  0  0  0  0
 28 29  1  0  0  0  0
 29 30  2  0  0  0  0
 29 31  1  0  0  0  0
M  END
>  <MODEL>
8

>  <REMARK>
 VINA RESULT:      -7.7      3.094      7.886
  Name = 
  6 active torsions:
  status: ('A' for Active; 'I' for Inactive)
    1  A    between atoms: C_1  and  C_24
    2  A    between atoms: C_9  and  C_22
    3  A    between atoms: C_9  and  C_23
    4  A    between atoms: C_15  and  C_23
    5  A    between atoms: C_19  and  C_22
    6  A    between atoms: C_19  and  C_24
                            x       y       z     vdW  Elec       q    Type
                         _______ _______ _______ _____ _____    ______ ____

>  <TORSDO>
F 6

$$$$
=
 OpenBabel10272400353D

 31 34  0  0  1  0  0  0  0  0999 V2000
  190.5530  177.0150  146.3300 C   0  0  1  0  0  3  0  0  0  0  0  0
  187.7300  177.3360  143.8030 C   0  0  0  0  0  0  0  0  0  0  0  0
  186.5180  177.7790  144.5520 C   0  0  0  0  0  0  0  0  0  0  0  0
  185.0630  177.7300  146.4840 C   0  0  0  0  0  3  0  0  0  0  0  0
  188.8980  176.9700  144.3980 C   0  0  0  0  0  0  0  0  0  0  0  0
  191.4770  177.3820  145.1830 C   0  0  0  0  0  2  0  0  0  0  0  0
  186.2140  177.2920  145.8300 C   0  0  0  0  0  3  0  0  0  0  0  0
  188.9130  177.2220  141.4990 C   0  0  1  0  0  3  0  0  0  0  0  0
  190.7770  177.8580  147.4010 F   0  0  0  0  0  0  0  0  0  0  0  0
  185.8630  179.1340  142.5060 C   0  0  0  0  0  2  0  0  0  0  0  0
  184.2310  178.6170  145.8790 N   0  0  0  0  0  0  0  0  0  0  0  0
  190.1880  177.4590  142.2920 C   0  0  0  0  0  2  0  0  0  0  0  0
  187.6530  177.5960  142.3060 C   0  0  2  0  0  3  0  0  0  0  0  0
  189.0990  177.1280  145.8880 C   0  0  0  0  0  2  0  0  0  0  0  0
  183.5060  180.0530  144.0260 C   0  0  0  0  0  1  0  0  0  0  0  0
  190.0840  176.5800  143.5240 C   0  0  1  0  0  3  0  0  0  0  0  0
  191.3330  176.4180  144.1720 O   0  0  0  0  0  0  0  0  0  0  0  0
  187.2640  178.9920  142.1060 N   0  0  0  0  0  2  0  0  0  0  0  0
  185.6310  178.6900  143.9360 C   0  0  0  0  0  0  0  0  0  0  0  0
  184.4790  179.0990  144.6320 C   0  0  0  0  0  0  0  0  0  0  0  0
  188.9620  177.8860  140.1260 C   0  0  0  0  0  2  0  0  0  0  0  0
  190.4710  176.3190  138.9930 C   0  0  0  0  0  2  0  0  0  0  0  0
  189.2650  176.8870  139.0550 C   0  0  0  0  0  0  0  0  0  0  0  0
  187.7670  177.8690  137.4730 O   0  0  0  0  0  1  0  0  0  0  0  0
  188.2420  176.6560  137.9820 C   0  0  1  0  0  3  0  0  0  0  0  0
  188.8970  176.4670  135.6710 O   0  0  0  0  0  1  0  0  0  0  0  0
  188.7810  175.7550  136.8680 C   0  0  2  0  0  3  0  0  0  0  0  0
  187.8730  174.5520  136.6560 C   0  0  0  0  0  2  0  0  0  0  0  0
  188.6190  173.2830  136.8950 C   0  0  0  0  0  0  0  0  0  0  0  0
  189.9230  173.3220  137.3700 O   0  0  0  0  0  1  0  0  0  0  0  0
  188.0550  172.1770  136.6950 O   0  0  0  0  0  0  0  0  0  0  0  0
  1  9  1  1  0  0  0
  2  5  2  0  0  0  0
  2  3  1  0  0  0  0
  3  7  1  0  0  0  0
  5 14  1  0  0  0  0
  6  1  1  0  0  0  0
  7  4  2  0  0  0  0
  8 21  1  6  0  0  0
  8 12  1  0  0  0  0
  8 13  1  0  0  0  0
 10 19  1  0  0  0  0
 11  4  1  0  0  0  0
 13 18  1  1  0  0  0
 13  2  1  0  0  0  0
 14  1  1  0  0  0  0
 15 20  1  0  0  0  0
 16 12  1  6  0  0  0
 16 17  1  0  0  0  0
 16  5  1  0  0  0  0
 17  6  1  0  0  0  0
 18 10  1  0  0  0  0
 19  3  2  0  0  0  0
 19 20  1  0  0  0  0
 20 11  2  0  0  0  0
 22 23  2  0  0  0  0
 23 21  1  0  0  0  0
 25 24  1  6  0  0  0
 25 23  1  0  0  0  0
 27 26  1  6  0  0  0
 27 25  1  0  0  0  0
 28 27  1  0  0  0  0
 28 29  1  0  0  0  0
 29 30  1  0  0  0  0
 31 29  2  0  0  0  0
M  END
>  <MODEL>
9

>  <REMARK>
 VINA RESULT:      -7.5      2.885      6.048
  Name = 
  6 active torsions:
  status: ('A' for Active; 'I' for Inactive)
    1  A    between atoms: C_1  and  C_24
    2  A    between atoms: C_9  and  C_22
    3  A    between atoms: C_9  and  C_23
    4  A    between atoms: C_15  and  C_23
    5  A    between atoms: C_19  and  C_22
    6  A    between atoms: C_19  and  C_24
                            x       y       z     vdW  Elec       q    Type
                         _______ _______ _______ _____ _____    ______ ____

>  <TORSDO>
F 6

$$$$
