=
 OpenBabel10272401593D

 28 29  0  0  1  0  0  0  0  0999 V2000
  190.4660  175.4910  142.5390 O   0  0  0  0  0  1  0  0  0  0  0  0
  188.8710  177.4880  140.9620 C   0  0  0  0  0  2  0  0  0  0  0  0
  190.5660  177.7450  143.3780 C   0  0  2  0  0  3  0  0  0  0  0  0
  188.5850  178.6040  141.9560 C   0  0  0  0  0  2  0  0  0  0  0  0
  190.9190  176.7770  142.2380 C   0  0  2  0  0  3  0  0  0  0  0  0
  190.3750  177.2550  140.8870 C   0  0  1  0  0  3  0  0  0  0  0  0
  189.1080  178.2650  143.3640 C   0  0  1  0  0  3  0  0  0  0  0  0
  188.1080  177.4810  144.2580 C   0  0  1  0  0  0  0  0  0  0  0  0
  187.6310  176.2250  143.5500 C   0  0  0  0  0  1  0  0  0  0  0  0
  189.0460  177.8750  146.5450 C   0  0  0  0  0  3  0  0  0  0  0  0
  188.7500  177.0360  145.5510 C   0  0  0  0  0  3  0  0  0  0  0  0
  189.6800  177.3590  147.7890 C   0  0  0  0  0  1  0  0  0  0  0  0
  186.8540  178.3170  144.5530 C   0  0  0  0  0  2  0  0  0  0  0  0
  185.7770  177.5570  145.3270 C   0  0  0  0  0  2  0  0  0  0  0  0
  185.1550  178.4260  146.4090 C   0  0  1  0  0  3  0  0  0  0  0  0
  186.0400  179.4130  146.8060 F   0  0  0  0  0  0  0  0  0  0  0  0
  183.9730  179.0070  145.9480 O   0  0  0  0  0  1  0  0  0  0  0  0
  190.7180  176.2900  139.7900 C   0  0  0  0  0  3  0  0  0  0  0  0
  190.0720  176.2510  138.6170 C   0  0  0  0  0  3  0  0  0  0  0  0
  188.2720  179.1300  136.8980 C   0  0  0  0  0  3  0  0  0  0  0  0
  188.9460  177.1730  138.2630 C   0  0  1  0  0  3  0  0  0  0  0  0
  187.1990  176.9920  136.3570 C   0  0  1  0  0  3  0  0  0  0  0  0
  189.4430  178.3240  137.3760 C   0  0  0  0  0  2  0  0  0  0  0  0
  187.7900  176.3680  137.6330 C   0  0  0  0  0  2  0  0  0  0  0  0
  185.7950  176.4780  136.1300 C   0  0  0  0  0  1  0  0  0  0  0  0
  187.1970  178.4940  136.4180 C   0  0  0  0  0  3  0  0  0  0  0  0
  191.0240  179.9780  144.1670 O   0  0  0  0  0  1  0  0  0  0  0  0
  191.5690  178.8910  143.4810 C   0  0  0  0  0  2  0  0  0  0  0  0
  2  4  1  0  0  0  0
  3 28  1  6  0  0  0
  4  7  1  0  0  0  0
  5  1  1  1  0  0  0
  5  3  1  0  0  0  0
  6 18  1  6  0  0  0
  6  2  1  0  0  0  0
  6  5  1  0  0  0  0
  7  3  1  0  0  0  0
  7  8  1  6  0  0  0
  8  9  1  6  0  0  0
  8 13  1  0  0  0  0
  8 11  1  0  0  0  0
 10 12  1  0  0  0  0
 11 10  2  0  0  0  0
 13 14  1  0  0  0  0
 14 15  1  0  0  0  0
 15 17  1  6  0  0  0
 15 16  1  0  0  0  0
 19 18  2  0  0  0  0
 20 23  1  0  0  0  0
 21 19  1  6  0  0  0
 22 25  1  1  0  0  0
 22 26  1  0  0  0  0
 22 24  1  0  0  0  0
 23 21  1  0  0  0  0
 24 21  1  0  0  0  0
 26 20  2  0  0  0  0
 28 27  1  0  0  0  0
M  END
>  <MODEL>
1

>  <REMARK>
 VINA RESULT:      -7.7      0.000      0.000
  Name = 
  8 active torsions:
  status: ('A' for Active; 'I' for Inactive)
    1  A    between atoms: C_1  and  C_3
    2  A    between atoms: C_1  and  C_11
    3  A    between atoms: C_1  and  C_27
    4  A    between atoms: C_6  and  C_8
    5  A    between atoms: C_8  and  C_11
    6  A    between atoms: C_9  and  C_18
    7  A    between atoms: C_14  and  C_25
    8  A    between atoms: C_16  and  C_21
                            x       y       z     vdW  Elec       q    Type
                         _______ _______ _______ _____ _____    ______ ____

>  <TORSDO>
F 8

$$$$
=
 OpenBabel10272401593D

 28 29  0  0  1  0  0  0  0  0999 V2000
  190.3530  175.4840  142.5520 O   0  0  0  0  0  1  0  0  0  0  0  0
  188.9180  177.5610  140.9260 C   0  0  0  0  0  2  0  0  0  0  0  0
  190.4920  177.7210  143.4300 C   0  0  2  0  0  3  0  0  0  0  0  0
  188.6220  178.6740  141.9210 C   0  0  0  0  0  2  0  0  0  0  0  0
  190.8690  176.7560  142.2950 C   0  0  2  0  0  3  0  0  0  0  0  0
  190.4140  177.2730  140.9250 C   0  0  1  0  0  3  0  0  0  0  0  0
  189.0570  178.2960  143.3480 C   0  0  1  0  0  3  0  0  0  0  0  0
  187.9830  177.5380  144.1770 C   0  0  1  0  0  0  0  0  0  0  0  0
  187.5970  176.2400  143.4890 C   0  0  0  0  0  1  0  0  0  0  0  0
  187.9690  177.6410  146.6780 C   0  0  0  0  0  3  0  0  0  0  0  0
  188.4980  177.1690  145.5480 C   0  0  0  0  0  3  0  0  0  0  0  0
  188.5340  177.2310  147.9930 C   0  0  0  0  0  1  0  0  0  0  0  0
  186.6950  178.3650  144.3030 C   0  0  0  0  0  2  0  0  0  0  0  0
  185.5980  177.9440  143.3240 C   0  0  0  0  0  2  0  0  0  0  0  0
  184.8380  179.1500  142.7940 C   0  0  1  0  0  3  0  0  0  0  0  0
  184.8910  180.1940  143.7000 F   0  0  0  0  0  0  0  0  0  0  0  0
  185.3670  179.5590  141.5690 O   0  0  0  0  0  1  0  0  0  0  0  0
  190.7790  176.3110  139.8330 C   0  0  0  0  0  3  0  0  0  0  0  0
  190.1370  176.2550  138.6580 C   0  0  0  0  0  3  0  0  0  0  0  0
  188.2820  179.0810  136.9090 C   0  0  0  0  0  3  0  0  0  0  0  0
  188.9950  177.1540  138.2980 C   0  0  1  0  0  3  0  0  0  0  0  0
  187.2400  176.9200  136.4050 C   0  0  1  0  0  3  0  0  0  0  0  0
  189.4680  178.3000  137.3920 C   0  0  0  0  0  2  0  0  0  0  0  0
  187.8480  176.3220  137.6860 C   0  0  0  0  0  2  0  0  0  0  0  0
  185.8430  176.3800  136.1920 C   0  0  0  0  0  1  0  0  0  0  0  0
  187.2150  178.4220  136.4450 C   0  0  0  0  0  3  0  0  0  0  0  0
  190.9520  179.9830  144.1320 O   0  0  0  0  0  1  0  0  0  0  0  0
  191.5300  178.8260  143.6030 C   0  0  0  0  0  2  0  0  0  0  0  0
  2  4  1  0  0  0  0
  3 28  1  6  0  0  0
  4  7  1  0  0  0  0
  5  1  1  1  0  0  0
  5  3  1  0  0  0  0
  6 18  1  6  0  0  0
  6  2  1  0  0  0  0
  6  5  1  0  0  0  0
  7  3  1  0  0  0  0
  7  8  1  6  0  0  0
  8  9  1  6  0  0  0
  8 13  1  0  0  0  0
  8 11  1  0  0  0  0
 10 12  1  0  0  0  0
 11 10  2  0  0  0  0
 14 13  1  0  0  0  0
 15 17  1  6  0  0  0
 15 14  1  0  0  0  0
 15 16  1  0  0  0  0
 19 18  2  0  0  0  0
 20 23  1  0  0  0  0
 21 19  1  6  0  0  0
 22 25  1  1  0  0  0
 22 26  1  0  0  0  0
 22 24  1  0  0  0  0
 23 21  1  0  0  0  0
 24 21  1  0  0  0  0
 26 20  2  0  0  0  0
 28 27  1  0  0  0  0
M  END
>  <MODEL>
2

>  <REMARK>
 VINA RESULT:      -7.5      1.296      1.387
  Name = 
  8 active torsions:
  status: ('A' for Active; 'I' for Inactive)
    1  A    between atoms: C_1  and  C_3
    2  A    between atoms: C_1  and  C_11
    3  A    between atoms: C_1  and  C_27
    4  A    between atoms: C_6  and  C_8
    5  A    between atoms: C_8  and  C_11
    6  A    between atoms: C_9  and  C_18
    7  A    between atoms: C_14  and  C_25
    8  A    between atoms: C_16  and  C_21
                            x       y       z     vdW  Elec       q    Type
                         _______ _______ _______ _____ _____    ______ ____

>  <TORSDO>
F 8

$$$$
=
 OpenBabel10272401593D

 28 29  0  0  1  0  0  0  0  0999 V2000
  189.8770  179.0460  143.1240 O   0  0  0  0  0  1  0  0  0  0  0  0
  189.4460  176.0780  142.9680 C   0  0  0  0  0  2  0  0  0  0  0  0
  187.5950  178.3800  142.7460 C   0  0  2  0  0  3  0  0  0  0  0  0
  187.9820  175.8940  143.3420 C   0  0  0  0  0  2  0  0  0  0  0  0
  189.0290  178.4350  142.1970 C   0  0  2  0  0  3  0  0  0  0  0  0
  189.5480  177.0490  141.7990 C   0  0  1  0  0  3  0  0  0  0  0  0
  187.3230  177.2260  143.7410 C   0  0  1  0  0  3  0  0  0  0  0  0
  187.4550  177.5930  145.2450 C   0  0  1  0  0  0  0  0  0  0  0  0
  186.7920  176.5360  146.1120 C   0  0  0  0  0  1  0  0  0  0  0  0
  189.4150  176.9020  146.6420 C   0  0  0  0  0  3  0  0  0  0  0  0
  188.9020  177.6640  145.6740 C   0  0  0  0  0  3  0  0  0  0  0  0
  190.8520  177.0320  147.0070 C   0  0  0  0  0  1  0  0  0  0  0  0
  186.7470  178.9200  145.5570 C   0  0  0  0  0  2  0  0  0  0  0  0
  185.3010  178.7490  146.0230 C   0  0  0  0  0  2  0  0  0  0  0  0
  184.3180  179.0620  144.9050 C   0  0  1  0  0  3  0  0  0  0  0  0
  184.2810  178.0260  143.9880 F   0  0  0  0  0  0  0  0  0  0  0  0
  183.0420  179.2790  145.4260 O   0  0  0  0  0  1  0  0  0  0  0  0
  190.9540  177.1230  141.2780 C   0  0  0  0  0  3  0  0  0  0  0  0
  191.2630  177.0150  139.9790 C   0  0  0  0  0  3  0  0  0  0  0  0
  188.8530  177.9590  137.1890 C   0  0  0  0  0  3  0  0  0  0  0  0
  190.2420  176.8240  138.9010 C   0  0  1  0  0  3  0  0  0  0  0  0
  190.5760  176.4230  136.3620 C   0  0  1  0  0  3  0  0  0  0  0  0
  189.7400  178.1770  138.3780 C   0  0  0  0  0  2  0  0  0  0  0  0
  190.8160  175.9140  137.7940 C   0  0  0  0  0  2  0  0  0  0  0  0
  190.6640  175.2740  135.3810 C   0  0  0  0  0  1  0  0  0  0  0  0
  189.2490  177.1160  136.2290 C   0  0  0  0  0  3  0  0  0  0  0  0
  185.7790  179.5700  141.6940 O   0  0  0  0  0  1  0  0  0  0  0  0
  186.5580  178.4120  141.6260 C   0  0  0  0  0  2  0  0  0  0  0  0
  2  4  1  0  0  0  0
  3 28  1  6  0  0  0
  3  7  1  0  0  0  0
  4  7  1  0  0  0  0
  5  3  1  0  0  0  0
  5  1  1  1  0  0  0
  6 18  1  1  0  0  0
  6  5  1  0  0  0  0
  6  2  1  0  0  0  0
  7  8  1  1  0  0  0
  8 13  1  0  0  0  0
  8 11  1  0  0  0  0
  8  9  1  1  0  0  0
 10 12  1  0  0  0  0
 11 10  2  0  0  0  0
 13 14  1  0  0  0  0
 15 16  1  6  0  0  0
 15 17  1  0  0  0  0
 15 14  1  0  0  0  0
 19 18  2  0  0  0  0
 20 23  1  0  0  0  0
 21 19  1  1  0  0  0
 22 25  1  6  0  0  0
 22 24  1  0  0  0  0
 23 21  1  0  0  0  0
 24 21  1  0  0  0  0
 26 22  1  0  0  0  0
 26 20  2  0  0  0  0
 28 27  1  0  0  0  0
M  END
>  <MODEL>
3

>  <REMARK>
 VINA RESULT:      -7.4      1.778      2.752
  Name = 
  8 active torsions:
  status: ('A' for Active; 'I' for Inactive)
    1  A    between atoms: C_1  and  C_3
    2  A    between atoms: C_1  and  C_11
    3  A    between atoms: C_1  and  C_27
    4  A    between atoms: C_6  and  C_8
    5  A    between atoms: C_8  and  C_11
    6  A    between atoms: C_9  and  C_18
    7  A    between atoms: C_14  and  C_25
    8  A    between atoms: C_16  and  C_21
                            x       y       z     vdW  Elec       q    Type
                         _______ _______ _______ _____ _____    ______ ____

>  <TORSDO>
F 8

$$$$
=
 OpenBabel10272401593D

 28 29  0  0  1  0  0  0  0  0999 V2000
  190.3880  178.9440  142.5060 O   0  0  0  0  0  1  0  0  0  0  0  0
  190.0260  175.9650  142.5990 C   0  0  0  0  0  2  0  0  0  0  0  0
  188.1160  178.2170  142.8300 C   0  0  2  0  0  3  0  0  0  0  0  0
  188.7380  175.7700  143.3870 C   0  0  0  0  0  2  0  0  0  0  0  0
  189.3290  178.2750  141.8880 C   0  0  2  0  0  3  0  0  0  0  0  0
  189.7560  176.8810  141.4130 C   0  0  1  0  0  3  0  0  0  0  0  0
  188.1790  177.1070  143.9070 C   0  0  1  0  0  3  0  0  0  0  0  0
  188.7270  177.5470  145.2930 C   0  0  1  0  0  0  0  0  0  0  0  0
  189.7280  178.6780  145.1340 C   0  0  0  0  0  1  0  0  0  0  0  0
  186.3280  177.8910  145.9210 C   0  0  0  0  0  3  0  0  0  0  0  0
  187.6250  178.0610  146.1880 C   0  0  0  0  0  3  0  0  0  0  0  0
  185.3000  178.4280  146.8540 C   0  0  0  0  0  1  0  0  0  0  0  0
  189.4750  176.3970  145.9840 C   0  0  0  0  0  2  0  0  0  0  0  0
  190.2210  176.8230  147.2480 C   0  0  0  0  0  2  0  0  0  0  0  0
  191.5950  176.1750  147.3250 C   0  0  1  0  0  3  0  0  0  0  0  0
  192.2120  176.1980  146.0870 F   0  0  0  0  0  0  0  0  0  0  0  0
  192.3910  176.8320  148.2640 O   0  0  0  0  0  1  0  0  0  0  0  0
  190.9490  176.9580  140.5060 C   0  0  0  0  0  3  0  0  0  0  0  0
  190.8540  177.0350  139.1710 C   0  0  0  0  0  3  0  0  0  0  0  0
  187.9390  178.5040  137.2140 C   0  0  0  0  0  3  0  0  0  0  0  0
  189.5490  177.0690  138.4370 C   0  0  1  0  0  3  0  0  0  0  0  0
  189.0680  176.7620  135.9090 C   0  0  1  0  0  3  0  0  0  0  0  0
  189.1540  178.5120  138.0940 C   0  0  0  0  0  2  0  0  0  0  0  0
  189.6200  176.1420  137.2040 C   0  0  0  0  0  2  0  0  0  0  0  0
  188.6770  175.6700  134.9370 C   0  0  0  0  0  1  0  0  0  0  0  0
  187.8950  177.6630  136.1750 C   0  0  0  0  0  3  0  0  0  0  0  0
  186.9140  178.8390  140.8330 O   0  0  0  0  0  1  0  0  0  0  0  0
  186.8000  178.1770  142.0580 C   0  0  0  0  0  2  0  0  0  0  0  0
  2  4  1  0  0  0  0
  3 28  1  6  0  0  0
  3  7  1  0  0  0  0
  4  7  1  0  0  0  0
  5  1  1  1  0  0  0
  5  3  1  0  0  0  0
  6 18  1  1  0  0  0
  6  5  1  0  0  0  0
  6  2  1  0  0  0  0
  7  8  1  1  0  0  0
  8  9  1  6  0  0  0
  8 13  1  0  0  0  0
  8 11  1  0  0  0  0
 10 11  2  0  0  0  0
 10 12  1  0  0  0  0
 13 14  1  0  0  0  0
 14 15  1  0  0  0  0
 15 16  1  6  0  0  0
 15 17  1  0  0  0  0
 19 18  2  0  0  0  0
 20 23  1  0  0  0  0
 21 19  1  6  0  0  0
 22 25  1  6  0  0  0
 22 26  1  0  0  0  0
 22 24  1  0  0  0  0
 23 21  1  0  0  0  0
 24 21  1  0  0  0  0
 26 20  2  0  0  0  0
 27 28  1  0  0  0  0
M  END
>  <MODEL>
4

>  <REMARK>
 VINA RESULT:      -7.4      2.297      3.688
  Name = 
  8 active torsions:
  status: ('A' for Active; 'I' for Inactive)
    1  A    between atoms: C_1  and  C_3
    2  A    between atoms: C_1  and  C_11
    3  A    between atoms: C_1  and  C_27
    4  A    between atoms: C_6  and  C_8
    5  A    between atoms: C_8  and  C_11
    6  A    between atoms: C_9  and  C_18
    7  A    between atoms: C_14  and  C_25
    8  A    between atoms: C_16  and  C_21
                            x       y       z     vdW  Elec       q    Type
                         _______ _______ _______ _____ _____    ______ ____

>  <TORSDO>
F 8

$$$$
=
 OpenBabel10272401593D

 28 29  0  0  1  0  0  0  0  0999 V2000
  187.8690  175.8100  143.7380 O   0  0  0  0  0  1  0  0  0  0  0  0
  188.8010  178.3470  145.0470 C   0  0  0  0  0  2  0  0  0  0  0  0
  188.6400  177.5040  142.2120 C   0  0  2  0  0  3  0  0  0  0  0  0
  189.7570  178.9590  144.0330 C   0  0  0  0  0  2  0  0  0  0  0  0
  187.5820  177.0850  143.2440 C   0  0  2  0  0  3  0  0  0  0  0  0
  187.4520  178.1040  144.3820 C   0  0  1  0  0  3  0  0  0  0  0  0
  189.9610  178.0440  142.8130 C   0  0  1  0  0  3  0  0  0  0  0  0
  191.1030  177.0010  142.9640 C   0  0  1  0  0  0  0  0  0  0  0  0
  190.5400  175.5900  142.9610 C   0  0  0  0  0  1  0  0  0  0  0  0
  191.7110  177.2460  140.5480 C   0  0  0  0  0  3  0  0  0  0  0  0
  192.0840  177.0820  141.8180 C   0  0  0  0  0  3  0  0  0  0  0  0
  192.7390  177.3160  139.4740 C   0  0  0  0  0  1  0  0  0  0  0  0
  191.8390  177.1750  144.3010 C   0  0  0  0  0  2  0  0  0  0  0  0
  191.6100  176.0230  145.2810 C   0  0  0  0  0  2  0  0  0  0  0  0
  191.5870  176.5170  146.7190 C   0  0  1  0  0  3  0  0  0  0  0  0
  190.3230  176.3700  147.2620 F   0  0  0  0  0  0  0  0  0  0  0  0
  192.5180  175.8180  147.4890 O   0  0  0  0  0  1  0  0  0  0  0  0
  186.4250  177.6690  145.3870 C   0  0  0  0  0  3  0  0  0  0  0  0
  185.1230  177.9660  145.2810 C   0  0  0  0  0  3  0  0  0  0  0  0
  184.0580  178.7510  141.7120 C   0  0  0  0  0  3  0  0  0  0  0  0
  184.5450  178.7510  144.1440 C   0  0  1  0  0  3  0  0  0  0  0  0
  182.1230  178.7790  143.2190 C   0  0  1  0  0  3  0  0  0  0  0  0
  184.7920  178.0360  142.8080 C   0  0  0  0  0  2  0  0  0  0  0  0
  183.0540  179.0430  144.4160 C   0  0  0  0  0  2  0  0  0  0  0  0
  180.8430  179.5700  143.3720 C   0  0  0  0  0  1  0  0  0  0  0  0
  182.7850  179.1120  141.9120 C   0  0  0  0  0  3  0  0  0  0  0  0
  188.2680  177.9740  139.8750 O   0  0  0  0  0  1  0  0  0  0  0  0
  188.0660  178.4600  141.1680 C   0  0  0  0  0  2  0  0  0  0  0  0
  3 28  1  6  0  0  0
  3  7  1  0  0  0  0
  3  5  1  0  0  0  0
  4  2  1  0  0  0  0
  5  1  1  1  0  0  0
  5  6  1  0  0  0  0
  6  2  1  0  0  0  0
  6 18  1  1  0  0  0
  7  8  1  1  0  0  0
  7  4  1  0  0  0  0
  8  9  1  6  0  0  0
  8 13  1  0  0  0  0
 10 11  2  0  0  0  0
 11  8  1  0  0  0  0
 12 10  1  0  0  0  0
 13 14  1  0  0  0  0
 14 15  1  0  0  0  0
 15 16  1  1  0  0  0
 15 17  1  0  0  0  0
 19 18  2  0  0  0  0
 20 26  2  0  0  0  0
 20 23  1  0  0  0  0
 21 24  1  0  0  0  0
 21 19  1  1  0  0  0
 22 25  1  1  0  0  0
 22 24  1  0  0  0  0
 23 21  1  0  0  0  0
 26 22  1  0  0  0  0
 27 28  1  0  0  0  0
M  END
>  <MODEL>
5

>  <REMARK>
 VINA RESULT:      -7.0      3.134      6.176
  Name = 
  8 active torsions:
  status: ('A' for Active; 'I' for Inactive)
    1  A    between atoms: C_1  and  C_3
    2  A    between atoms: C_1  and  C_11
    3  A    between atoms: C_1  and  C_27
    4  A    between atoms: C_6  and  C_8
    5  A    between atoms: C_8  and  C_11
    6  A    between atoms: C_9  and  C_18
    7  A    between atoms: C_14  and  C_25
    8  A    between atoms: C_16  and  C_21
                            x       y       z     vdW  Elec       q    Type
                         _______ _______ _______ _____ _____    ______ ____

>  <TORSDO>
F 8

$$$$
=
 OpenBabel10272401593D

 28 29  0  0  1  0  0  0  0  0999 V2000
  187.3050  177.2070  143.0250 O   0  0  0  0  0  1  0  0  0  0  0  0
  189.6110  179.1310  143.0230 C   0  0  0  0  0  2  0  0  0  0  0  0
  189.4220  176.2390  143.6350 C   0  0  2  0  0  3  0  0  0  0  0  0
  190.6190  178.5050  143.9760 C   0  0  0  0  0  2  0  0  0  0  0  0
  188.5730  176.8920  142.5330 C   0  0  2  0  0  3  0  0  0  0  0  0
  189.2580  178.1260  141.9340 C   0  0  1  0  0  3  0  0  0  0  0  0
  190.0660  177.2290  144.6360 C   0  0  1  0  0  3  0  0  0  0  0  0
  189.2690  177.4670  145.9490 C   0  0  1  0  0  0  0  0  0  0  0  0
  189.5320  178.8640  146.4850 C   0  0  0  0  0  1  0  0  0  0  0  0
  186.8920  178.1640  146.3080 C   0  0  0  0  0  3  0  0  0  0  0  0
  187.7800  177.3580  145.7230 C   0  0  0  0  0  3  0  0  0  0  0  0
  185.4390  177.9930  146.0340 C   0  0  0  0  0  1  0  0  0  0  0  0
  189.7080  176.4890  147.0490 C   0  0  0  0  0  2  0  0  0  0  0  0
  190.9850  176.9130  147.7730 C   0  0  0  0  0  2  0  0  0  0  0  0
  192.0210  175.7980  147.7690 C   0  0  1  0  0  3  0  0  0  0  0  0
  192.4540  175.5440  146.4800 F   0  0  0  0  0  0  0  0  0  0  0  0
  193.1070  176.1400  148.5750 O   0  0  0  0  0  1  0  0  0  0  0  0
  188.4080  178.7570  140.8700 C   0  0  0  0  0  3  0  0  0  0  0  0
  188.2950  178.2620  139.6300 C   0  0  0  0  0  3  0  0  0  0  0  0
  189.2400  175.3920  137.3150 C   0  0  0  0  0  3  0  0  0  0  0  0
  188.9930  177.0190  139.1710 C   0  0  1  0  0  3  0  0  0  0  0  0
  191.2050  176.7590  137.8460 C   0  0  1  0  0  3  0  0  0  0  0  0
  188.4140  176.5320  137.8350 C   0  0  0  0  0  2  0  0  0  0  0  0
  190.5160  177.2610  139.1270 C   0  0  0  0  0  2  0  0  0  0  0  0
  192.6800  176.5370  138.1030 C   0  0  0  0  0  1  0  0  0  0  0  0
  190.5740  175.4980  137.3280 C   0  0  0  0  0  3  0  0  0  0  0  0
  191.6770  175.3850  143.7250 O   0  0  0  0  0  1  0  0  0  0  0  0
  190.4540  175.2730  143.0580 C   0  0  0  0  0  2  0  0  0  0  0  0
  2  4  1  0  0  0  0
  3 28  1  6  0  0  0
  3  7  1  0  0  0  0
  4  7  1  0  0  0  0
  5  1  1  1  0  0  0
  5  3  1  0  0  0  0
  6 18  1  6  0  0  0
  6  5  1  0  0  0  0
  6  2  1  0  0  0  0
  7  8  1  1  0  0  0
  8  9  1  1  0  0  0
  8 13  1  0  0  0  0
 11  8  1  0  0  0  0
 11 10  2  0  0  0  0
 12 10  1  0  0  0  0
 13 14  1  0  0  0  0
 15 16  1  6  0  0  0
 15 14  1  0  0  0  0
 15 17  1  0  0  0  0
 19 18  2  0  0  0  0
 20 26  2  0  0  0  0
 20 23  1  0  0  0  0
 21 19  1  6  0  0  0
 22 25  1  1  0  0  0
 22 24  1  0  0  0  0
 23 21  1  0  0  0  0
 24 21  1  0  0  0  0
 26 22  1  0  0  0  0
 28 27  1  0  0  0  0
M  END
>  <MODEL>
6

>  <REMARK>
 VINA RESULT:      -6.8      2.422      4.376
  Name = 
  8 active torsions:
  status: ('A' for Active; 'I' for Inactive)
    1  A    between atoms: C_1  and  C_3
    2  A    between atoms: C_1  and  C_11
    3  A    between atoms: C_1  and  C_27
    4  A    between atoms: C_6  and  C_8
    5  A    between atoms: C_8  and  C_11
    6  A    between atoms: C_9  and  C_18
    7  A    between atoms: C_14  and  C_25
    8  A    between atoms: C_16  and  C_21
                            x       y       z     vdW  Elec       q    Type
                         _______ _______ _______ _____ _____    ______ ____

>  <TORSDO>
F 8

$$$$
=
 OpenBabel10272401593D

 28 29  0  0  1  0  0  0  0  0999 V2000
  189.3600  179.2190  142.1330 O   0  0  0  0  0  1  0  0  0  0  0  0
  189.7000  176.2390  142.2770 C   0  0  0  0  0  2  0  0  0  0  0  0
  187.4470  178.0280  142.9790 C   0  0  2  0  0  3  0  0  0  0  0  0
  188.7080  175.8020  143.3460 C   0  0  0  0  0  2  0  0  0  0  0  0
  188.3620  178.3090  141.7780 C   0  0  2  0  0  3  0  0  0  0  0  0
  188.9640  177.0240  141.1990 C   0  0  1  0  0  3  0  0  0  0  0  0
  188.0040  177.0050  143.9980 C   0  0  1  0  0  3  0  0  0  0  0  0
  188.7490  177.6120  145.2190 C   0  0  1  0  0  0  0  0  0  0  0  0
  189.5180  176.5350  145.9630 C   0  0  0  0  0  1  0  0  0  0  0  0
  191.0670  178.4160  144.7240 C   0  0  0  0  0  3  0  0  0  0  0  0
  189.7560  178.6540  144.7930 C   0  0  0  0  0  3  0  0  0  0  0  0
  191.9980  179.4950  144.2950 C   0  0  0  0  0  1  0  0  0  0  0  0
  187.7600  178.2170  146.2270 C   0  0  0  0  0  2  0  0  0  0  0  0
  186.3660  177.5910  146.1700 C   0  0  0  0  0  2  0  0  0  0  0  0
  185.2810  178.6390  146.3630 C   0  0  1  0  0  3  0  0  0  0  0  0
  184.0940  178.0410  146.7500 F   0  0  0  0  0  0  0  0  0  0  0  0
  185.6740  179.5760  147.3190 O   0  0  0  0  0  1  0  0  0  0  0  0
  189.8650  177.3210  140.0360 C   0  0  0  0  0  3  0  0  0  0  0  0
  189.4680  177.2350  138.7580 C   0  0  0  0  0  3  0  0  0  0  0  0
  185.8970  177.6810  137.5210 C   0  0  0  0  0  3  0  0  0  0  0  0
  188.0800  176.8480  138.3500 C   0  0  1  0  0  3  0  0  0  0  0  0
  187.1620  176.2250  136.0070 C   0  0  1  0  0  3  0  0  0  0  0  0
  187.2210  178.0940  138.0930 C   0  0  0  0  0  2  0  0  0  0  0  0
  188.1410  175.8850  137.1440 C   0  0  0  0  0  2  0  0  0  0  0  0
  186.8970  174.9960  135.1650 C   0  0  0  0  0  1  0  0  0  0  0  0
  185.8680  176.7830  136.5300 C   0  0  0  0  0  3  0  0  0  0  0  0
  185.1320  178.6970  142.8430 O   0  0  0  0  0  1  0  0  0  0  0  0
  186.0290  177.6690  142.5410 C   0  0  0  0  0  2  0  0  0  0  0  0
  2  4  1  0  0  0  0
  3 28  1  6  0  0  0
  3  7  1  0  0  0  0
  4  7  1  0  0  0  0
  5  1  1  1  0  0  0
  5  3  1  0  0  0  0
  6 18  1  6  0  0  0
  6  5  1  0  0  0  0
  6  2  1  0  0  0  0
  7  8  1  1  0  0  0
  8  9  1  1  0  0  0
  8 13  1  0  0  0  0
 10 11  2  0  0  0  0
 11  8  1  0  0  0  0
 12 10  1  0  0  0  0
 14 13  1  0  0  0  0
 14 15  1  0  0  0  0
 15 16  1  1  0  0  0
 15 17  1  0  0  0  0
 19 18  2  0  0  0  0
 20 23  1  0  0  0  0
 21 19  1  6  0  0  0
 22 25  1  1  0  0  0
 22 26  1  0  0  0  0
 22 24  1  0  0  0  0
 23 21  1  0  0  0  0
 24 21  1  0  0  0  0
 26 20  2  0  0  0  0
 28 27  1  0  0  0  0
M  END
>  <MODEL>
7

>  <REMARK>
 VINA RESULT:      -6.5      1.578      2.759
  Name = 
  8 active torsions:
  status: ('A' for Active; 'I' for Inactive)
    1  A    between atoms: C_1  and  C_3
    2  A    between atoms: C_1  and  C_11
    3  A    between atoms: C_1  and  C_27
    4  A    between atoms: C_6  and  C_8
    5  A    between atoms: C_8  and  C_11
    6  A    between atoms: C_9  and  C_18
    7  A    between atoms: C_14  and  C_25
    8  A    between atoms: C_16  and  C_21
                            x       y       z     vdW  Elec       q    Type
                         _______ _______ _______ _____ _____    ______ ____

>  <TORSDO>
F 8

$$$$
=
 OpenBabel10272401593D

 28 29  0  0  1  0  0  0  0  0999 V2000
  187.7840  175.8980  143.2190 O   0  0  0  0  0  1  0  0  0  0  0  0
  189.1940  178.0760  144.7310 C   0  0  0  0  0  2  0  0  0  0  0  0
  188.4320  177.7920  141.8830 C   0  0  2  0  0  3  0  0  0  0  0  0
  190.0060  178.8010  143.6670 C   0  0  0  0  0  2  0  0  0  0  0  0
  187.5440  177.2590  143.0180 C   0  0  2  0  0  3  0  0  0  0  0  0
  187.7290  178.0540  144.3150 C   0  0  1  0  0  3  0  0  0  0  0  0
  189.8880  178.1190  142.2930 C   0  0  1  0  0  3  0  0  0  0  0  0
  190.9270  176.9920  142.0340 C   0  0  1  0  0  0  0  0  0  0  0  0
  192.3290  177.5690  141.9550 C   0  0  0  0  0  1  0  0  0  0  0  0
  191.9910  175.7650  143.9390 C   0  0  0  0  0  3  0  0  0  0  0  0
  190.9340  175.9770  143.1530 C   0  0  0  0  0  3  0  0  0  0  0  0
  191.9200  174.7450  145.0210 C   0  0  0  0  0  1  0  0  0  0  0  0
  190.6650  176.2940  140.6910 C   0  0  0  0  0  2  0  0  0  0  0  0
  190.9080  177.1910  139.4770 C   0  0  0  0  0  2  0  0  0  0  0  0
  191.3240  176.3770  138.2620 C   0  0  1  0  0  3  0  0  0  0  0  0
  192.6910  176.4650  138.0640 F   0  0  0  0  0  0  0  0  0  0  0  0
  190.9540  175.0410  138.4220 O   0  0  0  0  0  1  0  0  0  0  0  0
  186.8630  177.5090  145.4140 C   0  0  0  0  0  3  0  0  0  0  0  0
  185.5480  177.7500  145.5020 C   0  0  0  0  0  3  0  0  0  0  0  0
  183.9710  178.6960  142.1700 C   0  0  0  0  0  3  0  0  0  0  0  0
  184.7920  178.5750  144.5060 C   0  0  1  0  0  3  0  0  0  0  0  0
  182.2660  178.5600  143.9270 C   0  0  1  0  0  3  0  0  0  0  0  0
  184.8730  177.9490  143.1060 C   0  0  0  0  0  2  0  0  0  0  0  0
  183.3450  178.7910  144.9980 C   0  0  0  0  0  2  0  0  0  0  0  0
  180.9950  179.2900  144.3040 C   0  0  0  0  0  1  0  0  0  0  0  0
  182.7280  178.9940  142.5640 C   0  0  0  0  0  3  0  0  0  0  0  0
  187.0970  178.5290  140.0130 O   0  0  0  0  0  1  0  0  0  0  0  0
  187.7780  178.9620  141.1530 C   0  0  0  0  0  2  0  0  0  0  0  0
  3 28  1  1  0  0  0
  3  7  1  0  0  0  0
  3  5  1  0  0  0  0
  4  2  1  0  0  0  0
  5  1  1  1  0  0  0
  5  6  1  0  0  0  0
  6  2  1  0  0  0  0
  6 18  1  1  0  0  0
  7  8  1  1  0  0  0
  7  4  1  0  0  0  0
  8  9  1  6  0  0  0
  8 11  1  0  0  0  0
 10 12  1  0  0  0  0
 11 10  2  0  0  0  0
 13  8  1  0  0  0  0
 14 13  1  0  0  0  0
 15 16  1  1  0  0  0
 15 17  1  0  0  0  0
 15 14  1  0  0  0  0
 18 19  2  0  0  0  0
 20 26  2  0  0  0  0
 20 23  1  0  0  0  0
 21 24  1  0  0  0  0
 21 19  1  1  0  0  0
 22 25  1  1  0  0  0
 22 24  1  0  0  0  0
 23 21  1  0  0  0  0
 26 22  1  0  0  0  0
 27 28  1  0  0  0  0
M  END
>  <MODEL>
8

>  <REMARK>
 VINA RESULT:      -6.4      3.534      6.715
  Name = 
  8 active torsions:
  status: ('A' for Active; 'I' for Inactive)
    1  A    between atoms: C_1  and  C_3
    2  A    between atoms: C_1  and  C_11
    3  A    between atoms: C_1  and  C_27
    4  A    between atoms: C_6  and  C_8
    5  A    between atoms: C_8  and  C_11
    6  A    between atoms: C_9  and  C_18
    7  A    between atoms: C_14  and  C_25
    8  A    between atoms: C_16  and  C_21
                            x       y       z     vdW  Elec       q    Type
                         _______ _______ _______ _____ _____    ______ ____

>  <TORSDO>
F 8

$$$$
=
 OpenBabel10272401593D

 28 29  0  0  1  0  0  0  0  0999 V2000
  188.2180  178.7970  141.7340 O   0  0  0  0  0  1  0  0  0  0  0  0
  188.9030  175.9500  142.3980 C   0  0  0  0  0  2  0  0  0  0  0  0
  190.5180  178.4320  142.3420 C   0  0  2  0  0  3  0  0  0  0  0  0
  190.4010  175.8580  142.1420 C   0  0  0  0  0  2  0  0  0  0  0  0
  189.0490  178.4290  142.7940 C   0  0  2  0  0  3  0  0  0  0  0  0
  188.6310  177.0780  143.3850 C   0  0  1  0  0  3  0  0  0  0  0  0
  190.9640  177.1690  141.5660 C   0  0  1  0  0  3  0  0  0  0  0  0
  190.9060  177.2790  140.0170 C   0  0  1  0  0  0  0  0  0  0  0  0
  192.2200  177.8100  139.4720 C   0  0  0  0  0  1  0  0  0  0  0  0
  191.1590  175.6060  138.1720 C   0  0  0  0  0  3  0  0  0  0  0  0
  190.6790  175.9320  139.3730 C   0  0  0  0  0  3  0  0  0  0  0  0
  190.8910  174.2570  137.6040 C   0  0  0  0  0  1  0  0  0  0  0  0
  189.8170  178.2660  139.5710 C   0  0  0  0  0  2  0  0  0  0  0  0
  188.6550  177.6050  138.8300 C   0  0  0  0  0  2  0  0  0  0  0  0
  188.4030  178.2730  137.4880 C   0  0  1  0  0  3  0  0  0  0  0  0
  189.2920  179.3160  137.2900 F   0  0  0  0  0  0  0  0  0  0  0  0
  188.5230  177.3460  136.4520 O   0  0  0  0  0  1  0  0  0  0  0  0
  187.1910  177.0920  143.8070 C   0  0  0  0  0  3  0  0  0  0  0  0
  186.7800  177.5280  145.0060 C   0  0  0  0  0  3  0  0  0  0  0  0
  188.0250  178.4710  148.4770 C   0  0  0  0  0  3  0  0  0  0  0  0
  187.7090  178.0640  146.0510 C   0  0  1  0  0  3  0  0  0  0  0  0
  189.5250  176.8360  147.4330 C   0  0  1  0  0  3  0  0  0  0  0  0
  187.0240  178.0960  147.4240 C   0  0  0  0  0  2  0  0  0  0  0  0
  189.0260  177.2590  146.0410 C   0  0  0  0  0  2  0  0  0  0  0  0
  191.0120  176.5590  147.3900 C   0  0  0  0  0  1  0  0  0  0  0  0
  189.2230  177.8740  148.4760 C   0  0  0  0  0  3  0  0  0  0  0  0
  190.9800  179.7980  144.2760 O   0  0  0  0  0  1  0  0  0  0  0  0
  191.4660  178.7460  143.4970 C   0  0  0  0  0  2  0  0  0  0  0  0
  2  6  1  0  0  0  0
  3  5  1  0  0  0  0
  3 28  1  1  0  0  0
  4  2  1  0  0  0  0
  5  1  1  6  0  0  0
  5  6  1  0  0  0  0
  6 18  1  6  0  0  0
  7  8  1  6  0  0  0
  7  4  1  0  0  0  0
  7  3  1  0  0  0  0
  8  9  1  6  0  0  0
 10 11  2  0  0  0  0
 11  8  1  0  0  0  0
 12 10  1  0  0  0  0
 13  8  1  0  0  0  0
 14 13  1  0  0  0  0
 15 17  1  6  0  0  0
 15 14  1  0  0  0  0
 16 15  1  0  0  0  0
 18 19  2  0  0  0  0
 21 19  1  6  0  0  0
 21 23  1  0  0  0  0
 22 25  1  6  0  0  0
 22 26  1  0  0  0  0
 23 20  1  0  0  0  0
 24 21  1  0  0  0  0
 24 22  1  0  0  0  0
 26 20  2  0  0  0  0
 28 27  1  0  0  0  0
M  END
>  <MODEL>
9

>  <REMARK>
 VINA RESULT:      -6.3      2.700      7.658
  Name = 
  8 active torsions:
  status: ('A' for Active; 'I' for Inactive)
    1  A    between atoms: C_1  and  C_3
    2  A    between atoms: C_1  and  C_11
    3  A    between atoms: C_1  and  C_27
    4  A    between atoms: C_6  and  C_8
    5  A    between atoms: C_8  and  C_11
    6  A    between atoms: C_9  and  C_18
    7  A    between atoms: C_14  and  C_25
    8  A    between atoms: C_16  and  C_21
                            x       y       z     vdW  Elec       q    Type
                         _______ _______ _______ _____ _____    ______ ____

>  <TORSDO>
F 8

$$$$
