=
 OpenBabel10262423563D

 34 38  0  0  1  0  0  0  0  0999 V2000
  192.0050  176.4000  137.3620 C   0  0  0  0  0  0  0  0  0  0  0  0
  189.8900  175.4460  136.4430 C   0  0  0  0  0  2  0  0  0  0  0  0
  189.8140  177.4280  137.8810 N   0  0  0  0  0  0  0  0  0  0  0  0
  187.4600  177.9530  138.3470 C   0  0  2  0  0  3  0  0  0  0  0  0
  192.6920  175.9080  134.9730 C   0  0  0  0  0  2  0  0  0  0  0  0
  191.7800  174.3490  134.7560 S   0  0  0  0  0  0  0  0  0  0  0  0
  188.3870  178.1560  136.1370 O   0  0  0  0  0  1  0  0  0  0  0  0
  190.6100  176.7230  136.8630 C   0  0  1  0  0  3  0  0  0  0  0  0
  193.1270  176.0610  136.4240 C   0  0  0  0  0  2  0  0  0  0  0  0
  190.0570  177.2030  139.2860 C   0  0  0  0  0  0  0  0  0  0  0  0
  192.2520  176.3350  138.6710 C   0  0  0  0  0  3  0  0  0  0  0  0
  190.1560  175.1390  134.9780 C   0  0  0  0  0  2  0  0  0  0  0  0
  187.7940  177.9250  139.8140 C   0  0  0  0  0  3  0  0  0  0  0  0
  188.9960  177.5520  140.2770 C   0  0  0  0  0  0  0  0  0  0  0  0
  188.6910  178.2920  137.4950 C   0  0  2  0  0  3  0  0  0  0  0  0
  191.2230  176.6710  139.6640 C   0  0  0  0  0  3  0  0  0  0  0  0
  190.2910  178.4690  143.7350 C   0  0  0  0  0  0  0  0  0  0  0  0
  189.5670  177.5900  144.5430 C   0  0  0  0  0  3  0  0  0  0  0  0
  189.2180  177.5520  141.7500 C   0  0  0  0  0  0  0  0  0  0  0  0
  188.6690  176.6910  143.9650 C   0  0  0  0  0  3  0  0  0  0  0  0
  190.1150  178.4520  142.3490 C   0  0  0  0  0  3  0  0  0  0  0  0
  188.4940  176.6740  142.5780 C   0  0  0  0  0  3  0  0  0  0  0  0
  191.4080  179.6050  144.4570 Cl  0  0  0  0  0  0  0  0  0  0  0  0
  186.3150  178.8310  138.0760 N   0  0  0  0  0  2  0  0  0  0  0  0
  185.0830  178.2730  138.6280 C   0  0  0  0  0  2  0  0  0  0  0  0
  184.5070  179.2000  139.6830 C   0  0  0  0  0  2  0  0  0  0  0  0
  183.5960  178.4130  140.6120 C   0  0  0  0  0  2  0  0  0  0  0  0
  181.2800  178.9090  142.6030 S   0  0  0  0  0  0  0  0  0  0  0  0
  183.9000  178.7240  142.0040 N   0  0  0  0  0  0  0  0  0  0  0  0
  182.8700  178.9010  142.9990 C   0  0  0  0  0  0  0  0  0  0  0  0
  184.6180  178.6580  144.7200 C   0  0  0  0  0  3  0  0  0  0  0  0
  185.5620  178.5420  143.7750 C   0  0  0  0  0  3  0  0  0  0  0  0
  185.2890  179.0000  142.3670 C   0  0  0  0  0  2  0  0  0  0  0  0
  183.2710  179.2500  144.4020 C   0  0  0  0  0  2  0  0  0  0  0  0
  1 11  2  0  0  0  0
  3 10  1  0  0  0  0
  4 24  1  1  0  0  0
  4 13  1  0  0  0  0
  5  9  1  0  0  0  0
  6  5  1  0  0  0  0
  6 12  1  0  0  0  0
  8  2  1  1  0  0  0
  8  1  1  0  0  0  0
  8  3  1  0  0  0  0
  9  1  1  0  0  0  0
 10 16  2  0  0  0  0
 10 14  1  0  0  0  0
 11 16  1  0  0  0  0
 12  2  1  0  0  0  0
 13 14  2  0  0  0  0
 14 19  1  0  0  0  0
 15  7  1  6  0  0  0
 15  3  1  0  0  0  0
 15  4  1  0  0  0  0
 17 23  1  0  0  0  0
 17 18  1  0  0  0  0
 19 21  1  0  0  0  0
 19 22  2  0  0  0  0
 20 18  2  0  0  0  0
 21 17  2  0  0  0  0
 22 20  1  0  0  0  0
 24 25  1  0  0  0  0
 25 26  1  0  0  0  0
 26 27  1  0  0  0  0
 27 29  1  0  0  0  0
 28 30  2  0  0  0  0
 29 33  1  0  0  0  0
 29 30  1  0  0  0  0
 30 34  1  0  0  0  0
 32 31  2  0  0  0  0
 33 32  1  0  0  0  0
 34 31  1  0  0  0  0
M  END
>  <MODEL>
1

>  <REMARK>
 VINA RESULT:      -8.4      0.000      0.000
  Name = 
  6 active torsions:
  status: ('A' for Active; 'I' for Inactive)
    1  A    between atoms: C_3  and  N_13
    2  A    between atoms: C_3  and  C_17
    3  A    between atoms: C_5  and  N_18
    4  A    between atoms: C_12  and  C_28
    5  A    between atoms: C_17  and  C_29
    6  A    between atoms: N_18  and  C_29
                            x       y       z     vdW  Elec       q    Type
                         _______ _______ _______ _____ _____    ______ ____

>  <TORSDO>
F 6

$$$$
=
 OpenBabel10262423563D

 34 38  0  0  1  0  0  0  0  0999 V2000
  192.0720  176.3600  137.2130 C   0  0  0  0  0  0  0  0  0  0  0  0
  189.8110  175.4130  136.7430 C   0  0  0  0  0  2  0  0  0  0  0  0
  190.0350  177.3970  138.1620 N   0  0  0  0  0  0  0  0  0  0  0  0
  187.8260  177.9310  139.0940 C   0  0  2  0  0  3  0  0  0  0  0  0
  192.2600  175.8630  134.7350 C   0  0  0  0  0  2  0  0  0  0  0  0
  191.3170  174.3060  134.7110 S   0  0  0  0  0  0  0  0  0  0  0  0
  188.2860  178.1280  136.7420 O   0  0  0  0  0  1  0  0  0  0  0  0
  190.6060  176.6870  137.0060 C   0  0  1  0  0  3  0  0  0  0  0  0
  192.9800  176.0160  136.0680 C   0  0  0  0  0  2  0  0  0  0  0  0
  190.5570  177.1730  139.4900 C   0  0  0  0  0  0  0  0  0  0  0  0
  192.5790  176.2960  138.4450 C   0  0  0  0  0  3  0  0  0  0  0  0
  189.7740  175.1030  135.2560 C   0  0  0  0  0  2  0  0  0  0  0  0
  188.4500  177.9040  140.4630 C   0  0  0  0  0  3  0  0  0  0  0  0
  189.7190  177.5280  140.6750 C   0  0  0  0  0  0  0  0  0  0  0  0
  188.8600  178.2650  138.0110 C   0  0  2  0  0  3  0  0  0  0  0  0
  191.7730  176.6370  139.6260 C   0  0  0  0  0  3  0  0  0  0  0  0
  191.3340  176.3990  143.9290 C   0  0  0  0  0  0  0  0  0  0  0  0
  191.2770  177.5710  144.6860 C   0  0  0  0  0  3  0  0  0  0  0  0
  190.2350  177.5280  142.0720 C   0  0  0  0  0  0  0  0  0  0  0  0
  190.7040  178.7230  144.1450 C   0  0  0  0  0  3  0  0  0  0  0  0
  190.8190  176.3790  142.6300 C   0  0  0  0  0  3  0  0  0  0  0  0
  190.1890  178.7020  142.8460 C   0  0  0  0  0  3  0  0  0  0  0  0
  192.0620  174.9570  144.6000 Cl  0  0  0  0  0  0  0  0  0  0  0  0
  186.6530  178.8130  139.0590 N   0  0  0  0  0  2  0  0  0  0  0  0
  185.5560  178.2600  139.8500 C   0  0  0  0  0  2  0  0  0  0  0  0
  185.4650  178.9610  141.1940 C   0  0  0  0  0  2  0  0  0  0  0  0
  184.7420  178.0670  142.1880 C   0  0  0  0  0  2  0  0  0  0  0  0
  183.1410  179.1720  144.5940 S   0  0  0  0  0  0  0  0  0  0  0  0
  185.3780  178.1460  143.4980 N   0  0  0  0  0  0  0  0  0  0  0  0
  184.6710  178.5890  144.6750 C   0  0  0  0  0  0  0  0  0  0  0  0
  186.4990  177.6310  146.0230 C   0  0  0  0  0  3  0  0  0  0  0  0
  187.1580  177.2710  144.9120 C   0  0  0  0  0  3  0  0  0  0  0  0
  186.8170  177.9010  143.5880 C   0  0  0  0  0  2  0  0  0  0  0  0
  185.4120  178.6710  145.9780 C   0  0  0  0  0  2  0  0  0  0  0  0
  1 11  2  0  0  0  0
  3 10  1  0  0  0  0
  4 24  1  1  0  0  0
  4 13  1  0  0  0  0
  5  9  1  0  0  0  0
  6  5  1  0  0  0  0
  6 12  1  0  0  0  0
  8  2  1  1  0  0  0
  8  1  1  0  0  0  0
  8  3  1  0  0  0  0
  9  1  1  0  0  0  0
 10 16  2  0  0  0  0
 10 14  1  0  0  0  0
 11 16  1  0  0  0  0
 12  2  1  0  0  0  0
 13 14  2  0  0  0  0
 14 19  1  0  0  0  0
 15  7  1  6  0  0  0
 15  3  1  0  0  0  0
 15  4  1  0  0  0  0
 17 23  1  0  0  0  0
 17 18  1  0  0  0  0
 19 21  1  0  0  0  0
 19 22  2  0  0  0  0
 20 18  2  0  0  0  0
 21 17  2  0  0  0  0
 22 20  1  0  0  0  0
 24 25  1  0  0  0  0
 25 26  1  0  0  0  0
 26 27  1  0  0  0  0
 27 29  1  0  0  0  0
 28 30  2  0  0  0  0
 29 33  1  0  0  0  0
 29 30  1  0  0  0  0
 30 34  1  0  0  0  0
 32 31  2  0  0  0  0
 33 32  1  0  0  0  0
 34 31  1  0  0  0  0
M  END
>  <MODEL>
2

>  <REMARK>
 VINA RESULT:      -8.2      1.455      1.791
  Name = 
  6 active torsions:
  status: ('A' for Active; 'I' for Inactive)
    1  A    between atoms: C_3  and  N_13
    2  A    between atoms: C_3  and  C_17
    3  A    between atoms: C_5  and  N_18
    4  A    between atoms: C_12  and  C_28
    5  A    between atoms: C_17  and  C_29
    6  A    between atoms: N_18  and  C_29
                            x       y       z     vdW  Elec       q    Type
                         _______ _______ _______ _____ _____    ______ ____

>  <TORSDO>
F 6

$$$$
=
 OpenBabel10262423563D

 34 38  0  0  1  0  0  0  0  0999 V2000
  191.7660  177.1300  140.4460 C   0  0  0  0  0  0  0  0  0  0  0  0
  190.0420  176.1330  138.9420 C   0  0  0  0  0  2  0  0  0  0  0  0
  189.4320  177.9540  140.4630 N   0  0  0  0  0  0  0  0  0  0  0  0
  186.9990  178.2720  140.3470 C   0  0  2  0  0  3  0  0  0  0  0  0
  193.0700  176.9240  138.2830 C   0  0  0  0  0  2  0  0  0  0  0  0
  192.3850  175.3360  137.7170 S   0  0  0  0  0  0  0  0  0  0  0  0
  188.4270  178.7530  138.4730 O   0  0  0  0  0  1  0  0  0  0  0  0
  190.5160  177.4070  139.6320 C   0  0  1  0  0  3  0  0  0  0  0  0
  193.1130  176.9620  139.8040 C   0  0  0  0  0  2  0  0  0  0  0  0
  189.3350  177.6080  141.8610 C   0  0  0  0  0  0  0  0  0  0  0  0
  191.6830  176.9540  141.7660 C   0  0  0  0  0  3  0  0  0  0  0  0
  190.6920  175.9900  137.5750 C   0  0  0  0  0  2  0  0  0  0  0  0
  186.9570  178.1210  141.8440 C   0  0  0  0  0  3  0  0  0  0  0  0
  188.0320  177.7860  142.5700 C   0  0  0  0  0  0  0  0  0  0  0  0
  188.3680  178.7750  139.8700 C   0  0  2  0  0  3  0  0  0  0  0  0
  190.4110  177.1200  142.4840 C   0  0  0  0  0  3  0  0  0  0  0  0
  188.8350  177.2850  146.2550 C   0  0  0  0  0  0  0  0  0  0  0  0
  187.5840  177.4900  146.8400 C   0  0  0  0  0  3  0  0  0  0  0  0
  187.8790  177.6550  144.0460 C   0  0  0  0  0  0  0  0  0  0  0  0
  186.4780  177.7780  146.0380 C   0  0  0  0  0  3  0  0  0  0  0  0
  188.9810  177.3700  144.8680 C   0  0  0  0  0  3  0  0  0  0  0  0
  186.6250  177.8630  144.6510 C   0  0  0  0  0  3  0  0  0  0  0  0
  190.2250  176.9350  147.2580 Cl  0  0  0  0  0  0  0  0  0  0  0  0
  185.8840  179.0940  139.8600 N   0  0  0  0  0  2  0  0  0  0  0  0
  185.0370  178.3380  138.9390 C   0  0  0  0  0  2  0  0  0  0  0  0
  183.5710  178.5840  139.2450 C   0  0  0  0  0  2  0  0  0  0  0  0
  183.0830  177.5640  140.2600 C   0  0  0  0  0  2  0  0  0  0  0  0
  180.0440  178.1120  140.4580 S   0  0  0  0  0  0  0  0  0  0  0  0
  182.5500  178.2370  141.4400 N   0  0  0  0  0  0  0  0  0  0  0  0
  181.1370  178.4640  141.6270 C   0  0  0  0  0  0  0  0  0  0  0  0
  181.6200  178.9280  144.0000 C   0  0  0  0  0  3  0  0  0  0  0  0
  182.9320  178.7550  143.7880 C   0  0  0  0  0  3  0  0  0  0  0  0
  183.4930  178.8200  142.3920 C   0  0  0  0  0  2  0  0  0  0  0  0
  180.6780  179.1930  142.8550 C   0  0  0  0  0  2  0  0  0  0  0  0
  1 11  2  0  0  0  0
  3 10  1  0  0  0  0
  4 24  1  1  0  0  0
  4 13  1  0  0  0  0
  5  9  1  0  0  0  0
  6  5  1  0  0  0  0
  8  2  1  1  0  0  0
  8  1  1  0  0  0  0
  8  3  1  0  0  0  0
  9  1  1  0  0  0  0
 10 16  2  0  0  0  0
 10 14  1  0  0  0  0
 11 16  1  0  0  0  0
 12  6  1  0  0  0  0
 12  2  1  0  0  0  0
 13 14  2  0  0  0  0
 14 19  1  0  0  0  0
 15  7  1  6  0  0  0
 15  4  1  0  0  0  0
 15  3  1  0  0  0  0
 17 18  1  0  0  0  0
 17 23  1  0  0  0  0
 19 22  2  0  0  0  0
 19 21  1  0  0  0  0
 20 18  2  0  0  0  0
 21 17  2  0  0  0  0
 22 20  1  0  0  0  0
 25 26  1  0  0  0  0
 25 24  1  0  0  0  0
 26 27  1  0  0  0  0
 27 29  1  0  0  0  0
 28 30  2  0  0  0  0
 29 30  1  0  0  0  0
 29 33  1  0  0  0  0
 30 34  1  0  0  0  0
 32 31  2  0  0  0  0
 33 32  1  0  0  0  0
 34 31  1  0  0  0  0
M  END
>  <MODEL>
3

>  <REMARK>
 VINA RESULT:      -8.1      1.856      2.701
  Name = 
  6 active torsions:
  status: ('A' for Active; 'I' for Inactive)
    1  A    between atoms: C_3  and  N_13
    2  A    between atoms: C_3  and  C_17
    3  A    between atoms: C_5  and  N_18
    4  A    between atoms: C_12  and  C_28
    5  A    between atoms: C_17  and  C_29
    6  A    between atoms: N_18  and  C_29
                            x       y       z     vdW  Elec       q    Type
                         _______ _______ _______ _____ _____    ______ ____

>  <TORSDO>
F 6

$$$$
=
 OpenBabel10262423563D

 34 38  0  0  1  0  0  0  0  0999 V2000
  189.6000  177.2010  145.6850 C   0  0  0  0  0  0  0  0  0  0  0  0
  190.1660  175.8170  143.6870 C   0  0  0  0  0  2  0  0  0  0  0  0
  188.9560  177.9280  143.4090 N   0  0  0  0  0  0  0  0  0  0  0  0
  188.2900  178.1300  141.0530 C   0  0  2  0  0  3  0  0  0  0  0  0
  191.9820  176.5250  146.2230 C   0  0  0  0  0  2  0  0  0  0  0  0
  191.9230  174.8260  145.5720 S   0  0  0  0  0  0  0  0  0  0  0  0
  190.5990  178.1950  141.7240 O   0  0  0  0  0  1  0  0  0  0  0  0
  189.9720  177.2340  144.2150 C   0  0  1  0  0  3  0  0  0  0  0  0
  190.6150  176.9280  146.7570 C   0  0  0  0  0  2  0  0  0  0  0  0
  187.5700  177.9250  143.8150 C   0  0  0  0  0  0  0  0  0  0  0  0
  188.3270  177.3430  146.0590 C   0  0  0  0  0  3  0  0  0  0  0  0
  191.6090  175.3720  143.8650 C   0  0  0  0  0  2  0  0  0  0  0  0
  186.8750  178.3420  141.5210 C   0  0  0  0  0  3  0  0  0  0  0  0
  186.5110  178.2250  142.8050 C   0  0  0  0  0  0  0  0  0  0  0  0
  189.3060  178.5490  142.1240 C   0  0  2  0  0  3  0  0  0  0  0  0
  187.2680  177.6350  145.0840 C   0  0  0  0  0  3  0  0  0  0  0  0
  182.7350  178.5890  142.5230 C   0  0  0  0  0  0  0  0  0  0  0  0
  182.3760  178.7880  143.8580 C   0  0  0  0  0  3  0  0  0  0  0  0
  185.0810  178.4470  143.1600 C   0  0  0  0  0  0  0  0  0  0  0  0
  183.3610  178.8170  144.8470 C   0  0  0  0  0  3  0  0  0  0  0  0
  184.0770  178.4160  142.1780 C   0  0  0  0  0  3  0  0  0  0  0  0
  184.7040  178.6440  144.5000 C   0  0  0  0  0  3  0  0  0  0  0  0
  181.5020  178.5410  141.2820 Cl  0  0  0  0  0  0  0  0  0  0  0  0
  188.5260  178.7750  139.7550 N   0  0  0  0  0  2  0  0  0  0  0  0
  187.8720  178.0390  138.6760 C   0  0  0  0  0  2  0  0  0  0  0  0
  188.8870  177.6240  137.6260 C   0  0  0  0  0  2  0  0  0  0  0  0
  189.0330  176.1110  137.6260 C   0  0  0  0  0  2  0  0  0  0  0  0
  190.1030  173.5800  136.2040 S   0  0  0  0  0  0  0  0  0  0  0  0
  190.4340  175.7360  137.7850 N   0  0  0  0  0  0  0  0  0  0  0  0
  191.0140  174.6070  137.0990 C   0  0  0  0  0  0  0  0  0  0  0  0
  193.2330  175.5240  137.6590 C   0  0  0  0  0  3  0  0  0  0  0  0
  192.6680  176.5380  138.3300 C   0  0  0  0  0  3  0  0  0  0  0  0
  191.2340  176.4470  138.7800 C   0  0  0  0  0  2  0  0  0  0  0  0
  192.4560  174.2730  137.3460 C   0  0  0  0  0  2  0  0  0  0  0  0
  1 11  2  0  0  0  0
  1  9  1  0  0  0  0
  2 12  1  0  0  0  0
  3 10  1  0  0  0  0
  3  8  1  0  0  0  0
  4 24  1  6  0  0  0
  4 13  1  0  0  0  0
  4 15  1  0  0  0  0
  5  9  1  0  0  0  0
  6  5  1  0  0  0  0
  8  2  1  6  0  0  0
  8  1  1  0  0  0  0
 10 16  2  0  0  0  0
 12  6  1  0  0  0  0
 13 14  2  0  0  0  0
 14 19  1  0  0  0  0
 14 10  1  0  0  0  0
 15  7  1  6  0  0  0
 15  3  1  0  0  0  0
 16 11  1  0  0  0  0
 17 18  1  0  0  0  0
 18 20  2  0  0  0  0
 19 22  2  0  0  0  0
 21 17  2  0  0  0  0
 21 19  1  0  0  0  0
 22 20  1  0  0  0  0
 23 17  1  0  0  0  0
 25 24  1  0  0  0  0
 26 25  1  0  0  0  0
 27 26  1  0  0  0  0
 27 29  1  0  0  0  0
 28 30  2  0  0  0  0
 29 33  1  0  0  0  0
 30 34  1  0  0  0  0
 30 29  1  0  0  0  0
 31 32  2  0  0  0  0
 32 33  1  0  0  0  0
 34 31  1  0  0  0  0
M  END
>  <MODEL>
4

>  <REMARK>
 VINA RESULT:      -8.1      3.371      7.799
  Name = 
  6 active torsions:
  status: ('A' for Active; 'I' for Inactive)
    1  A    between atoms: C_3  and  N_13
    2  A    between atoms: C_3  and  C_17
    3  A    between atoms: C_5  and  N_18
    4  A    between atoms: C_12  and  C_28
    5  A    between atoms: C_17  and  C_29
    6  A    between atoms: N_18  and  C_29
                            x       y       z     vdW  Elec       q    Type
                         _______ _______ _______ _____ _____    ______ ____

>  <TORSDO>
F 6

$$$$
=
 OpenBabel10262423563D

 34 38  0  0  1  0  0  0  0  0999 V2000
  189.6090  177.1950  145.7880 C   0  0  0  0  0  0  0  0  0  0  0  0
  190.2110  175.8180  143.7960 C   0  0  0  0  0  2  0  0  0  0  0  0
  189.0050  177.9300  143.5030 N   0  0  0  0  0  0  0  0  0  0  0  0
  188.3800  178.1390  141.1370 C   0  0  2  0  0  3  0  0  0  0  0  0
  191.9820  176.5170  146.3650 C   0  0  0  0  0  2  0  0  0  0  0  0
  191.9340  174.8210  145.7080 S   0  0  0  0  0  0  0  0  0  0  0  0
  190.6770  178.2020  141.8480 O   0  0  0  0  0  1  0  0  0  0  0  0
  190.0070  177.2330  144.3250 C   0  0  1  0  0  3  0  0  0  0  0  0
  190.6050  176.9180  146.8770 C   0  0  0  0  0  2  0  0  0  0  0  0
  187.6120  177.9250  143.8860 C   0  0  0  0  0  0  0  0  0  0  0  0
  188.3300  177.3360  146.1410 C   0  0  0  0  0  3  0  0  0  0  0  0
  191.6500  175.3720  143.9980 C   0  0  0  0  0  2  0  0  0  0  0  0
  186.9570  178.3490  141.5810 C   0  0  0  0  0  3  0  0  0  0  0  0
  186.5710  178.2290  142.8590 C   0  0  0  0  0  0  0  0  0  0  0  0
  189.3770  178.5540  142.2270 C   0  0  2  0  0  3  0  0  0  0  0  0
  187.2880  177.6310  145.1480 C   0  0  0  0  0  3  0  0  0  0  0  0
  182.7990  178.5840  142.5140 C   0  0  0  0  0  0  0  0  0  0  0  0
  182.4190  178.7890  143.8420 C   0  0  0  0  0  3  0  0  0  0  0  0
  185.1350  178.4490  143.1890 C   0  0  0  0  0  0  0  0  0  0  0  0
  183.3870  178.8240  144.8470 C   0  0  0  0  0  3  0  0  0  0  0  0
  184.1470  178.4120  142.1910 C   0  0  0  0  0  3  0  0  0  0  0  0
  184.7360  178.6520  144.5230 C   0  0  0  0  0  3  0  0  0  0  0  0
  181.5870  178.5270  141.2540 Cl  0  0  0  0  0  0  0  0  0  0  0  0
  188.6390  178.7880  139.8460 N   0  0  0  0  0  2  0  0  0  0  0  0
  189.1560  177.8310  138.8710 C   0  0  0  0  0  2  0  0  0  0  0  0
  188.5140  178.0560  137.5140 C   0  0  0  0  0  2  0  0  0  0  0  0
  187.7110  176.8270  137.1190 C   0  0  0  0  0  2  0  0  0  0  0  0
  185.6910  174.5550  136.5420 S   0  0  0  0  0  0  0  0  0  0  0  0
  186.2890  177.0540  137.3540 N   0  0  0  0  0  0  0  0  0  0  0  0
  185.3010  176.0190  137.1690 C   0  0  0  0  0  0  0  0  0  0  0  0
  183.7290  177.4160  138.4550 C   0  0  0  0  0  3  0  0  0  0  0  0
  184.6510  178.3820  138.5730 C   0  0  0  0  0  3  0  0  0  0  0  0
  185.8420  178.4130  137.6520 C   0  0  0  0  0  2  0  0  0  0  0  0
  183.8550  176.3470  137.4020 C   0  0  0  0  0  2  0  0  0  0  0  0
  1 11  2  0  0  0  0
  1  9  1  0  0  0  0
  2 12  1  0  0  0  0
  3 10  1  0  0  0  0
  3  8  1  0  0  0  0
  4 24  1  6  0  0  0
  4 13  1  0  0  0  0
  4 15  1  0  0  0  0
  5  9  1  0  0  0  0
  6  5  1  0  0  0  0
  8  2  1  6  0  0  0
  8  1  1  0  0  0  0
 10 16  2  0  0  0  0
 12  6  1  0  0  0  0
 13 14  2  0  0  0  0
 14 19  1  0  0  0  0
 14 10  1  0  0  0  0
 15  7  1  6  0  0  0
 15  3  1  0  0  0  0
 16 11  1  0  0  0  0
 17 18  1  0  0  0  0
 18 20  2  0  0  0  0
 19 22  2  0  0  0  0
 21 17  2  0  0  0  0
 21 19  1  0  0  0  0
 22 20  1  0  0  0  0
 23 17  1  0  0  0  0
 25 24  1  0  0  0  0
 26 25  1  0  0  0  0
 27 29  1  0  0  0  0
 27 26  1  0  0  0  0
 28 30  2  0  0  0  0
 29 33  1  0  0  0  0
 30 29  1  0  0  0  0
 30 34  1  0  0  0  0
 31 32  2  0  0  0  0
 33 32  1  0  0  0  0
 34 31  1  0  0  0  0
M  END
>  <MODEL>
5

>  <REMARK>
 VINA RESULT:      -8.0      3.576      6.893
  Name = 
  6 active torsions:
  status: ('A' for Active; 'I' for Inactive)
    1  A    between atoms: C_3  and  N_13
    2  A    between atoms: C_3  and  C_17
    3  A    between atoms: C_5  and  N_18
    4  A    between atoms: C_12  and  C_28
    5  A    between atoms: C_17  and  C_29
    6  A    between atoms: N_18  and  C_29
                            x       y       z     vdW  Elec       q    Type
                         _______ _______ _______ _____ _____    ______ ____

>  <TORSDO>
F 6

$$$$
=
 OpenBabel10262423563D

 34 38  0  0  1  0  0  0  0  0999 V2000
  189.5940  177.2340  145.6100 C   0  0  0  0  0  0  0  0  0  0  0  0
  190.1220  175.7790  143.6530 C   0  0  0  0  0  2  0  0  0  0  0  0
  188.9190  177.8860  143.3200 N   0  0  0  0  0  0  0  0  0  0  0  0
  188.2180  178.0100  140.9690 C   0  0  2  0  0  3  0  0  0  0  0  0
  191.9810  176.5630  146.1340 C   0  0  0  0  0  2  0  0  0  0  0  0
  191.9020  174.8430  145.5440 S   0  0  0  0  0  0  0  0  0  0  0  0
  190.5370  178.0840  141.6020 O   0  0  0  0  0  1  0  0  0  0  0  0
  189.9430  177.2140  144.1340 C   0  0  1  0  0  3  0  0  0  0  0  0
  190.6240  176.9920  146.6750 C   0  0  0  0  0  2  0  0  0  0  0  0
  187.5390  177.9050  143.7470 C   0  0  0  0  0  0  0  0  0  0  0  0
  188.3280  177.3960  145.9990 C   0  0  0  0  0  3  0  0  0  0  0  0
  191.5650  175.3320  143.8240 C   0  0  0  0  0  2  0  0  0  0  0  0
  186.8120  178.2460  141.4510 C   0  0  0  0  0  3  0  0  0  0  0  0
  186.4660  178.1760  142.7450 C   0  0  0  0  0  0  0  0  0  0  0  0
  189.2520  178.4600  142.0090 C   0  0  2  0  0  3  0  0  0  0  0  0
  187.2560  177.6610  145.0300 C   0  0  0  0  0  3  0  0  0  0  0  0
  182.6960  178.6190  142.4950 C   0  0  0  0  0  0  0  0  0  0  0  0
  182.3500  178.7980  143.8360 C   0  0  0  0  0  3  0  0  0  0  0  0
  185.0430  178.4180  143.1130 C   0  0  0  0  0  0  0  0  0  0  0  0
  183.3420  178.7880  144.8190 C   0  0  0  0  0  3  0  0  0  0  0  0
  184.0330  178.4270  142.1370 C   0  0  0  0  0  3  0  0  0  0  0  0
  184.6790  178.5970  144.4600 C   0  0  0  0  0  3  0  0  0  0  0  0
  181.4550  178.6190  141.2620 Cl  0  0  0  0  0  0  0  0  0  0  0  0
  188.4370  178.6090  139.6460 N   0  0  0  0  0  2  0  0  0  0  0  0
  187.5270  178.0390  138.6550 C   0  0  0  0  0  2  0  0  0  0  0  0
  187.9210  178.4810  137.2580 C   0  0  0  0  0  2  0  0  0  0  0  0
  189.3630  178.0860  136.9840 C   0  0  0  0  0  2  0  0  0  0  0  0
  191.5400  176.5370  138.5450 S   0  0  0  0  0  0  0  0  0  0  0  0
  189.4720  176.6410  136.8220 N   0  0  0  0  0  0  0  0  0  0  0  0
  190.4190  175.8490  137.5680 C   0  0  0  0  0  0  0  0  0  0  0  0
  189.1320  173.8520  136.9060 C   0  0  0  0  0  3  0  0  0  0  0  0
  188.2920  174.6080  136.1820 C   0  0  0  0  0  3  0  0  0  0  0  0
  188.6880  176.0000  135.7670 C   0  0  0  0  0  2  0  0  0  0  0  0
  190.4850  174.3710  137.3150 C   0  0  0  0  0  2  0  0  0  0  0  0
  1 11  2  0  0  0  0
  1  9  1  0  0  0  0
  2 12  1  0  0  0  0
  3 10  1  0  0  0  0
  3  8  1  0  0  0  0
  4 24  1  6  0  0  0
  4 13  1  0  0  0  0
  4 15  1  0  0  0  0
  5  9  1  0  0  0  0
  6  5  1  0  0  0  0
  8  2  1  6  0  0  0
  8  1  1  0  0  0  0
 10 16  2  0  0  0  0
 12  6  1  0  0  0  0
 13 14  2  0  0  0  0
 14 19  1  0  0  0  0
 14 10  1  0  0  0  0
 15  7  1  6  0  0  0
 15  3  1  0  0  0  0
 16 11  1  0  0  0  0
 17 18  1  0  0  0  0
 18 20  2  0  0  0  0
 19 22  2  0  0  0  0
 21 17  2  0  0  0  0
 21 19  1  0  0  0  0
 22 20  1  0  0  0  0
 23 17  1  0  0  0  0
 25 24  1  0  0  0  0
 26 25  1  0  0  0  0
 27 26  1  0  0  0  0
 29 27  1  0  0  0  0
 29 30  1  0  0  0  0
 30 28  2  0  0  0  0
 31 34  1  0  0  0  0
 32 31  2  0  0  0  0
 33 32  1  0  0  0  0
 33 29  1  0  0  0  0
 34 30  1  0  0  0  0
M  END
>  <MODEL>
6

>  <REMARK>
 VINA RESULT:      -7.9      3.443      7.557
  Name = 
  6 active torsions:
  status: ('A' for Active; 'I' for Inactive)
    1  A    between atoms: C_3  and  N_13
    2  A    between atoms: C_3  and  C_17
    3  A    between atoms: C_5  and  N_18
    4  A    between atoms: C_12  and  C_28
    5  A    between atoms: C_17  and  C_29
    6  A    between atoms: N_18  and  C_29
                            x       y       z     vdW  Elec       q    Type
                         _______ _______ _______ _____ _____    ______ ____

>  <TORSDO>
F 6

$$$$
=
 OpenBabel10262423563D

 34 38  0  0  1  0  0  0  0  0999 V2000
  191.8450  177.2640  140.6990 C   0  0  0  0  0  0  0  0  0  0  0  0
  189.9710  176.2260  139.4190 C   0  0  0  0  0  2  0  0  0  0  0  0
  189.5070  177.9980  141.0460 N   0  0  0  0  0  0  0  0  0  0  0  0
  187.0710  178.2250  141.2640 C   0  0  2  0  0  3  0  0  0  0  0  0
  192.8520  177.1410  138.3770 C   0  0  0  0  0  2  0  0  0  0  0  0
  192.1540  175.5370  137.8750 S   0  0  0  0  0  0  0  0  0  0  0  0
  188.2150  178.7900  139.2260 O   0  0  0  0  0  1  0  0  0  0  0  0
  190.4880  177.5060  140.0660 C   0  0  1  0  0  3  0  0  0  0  0  0
  193.0990  177.1570  139.8790 C   0  0  0  0  0  2  0  0  0  0  0  0
  189.6120  177.6270  142.4370 C   0  0  0  0  0  0  0  0  0  0  0  0
  191.9470  177.0640  142.0140 C   0  0  0  0  0  3  0  0  0  0  0  0
  190.4350  176.1290  137.9760 C   0  0  0  0  0  2  0  0  0  0  0  0
  187.2370  178.0500  142.7500 C   0  0  0  0  0  3  0  0  0  0  0  0
  188.4120  177.7450  143.3180 C   0  0  0  0  0  0  0  0  0  0  0  0
  188.3440  178.7870  140.6190 C   0  0  2  0  0  3  0  0  0  0  0  0
  190.7800  177.1710  142.8990 C   0  0  0  0  0  3  0  0  0  0  0  0
  189.7160  177.1770  146.8470 C   0  0  0  0  0  0  0  0  0  0  0  0
  188.5570  177.3650  147.6030 C   0  0  0  0  0  3  0  0  0  0  0  0
  188.4630  177.5850  144.7980 C   0  0  0  0  0  0  0  0  0  0  0  0
  187.3510  177.6640  146.9670 C   0  0  0  0  0  3  0  0  0  0  0  0
  189.6690  177.2890  145.4550 C   0  0  0  0  0  3  0  0  0  0  0  0
  187.3050  177.7760  145.5740 C   0  0  0  0  0  3  0  0  0  0  0  0
  191.2320  176.8140  147.6410 Cl  0  0  0  0  0  0  0  0  0  0  0  0
  185.8720  179.0110  140.9490 N   0  0  0  0  0  2  0  0  0  0  0  0
  184.9230  178.9910  142.0600 C   0  0  0  0  0  2  0  0  0  0  0  0
  183.7790  178.0380  141.7630 C   0  0  0  0  0  2  0  0  0  0  0  0
  182.7240  178.7510  140.9330 C   0  0  0  0  0  2  0  0  0  0  0  0
  181.8700  180.4210  138.4720 S   0  0  0  0  0  0  0  0  0  0  0  0
  182.5650  178.0950  139.6400 N   0  0  0  0  0  0  0  0  0  0  0  0
  182.2340  178.8230  138.4400 C   0  0  0  0  0  0  0  0  0  0  0  0
  182.9370  176.8410  137.1530 C   0  0  0  0  0  3  0  0  0  0  0  0
  183.1940  176.1710  138.2860 C   0  0  0  0  0  3  0  0  0  0  0  0
  182.6080  176.6340  139.5930 C   0  0  0  0  0  2  0  0  0  0  0  0
  182.0590  178.0630  137.1570 C   0  0  0  0  0  2  0  0  0  0  0  0
  1 11  2  0  0  0  0
  3 10  1  0  0  0  0
  4 24  1  1  0  0  0
  4 13  1  0  0  0  0
  5  9  1  0  0  0  0
  6 12  1  0  0  0  0
  6  5  1  0  0  0  0
  8  2  1  1  0  0  0
  8  1  1  0  0  0  0
  8  3  1  0  0  0  0
  9  1  1  0  0  0  0
 10 16  2  0  0  0  0
 10 14  1  0  0  0  0
 11 16  1  0  0  0  0
 12  2  1  0  0  0  0
 13 14  2  0  0  0  0
 14 19  1  0  0  0  0
 15  7  1  6  0  0  0
 15  3  1  0  0  0  0
 15  4  1  0  0  0  0
 17 18  1  0  0  0  0
 17 23  1  0  0  0  0
 19 21  1  0  0  0  0
 19 22  2  0  0  0  0
 20 18  2  0  0  0  0
 21 17  2  0  0  0  0
 22 20  1  0  0  0  0
 24 25  1  0  0  0  0
 26 25  1  0  0  0  0
 27 26  1  0  0  0  0
 29 27  1  0  0  0  0
 30 28  2  0  0  0  0
 30 29  1  0  0  0  0
 31 34  1  0  0  0  0
 31 32  2  0  0  0  0
 32 33  1  0  0  0  0
 33 29  1  0  0  0  0
 34 30  1  0  0  0  0
M  END
>  <MODEL>
7

>  <REMARK>
 VINA RESULT:      -7.8      2.344      3.882
  Name = 
  6 active torsions:
  status: ('A' for Active; 'I' for Inactive)
    1  A    between atoms: C_3  and  N_13
    2  A    between atoms: C_3  and  C_17
    3  A    between atoms: C_5  and  N_18
    4  A    between atoms: C_12  and  C_28
    5  A    between atoms: C_17  and  C_29
    6  A    between atoms: N_18  and  C_29
                            x       y       z     vdW  Elec       q    Type
                         _______ _______ _______ _____ _____    ______ ____

>  <TORSDO>
F 6

$$$$
=
 OpenBabel10262423563D

 34 38  0  0  1  0  0  0  0  0999 V2000
  191.6590  177.2490  140.4060 C   0  0  0  0  0  0  0  0  0  0  0  0
  190.0560  176.1620  138.8330 C   0  0  0  0  0  2  0  0  0  0  0  0
  189.3040  177.9980  140.2690 N   0  0  0  0  0  0  0  0  0  0  0  0
  186.8730  178.2360  140.0070 C   0  0  2  0  0  3  0  0  0  0  0  0
  193.0910  177.0320  138.3270 C   0  0  0  0  0  2  0  0  0  0  0  0
  192.4880  175.4100  137.7640 S   0  0  0  0  0  0  0  0  0  0  0  0
  188.3910  178.7170  138.2050 O   0  0  0  0  0  1  0  0  0  0  0  0
  190.4510  177.4660  139.5160 C   0  0  1  0  0  3  0  0  0  0  0  0
  193.0450  177.1080  139.8470 C   0  0  0  0  0  2  0  0  0  0  0  0
  189.1380  177.6840  141.6690 C   0  0  0  0  0  0  0  0  0  0  0  0
  191.5060  177.1020  141.7230 C   0  0  0  0  0  3  0  0  0  0  0  0
  190.7880  176.0070  137.5100 C   0  0  0  0  0  2  0  0  0  0  0  0
  186.7500  178.1210  141.5030 C   0  0  0  0  0  3  0  0  0  0  0  0
  187.7920  177.8370  142.2980 C   0  0  0  0  0  0  0  0  0  0  0  0
  188.2510  178.7710  139.5960 C   0  0  2  0  0  3  0  0  0  0  0  0
  190.1910  177.2450  142.3630 C   0  0  0  0  0  3  0  0  0  0  0  0
  188.3830  177.3660  146.0260 C   0  0  0  0  0  0  0  0  0  0  0  0
  187.1130  177.6300  146.5420 C   0  0  0  0  0  3  0  0  0  0  0  0
  187.5570  177.7370  143.7650 C   0  0  0  0  0  0  0  0  0  0  0  0
  186.0630  177.9490  145.6800 C   0  0  0  0  0  3  0  0  0  0  0  0
  188.6040  177.4220  144.6470 C   0  0  0  0  0  3  0  0  0  0  0  0
  186.2840  178.0050  144.3010 C   0  0  0  0  0  3  0  0  0  0  0  0
  189.7050  176.9780  147.1040 Cl  0  0  0  0  0  0  0  0  0  0  0  0
  185.7640  179.0100  139.4370 N   0  0  0  0  0  2  0  0  0  0  0  0
  184.6850  178.1320  138.9900 C   0  0  0  0  0  2  0  0  0  0  0  0
  184.9330  177.6700  137.5660 C   0  0  0  0  0  2  0  0  0  0  0  0
  184.6970  176.1720  137.4660 C   0  0  0  0  0  2  0  0  0  0  0  0
  184.9400  173.0950  137.6910 S   0  0  0  0  0  0  0  0  0  0  0  0
  185.8850  175.5050  136.9430 N   0  0  0  0  0  0  0  0  0  0  0  0
  186.0330  174.0700  136.9550 C   0  0  0  0  0  0  0  0  0  0  0  0
  187.8750  174.3390  135.3370 C   0  0  0  0  0  3  0  0  0  0  0  0
  187.7450  175.6730  135.3800 C   0  0  0  0  0  3  0  0  0  0  0  0
  187.0150  176.3300  136.5210 C   0  0  0  0  0  2  0  0  0  0  0  0
  187.3020  173.4690  136.4250 C   0  0  0  0  0  2  0  0  0  0  0  0
  1 11  2  0  0  0  0
  3 10  1  0  0  0  0
  4 24  1  1  0  0  0
  4 13  1  0  0  0  0
  5  9  1  0  0  0  0
  6  5  1  0  0  0  0
  8  2  1  1  0  0  0
  8  3  1  0  0  0  0
  8  1  1  0  0  0  0
  9  1  1  0  0  0  0
 10 14  1  0  0  0  0
 10 16  2  0  0  0  0
 11 16  1  0  0  0  0
 12  6  1  0  0  0  0
 12  2  1  0  0  0  0
 13 14  2  0  0  0  0
 14 19  1  0  0  0  0
 15  7  1  6  0  0  0
 15  4  1  0  0  0  0
 15  3  1  0  0  0  0
 17 18  1  0  0  0  0
 17 23  1  0  0  0  0
 19 22  2  0  0  0  0
 19 21  1  0  0  0  0
 20 18  2  0  0  0  0
 21 17  2  0  0  0  0
 22 20  1  0  0  0  0
 25 24  1  0  0  0  0
 26 25  1  0  0  0  0
 27 26  1  0  0  0  0
 29 30  1  0  0  0  0
 29 27  1  0  0  0  0
 30 28  2  0  0  0  0
 31 32  2  0  0  0  0
 31 34  1  0  0  0  0
 32 33  1  0  0  0  0
 33 29  1  0  0  0  0
 34 30  1  0  0  0  0
M  END
>  <MODEL>
8

>  <REMARK>
 VINA RESULT:      -7.5      2.476      4.730
  Name = 
  6 active torsions:
  status: ('A' for Active; 'I' for Inactive)
    1  A    between atoms: C_3  and  N_13
    2  A    between atoms: C_3  and  C_17
    3  A    between atoms: C_5  and  N_18
    4  A    between atoms: C_12  and  C_28
    5  A    between atoms: C_17  and  C_29
    6  A    between atoms: N_18  and  C_29
                            x       y       z     vdW  Elec       q    Type
                         _______ _______ _______ _____ _____    ______ ____

>  <TORSDO>
F 6

$$$$
=
 OpenBabel10262423563D

 34 38  0  0  1  0  0  0  0  0999 V2000
  189.1920  177.5360  145.1130 C   0  0  0  0  0  0  0  0  0  0  0  0
  189.6310  175.9810  143.2110 C   0  0  0  0  0  2  0  0  0  0  0  0
  188.3630  178.0430  142.8370 N   0  0  0  0  0  0  0  0  0  0  0  0
  187.5160  178.0200  140.5310 C   0  0  2  0  0  3  0  0  0  0  0  0
  191.6210  176.9410  145.5230 C   0  0  0  0  0  2  0  0  0  0  0  0
  191.5440  175.1890  145.0360 S   0  0  0  0  0  0  0  0  0  0  0  0
  189.8670  178.1730  141.0120 O   0  0  0  0  0  1  0  0  0  0  0  0
  189.4500  177.4380  143.6220 C   0  0  1  0  0  3  0  0  0  0  0  0
  190.2910  177.3750  146.1230 C   0  0  0  0  0  2  0  0  0  0  0  0
  187.0120  178.0610  143.3480 C   0  0  0  0  0  0  0  0  0  0  0  0
  187.9500  177.6970  145.5710 C   0  0  0  0  0  3  0  0  0  0  0  0
  191.0910  175.5720  143.3160 C   0  0  0  0  0  2  0  0  0  0  0  0
  186.1370  178.2570  141.0870 C   0  0  0  0  0  3  0  0  0  0  0  0
  185.8740  178.2550  142.4010 C   0  0  0  0  0  0  0  0  0  0  0  0
  188.6020  178.5470  141.4780 C   0  0  2  0  0  3  0  0  0  0  0  0
  186.8140  177.8860  144.6580 C   0  0  0  0  0  3  0  0  0  0  0  0
  182.1000  178.7330  142.3440 C   0  0  0  0  0  0  0  0  0  0  0  0
  181.8170  178.8590  143.7050 C   0  0  0  0  0  3  0  0  0  0  0  0
  184.4710  178.4910  142.8440 C   0  0  0  0  0  0  0  0  0  0  0  0
  182.8520  178.8020  144.6400 C   0  0  0  0  0  3  0  0  0  0  0  0
  183.4180  178.5470  141.9170 C   0  0  0  0  0  3  0  0  0  0  0  0
  184.1700  178.6160  144.2120 C   0  0  0  0  0  3  0  0  0  0  0  0
  180.8040  178.7920  141.1700 Cl  0  0  0  0  0  0  0  0  0  0  0  0
  187.6400  178.5450  139.1660 N   0  0  0  0  0  2  0  0  0  0  0  0
  187.5890  177.4670  138.1810 C   0  0  0  0  0  2  0  0  0  0  0  0
  186.5800  177.7870  137.0950 C   0  0  0  0  0  2  0  0  0  0  0  0
  186.7140  176.7840  135.9610 C   0  0  0  0  0  2  0  0  0  0  0  0
  188.5480  174.2980  136.1320 S   0  0  0  0  0  0  0  0  0  0  0  0
  186.1460  175.4980  136.3510 N   0  0  0  0  0  0  0  0  0  0  0  0
  186.9550  174.3140  136.5140 C   0  0  0  0  0  0  0  0  0  0  0  0
  185.0590  173.2980  137.7190 C   0  0  0  0  0  3  0  0  0  0  0  0
  184.3130  174.3930  137.5140 C   0  0  0  0  0  3  0  0  0  0  0  0
  184.6920  175.3800  136.4420 C   0  0  0  0  0  2  0  0  0  0  0  0
  186.2830  173.0240  136.8870 C   0  0  0  0  0  2  0  0  0  0  0  0
  1 11  2  0  0  0  0
  1  9  1  0  0  0  0
  2 12  1  0  0  0  0
  3 10  1  0  0  0  0
  3  8  1  0  0  0  0
  4 24  1  6  0  0  0
  4 13  1  0  0  0  0
  4 15  1  0  0  0  0
  5  9  1  0  0  0  0
  6  5  1  0  0  0  0
  8  2  1  6  0  0  0
  8  1  1  0  0  0  0
 10 16  2  0  0  0  0
 12  6  1  0  0  0  0
 13 14  2  0  0  0  0
 14 19  1  0  0  0  0
 14 10  1  0  0  0  0
 15  7  1  6  0  0  0
 15  3  1  0  0  0  0
 16 11  1  0  0  0  0
 17 18  1  0  0  0  0
 18 20  2  0  0  0  0
 19 22  2  0  0  0  0
 21 17  2  0  0  0  0
 21 19  1  0  0  0  0
 22 20  1  0  0  0  0
 23 17  1  0  0  0  0
 25 24  1  0  0  0  0
 26 25  1  0  0  0  0
 27 29  1  0  0  0  0
 27 26  1  0  0  0  0
 28 30  2  0  0  0  0
 29 33  1  0  0  0  0
 29 30  1  0  0  0  0
 30 34  1  0  0  0  0
 32 31  2  0  0  0  0
 33 32  1  0  0  0  0
 34 31  1  0  0  0  0
M  END
>  <MODEL>
9

>  <REMARK>
 VINA RESULT:      -7.5      3.897      7.212
  Name = 
  6 active torsions:
  status: ('A' for Active; 'I' for Inactive)
    1  A    between atoms: C_3  and  N_13
    2  A    between atoms: C_3  and  C_17
    3  A    between atoms: C_5  and  N_18
    4  A    between atoms: C_12  and  C_28
    5  A    between atoms: C_17  and  C_29
    6  A    between atoms: N_18  and  C_29
                            x       y       z     vdW  Elec       q    Type
                         _______ _______ _______ _____ _____    ______ ____

>  <TORSDO>
F 6

$$$$
