=
 OpenBabel10272414403D

 43 47  0  0  1  0  0  0  0  0999 V2000
  184.1570  178.6620  142.7040 N   0  0  0  0  0  0  0  0  0  0  0  0
  181.9120  179.0950  142.2010 O   0  0  0  0  0  0  0  0  0  0  0  0
  187.8020  178.1220  136.2790 C   0  0  0  0  0  0  0  0  0  0  0  0
  182.9860  178.5220  141.8730 C   0  0  0  0  0  0  0  0  0  0  0  0
  188.1490  178.2050  141.2960 C   0  0  0  0  0  0  0  0  0  0  0  0
  185.7340  178.3740  140.9420 N   0  0  0  0  0  0  0  0  0  0  0  0
  188.6170  178.1280  138.5590 C   0  0  0  0  0  0  0  0  0  0  0  0
  186.4870  178.2140  136.7440 C   0  0  0  0  0  3  0  0  0  0  0  0
  188.0460  178.0670  134.9480 F   0  0  0  0  0  0  0  0  0  0  0  0
  187.2880  178.2180  139.0340 C   0  0  0  0  0  0  0  0  0  0  0  0
  188.8650  178.0780  137.1850 C   0  0  0  0  0  3  0  0  0  0  0  0
  186.2290  178.2630  138.1170 C   0  0  0  0  0  3  0  0  0  0  0  0
  185.5020  178.5080  142.2140 C   0  0  0  0  0  0  0  0  0  0  0  0
  187.0610  178.2610  140.4180 C   0  0  0  0  0  0  0  0  0  0  0  0
  189.4460  178.1200  140.7820 C   0  0  0  0  0  3  0  0  0  0  0  0
  187.9150  178.1660  142.7780 C   0  0  1  0  0  3  0  0  0  0  0  0
  186.5780  178.5550  143.1160 O   0  0  0  0  0  0  0  0  0  0  0  0
  189.6510  178.0870  139.4390 N   0  0  0  0  0  0  0  0  0  0  0  0
  183.9790  179.0020  144.0570 C   0  0  0  0  0  0  0  0  0  0  0  0
  183.8320  179.2830  145.1710 N   0  0  0  0  0  0  0  0  0  0  0  0
  188.1880  176.7620  143.3030 C   0  0  0  0  0  2  0  0  0  0  0  0
  189.5900  177.1120  146.8110 C   0  0  0  0  0  3  0  0  0  0  0  0
  190.9530  176.8460  146.5940 C   0  0  0  0  0  0  0  0  0  0  0  0
  190.4980  176.5350  144.2290 C   0  0  0  0  0  3  0  0  0  0  0  0
  188.6870  177.0880  145.7430 C   0  0  0  0  0  3  0  0  0  0  0  0
  189.1410  176.7970  144.4500 C   0  0  0  0  0  0  0  0  0  0  0  0
  191.4000  176.5600  145.2980 C   0  0  0  0  0  3  0  0  0  0  0  0
  192.6660  175.7250  147.9840 C   0  0  0  0  0  1  0  0  0  0  0  0
  191.8800  176.8600  147.6410 O   0  0  0  0  0  0  0  0  0  0  0  0
  183.0060  177.6920  140.6250 C   0  0  0  0  0  2  0  0  0  0  0  0
  181.7170  177.8430  139.8150 C   0  0  0  0  0  2  0  0  0  0  0  0
  181.8770  178.6370  138.5110 C   0  0  2  0  0  3  0  0  0  0  0  0
  182.8150  177.9910  137.5380 C   0  0  0  0  0  3  0  0  0  0  0  0
  182.5270  177.9190  136.3540 O   0  0  0  0  0  0  0  0  0  0  0  0
  182.1900  180.0890  138.7380 C   0  0  0  0  0  0  0  0  0  0  0  0
  183.3560  180.4370  138.8410 O   0  0  0  0  0  0  0  0  0  0  0  0
  181.1030  181.1190  138.8160 C   0  0  0  0  0  2  0  0  0  0  0  0
  180.9750  181.8770  137.5370 C   0  0  0  0  0  0  0  0  0  0  0  0
  181.0220  183.9830  136.3370 C   0  0  0  0  0  3  0  0  0  0  0  0
  180.5690  181.9210  135.1450 C   0  0  0  0  0  3  0  0  0  0  0  0
  180.7370  183.3090  135.1430 C   0  0  0  0  0  3  0  0  0  0  0  0
  180.6860  181.2050  136.3410 C   0  0  0  0  0  3  0  0  0  0  0  0
  181.1410  183.2660  137.5320 C   0  0  0  0  0  3  0  0  0  0  0  0
  1 19  1  0  0  0  0
  3  8  2  0  0  0  0
  3 11  1  0  0  0  0
  4  2  2  0  0  0  0
  4  1  1  0  0  0  0
  5 16  1  0  0  0  0
  6 13  2  0  0  0  0
  7 10  1  0  0  0  0
  7 18  1  0  0  0  0
  8 12  1  0  0  0  0
  9  3  1  0  0  0  0
 10 14  1  0  0  0  0
 11  7  2  0  0  0  0
 12 10  2  0  0  0  0
 13  1  1  0  0  0  0
 13 17  1  0  0  0  0
 14  6  1  0  0  0  0
 14  5  2  0  0  0  0
 15  5  1  0  0  0  0
 16 17  1  0  0  0  0
 16 21  1  6  0  0  0
 18 15  2  0  0  0  0
 19 20  3  0  0  0  0
 21 26  1  0  0  0  0
 23 22  1  0  0  0  0
 23 29  1  0  0  0  0
 24 26  2  0  0  0  0
 24 27  1  0  0  0  0
 25 22  2  0  0  0  0
 26 25  1  0  0  0  0
 27 23  2  0  0  0  0
 29 28  1  0  0  0  0
 30  4  1  0  0  0  0
 31 30  1  0  0  0  0
 32 33  1  6  0  0  0
 32 35  1  0  0  0  0
 32 31  1  0  0  0  0
 34 33  2  0  0  0  0
 35 37  1  0  0  0  0
 35 36  2  0  0  0  0
 38 37  1  0  0  0  0
 39 43  2  0  0  0  0
 40 42  1  0  0  0  0
 41 40  2  0  0  0  0
 41 39  1  0  0  0  0
 42 38  2  0  0  0  0
 43 38  1  0  0  0  0
M  END
>  <MODEL>
1

>  <REMARK>
 VINA RESULT:      -9.2      0.000      0.000
  Name = 
  11 active torsions:
  status: ('A' for Active; 'I' for Inactive)
    1  A    between atoms: C_1  and  C_34
    2  A    between atoms: C_1  and  C_35
    3  A    between atoms: N_2  and  C_12
    4  A    between atoms: C_4  and  C_7
    5  A    between atoms: C_4  and  C_15
    6  A    between atoms: C_6  and  C_7
    7  A    between atoms: C_10  and  C_15
    8  A    between atoms: C_11  and  C_14
    9  A    between atoms: C_14  and  C_22
   10  A    between atoms: C_15  and  C_22
   11  A    between atoms: C_19  and  O_37
                            x       y       z     vdW  Elec       q    Type
                         _______ _______ _______ _____ _____    ______ ____

>  <TORSDO>
F 11

$$$$
=
 OpenBabel10272414403D

 43 47  0  0  1  0  0  0  0  0999 V2000
  184.5530  178.6150  142.8400 N   0  0  0  0  0  0  0  0  0  0  0  0
  182.2810  179.0600  142.4930 O   0  0  0  0  0  0  0  0  0  0  0  0
  187.7340  178.0140  136.1790 C   0  0  0  0  0  0  0  0  0  0  0  0
  183.3260  178.4780  142.0940 C   0  0  0  0  0  0  0  0  0  0  0  0
  188.4340  178.1230  141.1590 C   0  0  0  0  0  0  0  0  0  0  0  0
  186.0000  178.3060  140.9740 N   0  0  0  0  0  0  0  0  0  0  0  0
  188.7070  178.0270  138.3960 C   0  0  0  0  0  0  0  0  0  0  0  0
  186.4560  178.1170  136.7350 C   0  0  0  0  0  3  0  0  0  0  0  0
  187.8830  177.9500  134.8340 F   0  0  0  0  0  0  0  0  0  0  0  0
  187.4160  178.1290  138.9620 C   0  0  0  0  0  0  0  0  0  0  0  0
  188.8580  177.9680  137.0080 C   0  0  0  0  0  3  0  0  0  0  0  0
  186.2950  178.1760  138.1220 C   0  0  0  0  0  3  0  0  0  0  0  0
  185.8590  178.4490  142.2570 C   0  0  0  0  0  0  0  0  0  0  0  0
  187.2870  178.1810  140.3580 C   0  0  0  0  0  0  0  0  0  0  0  0
  189.6910  178.0270  140.5550 C   0  0  0  0  0  3  0  0  0  0  0  0
  188.3040  178.0940  142.6530 C   0  0  1  0  0  3  0  0  0  0  0  0
  186.9960  178.4940  143.0820 O   0  0  0  0  0  0  0  0  0  0  0  0
  189.8000  177.9840  139.2010 N   0  0  0  0  0  0  0  0  0  0  0  0
  184.4730  178.9630  144.2000 C   0  0  0  0  0  0  0  0  0  0  0  0
  184.4070  179.2510  145.3200 N   0  0  0  0  0  0  0  0  0  0  0  0
  188.6040  176.6910  143.1660 C   0  0  0  0  0  2  0  0  0  0  0  0
  189.7530  177.1240  146.7560 C   0  0  0  0  0  3  0  0  0  0  0  0
  191.1210  176.8170  146.6490 C   0  0  0  0  0  0  0  0  0  0  0  0
  190.8330  176.4380  144.2680 C   0  0  0  0  0  3  0  0  0  0  0  0
  188.9310  177.0860  145.6250 C   0  0  0  0  0  3  0  0  0  0  0  0
  189.4710  176.7410  144.3790 C   0  0  0  0  0  0  0  0  0  0  0  0
  191.6540  176.4760  145.4000 C   0  0  0  0  0  3  0  0  0  0  0  0
  192.7560  175.7240  148.1520 C   0  0  0  0  0  1  0  0  0  0  0  0
  191.9680  176.8430  147.7620 O   0  0  0  0  0  0  0  0  0  0  0  0
  183.2530  177.6410  140.8530 C   0  0  0  0  0  2  0  0  0  0  0  0
  182.1700  178.1340  139.8920 C   0  0  0  0  0  2  0  0  0  0  0  0
  182.7080  178.7870  138.6120 C   0  0  2  0  0  3  0  0  0  0  0  0
  182.8790  180.2700  138.7320 C   0  0  0  0  0  3  0  0  0  0  0  0
  183.9890  180.7560  138.8780 O   0  0  0  0  0  0  0  0  0  0  0  0
  181.9410  178.3920  137.3810 C   0  0  0  0  0  0  0  0  0  0  0  0
  181.5640  179.2610  136.6100 O   0  0  0  0  0  0  0  0  0  0  0  0
  181.6520  176.9540  137.0690 C   0  0  0  0  0  2  0  0  0  0  0  0
  182.8840  176.2270  136.6460 C   0  0  0  0  0  0  0  0  0  0  0  0
  184.4870  175.6480  134.9210 C   0  0  0  0  0  3  0  0  0  0  0  0
  184.7490  174.7640  137.1630 C   0  0  0  0  0  3  0  0  0  0  0  0
  185.1960  174.8670  135.8420 C   0  0  0  0  0  3  0  0  0  0  0  0
  183.5940  175.4410  137.5650 C   0  0  0  0  0  3  0  0  0  0  0  0
  183.3320  176.3280  135.3240 C   0  0  0  0  0  3  0  0  0  0  0  0
  1 19  1  0  0  0  0
  3  8  2  0  0  0  0
  3 11  1  0  0  0  0
  4  2  2  0  0  0  0
  4  1  1  0  0  0  0
  5 16  1  0  0  0  0
  6 13  2  0  0  0  0
  7 10  1  0  0  0  0
  7 18  1  0  0  0  0
  8 12  1  0  0  0  0
  9  3  1  0  0  0  0
 10 14  1  0  0  0  0
 11  7  2  0  0  0  0
 12 10  2  0  0  0  0
 13  1  1  0  0  0  0
 13 17  1  0  0  0  0
 14  6  1  0  0  0  0
 14  5  2  0  0  0  0
 15  5  1  0  0  0  0
 16 17  1  0  0  0  0
 16 21  1  6  0  0  0
 18 15  2  0  0  0  0
 19 20  3  0  0  0  0
 21 26  1  0  0  0  0
 23 22  1  0  0  0  0
 23 29  1  0  0  0  0
 24 26  2  0  0  0  0
 24 27  1  0  0  0  0
 25 22  2  0  0  0  0
 26 25  1  0  0  0  0
 27 23  2  0  0  0  0
 29 28  1  0  0  0  0
 30  4  1  0  0  0  0
 31 30  1  0  0  0  0
 32 33  1  1  0  0  0
 32 31  1  0  0  0  0
 33 34  2  0  0  0  0
 35 32  1  0  0  0  0
 36 35  2  0  0  0  0
 37 35  1  0  0  0  0
 38 37  1  0  0  0  0
 38 42  1  0  0  0  0
 39 43  1  0  0  0  0
 39 41  2  0  0  0  0
 40 42  2  0  0  0  0
 41 40  1  0  0  0  0
 43 38  2  0  0  0  0
M  END
>  <MODEL>
2

>  <REMARK>
 VINA RESULT:      -9.1      1.624      3.227
  Name = 
  11 active torsions:
  status: ('A' for Active; 'I' for Inactive)
    1  A    between atoms: C_1  and  C_34
    2  A    between atoms: C_1  and  C_35
    3  A    between atoms: N_2  and  C_12
    4  A    between atoms: C_4  and  C_7
    5  A    between atoms: C_4  and  C_15
    6  A    between atoms: C_6  and  C_7
    7  A    between atoms: C_10  and  C_15
    8  A    between atoms: C_11  and  C_14
    9  A    between atoms: C_14  and  C_22
   10  A    between atoms: C_15  and  C_22
   11  A    between atoms: C_19  and  O_37
                            x       y       z     vdW  Elec       q    Type
                         _______ _______ _______ _____ _____    ______ ____

>  <TORSDO>
F 11

$$$$
=
 OpenBabel10272414403D

 43 47  0  0  1  0  0  0  0  0999 V2000
  187.8160  178.1510  138.5280 N   0  0  0  0  0  0  0  0  0  0  0  0
  190.0410  178.3630  139.2250 O   0  0  0  0  0  0  0  0  0  0  0  0
  183.5310  179.0480  144.5030 C   0  0  0  0  0  0  0  0  0  0  0  0
  188.8690  177.9880  139.5010 C   0  0  0  0  0  0  0  0  0  0  0  0
  183.6820  178.4250  139.5140 C   0  0  0  0  0  0  0  0  0  0  0  0
  186.0520  178.3340  140.1190 N   0  0  0  0  0  0  0  0  0  0  0  0
  182.9480  178.8180  142.1640 C   0  0  0  0  0  0  0  0  0  0  0  0
  184.8840  178.9000  144.1850 C   0  0  0  0  0  3  0  0  0  0  0  0
  183.1550  179.2250  145.7920 F   0  0  0  0  0  0  0  0  0  0  0  0
  184.3150  178.6650  141.8390 C   0  0  0  0  0  0  0  0  0  0  0  0
  182.5650  179.0060  143.4950 C   0  0  0  0  0  3  0  0  0  0  0  0
  185.2770  178.7100  142.8570 C   0  0  0  0  0  3  0  0  0  0  0  0
  186.4220  178.2460  138.8770 C   0  0  0  0  0  0  0  0  0  0  0  0
  184.6780  178.4720  140.4970 C   0  0  0  0  0  0  0  0  0  0  0  0
  182.3430  178.5860  139.8820 C   0  0  0  0  0  3  0  0  0  0  0  0
  184.0500  178.1360  138.0890 C   0  0  1  0  0  3  0  0  0  0  0  0
  185.4550  178.2950  137.8570 O   0  0  0  0  0  0  0  0  0  0  0  0
  182.0080  178.7800  141.1850 N   0  0  0  0  0  0  0  0  0  0  0  0
  188.1700  178.2590  137.1720 C   0  0  0  0  0  0  0  0  0  0  0  0
  188.4620  178.3470  136.0550 N   0  0  0  0  0  0  0  0  0  0  0  0
  183.6300  176.7160  137.7300 C   0  0  0  0  0  2  0  0  0  0  0  0
  185.7420  175.9220  134.6790 C   0  0  0  0  0  3  0  0  0  0  0  0
  186.5310  174.8600  135.1560 C   0  0  0  0  0  0  0  0  0  0  0  0
  185.4130  175.0160  137.3060 C   0  0  0  0  0  3  0  0  0  0  0  0
  184.7950  176.5270  135.5130 C   0  0  0  0  0  3  0  0  0  0  0  0
  184.6310  176.0750  136.8290 C   0  0  0  0  0  0  0  0  0  0  0  0
  186.3590  174.4120  136.4710 C   0  0  0  0  0  3  0  0  0  0  0  0
  188.8780  174.2640  134.6460 C   0  0  0  0  0  1  0  0  0  0  0  0
  187.4870  174.2360  134.3490 O   0  0  0  0  0  0  0  0  0  0  0  0
  188.6110  177.3630  140.8390 C   0  0  0  0  0  2  0  0  0  0  0  0
  189.2630  178.1510  141.9750 C   0  0  0  0  0  2  0  0  0  0  0  0
  190.1810  177.3180  142.8790 C   0  0  2  0  0  3  0  0  0  0  0  0
  189.7210  175.9020  143.0450 C   0  0  0  0  0  3  0  0  0  0  0  0
  190.4990  174.9750  142.8880 O   0  0  0  0  0  0  0  0  0  0  0  0
  190.4810  177.9850  144.1920 C   0  0  0  0  0  0  0  0  0  0  0  0
  190.6620  179.1920  144.2180 O   0  0  0  0  0  0  0  0  0  0  0  0
  190.5370  177.2020  145.4710 C   0  0  0  0  0  2  0  0  0  0  0  0
  189.3980  177.5440  146.3720 C   0  0  0  0  0  0  0  0  0  0  0  0
  187.0310  177.9600  146.6890 C   0  0  0  0  0  3  0  0  0  0  0  0
  188.5460  178.0910  148.5770 C   0  0  0  0  0  3  0  0  0  0  0  0
  187.2530  178.1850  148.0540 C   0  0  0  0  0  3  0  0  0  0  0  0
  189.6190  177.7730  147.7380 C   0  0  0  0  0  3  0  0  0  0  0  0
  188.1030  177.6390  145.8500 C   0  0  0  0  0  3  0  0  0  0  0  0
  1 13  1  0  0  0  0
  1  4  1  0  0  0  0
  2  4  2  0  0  0  0
  3  9  1  0  0  0  0
  4 30  1  0  0  0  0
  5 15  2  0  0  0  0
  5 14  1  0  0  0  0
  6 14  1  0  0  0  0
  7 11  1  0  0  0  0
  8  3  1  0  0  0  0
 10  7  1  0  0  0  0
 10 12  1  0  0  0  0
 11  3  2  0  0  0  0
 12  8  2  0  0  0  0
 13  6  2  0  0  0  0
 14 10  2  0  0  0  0
 15 18  1  0  0  0  0
 16 21  1  1  0  0  0
 16  5  1  0  0  0  0
 17 16  1  0  0  0  0
 17 13  1  0  0  0  0
 18  7  2  0  0  0  0
 19  1  1  0  0  0  0
 20 19  3  0  0  0  0
 22 23  2  0  0  0  0
 22 25  1  0  0  0  0
 23 27  1  0  0  0  0
 25 26  2  0  0  0  0
 26 24  1  0  0  0  0
 26 21  1  0  0  0  0
 27 24  2  0  0  0  0
 29 28  1  0  0  0  0
 29 23  1  0  0  0  0
 30 31  1  0  0  0  0
 32 31  1  1  0  0  0
 32 33  1  0  0  0  0
 32 35  1  0  0  0  0
 34 33  2  0  0  0  0
 35 36  2  0  0  0  0
 35 37  1  0  0  0  0
 37 38  1  0  0  0  0
 38 42  1  0  0  0  0
 39 41  2  0  0  0  0
 41 40  1  0  0  0  0
 42 40  2  0  0  0  0
 43 38  2  0  0  0  0
 43 39  1  0  0  0  0
M  END
>  <MODEL>
3

>  <REMARK>
 VINA RESULT:      -8.9      3.472      9.731
  Name = 
  11 active torsions:
  status: ('A' for Active; 'I' for Inactive)
    1  A    between atoms: C_1  and  C_34
    2  A    between atoms: C_1  and  C_35
    3  A    between atoms: N_2  and  C_12
    4  A    between atoms: C_4  and  C_7
    5  A    between atoms: C_4  and  C_15
    6  A    between atoms: C_6  and  C_7
    7  A    between atoms: C_10  and  C_15
    8  A    between atoms: C_11  and  C_14
    9  A    between atoms: C_14  and  C_22
   10  A    between atoms: C_15  and  C_22
   11  A    between atoms: C_19  and  O_37
                            x       y       z     vdW  Elec       q    Type
                         _______ _______ _______ _____ _____    ______ ____

>  <TORSDO>
F 11

$$$$
=
 OpenBabel10272414403D

 43 47  0  0  1  0  0  0  0  0999 V2000
  187.1630  178.1540  137.7020 N   0  0  0  0  0  0  0  0  0  0  0  0
  189.3670  178.8400  138.0950 O   0  0  0  0  0  0  0  0  0  0  0  0
  183.3520  179.2530  143.9570 C   0  0  0  0  0  0  0  0  0  0  0  0
  188.3120  178.3230  138.5560 C   0  0  0  0  0  0  0  0  0  0  0  0
  183.1570  177.8860  139.1200 C   0  0  0  0  0  0  0  0  0  0  0  0
  185.5480  178.2880  139.4490 N   0  0  0  0  0  0  0  0  0  0  0  0
  182.6090  178.5640  141.7580 C   0  0  0  0  0  0  0  0  0  0  0  0
  184.6740  179.2840  143.5050 C   0  0  0  0  0  3  0  0  0  0  0  0
  183.0700  179.5650  145.2440 F   0  0  0  0  0  0  0  0  0  0  0  0
  183.9450  178.5920  141.2980 C   0  0  0  0  0  0  0  0  0  0  0  0
  182.3210  178.8920  143.0850 C   0  0  0  0  0  3  0  0  0  0  0  0
  184.9720  178.9560  142.1800 C   0  0  0  0  0  3  0  0  0  0  0  0
  185.8120  178.0680  138.1950 C   0  0  0  0  0  0  0  0  0  0  0  0
  184.2130  178.2520  139.9630 C   0  0  0  0  0  0  0  0  0  0  0  0
  181.8500  177.8770  139.6170 C   0  0  0  0  0  3  0  0  0  0  0  0
  183.4390  177.4420  137.7150 C   0  0  1  0  0  3  0  0  0  0  0  0
  184.7640  177.7950  137.3000 O   0  0  0  0  0  0  0  0  0  0  0  0
  181.6060  178.2150  140.9110 N   0  0  0  0  0  0  0  0  0  0  0  0
  187.3650  178.1040  136.3110 C   0  0  0  0  0  0  0  0  0  0  0  0
  187.5310  178.0640  135.1660 N   0  0  0  0  0  0  0  0  0  0  0  0
  183.2540  175.9330  137.6090 C   0  0  0  0  0  2  0  0  0  0  0  0
  186.2940  173.9170  136.5650 C   0  0  0  0  0  3  0  0  0  0  0  0
  186.3350  174.1710  135.1830 C   0  0  0  0  0  0  0  0  0  0  0  0
  184.3680  175.5790  135.4000 C   0  0  0  0  0  3  0  0  0  0  0  0
  185.2940  174.4900  137.3590 C   0  0  0  0  0  3  0  0  0  0  0  0
  184.3290  175.3210  136.7750 C   0  0  0  0  0  0  0  0  0  0  0  0
  185.3690  175.0050  134.6080 C   0  0  0  0  0  3  0  0  0  0  0  0
  188.6830  174.0170  134.4150 C   0  0  0  0  0  1  0  0  0  0  0  0
  187.3200  173.6120  134.3630 O   0  0  0  0  0  0  0  0  0  0  0  0
  188.2960  177.8820  139.9890 C   0  0  0  0  0  2  0  0  0  0  0  0
  189.6730  177.4120  140.4600 C   0  0  0  0  0  2  0  0  0  0  0  0
  189.9040  177.5400  141.9720 C   0  0  2  0  0  3  0  0  0  0  0  0
  191.3530  177.6240  142.3430 C   0  0  0  0  0  3  0  0  0  0  0  0
  191.6960  178.1730  143.3780 O   0  0  0  0  0  0  0  0  0  0  0  0
  189.1630  176.5060  142.7720 C   0  0  0  0  0  0  0  0  0  0  0  0
  189.6670  175.4050  142.9330 O   0  0  0  0  0  0  0  0  0  0  0  0
  187.8320  176.8070  143.3940 C   0  0  0  0  0  2  0  0  0  0  0  0
  187.9740  177.1910  144.8290 C   0  0  0  0  0  0  0  0  0  0  0  0
  189.3750  177.5340  146.7770 C   0  0  0  0  0  3  0  0  0  0  0  0
  186.9880  177.9260  146.9210 C   0  0  0  0  0  3  0  0  0  0  0  0
  188.2510  177.9100  147.5210 C   0  0  0  0  0  3  0  0  0  0  0  0
  186.8480  177.5660  145.5770 C   0  0  0  0  0  3  0  0  0  0  0  0
  189.2360  177.1750  145.4320 C   0  0  0  0  0  3  0  0  0  0  0  0
  1 13  1  0  0  0  0
  1  4  1  0  0  0  0
  2  4  2  0  0  0  0
  3  9  1  0  0  0  0
  4 30  1  0  0  0  0
  5 15  2  0  0  0  0
  5 14  1  0  0  0  0
  6 14  1  0  0  0  0
  7 11  1  0  0  0  0
  8  3  1  0  0  0  0
 10  7  1  0  0  0  0
 10 12  1  0  0  0  0
 11  3  2  0  0  0  0
 12  8  2  0  0  0  0
 13  6  2  0  0  0  0
 14 10  2  0  0  0  0
 15 18  1  0  0  0  0
 16 21  1  1  0  0  0
 16  5  1  0  0  0  0
 17 16  1  0  0  0  0
 17 13  1  0  0  0  0
 18  7  2  0  0  0  0
 19  1  1  0  0  0  0
 20 19  3  0  0  0  0
 22 25  1  0  0  0  0
 23 22  2  0  0  0  0
 24 26  1  0  0  0  0
 26 25  2  0  0  0  0
 26 21  1  0  0  0  0
 27 23  1  0  0  0  0
 27 24  2  0  0  0  0
 29 28  1  0  0  0  0
 29 23  1  0  0  0  0
 30 31  1  0  0  0  0
 32 31  1  6  0  0  0
 32 33  1  0  0  0  0
 32 35  1  0  0  0  0
 33 34  2  0  0  0  0
 35 36  2  0  0  0  0
 35 37  1  0  0  0  0
 37 38  1  0  0  0  0
 38 43  2  0  0  0  0
 38 42  1  0  0  0  0
 39 41  2  0  0  0  0
 40 41  1  0  0  0  0
 42 40  2  0  0  0  0
 43 39  1  0  0  0  0
M  END
>  <MODEL>
4

>  <REMARK>
 VINA RESULT:      -8.6      3.554      9.576
  Name = 
  11 active torsions:
  status: ('A' for Active; 'I' for Inactive)
    1  A    between atoms: C_1  and  C_34
    2  A    between atoms: C_1  and  C_35
    3  A    between atoms: N_2  and  C_12
    4  A    between atoms: C_4  and  C_7
    5  A    between atoms: C_4  and  C_15
    6  A    between atoms: C_6  and  C_7
    7  A    between atoms: C_10  and  C_15
    8  A    between atoms: C_11  and  C_14
    9  A    between atoms: C_14  and  C_22
   10  A    between atoms: C_15  and  C_22
   11  A    between atoms: C_19  and  O_37
                            x       y       z     vdW  Elec       q    Type
                         _______ _______ _______ _____ _____    ______ ____

>  <TORSDO>
F 11

$$$$
=
 OpenBabel10272414403D

 43 47  0  0  1  0  0  0  0  0999 V2000
  191.4070  177.3540  140.4240 N   0  0  0  0  0  0  0  0  0  0  0  0
  192.4110  177.5150  142.5330 O   0  0  0  0  0  0  0  0  0  0  0  0
  184.2350  179.0090  141.2520 C   0  0  0  0  0  0  0  0  0  0  0  0
  191.3830  177.2260  141.8600 C   0  0  0  0  0  0  0  0  0  0  0  0
  187.9370  177.9280  138.0230 C   0  0  0  0  0  0  0  0  0  0  0  0
  189.0740  177.7710  140.1850 N   0  0  0  0  0  0  0  0  0  0  0  0
  185.5390  178.5970  139.2530 C   0  0  0  0  0  0  0  0  0  0  0  0
  185.3620  178.7630  142.0420 C   0  0  0  0  0  3  0  0  0  0  0  0
  183.0550  179.3210  141.8370 F   0  0  0  0  0  0  0  0  0  0  0  0
  186.6790  178.3460  140.0490 C   0  0  0  0  0  0  0  0  0  0  0  0
  184.3230  178.9250  139.8600 C   0  0  0  0  0  3  0  0  0  0  0  0
  186.5820  178.4340  141.4440 C   0  0  0  0  0  3  0  0  0  0  0  0
  190.2260  177.5520  139.6240 C   0  0  0  0  0  0  0  0  0  0  0  0
  187.8880  178.0120  139.4200 C   0  0  0  0  0  0  0  0  0  0  0  0
  186.7850  178.1890  137.2760 C   0  0  0  0  0  3  0  0  0  0  0  0
  189.2020  177.4910  137.3430 C   0  0  1  0  0  3  0  0  0  0  0  0
  190.3310  177.5570  138.2230 O   0  0  0  0  0  0  0  0  0  0  0  0
  185.6230  178.5180  137.9000 N   0  0  0  0  0  0  0  0  0  0  0  0
  192.6520  177.3200  139.7710 C   0  0  0  0  0  0  0  0  0  0  0  0
  193.6780  177.2920  139.2340 N   0  0  0  0  0  0  0  0  0  0  0  0
  189.0390  176.0680  136.8240 C   0  0  0  0  0  2  0  0  0  0  0  0
  192.1710  173.9300  136.9620 C   0  0  0  0  0  3  0  0  0  0  0  0
  192.8480  174.3540  135.8060 C   0  0  0  0  0  0  0  0  0  0  0  0
  191.0350  175.8980  135.3300 C   0  0  0  0  0  3  0  0  0  0  0  0
  190.9320  174.4870  137.2980 C   0  0  0  0  0  3  0  0  0  0  0  0
  190.3620  175.4710  136.4800 C   0  0  0  0  0  0  0  0  0  0  0  0
  192.2740  175.3410  134.9950 C   0  0  0  0  0  3  0  0  0  0  0  0
  195.1290  173.5850  136.3800 C   0  0  0  0  0  1  0  0  0  0  0  0
  194.0860  173.8160  135.4410 O   0  0  0  0  0  0  0  0  0  0  0  0
  190.1640  176.7390  142.5840 C   0  0  0  0  0  2  0  0  0  0  0  0
  190.5220  175.9390  143.8370 C   0  0  0  0  0  2  0  0  0  0  0  0
  191.0060  176.7930  145.0180 C   0  0  2  0  0  3  0  0  0  0  0  0
  191.7640  176.0070  146.0430 C   0  0  0  0  0  3  0  0  0  0  0  0
  192.2430  176.5620  147.0190 O   0  0  0  0  0  0  0  0  0  0  0  0
  189.9170  177.6330  145.6230 C   0  0  0  0  0  0  0  0  0  0  0  0
  189.8080  178.8010  145.2840 O   0  0  0  0  0  0  0  0  0  0  0  0
  188.9490  177.0600  146.6160 C   0  0  0  0  0  2  0  0  0  0  0  0
  187.5800  177.6240  146.4330 C   0  0  0  0  0  0  0  0  0  0  0  0
  185.5670  177.8450  145.1010 C   0  0  0  0  0  3  0  0  0  0  0  0
  185.7370  178.9840  147.2340 C   0  0  0  0  0  3  0  0  0  0  0  0
  185.0100  178.6770  146.0800 C   0  0  0  0  0  3  0  0  0  0  0  0
  187.0220  178.4600  147.4110 C   0  0  0  0  0  3  0  0  0  0  0  0
  186.8510  177.3190  145.2790 C   0  0  0  0  0  3  0  0  0  0  0  0
  1  4  1  0  0  0  0
  3  9  1  0  0  0  0
  3  8  1  0  0  0  0
  4  2  2  0  0  0  0
  4 30  1  0  0  0  0
  5 14  1  0  0  0  0
  7 11  1  0  0  0  0
  7 10  1  0  0  0  0
 10 12  1  0  0  0  0
 11  3  2  0  0  0  0
 12  8  2  0  0  0  0
 13  6  2  0  0  0  0
 13  1  1  0  0  0  0
 14 10  2  0  0  0  0
 14  6  1  0  0  0  0
 15 18  1  0  0  0  0
 15  5  2  0  0  0  0
 16 21  1  1  0  0  0
 16  5  1  0  0  0  0
 16 17  1  0  0  0  0
 17 13  1  0  0  0  0
 18  7  2  0  0  0  0
 19  1  1  0  0  0  0
 20 19  3  0  0  0  0
 22 25  1  0  0  0  0
 23 22  2  0  0  0  0
 24 26  1  0  0  0  0
 26 21  1  0  0  0  0
 26 25  2  0  0  0  0
 27 24  2  0  0  0  0
 27 23  1  0  0  0  0
 29 23  1  0  0  0  0
 29 28  1  0  0  0  0
 30 31  1  0  0  0  0
 32 31  1  6  0  0  0
 32 35  1  0  0  0  0
 32 33  1  0  0  0  0
 33 34  2  0  0  0  0
 35 37  1  0  0  0  0
 36 35  2  0  0  0  0
 38 37  1  0  0  0  0
 38 42  1  0  0  0  0
 39 43  1  0  0  0  0
 39 41  2  0  0  0  0
 40 42  2  0  0  0  0
 41 40  1  0  0  0  0
 43 38  2  0  0  0  0
M  END
>  <MODEL>
5

>  <REMARK>
 VINA RESULT:      -8.6      4.037      9.232
  Name = 
  11 active torsions:
  status: ('A' for Active; 'I' for Inactive)
    1  A    between atoms: C_1  and  C_34
    2  A    between atoms: C_1  and  C_35
    3  A    between atoms: N_2  and  C_12
    4  A    between atoms: C_4  and  C_7
    5  A    between atoms: C_4  and  C_15
    6  A    between atoms: C_6  and  C_7
    7  A    between atoms: C_10  and  C_15
    8  A    between atoms: C_11  and  C_14
    9  A    between atoms: C_14  and  C_22
   10  A    between atoms: C_15  and  C_22
   11  A    between atoms: C_19  and  O_37
                            x       y       z     vdW  Elec       q    Type
                         _______ _______ _______ _____ _____    ______ ____

>  <TORSDO>
F 11

$$$$
=
 OpenBabel10272414403D

 43 47  0  0  1  0  0  0  0  0999 V2000
  189.3130  176.6580  141.7810 N   0  0  0  0  0  0  0  0  0  0  0  0
  190.6980  176.3200  139.9240 O   0  0  0  0  0  0  0  0  0  0  0  0
  183.0410  179.7440  139.3340 C   0  0  0  0  0  0  0  0  0  0  0  0
  189.8210  177.0320  140.4840 C   0  0  0  0  0  0  0  0  0  0  0  0
  185.5010  177.8240  143.2780 C   0  0  0  0  0  0  0  0  0  0  0  0
  187.1730  177.6660  141.4980 N   0  0  0  0  0  0  0  0  0  0  0  0
  183.6480  178.9370  141.5340 C   0  0  0  0  0  0  0  0  0  0  0  0
  184.3130  179.4140  138.8570 C   0  0  0  0  0  3  0  0  0  0  0  0
  182.1310  180.3020  138.5000 F   0  0  0  0  0  0  0  0  0  0  0  0
  184.9360  178.6040  141.0570 C   0  0  0  0  0  0  0  0  0  0  0  0
  182.7090  179.5070  140.6700 C   0  0  0  0  0  3  0  0  0  0  0  0
  185.2590  178.8450  139.7150 C   0  0  0  0  0  3  0  0  0  0  0  0
  188.0200  177.0570  142.2730 C   0  0  0  0  0  0  0  0  0  0  0  0
  185.8650  178.0380  141.9430 C   0  0  0  0  0  0  0  0  0  0  0  0
  184.2150  178.1640  143.7050 C   0  0  0  0  0  3  0  0  0  0  0  0
  186.5120  177.2970  144.2540 C   0  0  1  0  0  3  0  0  0  0  0  0
  187.6520  176.7370  143.5920 O   0  0  0  0  0  0  0  0  0  0  0  0
  183.3230  178.7050  142.8330 N   0  0  0  0  0  0  0  0  0  0  0  0
  190.1070  175.8310  142.5960 C   0  0  0  0  0  0  0  0  0  0  0  0
  190.7620  175.1500  143.2660 N   0  0  0  0  0  0  0  0  0  0  0  0
  186.9590  178.4190  145.1840 C   0  0  0  0  0  2  0  0  0  0  0  0
  189.2640  177.2880  147.9770 C   0  0  0  0  0  3  0  0  0  0  0  0
  190.5110  177.2920  147.3280 C   0  0  0  0  0  0  0  0  0  0  0  0
  189.4270  178.0380  145.2870 C   0  0  0  0  0  3  0  0  0  0  0  0
  188.1060  177.6560  147.2840 C   0  0  0  0  0  3  0  0  0  0  0  0
  188.1870  178.0300  145.9360 C   0  0  0  0  0  0  0  0  0  0  0  0
  190.5840  177.6700  145.9810 C   0  0  0  0  0  3  0  0  0  0  0  0
  192.3570  175.6970  147.7440 C   0  0  0  0  0  1  0  0  0  0  0  0
  191.6860  176.9270  147.9920 O   0  0  0  0  0  0  0  0  0  0  0  0
  189.3410  178.2660  139.7800 C   0  0  0  0  0  2  0  0  0  0  0  0
  189.2760  178.0730  138.2650 C   0  0  0  0  0  2  0  0  0  0  0  0
  188.0980  177.2140  137.7850 C   0  0  2  0  0  3  0  0  0  0  0  0
  188.5130  175.8520  137.3170 C   0  0  0  0  0  3  0  0  0  0  0  0
  189.6170  175.6760  136.8250 O   0  0  0  0  0  0  0  0  0  0  0  0
  187.2170  177.9200  136.7940 C   0  0  0  0  0  0  0  0  0  0  0  0
  187.1840  179.1410  136.7920 O   0  0  0  0  0  0  0  0  0  0  0  0
  186.3970  177.1580  135.7960 C   0  0  0  0  0  2  0  0  0  0  0  0
  185.0070  176.9300  136.2890 C   0  0  0  0  0  0  0  0  0  0  0  0
  183.4820  175.8210  137.8130 C   0  0  0  0  0  3  0  0  0  0  0  0
  182.6270  177.3810  136.1660 C   0  0  0  0  0  3  0  0  0  0  0  0
  182.4040  176.4930  137.2230 C   0  0  0  0  0  3  0  0  0  0  0  0
  183.9260  177.5990  135.6970 C   0  0  0  0  0  3  0  0  0  0  0  0
  184.7830  176.0410  137.3460 C   0  0  0  0  0  3  0  0  0  0  0  0
  1 13  1  0  0  0  0
  1 19  1  0  0  0  0
  2  4  2  0  0  0  0
  3 11  1  0  0  0  0
  4  1  1  0  0  0  0
  5 15  1  0  0  0  0
  5 16  1  0  0  0  0
  6 14  1  0  0  0  0
  6 13  2  0  0  0  0
  7 18  1  0  0  0  0
  8  3  2  0  0  0  0
  8 12  1  0  0  0  0
  9  3  1  0  0  0  0
 10  7  1  0  0  0  0
 10 14  1  0  0  0  0
 11  7  2  0  0  0  0
 12 10  2  0  0  0  0
 13 17  1  0  0  0  0
 14  5  2  0  0  0  0
 16 21  1  1  0  0  0
 17 16  1  0  0  0  0
 18 15  2  0  0  0  0
 19 20  3  0  0  0  0
 21 26  1  0  0  0  0
 23 22  1  0  0  0  0
 23 29  1  0  0  0  0
 24 26  2  0  0  0  0
 24 27  1  0  0  0  0
 25 22  2  0  0  0  0
 26 25  1  0  0  0  0
 27 23  2  0  0  0  0
 28 29  1  0  0  0  0
 30  4  1  0  0  0  0
 31 30  1  0  0  0  0
 32 33  1  6  0  0  0
 32 31  1  0  0  0  0
 34 33  2  0  0  0  0
 35 32  1  0  0  0  0
 36 35  2  0  0  0  0
 37 38  1  0  0  0  0
 37 35  1  0  0  0  0
 38 43  1  0  0  0  0
 40 41  2  0  0  0  0
 41 39  1  0  0  0  0
 42 40  1  0  0  0  0
 42 38  2  0  0  0  0
 43 39  2  0  0  0  0
M  END
>  <MODEL>
6

>  <REMARK>
 VINA RESULT:      -8.2      2.861      5.424
  Name = 
  11 active torsions:
  status: ('A' for Active; 'I' for Inactive)
    1  A    between atoms: C_1  and  C_34
    2  A    between atoms: C_1  and  C_35
    3  A    between atoms: N_2  and  C_12
    4  A    between atoms: C_4  and  C_7
    5  A    between atoms: C_4  and  C_15
    6  A    between atoms: C_6  and  C_7
    7  A    between atoms: C_10  and  C_15
    8  A    between atoms: C_11  and  C_14
    9  A    between atoms: C_14  and  C_22
   10  A    between atoms: C_15  and  C_22
   11  A    between atoms: C_19  and  O_37
                            x       y       z     vdW  Elec       q    Type
                         _______ _______ _______ _____ _____    ______ ____

>  <TORSDO>
F 11

$$$$
=
 OpenBabel10272414403D

 43 47  0  0  1  0  0  0  0  0999 V2000
  185.8690  178.8540  140.9740 N   0  0  0  0  0  0  0  0  0  0  0  0
  183.8930  179.5370  139.9200 O   0  0  0  0  0  0  0  0  0  0  0  0
  190.5330  176.5910  135.6840 C   0  0  0  0  0  0  0  0  0  0  0  0
  184.8800  178.7520  139.9280 C   0  0  0  0  0  0  0  0  0  0  0  0
  189.8950  177.5250  140.5850 C   0  0  0  0  0  0  0  0  0  0  0  0
  187.6760  178.0060  139.6730 N   0  0  0  0  0  0  0  0  0  0  0  0
  190.8690  176.8810  138.0640 C   0  0  0  0  0  0  0  0  0  0  0  0
  189.1950  176.9720  135.8220 C   0  0  0  0  0  3  0  0  0  0  0  0
  191.0190  176.2590  134.4640 F   0  0  0  0  0  0  0  0  0  0  0  0
  189.5150  177.2640  138.2080 C   0  0  0  0  0  0  0  0  0  0  0  0
  191.3680  176.5450  136.8030 C   0  0  0  0  0  3  0  0  0  0  0  0
  188.6860  177.3090  137.0790 C   0  0  0  0  0  3  0  0  0  0  0  0
  187.2290  178.4030  140.8270 C   0  0  0  0  0  0  0  0  0  0  0  0
  189.0330  177.5920  139.4840 C   0  0  0  0  0  0  0  0  0  0  0  0
  191.2270  177.1460  140.3940 C   0  0  0  0  0  3  0  0  0  0  0  0
  189.3710  177.7920  141.9650 C   0  0  1  0  0  3  0  0  0  0  0  0
  188.0940  178.4420  141.9340 O   0  0  0  0  0  0  0  0  0  0  0  0
  191.6820  176.8380  139.1510 N   0  0  0  0  0  0  0  0  0  0  0  0
  185.4970  179.4560  142.1890 C   0  0  0  0  0  0  0  0  0  0  0  0
  185.1890  179.9530  143.1890 N   0  0  0  0  0  0  0  0  0  0  0  0
  189.2590  176.4810  142.7330 C   0  0  0  0  0  2  0  0  0  0  0  0
  189.9070  177.2470  146.3920 C   0  0  0  0  0  3  0  0  0  0  0  0
  191.2130  176.7510  146.5530 C   0  0  0  0  0  0  0  0  0  0  0  0
  191.2320  176.0900  144.2170 C   0  0  0  0  0  3  0  0  0  0  0  0
  189.2690  177.1630  145.1500 C   0  0  0  0  0  3  0  0  0  0  0  0
  189.9310  176.5820  144.0610 C   0  0  0  0  0  0  0  0  0  0  0  0
  191.8690  176.1740  145.4590 C   0  0  0  0  0  3  0  0  0  0  0  0
  192.7360  175.7820  148.2460 C   0  0  0  0  0  1  0  0  0  0  0  0
  191.8770  176.8170  147.7820 O   0  0  0  0  0  0  0  0  0  0  0  0
  184.9840  177.7170  138.8490 C   0  0  0  0  0  2  0  0  0  0  0  0
  184.0260  177.9980  137.6910 C   0  0  0  0  0  2  0  0  0  0  0  0
  183.7010  176.7730  136.8250 C   0  0  2  0  0  3  0  0  0  0  0  0
  183.3090  175.5700  137.6270 C   0  0  0  0  0  3  0  0  0  0  0  0
  182.1380  175.2340  137.7080 O   0  0  0  0  0  0  0  0  0  0  0  0
  184.7660  176.4680  135.8100 C   0  0  0  0  0  0  0  0  0  0  0  0
  185.5670  177.3390  135.5090 O   0  0  0  0  0  0  0  0  0  0  0  0
  184.8780  175.1120  135.1790 C   0  0  0  0  0  2  0  0  0  0  0  0
  186.2110  174.4950  135.4410 C   0  0  0  0  0  0  0  0  0  0  0  0
  187.8660  173.6730  137.0110 C   0  0  0  0  0  3  0  0  0  0  0  0
  188.3060  173.5820  134.6290 C   0  0  0  0  0  3  0  0  0  0  0  0
  188.7100  173.3380  135.9450 C   0  0  0  0  0  3  0  0  0  0  0  0
  187.0590  174.1610  134.3760 C   0  0  0  0  0  3  0  0  0  0  0  0
  186.6170  174.2510  136.7570 C   0  0  0  0  0  3  0  0  0  0  0  0
  1 19  1  0  0  0  0
  2  4  2  0  0  0  0
  3  8  2  0  0  0  0
  3 11  1  0  0  0  0
  4  1  1  0  0  0  0
  5 16  1  0  0  0  0
  6 13  2  0  0  0  0
  7 10  1  0  0  0  0
  7 18  1  0  0  0  0
  8 12  1  0  0  0  0
  9  3  1  0  0  0  0
 10 14  1  0  0  0  0
 11  7  2  0  0  0  0
 12 10  2  0  0  0  0
 13  1  1  0  0  0  0
 13 17  1  0  0  0  0
 14  6  1  0  0  0  0
 14  5  2  0  0  0  0
 15  5  1  0  0  0  0
 16 21  1  1  0  0  0
 17 16  1  0  0  0  0
 18 15  2  0  0  0  0
 19 20  3  0  0  0  0
 21 26  1  0  0  0  0
 22 23  1  0  0  0  0
 23 29  1  0  0  0  0
 24 27  1  0  0  0  0
 25 22  2  0  0  0  0
 26 24  2  0  0  0  0
 26 25  1  0  0  0  0
 27 23  2  0  0  0  0
 29 28  1  0  0  0  0
 30  4  1  0  0  0  0
 31 30  1  0  0  0  0
 32 33  1  1  0  0  0
 32 31  1  0  0  0  0
 33 34  2  0  0  0  0
 35 32  1  0  0  0  0
 36 35  2  0  0  0  0
 37 38  1  0  0  0  0
 37 35  1  0  0  0  0
 38 43  1  0  0  0  0
 40 41  2  0  0  0  0
 41 39  1  0  0  0  0
 42 40  1  0  0  0  0
 42 38  2  0  0  0  0
 43 39  2  0  0  0  0
M  END
>  <MODEL>
7

>  <REMARK>
 VINA RESULT:      -8.2      2.849      4.910
  Name = 
  11 active torsions:
  status: ('A' for Active; 'I' for Inactive)
    1  A    between atoms: C_1  and  C_34
    2  A    between atoms: C_1  and  C_35
    3  A    between atoms: N_2  and  C_12
    4  A    between atoms: C_4  and  C_7
    5  A    between atoms: C_4  and  C_15
    6  A    between atoms: C_6  and  C_7
    7  A    between atoms: C_10  and  C_15
    8  A    between atoms: C_11  and  C_14
    9  A    between atoms: C_14  and  C_22
   10  A    between atoms: C_15  and  C_22
   11  A    between atoms: C_19  and  O_37
                            x       y       z     vdW  Elec       q    Type
                         _______ _______ _______ _____ _____    ______ ____

>  <TORSDO>
F 11

$$$$
=
 OpenBabel10272414403D

 43 47  0  0  1  0  0  0  0  0999 V2000
  186.3560  178.0470  138.8910 N   0  0  0  0  0  0  0  0  0  0  0  0
  185.1420  178.1740  136.8940 O   0  0  0  0  0  0  0  0  0  0  0  0
  193.3070  176.1800  137.1420 C   0  0  0  0  0  0  0  0  0  0  0  0
  186.0670  177.6170  137.5450 C   0  0  0  0  0  0  0  0  0  0  0  0
  190.1320  177.5440  140.7960 C   0  0  0  0  0  0  0  0  0  0  0  0
  188.6600  177.4420  138.8430 N   0  0  0  0  0  0  0  0  0  0  0  0
  192.3320  176.8170  139.2640 C   0  0  0  0  0  0  0  0  0  0  0  0
  192.0550  176.2890  136.5290 C   0  0  0  0  0  3  0  0  0  0  0  0
  194.3870  175.8110  136.4120 F   0  0  0  0  0  0  0  0  0  0  0  0
  191.0640  176.9260  138.6490 C   0  0  0  0  0  0  0  0  0  0  0  0
  193.4450  176.4420  138.5070 C   0  0  0  0  0  3  0  0  0  0  0  0
  190.9360  176.6620  137.2780 C   0  0  0  0  0  3  0  0  0  0  0  0
  187.6400  177.8740  139.5220 C   0  0  0  0  0  0  0  0  0  0  0  0
  189.9580  177.2980  139.4290 C   0  0  0  0  0  0  0  0  0  0  0  0
  191.4050  177.4290  141.3610 C   0  0  0  0  0  3  0  0  0  0  0  0
  188.9440  177.8610  141.6560 C   0  0  1  0  0  3  0  0  0  0  0  0
  187.8000  178.2240  140.8730 O   0  0  0  0  0  0  0  0  0  0  0  0
  192.4680  177.0740  140.5910 N   0  0  0  0  0  0  0  0  0  0  0  0
  185.3440  178.7010  139.6160 C   0  0  0  0  0  0  0  0  0  0  0  0
  184.5100  179.2380  140.2130 N   0  0  0  0  0  0  0  0  0  0  0  0
  188.6070  176.6580  142.5280 C   0  0  0  0  0  2  0  0  0  0  0  0
  189.0450  177.6320  146.1690 C   0  0  0  0  0  3  0  0  0  0  0  0
  187.7160  177.8870  146.5500 C   0  0  0  0  0  0  0  0  0  0  0  0
  186.9820  177.3300  144.3030 C   0  0  0  0  0  3  0  0  0  0  0  0
  189.3390  177.2300  144.8620 C   0  0  0  0  0  3  0  0  0  0  0  0
  188.3060  177.0800  143.9270 C   0  0  0  0  0  0  0  0  0  0  0  0
  186.6890  177.7320  145.6110 C   0  0  0  0  0  3  0  0  0  0  0  0
  188.2360  178.0460  148.9640 C   0  0  0  0  0  1  0  0  0  0  0  0
  187.3890  178.2930  147.8480 O   0  0  0  0  0  0  0  0  0  0  0  0
  186.8340  176.5040  136.8960 C   0  0  0  0  0  2  0  0  0  0  0  0
  185.9080  175.4680  136.2560 C   0  0  0  0  0  2  0  0  0  0  0  0
  185.9320  174.0920  136.9340 C   0  0  2  0  0  3  0  0  0  0  0  0
  186.9020  173.1390  136.3050 C   0  0  0  0  0  3  0  0  0  0  0  0
  187.7520  172.5830  136.9820 O   0  0  0  0  0  0  0  0  0  0  0  0
  184.5630  173.4940  137.1030 C   0  0  0  0  0  0  0  0  0  0  0  0
  184.4450  172.4460  137.7190 O   0  0  0  0  0  0  0  0  0  0  0  0
  183.3430  174.1690  136.5530 C   0  0  0  0  0  2  0  0  0  0  0  0
  182.4900  174.7300  137.6420 C   0  0  0  0  0  0  0  0  0  0  0  0
  180.3450  174.8640  138.7630 C   0  0  0  0  0  3  0  0  0  0  0  0
  182.2200  176.1660  139.5780 C   0  0  0  0  0  3  0  0  0  0  0  0
  180.8810  175.7760  139.6800 C   0  0  0  0  0  3  0  0  0  0  0  0
  183.0240  175.6450  138.5600 C   0  0  0  0  0  3  0  0  0  0  0  0
  181.1500  174.3420  137.7450 C   0  0  0  0  0  3  0  0  0  0  0  0
  1 13  1  0  0  0  0
  1 19  1  0  0  0  0
  2  4  2  0  0  0  0
  3 11  1  0  0  0  0
  4  1  1  0  0  0  0
  5 15  1  0  0  0  0
  5 16  1  0  0  0  0
  6 14  1  0  0  0  0
  6 13  2  0  0  0  0
  7 18  1  0  0  0  0
  8  3  2  0  0  0  0
  8 12  1  0  0  0  0
  9  3  1  0  0  0  0
 10  7  1  0  0  0  0
 10 14  1  0  0  0  0
 11  7  2  0  0  0  0
 12 10  2  0  0  0  0
 13 17  1  0  0  0  0
 14  5  2  0  0  0  0
 16 21  1  6  0  0  0
 17 16  1  0  0  0  0
 18 15  2  0  0  0  0
 19 20  3  0  0  0  0
 21 26  1  0  0  0  0
 22 23  1  0  0  0  0
 23 29  1  0  0  0  0
 24 27  1  0  0  0  0
 25 22  2  0  0  0  0
 26 24  2  0  0  0  0
 26 25  1  0  0  0  0
 27 23  2  0  0  0  0
 29 28  1  0  0  0  0
 30  4  1  0  0  0  0
 31 30  1  0  0  0  0
 32 31  1  6  0  0  0
 32 35  1  0  0  0  0
 33 32  1  0  0  0  0
 33 34  2  0  0  0  0
 35 36  2  0  0  0  0
 37 35  1  0  0  0  0
 37 38  1  0  0  0  0
 38 43  2  0  0  0  0
 38 42  1  0  0  0  0
 39 41  2  0  0  0  0
 40 41  1  0  0  0  0
 42 40  2  0  0  0  0
 43 39  1  0  0  0  0
M  END
>  <MODEL>
8

>  <REMARK>
 VINA RESULT:      -8.1      3.728      5.449
  Name = 
  11 active torsions:
  status: ('A' for Active; 'I' for Inactive)
    1  A    between atoms: C_1  and  C_34
    2  A    between atoms: C_1  and  C_35
    3  A    between atoms: N_2  and  C_12
    4  A    between atoms: C_4  and  C_7
    5  A    between atoms: C_4  and  C_15
    6  A    between atoms: C_6  and  C_7
    7  A    between atoms: C_10  and  C_15
    8  A    between atoms: C_11  and  C_14
    9  A    between atoms: C_14  and  C_22
   10  A    between atoms: C_15  and  C_22
   11  A    between atoms: C_19  and  O_37
                            x       y       z     vdW  Elec       q    Type
                         _______ _______ _______ _____ _____    ______ ____

>  <TORSDO>
F 11

$$$$
=
 OpenBabel10272414403D

 43 47  0  0  1  0  0  0  0  0999 V2000
  187.1750  178.2670  138.7010 N   0  0  0  0  0  0  0  0  0  0  0  0
  189.5150  178.2520  138.6220 O   0  0  0  0  0  0  0  0  0  0  0  0
  185.2020  178.6250  145.8310 C   0  0  0  0  0  0  0  0  0  0  0  0
  188.4670  177.9150  139.2370 C   0  0  0  0  0  0  0  0  0  0  0  0
  183.6440  178.6550  141.0490 C   0  0  0  0  0  0  0  0  0  0  0  0
  186.0590  178.3440  140.8040 N   0  0  0  0  0  0  0  0  0  0  0  0
  183.8630  178.7390  143.8160 C   0  0  0  0  0  0  0  0  0  0  0  0
  186.3540  178.4400  145.0610 C   0  0  0  0  0  3  0  0  0  0  0  0
  185.2900  178.6530  147.1820 F   0  0  0  0  0  0  0  0  0  0  0  0
  185.0250  178.5500  143.0340 C   0  0  0  0  0  0  0  0  0  0  0  0
  183.9590  178.7740  145.2100 C   0  0  0  0  0  3  0  0  0  0  0  0
  186.2680  178.4030  143.6660 C   0  0  0  0  0  3  0  0  0  0  0  0
  185.9890  178.3990  139.5080 C   0  0  0  0  0  0  0  0  0  0  0  0
  184.9060  178.5130  141.6360 C   0  0  0  0  0  0  0  0  0  0  0  0
  182.5230  178.8460  141.8620 C   0  0  0  0  0  3  0  0  0  0  0  0
  183.4920  178.5340  139.5610 C   0  0  1  0  0  3  0  0  0  0  0  0
  184.7520  178.6390  138.8860 O   0  0  0  0  0  0  0  0  0  0  0  0
  182.6550  178.8860  143.2140 N   0  0  0  0  0  0  0  0  0  0  0  0
  187.0730  178.5310  137.3240 C   0  0  0  0  0  0  0  0  0  0  0  0
  186.9900  178.7480  136.1890 N   0  0  0  0  0  0  0  0  0  0  0  0
  182.8370  177.2020  139.2200 C   0  0  0  0  0  2  0  0  0  0  0  0
  183.7150  176.8620  135.5440 C   0  0  0  0  0  3  0  0  0  0  0  0
  184.3840  175.6260  135.5310 C   0  0  0  0  0  0  0  0  0  0  0  0
  184.0310  175.4280  137.9250 C   0  0  0  0  0  3  0  0  0  0  0  0
  183.2080  177.3770  136.7420 C   0  0  0  0  0  3  0  0  0  0  0  0
  183.3670  176.6600  137.9350 C   0  0  0  0  0  0  0  0  0  0  0  0
  184.5370  174.9140  136.7270 C   0  0  0  0  0  3  0  0  0  0  0  0
  185.8620  174.0320  134.3470 C   0  0  0  0  0  1  0  0  0  0  0  0
  184.9050  175.0850  134.3510 O   0  0  0  0  0  0  0  0  0  0  0  0
  188.6010  177.1360  140.5110 C   0  0  0  0  0  2  0  0  0  0  0  0
  190.0530  176.7560  140.8010 C   0  0  0  0  0  2  0  0  0  0  0  0
  190.8410  177.8150  141.5850 C   0  0  2  0  0  3  0  0  0  0  0  0
  192.3260  177.6450  141.4790 C   0  0  0  0  0  3  0  0  0  0  0  0
  192.8290  177.2250  140.4490 O   0  0  0  0  0  0  0  0  0  0  0  0
  190.3770  177.9630  143.0070 C   0  0  0  0  0  0  0  0  0  0  0  0
  190.4120  179.0640  143.5320 O   0  0  0  0  0  0  0  0  0  0  0  0
  189.8500  176.7920  143.7820 C   0  0  0  0  0  2  0  0  0  0  0  0
  190.3120  176.8220  145.2010 C   0  0  0  0  0  0  0  0  0  0  0  0
  189.9110  177.3960  147.5220 C   0  0  0  0  0  3  0  0  0  0  0  0
  191.9990  176.3460  146.8780 C   0  0  0  0  0  3  0  0  0  0  0  0
  191.1690  176.8860  147.8650 C   0  0  0  0  0  3  0  0  0  0  0  0
  191.5730  176.3150  145.5460 C   0  0  0  0  0  3  0  0  0  0  0  0
  189.4840  177.3630  146.1900 C   0  0  0  0  0  3  0  0  0  0  0  0
  1  4  1  0  0  0  0
  1 13  1  0  0  0  0
  2  4  2  0  0  0  0
  3  9  1  0  0  0  0
  4 30  1  0  0  0  0
  5 14  2  0  0  0  0
  5 15  1  0  0  0  0
  6 14  1  0  0  0  0
  7 11  2  0  0  0  0
  8  3  2  0  0  0  0
 10 12  2  0  0  0  0
 10  7  1  0  0  0  0
 11  3  1  0  0  0  0
 12  8  1  0  0  0  0
 13  6  2  0  0  0  0
 14 10  1  0  0  0  0
 15 18  2  0  0  0  0
 16 21  1  1  0  0  0
 16  5  1  0  0  0  0
 17 13  1  0  0  0  0
 17 16  1  0  0  0  0
 18  7  1  0  0  0  0
 19  1  1  0  0  0  0
 20 19  3  0  0  0  0
 22 25  1  0  0  0  0
 23 22  2  0  0  0  0
 23 27  1  0  0  0  0
 24 26  1  0  0  0  0
 25 26  2  0  0  0  0
 26 21  1  0  0  0  0
 27 24  2  0  0  0  0
 28 29  1  0  0  0  0
 29 23  1  0  0  0  0
 30 31  1  0  0  0  0
 32 31  1  1  0  0  0
 32 35  1  0  0  0  0
 33 32  1  0  0  0  0
 34 33  2  0  0  0  0
 35 36  2  0  0  0  0
 35 37  1  0  0  0  0
 37 38  1  0  0  0  0
 38 42  2  0  0  0  0
 38 43  1  0  0  0  0
 39 41  1  0  0  0  0
 40 41  2  0  0  0  0
 42 40  1  0  0  0  0
 43 39  2  0  0  0  0
M  END
>  <MODEL>
9

>  <REMARK>
 VINA RESULT:      -8.0      3.404     10.081
  Name = 
  11 active torsions:
  status: ('A' for Active; 'I' for Inactive)
    1  A    between atoms: C_1  and  C_34
    2  A    between atoms: C_1  and  C_35
    3  A    between atoms: N_2  and  C_12
    4  A    between atoms: C_4  and  C_7
    5  A    between atoms: C_4  and  C_15
    6  A    between atoms: C_6  and  C_7
    7  A    between atoms: C_10  and  C_15
    8  A    between atoms: C_11  and  C_14
    9  A    between atoms: C_14  and  C_22
   10  A    between atoms: C_15  and  C_22
   11  A    between atoms: C_19  and  O_37
                            x       y       z     vdW  Elec       q    Type
                         _______ _______ _______ _____ _____    ______ ____

>  <TORSDO>
F 11

$$$$
