=
 OpenBabel10272414573D

 37 38  0  0  1  0  0  0  0  0999 V2000
  185.8020  177.9220  137.6370 C   0  0  1  0  0  3  0  0  0  0  0  0
  182.6910  180.1100  138.8400 C   0  0  0  0  0  2  0  0  0  0  0  0
  185.0910  178.7380  138.6240 N   0  0  0  0  0  0  0  0  0  0  0  0
  184.9210  179.2240  139.9240 C   0  0  1  0  0  3  0  0  0  0  0  0
  183.8780  179.5670  139.0710 C   0  0  0  0  0  0  0  0  0  0  0  0
  184.5740  178.0480  140.8280 C   0  0  0  0  0  2  0  0  0  0  0  0
  183.8580  178.4800  142.1050 C   0  0  0  0  0  2  0  0  0  0  0  0
  186.0400  177.7720  143.0940 C   0  0  0  0  0  3  0  0  0  0  0  0
  184.7670  178.3280  143.2730 C   0  0  0  0  0  0  0  0  0  0  0  0
  184.3540  178.7390  144.5510 C   0  0  0  0  0  3  0  0  0  0  0  0
  184.8040  178.9910  146.9100 O   0  0  0  0  0  1  0  0  0  0  0  0
  186.4820  178.0200  145.4610 C   0  0  0  0  0  3  0  0  0  0  0  0
  185.2110  178.5830  145.6440 C   0  0  0  0  0  0  0  0  0  0  0  0
  186.8970  177.6180  144.1880 C   0  0  0  0  0  3  0  0  0  0  0  0
  187.2250  177.5630  138.1360 C   0  0  2  0  0  3  0  0  0  0  0  0
  188.3710  177.7460  140.2770 C   0  0  0  0  0  0  0  0  0  0  0  0
  189.1010  177.1440  141.1780 C   0  0  0  0  0  3  0  0  0  0  0  0
  187.6320  178.3300  139.3740 C   0  0  0  0  0  3  0  0  0  0  0  0
  190.4610  177.0550  143.2280 C   0  0  0  0  0  1  0  0  0  0  0  0
  189.9520  177.9420  142.1070 C   0  0  0  0  0  2  0  0  0  0  0  0
  188.2110  177.6600  137.0390 N   0  0  0  0  0  0  0  0  0  0  0  0
  188.9560  178.9270  137.0470 C   0  0  0  0  0  1  0  0  0  0  0  0
  190.5690  176.8620  137.3360 C   0  0  0  0  0  1  0  0  0  0  0  0
  189.1160  176.5010  137.0180 C   0  0  0  0  0  2  0  0  0  0  0  0
  184.9600  176.6800  137.2060 C   0  0  2  0  0  0  0  0  0  0  0  0
  183.4690  177.3020  135.2100 C   0  0  0  0  0  1  0  0  0  0  0  0
  184.7510  176.6340  135.6780 C   0  0  0  0  0  2  0  0  0  0  0  0
  183.5530  176.7970  137.8150 C   0  0  0  0  0  2  0  0  0  0  0  0
  181.9770  174.9160  137.5550 C   0  0  0  0  0  1  0  0  0  0  0  0
  183.0330  175.5180  138.4640 C   0  0  2  0  0  3  0  0  0  0  0  0
  181.3620  176.6620  139.3910 C   0  0  0  0  0  1  0  0  0  0  0  0
  182.4500  175.8420  139.6910 O   0  0  0  0  0  0  0  0  0  0  0  0
  185.6300  175.3790  137.7100 C   0  0  0  0  0  2  0  0  0  0  0  0
  185.9070  174.3570  136.6080 C   0  0  0  0  0  2  0  0  0  0  0  0
  185.8080  172.9490  137.1610 C   0  0  0  0  0  2  0  0  0  0  0  0
  184.5230  172.2870  136.6960 C   0  0  0  0  0  2  0  0  0  0  0  0
  184.0970  172.8560  135.3580 C   0  0  0  0  0  1  0  0  0  0  0  0
  1 15  1  1  0  0  0
  1  3  1  0  0  0  0
  2  5  2  0  0  0  0
  3  5  1  0  0  0  0
  3  4  1  0  0  0  0
  4  6  1  1  0  0  0
  5  4  1  0  0  0  0
  6  7  1  0  0  0  0
  7  9  1  0  0  0  0
  8  9  2  0  0  0  0
  8 14  1  0  0  0  0
  9 10  1  0  0  0  0
 10 13  2  0  0  0  0
 12 13  1  0  0  0  0
 13 11  1  0  0  0  0
 14 12  2  0  0  0  0
 15 18  1  1  0  0  0
 16 17  2  0  0  0  0
 17 20  1  0  0  0  0
 18 16  2  0  0  0  0
 20 19  1  0  0  0  0
 21 22  1  0  0  0  0
 21 15  1  0  0  0  0
 24 21  1  0  0  0  0
 24 23  1  0  0  0  0
 25 27  1  6  0  0  0
 25  1  1  0  0  0  0
 25 33  1  0  0  0  0
 25 28  1  0  0  0  0
 26 27  1  0  0  0  0
 28 30  1  0  0  0  0
 30 29  1  6  0  0  0
 30 32  1  0  0  0  0
 31 32  1  0  0  0  0
 34 35  1  0  0  0  0
 34 33  1  0  0  0  0
 36 35  1  0  0  0  0
 37 36  1  0  0  0  0
M  END
>  <MODEL>
1

>  <REMARK>
 VINA RESULT:      -5.6      0.000      0.000
  Name = 
  18 active torsions:
  status: ('A' for Active; 'I' for Inactive)
    1  A    between atoms: N_1  and  C_23
    2  A    between atoms: N_1  and  C_36
    3  A    between atoms: C_3  and  C_32
    4  A    between atoms: C_6  and  C_31
    5  A    between atoms: C_9  and  C_13
    6  A    between atoms: C_9  and  C_32
    7  A    between atoms: N_10  and  C_29
    8  A    between atoms: C_13  and  C_20
    9  A    between atoms: C_14  and  C_37
   10  A    between atoms: C_16  and  C_20
   11  A    between atoms: C_16  and  C_24
   12  A    between atoms: C_20  and  C_25
   13  A    between atoms: C_20  and  C_29
   14  A    between atoms: C_24  and  O_28
   15  A    between atoms: C_26  and  C_34
   16  A    between atoms: C_29  and  C_36
   17  A    between atoms: C_31  and  C_37
   18  A    between atoms: C_33  and  C_36
                            x       y       z     vdW  Elec       q    Type
                         _______ _______ _______ _____ _____    ______ ____

>  <TORSDO>
F 18

$$$$
=
 OpenBabel10272414573D

 37 38  0  0  1  0  0  0  0  0999 V2000
  187.3020  176.7340  137.8770 C   0  0  1  0  0  3  0  0  0  0  0  0
  183.5900  177.8250  138.8480 C   0  0  0  0  0  2  0  0  0  0  0  0
  186.3290  177.6640  138.4550 N   0  0  0  0  0  0  0  0  0  0  0  0
  186.0110  178.7880  139.2240 C   0  0  1  0  0  3  0  0  0  0  0  0
  184.8940  178.0600  138.8310 C   0  0  0  0  0  0  0  0  0  0  0  0
  186.4140  178.5060  140.6650 C   0  0  0  0  0  2  0  0  0  0  0  0
  185.2340  178.5740  141.6310 C   0  0  0  0  0  2  0  0  0  0  0  0
  186.9020  177.6070  143.2190 C   0  0  0  0  0  3  0  0  0  0  0  0
  185.6940  178.2850  143.0160 C   0  0  0  0  0  0  0  0  0  0  0  0
  184.9220  178.6900  144.1180 C   0  0  0  0  0  3  0  0  0  0  0  0
  184.5950  178.8070  146.5070 O   0  0  0  0  0  1  0  0  0  0  0  0
  186.5630  177.7190  145.6140 C   0  0  0  0  0  3  0  0  0  0  0  0
  185.3570  178.4050  145.4150 C   0  0  0  0  0  0  0  0  0  0  0  0
  187.3360  177.3230  144.5170 C   0  0  0  0  0  3  0  0  0  0  0  0
  187.0330  176.5170  136.3660 C   0  0  2  0  0  3  0  0  0  0  0  0
  185.0200  177.1200  135.1320 C   0  0  0  0  0  0  0  0  0  0  0  0
  183.9760  176.6920  134.4750 C   0  0  0  0  0  3  0  0  0  0  0  0
  186.0750  177.5330  135.7820 C   0  0  0  0  0  3  0  0  0  0  0  0
  182.0910  177.6980  135.6970 C   0  0  0  0  0  1  0  0  0  0  0  0
  182.7670  177.5560  134.3460 C   0  0  0  0  0  2  0  0  0  0  0  0
  186.6390  175.1190  136.0930 N   0  0  0  0  0  0  0  0  0  0  0  0
  187.4380  174.4950  135.0290 C   0  0  0  0  0  1  0  0  0  0  0  0
  186.6790  172.8000  137.0460 C   0  0  0  0  0  1  0  0  0  0  0  0
  186.6430  174.3050  137.3180 C   0  0  0  0  0  2  0  0  0  0  0  0
  188.7680  177.1660  138.1940 C   0  0  2  0  0  0  0  0  0  0  0  0
  189.1100  179.4060  136.9860 C   0  0  0  0  0  1  0  0  0  0  0  0
  188.8990  178.6990  138.3140 C   0  0  0  0  0  2  0  0  0  0  0  0
  189.6720  176.7630  137.0170 C   0  0  0  0  0  2  0  0  0  0  0  0
  192.0600  176.2440  137.3580 C   0  0  0  0  0  1  0  0  0  0  0  0
  190.6650  175.6480  137.3310 C   0  0  2  0  0  3  0  0  0  0  0  0
  191.5020  173.6890  136.6820 C   0  0  0  0  0  1  0  0  0  0  0  0
  190.5970  174.6870  136.3190 O   0  0  0  0  0  0  0  0  0  0  0  0
  189.2630  176.4680  139.4830 C   0  0  0  0  0  2  0  0  0  0  0  0
  189.9210  177.4140  140.4870 C   0  0  0  0  0  2  0  0  0  0  0  0
  190.3140  176.6590  141.7410 C   0  0  0  0  0  2  0  0  0  0  0  0
  191.0810  177.5650  142.6870 C   0  0  0  0  0  2  0  0  0  0  0  0
  191.1210  176.9580  144.0750 C   0  0  0  0  0  1  0  0  0  0  0  0
  1 15  1  6  0  0  0
  1 25  1  0  0  0  0
  1  3  1  0  0  0  0
  3  5  1  0  0  0  0
  3  4  1  0  0  0  0
  4  6  1  1  0  0  0
  5  2  2  0  0  0  0
  5  4  1  0  0  0  0
  6  7  1  0  0  0  0
  7  9  1  0  0  0  0
  8 14  1  0  0  0  0
  9  8  2  0  0  0  0
  9 10  1  0  0  0  0
 10 13  2  0  0  0  0
 13 12  1  0  0  0  0
 13 11  1  0  0  0  0
 14 12  2  0  0  0  0
 15 18  1  1  0  0  0
 16 18  2  0  0  0  0
 17 16  2  0  0  0  0
 20 17  1  0  0  0  0
 20 19  1  0  0  0  0
 21 15  1  0  0  0  0
 21 24  1  0  0  0  0
 22 21  1  0  0  0  0
 23 24  1  0  0  0  0
 25 28  1  6  0  0  0
 25 27  1  0  0  0  0
 25 33  1  0  0  0  0
 26 27  1  0  0  0  0
 28 30  1  0  0  0  0
 30 29  1  6  0  0  0
 32 31  1  0  0  0  0
 32 30  1  0  0  0  0
 33 34  1  0  0  0  0
 34 35  1  0  0  0  0
 35 36  1  0  0  0  0
 36 37  1  0  0  0  0
M  END
>  <MODEL>
2

>  <REMARK>
 VINA RESULT:      -5.1      2.031      5.970
  Name = 
  18 active torsions:
  status: ('A' for Active; 'I' for Inactive)
    1  A    between atoms: N_1  and  C_23
    2  A    between atoms: N_1  and  C_36
    3  A    between atoms: C_3  and  C_32
    4  A    between atoms: C_6  and  C_31
    5  A    between atoms: C_9  and  C_13
    6  A    between atoms: C_9  and  C_32
    7  A    between atoms: N_10  and  C_29
    8  A    between atoms: C_13  and  C_20
    9  A    between atoms: C_14  and  C_37
   10  A    between atoms: C_16  and  C_20
   11  A    between atoms: C_16  and  C_24
   12  A    between atoms: C_20  and  C_25
   13  A    between atoms: C_20  and  C_29
   14  A    between atoms: C_24  and  O_28
   15  A    between atoms: C_26  and  C_34
   16  A    between atoms: C_29  and  C_36
   17  A    between atoms: C_31  and  C_37
   18  A    between atoms: C_33  and  C_36
                            x       y       z     vdW  Elec       q    Type
                         _______ _______ _______ _____ _____    ______ ____

>  <TORSDO>
F 18

$$$$
=
 OpenBabel10272414573D

 37 38  0  0  1  0  0  0  0  0999 V2000
  185.4400  176.8680  138.0970 C   0  0  1  0  0  3  0  0  0  0  0  0
  183.2830  180.1460  138.8150 C   0  0  0  0  0  2  0  0  0  0  0  0
  185.1340  178.0830  138.8560 N   0  0  0  0  0  0  0  0  0  0  0  0
  185.2900  178.9030  139.9780 C   0  0  1  0  0  3  0  0  0  0  0  0
  184.2840  179.3340  139.1220 C   0  0  0  0  0  0  0  0  0  0  0  0
  184.7480  178.1560  141.1900 C   0  0  0  0  0  2  0  0  0  0  0  0
  184.4810  179.0780  142.3770 C   0  0  0  0  0  2  0  0  0  0  0  0
  186.3700  177.7860  143.3770 C   0  0  0  0  0  3  0  0  0  0  0  0
  185.2640  178.6240  143.5590 C   0  0  0  0  0  0  0  0  0  0  0  0
  184.8980  179.0340  144.8510 C   0  0  0  0  0  3  0  0  0  0  0  0
  185.2730  179.0020  147.2360 O   0  0  0  0  0  1  0  0  0  0  0  0
  186.7360  177.7490  145.7700 C   0  0  0  0  0  3  0  0  0  0  0  0
  185.6330  178.5950  145.9550 C   0  0  0  0  0  0  0  0  0  0  0  0
  187.1050  177.3480  144.4820 C   0  0  0  0  0  3  0  0  0  0  0  0
  184.2240  176.4250  137.2440 C   0  0  2  0  0  3  0  0  0  0  0  0
  182.7220  177.6710  135.7860 C   0  0  0  0  0  0  0  0  0  0  0  0
  182.2140  177.7880  134.5890 C   0  0  0  0  0  3  0  0  0  0  0  0
  183.2470  177.5490  136.9750 C   0  0  0  0  0  3  0  0  0  0  0  0
  180.6510  179.4260  135.5540 C   0  0  0  0  0  1  0  0  0  0  0  0
  180.9100  178.4850  134.3940 C   0  0  0  0  0  2  0  0  0  0  0  0
  183.5860  175.2210  137.8170 N   0  0  0  0  0  0  0  0  0  0  0  0
  182.5060  175.5380  138.7610 C   0  0  0  0  0  1  0  0  0  0  0  0
  181.6760  173.8560  136.9360 C   0  0  0  0  0  1  0  0  0  0  0  0
  183.1320  174.2960  136.7670 C   0  0  0  0  0  2  0  0  0  0  0  0
  186.7570  177.0230  137.2730 C   0  0  2  0  0  0  0  0  0  0  0  0
  186.7240  178.2300  135.0070 C   0  0  0  0  0  1  0  0  0  0  0  0
  186.8030  178.3680  136.5170 C   0  0  0  0  0  2  0  0  0  0  0  0
  186.7960  175.9350  136.1870 C   0  0  0  0  0  2  0  0  0  0  0  0
  188.8790  174.7200  135.6640 C   0  0  0  0  0  1  0  0  0  0  0  0
  187.6390  174.7140  136.5400 C   0  0  2  0  0  3  0  0  0  0  0  0
  187.5100  172.5380  136.9970 C   0  0  0  0  0  1  0  0  0  0  0  0
  186.8960  173.5620  136.2750 O   0  0  0  0  0  0  0  0  0  0  0  0
  187.9870  176.8680  138.1980 C   0  0  0  0  0  2  0  0  0  0  0  0
  188.9780  178.0290  138.1130 C   0  0  0  0  0  2  0  0  0  0  0  0
  189.7550  178.1520  139.4090 C   0  0  0  0  0  2  0  0  0  0  0  0
  188.9460  177.5960  140.5660 C   0  0  0  0  0  2  0  0  0  0  0  0
  189.7920  177.5570  141.8230 C   0  0  0  0  0  1  0  0  0  0  0  0
  1 15  1  6  0  0  0
  1  3  1  0  0  0  0
  2  5  2  0  0  0  0
  3  5  1  0  0  0  0
  3  4  1  0  0  0  0
  4  6  1  1  0  0  0
  5  4  1  0  0  0  0
  6  7  1  0  0  0  0
  7  9  1  0  0  0  0
  8  9  2  0  0  0  0
  8 14  1  0  0  0  0
  9 10  1  0  0  0  0
 10 13  2  0  0  0  0
 12 13  1  0  0  0  0
 13 11  1  0  0  0  0
 14 12  2  0  0  0  0
 15 18  1  1  0  0  0
 15 21  1  0  0  0  0
 16 18  2  0  0  0  0
 17 16  2  0  0  0  0
 20 17  1  0  0  0  0
 20 19  1  0  0  0  0
 21 22  1  0  0  0  0
 24 23  1  0  0  0  0
 24 21  1  0  0  0  0
 25 28  1  6  0  0  0
 25  1  1  0  0  0  0
 25 33  1  0  0  0  0
 26 27  1  0  0  0  0
 27 25  1  0  0  0  0
 28 30  1  0  0  0  0
 30 29  1  6  0  0  0
 32 30  1  0  0  0  0
 32 31  1  0  0  0  0
 34 33  1  0  0  0  0
 34 35  1  0  0  0  0
 35 36  1  0  0  0  0
 36 37  1  0  0  0  0
M  END
>  <MODEL>
3

>  <REMARK>
 VINA RESULT:      -5.0      1.801      5.579
  Name = 
  18 active torsions:
  status: ('A' for Active; 'I' for Inactive)
    1  A    between atoms: N_1  and  C_23
    2  A    between atoms: N_1  and  C_36
    3  A    between atoms: C_3  and  C_32
    4  A    between atoms: C_6  and  C_31
    5  A    between atoms: C_9  and  C_13
    6  A    between atoms: C_9  and  C_32
    7  A    between atoms: N_10  and  C_29
    8  A    between atoms: C_13  and  C_20
    9  A    between atoms: C_14  and  C_37
   10  A    between atoms: C_16  and  C_20
   11  A    between atoms: C_16  and  C_24
   12  A    between atoms: C_20  and  C_25
   13  A    between atoms: C_20  and  C_29
   14  A    between atoms: C_24  and  O_28
   15  A    between atoms: C_26  and  C_34
   16  A    between atoms: C_29  and  C_36
   17  A    between atoms: C_31  and  C_37
   18  A    between atoms: C_33  and  C_36
                            x       y       z     vdW  Elec       q    Type
                         _______ _______ _______ _____ _____    ______ ____

>  <TORSDO>
F 18

$$$$
=
 OpenBabel10272414573D

 37 38  0  0  1  0  0  0  0  0999 V2000
  184.5560  177.6160  137.1640 C   0  0  1  0  0  3  0  0  0  0  0  0
  182.3290  180.4420  138.8850 C   0  0  0  0  0  2  0  0  0  0  0  0
  184.2800  178.5860  138.2260 N   0  0  0  0  0  0  0  0  0  0  0  0
  184.5250  179.1260  139.4930 C   0  0  1  0  0  3  0  0  0  0  0  0
  183.4020  179.6640  138.8780 C   0  0  0  0  0  0  0  0  0  0  0  0
  184.1740  178.0710  140.5340 C   0  0  0  0  0  2  0  0  0  0  0  0
  183.5870  178.6740  141.8070 C   0  0  0  0  0  2  0  0  0  0  0  0
  185.8180  177.9920  142.7010 C   0  0  0  0  0  3  0  0  0  0  0  0
  184.5240  178.4690  142.9450 C   0  0  0  0  0  0  0  0  0  0  0  0
  184.1170  178.7530  144.2580 C   0  0  0  0  0  3  0  0  0  0  0  0
  184.5990  178.8320  146.6230 O   0  0  0  0  0  1  0  0  0  0  0  0
  186.2920  178.0630  145.0740 C   0  0  0  0  0  3  0  0  0  0  0  0
  185.0010  178.5490  145.3210 C   0  0  0  0  0  0  0  0  0  0  0  0
  186.7010  177.7880  143.7650 C   0  0  0  0  0  3  0  0  0  0  0  0
  186.0500  177.2030  137.1640 C   0  0  2  0  0  3  0  0  0  0  0  0
  187.6400  177.7440  138.9280 C   0  0  0  0  0  0  0  0  0  0  0  0
  188.3320  177.3030  139.9450 C   0  0  0  0  0  3  0  0  0  0  0  0
  186.9340  178.1730  137.9180 C   0  0  0  0  0  3  0  0  0  0  0  0
  190.7910  177.2970  139.8400 C   0  0  0  0  0  1  0  0  0  0  0  0
  189.5680  178.0180  140.3750 C   0  0  0  0  0  2  0  0  0  0  0  0
  186.5230  176.9280  135.7910 N   0  0  0  0  0  0  0  0  0  0  0  0
  187.5900  177.8410  135.3570 C   0  0  0  0  0  1  0  0  0  0  0  0
  187.7670  174.9880  136.7810 C   0  0  0  0  0  1  0  0  0  0  0  0
  186.9160  175.5200  135.6250 C   0  0  0  0  0  2  0  0  0  0  0  0
  183.5740  176.4040  137.2250 C   0  0  2  0  0  0  0  0  0  0  0  0
  183.1510  177.1290  134.7990 C   0  0  0  0  0  1  0  0  0  0  0  0
  183.0630  176.0110  135.8230 C   0  0  0  0  0  2  0  0  0  0  0  0
  182.3240  176.8150  138.0220 C   0  0  0  0  0  2  0  0  0  0  0  0
  179.9840  177.3140  137.4190 C   0  0  0  0  0  1  0  0  0  0  0  0
  181.0190  176.2090  137.5160 C   0  0  2  0  0  3  0  0  0  0  0  0
  180.7200  175.8400  139.6910 C   0  0  0  0  0  1  0  0  0  0  0  0
  180.5820  175.2510  138.4340 O   0  0  0  0  0  0  0  0  0  0  0  0
  184.2530  175.2010  137.9220 C   0  0  0  0  0  2  0  0  0  0  0  0
  183.7930  173.8400  137.3980 C   0  0  0  0  0  2  0  0  0  0  0  0
  184.9100  172.8230  137.5270 C   0  0  0  0  0  2  0  0  0  0  0  0
  184.9450  171.9190  136.3080 C   0  0  0  0  0  2  0  0  0  0  0  0
  184.6070  172.7110  135.0610 C   0  0  0  0  0  1  0  0  0  0  0  0
  1 15  1  1  0  0  0
  1 25  1  0  0  0  0
  1  3  1  0  0  0  0
  3  5  1  0  0  0  0
  3  4  1  0  0  0  0
  4  6  1  1  0  0  0
  5  2  2  0  0  0  0
  5  4  1  0  0  0  0
  6  7  1  0  0  0  0
  7  9  1  0  0  0  0
  8  9  2  0  0  0  0
  8 14  1  0  0  0  0
  9 10  1  0  0  0  0
 10 13  2  0  0  0  0
 12 13  1  0  0  0  0
 13 11  1  0  0  0  0
 14 12  2  0  0  0  0
 15 18  1  6  0  0  0
 16 17  2  0  0  0  0
 17 20  1  0  0  0  0
 18 16  2  0  0  0  0
 19 20  1  0  0  0  0
 21 15  1  0  0  0  0
 22 21  1  0  0  0  0
 24 21  1  0  0  0  0
 24 23  1  0  0  0  0
 25 27  1  6  0  0  0
 25 33  1  0  0  0  0
 25 28  1  0  0  0  0
 26 27  1  0  0  0  0
 30 29  1  1  0  0  0
 30 28  1  0  0  0  0
 30 32  1  0  0  0  0
 32 31  1  0  0  0  0
 34 35  1  0  0  0  0
 34 33  1  0  0  0  0
 36 35  1  0  0  0  0
 37 36  1  0  0  0  0
M  END
>  <MODEL>
4

>  <REMARK>
 VINA RESULT:      -5.0      1.321      1.627
  Name = 
  18 active torsions:
  status: ('A' for Active; 'I' for Inactive)
    1  A    between atoms: N_1  and  C_23
    2  A    between atoms: N_1  and  C_36
    3  A    between atoms: C_3  and  C_32
    4  A    between atoms: C_6  and  C_31
    5  A    between atoms: C_9  and  C_13
    6  A    between atoms: C_9  and  C_32
    7  A    between atoms: N_10  and  C_29
    8  A    between atoms: C_13  and  C_20
    9  A    between atoms: C_14  and  C_37
   10  A    between atoms: C_16  and  C_20
   11  A    between atoms: C_16  and  C_24
   12  A    between atoms: C_20  and  C_25
   13  A    between atoms: C_20  and  C_29
   14  A    between atoms: C_24  and  O_28
   15  A    between atoms: C_26  and  C_34
   16  A    between atoms: C_29  and  C_36
   17  A    between atoms: C_31  and  C_37
   18  A    between atoms: C_33  and  C_36
                            x       y       z     vdW  Elec       q    Type
                         _______ _______ _______ _____ _____    ______ ____

>  <TORSDO>
F 18

$$$$
=
 OpenBabel10272414573D

 37 38  0  0  1  0  0  0  0  0999 V2000
  183.8790  176.5140  137.9400 C   0  0  1  0  0  3  0  0  0  0  0  0
  183.1070  180.3210  138.8460 C   0  0  0  0  0  2  0  0  0  0  0  0
  184.1920  177.7810  138.6040 N   0  0  0  0  0  0  0  0  0  0  0  0
  184.9190  178.5380  139.5290 C   0  0  1  0  0  3  0  0  0  0  0  0
  183.8700  179.2420  138.9500 C   0  0  0  0  0  0  0  0  0  0  0  0
  184.5830  178.0310  140.9250 C   0  0  0  0  0  2  0  0  0  0  0  0
  184.6390  179.1320  141.9800 C   0  0  0  0  0  2  0  0  0  0  0  0
  186.4570  177.8430  143.1080 C   0  0  0  0  0  3  0  0  0  0  0  0
  185.2980  178.6220  143.2130 C   0  0  0  0  0  0  0  0  0  0  0  0
  184.7640  178.9200  144.4770 C   0  0  0  0  0  3  0  0  0  0  0  0
  184.8580  178.7250  146.8820 O   0  0  0  0  0  1  0  0  0  0  0  0
  186.5400  177.6430  145.5190 C   0  0  0  0  0  3  0  0  0  0  0  0
  185.3850  178.4290  145.6280 C   0  0  0  0  0  0  0  0  0  0  0  0
  187.0770  177.3530  144.2610 C   0  0  0  0  0  3  0  0  0  0  0  0
  182.3780  176.4400  137.5630 C   0  0  2  0  0  3  0  0  0  0  0  0
  181.5590  178.0940  135.9720 C   0  0  0  0  0  0  0  0  0  0  0  0
  181.3510  178.3900  134.7170 C   0  0  0  0  0  3  0  0  0  0  0  0
  181.7840  177.7900  137.2220 C   0  0  0  0  0  3  0  0  0  0  0  0
  180.9090  180.8020  134.5090 C   0  0  0  0  0  1  0  0  0  0  0  0
  180.3280  179.4100  134.3480 C   0  0  0  0  0  2  0  0  0  0  0  0
  181.6080  175.7070  138.5890 N   0  0  0  0  0  0  0  0  0  0  0  0
  181.1020  176.5790  139.6590 C   0  0  0  0  0  1  0  0  0  0  0  0
  180.7160  174.6650  136.4900 C   0  0  0  0  0  1  0  0  0  0  0  0
  180.5310  174.9050  137.9910 C   0  0  0  0  0  2  0  0  0  0  0  0
  184.8390  176.2430  136.7390 C   0  0  2  0  0  0  0  0  0  0  0  0
  184.9520  177.3630  134.4320 C   0  0  0  0  0  1  0  0  0  0  0  0
  185.1210  177.5270  135.9320 C   0  0  0  0  0  2  0  0  0  0  0  0
  184.1500  175.2790  135.7580 C   0  0  0  0  0  2  0  0  0  0  0  0
  184.5650  173.1920  134.5100 C   0  0  0  0  0  1  0  0  0  0  0  0
  184.5820  173.8220  135.8900 C   0  0  2  0  0  3  0  0  0  0  0  0
  184.2570  171.9260  137.0130 C   0  0  0  0  0  1  0  0  0  0  0  0
  183.6680  173.1550  136.7090 O   0  0  0  0  0  0  0  0  0  0  0  0
  186.1570  175.6070  137.2420 C   0  0  0  0  0  2  0  0  0  0  0  0
  187.4020  176.4410  136.9440 C   0  0  0  0  0  2  0  0  0  0  0  0
  188.1620  176.7280  138.2230 C   0  0  0  0  0  2  0  0  0  0  0  0
  188.3440  178.2240  138.4070 C   0  0  0  0  0  2  0  0  0  0  0  0
  188.7410  178.8660  137.0930 C   0  0  0  0  0  1  0  0  0  0  0  0
  1 15  1  6  0  0  0
  1  3  1  0  0  0  0
  2  5  2  0  0  0  0
  3  5  1  0  0  0  0
  3  4  1  0  0  0  0
  4  6  1  1  0  0  0
  5  4  1  0  0  0  0
  6  7  1  0  0  0  0
  7  9  1  0  0  0  0
  8  9  2  0  0  0  0
  8 14  1  0  0  0  0
  9 10  1  0  0  0  0
 10 13  2  0  0  0  0
 12 13  1  0  0  0  0
 13 11  1  0  0  0  0
 14 12  2  0  0  0  0
 15 18  1  1  0  0  0
 15 21  1  0  0  0  0
 16 18  2  0  0  0  0
 17 16  2  0  0  0  0
 20 19  1  0  0  0  0
 20 17  1  0  0  0  0
 21 22  1  0  0  0  0
 23 24  1  0  0  0  0
 24 21  1  0  0  0  0
 25 28  1  6  0  0  0
 25 33  1  0  0  0  0
 25  1  1  0  0  0  0
 26 27  1  0  0  0  0
 27 25  1  0  0  0  0
 28 30  1  0  0  0  0
 30 29  1  6  0  0  0
 30 32  1  0  0  0  0
 32 31  1  0  0  0  0
 34 33  1  0  0  0  0
 34 35  1  0  0  0  0
 35 36  1  0  0  0  0
 37 36  1  0  0  0  0
M  END
>  <MODEL>
5

>  <REMARK>
 VINA RESULT:      -4.9      1.765      5.504
  Name = 
  18 active torsions:
  status: ('A' for Active; 'I' for Inactive)
    1  A    between atoms: N_1  and  C_23
    2  A    between atoms: N_1  and  C_36
    3  A    between atoms: C_3  and  C_32
    4  A    between atoms: C_6  and  C_31
    5  A    between atoms: C_9  and  C_13
    6  A    between atoms: C_9  and  C_32
    7  A    between atoms: N_10  and  C_29
    8  A    between atoms: C_13  and  C_20
    9  A    between atoms: C_14  and  C_37
   10  A    between atoms: C_16  and  C_20
   11  A    between atoms: C_16  and  C_24
   12  A    between atoms: C_20  and  C_25
   13  A    between atoms: C_20  and  C_29
   14  A    between atoms: C_24  and  O_28
   15  A    between atoms: C_26  and  C_34
   16  A    between atoms: C_29  and  C_36
   17  A    between atoms: C_31  and  C_37
   18  A    between atoms: C_33  and  C_36
                            x       y       z     vdW  Elec       q    Type
                         _______ _______ _______ _____ _____    ______ ____

>  <TORSDO>
F 18

$$$$
=
 OpenBabel10272414573D

 37 38  0  0  1  0  0  0  0  0999 V2000
  187.3790  178.4450  142.0450 C   0  0  1  0  0  3  0  0  0  0  0  0
  187.0720  178.4300  138.0680 C   0  0  0  0  0  2  0  0  0  0  0  0
  187.7540  177.9620  140.7140 N   0  0  0  0  0  0  0  0  0  0  0  0
  188.6030  177.2530  139.8580 C   0  0  1  0  0  3  0  0  0  0  0  0
  187.6290  177.9800  139.1840 C   0  0  0  0  0  0  0  0  0  0  0  0
  189.9580  177.9470  139.8530 C   0  0  0  0  0  2  0  0  0  0  0  0
  191.1230  176.9640  139.9330 C   0  0  0  0  0  2  0  0  0  0  0  0
  190.6610  176.3710  137.5510 C   0  0  0  0  0  3  0  0  0  0  0  0
  191.5950  176.6220  138.5640 C   0  0  0  0  0  0  0  0  0  0  0  0
  192.9690  176.5520  138.2850 C   0  0  0  0  0  3  0  0  0  0  0  0
  194.7640  176.1530  136.7200 O   0  0  0  0  0  1  0  0  0  0  0  0
  192.4650  175.9630  135.9890 C   0  0  0  0  0  3  0  0  0  0  0  0
  193.4030  176.2210  136.9980 C   0  0  0  0  0  0  0  0  0  0  0  0
  191.0960  176.0410  136.2640 C   0  0  0  0  0  3  0  0  0  0  0  0
  185.8560  178.2910  142.2840 C   0  0  2  0  0  3  0  0  0  0  0  0
  184.0080  178.0760  140.7120 C   0  0  0  0  0  0  0  0  0  0  0  0
  183.0070  177.3450  140.3000 C   0  0  0  0  0  3  0  0  0  0  0  0
  185.0200  178.7890  141.1260 C   0  0  0  0  0  3  0  0  0  0  0  0
  181.1520  178.9530  140.4860 C   0  0  0  0  0  1  0  0  0  0  0  0
  181.8690  177.9770  139.5720 C   0  0  0  0  0  2  0  0  0  0  0  0
  185.4620  178.8740  143.5840 N   0  0  0  0  0  0  0  0  0  0  0  0
  185.2270  180.3240  143.5140 C   0  0  0  0  0  1  0  0  0  0  0  0
  183.0500  179.0310  144.2520 C   0  0  0  0  0  1  0  0  0  0  0  0
  184.3120  178.1690  144.1690 C   0  0  0  0  0  2  0  0  0  0  0  0
  188.2560  177.7920  143.1610 C   0  0  2  0  0  0  0  0  0  0  0  0
  189.2100  175.4170  142.9570 C   0  0  0  0  0  1  0  0  0  0  0  0
  187.9980  176.2760  143.2750 C   0  0  0  0  0  2  0  0  0  0  0  0
  187.8540  178.3860  144.5210 C   0  0  0  0  0  2  0  0  0  0  0  0
  186.6370  177.5590  146.5020 C   0  0  0  0  0  1  0  0  0  0  0  0
  187.9060  177.4000  145.6850 C   0  0  2  0  0  3  0  0  0  0  0  0
  188.6680  177.2960  147.7750 C   0  0  0  0  0  1  0  0  0  0  0  0
  189.0080  177.7080  146.4850 O   0  0  0  0  0  0  0  0  0  0  0  0
  189.7530  178.0780  142.8980 C   0  0  0  0  0  2  0  0  0  0  0  0
  190.3690  179.0950  143.8590 C   0  0  0  0  0  2  0  0  0  0  0  0
  191.6890  178.5810  144.3950 C   0  0  0  0  0  2  0  0  0  0  0  0
  191.7500  177.0680  144.2900 C   0  0  0  0  0  2  0  0  0  0  0  0
  191.7520  176.4480  145.6730 C   0  0  0  0  0  1  0  0  0  0  0  0
  1 15  1  1  0  0  0
  1 25  1  0  0  0  0
  2  5  2  0  0  0  0
  3  1  1  0  0  0  0
  4  6  1  6  0  0  0
  4  3  1  0  0  0  0
  5  4  1  0  0  0  0
  5  3  1  0  0  0  0
  6  7  1  0  0  0  0
  8  9  1  0  0  0  0
  9  7  1  0  0  0  0
 10  9  2  0  0  0  0
 11 13  1  0  0  0  0
 12 14  1  0  0  0  0
 12 13  2  0  0  0  0
 13 10  1  0  0  0  0
 14  8  2  0  0  0  0
 15 18  1  6  0  0  0
 15 21  1  0  0  0  0
 16 18  2  0  0  0  0
 17 16  2  0  0  0  0
 20 17  1  0  0  0  0
 20 19  1  0  0  0  0
 21 24  1  0  0  0  0
 22 21  1  0  0  0  0
 24 23  1  0  0  0  0
 25 33  1  6  0  0  0
 25 27  1  0  0  0  0
 25 28  1  0  0  0  0
 26 27  1  0  0  0  0
 28 30  1  0  0  0  0
 30 32  1  0  0  0  0
 30 29  1  1  0  0  0
 32 31  1  0  0  0  0
 33 34  1  0  0  0  0
 34 35  1  0  0  0  0
 36 35  1  0  0  0  0
 36 37  1  0  0  0  0
M  END
>  <MODEL>
6

>  <REMARK>
 VINA RESULT:      -4.7      3.293      8.710
  Name = 
  18 active torsions:
  status: ('A' for Active; 'I' for Inactive)
    1  A    between atoms: N_1  and  C_23
    2  A    between atoms: N_1  and  C_36
    3  A    between atoms: C_3  and  C_32
    4  A    between atoms: C_6  and  C_31
    5  A    between atoms: C_9  and  C_13
    6  A    between atoms: C_9  and  C_32
    7  A    between atoms: N_10  and  C_29
    8  A    between atoms: C_13  and  C_20
    9  A    between atoms: C_14  and  C_37
   10  A    between atoms: C_16  and  C_20
   11  A    between atoms: C_16  and  C_24
   12  A    between atoms: C_20  and  C_25
   13  A    between atoms: C_20  and  C_29
   14  A    between atoms: C_24  and  O_28
   15  A    between atoms: C_26  and  C_34
   16  A    between atoms: C_29  and  C_36
   17  A    between atoms: C_31  and  C_37
   18  A    between atoms: C_33  and  C_36
                            x       y       z     vdW  Elec       q    Type
                         _______ _______ _______ _____ _____    ______ ____

>  <TORSDO>
F 18

$$$$
=
 OpenBabel10272414573D

 37 38  0  0  1  0  0  0  0  0999 V2000
  188.5560  177.4920  142.0770 C   0  0  1  0  0  3  0  0  0  0  0  0
  185.4220  179.1680  140.2650 C   0  0  0  0  0  2  0  0  0  0  0  0
  187.3470  178.3210  142.0700 N   0  0  0  0  0  0  0  0  0  0  0  0
  186.3270  179.0110  142.7320 C   0  0  1  0  0  3  0  0  0  0  0  0
  186.1410  178.9470  141.3560 C   0  0  0  0  0  0  0  0  0  0  0  0
  185.4780  177.9960  143.4850 C   0  0  0  0  0  2  0  0  0  0  0  0
  184.4390  178.6530  144.3900 C   0  0  0  0  0  2  0  0  0  0  0  0
  181.9460  178.7820  144.4670 C   0  0  0  0  0  3  0  0  0  0  0  0
  183.1170  178.6840  143.7060 C   0  0  0  0  0  0  0  0  0  0  0  0
  183.0420  178.6180  142.3060 C   0  0  0  0  0  3  0  0  0  0  0  0
  181.7200  178.5750  140.2860 O   0  0  0  0  0  1  0  0  0  0  0  0
  180.6250  178.7290  142.4390 C   0  0  0  0  0  3  0  0  0  0  0  0
  181.7960  178.6390  141.6740 C   0  0  0  0  0  0  0  0  0  0  0  0
  180.7000  178.8030  143.8330 C   0  0  0  0  0  3  0  0  0  0  0  0
  189.3520  177.6610  140.7590 C   0  0  2  0  0  3  0  0  0  0  0  0
  188.9090  178.2330  138.4320 C   0  0  0  0  0  0  0  0  0  0  0  0
  189.3570  178.8010  137.3460 C   0  0  0  0  0  3  0  0  0  0  0  0
  188.4690  177.6780  139.5300 C   0  0  0  0  0  3  0  0  0  0  0  0
  187.3010  178.2860  136.0930 C   0  0  0  0  0  1  0  0  0  0  0  0
  188.8110  178.4070  136.0150 C   0  0  0  0  0  2  0  0  0  0  0  0
  190.4510  176.6760  140.6740 N   0  0  0  0  0  0  0  0  0  0  0  0
  190.3390  175.7890  139.5070 C   0  0  0  0  0  1  0  0  0  0  0  0
  192.5780  177.1730  139.4430 C   0  0  0  0  0  1  0  0  0  0  0  0
  191.7680  177.3270  140.7330 C   0  0  0  0  0  2  0  0  0  0  0  0
  189.4120  177.7380  143.3600 C   0  0  2  0  0  0  0  0  0  0  0  0
  190.8580  179.7270  144.0970 C   0  0  0  0  0  1  0  0  0  0  0  0
  190.6340  178.6330  143.0680 C   0  0  0  0  0  2  0  0  0  0  0  0
  189.9860  176.3940  143.8390 C   0  0  0  0  0  2  0  0  0  0  0  0
  192.0090  175.0040  144.0940 C   0  0  0  0  0  1  0  0  0  0  0  0
  191.4750  176.4220  144.1730 C   0  0  2  0  0  3  0  0  0  0  0  0
  191.8960  175.7770  146.2620 C   0  0  0  0  0  1  0  0  0  0  0  0
  191.6350  176.9000  145.4750 O   0  0  0  0  0  0  0  0  0  0  0  0
  188.5350  178.3490  144.4780 C   0  0  0  0  0  2  0  0  0  0  0  0
  188.3060  177.4170  145.6670 C   0  0  0  0  0  2  0  0  0  0  0  0
  187.3300  178.0410  146.6440 C   0  0  0  0  0  2  0  0  0  0  0  0
  187.8490  177.9150  148.0650 C   0  0  0  0  0  2  0  0  0  0  0  0
  189.3600  178.0310  148.0800 C   0  0  0  0  0  1  0  0  0  0  0  0
  1 15  1  6  0  0  0
  1 25  1  0  0  0  0
  2  5  2  0  0  0  0
  3  1  1  0  0  0  0
  3  4  1  0  0  0  0
  4  6  1  1  0  0  0
  5  3  1  0  0  0  0
  5  4  1  0  0  0  0
  6  7  1  0  0  0  0
  9  7  1  0  0  0  0
  9  8  2  0  0  0  0
 10  9  1  0  0  0  0
 11 13  1  0  0  0  0
 12 14  2  0  0  0  0
 13 10  2  0  0  0  0
 13 12  1  0  0  0  0
 14  8  1  0  0  0  0
 15 18  1  6  0  0  0
 16 18  2  0  0  0  0
 17 16  2  0  0  0  0
 20 19  1  0  0  0  0
 20 17  1  0  0  0  0
 21 24  1  0  0  0  0
 21 15  1  0  0  0  0
 22 21  1  0  0  0  0
 23 24  1  0  0  0  0
 25 27  1  6  0  0  0
 25 28  1  0  0  0  0
 25 33  1  0  0  0  0
 27 26  1  0  0  0  0
 28 30  1  0  0  0  0
 30 29  1  1  0  0  0
 30 32  1  0  0  0  0
 32 31  1  0  0  0  0
 33 34  1  0  0  0  0
 34 35  1  0  0  0  0
 35 36  1  0  0  0  0
 36 37  1  0  0  0  0
M  END
>  <MODEL>
7

>  <REMARK>
 VINA RESULT:      -4.4      3.316      7.439
  Name = 
  18 active torsions:
  status: ('A' for Active; 'I' for Inactive)
    1  A    between atoms: N_1  and  C_23
    2  A    between atoms: N_1  and  C_36
    3  A    between atoms: C_3  and  C_32
    4  A    between atoms: C_6  and  C_31
    5  A    between atoms: C_9  and  C_13
    6  A    between atoms: C_9  and  C_32
    7  A    between atoms: N_10  and  C_29
    8  A    between atoms: C_13  and  C_20
    9  A    between atoms: C_14  and  C_37
   10  A    between atoms: C_16  and  C_20
   11  A    between atoms: C_16  and  C_24
   12  A    between atoms: C_20  and  C_25
   13  A    between atoms: C_20  and  C_29
   14  A    between atoms: C_24  and  O_28
   15  A    between atoms: C_26  and  C_34
   16  A    between atoms: C_29  and  C_36
   17  A    between atoms: C_31  and  C_37
   18  A    between atoms: C_33  and  C_36
                            x       y       z     vdW  Elec       q    Type
                         _______ _______ _______ _____ _____    ______ ____

>  <TORSDO>
F 18

$$$$
=
 OpenBabel10272414573D

 37 38  0  0  1  0  0  0  0  0999 V2000
  187.7050  178.6680  142.1540 C   0  0  1  0  0  3  0  0  0  0  0  0
  190.6660  176.9910  140.0730 C   0  0  0  0  0  2  0  0  0  0  0  0
  188.4420  178.4170  140.9140 N   0  0  0  0  0  0  0  0  0  0  0  0
  188.5570  178.4670  139.5210 C   0  0  1  0  0  3  0  0  0  0  0  0
  189.5830  177.7530  140.1280 C   0  0  0  0  0  0  0  0  0  0  0  0
  187.4880  177.5610  138.9240 C   0  0  0  0  0  2  0  0  0  0  0  0
  187.1700  177.9030  137.4710 C   0  0  0  0  0  2  0  0  0  0  0  0
  185.1020  177.2810  136.2170 C   0  0  0  0  0  3  0  0  0  0  0  0
  186.2590  176.8780  136.8950 C   0  0  0  0  0  0  0  0  0  0  0  0
  186.5540  175.5120  137.0280 C   0  0  0  0  0  3  0  0  0  0  0  0
  185.9800  173.2020  136.6210 O   0  0  0  0  0  1  0  0  0  0  0  0
  184.5260  174.9640  135.8200 C   0  0  0  0  0  3  0  0  0  0  0  0
  185.6870  174.5560  136.4920 C   0  0  0  0  0  0  0  0  0  0  0  0
  184.2360  176.3250  135.6810 C   0  0  0  0  0  3  0  0  0  0  0  0
  186.1840  178.4570  141.9490 C   0  0  2  0  0  3  0  0  0  0  0  0
  184.6260  178.6320  140.0850 C   0  0  0  0  0  0  0  0  0  0  0  0
  183.6090  178.1010  139.4610 C   0  0  0  0  0  3  0  0  0  0  0  0
  185.6500  179.1440  140.7110 C   0  0  0  0  0  3  0  0  0  0  0  0
  181.6910  178.0840  137.9190 C   0  0  0  0  0  1  0  0  0  0  0  0
  182.7280  178.9490  138.6070 C   0  0  0  0  0  2  0  0  0  0  0  0
  185.4320  178.7960  143.1760 N   0  0  0  0  0  0  0  0  0  0  0  0
  185.2580  180.2440  143.3600 C   0  0  0  0  0  1  0  0  0  0  0  0
  183.0980  178.8030  144.0910 C   0  0  0  0  0  1  0  0  0  0  0  0
  184.1460  178.0860  143.2380 C   0  0  0  0  0  2  0  0  0  0  0  0
  188.2950  177.8500  143.3470 C   0  0  2  0  0  0  0  0  0  0  0  0
  188.9910  175.4070  142.9780 C   0  0  0  0  0  1  0  0  0  0  0  0
  187.8610  176.3710  143.2940 C   0  0  0  0  0  2  0  0  0  0  0  0
  187.7210  178.4050  144.6620 C   0  0  0  0  0  2  0  0  0  0  0  0
  185.9960  177.9250  146.3600 C   0  0  0  0  0  1  0  0  0  0  0  0
  187.1860  177.3440  145.6190 C   0  0  2  0  0  3  0  0  0  0  0  0
  188.1210  178.0040  147.5300 C   0  0  0  0  0  1  0  0  0  0  0  0
  188.1860  177.0230  146.5390 O   0  0  0  0  0  0  0  0  0  0  0  0
  189.8370  177.9720  143.3680 C   0  0  0  0  0  2  0  0  0  0  0  0
  190.3930  178.5990  144.6460 C   0  0  0  0  0  2  0  0  0  0  0  0
  191.7050  177.9430  145.0260 C   0  0  0  0  0  2  0  0  0  0  0  0
  191.4620  176.5410  145.5530 C   0  0  0  0  0  2  0  0  0  0  0  0
  191.5990  176.5200  147.0620 C   0  0  0  0  0  1  0  0  0  0  0  0
  1 15  1  6  0  0  0
  1 25  1  0  0  0  0
  2  5  2  0  0  0  0
  3  1  1  0  0  0  0
  4  6  1  6  0  0  0
  4  5  1  0  0  0  0
  4  3  1  0  0  0  0
  5  3  1  0  0  0  0
  7  6  1  0  0  0  0
  8  9  1  0  0  0  0
  9 10  2  0  0  0  0
  9  7  1  0  0  0  0
 12 13  2  0  0  0  0
 13 11  1  0  0  0  0
 13 10  1  0  0  0  0
 14 12  1  0  0  0  0
 14  8  2  0  0  0  0
 15 18  1  6  0  0  0
 15 21  1  0  0  0  0
 16 18  2  0  0  0  0
 17 16  2  0  0  0  0
 19 20  1  0  0  0  0
 20 17  1  0  0  0  0
 21 24  1  0  0  0  0
 21 22  1  0  0  0  0
 24 23  1  0  0  0  0
 25 27  1  6  0  0  0
 25 33  1  0  0  0  0
 25 28  1  0  0  0  0
 26 27  1  0  0  0  0
 28 30  1  0  0  0  0
 30 29  1  1  0  0  0
 30 32  1  0  0  0  0
 32 31  1  0  0  0  0
 33 34  1  0  0  0  0
 34 35  1  0  0  0  0
 35 36  1  0  0  0  0
 36 37  1  0  0  0  0
M  END
>  <MODEL>
8

>  <REMARK>
 VINA RESULT:      -4.4      2.164      8.387
  Name = 
  18 active torsions:
  status: ('A' for Active; 'I' for Inactive)
    1  A    between atoms: N_1  and  C_23
    2  A    between atoms: N_1  and  C_36
    3  A    between atoms: C_3  and  C_32
    4  A    between atoms: C_6  and  C_31
    5  A    between atoms: C_9  and  C_13
    6  A    between atoms: C_9  and  C_32
    7  A    between atoms: N_10  and  C_29
    8  A    between atoms: C_13  and  C_20
    9  A    between atoms: C_14  and  C_37
   10  A    between atoms: C_16  and  C_20
   11  A    between atoms: C_16  and  C_24
   12  A    between atoms: C_20  and  C_25
   13  A    between atoms: C_20  and  C_29
   14  A    between atoms: C_24  and  O_28
   15  A    between atoms: C_26  and  C_34
   16  A    between atoms: C_29  and  C_36
   17  A    between atoms: C_31  and  C_37
   18  A    between atoms: C_33  and  C_36
                            x       y       z     vdW  Elec       q    Type
                         _______ _______ _______ _____ _____    ______ ____

>  <TORSDO>
F 18

$$$$
=
 OpenBabel10272414573D

 37 38  0  0  1  0  0  0  0  0999 V2000
  187.4970  176.5490  138.0220 C   0  0  1  0  0  3  0  0  0  0  0  0
  183.8150  177.9500  138.6520 C   0  0  0  0  0  2  0  0  0  0  0  0
  186.5570  177.5700  138.4920 N   0  0  0  0  0  0  0  0  0  0  0  0
  186.2650  178.7400  139.2020 C   0  0  1  0  0  3  0  0  0  0  0  0
  185.1310  178.0850  138.7370 C   0  0  0  0  0  0  0  0  0  0  0  0
  186.5280  178.4770  140.6780 C   0  0  0  0  0  2  0  0  0  0  0  0
  185.3240  178.8030  141.5570 C   0  0  0  0  0  2  0  0  0  0  0  0
  186.7560  177.6820  143.2700 C   0  0  0  0  0  3  0  0  0  0  0  0
  185.6050  178.4200  142.9680 C   0  0  0  0  0  0  0  0  0  0  0  0
  184.7240  178.7970  143.9930 C   0  0  0  0  0  3  0  0  0  0  0  0
  184.1190  178.7990  146.3310 O   0  0  0  0  0  1  0  0  0  0  0  0
  186.1410  177.6790  145.6110 C   0  0  0  0  0  3  0  0  0  0  0  0
  184.9910  178.4250  145.3130 C   0  0  0  0  0  0  0  0  0  0  0  0
  187.0230  177.3120  144.5900 C   0  0  0  0  0  3  0  0  0  0  0  0
  186.9990  175.9000  136.7070 C   0  0  2  0  0  3  0  0  0  0  0  0
  186.7870  173.4980  136.3560 C   0  0  0  0  0  0  0  0  0  0  0  0
  185.9770  172.4780  136.2610 C   0  0  0  0  0  3  0  0  0  0  0  0
  187.5850  174.5260  136.4640 C   0  0  0  0  0  3  0  0  0  0  0  0
  187.8830  171.0150  135.7280 C   0  0  0  0  0  1  0  0  0  0  0  0
  186.3990  171.2530  135.5230 C   0  0  0  0  0  2  0  0  0  0  0  0
  187.1740  176.8190  135.5630 N   0  0  0  0  0  0  0  0  0  0  0  0
  187.8420  176.1880  134.4160 C   0  0  0  0  0  1  0  0  0  0  0  0
  184.7050  176.4960  135.2680 C   0  0  0  0  0  1  0  0  0  0  0  0
  185.9020  177.4440  135.1700 C   0  0  0  0  0  2  0  0  0  0  0  0
  188.9520  177.1090  137.9310 C   0  0  2  0  0  0  0  0  0  0  0  0
  188.9790  179.5280  137.0720 C   0  0  0  0  0  1  0  0  0  0  0  0
  189.1250  178.0560  136.7260 C   0  0  0  0  0  2  0  0  0  0  0  0
  189.9200  175.9400  137.6840 C   0  0  0  0  0  2  0  0  0  0  0  0
  191.0880  174.9770  135.7350 C   0  0  0  0  0  1  0  0  0  0  0  0
  190.9790  176.2070  136.6180 C   0  0  2  0  0  3  0  0  0  0  0  0
  192.6710  175.1690  137.6280 C   0  0  0  0  0  1  0  0  0  0  0  0
  192.2050  176.4290  137.2480 O   0  0  0  0  0  0  0  0  0  0  0  0
  189.3340  177.8200  139.2510 C   0  0  0  0  0  2  0  0  0  0  0  0
  190.3540  177.0570  140.0950 C   0  0  0  0  0  2  0  0  0  0  0  0
  190.1970  177.4130  141.5600 C   0  0  0  0  0  2  0  0  0  0  0  0
  190.0530  176.1550  142.3970 C   0  0  0  0  0  2  0  0  0  0  0  0
  191.1010  176.1340  143.4910 C   0  0  0  0  0  1  0  0  0  0  0  0
  1 15  1  6  0  0  0
  1  3  1  0  0  0  0
  2  5  2  0  0  0  0
  3  5  1  0  0  0  0
  3  4  1  0  0  0  0
  4  6  1  1  0  0  0
  5  4  1  0  0  0  0
  6  7  1  0  0  0  0
  7  9  1  0  0  0  0
  8 14  1  0  0  0  0
  9  8  2  0  0  0  0
  9 10  1  0  0  0  0
 10 13  2  0  0  0  0
 13 12  1  0  0  0  0
 13 11  1  0  0  0  0
 14 12  2  0  0  0  0
 15 18  1  6  0  0  0
 16 18  2  0  0  0  0
 17 16  2  0  0  0  0
 20 19  1  0  0  0  0
 20 17  1  0  0  0  0
 21 15  1  0  0  0  0
 22 21  1  0  0  0  0
 24 23  1  0  0  0  0
 24 21  1  0  0  0  0
 25 27  1  6  0  0  0
 25  1  1  0  0  0  0
 25 33  1  0  0  0  0
 27 26  1  0  0  0  0
 28 25  1  0  0  0  0
 30 29  1  6  0  0  0
 30 32  1  0  0  0  0
 30 28  1  0  0  0  0
 32 31  1  0  0  0  0
 33 34  1  0  0  0  0
 34 35  1  0  0  0  0
 35 36  1  0  0  0  0
 36 37  1  0  0  0  0
M  END
>  <MODEL>
9

>  <REMARK>
 VINA RESULT:      -4.4      2.244      5.822
  Name = 
  18 active torsions:
  status: ('A' for Active; 'I' for Inactive)
    1  A    between atoms: N_1  and  C_23
    2  A    between atoms: N_1  and  C_36
    3  A    between atoms: C_3  and  C_32
    4  A    between atoms: C_6  and  C_31
    5  A    between atoms: C_9  and  C_13
    6  A    between atoms: C_9  and  C_32
    7  A    between atoms: N_10  and  C_29
    8  A    between atoms: C_13  and  C_20
    9  A    between atoms: C_14  and  C_37
   10  A    between atoms: C_16  and  C_20
   11  A    between atoms: C_16  and  C_24
   12  A    between atoms: C_20  and  C_25
   13  A    between atoms: C_20  and  C_29
   14  A    between atoms: C_24  and  O_28
   15  A    between atoms: C_26  and  C_34
   16  A    between atoms: C_29  and  C_36
   17  A    between atoms: C_31  and  C_37
   18  A    between atoms: C_33  and  C_36
                            x       y       z     vdW  Elec       q    Type
                         _______ _______ _______ _____ _____    ______ ____

>  <TORSDO>
F 18

$$$$
