=
 OpenBabel10272402123D

 32 37  0  0  1  0  0  0  0  0999 V2000
  189.8630  177.4450  142.6850 C   0  0  1  0  0  3  0  0  0  0  0  0
  188.2280  176.8910  144.4650 C   0  0  1  0  0  3  0  0  0  0  0  0
  191.2310  178.0660  142.3530 C   0  0  0  0  0  2  0  0  0  0  0  0
  189.4630  177.6820  144.1340 C   0  0  1  0  0  3  0  0  0  0  0  0
  187.7140  177.4460  145.7540 C   0  0  1  0  0  3  0  0  0  0  0  0
  187.0910  176.9920  143.4630 C   0  0  1  0  0  3  0  0  0  0  0  0
  185.8180  177.1410  144.3280 C   0  0  1  0  0  3  0  0  0  0  0  0
  190.5540  177.2810  145.1270 C   0  0  2  0  0  3  0  0  0  0  0  0
  186.2740  176.9880  145.7860 C   0  0  0  0  0  2  0  0  0  0  0  0
  190.0840  177.5740  146.5710 C   0  0  0  0  0  2  0  0  0  0  0  0
  191.8920  177.9690  144.8170 C   0  0  0  0  0  2  0  0  0  0  0  0
  187.3480  178.0700  142.3860 C   0  0  0  0  0  2  0  0  0  0  0  0
  188.7530  177.9430  141.7330 C   0  0  2  0  0  3  0  0  0  0  0  0
  188.6710  177.0120  146.8740 C   0  0  1  0  0  3  0  0  0  0  0  0
  191.8650  178.8190  143.5340 C   0  0  0  0  0  2  0  0  0  0  0  0
  190.8530  177.6690  138.9890 C   0  0  1  0  0  3  0  0  0  0  0  0
  191.9830  177.0340  138.4640 O   0  0  0  0  0  1  0  0  0  0  0  0
  188.7770  178.7660  138.4630 C   0  0  0  0  0  2  0  0  0  0  0  0
  188.7480  177.1420  140.4240 C   0  0  1  0  0  3  0  0  0  0  0  0
  189.9700  178.1170  137.9020 N   0  0  0  0  0  0  0  0  0  0  0  0
  187.9340  177.7950  139.2990 C   0  0  0  0  0  2  0  0  0  0  0  0
  190.1370  176.7810  139.9780 C   0  0  0  0  0  0  0  0  0  0  0  0
  190.7010  175.8200  140.4780 O   0  0  0  0  0  0  0  0  0  0  0  0
  189.2880  177.5490  135.9030 C   0  0  0  0  0  1  0  0  0  0  0  0
  189.5760  177.0390  137.1720 O   0  0  0  0  0  0  0  0  0  0  0  0
  184.3270  180.4680  144.4260 N   0  0  0  0  0  0  0  0  0  0  0  0
  184.1010  178.7030  143.1850 C   0  0  0  0  0  3  0  0  0  0  0  0
  185.0740  178.4310  144.1260 C   0  0  0  0  0  0  0  0  0  0  0  0
  183.7030  179.9330  143.4160 O   0  0  0  0  0  0  0  0  0  0  0  0
  185.1940  179.5580  144.9070 C   0  0  0  0  0  3  0  0  0  0  0  0
  188.2250  177.5340  148.2040 C   0  0  0  0  0  3  0  0  0  0  0  0
  188.9400  178.4480  148.8560 C   0  0  0  0  0  2  0  0  0  0  0  0
  1  3  1  6  0  0  0
  1  4  1  0  0  0  0
  2  5  1  0  0  0  0
  3 15  1  0  0  0  0
  4  2  1  0  0  0  0
  4  8  1  0  0  0  0
  5  9  1  0  0  0  0
  5 14  1  0  0  0  0
  6  7  1  0  0  0  0
  6  2  1  0  0  0  0
  7  9  1  0  0  0  0
  8 10  1  0  0  0  0
 10 14  1  0  0  0  0
 11  8  1  0  0  0  0
 12  6  1  0  0  0  0
 13 12  1  0  0  0  0
 13  1  1  0  0  0  0
 14 31  1  0  0  0  0
 15 11  1  0  0  0  0
 16 22  1  0  0  0  0
 17 16  1  0  0  0  0
 18 21  1  0  0  0  0
 19 13  1  0  0  0  0
 20 18  1  0  0  0  0
 20 16  1  0  0  0  0
 21 19  1  0  0  0  0
 22 19  1  0  0  0  0
 22 23  2  0  0  0  0
 24 25  1  0  0  0  0
 25 20  1  0  0  0  0
 26 30  2  0  0  0  0
 27 29  1  0  0  0  0
 27 28  2  0  0  0  0
 28  7  1  0  0  0  0
 28 30  1  0  0  0  0
 29 26  1  0  0  0  0
 31 32  2  0  0  0  0
M  END
>  <MODEL>
1

>  <REMARK>
 VINA RESULT:      -8.1      0.000      0.000
  Name = 
  4 active torsions:
  status: ('A' for Active; 'I' for Inactive)
    1  A    between atoms: C_12  and  C_28
    2  A    between atoms: C_13  and  C_29
    3  A    between atoms: C_16  and  C_27
    4  A    between atoms: N_19  and  O_26
                            x       y       z     vdW  Elec       q    Type
                         _______ _______ _______ _____ _____    ______ ____

>  <TORSDO>
F 4

$$$$
=
 OpenBabel10272402123D

 32 37  0  0  1  0  0  0  0  0999 V2000
  189.9360  174.2970  136.1580 C   0  0  1  0  0  3  0  0  0  0  0  0
  189.3100  176.5370  137.0150 C   0  0  1  0  0  3  0  0  0  0  0  0
  189.4360  172.9110  135.7130 C   0  0  0  0  0  2  0  0  0  0  0  0
  188.8300  175.1310  136.7840 C   0  0  1  0  0  3  0  0  0  0  0  0
  188.3170  177.1690  137.9360 C   0  0  1  0  0  3  0  0  0  0  0  0
  190.6690  176.6690  137.6830 C   0  0  1  0  0  3  0  0  0  0  0  0
  190.4860  177.8000  138.7220 C   0  0  1  0  0  3  0  0  0  0  0  0
  187.5730  175.2050  135.9170 C   0  0  2  0  0  3  0  0  0  0  0  0
  189.0680  178.3490  138.5100 C   0  0  0  0  0  2  0  0  0  0  0  0
  186.4890  176.0460  136.6310 C   0  0  0  0  0  2  0  0  0  0  0  0
  187.0510  173.8080  135.5460 C   0  0  0  0  0  2  0  0  0  0  0  0
  191.2090  175.3150  138.1940 C   0  0  0  0  0  2  0  0  0  0  0  0
  191.1440  174.1980  137.1150 C   0  0  2  0  0  3  0  0  0  0  0  0
  187.0220  177.4080  137.1450 C   0  0  1  0  0  3  0  0  0  0  0  0
  187.9540  172.6620  136.0380 C   0  0  0  0  0  2  0  0  0  0  0  0
  194.4020  175.3290  137.4650 C   0  0  1  0  0  3  0  0  0  0  0  0
  195.6400  175.0980  138.0720 O   0  0  0  0  0  1  0  0  0  0  0  0
  193.2760  176.3120  135.5790 C   0  0  0  0  0  2  0  0  0  0  0  0
  192.4550  174.0240  136.3360 C   0  0  1  0  0  3  0  0  0  0  0  0
  194.5800  176.0920  136.2200 N   0  0  0  0  0  0  0  0  0  0  0  0
  192.6130  174.9940  135.1580 C   0  0  0  0  0  2  0  0  0  0  0  0
  193.6540  174.0350  137.2400 C   0  0  0  0  0  0  0  0  0  0  0  0
  193.9640  173.0210  137.8460 O   0  0  0  0  0  0  0  0  0  0  0  0
  196.1560  176.3400  134.7250 C   0  0  0  0  0  1  0  0  0  0  0  0
  195.3680  175.3820  135.3680 O   0  0  0  0  0  0  0  0  0  0  0  0
  190.3040  176.6680  142.1840 N   0  0  0  0  0  0  0  0  0  0  0  0
  191.8530  177.4670  140.8940 C   0  0  0  0  0  3  0  0  0  0  0  0
  190.6940  177.3750  140.1490 C   0  0  0  0  0  0  0  0  0  0  0  0
  191.5530  177.0250  142.0930 O   0  0  0  0  0  0  0  0  0  0  0  0
  189.7240  176.8760  140.9870 C   0  0  0  0  0  3  0  0  0  0  0  0
  185.9700  178.0380  138.0030 C   0  0  0  0  0  3  0  0  0  0  0  0
  184.6950  177.6690  137.9080 C   0  0  0  0  0  2  0  0  0  0  0  0
  1  3  1  1  0  0  0
  1  4  1  0  0  0  0
  1 13  1  0  0  0  0
  2  6  1  0  0  0  0
  2  5  1  0  0  0  0
  3 15  1  0  0  0  0
  4  2  1  0  0  0  0
  5  9  1  0  0  0  0
  6 12  1  0  0  0  0
  6  7  1  0  0  0  0
  7 28  1  0  0  0  0
  8 10  1  0  0  0  0
  8  4  1  0  0  0  0
  9  7  1  0  0  0  0
 10 14  1  0  0  0  0
 11  8  1  0  0  0  0
 11 15  1  0  0  0  0
 13 12  1  0  0  0  0
 14  5  1  0  0  0  0
 14 31  1  0  0  0  0
 16 17  1  0  0  0  0
 18 20  1  0  0  0  0
 19 13  1  0  0  0  0
 19 22  1  0  0  0  0
 20 16  1  0  0  0  0
 21 18  1  0  0  0  0
 21 19  1  0  0  0  0
 22 16  1  0  0  0  0
 22 23  2  0  0  0  0
 24 25  1  0  0  0  0
 25 20  1  0  0  0  0
 27 29  1  0  0  0  0
 28 27  2  0  0  0  0
 28 30  1  0  0  0  0
 29 26  1  0  0  0  0
 30 26  2  0  0  0  0
 32 31  2  0  0  0  0
M  END
>  <MODEL>
2

>  <REMARK>
 VINA RESULT:      -7.3      4.614      7.823
  Name = 
  4 active torsions:
  status: ('A' for Active; 'I' for Inactive)
    1  A    between atoms: C_12  and  C_28
    2  A    between atoms: C_13  and  C_29
    3  A    between atoms: C_16  and  C_27
    4  A    between atoms: N_19  and  O_26
                            x       y       z     vdW  Elec       q    Type
                         _______ _______ _______ _____ _____    ______ ____

>  <TORSDO>
F 4

$$$$
=
 OpenBabel10272402123D

 32 37  0  0  1  0  0  0  0  0999 V2000
  186.6150  178.4500  141.6100 C   0  0  1  0  0  3  0  0  0  0  0  0
  188.3380  178.4220  139.8280 C   0  0  1  0  0  3  0  0  0  0  0  0
  186.2570  178.0440  143.0500 C   0  0  0  0  0  2  0  0  0  0  0  0
  187.9320  177.8410  141.1540 C   0  0  1  0  0  3  0  0  0  0  0  0
  189.4170  177.5320  139.2990 C   0  0  1  0  0  3  0  0  0  0  0  0
  187.2520  178.4680  138.7660 C   0  0  1  0  0  3  0  0  0  0  0  0
  187.9540  178.0090  137.4670 C   0  0  1  0  0  3  0  0  0  0  0  0
  189.0750  178.0830  142.1390 C   0  0  2  0  0  3  0  0  0  0  0  0
  189.4400  177.8460  137.8200 C   0  0  0  0  0  2  0  0  0  0  0  0
  190.3690  177.4130  141.6190 C   0  0  0  0  0  2  0  0  0  0  0  0
  188.7210  177.6040  143.5550 C   0  0  0  0  0  2  0  0  0  0  0  0
  185.9780  177.7050  139.1920 C   0  0  0  0  0  2  0  0  0  0  0  0
  185.4880  178.1030  140.6130 C   0  0  2  0  0  3  0  0  0  0  0  0
  190.6800  177.7650  140.1410 C   0  0  1  0  0  3  0  0  0  0  0  0
  187.2770  177.0870  143.6890 C   0  0  0  0  0  2  0  0  0  0  0  0
  182.0210  178.1470  140.6020 C   0  0  1  0  0  3  0  0  0  0  0  0
  180.8680  178.1010  141.3910 O   0  0  0  0  0  1  0  0  0  0  0  0
  182.9660  178.9030  138.5210 C   0  0  0  0  0  2  0  0  0  0  0  0
  184.4050  179.1910  140.6030 C   0  0  1  0  0  3  0  0  0  0  0  0
  181.7440  178.8430  139.3350 N   0  0  0  0  0  0  0  0  0  0  0  0
  184.0700  179.7220  139.2020 C   0  0  0  0  0  2  0  0  0  0  0  0
  183.1740  178.7690  141.3540 C   0  0  0  0  0  0  0  0  0  0  0  0
  183.1500  178.8580  142.5720 O   0  0  0  0  0  0  0  0  0  0  0  0
  180.4030  180.4080  138.6030 C   0  0  0  0  0  1  0  0  0  0  0  0
  181.3350  180.1130  139.6020 O   0  0  0  0  0  0  0  0  0  0  0  0
  187.1320  174.6370  136.3500 N   0  0  0  0  0  0  0  0  0  0  0  0
  186.3870  176.6310  135.9370 C   0  0  0  0  0  3  0  0  0  0  0  0
  187.3990  176.7470  136.8700 C   0  0  0  0  0  0  0  0  0  0  0  0
  186.2760  175.3490  135.6750 O   0  0  0  0  0  0  0  0  0  0  0  0
  187.8620  175.4740  137.1100 C   0  0  0  0  0  3  0  0  0  0  0  0
  191.8110  176.9040  139.6740 C   0  0  0  0  0  3  0  0  0  0  0  0
  193.0760  177.2710  139.8640 C   0  0  0  0  0  2  0  0  0  0  0  0
  1  3  1  1  0  0  0
  2  4  1  0  0  0  0
  3 15  1  0  0  0  0
  4  1  1  0  0  0  0
  4  8  1  0  0  0  0
  5  2  1  0  0  0  0
  5 14  1  0  0  0  0
  6 12  1  0  0  0  0
  6  2  1  0  0  0  0
  7  9  1  0  0  0  0
  7  6  1  0  0  0  0
  8 11  1  0  0  0  0
  9  5  1  0  0  0  0
 10  8  1  0  0  0  0
 11 15  1  0  0  0  0
 12 13  1  0  0  0  0
 13  1  1  0  0  0  0
 14 10  1  0  0  0  0
 16 22  1  0  0  0  0
 16 17  1  0  0  0  0
 18 21  1  0  0  0  0
 18 20  1  0  0  0  0
 19 13  1  0  0  0  0
 19 22  1  0  0  0  0
 20 25  1  0  0  0  0
 20 16  1  0  0  0  0
 21 19  1  0  0  0  0
 22 23  2  0  0  0  0
 24 25  1  0  0  0  0
 26 30  2  0  0  0  0
 27 28  2  0  0  0  0
 28 30  1  0  0  0  0
 28  7  1  0  0  0  0
 29 27  1  0  0  0  0
 29 26  1  0  0  0  0
 31 32  2  0  0  0  0
 31 14  1  0  0  0  0
M  END
>  <MODEL>
3

>  <REMARK>
 VINA RESULT:      -7.2      3.084      7.213
  Name = 
  4 active torsions:
  status: ('A' for Active; 'I' for Inactive)
    1  A    between atoms: C_12  and  C_28
    2  A    between atoms: C_13  and  C_29
    3  A    between atoms: C_16  and  C_27
    4  A    between atoms: N_19  and  O_26
                            x       y       z     vdW  Elec       q    Type
                         _______ _______ _______ _____ _____    ______ ____

>  <TORSDO>
F 4

$$$$
=
 OpenBabel10272402123D

 32 37  0  0  1  0  0  0  0  0999 V2000
  186.8230  178.4110  142.1000 C   0  0  1  0  0  3  0  0  0  0  0  0
  188.3100  178.4390  144.0850 C   0  0  1  0  0  3  0  0  0  0  0  0
  185.3880  178.2180  141.5790 C   0  0  0  0  0  2  0  0  0  0  0  0
  186.9520  178.0460  143.5710 C   0  0  1  0  0  3  0  0  0  0  0  0
  188.4770  177.7380  145.3940 C   0  0  1  0  0  3  0  0  0  0  0  0
  189.4880  178.0280  143.2170 C   0  0  1  0  0  3  0  0  0  0  0  0
  190.5450  177.5030  144.2160 C   0  0  1  0  0  3  0  0  0  0  0  0
  185.9050  178.7300  144.4510 C   0  0  2  0  0  3  0  0  0  0  0  0
  189.9720  177.7590  145.6170 C   0  0  0  0  0  2  0  0  0  0  0  0
  186.0850  178.2900  145.9220 C   0  0  0  0  0  2  0  0  0  0  0  0
  184.4770  178.4640  143.9510 C   0  0  0  0  0  2  0  0  0  0  0  0
  189.0720  177.0890  142.0640 C   0  0  0  0  0  2  0  0  0  0  0  0
  187.8550  177.6280  141.2590 C   0  0  2  0  0  3  0  0  0  0  0  0
  187.5500  178.4140  146.4160 C   0  0  1  0  0  3  0  0  0  0  0  0
  184.4210  177.6630  142.6380 C   0  0  0  0  0  2  0  0  0  0  0  0
  187.6230  177.1130  137.8390 C   0  0  1  0  0  3  0  0  0  0  0  0
  186.8070  177.2370  136.7110 O   0  0  0  0  0  1  0  0  0  0  0  0
  189.8900  177.0160  138.6400 C   0  0  0  0  0  2  0  0  0  0  0  0
  188.2540  178.4130  140.0020 C   0  0  1  0  0  3  0  0  0  0  0  0
  189.0410  177.1270  137.4470 N   0  0  0  0  0  0  0  0  0  0  0  0
  189.7170  178.2140  139.5820 C   0  0  0  0  0  2  0  0  0  0  0  0
  187.3040  178.1760  138.8640 C   0  0  0  0  0  0  0  0  0  0  0  0
  186.2470  178.7870  138.8210 O   0  0  0  0  0  0  0  0  0  0  0  0
  189.6480  177.9430  135.5110 C   0  0  0  0  0  1  0  0  0  0  0  0
  189.3210  178.3020  136.8210 O   0  0  0  0  0  0  0  0  0  0  0  0
  191.9820  174.1520  144.1620 N   0  0  0  0  0  0  0  0  0  0  0  0
  190.2910  175.1290  143.2190 C   0  0  0  0  0  3  0  0  0  0  0  0
  190.9080  176.0560  144.0360 C   0  0  0  0  0  0  0  0  0  0  0  0
  190.9770  174.0160  143.3460 O   0  0  0  0  0  0  0  0  0  0  0  0
  191.9820  175.4200  144.6160 C   0  0  0  0  0  3  0  0  0  0  0  0
  187.6570  177.7630  147.7600 C   0  0  0  0  0  3  0  0  0  0  0  0
  188.5530  178.1770  148.6520 C   0  0  0  0  0  2  0  0  0  0  0  0
  1  3  1  6  0  0  0
  1  4  1  0  0  0  0
  2  5  1  0  0  0  0
  3 15  1  0  0  0  0
  4  2  1  0  0  0  0
  4  8  1  0  0  0  0
  5  9  1  0  0  0  0
  5 14  1  0  0  0  0
  6  2  1  0  0  0  0
  6  7  1  0  0  0  0
  7  9  1  0  0  0  0
  8 10  1  0  0  0  0
 10 14  1  0  0  0  0
 11  8  1  0  0  0  0
 12  6  1  0  0  0  0
 13 12  1  0  0  0  0
 13  1  1  0  0  0  0
 14 31  1  0  0  0  0
 15 11  1  0  0  0  0
 16 22  1  0  0  0  0
 17 16  1  0  0  0  0
 18 21  1  0  0  0  0
 19 13  1  0  0  0  0
 20 16  1  0  0  0  0
 20 18  1  0  0  0  0
 21 19  1  0  0  0  0
 22 19  1  0  0  0  0
 23 22  2  0  0  0  0
 24 25  1  0  0  0  0
 25 20  1  0  0  0  0
 26 30  2  0  0  0  0
 27 29  1  0  0  0  0
 27 28  2  0  0  0  0
 28  7  1  0  0  0  0
 28 30  1  0  0  0  0
 29 26  1  0  0  0  0
 31 32  2  0  0  0  0
M  END
>  <MODEL>
4

>  <REMARK>
 VINA RESULT:      -7.2      2.340      4.685
  Name = 
  4 active torsions:
  status: ('A' for Active; 'I' for Inactive)
    1  A    between atoms: C_12  and  C_28
    2  A    between atoms: C_13  and  C_29
    3  A    between atoms: C_16  and  C_27
    4  A    between atoms: N_19  and  O_26
                            x       y       z     vdW  Elec       q    Type
                         _______ _______ _______ _____ _____    ______ ____

>  <TORSDO>
F 4

$$$$
=
 OpenBabel10272402123D

 32 37  0  0  1  0  0  0  0  0999 V2000
  186.1180  178.6890  140.7050 C   0  0  1  0  0  3  0  0  0  0  0  0
  187.3310  178.3980  138.5620 C   0  0  1  0  0  3  0  0  0  0  0  0
  186.1510  178.4910  142.2300 C   0  0  0  0  0  2  0  0  0  0  0  0
  187.2910  178.0100  140.0140 C   0  0  1  0  0  3  0  0  0  0  0  0
  188.2610  177.4320  137.9010 C   0  0  1  0  0  3  0  0  0  0  0  0
  186.0090  178.3060  137.8180 C   0  0  1  0  0  3  0  0  0  0  0  0
  186.3680  177.6650  136.4570 C   0  0  1  0  0  3  0  0  0  0  0  0
  188.6410  178.3750  140.6310 C   0  0  2  0  0  3  0  0  0  0  0  0
  187.8980  177.5380  136.4370 C   0  0  0  0  0  2  0  0  0  0  0  0
  189.7760  177.6270  139.8930 C   0  0  0  0  0  2  0  0  0  0  0  0
  188.6720  178.1010  142.1430 C   0  0  0  0  0  2  0  0  0  0  0  0
  184.9050  177.6230  138.6560 C   0  0  0  0  0  2  0  0  0  0  0  0
  184.7830  178.2190  140.0870 C   0  0  2  0  0  3  0  0  0  0  0  0
  189.6910  177.7670  138.3510 C   0  0  1  0  0  3  0  0  0  0  0  0
  187.3240  177.6210  142.7100 C   0  0  0  0  0  2  0  0  0  0  0  0
  181.3200  178.2670  140.2310 C   0  0  1  0  0  3  0  0  0  0  0  0
  180.2030  178.1630  141.0650 O   0  0  0  0  0  1  0  0  0  0  0  0
  182.1760  179.1760  138.1740 C   0  0  0  0  0  2  0  0  0  0  0  0
  183.7060  179.3050  140.2060 C   0  0  1  0  0  3  0  0  0  0  0  0
  180.9910  179.0560  139.0340 N   0  0  0  0  0  0  0  0  0  0  0  0
  183.3120  179.9410  138.8660 C   0  0  0  0  0  2  0  0  0  0  0  0
  182.5080  178.8290  140.9770 C   0  0  0  0  0  0  0  0  0  0  0  0
  182.5370  178.8260  142.1980 O   0  0  0  0  0  0  0  0  0  0  0  0
  179.9820  180.8450  138.2830 C   0  0  0  0  0  1  0  0  0  0  0  0
  180.5990  180.3030  139.4130 O   0  0  0  0  0  0  0  0  0  0  0  0
  185.3620  174.1790  136.0930 N   0  0  0  0  0  0  0  0  0  0  0  0
  184.5270  176.1000  135.5320 C   0  0  0  0  0  3  0  0  0  0  0  0
  185.7120  176.3380  136.2010 C   0  0  0  0  0  0  0  0  0  0  0  0
  184.3760  174.7960  135.5080 O   0  0  0  0  0  0  0  0  0  0  0  0
  186.2280  175.1080  136.5390 C   0  0  0  0  0  3  0  0  0  0  0  0
  190.6880  176.8380  137.7320 C   0  0  0  0  0  3  0  0  0  0  0  0
  191.7500  176.4190  138.4150 C   0  0  0  0  0  2  0  0  0  0  0  0
  1  3  1  1  0  0  0
  2  4  1  0  0  0  0
  3 15  1  0  0  0  0
  4  8  1  0  0  0  0
  4  1  1  0  0  0  0
  5 14  1  0  0  0  0
  5  2  1  0  0  0  0
  6  2  1  0  0  0  0
  6 12  1  0  0  0  0
  7  6  1  0  0  0  0
  8 11  1  0  0  0  0
  9  7  1  0  0  0  0
  9  5  1  0  0  0  0
 10  8  1  0  0  0  0
 11 15  1  0  0  0  0
 12 13  1  0  0  0  0
 13 19  1  0  0  0  0
 13  1  1  0  0  0  0
 14 10  1  0  0  0  0
 16 22  1  0  0  0  0
 16 17  1  0  0  0  0
 18 21  1  0  0  0  0
 18 20  1  0  0  0  0
 19 22  1  0  0  0  0
 20 25  1  0  0  0  0
 20 16  1  0  0  0  0
 21 19  1  0  0  0  0
 22 23  2  0  0  0  0
 24 25  1  0  0  0  0
 26 30  2  0  0  0  0
 27 28  2  0  0  0  0
 28  7  1  0  0  0  0
 28 30  1  0  0  0  0
 29 27  1  0  0  0  0
 29 26  1  0  0  0  0
 31 14  1  0  0  0  0
 31 32  2  0  0  0  0
M  END
>  <MODEL>
5

>  <REMARK>
 VINA RESULT:      -6.9      3.907      7.910
  Name = 
  4 active torsions:
  status: ('A' for Active; 'I' for Inactive)
    1  A    between atoms: C_12  and  C_28
    2  A    between atoms: C_13  and  C_29
    3  A    between atoms: C_16  and  C_27
    4  A    between atoms: N_19  and  O_26
                            x       y       z     vdW  Elec       q    Type
                         _______ _______ _______ _____ _____    ______ ____

>  <TORSDO>
F 4

$$$$
=
 OpenBabel10272402123D

 32 37  0  0  1  0  0  0  0  0999 V2000
  188.1810  176.3870  136.8750 C   0  0  1  0  0  3  0  0  0  0  0  0
  187.7980  177.9770  138.7380 C   0  0  1  0  0  3  0  0  0  0  0  0
  187.5400  175.4070  135.8770 C   0  0  0  0  0  2  0  0  0  0  0  0
  187.1870  176.8760  137.9170 C   0  0  1  0  0  3  0  0  0  0  0  0
  186.9150  178.1420  139.9330 C   0  0  1  0  0  3  0  0  0  0  0  0
  189.1980  177.7080  139.2660 C   0  0  1  0  0  3  0  0  0  0  0  0
  189.1700  178.2140  140.7260 C   0  0  1  0  0  3  0  0  0  0  0  0
  185.8950  177.4150  137.3030 C   0  0  2  0  0  3  0  0  0  0  0  0
  187.7950  178.8670  140.9250 C   0  0  0  0  0  2  0  0  0  0  0  0
  184.9290  177.8670  138.4220 C   0  0  0  0  0  2  0  0  0  0  0  0
  185.2360  176.3910  136.3660 C   0  0  0  0  0  2  0  0  0  0  0  0
  189.6470  176.2490  139.0280 C   0  0  0  0  0  2  0  0  0  0  0  0
  189.4270  175.7850  137.5610 C   0  0  2  0  0  3  0  0  0  0  0  0
  185.6040  178.7920  139.4680 C   0  0  1  0  0  3  0  0  0  0  0  0
  186.0620  175.1070  136.1770 C   0  0  0  0  0  2  0  0  0  0  0  0
  192.0410  173.7270  136.5870 C   0  0  1  0  0  3  0  0  0  0  0  0
  192.4640  172.7620  135.6680 O   0  0  0  0  0  1  0  0  0  0  0  0
  192.7440  175.4740  138.0850 C   0  0  0  0  0  2  0  0  0  0  0  0
  190.6730  175.9380  136.6780 C   0  0  1  0  0  3  0  0  0  0  0  0
  193.1990  174.4500  137.1360 N   0  0  0  0  0  0  0  0  0  0  0  0
  191.8800  176.5450  137.4060 C   0  0  0  0  0  2  0  0  0  0  0  0
  191.0250  174.6600  135.9710 C   0  0  0  0  0  0  0  0  0  0  0  0
  190.4300  174.3490  134.9510 O   0  0  0  0  0  0  0  0  0  0  0  0
  195.2130  175.0080  136.4900 C   0  0  0  0  0  1  0  0  0  0  0  0
  193.8660  175.0630  136.1210 O   0  0  0  0  0  0  0  0  0  0  0  0
  190.4150  175.6180  142.9650 N   0  0  0  0  0  0  0  0  0  0  0  0
  188.4940  176.5530  142.5910 C   0  0  0  0  0  3  0  0  0  0  0  0
  189.4190  177.1520  141.7600 C   0  0  0  0  0  0  0  0  0  0  0  0
  189.1530  175.6540  143.2850 O   0  0  0  0  0  0  0  0  0  0  0  0
  190.6260  176.5390  142.0060 C   0  0  0  0  0  3  0  0  0  0  0  0
  184.6590  178.9890  140.6110 C   0  0  0  0  0  3  0  0  0  0  0  0
  183.7330  178.0780  140.9010 C   0  0  0  0  0  2  0  0  0  0  0  0
  1  3  1  1  0  0  0
  1 13  1  0  0  0  0
  1  4  1  0  0  0  0
  2  6  1  0  0  0  0
  2  5  1  0  0  0  0
  3 15  1  0  0  0  0
  4  2  1  0  0  0  0
  5  9  1  0  0  0  0
  6  7  1  0  0  0  0
  7  9  1  0  0  0  0
  7 28  1  0  0  0  0
  8  4  1  0  0  0  0
  8 10  1  0  0  0  0
 10 14  1  0  0  0  0
 11  8  1  0  0  0  0
 12  6  1  0  0  0  0
 13 12  1  0  0  0  0
 14  5  1  0  0  0  0
 14 31  1  0  0  0  0
 15 11  1  0  0  0  0
 16 20  1  0  0  0  0
 17 16  1  0  0  0  0
 19 21  1  0  0  0  0
 19 13  1  0  0  0  0
 20 18  1  0  0  0  0
 21 18  1  0  0  0  0
 22 16  1  0  0  0  0
 22 19  1  0  0  0  0
 23 22  2  0  0  0  0
 25 24  1  0  0  0  0
 25 20  1  0  0  0  0
 26 29  1  0  0  0  0
 27 29  1  0  0  0  0
 28 30  1  0  0  0  0
 28 27  2  0  0  0  0
 30 26  2  0  0  0  0
 31 32  2  0  0  0  0
M  END
>  <MODEL>
6

>  <REMARK>
 VINA RESULT:      -6.9      3.626      6.680
  Name = 
  4 active torsions:
  status: ('A' for Active; 'I' for Inactive)
    1  A    between atoms: C_12  and  C_28
    2  A    between atoms: C_13  and  C_29
    3  A    between atoms: C_16  and  C_27
    4  A    between atoms: N_19  and  O_26
                            x       y       z     vdW  Elec       q    Type
                         _______ _______ _______ _____ _____    ______ ____

>  <TORSDO>
F 4

$$$$
=
 OpenBabel10272402123D

 32 37  0  0  1  0  0  0  0  0999 V2000
  183.9970  178.6540  140.8330 C   0  0  1  0  0  3  0  0  0  0  0  0
  185.6710  178.5160  139.0090 C   0  0  1  0  0  3  0  0  0  0  0  0
  183.7470  178.5700  142.3490 C   0  0  0  0  0  2  0  0  0  0  0  0
  185.4090  178.2270  140.4610 C   0  0  1  0  0  3  0  0  0  0  0  0
  186.9080  177.7570  138.6510 C   0  0  1  0  0  3  0  0  0  0  0  0
  184.5890  178.0660  138.0410 C   0  0  1  0  0  3  0  0  0  0  0  0
  185.3600  177.4390  136.8560 C   0  0  1  0  0  3  0  0  0  0  0  0
  186.4840  178.9410  141.2790 C   0  0  2  0  0  3  0  0  0  0  0  0
  186.8500  177.6770  137.1430 C   0  0  0  0  0  2  0  0  0  0  0  0
  187.8850  178.4360  140.8620 C   0  0  0  0  0  2  0  0  0  0  0  0
  186.2530  178.7830  142.7900 C   0  0  0  0  0  2  0  0  0  0  0  0
  183.5100  177.1980  138.7240 C   0  0  0  0  0  2  0  0  0  0  0  0
  182.9600  177.8410  140.0280 C   0  0  2  0  0  3  0  0  0  0  0  0
  188.1010  178.4500  139.3270 C   0  0  1  0  0  3  0  0  0  0  0  0
  184.9530  178.0370  143.1400 C   0  0  0  0  0  2  0  0  0  0  0  0
  181.1330  178.9110  137.2830 C   0  0  1  0  0  3  0  0  0  0  0  0
  180.1480  178.5670  136.3530 O   0  0  0  0  0  1  0  0  0  0  0  0
  182.2120  180.7230  138.4430 C   0  0  0  0  0  2  0  0  0  0  0  0
  181.6710  178.6470  139.8150 C   0  0  1  0  0  3  0  0  0  0  0  0
  181.1880  180.3720  137.4490 N   0  0  0  0  0  0  0  0  0  0  0  0
  181.8770  180.1680  139.8330 C   0  0  0  0  0  2  0  0  0  0  0  0
  180.9180  178.1950  138.5960 C   0  0  0  0  0  0  0  0  0  0  0  0
  180.2040  177.2070  138.6590 O   0  0  0  0  0  0  0  0  0  0  0  0
  179.9820  182.1890  137.6130 C   0  0  0  0  0  1  0  0  0  0  0  0
  179.9820  180.8190  137.8910 O   0  0  0  0  0  0  0  0  0  0  0  0
  184.1160  174.1280  135.9710 N   0  0  0  0  0  0  0  0  0  0  0  0
  185.7430  174.9010  137.1780 C   0  0  0  0  0  3  0  0  0  0  0  0
  185.0790  175.9800  136.6300 C   0  0  0  0  0  0  0  0  0  0  0  0
  185.1220  173.8290  136.7410 O   0  0  0  0  0  0  0  0  0  0  0  0
  184.0470  175.4690  135.8770 C   0  0  0  0  0  3  0  0  0  0  0  0
  189.3850  177.7440  139.0190 C   0  0  0  0  0  3  0  0  0  0  0  0
  190.0140  177.0290  139.9480 C   0  0  0  0  0  2  0  0  0  0  0  0
  1  3  1  1  0  0  0
  2  4  1  0  0  0  0
  3 15  1  0  0  0  0
  4  1  1  0  0  0  0
  4  8  1  0  0  0  0
  5  2  1  0  0  0  0
  5 14  1  0  0  0  0
  6 12  1  0  0  0  0
  6  2  1  0  0  0  0
  7  9  1  0  0  0  0
  7  6  1  0  0  0  0
  8 11  1  0  0  0  0
  9  5  1  0  0  0  0
 10  8  1  0  0  0  0
 11 15  1  0  0  0  0
 12 13  1  0  0  0  0
 13  1  1  0  0  0  0
 14 10  1  0  0  0  0
 16 20  1  0  0  0  0
 16 22  1  0  0  0  0
 17 16  1  0  0  0  0
 18 21  1  0  0  0  0
 19 21  1  0  0  0  0
 19 13  1  0  0  0  0
 20 25  1  0  0  0  0
 20 18  1  0  0  0  0
 22 23  2  0  0  0  0
 22 19  1  0  0  0  0
 24 25  1  0  0  0  0
 26 29  1  0  0  0  0
 28  7  1  0  0  0  0
 28 27  2  0  0  0  0
 29 27  1  0  0  0  0
 30 26  2  0  0  0  0
 30 28  1  0  0  0  0
 31 14  1  0  0  0  0
 31 32  2  0  0  0  0
M  END
>  <MODEL>
7

>  <REMARK>
 VINA RESULT:      -6.6      4.535      8.174
  Name = 
  4 active torsions:
  status: ('A' for Active; 'I' for Inactive)
    1  A    between atoms: C_12  and  C_28
    2  A    between atoms: C_13  and  C_29
    3  A    between atoms: C_16  and  C_27
    4  A    between atoms: N_19  and  O_26
                            x       y       z     vdW  Elec       q    Type
                         _______ _______ _______ _____ _____    ______ ____

>  <TORSDO>
F 4

$$$$
=
 OpenBabel10272402123D

 32 37  0  0  1  0  0  0  0  0999 V2000
  186.9520  178.2880  142.0620 C   0  0  1  0  0  3  0  0  0  0  0  0
  188.4700  178.3950  140.1050 C   0  0  1  0  0  3  0  0  0  0  0  0
  186.7380  177.7470  143.4870 C   0  0  0  0  0  2  0  0  0  0  0  0
  188.1880  177.6930  141.4040 C   0  0  1  0  0  3  0  0  0  0  0  0
  189.4500  177.5350  139.3730 C   0  0  1  0  0  3  0  0  0  0  0  0
  187.2780  178.5780  139.1810 C   0  0  1  0  0  3  0  0  0  0  0  0
  187.8170  178.2350  137.7720 C   0  0  1  0  0  3  0  0  0  0  0  0
  189.4400  177.8020  142.2740 C   0  0  2  0  0  3  0  0  0  0  0  0
  189.3250  177.9970  137.9400 C   0  0  0  0  0  2  0  0  0  0  0  0
  190.6430  177.1550  141.5500 C   0  0  0  0  0  2  0  0  0  0  0  0
  189.2230  177.1920  143.6680 C   0  0  0  0  0  2  0  0  0  0  0  0
  186.0290  177.8100  139.6690 C   0  0  0  0  0  2  0  0  0  0  0  0
  185.7110  178.0750  141.1680 C   0  0  2  0  0  3  0  0  0  0  0  0
  190.8060  177.6470  140.0880 C   0  0  1  0  0  3  0  0  0  0  0  0
  187.7840  176.7030  143.9100 C   0  0  0  0  0  2  0  0  0  0  0  0
  182.7560  178.3920  142.9520 C   0  0  1  0  0  3  0  0  0  0  0  0
  182.1890  178.6920  144.1940 O   0  0  0  0  0  1  0  0  0  0  0  0
  182.4050  178.3700  140.5710 C   0  0  0  0  0  2  0  0  0  0  0  0
  184.6760  179.1860  141.3860 C   0  0  1  0  0  3  0  0  0  0  0  0
  181.7940  178.6700  141.8740 N   0  0  0  0  0  0  0  0  0  0  0  0
  183.6130  179.2710  140.2820 C   0  0  0  0  0  2  0  0  0  0  0  0
  184.0620  179.1260  142.7550 C   0  0  0  0  0  0  0  0  0  0  0  0
  184.6620  179.5980  143.7080 O   0  0  0  0  0  0  0  0  0  0  0  0
  180.0870  180.0140  141.6240 C   0  0  0  0  0  1  0  0  0  0  0  0
  181.4560  179.9870  141.9030 O   0  0  0  0  0  0  0  0  0  0  0  0
  186.7230  175.0080  136.4720 N   0  0  0  0  0  0  0  0  0  0  0  0
  186.0940  177.0700  136.2330 C   0  0  0  0  0  3  0  0  0  0  0  0
  187.1520  177.0550  137.1200 C   0  0  0  0  0  0  0  0  0  0  0  0
  185.8870  175.8190  135.8910 O   0  0  0  0  0  0  0  0  0  0  0  0
  187.5410  175.7420  137.2500 C   0  0  0  0  0  3  0  0  0  0  0  0
  191.8460  176.8070  139.4160 C   0  0  0  0  0  3  0  0  0  0  0  0
  193.1410  177.0790  139.5540 C   0  0  0  0  0  2  0  0  0  0  0  0
  1  3  1  1  0  0  0
  2  4  1  0  0  0  0
  3 15  1  0  0  0  0
  4  1  1  0  0  0  0
  4  8  1  0  0  0  0
  5 14  1  0  0  0  0
  5  2  1  0  0  0  0
  6 12  1  0  0  0  0
  6  2  1  0  0  0  0
  7  9  1  0  0  0  0
  7  6  1  0  0  0  0
  8 11  1  0  0  0  0
  9  5  1  0  0  0  0
 10  8  1  0  0  0  0
 11 15  1  0  0  0  0
 12 13  1  0  0  0  0
 13 19  1  0  0  0  0
 13  1  1  0  0  0  0
 14 10  1  0  0  0  0
 16 17  1  0  0  0  0
 18 20  1  0  0  0  0
 19 22  1  0  0  0  0
 20 25  1  0  0  0  0
 20 16  1  0  0  0  0
 21 18  1  0  0  0  0
 21 19  1  0  0  0  0
 22 16  1  0  0  0  0
 22 23  2  0  0  0  0
 24 25  1  0  0  0  0
 26 30  2  0  0  0  0
 27 28  2  0  0  0  0
 28 30  1  0  0  0  0
 28  7  1  0  0  0  0
 29 27  1  0  0  0  0
 29 26  1  0  0  0  0
 31 32  2  0  0  0  0
 31 14  1  0  0  0  0
M  END
>  <MODEL>
8

>  <REMARK>
 VINA RESULT:      -6.5      2.909      7.205
  Name = 
  4 active torsions:
  status: ('A' for Active; 'I' for Inactive)
    1  A    between atoms: C_12  and  C_28
    2  A    between atoms: C_13  and  C_29
    3  A    between atoms: C_16  and  C_27
    4  A    between atoms: N_19  and  O_26
                            x       y       z     vdW  Elec       q    Type
                         _______ _______ _______ _____ _____    ______ ____

>  <TORSDO>
F 4

$$$$
=
 OpenBabel10272402123D

 32 37  0  0  1  0  0  0  0  0999 V2000
  186.0150  178.4800  142.5980 C   0  0  1  0  0  3  0  0  0  0  0  0
  188.2140  178.5400  141.4550 C   0  0  1  0  0  3  0  0  0  0  0  0
  185.2340  178.0350  143.8460 C   0  0  0  0  0  2  0  0  0  0  0  0
  187.4290  177.9200  142.5770 C   0  0  1  0  0  3  0  0  0  0  0  0
  189.4350  177.6940  141.2860 C   0  0  1  0  0  3  0  0  0  0  0  0
  187.5190  178.5740  140.1040 C   0  0  1  0  0  3  0  0  0  0  0  0
  188.6120  178.1630  139.0900 C   0  0  1  0  0  3  0  0  0  0  0  0
  188.1920  178.1770  143.8770 C   0  0  2  0  0  3  0  0  0  0  0  0
  189.9140  178.0390  139.8950 C   0  0  0  0  0  2  0  0  0  0  0  0
  189.6060  177.5580  143.7880 C   0  0  0  0  0  2  0  0  0  0  0  0
  187.4240  177.6600  145.1030 C   0  0  0  0  0  2  0  0  0  0  0  0
  186.2030  177.7650  140.0960 C   0  0  0  0  0  2  0  0  0  0  0  0
  185.2740  178.1200  141.2910 C   0  0  2  0  0  3  0  0  0  0  0  0
  190.3570  177.9490  142.4890 C   0  0  1  0  0  3  0  0  0  0  0  0
  186.0320  177.0970  144.7660 C   0  0  0  0  0  2  0  0  0  0  0  0
  181.8960  178.0720  140.5170 C   0  0  1  0  0  3  0  0  0  0  0  0
  180.5970  178.0630  141.0350 O   0  0  0  0  0  1  0  0  0  0  0  0
  183.2710  178.6740  138.6360 C   0  0  0  0  0  2  0  0  0  0  0  0
  184.2130  179.1740  140.9480 C   0  0  1  0  0  3  0  0  0  0  0  0
  181.9000  178.6510  139.1640 N   0  0  0  0  0  0  0  0  0  0  0  0
  184.1920  179.5760  139.4670 C   0  0  0  0  0  2  0  0  0  0  0  0
  182.8500  178.7850  141.4460 C   0  0  0  0  0  0  0  0  0  0  0  0
  182.5560  178.9760  142.6160 O   0  0  0  0  0  0  0  0  0  0  0  0
  180.6170  180.0630  138.0960 C   0  0  0  0  0  1  0  0  0  0  0  0
  181.4340  179.9270  139.2210 O   0  0  0  0  0  0  0  0  0  0  0  0
  188.5660  174.9390  137.3860 N   0  0  0  0  0  0  0  0  0  0  0  0
  187.1700  176.5790  137.6400 C   0  0  0  0  0  3  0  0  0  0  0  0
  188.3190  176.8970  138.3360 C   0  0  0  0  0  0  0  0  0  0  0  0
  187.3820  175.4000  137.1030 O   0  0  0  0  0  0  0  0  0  0  0  0
  189.1930  175.8500  138.1550 C   0  0  0  0  0  3  0  0  0  0  0  0
  191.6080  177.1320  142.3970 C   0  0  0  0  0  3  0  0  0  0  0  0
  191.9270  176.2570  143.3480 C   0  0  0  0  0  2  0  0  0  0  0  0
  1  3  1  1  0  0  0
  2  4  1  0  0  0  0
  3 15  1  0  0  0  0
  4  1  1  0  0  0  0
  4  8  1  0  0  0  0
  5  2  1  0  0  0  0
  5 14  1  0  0  0  0
  6  2  1  0  0  0  0
  7  9  1  0  0  0  0
  7  6  1  0  0  0  0
  8 11  1  0  0  0  0
  9  5  1  0  0  0  0
 10  8  1  0  0  0  0
 12  6  1  0  0  0  0
 12 13  1  0  0  0  0
 13  1  1  0  0  0  0
 14 10  1  0  0  0  0
 15 11  1  0  0  0  0
 16 17  1  0  0  0  0
 16 22  1  0  0  0  0
 18 20  1  0  0  0  0
 18 21  1  0  0  0  0
 19 13  1  0  0  0  0
 19 22  1  0  0  0  0
 20 25  1  0  0  0  0
 20 16  1  0  0  0  0
 21 19  1  0  0  0  0
 22 23  2  0  0  0  0
 24 25  1  0  0  0  0
 26 30  2  0  0  0  0
 27 28  2  0  0  0  0
 28  7  1  0  0  0  0
 29 26  1  0  0  0  0
 29 27  1  0  0  0  0
 30 28  1  0  0  0  0
 31 14  1  0  0  0  0
 31 32  2  0  0  0  0
M  END
>  <MODEL>
9

>  <REMARK>
 VINA RESULT:      -6.5      2.719      6.624
  Name = 
  4 active torsions:
  status: ('A' for Active; 'I' for Inactive)
    1  A    between atoms: C_12  and  C_28
    2  A    between atoms: C_13  and  C_29
    3  A    between atoms: C_16  and  C_27
    4  A    between atoms: N_19  and  O_26
                            x       y       z     vdW  Elec       q    Type
                         _______ _______ _______ _____ _____    ______ ____

>  <TORSDO>
F 4

$$$$
