=
 OpenBabel10262423583D

 34 38  0  0  1  0  0  0  0  0999 V2000
  182.9050  178.8740  143.2920 C   0  0  0  0  0  0  0  0  0  0  0  0
  183.2900  178.1860  140.9370 C   0  0  0  0  0  3  0  0  0  0  0  0
  185.2250  178.5480  142.4580 N   0  0  0  0  0  0  0  0  0  0  0  0
  187.7040  178.4000  141.9360 C   0  0  2  0  0  3  0  0  0  0  0  0
  181.0220  178.5130  141.8140 C   0  0  0  0  0  3  0  0  0  0  0  0
  181.4910  177.4360  139.6640 F   0  0  0  0  0  0  0  0  0  0  0  0
  186.0320  178.8940  140.2760 O   0  0  0  0  0  0  0  0  0  0  0  0
  183.8490  178.9470  142.1130 C   0  0  2  0  0  3  0  0  0  0  0  0
  181.4600  178.8860  143.0210 C   0  0  0  0  0  3  0  0  0  0  0  0
  185.6320  178.4470  143.8370 C   0  0  0  0  0  0  0  0  0  0  0  0
  183.3410  178.7770  144.5100 N   0  0  0  0  0  0  0  0  0  0  0  0
  181.9680  178.0570  140.7690 C   0  0  0  0  0  0  0  0  0  0  0  0
  187.7310  177.5750  143.0800 O   0  0  0  0  0  0  0  0  0  0  0  0
  187.1140  178.2790  144.1350 C   0  0  2  0  0  3  0  0  0  0  0  0
  186.2790  178.5940  141.4760 C   0  0  0  0  0  0  0  0  0  0  0  0
  184.7310  178.6130  144.8110 C   0  0  0  0  0  3  0  0  0  0  0  0
  189.2110  177.0030  147.1100 C   0  0  0  0  0  0  0  0  0  0  0  0
  188.3370  177.3770  148.2710 C   0  0  0  0  0  2  0  0  0  0  0  0
  187.4410  177.5790  145.4600 C   0  0  1  0  0  3  0  0  0  0  0  0
  187.3370  178.4610  147.8720 C   0  0  0  0  0  2  0  0  0  0  0  0
  188.9470  177.5730  145.7490 C   0  0  0  0  0  2  0  0  0  0  0  0
  186.5470  178.0520  146.6270 C   0  0  0  0  0  2  0  0  0  0  0  0
  190.1540  176.2480  147.2790 O   0  0  0  0  0  0  0  0  0  0  0  0
  188.5510  177.7710  140.8410 C   0  0  0  0  0  2  0  0  0  0  0  0
  189.6160  176.8740  141.4510 C   0  0  0  0  0  2  0  0  0  0  0  0
  190.7980  177.0980  139.3840 C   0  0  0  0  0  3  0  0  0  0  0  0
  190.5050  176.3730  140.4150 N   0  0  0  0  0  0  0  0  0  0  0  0
  193.6870  177.0940  139.4170 O   0  0  0  0  0  0  0  0  0  0  0  0
  191.6920  176.6250  138.3130 C   0  0  1  0  0  3  0  0  0  0  0  0
  193.1020  176.6510  138.3930 C   0  0  0  0  0  0  0  0  0  0  0  0
  193.2760  175.7010  136.2190 C   0  0  0  0  0  3  0  0  0  0  0  0
  191.8870  175.6580  136.0990 C   0  0  0  0  0  3  0  0  0  0  0  0
  191.0980  176.1220  137.1520 C   0  0  0  0  0  3  0  0  0  0  0  0
  193.8470  176.1910  137.3520 N   0  0  0  0  0  0  0  0  0  0  0  0
  1 11  2  0  0  0  0
  3 10  1  0  0  0  0
  4 24  1  6  0  0  0
  4 13  1  0  0  0  0
  5  9  2  0  0  0  0
  6 12  1  0  0  0  0
  7 15  2  0  0  0  0
  8  2  1  6  0  0  0
  8  3  1  0  0  0  0
  8  1  1  0  0  0  0
  9  1  1  0  0  0  0
 10 14  1  0  0  0  0
 10 16  2  0  0  0  0
 11 16  1  0  0  0  0
 12  2  2  0  0  0  0
 12  5  1  0  0  0  0
 14 13  1  6  0  0  0
 14 19  1  0  0  0  0
 15  4  1  0  0  0  0
 15  3  1  0  0  0  0
 17 23  2  0  0  0  0
 17 18  1  0  0  0  0
 19 21  1  1  0  0  0
 19 22  1  0  0  0  0
 20 18  1  0  0  0  0
 21 17  1  0  0  0  0
 22 20  1  0  0  0  0
 24 25  1  0  0  0  0
 26 27  2  0  0  0  0
 27 25  1  0  0  0  0
 29 30  1  0  0  0  0
 29 26  1  1  0  0  0
 30 28  2  0  0  0  0
 31 34  2  0  0  0  0
 32 31  1  0  0  0  0
 32 33  2  0  0  0  0
 33 29  1  0  0  0  0
 34 30  1  0  0  0  0
M  END
>  <MODEL>
1

>  <REMARK>
 VINA RESULT:     -10.3      0.000      0.000
  Name = 
  5 active torsions:
  status: ('A' for Active; 'I' for Inactive)
    1  A    between atoms: C_3  and  C_13
    2  A    between atoms: C_5  and  C_18
    3  A    between atoms: C_12  and  C_28
    4  A    between atoms: N_17  and  C_29
    5  A    between atoms: C_18  and  C_29
                            x       y       z     vdW  Elec       q    Type
                         _______ _______ _______ _____ _____    ______ ____

>  <TORSDO>
F 5

$$$$
=
 OpenBabel10262423583D

 34 38  0  0  1  0  0  0  0  0999 V2000
  188.9990  176.7200  136.9310 C   0  0  0  0  0  0  0  0  0  0  0  0
  187.1140  178.2740  136.4790 C   0  0  0  0  0  3  0  0  0  0  0  0
  187.6610  177.6310  138.8190 N   0  0  0  0  0  0  0  0  0  0  0  0
  186.4730  178.2850  140.9640 C   0  0  2  0  0  3  0  0  0  0  0  0
  188.4710  177.3520  134.6550 C   0  0  0  0  0  3  0  0  0  0  0  0
  186.8890  179.1980  134.3540 F   0  0  0  0  0  0  0  0  0  0  0  0
  185.3860  178.2250  138.8170 O   0  0  0  0  0  0  0  0  0  0  0  0
  187.6500  177.2120  137.4070 C   0  0  0  0  0  0  0  0  0  0  0  0
  189.2250  176.6200  135.4820 C   0  0  0  0  0  2  0  0  0  0  0  0
  188.7590  177.2690  139.6810 C   0  0  0  0  0  0  0  0  0  0  0  0
  189.9470  176.4170  137.7630 N   0  0  0  0  0  0  0  0  0  0  0  0
  187.4450  178.2810  135.1820 C   0  0  0  0  0  0  0  0  0  0  0  0
  187.7730  178.6250  141.3920 O   0  0  0  0  0  0  0  0  0  0  0  0
  188.6050  177.5070  141.1750 C   0  0  2  0  0  3  0  0  0  0  0  0
  186.4580  178.0900  139.4660 C   0  0  0  0  0  0  0  0  0  0  0  0
  189.8230  176.6380  139.1730 C   0  0  0  0  0  3  0  0  0  0  0  0
  191.0390  178.8310  143.8580 C   0  0  0  0  0  0  0  0  0  0  0  0
  191.7450  177.5700  144.2660 C   0  0  0  0  0  2  0  0  0  0  0  0
  189.9170  177.7040  141.9460 C   0  0  1  0  0  3  0  0  0  0  0  0
  190.9290  176.3390  143.8740 C   0  0  0  0  0  2  0  0  0  0  0  0
  189.7820  178.7650  143.0440 C   0  0  0  0  0  2  0  0  0  0  0  0
  190.5600  176.3720  142.3890 C   0  0  0  0  0  2  0  0  0  0  0  0
  191.4800  179.9120  144.2080 O   0  0  0  0  0  0  0  0  0  0  0  0
  185.5020  179.3790  141.3810 C   0  0  0  0  0  2  0  0  0  0  0  0
  184.7150  178.9430  142.6070 C   0  0  0  0  0  2  0  0  0  0  0  0
  185.7800  177.9190  144.4870 C   0  0  0  0  0  3  0  0  0  0  0  0
  185.5600  178.9870  143.7890 N   0  0  0  0  0  0  0  0  0  0  0  0
  185.0960  178.9960  147.0800 O   0  0  0  0  0  0  0  0  0  0  0  0
  186.6270  177.9240  145.6930 C   0  0  1  0  0  3  0  0  0  0  0  0
  186.2300  178.4690  146.9340 C   0  0  0  0  0  0  0  0  0  0  0  0
  188.3190  177.8730  147.9020 C   0  0  0  0  0  3  0  0  0  0  0  0
  188.7500  177.3230  146.6940 C   0  0  0  0  0  3  0  0  0  0  0  0
  187.8980  177.3520  145.5910 C   0  0  0  0  0  3  0  0  0  0  0  0
  187.0810  178.4280  147.9940 N   0  0  0  0  0  0  0  0  0  0  0  0
  1  8  1  0  0  0  0
  1 11  2  0  0  0  0
  2  8  2  0  0  0  0
  3 15  1  0  0  0  0
  3 10  1  0  0  0  0
  4 24  1  6  0  0  0
  4 13  1  0  0  0  0
  5 12  2  0  0  0  0
  5  9  1  0  0  0  0
  6 12  1  0  0  0  0
  7 15  2  0  0  0  0
  8  3  1  0  0  0  0
  9  1  1  0  0  0  0
 11 16  1  0  0  0  0
 12  2  1  0  0  0  0
 14 10  1  6  0  0  0
 14 13  1  0  0  0  0
 14 19  1  0  0  0  0
 15  4  1  0  0  0  0
 16 10  2  0  0  0  0
 17 23  2  0  0  0  0
 17 18  1  0  0  0  0
 19 22  1  1  0  0  0
 19 21  1  0  0  0  0
 20 18  1  0  0  0  0
 21 17  1  0  0  0  0
 22 20  1  0  0  0  0
 24 25  1  0  0  0  0
 25 27  1  0  0  0  0
 27 26  2  0  0  0  0
 29 26  1  1  0  0  0
 29 30  1  0  0  0  0
 30 28  2  0  0  0  0
 30 34  1  0  0  0  0
 31 34  2  0  0  0  0
 32 31  1  0  0  0  0
 33 29  1  0  0  0  0
 33 32  2  0  0  0  0
M  END
>  <MODEL>
2

>  <REMARK>
 VINA RESULT:      -9.9      2.931      7.518
  Name = 
  5 active torsions:
  status: ('A' for Active; 'I' for Inactive)
    1  A    between atoms: C_3  and  C_13
    2  A    between atoms: C_5  and  C_18
    3  A    between atoms: C_12  and  C_28
    4  A    between atoms: N_17  and  C_29
    5  A    between atoms: C_18  and  C_29
                            x       y       z     vdW  Elec       q    Type
                         _______ _______ _______ _____ _____    ______ ____

>  <TORSDO>
F 5

$$$$
=
 OpenBabel10262423583D

 34 38  0  0  1  0  0  0  0  0999 V2000
  184.2130  178.9300  144.0820 C   0  0  0  0  0  0  0  0  0  0  0  0
  183.8960  178.3660  141.6830 C   0  0  0  0  0  3  0  0  0  0  0  0
  186.1890  178.4720  142.6430 N   0  0  0  0  0  0  0  0  0  0  0  0
  188.4160  178.1570  141.4690 C   0  0  2  0  0  3  0  0  0  0  0  0
  181.9820  178.8190  143.1500 C   0  0  0  0  0  3  0  0  0  0  0  0
  181.7620  177.8480  140.9110 F   0  0  0  0  0  0  0  0  0  0  0  0
  186.4210  178.8910  140.3400 O   0  0  0  0  0  0  0  0  0  0  0  0
  184.8150  179.0020  142.6960 C   0  0  2  0  0  3  0  0  0  0  0  0
  182.7550  179.0770  144.2090 C   0  0  0  0  0  3  0  0  0  0  0  0
  186.9340  178.2490  143.8570 C   0  0  0  0  0  0  0  0  0  0  0  0
  184.9430  178.7200  145.1330 N   0  0  0  0  0  0  0  0  0  0  0  0
  182.5700  178.3560  141.8720 C   0  0  0  0  0  0  0  0  0  0  0  0
  188.6660  177.2610  142.5290 O   0  0  0  0  0  0  0  0  0  0  0  0
  188.4190  177.9430  143.7390 C   0  0  2  0  0  3  0  0  0  0  0  0
  186.9450  178.4950  141.4160 C   0  0  0  0  0  0  0  0  0  0  0  0
  186.3420  178.4250  145.0430 C   0  0  0  0  0  3  0  0  0  0  0  0
  191.0770  176.5460  146.1590 C   0  0  0  0  0  0  0  0  0  0  0  0
  190.3870  176.7090  147.4830 C   0  0  0  0  0  2  0  0  0  0  0  0
  189.0160  177.1350  144.8980 C   0  0  1  0  0  3  0  0  0  0  0  0
  189.2590  177.7340  147.3860 C   0  0  0  0  0  2  0  0  0  0  0  0
  190.5450  177.2350  144.9390 C   0  0  0  0  0  2  0  0  0  0  0  0
  188.3010  177.3930  146.2420 C   0  0  0  0  0  2  0  0  0  0  0  0
  192.0860  175.8670  146.0810 O   0  0  0  0  0  0  0  0  0  0  0  0
  188.8800  177.5330  140.1620 C   0  0  0  0  0  2  0  0  0  0  0  0
  190.3940  177.3890  140.1570 C   0  0  0  0  0  2  0  0  0  0  0  0
  191.7590  176.2840  138.5350 C   0  0  0  0  0  3  0  0  0  0  0  0
  190.7860  176.2210  139.3860 N   0  0  0  0  0  0  0  0  0  0  0  0
  194.4640  175.3420  138.1520 O   0  0  0  0  0  0  0  0  0  0  0  0
  192.1840  175.1230  137.7330 C   0  0  1  0  0  3  0  0  0  0  0  0
  193.5290  174.7150  137.5870 C   0  0  0  0  0  0  0  0  0  0  0  0
  192.8640  172.9090  136.1890 C   0  0  0  0  0  3  0  0  0  0  0  0
  191.5240  173.2780  136.3080 C   0  0  0  0  0  3  0  0  0  0  0  0
  191.1890  174.3880  137.0830 C   0  0  0  0  0  3  0  0  0  0  0  0
  193.8270  173.6280  136.8250 N   0  0  0  0  0  0  0  0  0  0  0  0
  1  9  1  0  0  0  0
  1 11  2  0  0  0  0
  2 12  2  0  0  0  0
  3  8  1  0  0  0  0
  3 10  1  0  0  0  0
  4 24  1  6  0  0  0
  4 13  1  0  0  0  0
  5  9  2  0  0  0  0
  6 12  1  0  0  0  0
  7 15  2  0  0  0  0
  8  2  1  6  0  0  0
  8  1  1  0  0  0  0
 10 16  2  0  0  0  0
 12  5  1  0  0  0  0
 14 13  1  6  0  0  0
 14 10  1  0  0  0  0
 14 19  1  0  0  0  0
 15  4  1  0  0  0  0
 15  3  1  0  0  0  0
 16 11  1  0  0  0  0
 17 18  1  0  0  0  0
 19 21  1  1  0  0  0
 19 22  1  0  0  0  0
 20 18  1  0  0  0  0
 21 17  1  0  0  0  0
 22 20  1  0  0  0  0
 23 17  2  0  0  0  0
 25 24  1  0  0  0  0
 26 27  2  0  0  0  0
 27 25  1  0  0  0  0
 29 26  1  1  0  0  0
 30 29  1  0  0  0  0
 30 28  2  0  0  0  0
 31 32  1  0  0  0  0
 31 34  2  0  0  0  0
 32 33  2  0  0  0  0
 33 29  1  0  0  0  0
 34 30  1  0  0  0  0
M  END
>  <MODEL>
3

>  <REMARK>
 VINA RESULT:      -9.8      1.448      1.711
  Name = 
  5 active torsions:
  status: ('A' for Active; 'I' for Inactive)
    1  A    between atoms: C_3  and  C_13
    2  A    between atoms: C_5  and  C_18
    3  A    between atoms: C_12  and  C_28
    4  A    between atoms: N_17  and  C_29
    5  A    between atoms: C_18  and  C_29
                            x       y       z     vdW  Elec       q    Type
                         _______ _______ _______ _____ _____    ______ ____

>  <TORSDO>
F 5

$$$$
=
 OpenBabel10262423583D

 34 38  0  0  1  0  0  0  0  0999 V2000
  186.6360  178.4000  137.5110 C   0  0  0  0  0  0  0  0  0  0  0  0
  188.6840  177.0050  137.3290 C   0  0  0  0  0  3  0  0  0  0  0  0
  188.0160  177.9500  139.5310 N   0  0  0  0  0  0  0  0  0  0  0  0
  189.2140  177.7790  141.7620 C   0  0  2  0  0  3  0  0  0  0  0  0
  187.2820  177.4730  135.3710 C   0  0  0  0  0  3  0  0  0  0  0  0
  189.0560  175.7830  135.3830 F   0  0  0  0  0  0  0  0  0  0  0  0
  190.3410  177.6110  139.6400 O   0  0  0  0  0  0  0  0  0  0  0  0
  188.0170  178.1380  138.0700 C   0  0  0  0  0  0  0  0  0  0  0  0
  186.4360  178.2430  136.0640 C   0  0  0  0  0  2  0  0  0  0  0  0
  186.8650  178.3260  140.3150 C   0  0  0  0  0  0  0  0  0  0  0  0
  185.6420  178.7280  138.2770 N   0  0  0  0  0  0  0  0  0  0  0  0
  188.3860  176.7550  136.0480 C   0  0  0  0  0  0  0  0  0  0  0  0
  187.9470  177.3740  142.2290 O   0  0  0  0  0  0  0  0  0  0  0  0
  187.0070  178.3470  141.8290 C   0  0  2  0  0  3  0  0  0  0  0  0
  189.2450  177.7320  140.2520 C   0  0  0  0  0  0  0  0  0  0  0  0
  185.7540  178.7500  139.7050 C   0  0  0  0  0  3  0  0  0  0  0  0
  184.1860  179.0240  144.3700 C   0  0  0  0  0  0  0  0  0  0  0  0
  182.9660  178.7550  143.5370 C   0  0  0  0  0  2  0  0  0  0  0  0
  185.7060  178.1360  142.6130 C   0  0  1  0  0  3  0  0  0  0  0  0
  183.2970  178.8320  142.0470 C   0  0  0  0  0  2  0  0  0  0  0  0
  185.5270  179.1820  143.7190 C   0  0  0  0  0  2  0  0  0  0  0  0
  184.4800  177.9260  141.6980 C   0  0  0  0  0  2  0  0  0  0  0  0
  184.0810  179.1340  145.5800 O   0  0  0  0  0  0  0  0  0  0  0  0
  190.2830  176.8760  142.3570 C   0  0  0  0  0  2  0  0  0  0  0  0
  191.1690  177.6660  143.3070 C   0  0  0  0  0  2  0  0  0  0  0  0
  189.8180  177.1720  145.2160 C   0  0  0  0  0  3  0  0  0  0  0  0
  190.4160  178.0580  144.4870 N   0  0  0  0  0  0  0  0  0  0  0  0
  190.8030  177.3210  147.9290 O   0  0  0  0  0  0  0  0  0  0  0  0
  189.0440  177.5290  146.4180 C   0  0  2  0  0  3  0  0  0  0  0  0
  189.5890  177.5830  147.7200 C   0  0  0  0  0  0  0  0  0  0  0  0
  187.4780  178.2170  148.6140 C   0  0  0  0  0  3  0  0  0  0  0  0
  186.9000  178.1750  147.3450 C   0  0  0  0  0  3  0  0  0  0  0  0
  187.6900  177.8300  146.2480 C   0  0  0  0  0  3  0  0  0  0  0  0
  188.7960  177.9230  148.7720 N   0  0  0  0  0  0  0  0  0  0  0  0
  1  8  1  0  0  0  0
  1 11  2  0  0  0  0
  2  8  2  0  0  0  0
  3 15  1  0  0  0  0
  3 10  1  0  0  0  0
  4 13  1  0  0  0  0
  4 24  1  1  0  0  0
  5 12  2  0  0  0  0
  5  9  1  0  0  0  0
  6 12  1  0  0  0  0
  7 15  2  0  0  0  0
  8  3  1  0  0  0  0
  9  1  1  0  0  0  0
 11 16  1  0  0  0  0
 12  2  1  0  0  0  0
 14 10  1  6  0  0  0
 14 13  1  0  0  0  0
 14 19  1  0  0  0  0
 15  4  1  0  0  0  0
 16 10  2  0  0  0  0
 17 23  2  0  0  0  0
 18 17  1  0  0  0  0
 19 22  1  6  0  0  0
 19 21  1  0  0  0  0
 20 18  1  0  0  0  0
 21 17  1  0  0  0  0
 22 20  1  0  0  0  0
 24 25  1  0  0  0  0
 25 27  1  0  0  0  0
 27 26  2  0  0  0  0
 29 26  1  1  0  0  0
 29 30  1  0  0  0  0
 30 28  2  0  0  0  0
 30 34  1  0  0  0  0
 31 34  2  0  0  0  0
 32 31  1  0  0  0  0
 33 29  1  0  0  0  0
 33 32  2  0  0  0  0
M  END
>  <MODEL>
4

>  <REMARK>
 VINA RESULT:      -9.6      3.069      7.159
  Name = 
  5 active torsions:
  status: ('A' for Active; 'I' for Inactive)
    1  A    between atoms: C_3  and  C_13
    2  A    between atoms: C_5  and  C_18
    3  A    between atoms: C_12  and  C_28
    4  A    between atoms: N_17  and  C_29
    5  A    between atoms: C_18  and  C_29
                            x       y       z     vdW  Elec       q    Type
                         _______ _______ _______ _____ _____    ______ ____

>  <TORSDO>
F 5

$$$$
=
 OpenBabel10262423583D

 34 38  0  0  1  0  0  0  0  0999 V2000
  181.6700  178.7160  142.2770 C   0  0  0  0  0  0  0  0  0  0  0  0
  182.3410  177.9750  140.0020 C   0  0  0  0  0  3  0  0  0  0  0  0
  184.0770  178.6470  141.6530 N   0  0  0  0  0  0  0  0  0  0  0  0
  186.5910  178.7870  141.3430 C   0  0  2  0  0  3  0  0  0  0  0  0
  179.9820  178.0550  140.6740 C   0  0  0  0  0  3  0  0  0  0  0  0
  180.7640  176.9480  138.6320 F   0  0  0  0  0  0  0  0  0  0  0  0
  185.0230  178.9910  139.5270 O   0  0  0  0  0  0  0  0  0  0  0  0
  182.6990  178.8530  141.1760 C   0  0  2  0  0  3  0  0  0  0  0  0
  180.2640  178.5350  141.8890 C   0  0  0  0  0  3  0  0  0  0  0  0
  184.3720  178.6600  143.0640 C   0  0  0  0  0  0  0  0  0  0  0  0
  182.0070  178.7300  143.5290 N   0  0  0  0  0  0  0  0  0  0  0  0
  181.0640  177.6740  139.7360 C   0  0  0  0  0  0  0  0  0  0  0  0
  186.6190  178.0260  142.5290 O   0  0  0  0  0  0  0  0  0  0  0  0
  185.8310  178.6930  143.4900 C   0  0  2  0  0  3  0  0  0  0  0  0
  185.1990  178.7790  140.7580 C   0  0  0  0  0  0  0  0  0  0  0  0
  183.3750  178.7560  143.9510 C   0  0  0  0  0  3  0  0  0  0  0  0
  187.8740  177.5090  146.5390 C   0  0  0  0  0  0  0  0  0  0  0  0
  187.0800  178.0920  147.6720 C   0  0  0  0  0  2  0  0  0  0  0  0
  186.1240  178.1020  144.8740 C   0  0  1  0  0  3  0  0  0  0  0  0
  186.1880  179.2310  147.1820 C   0  0  0  0  0  2  0  0  0  0  0  0
  187.6280  177.9620  145.1310 C   0  0  0  0  0  2  0  0  0  0  0  0
  185.3210  178.7850  146.0030 C   0  0  0  0  0  2  0  0  0  0  0  0
  188.7360  176.6780  146.7680 O   0  0  0  0  0  0  0  0  0  0  0  0
  187.6010  178.2200  140.3560 C   0  0  0  0  0  2  0  0  0  0  0  0
  188.9930  178.7430  140.6710 C   0  0  0  0  0  2  0  0  0  0  0  0
  190.6000  177.7200  142.1150 C   0  0  0  0  0  3  0  0  0  0  0  0
  189.4320  178.2570  141.9680 N   0  0  0  0  0  0  0  0  0  0  0  0
  191.2390  179.2870  144.4570 O   0  0  0  0  0  0  0  0  0  0  0  0
  191.0800  177.2130  143.4130 C   0  0  2  0  0  3  0  0  0  0  0  0
  191.3750  178.0370  144.5220 C   0  0  0  0  0  0  0  0  0  0  0  0
  191.9810  176.1360  145.8160 C   0  0  0  0  0  3  0  0  0  0  0  0
  191.7010  175.2870  144.7450 C   0  0  0  0  0  3  0  0  0  0  0  0
  191.2500  175.8320  143.5430 C   0  0  0  0  0  3  0  0  0  0  0  0
  191.8130  177.4780  145.6820 N   0  0  0  0  0  0  0  0  0  0  0  0
  1 11  2  0  0  0  0
  3 10  1  0  0  0  0
  4 24  1  6  0  0  0
  4 13  1  0  0  0  0
  5  9  2  0  0  0  0
  6 12  1  0  0  0  0
  7 15  2  0  0  0  0
  8  2  1  6  0  0  0
  8  3  1  0  0  0  0
  8  1  1  0  0  0  0
  9  1  1  0  0  0  0
 10 14  1  0  0  0  0
 10 16  2  0  0  0  0
 11 16  1  0  0  0  0
 12  2  2  0  0  0  0
 12  5  1  0  0  0  0
 14 13  1  6  0  0  0
 14 19  1  0  0  0  0
 15  4  1  0  0  0  0
 15  3  1  0  0  0  0
 17 23  2  0  0  0  0
 17 18  1  0  0  0  0
 19 21  1  1  0  0  0
 19 22  1  0  0  0  0
 20 18  1  0  0  0  0
 21 17  1  0  0  0  0
 22 20  1  0  0  0  0
 24 25  1  0  0  0  0
 25 27  1  0  0  0  0
 27 26  2  0  0  0  0
 28 30  2  0  0  0  0
 29 26  1  6  0  0  0
 29 33  1  0  0  0  0
 29 30  1  0  0  0  0
 30 34  1  0  0  0  0
 32 31  1  0  0  0  0
 33 32  2  0  0  0  0
 34 31  2  0  0  0  0
M  END
>  <MODEL>
5

>  <REMARK>
 VINA RESULT:      -9.6      2.853      3.688
  Name = 
  5 active torsions:
  status: ('A' for Active; 'I' for Inactive)
    1  A    between atoms: C_3  and  C_13
    2  A    between atoms: C_5  and  C_18
    3  A    between atoms: C_12  and  C_28
    4  A    between atoms: N_17  and  C_29
    5  A    between atoms: C_18  and  C_29
                            x       y       z     vdW  Elec       q    Type
                         _______ _______ _______ _____ _____    ______ ____

>  <TORSDO>
F 5

$$$$
=
 OpenBabel10262423583D

 34 38  0  0  1  0  0  0  0  0999 V2000
  190.1170  177.4460  143.9530 C   0  0  0  0  0  0  0  0  0  0  0  0
  187.6410  177.6040  143.8240 C   0  0  0  0  0  3  0  0  0  0  0  0
  189.0060  177.7540  141.7500 N   0  0  0  0  0  0  0  0  0  0  0  0
  188.2330  178.1530  139.3660 C   0  0  2  0  0  3  0  0  0  0  0  0
  188.7880  177.2910  145.9700 C   0  0  0  0  0  3  0  0  0  0  0  0
  186.3680  177.0320  145.6870 F   0  0  0  0  0  0  0  0  0  0  0  0
  186.9970  178.8890  141.2970 O   0  0  0  0  0  0  0  0  0  0  0  0
  188.9450  178.0290  143.1950 C   0  0  2  0  0  3  0  0  0  0  0  0
  190.0030  177.3250  145.4140 C   0  0  0  0  0  3  0  0  0  0  0  0
  190.2290  177.2840  141.1460 C   0  0  0  0  0  0  0  0  0  0  0  0
  191.1860  177.0350  143.3450 N   0  0  0  0  0  0  0  0  0  0  0  0
  187.5670  177.3370  145.1340 C   0  0  0  0  0  0  0  0  0  0  0  0
  189.0300  177.0240  139.0880 O   0  0  0  0  0  0  0  0  0  0  0  0
  190.3120  177.2560  139.6280 C   0  0  2  0  0  3  0  0  0  0  0  0
  187.9990  178.2660  140.8540 C   0  0  0  0  0  0  0  0  0  0  0  0
  191.2830  176.9970  141.9160 C   0  0  0  0  0  3  0  0  0  0  0  0
  191.7000  174.5460  137.2610 C   0  0  0  0  0  0  0  0  0  0  0  0
  193.0930  175.0500  137.0180 C   0  0  0  0  0  2  0  0  0  0  0  0
  191.2930  176.2310  139.0440 C   0  0  1  0  0  3  0  0  0  0  0  0
  193.1980  176.5380  137.3470 C   0  0  0  0  0  2  0  0  0  0  0  0
  190.6720  175.4370  137.8900 C   0  0  0  0  0  2  0  0  0  0  0  0
  192.6880  176.8280  138.7600 C   0  0  0  0  0  2  0  0  0  0  0  0
  191.3990  173.4120  136.9280 O   0  0  0  0  0  0  0  0  0  0  0  0
  186.9150  178.0380  138.6150 C   0  0  0  0  0  2  0  0  0  0  0  0
  187.1640  177.5770  137.1870 C   0  0  0  0  0  2  0  0  0  0  0  0
  186.9330  175.2090  136.9530 C   0  0  0  0  0  3  0  0  0  0  0  0
  186.3880  176.3810  136.9030 N   0  0  0  0  0  0  0  0  0  0  0  0
  187.3370  173.4100  134.7280 O   0  0  0  0  0  0  0  0  0  0  0  0
  186.1810  173.9740  136.6690 C   0  0  2  0  0  3  0  0  0  0  0  0
  186.4310  173.1370  135.5590 C   0  0  0  0  0  0  0  0  0  0  0  0
  184.6910  171.6630  136.2370 C   0  0  0  0  0  3  0  0  0  0  0  0
  184.4120  172.4630  137.3450 C   0  0  0  0  0  3  0  0  0  0  0  0
  185.1620  173.6190  137.5570 C   0  0  0  0  0  3  0  0  0  0  0  0
  185.6840  172.0140  135.3770 N   0  0  0  0  0  0  0  0  0  0  0  0
  1  9  1  0  0  0  0
  2 12  2  0  0  0  0
  3  8  1  0  0  0  0
  4 24  1  6  0  0  0
  4 15  1  0  0  0  0
  8  2  1  1  0  0  0
  8  1  1  0  0  0  0
  9  5  2  0  0  0  0
 10  3  1  0  0  0  0
 10 16  2  0  0  0  0
 11  1  2  0  0  0  0
 12  6  1  0  0  0  0
 12  5  1  0  0  0  0
 13  4  1  0  0  0  0
 14 13  1  6  0  0  0
 14 10  1  0  0  0  0
 15  7  2  0  0  0  0
 15  3  1  0  0  0  0
 16 11  1  0  0  0  0
 17 21  1  0  0  0  0
 18 17  1  0  0  0  0
 18 20  1  0  0  0  0
 19 21  1  6  0  0  0
 19 14  1  0  0  0  0
 20 22  1  0  0  0  0
 22 19  1  0  0  0  0
 23 17  2  0  0  0  0
 25 24  1  0  0  0  0
 27 26  2  0  0  0  0
 27 25  1  0  0  0  0
 28 30  2  0  0  0  0
 29 26  1  6  0  0  0
 29 33  1  0  0  0  0
 30 29  1  0  0  0  0
 31 32  1  0  0  0  0
 32 33  2  0  0  0  0
 34 30  1  0  0  0  0
 34 31  2  0  0  0  0
M  END
>  <MODEL>
6

>  <REMARK>
 VINA RESULT:      -9.5      4.016      7.515
  Name = 
  5 active torsions:
  status: ('A' for Active; 'I' for Inactive)
    1  A    between atoms: C_3  and  C_13
    2  A    between atoms: C_5  and  C_18
    3  A    between atoms: C_12  and  C_28
    4  A    between atoms: N_17  and  C_29
    5  A    between atoms: C_18  and  C_29
                            x       y       z     vdW  Elec       q    Type
                         _______ _______ _______ _____ _____    ______ ____

>  <TORSDO>
F 5

$$$$
=
 OpenBabel10262423583D

 34 38  0  0  1  0  0  0  0  0999 V2000
  189.7390  176.5470  141.1740 C   0  0  0  0  0  0  0  0  0  0  0  0
  188.4420  178.4670  140.2780 C   0  0  0  0  0  3  0  0  0  0  0  0
  187.8710  177.5130  142.5030 N   0  0  0  0  0  0  0  0  0  0  0  0
  185.9960  178.1740  144.0790 C   0  0  2  0  0  3  0  0  0  0  0  0
  190.3000  177.4820  139.0130 C   0  0  0  0  0  3  0  0  0  0  0  0
  189.2510  179.6160  138.4210 F   0  0  0  0  0  0  0  0  0  0  0  0
  185.9070  178.5260  141.7000 O   0  0  0  0  0  0  0  0  0  0  0  0
  188.3940  177.2390  141.1530 C   0  0  0  0  0  0  0  0  0  0  0  0
  190.5330  176.5440  139.9370 C   0  0  0  0  0  2  0  0  0  0  0  0
  188.4500  176.8670  143.6550 C   0  0  0  0  0  0  0  0  0  0  0  0
  190.2020  175.9920  142.2510 N   0  0  0  0  0  0  0  0  0  0  0  0
  189.2830  178.5350  139.2380 C   0  0  0  0  0  0  0  0  0  0  0  0
  187.0320  178.2170  145.0360 O   0  0  0  0  0  0  0  0  0  0  0  0
  187.7200  176.9870  144.9840 C   0  0  2  0  0  3  0  0  0  0  0  0
  186.5810  178.1290  142.6880 C   0  0  0  0  0  0  0  0  0  0  0  0
  189.5330  176.0970  143.5130 C   0  0  0  0  0  3  0  0  0  0  0  0
  190.8320  177.3020  147.2390 C   0  0  0  0  0  0  0  0  0  0  0  0
  190.2230  177.8010  148.5180 C   0  0  0  0  0  2  0  0  0  0  0  0
  188.6030  176.8570  146.2310 C   0  0  1  0  0  3  0  0  0  0  0  0
  188.8480  178.4140  148.2610 C   0  0  0  0  0  2  0  0  0  0  0  0
  190.0400  177.3170  145.9670 C   0  0  0  0  0  2  0  0  0  0  0  0
  187.9440  177.4430  147.4990 C   0  0  0  0  0  2  0  0  0  0  0  0
  191.9840  176.9000  147.2330 O   0  0  0  0  0  0  0  0  0  0  0  0
  185.0970  179.3880  144.2540 C   0  0  0  0  0  2  0  0  0  0  0  0
  183.7470  178.9650  144.8140 C   0  0  0  0  0  2  0  0  0  0  0  0
  182.8460  179.1630  142.6080 C   0  0  0  0  0  3  0  0  0  0  0  0
  182.8700  178.5330  143.7380 N   0  0  0  0  0  0  0  0  0  0  0  0
  180.3060  180.3380  141.8900 O   0  0  0  0  0  0  0  0  0  0  0  0
  181.9690  178.7570  141.4960 C   0  0  1  0  0  3  0  0  0  0  0  0
  180.7350  179.3770  141.1980 C   0  0  0  0  0  0  0  0  0  0  0  0
  180.3980  177.9000  139.3640 C   0  0  0  0  0  3  0  0  0  0  0  0
  181.6100  177.2610  139.6240 C   0  0  0  0  0  3  0  0  0  0  0  0
  182.3930  177.6950  140.6930 C   0  0  0  0  0  3  0  0  0  0  0  0
  179.9910  178.9340  140.1490 N   0  0  0  0  0  0  0  0  0  0  0  0
  1 11  2  0  0  0  0
  2  8  2  0  0  0  0
  3 15  1  0  0  0  0
  3 10  1  0  0  0  0
  4 24  1  6  0  0  0
  4 13  1  0  0  0  0
  5 12  2  0  0  0  0
  5  9  1  0  0  0  0
  6 12  1  0  0  0  0
  7 15  2  0  0  0  0
  8  1  1  0  0  0  0
  8  3  1  0  0  0  0
  9  1  1  0  0  0  0
 11 16  1  0  0  0  0
 12  2  1  0  0  0  0
 14 10  1  6  0  0  0
 14 13  1  0  0  0  0
 14 19  1  0  0  0  0
 15  4  1  0  0  0  0
 16 10  2  0  0  0  0
 17 18  1  0  0  0  0
 19 21  1  6  0  0  0
 19 22  1  0  0  0  0
 20 18  1  0  0  0  0
 21 17  1  0  0  0  0
 22 20  1  0  0  0  0
 23 17  2  0  0  0  0
 24 25  1  0  0  0  0
 26 27  2  0  0  0  0
 27 25  1  0  0  0  0
 29 26  1  6  0  0  0
 30 29  1  0  0  0  0
 30 28  2  0  0  0  0
 31 32  1  0  0  0  0
 31 34  2  0  0  0  0
 32 33  2  0  0  0  0
 33 29  1  0  0  0  0
 34 30  1  0  0  0  0
M  END
>  <MODEL>
7

>  <REMARK>
 VINA RESULT:      -9.5      2.789      7.420
  Name = 
  5 active torsions:
  status: ('A' for Active; 'I' for Inactive)
    1  A    between atoms: C_3  and  C_13
    2  A    between atoms: C_5  and  C_18
    3  A    between atoms: C_12  and  C_28
    4  A    between atoms: N_17  and  C_29
    5  A    between atoms: C_18  and  C_29
                            x       y       z     vdW  Elec       q    Type
                         _______ _______ _______ _____ _____    ______ ____

>  <TORSDO>
F 5

$$$$
=
 OpenBabel10262423583D

 34 38  0  0  1  0  0  0  0  0999 V2000
  187.8550  177.8780  137.5120 C   0  0  0  0  0  0  0  0  0  0  0  0
  189.2440  177.3460  139.5020 C   0  0  0  0  0  3  0  0  0  0  0  0
  187.0000  178.3810  139.7920 N   0  0  0  0  0  0  0  0  0  0  0  0
  185.8540  179.1080  141.9360 C   0  0  2  0  0  3  0  0  0  0  0  0
  190.0340  176.8640  137.2300 C   0  0  0  0  0  3  0  0  0  0  0  0
  191.1250  175.9990  139.2460 F   0  0  0  0  0  0  0  0  0  0  0  0
  188.2450  178.9670  141.7000 O   0  0  0  0  0  0  0  0  0  0  0  0
  188.1920  178.2670  138.9340 C   0  0  0  0  0  0  0  0  0  0  0  0
  188.9420  177.3790  136.6570 C   0  0  0  0  0  2  0  0  0  0  0  0
  185.6830  178.4430  139.2100 C   0  0  0  0  0  0  0  0  0  0  0  0
  186.6440  177.9520  137.0540 N   0  0  0  0  0  0  0  0  0  0  0  0
  190.1440  176.7590  138.7030 C   0  0  0  0  0  0  0  0  0  0  0  0
  184.7750  178.3580  141.4250 O   0  0  0  0  0  0  0  0  0  0  0  0
  184.5170  178.8100  140.1140 C   0  0  2  0  0  3  0  0  0  0  0  0
  187.1150  178.7840  141.1720 C   0  0  0  0  0  0  0  0  0  0  0  0
  185.5320  178.2910  137.8900 C   0  0  0  0  0  3  0  0  0  0  0  0
  181.5990  176.3380  139.6140 C   0  0  0  0  0  0  0  0  0  0  0  0
  180.4220  177.1870  139.9990 C   0  0  0  0  0  2  0  0  0  0  0  0
  183.1480  178.2830  139.6650 C   0  0  1  0  0  3  0  0  0  0  0  0
  180.8650  178.3800  140.8430 C   0  0  0  0  0  2  0  0  0  0  0  0
  182.9920  176.7830  139.9400 C   0  0  0  0  0  2  0  0  0  0  0  0
  181.9770  179.1680  140.1450 C   0  0  0  0  0  2  0  0  0  0  0  0
  181.4180  175.2720  139.0500 O   0  0  0  0  0  0  0  0  0  0  0  0
  186.0210  178.8070  143.4180 C   0  0  0  0  0  2  0  0  0  0  0  0
  186.0700  177.3040  143.6450 C   0  0  0  0  0  2  0  0  0  0  0  0
  187.8380  177.6130  145.2250 C   0  0  0  0  0  3  0  0  0  0  0  0
  187.3380  176.9270  144.2470 N   0  0  0  0  0  0  0  0  0  0  0  0
  188.4110  177.5630  148.0560 O   0  0  0  0  0  0  0  0  0  0  0  0
  189.1210  177.2650  145.8590 C   0  0  2  0  0  3  0  0  0  0  0  0
  189.3350  177.2610  147.2560 C   0  0  0  0  0  0  0  0  0  0  0  0
  191.5950  176.5880  146.9420 C   0  0  0  0  0  3  0  0  0  0  0  0
  191.4260  176.5800  145.5570 C   0  0  0  0  0  3  0  0  0  0  0  0
  190.1840  176.9200  145.0200 C   0  0  0  0  0  3  0  0  0  0  0  0
  190.5560  176.9250  147.7520 N   0  0  0  0  0  0  0  0  0  0  0  0
  1  8  1  0  0  0  0
  3 15  1  0  0  0  0
  4 24  1  1  0  0  0
  5 12  2  0  0  0  0
  8  2  2  0  0  0  0
  8  3  1  0  0  0  0
  9  5  1  0  0  0  0
  9  1  1  0  0  0  0
 10  3  1  0  0  0  0
 11  1  2  0  0  0  0
 11 16  1  0  0  0  0
 12  6  1  0  0  0  0
 12  2  1  0  0  0  0
 13  4  1  0  0  0  0
 14 10  1  6  0  0  0
 14 13  1  0  0  0  0
 15  7  2  0  0  0  0
 15  4  1  0  0  0  0
 16 10  2  0  0  0  0
 17 21  1  0  0  0  0
 17 18  1  0  0  0  0
 18 20  1  0  0  0  0
 19 21  1  1  0  0  0
 19 14  1  0  0  0  0
 19 22  1  0  0  0  0
 22 20  1  0  0  0  0
 23 17  2  0  0  0  0
 24 25  1  0  0  0  0
 25 27  1  0  0  0  0
 27 26  2  0  0  0  0
 29 26  1  6  0  0  0
 29 30  1  0  0  0  0
 30 34  1  0  0  0  0
 30 28  2  0  0  0  0
 31 34  2  0  0  0  0
 32 31  1  0  0  0  0
 33 32  2  0  0  0  0
 33 29  1  0  0  0  0
M  END
>  <MODEL>
8

>  <REMARK>
 VINA RESULT:      -9.4      3.119      7.883
  Name = 
  5 active torsions:
  status: ('A' for Active; 'I' for Inactive)
    1  A    between atoms: C_3  and  C_13
    2  A    between atoms: C_5  and  C_18
    3  A    between atoms: C_12  and  C_28
    4  A    between atoms: N_17  and  C_29
    5  A    between atoms: C_18  and  C_29
                            x       y       z     vdW  Elec       q    Type
                         _______ _______ _______ _____ _____    ______ ____

>  <TORSDO>
F 5

$$$$
=
 OpenBabel10262423583D

 34 38  0  0  1  0  0  0  0  0999 V2000
  190.0720  177.4800  143.4820 C   0  0  0  0  0  0  0  0  0  0  0  0
  187.5990  177.6350  143.3120 C   0  0  0  0  0  3  0  0  0  0  0  0
  188.9920  177.6890  141.2520 N   0  0  0  0  0  0  0  0  0  0  0  0
  188.2510  177.9800  138.8420 C   0  0  2  0  0  3  0  0  0  0  0  0
  188.7160  177.4190  145.4860 C   0  0  0  0  0  3  0  0  0  0  0  0
  186.3000  177.1500  145.1820 F   0  0  0  0  0  0  0  0  0  0  0  0
  186.9900  178.8040  140.7200 O   0  0  0  0  0  0  0  0  0  0  0  0
  188.9120  178.0300  142.6820 C   0  0  2  0  0  3  0  0  0  0  0  0
  189.9390  177.4260  144.9450 C   0  0  0  0  0  3  0  0  0  0  0  0
  190.2210  177.1910  140.6870 C   0  0  0  0  0  0  0  0  0  0  0  0
  191.1490  177.0420  142.9070 N   0  0  0  0  0  0  0  0  0  0  0  0
  187.5060  177.4270  144.6310 C   0  0  0  0  0  0  0  0  0  0  0  0
  189.0500  176.8390  138.6270 O   0  0  0  0  0  0  0  0  0  0  0  0
  190.3250  177.0940  139.1730 C   0  0  2  0  0  3  0  0  0  0  0  0
  187.9980  178.1610  140.3200 C   0  0  0  0  0  0  0  0  0  0  0  0
  191.2650  176.9380  141.4830 C   0  0  0  0  0  3  0  0  0  0  0  0
  191.7640  174.3160  136.9180 C   0  0  0  0  0  0  0  0  0  0  0  0
  193.1740  174.7940  136.7210 C   0  0  0  0  0  2  0  0  0  0  0  0
  191.3120  176.0430  138.6490 C   0  0  1  0  0  3  0  0  0  0  0  0
  193.2890  176.2860  137.0240 C   0  0  0  0  0  2  0  0  0  0  0  0
  190.7250  175.2350  137.4860 C   0  0  0  0  0  2  0  0  0  0  0  0
  192.7270  176.6130  138.4100 C   0  0  0  0  0  2  0  0  0  0  0  0
  191.4590  173.1800  136.5950 O   0  0  0  0  0  0  0  0  0  0  0  0
  186.9440  177.8320  138.0790 C   0  0  0  0  0  2  0  0  0  0  0  0
  187.2090  177.2930  136.6820 C   0  0  0  0  0  2  0  0  0  0  0  0
  186.6410  174.9900  136.9790 C   0  0  0  0  0  3  0  0  0  0  0  0
  186.3770  176.1300  136.4250 N   0  0  0  0  0  0  0  0  0  0  0  0
  184.0220  174.4360  138.0670 O   0  0  0  0  0  0  0  0  0  0  0  0
  185.8230  173.7880  136.7410 C   0  0  2  0  0  3  0  0  0  0  0  0
  184.5450  173.5790  137.3070 C   0  0  0  0  0  0  0  0  0  0  0  0
  184.3710  171.4710  136.2180 C   0  0  0  0  0  3  0  0  0  0  0  0
  185.6290  171.6380  135.6390 C   0  0  0  0  0  3  0  0  0  0  0  0
  186.3520  172.8010  135.9050 C   0  0  0  0  0  3  0  0  0  0  0  0
  183.8620  172.4350  137.0300 N   0  0  0  0  0  0  0  0  0  0  0  0
  1  9  1  0  0  0  0
  2 12  2  0  0  0  0
  3  8  1  0  0  0  0
  4 24  1  6  0  0  0
  4 15  1  0  0  0  0
  8  2  1  1  0  0  0
  8  1  1  0  0  0  0
  9  5  2  0  0  0  0
 10  3  1  0  0  0  0
 10 16  2  0  0  0  0
 11  1  2  0  0  0  0
 12  6  1  0  0  0  0
 12  5  1  0  0  0  0
 13  4  1  0  0  0  0
 14 13  1  6  0  0  0
 14 10  1  0  0  0  0
 15  7  2  0  0  0  0
 15  3  1  0  0  0  0
 16 11  1  0  0  0  0
 17 21  1  0  0  0  0
 18 17  1  0  0  0  0
 18 20  1  0  0  0  0
 19 21  1  6  0  0  0
 19 14  1  0  0  0  0
 20 22  1  0  0  0  0
 22 19  1  0  0  0  0
 23 17  2  0  0  0  0
 25 24  1  0  0  0  0
 27 25  1  0  0  0  0
 27 26  2  0  0  0  0
 29 26  1  1  0  0  0
 29 30  1  0  0  0  0
 30 28  2  0  0  0  0
 31 34  2  0  0  0  0
 32 33  2  0  0  0  0
 32 31  1  0  0  0  0
 33 29  1  0  0  0  0
 34 30  1  0  0  0  0
M  END
>  <MODEL>
9

>  <REMARK>
 VINA RESULT:      -9.4      3.985      7.759
  Name = 
  5 active torsions:
  status: ('A' for Active; 'I' for Inactive)
    1  A    between atoms: C_3  and  C_13
    2  A    between atoms: C_5  and  C_18
    3  A    between atoms: C_12  and  C_28
    4  A    between atoms: N_17  and  C_29
    5  A    between atoms: C_18  and  C_29
                            x       y       z     vdW  Elec       q    Type
                         _______ _______ _______ _____ _____    ______ ____

>  <TORSDO>
F 5

$$$$
