=
 OpenBabel10272400043D

 34 40  0  0  1  0  0  0  0  0999 V2000
  189.0700  177.1680  146.5080 C   0  0  0  0  0  0  0  0  0  0  0  0
  190.8680  177.2310  144.8820 C   0  0  0  0  0  0  0  0  0  0  0  0
  188.5840  177.5550  144.1770 C   0  0  0  0  0  0  0  0  0  0  0  0
  188.2520  177.9400  141.8900 C   0  0  0  0  0  0  0  0  0  0  0  0
  191.3220  176.8520  147.1740 C   0  0  0  0  0  3  0  0  0  0  0  0
  191.7530  176.9990  145.8850 N   0  0  0  0  0  0  0  0  0  0  0  0
  190.3180  177.6140  142.5940 N   0  0  0  0  0  0  0  0  0  0  0  0
  189.5010  177.3160  145.1890 C   0  0  0  0  0  0  0  0  0  0  0  0
  189.0420  178.0670  140.6310 C   0  0  0  0  0  2  0  0  0  0  0  0
  189.9930  176.9360  147.4780 N   0  0  0  0  0  0  0  0  0  0  0  0
  187.2110  177.6630  144.4310 C   0  0  0  0  0  0  0  0  0  0  0  0
  187.6970  177.2660  146.7960 C   0  0  0  0  0  3  0  0  0  0  0  0
  191.2790  177.3900  143.5410 C   0  0  0  0  0  3  0  0  0  0  0  0
  186.9070  178.0600  142.0610 N   0  0  0  0  0  0  0  0  0  0  0  0
  186.3600  177.9240  143.3150 C   0  0  0  0  0  0  0  0  0  0  0  0
  190.4950  177.8260  141.1570 C   0  0  2  0  0  3  0  0  0  0  0  0
  189.0440  177.6940  142.9210 N   0  0  0  0  0  0  0  0  0  0  0  0
  186.7690  177.5130  145.7610 C   0  0  0  0  0  3  0  0  0  0  0  0
  182.7540  178.6810  142.3150 C   0  0  0  0  0  0  0  0  0  0  0  0
  182.2950  179.5230  143.4660 C   0  0  0  0  0  2  0  0  0  0  0  0
  184.8720  178.0590  143.4500 C   0  0  2  0  0  3  0  0  0  0  0  0
  182.9780  179.0610  144.7520 C   0  0  0  0  0  2  0  0  0  0  0  0
  184.2210  178.4450  142.1190 C   0  0  0  0  0  2  0  0  0  0  0  0
  184.4960  179.0280  144.5760 C   0  0  0  0  0  2  0  0  0  0  0  0
  181.9480  178.2410  141.5140 O   0  0  0  0  0  0  0  0  0  0  0  0
  191.0770  176.5770  140.5160 C   0  0  0  0  0  2  0  0  0  0  0  0
  191.7530  176.9290  139.2010 C   0  0  0  0  0  2  0  0  0  0  0  0
  193.3530  176.0900  136.6220 C   0  0  0  0  0  1  0  0  0  0  0  0
  191.5020  175.8930  138.2100 N   0  0  0  0  0  0  0  0  0  0  0  0
  192.6440  175.1860  137.6140 C   0  0  1  0  0  3  0  0  0  0  0  0
  190.9560  173.6230  136.6660 C   0  0  0  0  0  3  0  0  0  0  0  0
  189.8740  174.5120  137.1080 C   0  0  0  0  0  3  0  0  0  0  0  0
  190.1470  175.5820  137.8500 C   0  0  0  0  0  3  0  0  0  0  0  0
  192.2330  173.9140  136.9180 C   0  0  0  0  0  3  0  0  0  0  0  0
  1 12  1  0  0  0  0
  1 10  2  0  0  0  0
  2  8  1  0  0  0  0
  2  6  1  0  0  0  0
  3 11  1  0  0  0  0
  3  8  2  0  0  0  0
  4 14  2  0  0  0  0
  4 17  1  0  0  0  0
  5 10  1  0  0  0  0
  6  5  2  0  0  0  0
  7 17  1  0  0  0  0
  7 13  1  0  0  0  0
  8  1  1  0  0  0  0
  9 16  1  0  0  0  0
  9  4  1  0  0  0  0
 11 18  1  0  0  0  0
 13  2  2  0  0  0  0
 14 15  1  0  0  0  0
 15 11  2  0  0  0  0
 16 26  1  6  0  0  0
 16  7  1  0  0  0  0
 17  3  1  0  0  0  0
 18 12  2  0  0  0  0
 19 20  1  0  0  0  0
 20 22  1  0  0  0  0
 21 15  1  6  0  0  0
 21 24  1  0  0  0  0
 23 19  1  0  0  0  0
 23 21  1  0  0  0  0
 24 22  1  0  0  0  0
 25 19  2  0  0  0  0
 27 26  1  0  0  0  0
 29 27  1  0  0  0  0
 30 28  1  6  0  0  0
 30 29  1  0  0  0  0
 31 34  2  0  0  0  0
 31 32  1  0  0  0  0
 32 33  2  0  0  0  0
 33 29  1  0  0  0  0
 34 30  1  0  0  0  0
M  END
>  <MODEL>
1

>  <REMARK>
 VINA RESULT:     -10.5      0.000      0.000
  Name = 
  4 active torsions:
  status: ('A' for Active; 'I' for Inactive)
    1  A    between atoms: C_3  and  N_13
    2  A    between atoms: C_3  and  C_17
    3  A    between atoms: C_12  and  C_28
    4  A    between atoms: C_17  and  C_29
                            x       y       z     vdW  Elec       q    Type
                         _______ _______ _______ _____ _____    ______ ____

>  <TORSDO>
F 4

$$$$
=
 OpenBabel10272400043D

 34 40  0  0  1  0  0  0  0  0999 V2000
  189.1250  177.1580  145.9610 C   0  0  0  0  0  0  0  0  0  0  0  0
  190.7960  177.2270  144.2050 C   0  0  0  0  0  0  0  0  0  0  0  0
  188.4680  177.5700  143.6770 C   0  0  0  0  0  0  0  0  0  0  0  0
  187.9670  177.9790  141.4250 C   0  0  0  0  0  0  0  0  0  0  0  0
  191.4190  176.8250  146.4530 C   0  0  0  0  0  3  0  0  0  0  0  0
  191.7530  176.9820  145.1370 N   0  0  0  0  0  0  0  0  0  0  0  0
  190.0780  177.6360  141.9690 N   0  0  0  0  0  0  0  0  0  0  0  0
  189.4560  177.3170  144.6150 C   0  0  0  0  0  0  0  0  0  0  0  0
  188.6610  178.1140  140.1120 C   0  0  0  0  0  2  0  0  0  0  0  0
  190.1170  176.9130  146.8580 N   0  0  0  0  0  0  0  0  0  0  0  0
  187.1180  177.6820  144.0340 C   0  0  0  0  0  0  0  0  0  0  0  0
  187.7780  177.2600  146.3530 C   0  0  0  0  0  3  0  0  0  0  0  0
  191.1070  177.3970  142.8390 C   0  0  0  0  0  3  0  0  0  0  0  0
  186.6390  178.1040  141.6980 N   0  0  0  0  0  0  0  0  0  0  0  0
  186.1870  177.9580  142.9880 C   0  0  0  0  0  0  0  0  0  0  0  0
  190.1470  177.8600  140.5250 C   0  0  2  0  0  3  0  0  0  0  0  0
  188.8330  177.7180  142.3910 N   0  0  0  0  0  0  0  0  0  0  0  0
  186.7770  177.5220  145.3920 C   0  0  0  0  0  3  0  0  0  0  0  0
  182.5170  178.7160  142.2610 C   0  0  0  0  0  0  0  0  0  0  0  0
  182.1500  179.5720  143.4340 C   0  0  0  0  0  2  0  0  0  0  0  0
  184.7140  178.1000  143.2360 C   0  0  2  0  0  3  0  0  0  0  0  0
  182.9290  179.1220  144.6690 C   0  0  0  0  0  2  0  0  0  0  0  0
  183.9640  178.4740  141.9550 C   0  0  0  0  0  2  0  0  0  0  0  0
  184.4280  179.0820  144.3770 C   0  0  0  0  0  2  0  0  0  0  0  0
  181.6500  178.2700  141.5280 O   0  0  0  0  0  0  0  0  0  0  0  0
  190.6730  176.6150  139.8300 C   0  0  0  0  0  2  0  0  0  0  0  0
  191.1730  176.9620  138.4380 C   0  0  0  0  0  2  0  0  0  0  0  0
  188.9590  178.2710  136.6210 C   0  0  0  0  0  1  0  0  0  0  0  0
  190.2970  176.3870  137.4280 N   0  0  0  0  0  0  0  0  0  0  0  0
  189.9540  177.1880  136.2440 C   0  0  1  0  0  3  0  0  0  0  0  0
  188.9950  175.0870  135.3180 C   0  0  0  0  0  3  0  0  0  0  0  0
  189.1710  174.4250  136.6170 C   0  0  0  0  0  3  0  0  0  0  0  0
  189.8010  175.0520  137.6080 C   0  0  0  0  0  3  0  0  0  0  0  0
  189.3770  176.3520  135.1320 C   0  0  0  0  0  3  0  0  0  0  0  0
  1 12  1  0  0  0  0
  1 10  2  0  0  0  0
  2  8  1  0  0  0  0
  2  6  1  0  0  0  0
  3 11  1  0  0  0  0
  3  8  2  0  0  0  0
  4 14  2  0  0  0  0
  4 17  1  0  0  0  0
  5 10  1  0  0  0  0
  6  5  2  0  0  0  0
  7 17  1  0  0  0  0
  7 13  1  0  0  0  0
  8  1  1  0  0  0  0
  9 16  1  0  0  0  0
  9  4  1  0  0  0  0
 11 18  1  0  0  0  0
 13  2  2  0  0  0  0
 14 15  1  0  0  0  0
 15 11  2  0  0  0  0
 16 26  1  6  0  0  0
 16  7  1  0  0  0  0
 17  3  1  0  0  0  0
 18 12  2  0  0  0  0
 19 20  1  0  0  0  0
 20 22  1  0  0  0  0
 21 15  1  6  0  0  0
 21 24  1  0  0  0  0
 23 19  1  0  0  0  0
 23 21  1  0  0  0  0
 24 22  1  0  0  0  0
 25 19  2  0  0  0  0
 27 26  1  0  0  0  0
 29 33  1  0  0  0  0
 29 27  1  0  0  0  0
 30 28  1  1  0  0  0
 30 29  1  0  0  0  0
 31 32  1  0  0  0  0
 32 33  2  0  0  0  0
 34 31  2  0  0  0  0
 34 30  1  0  0  0  0
M  END
>  <MODEL>
2

>  <REMARK>
 VINA RESULT:     -10.1      1.069      1.475
  Name = 
  4 active torsions:
  status: ('A' for Active; 'I' for Inactive)
    1  A    between atoms: C_3  and  N_13
    2  A    between atoms: C_3  and  C_17
    3  A    between atoms: C_12  and  C_28
    4  A    between atoms: C_17  and  C_29
                            x       y       z     vdW  Elec       q    Type
                         _______ _______ _______ _____ _____    ______ ____

>  <TORSDO>
F 4

$$$$
=
 OpenBabel10272400043D

 34 40  0  0  1  0  0  0  0  0999 V2000
  186.8790  178.0720  138.2000 C   0  0  0  0  0  0  0  0  0  0  0  0
  186.9600  178.5420  140.5780 C   0  0  0  0  0  0  0  0  0  0  0  0
  188.8740  177.5850  139.4650 C   0  0  0  0  0  0  0  0  0  0  0  0
  190.7520  177.1770  140.8050 C   0  0  0  0  0  0  0  0  0  0  0  0
  185.0130  179.0130  139.3170 C   0  0  0  0  0  3  0  0  0  0  0  0
  185.6860  179.0090  140.5060 N   0  0  0  0  0  0  0  0  0  0  0  0
  188.9610  178.0330  141.7690 N   0  0  0  0  0  0  0  0  0  0  0  0
  187.5740  178.0620  139.4100 C   0  0  0  0  0  0  0  0  0  0  0  0
  191.1940  177.3290  142.2220 C   0  0  0  0  0  2  0  0  0  0  0  0
  185.6060  178.5480  138.1770 N   0  0  0  0  0  0  0  0  0  0  0  0
  189.5370  177.1070  138.3280 C   0  0  0  0  0  0  0  0  0  0  0  0
  187.5140  177.5950  137.0400 C   0  0  0  0  0  3  0  0  0  0  0  0
  187.6850  178.5260  141.7880 C   0  0  0  0  0  3  0  0  0  0  0  0
  191.4600  176.7010  139.7440 N   0  0  0  0  0  0  0  0  0  0  0  0
  190.8790  176.6520  138.4990 C   0  0  0  0  0  0  0  0  0  0  0  0
  189.9080  177.9290  142.8790 C   0  0  2  0  0  3  0  0  0  0  0  0
  189.5060  177.5950  140.6520 N   0  0  0  0  0  0  0  0  0  0  0  0
  188.8400  177.1140  137.1030 C   0  0  0  0  0  3  0  0  0  0  0  0
  192.4920  174.0790  136.1850 C   0  0  0  0  0  0  0  0  0  0  0  0
  193.9070  174.5650  136.1380 C   0  0  0  0  0  2  0  0  0  0  0  0
  191.6990  176.1150  137.3630 C   0  0  2  0  0  3  0  0  0  0  0  0
  193.9360  176.0900  136.2340 C   0  0  0  0  0  2  0  0  0  0  0  0
  191.5760  174.5920  137.2550 C   0  0  0  0  0  2  0  0  0  0  0  0
  193.1590  176.5690  137.4580 C   0  0  0  0  0  2  0  0  0  0  0  0
  192.1040  173.2320  135.3990 O   0  0  0  0  0  0  0  0  0  0  0  0
  189.3710  176.9730  143.9320 C   0  0  0  0  0  2  0  0  0  0  0  0
  189.3890  177.6360  145.3000 C   0  0  0  0  0  2  0  0  0  0  0  0
  188.1670  177.1080  148.1540 C   0  0  0  0  0  1  0  0  0  0  0  0
  188.0330  177.7870  145.8060 N   0  0  0  0  0  0  0  0  0  0  0  0
  187.8380  178.2360  147.1920 C   0  0  1  0  0  3  0  0  0  0  0  0
  185.4390  178.4950  146.5830 C   0  0  0  0  0  3  0  0  0  0  0  0
  185.6860  177.8280  145.2980 C   0  0  0  0  0  3  0  0  0  0  0  0
  186.9250  177.5060  144.9370 C   0  0  0  0  0  3  0  0  0  0  0  0
  186.4300  178.7080  147.4500 C   0  0  0  0  0  3  0  0  0  0  0  0
  1  8  1  0  0  0  0
  2 13  2  0  0  0  0
  3 17  1  0  0  0  0
  4  9  1  0  0  0  0
  5  6  2  0  0  0  0
  6  2  1  0  0  0  0
  7 13  1  0  0  0  0
  7 16  1  0  0  0  0
  8  3  2  0  0  0  0
  8  2  1  0  0  0  0
  9 16  1  0  0  0  0
 10  1  2  0  0  0  0
 10  5  1  0  0  0  0
 11 15  2  0  0  0  0
 11  3  1  0  0  0  0
 12 18  2  0  0  0  0
 12  1  1  0  0  0  0
 14  4  2  0  0  0  0
 15 14  1  0  0  0  0
 16 26  1  1  0  0  0
 17  4  1  0  0  0  0
 17  7  1  0  0  0  0
 18 11  1  0  0  0  0
 19 23  1  0  0  0  0
 20 19  1  0  0  0  0
 20 22  1  0  0  0  0
 21 24  1  0  0  0  0
 21 15  1  1  0  0  0
 22 24  1  0  0  0  0
 23 21  1  0  0  0  0
 25 19  2  0  0  0  0
 26 27  1  0  0  0  0
 27 29  1  0  0  0  0
 29 30  1  0  0  0  0
 30 34  1  0  0  0  0
 30 28  1  1  0  0  0
 31 34  2  0  0  0  0
 32 31  1  0  0  0  0
 33 32  2  0  0  0  0
 33 29  1  0  0  0  0
M  END
>  <MODEL>
3

>  <REMARK>
 VINA RESULT:     -10.1      2.925      8.964
  Name = 
  4 active torsions:
  status: ('A' for Active; 'I' for Inactive)
    1  A    between atoms: C_3  and  N_13
    2  A    between atoms: C_3  and  C_17
    3  A    between atoms: C_12  and  C_28
    4  A    between atoms: C_17  and  C_29
                            x       y       z     vdW  Elec       q    Type
                         _______ _______ _______ _____ _____    ______ ____

>  <TORSDO>
F 4

$$$$
=
 OpenBabel10272400043D

 34 40  0  0  1  0  0  0  0  0999 V2000
  184.3850  178.5760  145.3950 C   0  0  0  0  0  0  0  0  0  0  0  0
  186.7740  178.1890  145.2520 C   0  0  0  0  0  0  0  0  0  0  0  0
  185.4720  178.4860  143.2440 C   0  0  0  0  0  0  0  0  0  0  0  0
  186.6530  178.3930  141.2230 C   0  0  0  0  0  0  0  0  0  0  0  0
  185.6870  178.2820  147.3530 C   0  0  0  0  0  3  0  0  0  0  0  0
  186.8220  178.1260  146.6090 N   0  0  0  0  0  0  0  0  0  0  0  0
  187.7850  178.1070  143.0950 N   0  0  0  0  0  0  0  0  0  0  0  0
  185.5380  178.4150  144.6270 C   0  0  0  0  0  0  0  0  0  0  0  0
  188.0470  178.2040  140.7270 C   0  0  0  0  0  2  0  0  0  0  0  0
  184.4820  178.5040  146.7490 N   0  0  0  0  0  0  0  0  0  0  0  0
  184.2680  178.7230  142.5700 C   0  0  0  0  0  0  0  0  0  0  0  0
  183.1580  178.8110  144.7500 C   0  0  0  0  0  3  0  0  0  0  0  0
  187.9280  178.0350  144.4540 C   0  0  0  0  0  3  0  0  0  0  0  0
  185.5220  178.6230  140.5010 N   0  0  0  0  0  0  0  0  0  0  0  0
  184.3190  178.7880  141.1450 C   0  0  0  0  0  0  0  0  0  0  0  0
  188.8220  177.9980  142.0690 C   0  0  2  0  0  3  0  0  0  0  0  0
  186.6100  178.3270  142.5440 N   0  0  0  0  0  0  0  0  0  0  0  0
  183.0990  178.8850  143.3410 C   0  0  0  0  0  3  0  0  0  0  0  0
  181.2810  177.9970  138.9730 C   0  0  0  0  0  0  0  0  0  0  0  0
  181.4790  178.9410  137.8270 C   0  0  0  0  0  2  0  0  0  0  0  0
  183.1000  179.0340  140.3060 C   0  0  2  0  0  3  0  0  0  0  0  0
  182.1400  180.2260  138.3210 C   0  0  0  0  0  2  0  0  0  0  0  0
  182.4250  177.7200  139.9000 C   0  0  0  0  0  2  0  0  0  0  0  0
  183.4210  179.9130  139.0930 C   0  0  0  0  0  2  0  0  0  0  0  0
  180.2190  177.4160  139.1160 O   0  0  0  0  0  0  0  0  0  0  0  0
  189.4420  176.6100  142.1020 C   0  0  0  0  0  2  0  0  0  0  0  0
  190.9510  176.7120  142.2480 C   0  0  0  0  0  2  0  0  0  0  0  0
  191.9820  178.8560  144.3120 C   0  0  0  0  0  1  0  0  0  0  0  0
  191.3330  176.5920  143.6470 N   0  0  0  0  0  0  0  0  0  0  0  0
  191.0310  177.6990  144.5650 C   0  0  1  0  0  3  0  0  0  0  0  0
  191.6700  176.1300  146.3880 C   0  0  0  0  0  3  0  0  0  0  0  0
  192.1580  175.1640  145.3950 C   0  0  0  0  0  3  0  0  0  0  0  0
  191.9820  175.3920  144.0960 C   0  0  0  0  0  3  0  0  0  0  0  0
  191.1270  177.2890  146.0120 C   0  0  0  0  0  3  0  0  0  0  0  0
  1 10  2  0  0  0  0
  2  6  1  0  0  0  0
  3  8  2  0  0  0  0
  4 17  1  0  0  0  0
  6  5  2  0  0  0  0
  7 13  1  0  0  0  0
  8  2  1  0  0  0  0
  8  1  1  0  0  0  0
  9  4  1  0  0  0  0
  9 16  1  0  0  0  0
 10  5  1  0  0  0  0
 11  3  1  0  0  0  0
 11 18  1  0  0  0  0
 12  1  1  0  0  0  0
 13  2  2  0  0  0  0
 14 15  1  0  0  0  0
 14  4  2  0  0  0  0
 15 11  2  0  0  0  0
 16 26  1  6  0  0  0
 16  7  1  0  0  0  0
 17  7  1  0  0  0  0
 17  3  1  0  0  0  0
 18 12  2  0  0  0  0
 19 25  2  0  0  0  0
 19 23  1  0  0  0  0
 20 22  1  0  0  0  0
 20 19  1  0  0  0  0
 21 15  1  6  0  0  0
 22 24  1  0  0  0  0
 23 21  1  0  0  0  0
 24 21  1  0  0  0  0
 26 27  1  0  0  0  0
 27 29  1  0  0  0  0
 29 33  1  0  0  0  0
 29 30  1  0  0  0  0
 30 28  1  1  0  0  0
 30 34  1  0  0  0  0
 32 31  1  0  0  0  0
 33 32  2  0  0  0  0
 34 31  2  0  0  0  0
M  END
>  <MODEL>
4

>  <REMARK>
 VINA RESULT:      -9.9      2.937      5.182
  Name = 
  4 active torsions:
  status: ('A' for Active; 'I' for Inactive)
    1  A    between atoms: C_3  and  N_13
    2  A    between atoms: C_3  and  C_17
    3  A    between atoms: C_12  and  C_28
    4  A    between atoms: C_17  and  C_29
                            x       y       z     vdW  Elec       q    Type
                         _______ _______ _______ _____ _____    ______ ____

>  <TORSDO>
F 4

$$$$
=
 OpenBabel10272400043D

 34 40  0  0  1  0  0  0  0  0999 V2000
  187.3180  177.6810  144.6680 C   0  0  0  0  0  0  0  0  0  0  0  0
  189.4380  177.3300  143.5440 C   0  0  0  0  0  0  0  0  0  0  0  0
  187.5010  178.0280  142.2880 C   0  0  0  0  0  0  0  0  0  0  0  0
  187.8190  178.3460  139.9890 C   0  0  0  0  0  0  0  0  0  0  0  0
  189.2360  176.9960  145.8790 C   0  0  0  0  0  3  0  0  0  0  0  0
  189.9900  176.9940  144.7400 N   0  0  0  0  0  0  0  0  0  0  0  0
  189.5490  177.6870  141.1900 N   0  0  0  0  0  0  0  0  0  0  0  0
  188.0790  177.6790  143.4990 C   0  0  0  0  0  0  0  0  0  0  0  0
  188.9030  178.2610  138.9680 C   0  0  0  0  0  2  0  0  0  0  0  0
  187.9130  177.3370  145.8400 N   0  0  0  0  0  0  0  0  0  0  0  0
  186.1530  178.3970  142.1880 C   0  0  0  0  0  0  0  0  0  0  0  0
  185.9600  178.0420  144.6020 C   0  0  0  0  0  3  0  0  0  0  0  0
  190.1880  177.3410  142.3500 C   0  0  0  0  0  3  0  0  0  0  0  0
  186.5210  178.7180  139.8160 N   0  0  0  0  0  0  0  0  0  0  0  0
  185.6670  178.7490  140.8940 C   0  0  0  0  0  0  0  0  0  0  0  0
  190.1090  177.7870  139.8420 C   0  0  2  0  0  3  0  0  0  0  0  0
  188.2730  178.0140  141.1870 N   0  0  0  0  0  0  0  0  0  0  0  0
  185.3790  178.4000  143.3660 C   0  0  0  0  0  3  0  0  0  0  0  0
  181.8630  178.4700  140.7470 C   0  0  0  0  0  0  0  0  0  0  0  0
  181.5780  178.9900  139.3710 C   0  0  0  0  0  2  0  0  0  0  0  0
  184.2450  179.1600  140.6510 C   0  0  2  0  0  3  0  0  0  0  0  0
  182.5900  180.0760  139.0070 C   0  0  0  0  0  2  0  0  0  0  0  0
  183.2640  178.0760  141.1050 C   0  0  0  0  0  2  0  0  0  0  0  0
  184.0180  179.5670  139.1920 C   0  0  0  0  0  2  0  0  0  0  0  0
  180.9570  178.3140  141.5460 O   0  0  0  0  0  0  0  0  0  0  0  0
  190.5840  176.4210  139.3740 C   0  0  0  0  0  2  0  0  0  0  0  0
  191.9550  176.5350  138.7290 C   0  0  0  0  0  2  0  0  0  0  0  0
  193.8690  176.3250  136.2370 C   0  0  0  0  0  1  0  0  0  0  0  0
  192.1430  175.4750  137.7500 N   0  0  0  0  0  0  0  0  0  0  0  0
  193.4910  175.2290  137.2170 C   0  0  1  0  0  3  0  0  0  0  0  0
  192.5310  173.1550  136.2320 C   0  0  0  0  0  3  0  0  0  0  0  0
  191.1810  173.5920  136.6100 C   0  0  0  0  0  3  0  0  0  0  0  0
  191.0120  174.6910  137.3400 C   0  0  0  0  0  3  0  0  0  0  0  0
  193.6020  173.8920  136.5310 C   0  0  0  0  0  3  0  0  0  0  0  0
  1 10  2  0  0  0  0
  2  6  1  0  0  0  0
  3  8  2  0  0  0  0
  4 17  1  0  0  0  0
  6  5  2  0  0  0  0
  7 13  1  0  0  0  0
  8  2  1  0  0  0  0
  8  1  1  0  0  0  0
  9 16  1  0  0  0  0
  9  4  1  0  0  0  0
 10  5  1  0  0  0  0
 11  3  1  0  0  0  0
 11 18  1  0  0  0  0
 12  1  1  0  0  0  0
 13  2  2  0  0  0  0
 14  4  2  0  0  0  0
 14 15  1  0  0  0  0
 15 11  2  0  0  0  0
 16 26  1  6  0  0  0
 16  7  1  0  0  0  0
 17  7  1  0  0  0  0
 17  3  1  0  0  0  0
 18 12  2  0  0  0  0
 19 23  1  0  0  0  0
 19 25  2  0  0  0  0
 20 19  1  0  0  0  0
 21 15  1  6  0  0  0
 21 23  1  0  0  0  0
 22 24  1  0  0  0  0
 22 20  1  0  0  0  0
 24 21  1  0  0  0  0
 27 26  1  0  0  0  0
 29 27  1  0  0  0  0
 30 28  1  6  0  0  0
 30 29  1  0  0  0  0
 31 34  2  0  0  0  0
 31 32  1  0  0  0  0
 32 33  2  0  0  0  0
 33 29  1  0  0  0  0
 34 30  1  0  0  0  0
M  END
>  <MODEL>
5

>  <REMARK>
 VINA RESULT:      -9.6      1.645      2.441
  Name = 
  4 active torsions:
  status: ('A' for Active; 'I' for Inactive)
    1  A    between atoms: C_3  and  N_13
    2  A    between atoms: C_3  and  C_17
    3  A    between atoms: C_12  and  C_28
    4  A    between atoms: C_17  and  C_29
                            x       y       z     vdW  Elec       q    Type
                         _______ _______ _______ _____ _____    ______ ____

>  <TORSDO>
F 4

$$$$
=
 OpenBabel10272400043D

 34 40  0  0  1  0  0  0  0  0999 V2000
  190.0620  177.2880  146.3260 C   0  0  0  0  0  0  0  0  0  0  0  0
  187.7060  177.8330  146.5150 C   0  0  0  0  0  0  0  0  0  0  0  0
  188.6830  177.4140  144.3500 C   0  0  0  0  0  0  0  0  0  0  0  0
  187.2310  177.5500  142.5170 C   0  0  0  0  0  0  0  0  0  0  0  0
  189.0770  177.7040  148.4410 C   0  0  0  0  0  3  0  0  0  0  0  0
  187.8590  177.9230  147.8620 N   0  0  0  0  0  0  0  0  0  0  0  0
  186.4020  177.9440  144.5230 N   0  0  0  0  0  0  0  0  0  0  0  0
  188.8220  177.5120  145.7260 C   0  0  0  0  0  0  0  0  0  0  0  0
  185.7960  177.8240  142.2200 C   0  0  0  0  0  2  0  0  0  0  0  0
  190.1660  177.3900  147.6770 N   0  0  0  0  0  0  0  0  0  0  0  0
  189.7600  177.0840  143.5180 C   0  0  0  0  0  0  0  0  0  0  0  0
  191.1650  176.9600  145.5190 C   0  0  0  0  0  3  0  0  0  0  0  0
  186.4620  178.0490  145.8860 C   0  0  0  0  0  3  0  0  0  0  0  0
  188.2300  177.2310  141.6470 N   0  0  0  0  0  0  0  0  0  0  0  0
  189.5000  176.9970  142.1180 C   0  0  0  0  0  0  0  0  0  0  0  0
  185.2370  178.1050  143.6530 C   0  0  2  0  0  3  0  0  0  0  0  0
  187.4690  177.6360  143.8160 N   0  0  0  0  0  0  0  0  0  0  0  0
  191.0160  176.8570  144.1180 C   0  0  0  0  0  3  0  0  0  0  0  0
  192.7260  177.3390  140.1060 C   0  0  0  0  0  0  0  0  0  0  0  0
  192.2360  177.0950  138.7110 C   0  0  0  0  0  2  0  0  0  0  0  0
  190.5660  176.6550  141.1190 C   0  0  2  0  0  3  0  0  0  0  0  0
  191.0860  176.0890  138.7340 C   0  0  0  0  0  2  0  0  0  0  0  0
  191.7350  177.6420  141.1880 C   0  0  0  0  0  2  0  0  0  0  0  0
  189.9940  176.5380  139.7030 C   0  0  0  0  0  2  0  0  0  0  0  0
  193.9210  177.3480  140.3460 O   0  0  0  0  0  0  0  0  0  0  0  0
  184.7190  179.5320  143.7370 C   0  0  0  0  0  2  0  0  0  0  0  0
  183.2700  179.5380  144.1950 C   0  0  0  0  0  2  0  0  0  0  0  0
  180.3310  178.4130  144.0960 C   0  0  0  0  0  1  0  0  0  0  0  0
  182.3840  179.2670  143.0730 N   0  0  0  0  0  0  0  0  0  0  0  0
  180.9420  179.5030  143.2330 C   0  0  1  0  0  3  0  0  0  0  0  0
  180.7940  179.1680  140.7710 C   0  0  0  0  0  3  0  0  0  0  0  0
  182.1940  178.7260  140.7400 C   0  0  0  0  0  3  0  0  0  0  0  0
  182.9410  178.7880  141.8390 C   0  0  0  0  0  3  0  0  0  0  0  0
  180.2180  179.5510  141.9120 C   0  0  0  0  0  3  0  0  0  0  0  0
  1 10  2  0  0  0  0
  2  6  1  0  0  0  0
  3  8  2  0  0  0  0
  4 17  1  0  0  0  0
  6  5  2  0  0  0  0
  7 13  1  0  0  0  0
  8  1  1  0  0  0  0
  8  2  1  0  0  0  0
  9  4  1  0  0  0  0
  9 16  1  0  0  0  0
 10  5  1  0  0  0  0
 11 18  1  0  0  0  0
 11  3  1  0  0  0  0
 12  1  1  0  0  0  0
 13  2  2  0  0  0  0
 14 15  1  0  0  0  0
 14  4  2  0  0  0  0
 15 11  2  0  0  0  0
 16 26  1  6  0  0  0
 16  7  1  0  0  0  0
 17  3  1  0  0  0  0
 17  7  1  0  0  0  0
 18 12  2  0  0  0  0
 19 25  2  0  0  0  0
 19 23  1  0  0  0  0
 20 22  1  0  0  0  0
 20 19  1  0  0  0  0
 21 23  1  0  0  0  0
 21 15  1  1  0  0  0
 22 24  1  0  0  0  0
 24 21  1  0  0  0  0
 26 27  1  0  0  0  0
 29 30  1  0  0  0  0
 29 27  1  0  0  0  0
 30 28  1  1  0  0  0
 31 34  2  0  0  0  0
 32 31  1  0  0  0  0
 32 33  2  0  0  0  0
 33 29  1  0  0  0  0
 34 30  1  0  0  0  0
M  END
>  <MODEL>
6

>  <REMARK>
 VINA RESULT:      -9.2      2.705      7.797
  Name = 
  4 active torsions:
  status: ('A' for Active; 'I' for Inactive)
    1  A    between atoms: C_3  and  N_13
    2  A    between atoms: C_3  and  C_17
    3  A    between atoms: C_12  and  C_28
    4  A    between atoms: C_17  and  C_29
                            x       y       z     vdW  Elec       q    Type
                         _______ _______ _______ _____ _____    ______ ____

>  <TORSDO>
F 4

$$$$
=
 OpenBabel10272400043D

 34 40  0  0  1  0  0  0  0  0999 V2000
  182.0980  178.8060  140.9830 C   0  0  0  0  0  0  0  0  0  0  0  0
  183.3850  178.7880  143.0380 C   0  0  0  0  0  0  0  0  0  0  0  0
  184.4990  178.5920  140.9080 C   0  0  0  0  0  0  0  0  0  0  0  0
  186.8340  178.4100  140.9760 C   0  0  0  0  0  0  0  0  0  0  0  0
  181.0270  178.9970  143.0880 C   0  0  0  0  0  3  0  0  0  0  0  0
  182.2270  178.9230  143.7370 N   0  0  0  0  0  0  0  0  0  0  0  0
  185.7540  178.5710  142.8940 N   0  0  0  0  0  0  0  0  0  0  0  0
  183.3280  178.7260  141.6370 C   0  0  0  0  0  0  0  0  0  0  0  0
  187.9440  178.3780  141.9710 C   0  0  0  0  0  2  0  0  0  0  0  0
  180.9670  178.9390  141.7240 N   0  0  0  0  0  0  0  0  0  0  0  0
  184.5000  178.5380  139.5090 C   0  0  0  0  0  0  0  0  0  0  0  0
  182.0630  178.7500  139.5780 C   0  0  0  0  0  3  0  0  0  0  0  0
  184.6410  178.7120  143.6760 C   0  0  0  0  0  3  0  0  0  0  0  0
  186.9130  178.3540  139.6180 N   0  0  0  0  0  0  0  0  0  0  0  0
  185.7660  178.4130  138.8620 C   0  0  0  0  0  0  0  0  0  0  0  0
  187.1530  178.4870  143.3150 C   0  0  2  0  0  3  0  0  0  0  0  0
  185.6620  178.5210  141.5800 N   0  0  0  0  0  0  0  0  0  0  0  0
  183.2610  178.6170  138.8420 C   0  0  0  0  0  3  0  0  0  0  0  0
  185.4480  177.0110  135.3250 C   0  0  0  0  0  0  0  0  0  0  0  0
  186.8430  177.1850  134.8080 C   0  0  0  0  0  2  0  0  0  0  0  0
  185.9050  178.3420  137.3690 C   0  0  2  0  0  3  0  0  0  0  0  0
  187.4680  178.4420  135.4120 C   0  0  0  0  0  2  0  0  0  0  0  0
  185.1960  177.1100  136.7990 C   0  0  0  0  0  2  0  0  0  0  0  0
  187.3730  178.4120  136.9370 C   0  0  0  0  0  2  0  0  0  0  0  0
  184.5390  176.7330  134.5630 O   0  0  0  0  0  0  0  0  0  0  0  0
  187.3700  177.2340  144.1470 C   0  0  0  0  0  2  0  0  0  0  0  0
  187.5970  177.6040  145.6040 C   0  0  0  0  0  2  0  0  0  0  0  0
  189.1290  178.0760  148.3140 C   0  0  0  0  0  1  0  0  0  0  0  0
  188.9870  177.3820  145.9710 N   0  0  0  0  0  0  0  0  0  0  0  0
  189.2990  176.9290  147.3340 C   0  0  1  0  0  3  0  0  0  0  0  0
  191.6060  176.5380  146.4870 C   0  0  0  0  0  3  0  0  0  0  0  0
  191.2660  177.2130  145.2280 C   0  0  0  0  0  3  0  0  0  0  0  0
  190.0150  177.5990  144.9920 C   0  0  0  0  0  3  0  0  0  0  0  0
  190.6980  176.3820  147.4520 C   0  0  0  0  0  3  0  0  0  0  0  0
  1  8  1  0  0  0  0
  1 10  2  0  0  0  0
  2 13  2  0  0  0  0
  2  6  1  0  0  0  0
  3 17  1  0  0  0  0
  3  8  2  0  0  0  0
  4 17  1  0  0  0  0
  4  9  1  0  0  0  0
  5  6  2  0  0  0  0
  7 16  1  0  0  0  0
  7 13  1  0  0  0  0
  8  2  1  0  0  0  0
  9 16  1  0  0  0  0
 10  5  1  0  0  0  0
 11  3  1  0  0  0  0
 12  1  1  0  0  0  0
 14  4  2  0  0  0  0
 15 11  2  0  0  0  0
 15 14  1  0  0  0  0
 16 26  1  1  0  0  0
 17  7  1  0  0  0  0
 18 11  1  0  0  0  0
 18 12  2  0  0  0  0
 19 23  1  0  0  0  0
 20 19  1  0  0  0  0
 20 22  1  0  0  0  0
 21 15  1  1  0  0  0
 22 24  1  0  0  0  0
 23 21  1  0  0  0  0
 24 21  1  0  0  0  0
 25 19  2  0  0  0  0
 26 27  1  0  0  0  0
 27 29  1  0  0  0  0
 29 30  1  0  0  0  0
 30 34  1  0  0  0  0
 30 28  1  1  0  0  0
 31 34  2  0  0  0  0
 32 31  1  0  0  0  0
 33 32  2  0  0  0  0
 33 29  1  0  0  0  0
M  END
>  <MODEL>
7

>  <REMARK>
 VINA RESULT:      -9.2      3.369      7.893
  Name = 
  4 active torsions:
  status: ('A' for Active; 'I' for Inactive)
    1  A    between atoms: C_3  and  N_13
    2  A    between atoms: C_3  and  C_17
    3  A    between atoms: C_12  and  C_28
    4  A    between atoms: C_17  and  C_29
                            x       y       z     vdW  Elec       q    Type
                         _______ _______ _______ _____ _____    ______ ____

>  <TORSDO>
F 4

$$$$
=
 OpenBabel10272400043D

 34 40  0  0  1  0  0  0  0  0999 V2000
  189.3980  177.6920  140.7470 C   0  0  0  0  0  0  0  0  0  0  0  0
  187.2780  178.4130  139.8170 C   0  0  0  0  0  0  0  0  0  0  0  0
  187.4870  178.0030  142.1850 C   0  0  0  0  0  0  0  0  0  0  0  0
  185.5610  178.3600  143.4700 C   0  0  0  0  0  0  0  0  0  0  0  0
  189.1660  178.1020  138.4240 C   0  0  0  0  0  3  0  0  0  0  0  0
  187.8520  178.4400  138.5860 N   0  0  0  0  0  0  0  0  0  0  0  0
  185.4280  178.6970  141.2930 N   0  0  0  0  0  0  0  0  0  0  0  0
  188.0560  178.0320  140.9210 C   0  0  0  0  0  0  0  0  0  0  0  0
  184.1440  178.7950  143.3000 C   0  0  0  0  0  2  0  0  0  0  0  0
  189.9290  177.7330  139.4960 N   0  0  0  0  0  0  0  0  0  0  0  0
  188.2220  177.6430  143.3210 C   0  0  0  0  0  0  0  0  0  0  0  0
  190.1640  177.3220  141.8660 C   0  0  0  0  0  3  0  0  0  0  0  0
  185.9250  178.7580  140.0200 C   0  0  0  0  0  3  0  0  0  0  0  0
  186.2120  178.0250  144.6180 N   0  0  0  0  0  0  0  0  0  0  0  0
  187.5370  177.6610  144.5730 C   0  0  0  0  0  0  0  0  0  0  0  0
  184.0770  179.0190  141.7550 C   0  0  2  0  0  3  0  0  0  0  0  0
  186.1910  178.3410  142.3060 N   0  0  0  0  0  0  0  0  0  0  0  0
  189.5780  177.2980  143.1510 C   0  0  0  0  0  3  0  0  0  0  0  0
  188.4430  177.8210  148.2780 C   0  0  0  0  0  0  0  0  0  0  0  0
  189.9390  177.7670  148.2230 C   0  0  0  0  0  2  0  0  0  0  0  0
  188.2090  177.2950  145.8640 C   0  0  2  0  0  3  0  0  0  0  0  0
  190.3840  176.9020  147.0460 C   0  0  0  0  0  2  0  0  0  0  0  0
  187.6750  178.1320  147.0300 C   0  0  0  0  0  2  0  0  0  0  0  0
  189.7340  177.3790  145.7480 C   0  0  0  0  0  2  0  0  0  0  0  0
  187.8600  177.6720  149.3380 O   0  0  0  0  0  0  0  0  0  0  0  0
  183.0740  178.0600  141.1350 C   0  0  0  0  0  2  0  0  0  0  0  0
  182.2810  178.7620  140.0450 C   0  0  0  0  0  2  0  0  0  0  0  0
  180.3060  178.6310  137.5960 C   0  0  0  0  0  1  0  0  0  0  0  0
  182.3360  177.9990  138.8080 N   0  0  0  0  0  0  0  0  0  0  0  0
  181.8240  178.6080  137.5720 C   0  0  1  0  0  3  0  0  0  0  0  0
  182.8760  176.6840  136.3960 C   0  0  0  0  0  3  0  0  0  0  0  0
  183.1510  176.0370  137.6850 C   0  0  0  0  0  3  0  0  0  0  0  0
  182.8990  176.6780  138.8240 C   0  0  0  0  0  3  0  0  0  0  0  0
  182.2870  177.8800  136.3370 C   0  0  0  0  0  3  0  0  0  0  0  0
  1  8  1  0  0  0  0
  1 12  1  0  0  0  0
  2 13  2  0  0  0  0
  2  8  1  0  0  0  0
  3 17  1  0  0  0  0
  3 11  1  0  0  0  0
  4 14  2  0  0  0  0
  5  6  2  0  0  0  0
  5 10  1  0  0  0  0
  6  2  1  0  0  0  0
  7 16  1  0  0  0  0
  7 17  1  0  0  0  0
  8  3  2  0  0  0  0
  9  4  1  0  0  0  0
 10  1  2  0  0  0  0
 11 15  2  0  0  0  0
 12 18  2  0  0  0  0
 13  7  1  0  0  0  0
 15 14  1  0  0  0  0
 16 26  1  6  0  0  0
 16  9  1  0  0  0  0
 17  4  1  0  0  0  0
 18 11  1  0  0  0  0
 19 25  2  0  0  0  0
 20 19  1  0  0  0  0
 21 15  1  6  0  0  0
 21 23  1  0  0  0  0
 22 20  1  0  0  0  0
 23 19  1  0  0  0  0
 24 21  1  0  0  0  0
 24 22  1  0  0  0  0
 27 26  1  0  0  0  0
 29 33  1  0  0  0  0
 29 27  1  0  0  0  0
 30 28  1  1  0  0  0
 30 29  1  0  0  0  0
 31 32  1  0  0  0  0
 32 33  2  0  0  0  0
 34 31  2  0  0  0  0
 34 30  1  0  0  0  0
M  END
>  <MODEL>
8

>  <REMARK>
 VINA RESULT:      -9.1      3.296      7.246
  Name = 
  4 active torsions:
  status: ('A' for Active; 'I' for Inactive)
    1  A    between atoms: C_3  and  N_13
    2  A    between atoms: C_3  and  C_17
    3  A    between atoms: C_12  and  C_28
    4  A    between atoms: C_17  and  C_29
                            x       y       z     vdW  Elec       q    Type
                         _______ _______ _______ _____ _____    ______ ____

>  <TORSDO>
F 4

$$$$
=
 OpenBabel10272400043D

 34 40  0  0  1  0  0  0  0  0999 V2000
  189.0130  177.3000  144.8590 C   0  0  0  0  0  0  0  0  0  0  0  0
  190.8360  177.0000  143.2890 C   0  0  0  0  0  0  0  0  0  0  0  0
  188.6790  177.7500  142.5130 C   0  0  0  0  0  0  0  0  0  0  0  0
  188.4940  178.1690  140.2150 C   0  0  0  0  0  0  0  0  0  0  0  0
  191.1420  176.5650  145.5950 C   0  0  0  0  0  3  0  0  0  0  0  0
  191.6310  176.6130  144.3200 N   0  0  0  0  0  0  0  0  0  0  0  0
  190.4370  177.4590  140.9840 N   0  0  0  0  0  0  0  0  0  0  0  0
  189.5020  177.3500  143.5530 C   0  0  0  0  0  0  0  0  0  0  0  0
  189.3300  178.1290  138.9810 C   0  0  0  0  0  2  0  0  0  0  0  0
  189.8450  176.9050  145.8590 N   0  0  0  0  0  0  0  0  0  0  0  0
  187.3450  178.1220  142.7240 C   0  0  0  0  0  0  0  0  0  0  0  0
  187.6760  177.6620  145.1050 C   0  0  0  0  0  3  0  0  0  0  0  0
  191.3090  177.0640  141.9610 C   0  0  0  0  0  3  0  0  0  0  0  0
  187.1920  178.5470  140.3450 N   0  0  0  0  0  0  0  0  0  0  0  0
  186.5930  178.5300  141.5820 C   0  0  0  0  0  0  0  0  0  0  0  0
  190.6930  177.6190  139.5520 C   0  0  2  0  0  3  0  0  0  0  0  0
  189.1930  177.7850  141.2710 N   0  0  0  0  0  0  0  0  0  0  0  0
  186.8440  178.0730  144.0410 C   0  0  0  0  0  3  0  0  0  0  0  0
  183.0030  178.6640  142.8740 C   0  0  0  0  0  0  0  0  0  0  0  0
  182.2230  178.5320  141.6030 C   0  0  0  0  0  2  0  0  0  0  0  0
  185.1550  178.9500  141.6710 C   0  0  2  0  0  3  0  0  0  0  0  0
  182.9770  179.2050  140.4580 C   0  0  0  0  0  2  0  0  0  0  0  0
  184.4600  178.3140  142.8790 C   0  0  0  0  0  2  0  0  0  0  0  0
  184.4060  178.6720  140.3650 C   0  0  0  0  0  2  0  0  0  0  0  0
  182.4470  178.9960  143.9070 O   0  0  0  0  0  0  0  0  0  0  0  0
  191.0430  176.2750  138.9340 C   0  0  0  0  0  2  0  0  0  0  0  0
  191.1120  176.3960  137.4210 C   0  0  0  0  0  2  0  0  0  0  0  0
  191.5320  173.4380  136.4230 C   0  0  0  0  0  1  0  0  0  0  0  0
  190.1950  175.4540  136.7960 N   0  0  0  0  0  0  0  0  0  0  0  0
  190.3150  174.0250  137.1170 C   0  0  1  0  0  3  0  0  0  0  0  0
  188.1410  173.7580  135.9360 C   0  0  0  0  0  3  0  0  0  0  0  0
  188.2160  175.1480  135.4690 C   0  0  0  0  0  3  0  0  0  0  0  0
  189.1910  175.9460  135.8950 C   0  0  0  0  0  3  0  0  0  0  0  0
  189.0920  173.2410  136.7150 C   0  0  0  0  0  3  0  0  0  0  0  0
  1 12  1  0  0  0  0
  1 10  2  0  0  0  0
  2  8  1  0  0  0  0
  2  6  1  0  0  0  0
  3 11  1  0  0  0  0
  3  8  2  0  0  0  0
  4 14  2  0  0  0  0
  4 17  1  0  0  0  0
  5 10  1  0  0  0  0
  6  5  2  0  0  0  0
  7 17  1  0  0  0  0
  7 13  1  0  0  0  0
  8  1  1  0  0  0  0
  9 16  1  0  0  0  0
  9  4  1  0  0  0  0
 11 18  1  0  0  0  0
 13  2  2  0  0  0  0
 14 15  1  0  0  0  0
 15 11  2  0  0  0  0
 16 26  1  6  0  0  0
 16  7  1  0  0  0  0
 17  3  1  0  0  0  0
 18 12  2  0  0  0  0
 19 23  1  0  0  0  0
 19 25  2  0  0  0  0
 20 19  1  0  0  0  0
 21 15  1  6  0  0  0
 21 23  1  0  0  0  0
 22 20  1  0  0  0  0
 24 22  1  0  0  0  0
 24 21  1  0  0  0  0
 27 26  1  0  0  0  0
 29 30  1  0  0  0  0
 29 27  1  0  0  0  0
 30 28  1  6  0  0  0
 31 34  2  0  0  0  0
 32 33  2  0  0  0  0
 32 31  1  0  0  0  0
 33 29  1  0  0  0  0
 34 30  1  0  0  0  0
M  END
>  <MODEL>
9

>  <REMARK>
 VINA RESULT:      -9.0      1.449      2.175
  Name = 
  4 active torsions:
  status: ('A' for Active; 'I' for Inactive)
    1  A    between atoms: C_3  and  N_13
    2  A    between atoms: C_3  and  C_17
    3  A    between atoms: C_12  and  C_28
    4  A    between atoms: C_17  and  C_29
                            x       y       z     vdW  Elec       q    Type
                         _______ _______ _______ _____ _____    ______ ____

>  <TORSDO>
F 4

$$$$
