=
 OpenBabel10272400033D

 34 41  0  0  1  0  0  0  0  0999 V2000
  188.3750  177.6450  138.5390 C   0  0  0  0  0  0  0  0  0  0  0  0
  189.0360  177.4280  140.8990 C   0  0  0  0  0  0  0  0  0  0  0  0
  186.9230  178.4740  140.2620 C   0  0  0  0  0  0  0  0  0  0  0  0
  185.2060  178.4840  141.8850 C   0  0  1  0  0  3  0  0  0  0  0  0
  190.5080  176.6550  139.1220 C   0  0  0  0  0  3  0  0  0  0  0  0
  190.2340  176.8320  140.4860 C   0  0  0  0  0  3  0  0  0  0  0  0
  187.3350  178.0440  142.6460 C   0  0  0  0  0  0  0  0  0  0  0  0
  188.1210  177.8650  139.9060 C   0  0  0  0  0  0  0  0  0  0  0  0
  185.1420  178.4270  143.4030 C   0  0  0  0  0  2  0  0  0  0  0  0
  189.5790  177.0510  138.1510 C   0  0  0  0  0  3  0  0  0  0  0  0
  185.9290  178.7430  139.3170 C   0  0  0  0  0  0  0  0  0  0  0  0
  187.3930  177.9920  137.5950 C   0  0  0  0  0  3  0  0  0  0  0  0
  188.7350  177.5390  142.3910 C   0  0  0  0  0  2  0  0  0  0  0  0
  184.4380  179.4190  141.1640 O   0  0  0  0  0  0  0  0  0  0  0  0
  184.5910  179.0740  139.8310 N   0  0  0  0  0  0  0  0  0  0  0  0
  186.5170  177.8680  143.6880 C   0  0  0  0  0  0  0  0  0  0  0  0
  186.6340  178.8420  141.6480 C   0  0  1  0  0  3  0  0  0  0  0  0
  186.1920  178.5080  138.0000 N   0  0  0  0  0  0  0  0  0  0  0  0
  181.7120  177.4180  138.0540 C   0  0  0  0  0  0  0  0  0  0  0  0
  181.0190  178.5330  137.5810 C   0  0  0  0  0  3  0  0  0  0  0  0
  183.3910  178.8710  139.0560 C   0  0  0  0  0  0  0  0  0  0  0  0
  181.5030  179.8170  137.8410 C   0  0  0  0  0  3  0  0  0  0  0  0
  182.8870  177.5860  138.7910 C   0  0  0  0  0  3  0  0  0  0  0  0
  182.6800  179.9830  138.5770 C   0  0  0  0  0  3  0  0  0  0  0  0
  181.2430  176.1710  137.8060 F   0  0  0  0  0  0  0  0  0  0  0  0
  186.8270  177.1500  144.8890 N   0  0  0  0  0  2  0  0  0  0  0  0
  187.6290  177.6910  145.9740 C   0  0  0  0  0  2  0  0  0  0  0  0
  190.0400  178.7680  145.0400 F   0  0  0  0  0  0  0  0  0  0  0  0
  188.8580  176.8260  146.1790 C   0  0  1  0  0  3  0  0  0  0  0  0
  190.0920  177.5080  145.6140 C   0  0  2  0  0  0  0  0  0  0  0  0
  191.7650  176.5260  146.6630 C   0  0  0  0  0  2  0  0  0  0  0  0
  190.7570  176.6350  147.6350 O   0  0  0  0  0  0  0  0  0  0  0  0
  189.8520  177.5450  147.0890 C   0  0  2  0  0  3  0  0  0  0  0  0
  191.2190  176.7220  145.3840 O   0  0  0  0  0  0  0  0  0  0  0  0
  1  8  1  0  0  0  0
  2 13  1  0  0  0  0
  4  9  1  1  0  0  0
  5  6  2  0  0  0  0
  6  2  1  0  0  0  0
  7 16  2  0  0  0  0
  8  3  1  0  0  0  0
  8  2  2  0  0  0  0
  9 16  1  0  0  0  0
 10  1  2  0  0  0  0
 10  5  1  0  0  0  0
 11 15  1  0  0  0  0
 11  3  2  0  0  0  0
 12 18  2  0  0  0  0
 12  1  1  0  0  0  0
 13  7  1  0  0  0  0
 14  4  1  0  0  0  0
 15 14  1  0  0  0  0
 16 26  1  0  0  0  0
 17  3  1  6  0  0  0
 17  4  1  0  0  0  0
 17  7  1  0  0  0  0
 18 11  1  0  0  0  0
 19 23  1  0  0  0  0
 20 22  1  0  0  0  0
 20 19  2  0  0  0  0
 21 15  1  0  0  0  0
 22 24  2  0  0  0  0
 23 21  2  0  0  0  0
 24 21  1  0  0  0  0
 25 19  1  0  0  0  0
 26 27  1  0  0  0  0
 29 27  1  6  0  0  0
 29 33  1  0  0  0  0
 30 28  1  6  0  0  0
 30 29  1  0  0  0  0
 30 33  1  0  0  0  0
 31 32  1  0  0  0  0
 33 32  1  1  0  0  0
 34 30  1  0  0  0  0
 34 31  1  0  0  0  0
M  END
>  <MODEL>
1

>  <REMARK>
 VINA RESULT:      -9.3      0.000      0.000
  Name = 
  4 active torsions:
  status: ('A' for Active; 'I' for Inactive)
    1  A    between atoms: C_3  and  C_13
    2  A    between atoms: C_3  and  N_17
    3  A    between atoms: C_12  and  N_28
    4  A    between atoms: N_17  and  C_29
                            x       y       z     vdW  Elec       q    Type
                         _______ _______ _______ _____ _____    ______ ____

>  <TORSDO>
F 4

$$$$
=
 OpenBabel10272400033D

 34 41  0  0  1  0  0  0  0  0999 V2000
  187.8110  177.5570  143.9870 C   0  0  0  0  0  0  0  0  0  0  0  0
  185.5060  178.3970  143.7980 C   0  0  0  0  0  0  0  0  0  0  0  0
  187.0160  178.3840  141.8780 C   0  0  0  0  0  0  0  0  0  0  0  0
  186.0170  178.3680  139.7360 C   0  0  1  0  0  3  0  0  0  0  0  0
  186.3680  177.6080  145.9320 C   0  0  0  0  0  3  0  0  0  0  0  0
  185.3230  178.1370  145.1620 C   0  0  0  0  0  3  0  0  0  0  0  0
  184.6570  178.9610  141.4990 C   0  0  0  0  0  0  0  0  0  0  0  0
  186.7760  178.1320  143.2240 C   0  0  0  0  0  0  0  0  0  0  0  0
  184.6870  178.8160  139.1520 C   0  0  0  0  0  2  0  0  0  0  0  0
  187.6050  177.3100  145.3470 C   0  0  0  0  0  3  0  0  0  0  0  0
  188.1910  177.9610  141.2500 C   0  0  0  0  0  0  0  0  0  0  0  0
  189.0160  177.2070  143.3540 C   0  0  0  0  0  3  0  0  0  0  0  0
  184.3270  178.9040  142.9710 C   0  0  0  0  0  2  0  0  0  0  0  0
  187.2300  178.6820  139.0950 O   0  0  0  0  0  0  0  0  0  0  0  0
  188.2060  177.9750  139.7800 N   0  0  0  0  0  0  0  0  0  0  0  0
  183.8690  178.8880  140.4220 C   0  0  0  0  0  0  0  0  0  0  0  0
  186.0370  179.0830  141.0450 C   0  0  1  0  0  3  0  0  0  0  0  0
  189.1720  177.3920  142.0070 N   0  0  0  0  0  0  0  0  0  0  0  0
  191.2950  176.3020  138.4210 C   0  0  0  0  0  0  0  0  0  0  0  0
  190.7300  175.4180  137.4990 C   0  0  0  0  0  3  0  0  0  0  0  0
  189.0780  177.1270  139.0040 C   0  0  0  0  0  0  0  0  0  0  0  0
  189.3450  175.3810  137.3260 C   0  0  0  0  0  3  0  0  0  0  0  0
  190.4730  177.1470  139.1710 C   0  0  0  0  0  3  0  0  0  0  0  0
  188.5250  176.2290  138.0770 C   0  0  0  0  0  3  0  0  0  0  0  0
  192.6380  176.3360  138.5940 F   0  0  0  0  0  0  0  0  0  0  0  0
  182.4410  178.7740  140.4300 N   0  0  0  0  0  2  0  0  0  0  0  0
  181.7280  177.5340  140.6880 C   0  0  0  0  0  2  0  0  0  0  0  0
  183.2860  175.7160  139.2350 F   0  0  0  0  0  0  0  0  0  0  0  0
  181.1110  177.0240  139.3980 C   0  0  1  0  0  3  0  0  0  0  0  0
  182.0590  176.0670  138.6960 C   0  0  2  0  0  0  0  0  0  0  0  0
  180.7410  174.9030  137.3650 C   0  0  0  0  0  2  0  0  0  0  0  0
  179.9830  175.0910  138.5320 O   0  0  0  0  0  0  0  0  0  0  0  0
  180.9140  175.5120  139.4810 C   0  0  2  0  0  3  0  0  0  0  0  0
  181.8250  175.7950  137.3500 O   0  0  0  0  0  0  0  0  0  0  0  0
  1 10  2  0  0  0  0
  2  6  1  0  0  0  0
  3  8  1  0  0  0  0
  4  9  1  6  0  0  0
  4 17  1  0  0  0  0
  6  5  2  0  0  0  0
  7 13  1  0  0  0  0
  8  2  2  0  0  0  0
  8  1  1  0  0  0  0
  9 16  1  0  0  0  0
 10  5  1  0  0  0  0
 11  3  2  0  0  0  0
 11 18  1  0  0  0  0
 12  1  1  0  0  0  0
 13  2  1  0  0  0  0
 14  4  1  0  0  0  0
 14 15  1  0  0  0  0
 15 11  1  0  0  0  0
 16 26  1  0  0  0  0
 16  7  2  0  0  0  0
 17  7  1  1  0  0  0
 17  3  1  0  0  0  0
 18 12  2  0  0  0  0
 19 25  1  0  0  0  0
 19 23  1  0  0  0  0
 20 19  2  0  0  0  0
 21 23  2  0  0  0  0
 21 15  1  0  0  0  0
 22 20  1  0  0  0  0
 22 24  2  0  0  0  0
 24 21  1  0  0  0  0
 26 27  1  0  0  0  0
 29 33  1  0  0  0  0
 29 27  1  1  0  0  0
 30 28  1  1  0  0  0
 30 29  1  0  0  0  0
 30 33  1  0  0  0  0
 31 32  1  0  0  0  0
 33 32  1  6  0  0  0
 34 31  1  0  0  0  0
 34 30  1  0  0  0  0
M  END
>  <MODEL>
2

>  <REMARK>
 VINA RESULT:      -8.9      3.117      7.822
  Name = 
  4 active torsions:
  status: ('A' for Active; 'I' for Inactive)
    1  A    between atoms: C_3  and  C_13
    2  A    between atoms: C_3  and  N_17
    3  A    between atoms: C_12  and  N_28
    4  A    between atoms: N_17  and  C_29
                            x       y       z     vdW  Elec       q    Type
                         _______ _______ _______ _____ _____    ______ ____

>  <TORSDO>
F 4

$$$$
=
 OpenBabel10272400033D

 34 41  0  0  1  0  0  0  0  0999 V2000
  185.7040  178.3230  144.6170 C   0  0  0  0  0  0  0  0  0  0  0  0
  185.4710  178.5970  142.1830 C   0  0  0  0  0  0  0  0  0  0  0  0
  187.6670  178.3980  143.2350 C   0  0  0  0  0  0  0  0  0  0  0  0
  189.4370  177.6260  141.8730 C   0  0  1  0  0  3  0  0  0  0  0  0
  183.5100  178.5790  143.6220 C   0  0  0  0  0  3  0  0  0  0  0  0
  184.0830  178.6660  142.3450 C   0  0  0  0  0  3  0  0  0  0  0  0
  187.5470  178.3640  140.7810 C   0  0  0  0  0  0  0  0  0  0  0  0
  186.2810  178.4580  143.3400 C   0  0  0  0  0  0  0  0  0  0  0  0
  189.7450  177.6270  140.3840 C   0  0  0  0  0  2  0  0  0  0  0  0
  184.3160  178.3990  144.7540 C   0  0  0  0  0  3  0  0  0  0  0  0
  188.4710  178.0760  144.3320 C   0  0  0  0  0  0  0  0  0  0  0  0
  186.5360  178.0750  145.7220 C   0  0  0  0  0  3  0  0  0  0  0  0
  186.0590  178.6220  140.7740 C   0  0  0  0  0  2  0  0  0  0  0  0
  190.4140  178.0050  142.8130 O   0  0  0  0  0  0  0  0  0  0  0  0
  189.8690  177.7130  144.0530 N   0  0  0  0  0  0  0  0  0  0  0  0
  188.3520  177.8560  139.8430 C   0  0  0  0  0  0  0  0  0  0  0  0
  188.3490  178.6430  141.9650 C   0  0  1  0  0  3  0  0  0  0  0  0
  187.8870  177.9350  145.5570 N   0  0  0  0  0  0  0  0  0  0  0  0
  192.1390  175.0080  145.3640 C   0  0  0  0  0  0  0  0  0  0  0  0
  192.1950  175.3460  146.7170 C   0  0  0  0  0  3  0  0  0  0  0  0
  190.6500  176.8900  144.9440 C   0  0  0  0  0  0  0  0  0  0  0  0
  191.4850  176.4520  147.1910 C   0  0  0  0  0  3  0  0  0  0  0  0
  191.3750  175.7780  144.4830 C   0  0  0  0  0  3  0  0  0  0  0  0
  190.7200  177.2200  146.3070 C   0  0  0  0  0  3  0  0  0  0  0  0
  192.8290  173.9380  144.9030 F   0  0  0  0  0  0  0  0  0  0  0  0
  187.9590  177.4590  138.5230 N   0  0  0  0  0  2  0  0  0  0  0  0
  188.8930  177.2320  137.4330 C   0  0  0  0  0  2  0  0  0  0  0  0
  190.5310  176.4920  135.2840 F   0  0  0  0  0  0  0  0  0  0  0  0
  189.1560  175.7450  137.2890 C   0  0  1  0  0  3  0  0  0  0  0  0
  190.0350  175.4720  136.0810 C   0  0  2  0  0  0  0  0  0  0  0  0
  190.9000  173.4860  136.4940 C   0  0  0  0  0  2  0  0  0  0  0  0
  190.8630  174.1210  137.7470 O   0  0  0  0  0  0  0  0  0  0  0  0
  190.6500  175.4650  137.4440 C   0  0  2  0  0  3  0  0  0  0  0  0
  190.0740  174.1700  135.5880 O   0  0  0  0  0  0  0  0  0  0  0  0
  1 10  1  0  0  0  0
  1 12  1  0  0  0  0
  2  6  2  0  0  0  0
  2  8  1  0  0  0  0
  3  8  1  0  0  0  0
  3 11  2  0  0  0  0
  4  9  1  6  0  0  0
  4 17  1  0  0  0  0
  4 14  1  0  0  0  0
  5 10  2  0  0  0  0
  6  5  1  0  0  0  0
  8  1  2  0  0  0  0
 11 18  1  0  0  0  0
 13  7  1  0  0  0  0
 13  2  1  0  0  0  0
 14 15  1  0  0  0  0
 15 11  1  0  0  0  0
 15 21  1  0  0  0  0
 16  9  1  0  0  0  0
 16  7  2  0  0  0  0
 17  7  1  6  0  0  0
 17  3  1  0  0  0  0
 18 12  2  0  0  0  0
 19 20  1  0  0  0  0
 20 22  2  0  0  0  0
 21 24  2  0  0  0  0
 23 21  1  0  0  0  0
 23 19  2  0  0  0  0
 24 22  1  0  0  0  0
 25 19  1  0  0  0  0
 26 16  1  0  0  0  0
 27 26  1  0  0  0  0
 29 27  1  6  0  0  0
 29 33  1  0  0  0  0
 30 28  1  6  0  0  0
 30 29  1  0  0  0  0
 30 33  1  0  0  0  0
 31 32  1  0  0  0  0
 33 32  1  1  0  0  0
 34 30  1  0  0  0  0
 34 31  1  0  0  0  0
M  END
>  <MODEL>
3

>  <REMARK>
 VINA RESULT:      -8.9      3.323      8.619
  Name = 
  4 active torsions:
  status: ('A' for Active; 'I' for Inactive)
    1  A    between atoms: C_3  and  C_13
    2  A    between atoms: C_3  and  N_17
    3  A    between atoms: C_12  and  N_28
    4  A    between atoms: N_17  and  C_29
                            x       y       z     vdW  Elec       q    Type
                         _______ _______ _______ _____ _____    ______ ____

>  <TORSDO>
F 4

$$$$
=
 OpenBabel10272400033D

 34 41  0  0  1  0  0  0  0  0999 V2000
  185.8170  178.3230  144.9130 C   0  0  0  0  0  0  0  0  0  0  0  0
  185.3660  178.7020  142.5240 C   0  0  0  0  0  0  0  0  0  0  0  0
  187.6450  178.4220  143.3590 C   0  0  0  0  0  0  0  0  0  0  0  0
  189.2650  177.6790  141.8070 C   0  0  1  0  0  3  0  0  0  0  0  0
  183.5460  178.6570  144.1390 C   0  0  0  0  0  3  0  0  0  0  0  0
  184.0000  178.7880  142.8180 C   0  0  0  0  0  3  0  0  0  0  0  0
  187.2970  178.4930  140.9270 C   0  0  0  0  0  0  0  0  0  0  0  0
  186.2760  178.5020  143.5940 C   0  0  0  0  0  0  0  0  0  0  0  0
  189.4340  177.7370  140.2970 C   0  0  0  0  0  2  0  0  0  0  0  0
  184.4500  178.4160  145.1820 C   0  0  0  0  0  3  0  0  0  0  0  0
  188.5400  178.0420  144.3620 C   0  0  0  0  0  0  0  0  0  0  0  0
  186.7430  178.0160  145.9250 C   0  0  0  0  0  3  0  0  0  0  0  0
  185.8210  178.7760  141.0690 C   0  0  0  0  0  2  0  0  0  0  0  0
  190.3320  178.0020  142.6660 O   0  0  0  0  0  0  0  0  0  0  0  0
  189.8980  177.6680  143.9390 N   0  0  0  0  0  0  0  0  0  0  0  0
  188.0010  178.0110  139.8980 C   0  0  0  0  0  0  0  0  0  0  0  0
  188.2110  178.7090  142.0410 C   0  0  1  0  0  3  0  0  0  0  0  0
  188.0700  177.8590  145.6290 N   0  0  0  0  0  0  0  0  0  0  0  0
  191.7750  176.1440  146.8280 C   0  0  0  0  0  0  0  0  0  0  0  0
  192.3570  175.0360  146.2070 C   0  0  0  0  0  3  0  0  0  0  0  0
  190.7410  176.7950  144.7200 C   0  0  0  0  0  0  0  0  0  0  0  0
  192.1350  174.8010  144.8490 C   0  0  0  0  0  3  0  0  0  0  0  0
  190.9700  177.0140  146.0890 C   0  0  0  0  0  3  0  0  0  0  0  0
  191.3300  175.6750  144.1120 C   0  0  0  0  0  3  0  0  0  0  0  0
  191.9860  176.3710  148.1460 F   0  0  0  0  0  0  0  0  0  0  0  0
  187.4800  177.6760  138.6060 N   0  0  0  0  0  2  0  0  0  0  0  0
  188.3080  177.3790  137.4490 C   0  0  0  0  0  2  0  0  0  0  0  0
  189.7290  176.5060  135.1980 F   0  0  0  0  0  0  0  0  0  0  0  0
  188.5190  175.8790  137.3450 C   0  0  1  0  0  3  0  0  0  0  0  0
  189.2800  175.5330  136.0770 C   0  0  2  0  0  0  0  0  0  0  0  0
  190.1250  173.5400  136.4970 C   0  0  0  0  0  2  0  0  0  0  0  0
  190.2170  174.2250  137.7200 O   0  0  0  0  0  0  0  0  0  0  0  0
  190.0120  175.5620  137.3800 C   0  0  2  0  0  3  0  0  0  0  0  0
  189.2410  174.2120  135.6380 O   0  0  0  0  0  0  0  0  0  0  0  0
  1 10  1  0  0  0  0
  1 12  1  0  0  0  0
  2  6  2  0  0  0  0
  2  8  1  0  0  0  0
  3  8  1  0  0  0  0
  3 11  2  0  0  0  0
  4  9  1  6  0  0  0
  4 17  1  0  0  0  0
  4 14  1  0  0  0  0
  5 10  2  0  0  0  0
  6  5  1  0  0  0  0
  7 13  1  0  0  0  0
  8  1  2  0  0  0  0
 11 18  1  0  0  0  0
 13  2  1  0  0  0  0
 14 15  1  0  0  0  0
 15 11  1  0  0  0  0
 15 21  1  0  0  0  0
 16  9  1  0  0  0  0
 16  7  2  0  0  0  0
 17  7  1  6  0  0  0
 17  3  1  0  0  0  0
 18 12  2  0  0  0  0
 19 25  1  0  0  0  0
 20 19  1  0  0  0  0
 21 23  1  0  0  0  0
 22 20  2  0  0  0  0
 23 19  2  0  0  0  0
 24 21  2  0  0  0  0
 24 22  1  0  0  0  0
 26 16  1  0  0  0  0
 27 26  1  0  0  0  0
 29 33  1  0  0  0  0
 29 27  1  6  0  0  0
 30 28  1  6  0  0  0
 30 29  1  0  0  0  0
 30 33  1  0  0  0  0
 31 32  1  0  0  0  0
 33 32  1  1  0  0  0
 34 30  1  0  0  0  0
 34 31  1  0  0  0  0
M  END
>  <MODEL>
4

>  <REMARK>
 VINA RESULT:      -8.9      3.229      8.707
  Name = 
  4 active torsions:
  status: ('A' for Active; 'I' for Inactive)
    1  A    between atoms: C_3  and  C_13
    2  A    between atoms: C_3  and  N_17
    3  A    between atoms: C_12  and  N_28
    4  A    between atoms: N_17  and  C_29
                            x       y       z     vdW  Elec       q    Type
                         _______ _______ _______ _____ _____    ______ ____

>  <TORSDO>
F 4

$$$$
=
 OpenBabel10272400033D

 34 41  0  0  1  0  0  0  0  0999 V2000
  188.5140  177.5330  144.4280 C   0  0  0  0  0  0  0  0  0  0  0  0
  186.1260  178.1280  144.4490 C   0  0  0  0  0  0  0  0  0  0  0  0
  187.4690  178.3300  142.4180 C   0  0  0  0  0  0  0  0  0  0  0  0
  186.3080  178.2670  140.3610 C   0  0  1  0  0  3  0  0  0  0  0  0
  187.2350  177.3760  146.4800 C   0  0  0  0  0  3  0  0  0  0  0  0
  186.0820  177.8120  145.8120 C   0  0  0  0  0  3  0  0  0  0  0  0
  185.0410  178.6630  142.2440 C   0  0  0  0  0  0  0  0  0  0  0  0
  187.3670  178.0160  143.7690 C   0  0  0  0  0  0  0  0  0  0  0  0
  184.8950  178.5870  139.8980 C   0  0  0  0  0  2  0  0  0  0  0  0
  188.4450  177.2280  145.7900 C   0  0  0  0  0  3  0  0  0  0  0  0
  188.6270  178.0520  141.6870 C   0  0  0  0  0  0  0  0  0  0  0  0
  189.6940  177.3320  143.6910 C   0  0  0  0  0  3  0  0  0  0  0  0
  184.8380  178.5290  143.7340 C   0  0  0  0  0  2  0  0  0  0  0  0
  187.4260  178.7270  139.6400 O   0  0  0  0  0  0  0  0  0  0  0  0
  188.5220  178.1090  140.2210 N   0  0  0  0  0  0  0  0  0  0  0  0
  184.1800  178.5360  141.2290 C   0  0  0  0  0  0  0  0  0  0  0  0
  186.3590  178.9430  141.6900 C   0  0  1  0  0  3  0  0  0  0  0  0
  189.7210  177.5710  142.3440 N   0  0  0  0  0  0  0  0  0  0  0  0
  191.6410  176.6340  138.7100 C   0  0  0  0  0  0  0  0  0  0  0  0
  191.1000  175.9060  137.6490 C   0  0  0  0  0  3  0  0  0  0  0  0
  189.4120  177.3810  139.3500 C   0  0  0  0  0  0  0  0  0  0  0  0
  189.7200  175.9090  137.4330 C   0  0  0  0  0  3  0  0  0  0  0  0
  190.8020  177.3630  139.5570 C   0  0  0  0  0  3  0  0  0  0  0  0
  188.8830  176.6400  138.2810 C   0  0  0  0  0  3  0  0  0  0  0  0
  192.9790  176.6300  138.9230 F   0  0  0  0  0  0  0  0  0  0  0  0
  182.7770  178.2700  141.3440 N   0  0  0  0  0  2  0  0  0  0  0  0
  181.8300  178.4210  140.2520 C   0  0  0  0  0  2  0  0  0  0  0  0
  182.6320  179.4440  137.7700 F   0  0  0  0  0  0  0  0  0  0  0  0
  181.5470  179.8950  140.0250 C   0  0  1  0  0  3  0  0  0  0  0  0
  182.0450  180.3310  138.6580 C   0  0  2  0  0  0  0  0  0  0  0  0
  180.8930  182.1630  138.2360 C   0  0  0  0  0  2  0  0  0  0  0  0
  179.9820  181.3190  138.8920 O   0  0  0  0  0  0  0  0  0  0  0  0
  180.5870  180.0630  138.8490 C   0  0  2  0  0  3  0  0  0  0  0  0
  182.2030  181.6960  138.4310 O   0  0  0  0  0  0  0  0  0  0  0  0
  1 10  2  0  0  0  0
  2  6  1  0  0  0  0
  3  8  1  0  0  0  0
  4  9  1  6  0  0  0
  4 17  1  0  0  0  0
  6  5  2  0  0  0  0
  7 13  1  0  0  0  0
  8  1  1  0  0  0  0
  8  2  2  0  0  0  0
  9 16  1  0  0  0  0
 10  5  1  0  0  0  0
 11 18  1  0  0  0  0
 11  3  2  0  0  0  0
 12  1  1  0  0  0  0
 13  2  1  0  0  0  0
 14 15  1  0  0  0  0
 14  4  1  0  0  0  0
 15 11  1  0  0  0  0
 16 26  1  0  0  0  0
 16  7  2  0  0  0  0
 17  7  1  1  0  0  0
 17  3  1  0  0  0  0
 18 12  2  0  0  0  0
 19 25  1  0  0  0  0
 19 23  1  0  0  0  0
 20 19  2  0  0  0  0
 21 23  2  0  0  0  0
 21 15  1  0  0  0  0
 22 20  1  0  0  0  0
 22 24  2  0  0  0  0
 24 21  1  0  0  0  0
 27 26  1  0  0  0  0
 29 27  1  6  0  0  0
 30 28  1  6  0  0  0
 30 33  1  0  0  0  0
 30 29  1  0  0  0  0
 31 34  1  0  0  0  0
 31 32  1  0  0  0  0
 33 32  1  1  0  0  0
 33 29  1  0  0  0  0
 34 30  1  0  0  0  0
M  END
>  <MODEL>
5

>  <REMARK>
 VINA RESULT:      -8.9      2.932      8.000
  Name = 
  4 active torsions:
  status: ('A' for Active; 'I' for Inactive)
    1  A    between atoms: C_3  and  C_13
    2  A    between atoms: C_3  and  N_17
    3  A    between atoms: C_12  and  N_28
    4  A    between atoms: N_17  and  C_29
                            x       y       z     vdW  Elec       q    Type
                         _______ _______ _______ _____ _____    ______ ____

>  <TORSDO>
F 4

$$$$
=
 OpenBabel10272400033D

 34 41  0  0  1  0  0  0  0  0999 V2000
  190.7850  177.0770  141.5510 C   0  0  0  0  0  0  0  0  0  0  0  0
  189.0230  177.7550  139.9730 C   0  0  0  0  0  0  0  0  0  0  0  0
  188.5050  177.1980  142.2940 C   0  0  0  0  0  0  0  0  0  0  0  0
  186.5240  178.1180  143.1950 C   0  0  1  0  0  3  0  0  0  0  0  0
  191.3360  177.5610  139.2420 C   0  0  0  0  0  3  0  0  0  0  0  0
  189.9930  177.8560  138.9680 C   0  0  0  0  0  3  0  0  0  0  0  0
  186.7180  178.1470  140.9000 C   0  0  0  0  0  0  0  0  0  0  0  0
  189.4300  177.3280  141.2630 C   0  0  0  0  0  0  0  0  0  0  0  0
  185.2000  178.6120  142.6340 C   0  0  0  0  0  2  0  0  0  0  0  0
  191.7340  177.1820  140.5300 C   0  0  0  0  0  3  0  0  0  0  0  0
  188.9050  176.9610  143.6120 C   0  0  0  0  0  0  0  0  0  0  0  0
  191.1600  176.7650  142.8690 C   0  0  0  0  0  3  0  0  0  0  0  0
  187.5830  178.1540  139.6610 C   0  0  0  0  0  2  0  0  0  0  0  0
  186.5610  177.2690  144.3170 O   0  0  0  0  0  0  0  0  0  0  0  0
  187.8990  177.1700  144.6640 N   0  0  0  0  0  0  0  0  0  0  0  0
  185.6050  178.8260  141.1930 C   0  0  0  0  0  0  0  0  0  0  0  0
  187.0680  177.3280  142.0530 C   0  0  1  0  0  3  0  0  0  0  0  0
  190.2260  176.7360  143.8680 N   0  0  0  0  0  0  0  0  0  0  0  0
  189.8830  177.6040  147.8360 C   0  0  0  0  0  0  0  0  0  0  0  0
  188.9060  178.1200  148.6880 C   0  0  0  0  0  3  0  0  0  0  0  0
  188.2540  177.4720  146.0290 C   0  0  0  0  0  0  0  0  0  0  0  0
  187.6050  178.3170  148.2200 C   0  0  0  0  0  3  0  0  0  0  0  0
  189.5600  177.2860  146.5140 C   0  0  0  0  0  3  0  0  0  0  0  0
  187.2840  177.9960  146.8970 C   0  0  0  0  0  3  0  0  0  0  0  0
  191.1470  177.4160  148.2870 F   0  0  0  0  0  0  0  0  0  0  0  0
  184.9210  179.7370  140.3240 N   0  0  0  0  0  2  0  0  0  0  0  0
  183.6650  179.4340  139.6580 C   0  0  0  0  0  2  0  0  0  0  0  0
  183.1090  176.6990  139.8970 F   0  0  0  0  0  0  0  0  0  0  0  0
  183.9340  178.5980  138.4200 C   0  0  1  0  0  3  0  0  0  0  0  0
  183.6140  177.1370  138.6830 C   0  0  2  0  0  0  0  0  0  0  0  0
  183.3200  176.2900  136.6680 C   0  0  0  0  0  2  0  0  0  0  0  0
  182.7580  177.5760  136.5940 O   0  0  0  0  0  0  0  0  0  0  0  0
  182.6320  177.9710  137.9260 C   0  0  2  0  0  3  0  0  0  0  0  0
  184.1380  176.1910  137.8050 O   0  0  0  0  0  0  0  0  0  0  0  0
  1 12  1  0  0  0  0
  2  8  1  0  0  0  0
  3 11  2  0  0  0  0
  4  9  1  6  0  0  0
  4 14  1  0  0  0  0
  5 10  2  0  0  0  0
  6  5  1  0  0  0  0
  6  2  2  0  0  0  0
  7 16  2  0  0  0  0
  8  1  2  0  0  0  0
  8  3  1  0  0  0  0
 10  1  1  0  0  0  0
 11 18  1  0  0  0  0
 11 15  1  0  0  0  0
 12 18  2  0  0  0  0
 13  2  1  0  0  0  0
 13  7  1  0  0  0  0
 14 15  1  0  0  0  0
 15 21  1  0  0  0  0
 16  9  1  0  0  0  0
 17  7  1  6  0  0  0
 17  3  1  0  0  0  0
 17  4  1  0  0  0  0
 19 25  1  0  0  0  0
 19 20  1  0  0  0  0
 21 23  1  0  0  0  0
 21 24  2  0  0  0  0
 22 20  2  0  0  0  0
 23 19  2  0  0  0  0
 24 22  1  0  0  0  0
 26 16  1  0  0  0  0
 27 26  1  0  0  0  0
 29 30  1  0  0  0  0
 29 27  1  1  0  0  0
 30 28  1  1  0  0  0
 31 34  1  0  0  0  0
 32 31  1  0  0  0  0
 33 32  1  6  0  0  0
 33 29  1  0  0  0  0
 33 30  1  0  0  0  0
 34 30  1  0  0  0  0
M  END
>  <MODEL>
6

>  <REMARK>
 VINA RESULT:      -8.7      2.068      8.011
  Name = 
  4 active torsions:
  status: ('A' for Active; 'I' for Inactive)
    1  A    between atoms: C_3  and  C_13
    2  A    between atoms: C_3  and  N_17
    3  A    between atoms: C_12  and  N_28
    4  A    between atoms: N_17  and  C_29
                            x       y       z     vdW  Elec       q    Type
                         _______ _______ _______ _____ _____    ______ ____

>  <TORSDO>
F 4

$$$$
=
 OpenBabel10272400033D

 34 41  0  0  1  0  0  0  0  0999 V2000
  189.0080  177.1320  146.8240 C   0  0  0  0  0  0  0  0  0  0  0  0
  190.9610  176.8410  145.3560 C   0  0  0  0  0  0  0  0  0  0  0  0
  188.6870  176.8390  144.4630 C   0  0  0  0  0  0  0  0  0  0  0  0
  188.4360  177.4070  142.1830 C   0  0  1  0  0  3  0  0  0  0  0  0
  191.2410  177.0790  147.7610 C   0  0  0  0  0  3  0  0  0  0  0  0
  191.7900  176.9130  146.4810 C   0  0  0  0  0  3  0  0  0  0  0  0
  190.5600  176.8420  142.8730 C   0  0  0  0  0  0  0  0  0  0  0  0
  189.5570  176.9180  145.5450 C   0  0  0  0  0  0  0  0  0  0  0  0
  189.3150  177.3490  140.9430 C   0  0  0  0  0  2  0  0  0  0  0  0
  189.8560  177.1970  147.9320 C   0  0  0  0  0  3  0  0  0  0  0  0
  187.3200  177.0970  144.6000 C   0  0  0  0  0  0  0  0  0  0  0  0
  187.6200  177.3140  146.9530 C   0  0  0  0  0  3  0  0  0  0  0  0
  191.5920  176.7340  143.9700 C   0  0  0  0  0  2  0  0  0  0  0  0
  187.1050  176.9480  142.1460 O   0  0  0  0  0  0  0  0  0  0  0  0
  186.5540  177.3140  143.3640 N   0  0  0  0  0  0  0  0  0  0  0  0
  190.6710  177.2520  141.6050 C   0  0  0  0  0  0  0  0  0  0  0  0
  189.1650  176.5050  143.1210 C   0  0  1  0  0  3  0  0  0  0  0  0
  186.8140  177.3170  145.8470 N   0  0  0  0  0  0  0  0  0  0  0  0
  183.2810  178.7880  142.2210 C   0  0  0  0  0  0  0  0  0  0  0  0
  182.9170  179.5260  143.3490 C   0  0  0  0  0  3  0  0  0  0  0  0
  185.3250  178.0700  143.3350 C   0  0  0  0  0  0  0  0  0  0  0  0
  183.7480  179.5390  144.4720 C   0  0  0  0  0  3  0  0  0  0  0  0
  184.4750  178.0630  142.2160 C   0  0  0  0  0  3  0  0  0  0  0  0
  184.9430  178.8130  144.4640 C   0  0  0  0  0  3  0  0  0  0  0  0
  182.4750  178.7710  141.1320 F   0  0  0  0  0  0  0  0  0  0  0  0
  191.8800  177.6630  140.9560 N   0  0  0  0  0  2  0  0  0  0  0  0
  192.0790  177.6350  139.5170 C   0  0  0  0  0  2  0  0  0  0  0  0
  190.2250  176.8350  137.5750 F   0  0  0  0  0  0  0  0  0  0  0  0
  192.1980  176.1960  139.0480 C   0  0  1  0  0  3  0  0  0  0  0  0
  191.1290  175.8810  138.0160 C   0  0  2  0  0  0  0  0  0  0  0  0
  191.9270  174.1240  136.9490 C   0  0  0  0  0  2  0  0  0  0  0  0
  193.0540  174.9220  137.2020 O   0  0  0  0  0  0  0  0  0  0  0  0
  192.5230  176.1630  137.5560 C   0  0  2  0  0  3  0  0  0  0  0  0
  190.8550  174.5400  137.7550 O   0  0  0  0  0  0  0  0  0  0  0  0
  1 12  1  0  0  0  0
  1 10  2  0  0  0  0
  2  8  2  0  0  0  0
  2  6  1  0  0  0  0
  3 11  2  0  0  0  0
  3  8  1  0  0  0  0
  4  9  1  6  0  0  0
  4 17  1  0  0  0  0
  5 10  1  0  0  0  0
  6  5  2  0  0  0  0
  7 13  1  0  0  0  0
  8  1  1  0  0  0  0
  9 16  1  0  0  0  0
 11 18  1  0  0  0  0
 13  2  1  0  0  0  0
 14  4  1  0  0  0  0
 14 15  1  0  0  0  0
 15 11  1  0  0  0  0
 16  7  2  0  0  0  0
 17  7  1  1  0  0  0
 17  3  1  0  0  0  0
 18 12  2  0  0  0  0
 19 20  1  0  0  0  0
 20 22  2  0  0  0  0
 21 15  1  0  0  0  0
 21 24  2  0  0  0  0
 23 19  2  0  0  0  0
 23 21  1  0  0  0  0
 24 22  1  0  0  0  0
 25 19  1  0  0  0  0
 26 16  1  0  0  0  0
 27 26  1  0  0  0  0
 29 27  1  6  0  0  0
 30 28  1  6  0  0  0
 30 29  1  0  0  0  0
 31 32  1  0  0  0  0
 31 34  1  0  0  0  0
 33 32  1  1  0  0  0
 33 30  1  0  0  0  0
 33 29  1  0  0  0  0
 34 30  1  0  0  0  0
M  END
>  <MODEL>
7

>  <REMARK>
 VINA RESULT:      -8.7      3.380      6.745
  Name = 
  4 active torsions:
  status: ('A' for Active; 'I' for Inactive)
    1  A    between atoms: C_3  and  C_13
    2  A    between atoms: C_3  and  N_17
    3  A    between atoms: C_12  and  N_28
    4  A    between atoms: N_17  and  C_29
                            x       y       z     vdW  Elec       q    Type
                         _______ _______ _______ _____ _____    ______ ____

>  <TORSDO>
F 4

$$$$
=
 OpenBabel10272400033D

 34 41  0  0  1  0  0  0  0  0999 V2000
  183.5360  178.7490  143.4280 C   0  0  0  0  0  0  0  0  0  0  0  0
  182.1920  178.8830  141.3710 C   0  0  0  0  0  0  0  0  0  0  0  0
  184.6340  178.9030  141.2980 C   0  0  0  0  0  0  0  0  0  0  0  0
  185.6460  178.2000  139.2820 C   0  0  1  0  0  3  0  0  0  0  0  0
  181.1170  178.7890  143.5520 C   0  0  0  0  0  3  0  0  0  0  0  0
  181.0320  178.8550  142.1540 C   0  0  0  0  0  3  0  0  0  0  0  0
  183.4080  178.7370  139.1750 C   0  0  0  0  0  0  0  0  0  0  0  0
  183.4500  178.8630  142.0270 C   0  0  0  0  0  0  0  0  0  0  0  0
  185.2370  178.1500  137.8180 C   0  0  0  0  0  2  0  0  0  0  0  0
  182.3640  178.7270  144.1880 C   0  0  0  0  0  3  0  0  0  0  0  0
  185.8760  178.6980  141.9050 C   0  0  0  0  0  0  0  0  0  0  0  0
  184.8000  178.6210  144.0290 C   0  0  0  0  0  3  0  0  0  0  0  0
  182.0650  178.8810  139.8500 C   0  0  0  0  0  2  0  0  0  0  0  0
  186.9060  178.6980  139.6630 O   0  0  0  0  0  0  0  0  0  0  0  0
  187.0170  178.4280  141.0180 N   0  0  0  0  0  0  0  0  0  0  0  0
  183.7370  178.2450  137.9760 C   0  0  0  0  0  0  0  0  0  0  0  0
  184.6340  179.1350  139.8540 C   0  0  1  0  0  3  0  0  0  0  0  0
  185.9330  178.5740  143.2620 N   0  0  0  0  0  0  0  0  0  0  0  0
  190.5460  177.1290  141.2430 C   0  0  0  0  0  0  0  0  0  0  0  0
  190.4590  176.3310  142.3850 C   0  0  0  0  0  3  0  0  0  0  0  0
  188.1900  177.7120  141.4580 C   0  0  0  0  0  0  0  0  0  0  0  0
  189.2460  176.2210  143.0690 C   0  0  0  0  0  3  0  0  0  0  0  0
  189.4200  177.8180  140.7850 C   0  0  0  0  0  3  0  0  0  0  0  0
  188.1200  176.9100  142.6080 C   0  0  0  0  0  3  0  0  0  0  0  0
  191.7220  177.2410  140.5810 F   0  0  0  0  0  0  0  0  0  0  0  0
  182.8220  177.7540  136.9890 N   0  0  0  0  0  2  0  0  0  0  0  0
  182.0780  176.5120  137.1180 C   0  0  0  0  0  2  0  0  0  0  0  0
  183.3530  175.1590  139.2140 F   0  0  0  0  0  0  0  0  0  0  0  0
  182.9600  175.3460  136.7090 C   0  0  1  0  0  3  0  0  0  0  0  0
  183.6080  174.7130  137.9280 C   0  0  2  0  0  0  0  0  0  0  0  0
  184.1570  172.6900  137.2420 C   0  0  0  0  0  2  0  0  0  0  0  0
  182.9230  172.9470  136.6220 O   0  0  0  0  0  0  0  0  0  0  0  0
  182.4180  174.0500  137.3100 C   0  0  2  0  0  3  0  0  0  0  0  0
  184.7110  173.8880  137.7200 O   0  0  0  0  0  0  0  0  0  0  0  0
  1 12  1  0  0  0  0
  1 10  2  0  0  0  0
  2  8  2  0  0  0  0
  2  6  1  0  0  0  0
  3 11  2  0  0  0  0
  3  8  1  0  0  0  0
  4  9  1  6  0  0  0
  4 14  1  0  0  0  0
  4 17  1  0  0  0  0
  5 10  1  0  0  0  0
  6  5  2  0  0  0  0
  7 13  1  0  0  0  0
  8  1  1  0  0  0  0
  9 16  1  0  0  0  0
 11 18  1  0  0  0  0
 13  2  1  0  0  0  0
 14 15  1  0  0  0  0
 15 21  1  0  0  0  0
 15 11  1  0  0  0  0
 16  7  2  0  0  0  0
 17  7  1  6  0  0  0
 17  3  1  0  0  0  0
 18 12  2  0  0  0  0
 19 20  1  0  0  0  0
 20 22  2  0  0  0  0
 21 24  2  0  0  0  0
 23 19  2  0  0  0  0
 23 21  1  0  0  0  0
 24 22  1  0  0  0  0
 25 19  1  0  0  0  0
 26 27  1  0  0  0  0
 26 16  1  0  0  0  0
 29 27  1  1  0  0  0
 29 33  1  0  0  0  0
 29 30  1  0  0  0  0
 30 28  1  1  0  0  0
 31 34  1  0  0  0  0
 32 31  1  0  0  0  0
 33 32  1  6  0  0  0
 33 30  1  0  0  0  0
 34 30  1  0  0  0  0
M  END
>  <MODEL>
8

>  <REMARK>
 VINA RESULT:      -8.3      3.095      8.395
  Name = 
  4 active torsions:
  status: ('A' for Active; 'I' for Inactive)
    1  A    between atoms: C_3  and  C_13
    2  A    between atoms: C_3  and  N_17
    3  A    between atoms: C_12  and  N_28
    4  A    between atoms: N_17  and  C_29
                            x       y       z     vdW  Elec       q    Type
                         _______ _______ _______ _____ _____    ______ ____

>  <TORSDO>
F 4

$$$$
=
 OpenBabel10272400033D

 34 41  0  0  1  0  0  0  0  0999 V2000
  189.7720  177.4490  141.6320 C   0  0  0  0  0  0  0  0  0  0  0  0
  187.4410  178.1070  141.1980 C   0  0  0  0  0  0  0  0  0  0  0  0
  188.1360  177.2530  143.3790 C   0  0  0  0  0  0  0  0  0  0  0  0
  186.8070  177.8620  145.2360 C   0  0  1  0  0  3  0  0  0  0  0  0
  189.1150  178.2330  139.4360 C   0  0  0  0  0  3  0  0  0  0  0  0
  187.7970  178.4160  139.8800 C   0  0  0  0  0  3  0  0  0  0  0  0
  185.8630  178.1570  143.1560 C   0  0  0  0  0  0  0  0  0  0  0  0
  188.4390  177.5880  142.0630 C   0  0  0  0  0  0  0  0  0  0  0  0
  185.3600  178.2750  145.4500 C   0  0  0  0  0  2  0  0  0  0  0  0
  190.1020  177.7600  140.3110 C   0  0  0  0  0  3  0  0  0  0  0  0
  189.1340  176.9180  144.2980 C   0  0  0  0  0  0  0  0  0  0  0  0
  190.7510  177.0360  142.5530 C   0  0  0  0  0  3  0  0  0  0  0  0
  186.0170  178.3870  141.6710 C   0  0  0  0  0  2  0  0  0  0  0  0
  187.4160  176.9050  146.0700 O   0  0  0  0  0  0  0  0  0  0  0  0
  188.7570  176.9080  145.7200 N   0  0  0  0  0  0  0  0  0  0  0  0
  185.0070  178.6830  144.0380 C   0  0  0  0  0  0  0  0  0  0  0  0
  186.7590  177.2600  143.8720 C   0  0  1  0  0  3  0  0  0  0  0  0
  190.4210  176.8040  143.8600 N   0  0  0  0  0  0  0  0  0  0  0  0
  191.8500  176.5930  147.8470 C   0  0  0  0  0  0  0  0  0  0  0  0
  191.5810  177.5340  148.8420 C   0  0  0  0  0  3  0  0  0  0  0  0
  189.7190  177.0950  146.7790 C   0  0  0  0  0  0  0  0  0  0  0  0
  190.3880  178.2590  148.8120 C   0  0  0  0  0  3  0  0  0  0  0  0
  190.9270  176.3790  146.8200 C   0  0  0  0  0  3  0  0  0  0  0  0
  189.4650  178.0420  147.7840 C   0  0  0  0  0  3  0  0  0  0  0  0
  193.0080  175.8910  147.8720 F   0  0  0  0  0  0  0  0  0  0  0  0
  183.9520  179.6070  143.7400 N   0  0  0  0  0  2  0  0  0  0  0  0
  182.5420  179.2570  143.7440 C   0  0  0  0  0  2  0  0  0  0  0  0
  179.9820  178.1360  143.5530 F   0  0  0  0  0  0  0  0  0  0  0  0
  182.1280  178.7970  142.3590 C   0  0  1  0  0  3  0  0  0  0  0  0
  180.7350  178.1910  142.3910 C   0  0  2  0  0  0  0  0  0  0  0  0
  180.0540  178.3220  140.2980 C   0  0  0  0  0  2  0  0  0  0  0  0
  180.7770  179.5080  140.5060 O   0  0  0  0  0  0  0  0  0  0  0  0
  180.9080  179.5900  141.8930 C   0  0  2  0  0  3  0  0  0  0  0  0
  180.3480  177.3990  141.3140 O   0  0  0  0  0  0  0  0  0  0  0  0
  1  8  2  0  0  0  0
  1 12  1  0  0  0  0
  2 13  1  0  0  0  0
  2  8  1  0  0  0  0
  3 17  1  0  0  0  0
  3 11  2  0  0  0  0
  4  9  1  1  0  0  0
  4 14  1  0  0  0  0
  5  6  1  0  0  0  0
  5 10  2  0  0  0  0
  6  2  2  0  0  0  0
  7 16  2  0  0  0  0
  8  3  1  0  0  0  0
 10  1  1  0  0  0  0
 11 15  1  0  0  0  0
 12 18  2  0  0  0  0
 13  7  1  0  0  0  0
 15 14  1  0  0  0  0
 15 21  1  0  0  0  0
 16  9  1  0  0  0  0
 17  7  1  6  0  0  0
 17  4  1  0  0  0  0
 18 11  1  0  0  0  0
 19 25  1  0  0  0  0
 19 20  1  0  0  0  0
 21 23  1  0  0  0  0
 21 24  2  0  0  0  0
 22 20  2  0  0  0  0
 23 19  2  0  0  0  0
 24 22  1  0  0  0  0
 26 27  1  0  0  0  0
 26 16  1  0  0  0  0
 29 30  1  0  0  0  0
 29 27  1  1  0  0  0
 30 28  1  1  0  0  0
 31 32  1  0  0  0  0
 31 34  1  0  0  0  0
 33 32  1  6  0  0  0
 33 29  1  0  0  0  0
 33 30  1  0  0  0  0
 34 30  1  0  0  0  0
M  END
>  <MODEL>
9

>  <REMARK>
 VINA RESULT:      -8.2      2.760      8.517
  Name = 
  4 active torsions:
  status: ('A' for Active; 'I' for Inactive)
    1  A    between atoms: C_3  and  C_13
    2  A    between atoms: C_3  and  N_17
    3  A    between atoms: C_12  and  N_28
    4  A    between atoms: N_17  and  C_29
                            x       y       z     vdW  Elec       q    Type
                         _______ _______ _______ _____ _____    ______ ____

>  <TORSDO>
F 4

$$$$
