=
 OpenBabel10272415103D

 34 39  0  0  1  0  0  0  0  0999 V2000
  182.5280  177.1990  138.3390 N   0  0  0  0  0  0  0  0  0  0  0  0
  184.8700  175.8940  135.8120 C   0  0  0  0  0  3  0  0  0  0  0  0
  182.5910  176.3740  135.4470 N   0  0  0  0  0  2  0  0  0  0  0  0
  181.8250  178.0620  140.5900 C   0  0  2  0  0  3  0  0  0  0  0  0
  182.5950  176.5310  139.9580 S   0  0  0  0  0  0  0  0  0  0  0  0
  181.6130  179.1530  137.0500 C   0  0  1  0  0  3  0  0  0  0  0  0
  180.3880  179.1420  136.3520 O   0  0  0  0  0  0  0  0  0  0  0  0
  181.5300  178.9900  139.4940 N   0  0  0  0  0  2  0  0  0  0  0  0
  181.3100  177.0150  135.7120 C   0  0  0  0  0  2  0  0  0  0  0  0
  181.4910  178.2180  138.2620 C   0  0  2  0  0  3  0  0  0  0  0  0
  181.4720  178.5310  135.6960 C   0  0  2  0  0  3  0  0  0  0  0  0
  186.1680  175.8880  136.5450 C   0  0  0  0  0  2  0  0  0  0  0  0
  186.7100  177.2780  136.6650 C   0  0  0  0  0  0  0  0  0  0  0  0
  186.0590  178.2060  137.3720 C   0  0  0  0  0  3  0  0  0  0  0  0
  183.7650  176.4970  136.2610 C   0  0  0  0  0  0  0  0  0  0  0  0
  184.7340  178.0220  137.9960 C   0  0  0  0  0  3  0  0  0  0  0  0
  183.7300  177.2420  137.5560 C   0  0  0  0  0  0  0  0  0  0  0  0
  185.1010  179.1620  142.1530 C   0  0  0  0  0  2  0  0  0  0  0  0
  182.8440  179.3570  144.1140 C   0  0  0  0  0  2  0  0  0  0  0  0
  186.5350  177.5360  145.3660 C   0  0  2  0  0  3  0  0  0  0  0  0
  186.5280  178.1060  143.9380 C   0  0  0  0  0  2  0  0  0  0  0  0
  185.3310  179.0240  143.6610 C   0  0  2  0  0  3  0  0  0  0  0  0
  182.6980  178.7170  141.6590 C   0  0  1  0  0  3  0  0  0  0  0  0
  184.3850  178.7380  145.9910 C   0  0  0  0  0  2  0  0  0  0  0  0
  184.1060  178.5990  144.4900 C   0  0  1  0  0  3  0  0  0  0  0  0
  185.8540  178.4800  146.3640 C   0  0  0  0  0  2  0  0  0  0  0  0
  182.0800  178.5750  143.0550 C   0  0  0  0  0  2  0  0  0  0  0  0
  184.1120  178.1480  141.5920 C   0  0  0  0  0  2  0  0  0  0  0  0
  187.9550  177.1770  145.7920 C   0  0  0  0  0  3  0  0  0  0  0  0
  188.0770  177.2590  147.1790 O   0  0  0  0  0  1  0  0  0  0  0  0
  188.8870  178.0240  145.1870 O   0  0  0  0  0  1  0  0  0  0  0  0
  188.0130  177.6030  136.0620 C   0  0  0  0  0  0  0  0  0  0  0  0
  188.3840  177.0310  135.0030 O   0  0  0  0  0  0  0  0  0  0  0  0
  188.8450  178.5490  136.6510 O   0  0  0  0  0  1  0  0  0  0  0  0
  1  5  1  0  0  0  0
  2 15  2  0  0  0  0
  2 12  1  0  0  0  0
  3  9  1  0  0  0  0
  3 15  1  0  0  0  0
  4  8  1  6  0  0  0
  4 23  1  0  0  0  0
  5  4  1  0  0  0  0
  6  7  1  1  0  0  0
  6 10  1  0  0  0  0
 10  1  1  0  0  0  0
 10  8  1  1  0  0  0
 11  9  1  1  0  0  0
 11  7  1  0  0  0  0
 11  6  1  0  0  0  0
 12 13  1  0  0  0  0
 13 14  2  0  0  0  0
 14 16  1  0  0  0  0
 15 17  1  0  0  0  0
 17 16  2  0  0  0  0
 17  1  1  0  0  0  0
 20 29  1  1  0  0  0
 20 26  1  0  0  0  0
 21 20  1  0  0  0  0
 22 18  1  6  0  0  0
 22 21  1  0  0  0  0
 22 25  1  0  0  0  0
 23 28  1  1  0  0  0
 23 27  1  0  0  0  0
 24 26  1  0  0  0  0
 25 19  1  6  0  0  0
 25 24  1  0  0  0  0
 27 19  1  0  0  0  0
 28 18  1  0  0  0  0
 29 30  1  0  0  0  0
 31 29  1  0  0  0  0
 32 34  1  0  0  0  0
 32 13  1  0  0  0  0
 33 32  2  0  0  0  0
M  END
>  <MODEL>
1

>  <REMARK>
 VINA RESULT:      -8.7      0.000      0.000
  Name = 
  3 active torsions:
  status: ('A' for Active; 'I' for Inactive)
    1  A    between atoms: C_3  and  C_25
    2  A    between atoms: C_7  and  C_11
    3  A    between atoms: C_8  and  C_18
                            x       y       z     vdW  Elec       q    Type
                         _______ _______ _______ _____ _____    ______ ____

>  <TORSDO>
F 3

$$$$
=
 OpenBabel10272415103D

 34 39  0  0  1  0  0  0  0  0999 V2000
  189.3170  177.3140  137.3750 N   0  0  0  0  0  0  0  0  0  0  0  0
  186.4090  176.5360  135.2510 C   0  0  0  0  0  3  0  0  0  0  0  0
  188.5500  177.1410  134.4710 N   0  0  0  0  0  2  0  0  0  0  0  0
  190.5830  177.5850  139.5280 C   0  0  2  0  0  3  0  0  0  0  0  0
  189.0630  178.2960  138.8050 S   0  0  0  0  0  0  0  0  0  0  0  0
  190.9970  175.7750  136.3150 C   0  0  1  0  0  3  0  0  0  0  0  0
  191.9580  176.1790  135.3650 O   0  0  0  0  0  0  0  0  0  0  0  0
  191.2160  176.6470  138.5950 N   0  0  0  0  0  2  0  0  0  0  0  0
  189.9950  177.3080  134.5540 C   0  0  0  0  0  2  0  0  0  0  0  0
  190.7230  176.9540  137.2610 C   0  0  2  0  0  3  0  0  0  0  0  0
  190.6580  175.9710  134.8700 C   0  0  2  0  0  3  0  0  0  0  0  0
  185.3810  176.1210  136.2480 C   0  0  0  0  0  2  0  0  0  0  0  0
  185.6700  174.7430  136.7570 C   0  0  0  0  0  0  0  0  0  0  0  0
  186.7770  174.4940  137.4620 C   0  0  0  0  0  3  0  0  0  0  0  0
  187.7030  176.7020  135.5420 C   0  0  0  0  0  0  0  0  0  0  0  0
  187.8570  175.4660  137.7160 C   0  0  0  0  0  3  0  0  0  0  0  0
  188.2510  176.4730  136.9140 C   0  0  0  0  0  0  0  0  0  0  0  0
  188.3650  176.3450  142.3440 C   0  0  0  0  0  2  0  0  0  0  0  0
  191.2440  176.3970  143.1720 C   0  0  0  0  0  2  0  0  0  0  0  0
  188.2840  178.0250  145.8360 C   0  0  2  0  0  3  0  0  0  0  0  0
  187.7380  177.3880  144.5480 C   0  0  0  0  0  2  0  0  0  0  0  0
  188.7790  176.5400  143.8060 C   0  0  2  0  0  3  0  0  0  0  0  0
  190.2950  176.9250  140.8750 C   0  0  1  0  0  3  0  0  0  0  0  0
  190.5880  177.0020  145.5140 C   0  0  0  0  0  2  0  0  0  0  0  0
  190.1990  177.0850  144.0330 C   0  0  1  0  0  3  0  0  0  0  0  0
  189.3960  177.1780  146.4680 C   0  0  0  0  0  2  0  0  0  0  0  0
  191.4270  177.1760  141.8780 C   0  0  0  0  0  2  0  0  0  0  0  0
  188.9420  177.3950  141.4020 C   0  0  0  0  0  2  0  0  0  0  0  0
  187.1500  178.3080  146.8150 C   0  0  0  0  0  3  0  0  0  0  0  0
  187.5100  177.9020  148.1000 O   0  0  0  0  0  1  0  0  0  0  0  0
  185.9790  177.6530  146.4260 O   0  0  0  0  0  1  0  0  0  0  0  0
  184.6840  173.6710  136.5460 C   0  0  0  0  0  0  0  0  0  0  0  0
  183.9940  173.6400  135.4920 O   0  0  0  0  0  0  0  0  0  0  0  0
  184.5090  172.6770  137.5030 O   0  0  0  0  0  1  0  0  0  0  0  0
  1  5  1  0  0  0  0
  2 15  2  0  0  0  0
  2 12  1  0  0  0  0
  3  9  1  0  0  0  0
  3 15  1  0  0  0  0
  4  8  1  6  0  0  0
  4 23  1  0  0  0  0
  5  4  1  0  0  0  0
  6  7  1  6  0  0  0
  6 10  1  0  0  0  0
 10  1  1  0  0  0  0
 10  8  1  1  0  0  0
 11  9  1  1  0  0  0
 11  7  1  0  0  0  0
 11  6  1  0  0  0  0
 12 13  1  0  0  0  0
 13 14  2  0  0  0  0
 14 16  1  0  0  0  0
 15 17  1  0  0  0  0
 17  1  1  0  0  0  0
 17 16  2  0  0  0  0
 20 26  1  0  0  0  0
 20 29  1  1  0  0  0
 21 20  1  0  0  0  0
 22 18  1  6  0  0  0
 22 25  1  0  0  0  0
 22 21  1  0  0  0  0
 23 28  1  1  0  0  0
 23 27  1  0  0  0  0
 24 26  1  0  0  0  0
 25 19  1  6  0  0  0
 25 24  1  0  0  0  0
 27 19  1  0  0  0  0
 28 18  1  0  0  0  0
 29 30  1  0  0  0  0
 31 29  1  0  0  0  0
 32 13  1  0  0  0  0
 32 34  1  0  0  0  0
 33 32  2  0  0  0  0
M  END
>  <MODEL>
2

>  <REMARK>
 VINA RESULT:      -8.1      4.231      6.438
  Name = 
  3 active torsions:
  status: ('A' for Active; 'I' for Inactive)
    1  A    between atoms: C_3  and  C_25
    2  A    between atoms: C_7  and  C_11
    3  A    between atoms: C_8  and  C_18
                            x       y       z     vdW  Elec       q    Type
                         _______ _______ _______ _____ _____    ______ ____

>  <TORSDO>
F 3

$$$$
=
 OpenBabel10272415103D

 34 39  0  0  1  0  0  0  0  0999 V2000
  181.9500  177.3240  138.2940 N   0  0  0  0  0  0  0  0  0  0  0  0
  183.5830  175.3420  135.6510 C   0  0  0  0  0  3  0  0  0  0  0  0
  181.4760  176.3860  135.4740 N   0  0  0  0  0  2  0  0  0  0  0  0
  181.7460  178.4380  140.5350 C   0  0  2  0  0  3  0  0  0  0  0  0
  182.0230  176.7320  139.9420 S   0  0  0  0  0  0  0  0  0  0  0  0
  181.4270  179.3910  136.9630 C   0  0  1  0  0  3  0  0  0  0  0  0
  180.1700  179.6710  136.3890 O   0  0  0  0  0  0  0  0  0  0  0  0
  181.5780  179.3620  139.4090 N   0  0  0  0  0  2  0  0  0  0  0  0
  180.4400  177.3510  135.8160 C   0  0  0  0  0  2  0  0  0  0  0  0
  181.2050  178.5740  138.2450 C   0  0  2  0  0  3  0  0  0  0  0  0
  180.9820  178.7700  135.6760 C   0  0  2  0  0  3  0  0  0  0  0  0
  184.9100  175.0280  136.2550 C   0  0  0  0  0  2  0  0  0  0  0  0
  185.7990  176.2320  136.2230 C   0  0  0  0  0  0  0  0  0  0  0  0
  185.4900  177.3270  136.9230 C   0  0  0  0  0  3  0  0  0  0  0  0
  182.7260  176.2320  136.1610 C   0  0  0  0  0  0  0  0  0  0  0  0
  184.2400  177.5240  137.6820 C   0  0  0  0  0  3  0  0  0  0  0  0
  183.0270  177.0170  137.3980 C   0  0  0  0  0  0  0  0  0  0  0  0
  185.3500  179.1500  141.4760 C   0  0  0  0  0  2  0  0  0  0  0  0
  183.5790  179.1440  143.8930 C   0  0  0  0  0  2  0  0  0  0  0  0
  187.3060  177.0010  144.0410 C   0  0  2  0  0  3  0  0  0  0  0  0
  187.0400  177.7790  142.7420 C   0  0  0  0  0  2  0  0  0  0  0  0
  185.8820  178.7780  142.8640 C   0  0  2  0  0  3  0  0  0  0  0  0
  182.8700  178.8870  141.4660 C   0  0  1  0  0  3  0  0  0  0  0  0
  185.4310  178.1850  145.2820 C   0  0  0  0  0  2  0  0  0  0  0  0
  184.8320  178.2860  143.8740 C   0  0  1  0  0  3  0  0  0  0  0  0
  186.9220  177.8120  145.2850 C   0  0  0  0  0  2  0  0  0  0  0  0
  182.5530  178.5630  142.9300 C   0  0  0  0  0  2  0  0  0  0  0  0
  184.1920  178.2750  141.0120 C   0  0  0  0  0  2  0  0  0  0  0  0
  188.7530  176.5220  144.0910 C   0  0  0  0  0  3  0  0  0  0  0  0
  189.6210  177.6140  144.1190 O   0  0  0  0  0  1  0  0  0  0  0  0
  189.0510  175.7150  142.9900 O   0  0  0  0  0  1  0  0  0  0  0  0
  187.0660  176.1780  135.4770 C   0  0  0  0  0  0  0  0  0  0  0  0
  187.3580  177.0850  134.6530 O   0  0  0  0  0  0  0  0  0  0  0  0
  187.9580  175.1290  135.6780 O   0  0  0  0  0  1  0  0  0  0  0  0
  1  5  1  0  0  0  0
  2 15  2  0  0  0  0
  2 12  1  0  0  0  0
  3  9  1  0  0  0  0
  3 15  1  0  0  0  0
  4  8  1  6  0  0  0
  4 23  1  0  0  0  0
  5  4  1  0  0  0  0
  6  7  1  1  0  0  0
  6 10  1  0  0  0  0
 10  1  1  0  0  0  0
 10  8  1  1  0  0  0
 11  9  1  1  0  0  0
 11  7  1  0  0  0  0
 11  6  1  0  0  0  0
 13 12  1  0  0  0  0
 13 14  2  0  0  0  0
 14 16  1  0  0  0  0
 15 17  1  0  0  0  0
 17 16  2  0  0  0  0
 17  1  1  0  0  0  0
 20 29  1  1  0  0  0
 20 26  1  0  0  0  0
 21 22  1  0  0  0  0
 21 20  1  0  0  0  0
 22 18  1  6  0  0  0
 22 25  1  0  0  0  0
 23 28  1  6  0  0  0
 23 27  1  0  0  0  0
 24 26  1  0  0  0  0
 25 19  1  1  0  0  0
 25 24  1  0  0  0  0
 27 19  1  0  0  0  0
 28 18  1  0  0  0  0
 29 30  1  0  0  0  0
 31 29  1  0  0  0  0
 32 34  1  0  0  0  0
 32 13  1  0  0  0  0
 33 32  2  0  0  0  0
M  END
>  <MODEL>
3

>  <REMARK>
 VINA RESULT:      -7.7      1.183      1.445
  Name = 
  3 active torsions:
  status: ('A' for Active; 'I' for Inactive)
    1  A    between atoms: C_3  and  C_25
    2  A    between atoms: C_7  and  C_11
    3  A    between atoms: C_8  and  C_18
                            x       y       z     vdW  Elec       q    Type
                         _______ _______ _______ _____ _____    ______ ____

>  <TORSDO>
F 3

$$$$
=
 OpenBabel10272415103D

 34 39  0  0  1  0  0  0  0  0999 V2000
  182.4910  178.5260  140.6430 N   0  0  0  0  0  0  0  0  0  0  0  0
  179.9830  176.3650  139.0260 C   0  0  0  0  0  3  0  0  0  0  0  0
  179.9900  178.7220  138.9830 N   0  0  0  0  0  2  0  0  0  0  0  0
  184.5710  179.0510  141.9490 C   0  0  2  0  0  3  0  0  0  0  0  0
  183.0400  178.1020  142.2530 S   0  0  0  0  0  0  0  0  0  0  0  0
  183.0890  179.9700  138.6750 C   0  0  1  0  0  3  0  0  0  0  0  0
  182.5620  181.2580  138.4440 O   0  0  0  0  0  0  0  0  0  0  0  0
  184.5480  179.6710  140.6210 N   0  0  0  0  0  2  0  0  0  0  0  0
  180.5810  180.0500  139.0780 C   0  0  0  0  0  2  0  0  0  0  0  0
  183.1600  179.7380  140.1910 C   0  0  2  0  0  3  0  0  0  0  0  0
  181.7300  180.1830  138.0830 C   0  0  2  0  0  3  0  0  0  0  0  0
  180.5230  174.9980  139.2770 C   0  0  0  0  0  2  0  0  0  0  0  0
  181.6840  174.7190  138.3740 C   0  0  0  0  0  0  0  0  0  0  0  0
  182.8130  175.4250  138.4760 C   0  0  0  0  0  3  0  0  0  0  0  0
  180.6740  177.4880  139.2420 C   0  0  0  0  0  0  0  0  0  0  0  0
  183.0090  176.5880  139.3630 C   0  0  0  0  0  3  0  0  0  0  0  0
  182.0790  177.4790  139.7530 C   0  0  0  0  0  0  0  0  0  0  0  0
  186.7970  176.5990  143.7970 C   0  0  0  0  0  2  0  0  0  0  0  0
  188.2500  177.8680  141.5040 C   0  0  0  0  0  2  0  0  0  0  0  0
  190.2110  177.6150  145.3250 C   0  0  2  0  0  3  0  0  0  0  0  0
  188.8230  176.9600  145.2480 C   0  0  0  0  0  2  0  0  0  0  0  0
  188.3180  176.7830  143.8110 C   0  0  2  0  0  3  0  0  0  0  0  0
  185.8080  178.1750  142.1370 C   0  0  1  0  0  3  0  0  0  0  0  0
  190.3950  177.8130  142.7980 C   0  0  0  0  0  2  0  0  0  0  0  0
  188.8670  177.8880  142.8920 C   0  0  1  0  0  3  0  0  0  0  0  0
  191.0610  177.3040  144.0870 C   0  0  0  0  0  2  0  0  0  0  0  0
  187.0430  178.7940  141.4730 C   0  0  0  0  0  2  0  0  0  0  0  0
  186.0260  177.9010  143.6230 C   0  0  0  0  0  2  0  0  0  0  0  0
  190.9170  177.2230  146.6190 C   0  0  0  0  0  3  0  0  0  0  0  0
  192.0160  176.4110  146.3420 O   0  0  0  0  0  1  0  0  0  0  0  0
  190.0440  176.5550  147.4810 O   0  0  0  0  0  1  0  0  0  0  0  0
  181.6080  173.6010  137.4200 C   0  0  0  0  0  0  0  0  0  0  0  0
  180.4950  173.0850  137.1330 O   0  0  0  0  0  1  0  0  0  0  0  0
  182.7610  173.1070  136.8200 O   0  0  0  0  0  0  0  0  0  0  0  0
  1  5  1  0  0  0  0
  2 15  2  0  0  0  0
  2 12  1  0  0  0  0
  3  9  1  0  0  0  0
  3 15  1  0  0  0  0
  4  8  1  6  0  0  0
  4 23  1  0  0  0  0
  4  5  1  0  0  0  0
  6  7  1  1  0  0  0
  6 10  1  0  0  0  0
 10  8  1  6  0  0  0
 10  1  1  0  0  0  0
 11  7  1  0  0  0  0
 11  6  1  0  0  0  0
 11  9  1  1  0  0  0
 13 14  2  0  0  0  0
 13 12  1  0  0  0  0
 14 16  1  0  0  0  0
 15 17  1  0  0  0  0
 16 17  2  0  0  0  0
 17  1  1  0  0  0  0
 20 29  1  1  0  0  0
 21 20  1  0  0  0  0
 22 18  1  1  0  0  0
 22 21  1  0  0  0  0
 23 27  1  1  0  0  0
 23 28  1  0  0  0  0
 24 25  1  0  0  0  0
 24 26  1  0  0  0  0
 25 19  1  6  0  0  0
 25 22  1  0  0  0  0
 26 20  1  0  0  0  0
 27 19  1  0  0  0  0
 28 18  1  0  0  0  0
 29 31  1  0  0  0  0
 30 29  1  0  0  0  0
 32 13  1  0  0  0  0
 33 32  1  0  0  0  0
 34 32  2  0  0  0  0
M  END
>  <MODEL>
4

>  <REMARK>
 VINA RESULT:      -7.6      3.227      4.735
  Name = 
  3 active torsions:
  status: ('A' for Active; 'I' for Inactive)
    1  A    between atoms: C_3  and  C_25
    2  A    between atoms: C_7  and  C_11
    3  A    between atoms: C_8  and  C_18
                            x       y       z     vdW  Elec       q    Type
                         _______ _______ _______ _____ _____    ______ ____

>  <TORSDO>
F 3

$$$$
=
 OpenBabel10272415103D

 34 39  0  0  1  0  0  0  0  0999 V2000
  189.4920  176.5400  136.8910 N   0  0  0  0  0  0  0  0  0  0  0  0
  186.7090  176.6150  134.4790 C   0  0  0  0  0  3  0  0  0  0  0  0
  188.5970  175.2100  134.3460 N   0  0  0  0  0  2  0  0  0  0  0  0
  190.7520  177.1870  138.9650 C   0  0  2  0  0  3  0  0  0  0  0  0
  190.1070  178.0650  137.5000 S   0  0  0  0  0  0  0  0  0  0  0  0
  189.5370  174.0710  137.3580 C   0  0  1  0  0  3  0  0  0  0  0  0
  190.4300  173.1630  136.7520 O   0  0  0  0  0  0  0  0  0  0  0  0
  190.4800  175.7490  138.8760 N   0  0  0  0  0  2  0  0  0  0  0  0
  189.7510  174.4840  134.8600 C   0  0  0  0  0  2  0  0  0  0  0  0
  190.2360  175.4340  137.4770 C   0  0  2  0  0  3  0  0  0  0  0  0
  189.3180  173.5380  135.9760 C   0  0  2  0  0  3  0  0  0  0  0  0
  185.7640  177.5850  135.1040 C   0  0  0  0  0  2  0  0  0  0  0  0
  185.0510  176.9530  136.2580 C   0  0  0  0  0  0  0  0  0  0  0  0
  185.7230  176.5650  137.3460 C   0  0  0  0  0  3  0  0  0  0  0  0
  187.7700  176.1010  135.1070 C   0  0  0  0  0  0  0  0  0  0  0  0
  187.1910  176.5990  137.4930 C   0  0  0  0  0  3  0  0  0  0  0  0
  188.1100  176.4480  136.5220 C   0  0  0  0  0  0  0  0  0  0  0  0
  190.9840  178.6590  142.4530 C   0  0  0  0  0  2  0  0  0  0  0  0
  188.1650  177.9000  141.7810 C   0  0  0  0  0  2  0  0  0  0  0  0
  189.7690  176.7640  145.6080 C   0  0  2  0  0  3  0  0  0  0  0  0
  190.7000  177.6090  144.7230 C   0  0  0  0  0  2  0  0  0  0  0  0
  189.9780  178.2600  143.5370 C   0  0  2  0  0  3  0  0  0  0  0  0
  190.1940  177.7830  140.2560 C   0  0  1  0  0  3  0  0  0  0  0  0
  187.7370  177.2710  144.1690 C   0  0  0  0  0  2  0  0  0  0  0  0
  188.7960  177.3950  143.0670 C   0  0  1  0  0  3  0  0  0  0  0  0
  188.3270  177.2880  145.5880 C   0  0  0  0  0  2  0  0  0  0  0  0
  188.8140  177.2060  140.5920 C   0  0  0  0  0  2  0  0  0  0  0  0
  191.1950  177.5870  141.3910 C   0  0  0  0  0  2  0  0  0  0  0  0
  190.3240  176.6640  147.0250 C   0  0  0  0  0  3  0  0  0  0  0  0
  189.6720  177.5690  147.8630 O   0  0  0  0  0  1  0  0  0  0  0  0
  191.6980  176.9130  147.0420 O   0  0  0  0  0  1  0  0  0  0  0  0
  183.5850  176.8320  136.2270 C   0  0  0  0  0  0  0  0  0  0  0  0
  182.9800  176.1980  137.1320 O   0  0  0  0  0  1  0  0  0  0  0  0
  182.8510  177.4200  135.2020 O   0  0  0  0  0  0  0  0  0  0  0  0
  1 10  1  0  0  0  0
  1  5  1  0  0  0  0
  2 12  1  0  0  0  0
  2 15  2  0  0  0  0
  3  9  1  0  0  0  0
  3 15  1  0  0  0  0
  4  5  1  6  0  0  0
  4 23  1  0  0  0  0
  6  7  1  1  0  0  0
  6 10  1  0  0  0  0
  8  4  1  0  0  0  0
 10  8  1  1  0  0  0
 11  9  1  6  0  0  0
 11  7  1  0  0  0  0
 11  6  1  0  0  0  0
 12 13  1  0  0  0  0
 13 14  2  0  0  0  0
 14 16  1  0  0  0  0
 15 17  1  0  0  0  0
 17  1  1  0  0  0  0
 17 16  2  0  0  0  0
 20 29  1  1  0  0  0
 21 20  1  0  0  0  0
 22 18  1  6  0  0  0
 22 21  1  0  0  0  0
 23 27  1  1  0  0  0
 23 28  1  0  0  0  0
 24 26  1  0  0  0  0
 25 19  1  6  0  0  0
 25 22  1  0  0  0  0
 25 24  1  0  0  0  0
 26 20  1  0  0  0  0
 27 19  1  0  0  0  0
 28 18  1  0  0  0  0
 29 31  1  0  0  0  0
 29 30  1  0  0  0  0
 32 13  1  0  0  0  0
 32 33  1  0  0  0  0
 34 32  2  0  0  0  0
M  END
>  <MODEL>
5

>  <REMARK>
 VINA RESULT:      -7.2      4.032      6.230
  Name = 
  3 active torsions:
  status: ('A' for Active; 'I' for Inactive)
    1  A    between atoms: C_3  and  C_25
    2  A    between atoms: C_7  and  C_11
    3  A    between atoms: C_8  and  C_18
                            x       y       z     vdW  Elec       q    Type
                         _______ _______ _______ _____ _____    ______ ____

>  <TORSDO>
F 3

$$$$
=
 OpenBabel10272415103D

 34 39  0  0  1  0  0  0  0  0999 V2000
  182.3890  176.0720  137.8440 N   0  0  0  0  0  0  0  0  0  0  0  0
  184.0810  173.1700  136.3320 C   0  0  0  0  0  3  0  0  0  0  0  0
  182.2370  174.3120  135.4080 N   0  0  0  0  0  2  0  0  0  0  0  0
  182.0080  177.8790  139.5460 C   0  0  2  0  0  3  0  0  0  0  0  0
  182.0900  176.0540  139.5710 S   0  0  0  0  0  0  0  0  0  0  0  0
  182.4470  177.6280  135.8710 C   0  0  1  0  0  3  0  0  0  0  0  0
  181.3660  177.8340  134.9880 O   0  0  0  0  0  0  0  0  0  0  0  0
  182.1850  178.3920  138.1840 N   0  0  0  0  0  2  0  0  0  0  0  0
  181.3350  175.4400  135.2150 C   0  0  0  0  0  2  0  0  0  0  0  0
  181.8830  177.3080  137.2630 C   0  0  2  0  0  3  0  0  0  0  0  0
  182.1220  176.6680  134.7690 C   0  0  2  0  0  3  0  0  0  0  0  0
  185.2190  172.9340  137.2660 C   0  0  0  0  0  2  0  0  0  0  0  0
  186.2890  173.9590  137.0580 C   0  0  0  0  0  0  0  0  0  0  0  0
  186.0570  175.2500  137.3110 C   0  0  0  0  0  3  0  0  0  0  0  0
  183.3130  174.2630  136.3550 C   0  0  0  0  0  0  0  0  0  0  0  0
  184.7500  175.8170  137.6950 C   0  0  0  0  0  3  0  0  0  0  0  0
  183.5330  175.3750  137.3300 C   0  0  0  0  0  0  0  0  0  0  0  0
  185.4240  179.1580  140.5850 C   0  0  0  0  0  2  0  0  0  0  0  0
  183.6280  178.8100  142.9580 C   0  0  0  0  0  2  0  0  0  0  0  0
  187.6550  177.3090  143.1600 C   0  0  2  0  0  3  0  0  0  0  0  0
  187.2910  178.0590  141.8680 C   0  0  0  0  0  2  0  0  0  0  0  0
  185.9820  178.8500  141.9790 C   0  0  2  0  0  3  0  0  0  0  0  0
  183.0230  178.4890  140.5120 C   0  0  1  0  0  3  0  0  0  0  0  0
  185.5850  178.1430  144.3750 C   0  0  0  0  0  2  0  0  0  0  0  0
  185.0060  178.1710  142.9560 C   0  0  1  0  0  3  0  0  0  0  0  0
  187.1160  178.0210  144.4080 C   0  0  0  0  0  2  0  0  0  0  0  0
  182.7330  178.0870  141.9620 C   0  0  0  0  0  2  0  0  0  0  0  0
  184.4380  178.1130  140.0790 C   0  0  0  0  0  2  0  0  0  0  0  0
  189.1600  177.0760  143.2370 C   0  0  0  0  0  3  0  0  0  0  0  0
  189.4540  175.7360  142.9840 O   0  0  0  0  0  1  0  0  0  0  0  0
  189.6580  177.4370  144.4910 O   0  0  0  0  0  1  0  0  0  0  0  0
  187.6350  173.5280  136.6470 C   0  0  0  0  0  0  0  0  0  0  0  0
  188.4540  174.3630  136.1770 O   0  0  0  0  0  0  0  0  0  0  0  0
  188.0210  172.1980  136.7780 O   0  0  0  0  0  1  0  0  0  0  0  0
  1  5  1  0  0  0  0
  2 15  2  0  0  0  0
  2 12  1  0  0  0  0
  3 15  1  0  0  0  0
  4  8  1  6  0  0  0
  4  5  1  0  0  0  0
  4 23  1  0  0  0  0
  6  7  1  6  0  0  0
  6 10  1  0  0  0  0
  9  3  1  0  0  0  0
 10  1  1  0  0  0  0
 10  8  1  1  0  0  0
 11  7  1  0  0  0  0
 11  9  1  1  0  0  0
 11  6  1  0  0  0  0
 13 12  1  0  0  0  0
 13 14  2  0  0  0  0
 14 16  1  0  0  0  0
 15 17  1  0  0  0  0
 17 16  2  0  0  0  0
 17  1  1  0  0  0  0
 20 29  1  1  0  0  0
 20 26  1  0  0  0  0
 21 22  1  0  0  0  0
 21 20  1  0  0  0  0
 22 18  1  6  0  0  0
 22 25  1  0  0  0  0
 23 28  1  6  0  0  0
 23 27  1  0  0  0  0
 24 26  1  0  0  0  0
 25 19  1  1  0  0  0
 25 24  1  0  0  0  0
 27 19  1  0  0  0  0
 28 18  1  0  0  0  0
 29 31  1  0  0  0  0
 30 29  1  0  0  0  0
 32 34  1  0  0  0  0
 32 13  1  0  0  0  0
 33 32  2  0  0  0  0
M  END
>  <MODEL>
6

>  <REMARK>
 VINA RESULT:      -6.7      2.024      2.526
  Name = 
  3 active torsions:
  status: ('A' for Active; 'I' for Inactive)
    1  A    between atoms: C_3  and  C_25
    2  A    between atoms: C_7  and  C_11
    3  A    between atoms: C_8  and  C_18
                            x       y       z     vdW  Elec       q    Type
                         _______ _______ _______ _____ _____    ______ ____

>  <TORSDO>
F 3

$$$$
=
 OpenBabel10272415103D

 34 39  0  0  1  0  0  0  0  0999 V2000
  185.8830  177.1050  136.7520 N   0  0  0  0  0  0  0  0  0  0  0  0
  182.2970  177.9470  136.6790 C   0  0  0  0  0  3  0  0  0  0  0  0
  183.3250  176.2310  135.4310 N   0  0  0  0  0  2  0  0  0  0  0  0
  188.2700  177.2890  137.5090 C   0  0  2  0  0  3  0  0  0  0  0  0
  187.0450  178.4170  136.7590 S   0  0  0  0  0  0  0  0  0  0  0  0
  185.6950  174.6370  137.1900 C   0  0  1  0  0  3  0  0  0  0  0  0
  185.7860  173.6430  136.1940 O   0  0  0  0  0  0  0  0  0  0  0  0
  187.7090  175.9450  137.6780 N   0  0  0  0  0  2  0  0  0  0  0  0
  184.3580  175.2530  135.1190 C   0  0  0  0  0  2  0  0  0  0  0  0
  186.5760  175.8240  136.7740 C   0  0  2  0  0  3  0  0  0  0  0  0
  184.5450  174.2980  136.2940 C   0  0  2  0  0  3  0  0  0  0  0  0
  182.1920  179.0090  137.7210 C   0  0  0  0  0  2  0  0  0  0  0  0
  182.2600  178.4090  139.0900 C   0  0  0  0  0  0  0  0  0  0  0  0
  183.3680  177.7940  139.5120 C   0  0  0  0  0  3  0  0  0  0  0  0
  183.3780  177.1810  136.5050 C   0  0  0  0  0  0  0  0  0  0  0  0
  184.5620  177.5360  138.6840 C   0  0  0  0  0  3  0  0  0  0  0  0
  184.5990  177.3120  137.3570 C   0  0  0  0  0  0  0  0  0  0  0  0
  190.8190  177.7240  140.2830 C   0  0  0  0  0  2  0  0  0  0  0  0
  188.1360  178.7790  141.1000 C   0  0  0  0  0  2  0  0  0  0  0  0
  190.3070  176.2720  143.8400 C   0  0  2  0  0  3  0  0  0  0  0  0
  191.0370  176.6090  142.5300 C   0  0  0  0  0  2  0  0  0  0  0  0
  190.3780  177.7540  141.7500 C   0  0  2  0  0  3  0  0  0  0  0  0
  188.7970  177.8460  138.8300 C   0  0  1  0  0  3  0  0  0  0  0  0
  188.5460  178.0650  143.4670 C   0  0  0  0  0  2  0  0  0  0  0  0
  188.8590  177.7850  141.9920 C   0  0  1  0  0  3  0  0  0  0  0  0
  189.5960  177.4950  144.4330 C   0  0  0  0  0  2  0  0  0  0  0  0
  187.6630  178.0740  139.8370 C   0  0  0  0  0  2  0  0  0  0  0  0
  189.8840  176.9280  139.3810 C   0  0  0  0  0  2  0  0  0  0  0  0
  191.2650  175.6260  144.8360 C   0  0  0  0  0  3  0  0  0  0  0  0
  191.8540  176.6010  145.6400 O   0  0  0  0  0  1  0  0  0  0  0  0
  192.2590  174.9010  144.1740 O   0  0  0  0  0  1  0  0  0  0  0  0
  181.1220  178.5700  140.0100 C   0  0  0  0  0  0  0  0  0  0  0  0
  180.6410  179.7130  140.2320 O   0  0  0  0  0  0  0  0  0  0  0  0
  180.5610  177.4630  140.6370 O   0  0  0  0  0  1  0  0  0  0  0  0
  1  5  1  0  0  0  0
  1 10  1  0  0  0  0
  1 17  1  0  0  0  0
  2 12  1  0  0  0  0
  3 15  1  0  0  0  0
  4  5  1  1  0  0  0
  4  8  1  0  0  0  0
  4 23  1  0  0  0  0
  6  7  1  6  0  0  0
  7 11  1  0  0  0  0
  9  3  1  0  0  0  0
 10  6  1  0  0  0  0
 10  8  1  1  0  0  0
 11  9  1  6  0  0  0
 11  6  1  0  0  0  0
 12 13  1  0  0  0  0
 13 14  2  0  0  0  0
 13 32  1  0  0  0  0
 15  2  2  0  0  0  0
 15 17  1  0  0  0  0
 16 14  1  0  0  0  0
 17 16  2  0  0  0  0
 20 26  1  0  0  0  0
 20 29  1  1  0  0  0
 21 20  1  0  0  0  0
 22 18  1  6  0  0  0
 22 25  1  0  0  0  0
 22 21  1  0  0  0  0
 23 28  1  1  0  0  0
 23 27  1  0  0  0  0
 24 26  1  0  0  0  0
 25 19  1  6  0  0  0
 25 24  1  0  0  0  0
 27 19  1  0  0  0  0
 28 18  1  0  0  0  0
 29 30  1  0  0  0  0
 31 29  1  0  0  0  0
 32 33  2  0  0  0  0
 32 34  1  0  0  0  0
M  END
>  <MODEL>
7

>  <REMARK>
 VINA RESULT:      -6.6      3.145      5.550
  Name = 
  3 active torsions:
  status: ('A' for Active; 'I' for Inactive)
    1  A    between atoms: C_3  and  C_25
    2  A    between atoms: C_7  and  C_11
    3  A    between atoms: C_8  and  C_18
                            x       y       z     vdW  Elec       q    Type
                         _______ _______ _______ _____ _____    ______ ____

>  <TORSDO>
F 3

$$$$
=
 OpenBabel10272415103D

 34 39  0  0  1  0  0  0  0  0999 V2000
  186.4620  175.5390  135.6860 N   0  0  0  0  0  0  0  0  0  0  0  0
  182.8960  176.2990  135.1550 C   0  0  0  0  0  3  0  0  0  0  0  0
  183.9870  174.3210  134.4830 N   0  0  0  0  0  2  0  0  0  0  0  0
  188.7960  175.9390  136.5190 C   0  0  2  0  0  3  0  0  0  0  0  0
  187.6330  176.8150  135.4160 S   0  0  0  0  0  0  0  0  0  0  0  0
  186.2230  173.2770  136.7560 C   0  0  1  0  0  3  0  0  0  0  0  0
  186.3690  172.0540  136.0710 O   0  0  0  0  0  0  0  0  0  0  0  0
  188.2130  174.6850  137.0060 N   0  0  0  0  0  2  0  0  0  0  0  0
  185.0300  173.3040  134.5130 C   0  0  0  0  0  2  0  0  0  0  0  0
  187.1400  174.3170  136.0960 C   0  0  2  0  0  3  0  0  0  0  0  0
  185.1310  172.7000  135.9100 C   0  0  2  0  0  3  0  0  0  0  0  0
  182.7330  177.6010  135.8650 C   0  0  0  0  0  2  0  0  0  0  0  0
  182.7060  177.3910  137.3460 C   0  0  0  0  0  0  0  0  0  0  0  0
  183.7780  176.9210  137.9890 C   0  0  0  0  0  3  0  0  0  0  0  0
  183.9790  175.5240  135.2640 C   0  0  0  0  0  0  0  0  0  0  0  0
  185.0210  176.4600  137.3400 C   0  0  0  0  0  3  0  0  0  0  0  0
  185.1430  175.8900  136.1280 C   0  0  0  0  0  0  0  0  0  0  0  0
  191.1120  177.0590  139.3060 C   0  0  0  0  0  2  0  0  0  0  0  0
  188.4470  178.4140  139.5000 C   0  0  0  0  0  2  0  0  0  0  0  0
  190.1850  176.7270  143.0550 C   0  0  2  0  0  3  0  0  0  0  0  0
  191.0510  176.6390  141.7880 C   0  0  0  0  0  2  0  0  0  0  0  0
  190.5450  177.5320  140.6490 C   0  0  2  0  0  3  0  0  0  0  0  0
  189.2400  176.8350  137.6740 C   0  0  1  0  0  3  0  0  0  0  0  0
  188.5930  178.4040  142.0020 C   0  0  0  0  0  2  0  0  0  0  0  0
  189.0170  177.6950  140.7110 C   0  0  1  0  0  3  0  0  0  0  0  0
  189.5120  178.0980  143.1960 C   0  0  0  0  0  2  0  0  0  0  0  0
  188.0400  177.3920  138.4490 C   0  0  0  0  0  2  0  0  0  0  0  0
  190.2080  176.0740  138.5760 C   0  0  0  0  0  2  0  0  0  0  0  0
  191.0040  176.3600  144.2890 C   0  0  0  0  0  3  0  0  0  0  0  0
  191.6080  177.4990  144.8220 O   0  0  0  0  0  1  0  0  0  0  0  0
  191.9810  175.4130  143.9760 O   0  0  0  0  0  1  0  0  0  0  0  0
  181.5120  177.7840  138.1120 C   0  0  0  0  0  0  0  0  0  0  0  0
  180.8820  178.8330  137.8140 O   0  0  0  0  0  0  0  0  0  0  0  0
  181.0630  176.9970  139.1690 O   0  0  0  0  0  1  0  0  0  0  0  0
  1 10  1  0  0  0  0
  1 17  1  0  0  0  0
  2 15  2  0  0  0  0
  2 12  1  0  0  0  0
  3  9  1  0  0  0  0
  3 15  1  0  0  0  0
  4  5  1  1  0  0  0
  4  8  1  0  0  0  0
  4 23  1  0  0  0  0
  5  1  1  0  0  0  0
  6  7  1  6  0  0  0
 10  6  1  0  0  0  0
 10  8  1  1  0  0  0
 11  9  1  6  0  0  0
 11  7  1  0  0  0  0
 11  6  1  0  0  0  0
 12 13  1  0  0  0  0
 13 14  2  0  0  0  0
 13 32  1  0  0  0  0
 15 17  1  0  0  0  0
 16 14  1  0  0  0  0
 17 16  2  0  0  0  0
 20 26  1  0  0  0  0
 20 29  1  1  0  0  0
 21 20  1  0  0  0  0
 22 18  1  6  0  0  0
 22 25  1  0  0  0  0
 22 21  1  0  0  0  0
 23 27  1  1  0  0  0
 23 28  1  0  0  0  0
 24 26  1  0  0  0  0
 25 19  1  6  0  0  0
 25 24  1  0  0  0  0
 27 19  1  0  0  0  0
 28 18  1  0  0  0  0
 29 30  1  0  0  0  0
 31 29  1  0  0  0  0
 32 34  1  0  0  0  0
 33 32  2  0  0  0  0
M  END
>  <MODEL>
8

>  <REMARK>
 VINA RESULT:      -6.5      3.849      6.010
  Name = 
  3 active torsions:
  status: ('A' for Active; 'I' for Inactive)
    1  A    between atoms: C_3  and  C_25
    2  A    between atoms: C_7  and  C_11
    3  A    between atoms: C_8  and  C_18
                            x       y       z     vdW  Elec       q    Type
                         _______ _______ _______ _____ _____    ______ ____

>  <TORSDO>
F 3

$$$$
=
 OpenBabel10272415103D

 34 39  0  0  1  0  0  0  0  0999 V2000
  189.9600  176.9810  143.1650 N   0  0  0  0  0  0  0  0  0  0  0  0
  187.4110  177.0880  145.8220 C   0  0  0  0  0  3  0  0  0  0  0  0
  189.7360  177.2920  146.1490 N   0  0  0  0  0  2  0  0  0  0  0  0
  190.8180  176.8360  140.8090 C   0  0  2  0  0  3  0  0  0  0  0  0
  189.7860  175.7880  141.8920 S   0  0  0  0  0  0  0  0  0  0  0  0
  191.1990  179.0950  143.7270 C   0  0  1  0  0  3  0  0  0  0  0  0
  192.3980  179.1410  144.4670 O   0  0  0  0  0  0  0  0  0  0  0  0
  191.2660  178.0400  141.5170 N   0  0  0  0  0  2  0  0  0  0  0  0
  191.1120  177.5750  145.7610 C   0  0  0  0  0  2  0  0  0  0  0  0
  191.1610  177.7750  142.9430 C   0  0  2  0  0  3  0  0  0  0  0  0
  191.2200  178.9970  145.2210 C   0  0  2  0  0  3  0  0  0  0  0  0
  186.1360  177.0260  145.0510 C   0  0  0  0  0  2  0  0  0  0  0  0
  185.8490  178.3440  144.4030 C   0  0  0  0  0  0  0  0  0  0  0  0
  186.6570  178.8300  143.4570 C   0  0  0  0  0  3  0  0  0  0  0  0
  188.6070  177.2980  145.2650 C   0  0  0  0  0  0  0  0  0  0  0  0
  187.9320  178.2190  143.0350 C   0  0  0  0  0  3  0  0  0  0  0  0
  188.7810  177.5020  143.7940 C   0  0  0  0  0  0  0  0  0  0  0  0
  188.1490  178.5550  138.7340 C   0  0  0  0  0  2  0  0  0  0  0  0
  189.5220  176.4010  137.1670 C   0  0  0  0  0  2  0  0  0  0  0  0
  185.2260  176.6260  137.0730 C   0  0  2  0  0  3  0  0  0  0  0  0
  185.9310  177.7360  137.8700 C   0  0  0  0  0  2  0  0  0  0  0  0
  187.4390  177.8070  137.6010 C   0  0  2  0  0  3  0  0  0  0  0  0
  190.0810  177.1880  139.5180 C   0  0  1  0  0  3  0  0  0  0  0  0
  187.3870  175.8800  135.9620 C   0  0  0  0  0  2  0  0  0  0  0  0
  188.0050  176.4180  137.2580 C   0  0  1  0  0  3  0  0  0  0  0  0
  185.9350  176.3360  135.7440 C   0  0  0  0  0  2  0  0  0  0  0  0
  190.1060  176.0230  138.5210 C   0  0  0  0  0  2  0  0  0  0  0  0
  188.6610  177.6420  139.8410 C   0  0  0  0  0  2  0  0  0  0  0  0
  183.7520  176.9630  136.8760 C   0  0  0  0  0  3  0  0  0  0  0  0
  183.5060  177.2880  135.5420 O   0  0  0  0  0  1  0  0  0  0  0  0
  183.3680  178.0250  137.6980 O   0  0  0  0  0  1  0  0  0  0  0  0
  184.6200  179.0730  144.7560 C   0  0  0  0  0  0  0  0  0  0  0  0
  184.1280  179.9130  143.9570 O   0  0  0  0  0  0  0  0  0  0  0  0
  183.9850  178.8380  145.9710 O   0  0  0  0  0  1  0  0  0  0  0  0
  1 17  1  0  0  0  0
  4  8  1  1  0  0  0
  4  5  1  0  0  0  0
  5  1  1  0  0  0  0
  6  7  1  6  0  0  0
  6 11  1  0  0  0  0
  7 11  1  0  0  0  0
  9  3  1  0  0  0  0
 10  8  1  6  0  0  0
 10  1  1  0  0  0  0
 10  6  1  0  0  0  0
 11  9  1  6  0  0  0
 12  2  1  0  0  0  0
 13 32  1  0  0  0  0
 13 12  1  0  0  0  0
 14 13  2  0  0  0  0
 15  2  2  0  0  0  0
 15  3  1  0  0  0  0
 16 14  1  0  0  0  0
 16 17  2  0  0  0  0
 17 15  1  0  0  0  0
 18 28  1  0  0  0  0
 19 25  1  0  0  0  0
 19 27  1  0  0  0  0
 20 29  1  6  0  0  0
 20 21  1  0  0  0  0
 22 21  1  1  0  0  0
 22 18  1  0  0  0  0
 23 27  1  6  0  0  0
 23 28  1  0  0  0  0
 23  4  1  0  0  0  0
 25 24  1  6  0  0  0
 25 22  1  0  0  0  0
 26 24  1  0  0  0  0
 26 20  1  0  0  0  0
 29 31  1  0  0  0  0
 30 29  1  0  0  0  0
 32 34  1  0  0  0  0
 33 32  2  0  0  0  0
M  END
>  <MODEL>
9

>  <REMARK>
 VINA RESULT:      -6.3      4.163      9.732
  Name = 
  3 active torsions:
  status: ('A' for Active; 'I' for Inactive)
    1  A    between atoms: C_3  and  C_25
    2  A    between atoms: C_7  and  C_11
    3  A    between atoms: C_8  and  C_18
                            x       y       z     vdW  Elec       q    Type
                         _______ _______ _______ _____ _____    ______ ____

>  <TORSDO>
F 3

$$$$
