=
 OpenBabel10272413403D

 32 37  0  0  0  0  0  0  0  0999 V2000
  189.1300  177.2690  145.9540 C   0  0  0  0  0  0  0  0  0  0  0  0
  185.7260  178.2910  142.2790 C   0  0  0  0  0  0  0  0  0  0  0  0
  189.5370  177.7410  140.0720 O   0  0  0  0  0  0  0  0  0  0  0  0
  188.2040  178.2210  137.7970 S   0  0  0  0  0  0  0  0  0  0  0  0
  183.3070  178.8110  141.8620 N   0  0  0  0  0  0  0  0  0  0  0  0
  182.2680  179.0950  141.0340 C   0  0  0  0  0  0  0  0  0  0  0  0
  186.8370  177.8660  144.4470 C   0  0  0  0  0  0  0  0  0  0  0  0
  188.1770  177.7910  142.4270 O   0  0  0  0  0  0  0  0  0  0  0  0
  180.1830  179.6680  139.3590 N   0  0  0  0  0  0  0  0  0  0  0  0
  189.2180  177.3820  144.5650 C   0  0  0  0  0  3  0  0  0  0  0  0
  188.4220  178.0120  139.5540 C   0  0  0  0  0  0  0  0  0  0  0  0
  187.0620  178.0860  141.6370 C   0  0  0  0  0  0  0  0  0  0  0  0
  187.1940  178.1850  140.3040 C   0  0  0  0  0  0  0  0  0  0  0  0
  184.7800  178.6950  139.9900 C   0  0  0  0  0  0  0  0  0  0  0  0
  179.9820  179.5800  140.7020 C   0  0  0  0  0  3  0  0  0  0  0  0
  187.9020  177.4530  146.5940 C   0  0  0  0  0  3  0  0  0  0  0  0
  188.0780  177.6800  143.8120 C   0  0  0  0  0  0  0  0  0  0  0  0
  181.0210  179.2960  141.5330 N   0  0  0  0  0  0  0  0  0  0  0  0
  186.7610  177.7500  145.8440 C   0  0  0  0  0  3  0  0  0  0  0  0
  186.4090  178.5550  138.0380 C   0  0  0  0  0  2  0  0  0  0  0  0
  186.0930  178.4830  139.4620 N   0  0  0  0  0  0  0  0  0  0  0  0
  183.7380  178.9800  139.1600 N   0  0  0  0  0  0  0  0  0  0  0  0
  185.6330  178.1830  143.6330 C   0  0  0  0  0  0  0  0  0  0  0  0
  184.3360  178.3710  144.3600 C   0  0  0  0  0  1  0  0  0  0  0  0
  181.4160  179.4730  138.8200 C   0  0  0  0  0  3  0  0  0  0  0  0
  184.5650  178.6070  141.3800 C   0  0  0  0  0  0  0  0  0  0  0  0
  182.4920  179.1810  139.6540 C   0  0  0  0  0  0  0  0  0  0  0  0
  191.2870  176.7070  147.3720 C   0  0  0  0  0  0  0  0  0  0  0  0
  190.3030  176.9640  146.7250 C   0  0  0  0  0  0  0  0  0  0  0  0
  192.4590  176.4020  148.1410 C   0  0  0  0  0  0  0  0  0  0  0  0
  192.8760  177.2690  149.1420 O   0  0  0  0  0  1  0  0  0  0  0  0
  193.1060  175.3490  147.9100 O   0  0  0  0  0  0  0  0  0  0  0  0
  1 16  1  0  0  0  0
  1 29  1  0  0  0  0
  2 23  2  0  0  0  0
  4 20  1  0  0  0  0
  4 11  1  0  0  0  0
  6 18  1  0  0  0  0
  6  5  2  0  0  0  0
  7 19  1  0  0  0  0
  8 17  1  0  0  0  0
  9 15  1  0  0  0  0
 10  1  2  0  0  0  0
 11  3  2  0  0  0  0
 11 13  1  0  0  0  0
 12  2  1  0  0  0  0
 12  8  1  0  0  0  0
 13 12  2  0  0  0  0
 14 26  2  0  0  0  0
 15 18  2  0  0  0  0
 17  7  2  0  0  0  0
 17 10  1  0  0  0  0
 19 16  2  0  0  0  0
 20 21  1  0  0  0  0
 21 14  1  0  0  0  0
 21 13  1  0  0  0  0
 22 27  2  0  0  0  0
 22 14  1  0  0  0  0
 23 24  1  0  0  0  0
 23  7  1  0  0  0  0
 25  9  2  0  0  0  0
 25 27  1  0  0  0  0
 26  5  1  0  0  0  0
 26  2  1  0  0  0  0
 27  6  1  0  0  0  0
 28 30  1  0  0  0  0
 29 28  3  0  0  0  0
 30 31  1  0  0  0  0
 32 30  2  0  0  0  0
M  END
>  <MODEL>
1

>  <REMARK>
 VINA RESULT:     -10.2      0.000      0.000
  Name = 
  2 active torsions:
  status: ('A' for Active; 'I' for Inactive)
    1  A    between atoms: C_1  and  C_10
    2  A    between atoms: C_2  and  C_24
                            x       y       z     vdW  Elec       q    Type
                         _______ _______ _______ _____ _____    ______ ____

>  <TORSDO>
F 2

$$$$
=
 OpenBabel10272413403D

 32 37  0  0  0  0  0  0  0  0999 V2000
  189.5100  177.2460  146.8100 C   0  0  0  0  0  0  0  0  0  0  0  0
  185.8290  178.2530  143.4080 C   0  0  0  0  0  0  0  0  0  0  0  0
  189.4510  177.6640  140.9100 O   0  0  0  0  0  0  0  0  0  0  0  0
  187.9430  178.1300  138.7440 S   0  0  0  0  0  0  0  0  0  0  0  0
  183.3870  178.7830  143.1790 N   0  0  0  0  0  0  0  0  0  0  0  0
  182.2870  179.0650  142.4340 C   0  0  0  0  0  0  0  0  0  0  0  0
  187.1070  177.8420  145.4840 C   0  0  0  0  0  0  0  0  0  0  0  0
  188.2820  177.7410  143.3660 O   0  0  0  0  0  0  0  0  0  0  0  0
  180.0780  179.6330  140.9250 N   0  0  0  0  0  0  0  0  0  0  0  0
  189.4870  177.3470  145.4180 C   0  0  0  0  0  3  0  0  0  0  0  0
  188.2990  177.9360  140.4800 C   0  0  0  0  0  0  0  0  0  0  0  0
  187.1090  178.0350  142.6640 C   0  0  0  0  0  0  0  0  0  0  0  0
  187.1350  178.1220  141.3230 C   0  0  0  0  0  0  0  0  0  0  0  0
  184.7060  178.6420  141.1970 C   0  0  0  0  0  0  0  0  0  0  0  0
  179.9840  179.5590  142.2800 C   0  0  0  0  0  3  0  0  0  0  0  0
  188.3370  177.4420  147.5440 C   0  0  0  0  0  3  0  0  0  0  0  0
  188.2920  177.6440  144.7550 C   0  0  0  0  0  0  0  0  0  0  0  0
  181.0840  179.2770  143.0280 N   0  0  0  0  0  0  0  0  0  0  0  0
  187.1410  177.7380  146.8840 C   0  0  0  0  0  3  0  0  0  0  0  0
  186.1740  178.4760  139.1240 C   0  0  0  0  0  2  0  0  0  0  0  0
  185.9720  178.4190  140.5690 N   0  0  0  0  0  0  0  0  0  0  0  0
  183.6020  178.9250  140.4500 N   0  0  0  0  0  0  0  0  0  0  0  0
  185.8440  178.1570  144.7650 C   0  0  0  0  0  0  0  0  0  0  0  0
  184.6090  178.3590  145.5920 C   0  0  0  0  0  1  0  0  0  0  0  0
  181.2630  179.4280  140.2910 C   0  0  0  0  0  3  0  0  0  0  0  0
  184.6020  178.5670  142.6000 C   0  0  0  0  0  0  0  0  0  0  0  0
  182.4010  179.1380  141.0400 C   0  0  0  0  0  0  0  0  0  0  0  0
  191.7690  176.6860  148.0580 C   0  0  0  0  0  0  0  0  0  0  0  0
  190.7390  176.9410  147.4880 C   0  0  0  0  0  0  0  0  0  0  0  0
  192.9970  176.3820  148.7350 C   0  0  0  0  0  0  0  0  0  0  0  0
  193.4810  177.2410  149.7130 O   0  0  0  0  0  1  0  0  0  0  0  0
  193.6330  175.3360  148.4450 O   0  0  0  0  0  0  0  0  0  0  0  0
  1 29  1  0  0  0  0
  1 16  1  0  0  0  0
  2 23  2  0  0  0  0
  4 20  1  0  0  0  0
  4 11  1  0  0  0  0
  6 18  1  0  0  0  0
  6  5  2  0  0  0  0
  7 19  1  0  0  0  0
  8 17  1  0  0  0  0
  9 15  1  0  0  0  0
 10  1  2  0  0  0  0
 11  3  2  0  0  0  0
 11 13  1  0  0  0  0
 12  8  1  0  0  0  0
 12  2  1  0  0  0  0
 13 12  2  0  0  0  0
 14 26  2  0  0  0  0
 15 18  2  0  0  0  0
 17 10  1  0  0  0  0
 17  7  2  0  0  0  0
 19 16  2  0  0  0  0
 20 21  1  0  0  0  0
 21 14  1  0  0  0  0
 21 13  1  0  0  0  0
 22 27  2  0  0  0  0
 22 14  1  0  0  0  0
 23  7  1  0  0  0  0
 23 24  1  0  0  0  0
 25  9  2  0  0  0  0
 25 27  1  0  0  0  0
 26  5  1  0  0  0  0
 26  2  1  0  0  0  0
 27  6  1  0  0  0  0
 28 30  1  0  0  0  0
 29 28  3  0  0  0  0
 30 31  1  0  0  0  0
 32 30  2  0  0  0  0
M  END
>  <MODEL>
2

>  <REMARK>
 VINA RESULT:     -10.1      1.001      1.137
  Name = 
  2 active torsions:
  status: ('A' for Active; 'I' for Inactive)
    1  A    between atoms: C_1  and  C_10
    2  A    between atoms: C_2  and  C_24
                            x       y       z     vdW  Elec       q    Type
                         _______ _______ _______ _____ _____    ______ ____

>  <TORSDO>
F 2

$$$$
=
 OpenBabel10272413403D

 32 37  0  0  0  0  0  0  0  0999 V2000
  191.6830  176.7140  138.1690 C   0  0  0  0  0  0  0  0  0  0  0  0
  188.5290  177.5790  142.0980 C   0  0  0  0  0  0  0  0  0  0  0  0
  192.2960  176.2480  144.0340 O   0  0  0  0  0  0  0  0  0  0  0  0
  191.0910  176.5380  146.4090 S   0  0  0  0  0  0  0  0  0  0  0  0
  186.2060  178.3190  142.6930 N   0  0  0  0  0  0  0  0  0  0  0  0
  185.2330  178.6010  143.5970 C   0  0  0  0  0  0  0  0  0  0  0  0
  189.5220  177.3520  139.8460 C   0  0  0  0  0  0  0  0  0  0  0  0
  190.8920  176.8120  141.7720 O   0  0  0  0  0  0  0  0  0  0  0  0
  183.2800  179.1630  145.4270 N   0  0  0  0  0  0  0  0  0  0  0  0
  191.8190  176.6060  139.5540 C   0  0  0  0  0  3  0  0  0  0  0  0
  191.2360  176.5700  144.6330 C   0  0  0  0  0  0  0  0  0  0  0  0
  189.8450  177.1200  142.6450 C   0  0  0  0  0  0  0  0  0  0  0  0
  190.0220  177.0020  143.9710 C   0  0  0  0  0  0  0  0  0  0  0  0
  187.6990  177.7460  144.4610 C   0  0  0  0  0  0  0  0  0  0  0  0
  183.0360  179.3040  144.0960 C   0  0  0  0  0  3  0  0  0  0  0  0
  190.4720  177.1390  137.6160 C   0  0  0  0  0  3  0  0  0  0  0  0
  190.7450  176.9230  140.3910 C   0  0  0  0  0  0  0  0  0  0  0  0
  184.0090  179.0240  143.1880 N   0  0  0  0  0  0  0  0  0  0  0  0
  189.3970  177.4570  138.4510 C   0  0  0  0  0  3  0  0  0  0  0  0
  189.3470  177.1200  146.2980 C   0  0  0  0  0  2  0  0  0  0  0  0
  188.9880  177.3010  144.8950 N   0  0  0  0  0  0  0  0  0  0  0  0
  186.7230  178.0280  145.3680 N   0  0  0  0  0  0  0  0  0  0  0  0
  188.3890  177.6860  140.7490 C   0  0  0  0  0  0  0  0  0  0  0  0
  187.1080  178.1380  140.1140 C   0  0  0  0  0  1  0  0  0  0  0  0
  184.4920  178.7430  145.8780 C   0  0  0  0  0  3  0  0  0  0  0  0
  187.4410  177.8940  143.0840 C   0  0  0  0  0  0  0  0  0  0  0  0
  185.5000  178.4500  144.9640 C   0  0  0  0  0  0  0  0  0  0  0  0
  193.7140  176.1130  136.5910 C   0  0  0  0  0  0  0  0  0  0  0  0
  192.7870  176.3870  137.3110 C   0  0  0  0  0  0  0  0  0  0  0  0
  194.8180  175.7870  135.7340 C   0  0  0  0  0  0  0  0  0  0  0  0
  196.0130  176.4850  135.8460 O   0  0  0  0  0  1  0  0  0  0  0  0
  194.7030  174.8680  134.8830 O   0  0  0  0  0  0  0  0  0  0  0  0
  1 10  1  0  0  0  0
  2 12  1  0  0  0  0
  2 26  1  0  0  0  0
  3 11  2  0  0  0  0
  5 26  1  0  0  0  0
  5  6  2  0  0  0  0
  6 27  1  0  0  0  0
  7 17  1  0  0  0  0
  7 23  1  0  0  0  0
  8 12  1  0  0  0  0
  9 25  2  0  0  0  0
 10 17  2  0  0  0  0
 11  4  1  0  0  0  0
 12 13  2  0  0  0  0
 13 11  1  0  0  0  0
 13 21  1  0  0  0  0
 14 21  1  0  0  0  0
 14 22  1  0  0  0  0
 15  9  1  0  0  0  0
 16  1  2  0  0  0  0
 16 19  1  0  0  0  0
 17  8  1  0  0  0  0
 18  6  1  0  0  0  0
 18 15  2  0  0  0  0
 19  7  2  0  0  0  0
 20  4  1  0  0  0  0
 21 20  1  0  0  0  0
 23  2  2  0  0  0  0
 24 23  1  0  0  0  0
 26 14  2  0  0  0  0
 27 22  2  0  0  0  0
 27 25  1  0  0  0  0
 28 29  3  0  0  0  0
 29  1  1  0  0  0  0
 30 31  1  0  0  0  0
 30 28  1  0  0  0  0
 32 30  2  0  0  0  0
M  END
>  <MODEL>
3

>  <REMARK>
 VINA RESULT:      -9.3      4.022      7.250
  Name = 
  2 active torsions:
  status: ('A' for Active; 'I' for Inactive)
    1  A    between atoms: C_1  and  C_10
    2  A    between atoms: C_2  and  C_24
                            x       y       z     vdW  Elec       q    Type
                         _______ _______ _______ _____ _____    ______ ____

>  <TORSDO>
F 2

$$$$
=
 OpenBabel10272413403D

 32 37  0  0  0  0  0  0  0  0999 V2000
  182.6550  179.3050  139.0600 C   0  0  0  0  0  0  0  0  0  0  0  0
  186.4220  178.2550  142.3540 C   0  0  0  0  0  0  0  0  0  0  0  0
  188.4350  178.2330  138.3970 O   0  0  0  0  0  0  0  0  0  0  0  0
  190.7320  177.6620  139.6520 S   0  0  0  0  0  0  0  0  0  0  0  0
  186.9370  177.9230  144.7870 N   0  0  0  0  0  0  0  0  0  0  0  0
  187.7960  177.6590  145.8050 C   0  0  0  0  0  0  0  0  0  0  0  0
  184.2390  178.7810  141.3200 C   0  0  0  0  0  0  0  0  0  0  0  0
  186.1710  178.5370  139.8760 O   0  0  0  0  0  0  0  0  0  0  0  0
  189.5360  177.1240  147.8460 N   0  0  0  0  0  0  0  0  0  0  0  0
  184.0200  179.0510  138.9120 C   0  0  0  0  0  3  0  0  0  0  0  0
  188.9920  178.0180  139.5060 C   0  0  0  0  0  0  0  0  0  0  0  0
  186.9980  178.2720  140.9720 C   0  0  0  0  0  0  0  0  0  0  0  0
  188.3060  178.0330  140.7820 C   0  0  0  0  0  0  0  0  0  0  0  0
  188.7180  177.7210  143.2150 C   0  0  0  0  0  0  0  0  0  0  0  0
  188.2210  177.3590  148.1070 C   0  0  0  0  0  3  0  0  0  0  0  0
  182.0770  179.2990  140.3320 C   0  0  0  0  0  3  0  0  0  0  0  0
  184.8110  178.7890  140.0360 C   0  0  0  0  0  0  0  0  0  0  0  0
  187.3580  177.6240  147.0900 N   0  0  0  0  0  0  0  0  0  0  0  0
  182.8650  179.0380  141.4570 C   0  0  0  0  0  3  0  0  0  0  0  0
  190.5720  177.5210  141.4810 C   0  0  0  0  0  2  0  0  0  0  0  0
  189.1820  177.7580  141.8620 N   0  0  0  0  0  0  0  0  0  0  0  0
  189.5800  177.4560  144.2360 N   0  0  0  0  0  0  0  0  0  0  0  0
  185.0920  178.5010  142.5050 C   0  0  0  0  0  0  0  0  0  0  0  0
  184.4310  178.5050  143.8510 C   0  0  0  0  0  1  0  0  0  0  0  0
  190.0150  177.1500  146.5740 C   0  0  0  0  0  3  0  0  0  0  0  0
  187.3580  177.9630  143.4910 C   0  0  0  0  0  0  0  0  0  0  0  0
  189.1470  177.4200  145.5190 C   0  0  0  0  0  0  0  0  0  0  0  0
  181.1660  179.7970  136.9350 C   0  0  0  0  0  0  0  0  0  0  0  0
  181.8450  179.5730  137.9050 C   0  0  0  0  0  0  0  0  0  0  0  0
  180.3560  180.0640  135.7810 C   0  0  0  0  0  0  0  0  0  0  0  0
  179.9850  179.0250  134.9380 O   0  0  0  0  0  0  0  0  0  0  0  0
  179.9820  181.2400  135.5340 O   0  0  0  0  0  1  0  0  0  0  0  0
  1 16  1  0  0  0  0
  2 23  2  0  0  0  0
  2 26  1  0  0  0  0
  3 11  2  0  0  0  0
  4 20  1  0  0  0  0
  5  6  2  0  0  0  0
  6 18  1  0  0  0  0
  7 19  1  0  0  0  0
  7 23  1  0  0  0  0
  8 17  1  0  0  0  0
  8 12  1  0  0  0  0
  9 15  1  0  0  0  0
 10  1  2  0  0  0  0
 10 17  1  0  0  0  0
 11  4  1  0  0  0  0
 11 13  1  0  0  0  0
 12  2  1  0  0  0  0
 13 12  2  0  0  0  0
 13 21  1  0  0  0  0
 14 26  2  0  0  0  0
 14 22  1  0  0  0  0
 16 19  2  0  0  0  0
 17  7  2  0  0  0  0
 18 15  2  0  0  0  0
 20 21  1  0  0  0  0
 21 14  1  0  0  0  0
 22 27  2  0  0  0  0
 23 24  1  0  0  0  0
 25  9  2  0  0  0  0
 26  5  1  0  0  0  0
 27  6  1  0  0  0  0
 27 25  1  0  0  0  0
 28 29  3  0  0  0  0
 29  1  1  0  0  0  0
 30 28  1  0  0  0  0
 31 30  2  0  0  0  0
 32 30  1  0  0  0  0
M  END
>  <MODEL>
4

>  <REMARK>
 VINA RESULT:      -9.3      4.009      8.974
  Name = 
  2 active torsions:
  status: ('A' for Active; 'I' for Inactive)
    1  A    between atoms: C_1  and  C_10
    2  A    between atoms: C_2  and  C_24
                            x       y       z     vdW  Elec       q    Type
                         _______ _______ _______ _____ _____    ______ ____

>  <TORSDO>
F 2

$$$$
=
 OpenBabel10272413403D

 32 37  0  0  0  0  0  0  0  0999 V2000
  191.8760  176.6530  137.6240 C   0  0  0  0  0  0  0  0  0  0  0  0
  188.3190  177.6090  141.1690 C   0  0  0  0  0  0  0  0  0  0  0  0
  192.0010  176.8640  143.5340 O   0  0  0  0  0  0  0  0  0  0  0  0
  190.5670  177.2810  145.7590 S   0  0  0  0  0  0  0  0  0  0  0  0
  185.8960  178.1760  141.4900 N   0  0  0  0  0  0  0  0  0  0  0  0
  184.8240  178.4530  142.2770 C   0  0  0  0  0  0  0  0  0  0  0  0
  189.5260  177.2470  139.0420 C   0  0  0  0  0  0  0  0  0  0  0  0
  190.7600  177.0480  141.1190 O   0  0  0  0  0  0  0  0  0  0  0  0
  182.6730  179.0090  143.8720 N   0  0  0  0  0  0  0  0  0  0  0  0
  191.8970  176.7040  139.0190 C   0  0  0  0  0  3  0  0  0  0  0  0
  190.8670  177.1410  144.0080 C   0  0  0  0  0  0  0  0  0  0  0  0
  189.6160  177.3410  141.8660 C   0  0  0  0  0  0  0  0  0  0  0  0
  189.6840  177.3800  143.2070 C   0  0  0  0  0  0  0  0  0  0  0  0
  187.2690  177.9400  143.4250 C   0  0  0  0  0  0  0  0  0  0  0  0
  182.5380  178.9850  142.5180 C   0  0  0  0  0  3  0  0  0  0  0  0
  190.6860  176.8960  136.9330 C   0  0  0  0  0  3  0  0  0  0  0  0
  190.7280  176.9990  139.7280 C   0  0  0  0  0  0  0  0  0  0  0  0
  183.6090  178.7080  141.7280 N   0  0  0  0  0  2  0  0  0  0  0  0
  189.5170  177.1920  137.6390 C   0  0  0  0  0  3  0  0  0  0  0  0
  188.7950  177.6730  145.4460 C   0  0  0  0  0  2  0  0  0  0  0  0
  188.5490  177.6710  144.0070 N   0  0  0  0  0  0  0  0  0  0  0  0
  186.1950  178.2170  144.2140 N   0  0  0  0  0  0  0  0  0  0  0  0
  188.2910  177.5600  139.8090 C   0  0  0  0  0  0  0  0  0  0  0  0
  187.0370  177.8160  139.0280 C   0  0  0  0  0  1  0  0  0  0  0  0
  183.8720  178.7590  144.4620 C   0  0  0  0  0  2  0  0  0  0  0  0
  187.1230  177.9170  142.0240 C   0  0  0  0  0  0  0  0  0  0  0  0
  184.9800  178.4730  143.6700 C   0  0  0  0  0  0  0  0  0  0  0  0
  194.0850  176.0930  136.2900 C   0  0  0  0  0  0  0  0  0  0  0  0
  193.0780  176.3480  136.8980 C   0  0  0  0  0  0  0  0  0  0  0  0
  195.2860  175.7890  135.5650 C   0  0  0  0  0  0  0  0  0  0  0  0
  196.5200  175.8900  136.1930 O   0  0  0  0  0  1  0  0  0  0  0  0
  195.2200  175.4290  134.3610 O   0  0  0  0  0  0  0  0  0  0  0  0
  1 10  1  0  0  0  0
  2 12  1  0  0  0  0
  2 26  1  0  0  0  0
  3 11  2  0  0  0  0
  5 26  1  0  0  0  0
  5  6  2  0  0  0  0
  6 27  1  0  0  0  0
  7 17  1  0  0  0  0
  7 23  1  0  0  0  0
  8 12  1  0  0  0  0
  9 25  1  0  0  0  0
 10 17  2  0  0  0  0
 11  4  1  0  0  0  0
 12 13  2  0  0  0  0
 13 21  1  0  0  0  0
 13 11  1  0  0  0  0
 14 21  1  0  0  0  0
 14 22  1  0  0  0  0
 15  9  2  0  0  0  0
 16  1  2  0  0  0  0
 16 19  1  0  0  0  0
 17  8  1  0  0  0  0
 18  6  1  0  0  0  0
 18 15  1  0  0  0  0
 19  7  2  0  0  0  0
 20  4  1  0  0  0  0
 21 20  1  0  0  0  0
 23  2  2  0  0  0  0
 24 23  1  0  0  0  0
 26 14  2  0  0  0  0
 27 22  2  0  0  0  0
 27 25  1  0  0  0  0
 28 29  3  0  0  0  0
 29  1  1  0  0  0  0
 30 31  1  0  0  0  0
 30 28  1  0  0  0  0
 32 30  2  0  0  0  0
M  END
>  <MODEL>
5

>  <REMARK>
 VINA RESULT:      -8.4      3.966      7.088
  Name = 
  2 active torsions:
  status: ('A' for Active; 'I' for Inactive)
    1  A    between atoms: C_1  and  C_10
    2  A    between atoms: C_2  and  C_24
                            x       y       z     vdW  Elec       q    Type
                         _______ _______ _______ _____ _____    ______ ____

>  <TORSDO>
F 2

$$$$
=
 OpenBabel10272413403D

 32 37  0  0  0  0  0  0  0  0999 V2000
  188.0530  177.9530  143.5850 C   0  0  0  0  0  0  0  0  0  0  0  0
  190.2190  176.9670  139.0600 C   0  0  0  0  0  0  0  0  0  0  0  0
  185.9300  177.5520  138.0780 O   0  0  0  0  0  0  0  0  0  0  0  0
  186.5320  177.0960  135.5070 S   0  0  0  0  0  0  0  0  0  0  0  0
  192.4050  176.4460  137.9430 N   0  0  0  0  0  0  0  0  0  0  0  0
  193.1530  176.1690  136.8440 C   0  0  0  0  0  0  0  0  0  0  0  0
  189.7970  177.3680  141.4630 C   0  0  0  0  0  0  0  0  0  0  0  0
  187.9230  177.4710  139.9290 O   0  0  0  0  0  0  0  0  0  0  0  0
  194.6490  175.6120  134.6230 N   0  0  0  0  0  0  0  0  0  0  0  0
  187.5600  177.8560  142.2820 C   0  0  0  0  0  3  0  0  0  0  0  0
  186.8420  177.2840  137.2520 C   0  0  0  0  0  0  0  0  0  0  0  0
  188.7540  177.1830  138.8420 C   0  0  0  0  0  0  0  0  0  0  0  0
  188.2350  177.1000  137.6060 C   0  0  0  0  0  0  0  0  0  0  0  0
  190.4470  176.5870  136.5890 C   0  0  0  0  0  0  0  0  0  0  0  0
  195.2360  175.6820  135.8490 C   0  0  0  0  0  3  0  0  0  0  0  0
  189.4140  177.7590  143.8330 C   0  0  0  0  0  3  0  0  0  0  0  0
  188.4260  177.5650  141.2240 C   0  0  0  0  0  0  0  0  0  0  0  0
  194.4900  175.9590  136.9510 N   0  0  0  0  0  0  0  0  0  0  0  0
  190.2820  177.4680  142.7770 C   0  0  0  0  0  3  0  0  0  0  0  0
  188.3170  176.7550  135.2060 C   0  0  0  0  0  2  0  0  0  0  0  0
  189.0380  176.8090  136.4740 N   0  0  0  0  0  0  0  0  0  0  0  0
  191.1970  176.3100  135.4870 N   0  0  0  0  0  0  0  0  0  0  0  0
  190.7070  177.0590  140.3280 C   0  0  0  0  0  0  0  0  0  0  0  0
  192.1590  176.8580  140.6380 C   0  0  0  0  0  1  0  0  0  0  0  0
  193.3130  175.8160  134.4730 C   0  0  0  0  0  3  0  0  0  0  0  0
  191.0610  176.6590  137.8560 C   0  0  0  0  0  0  0  0  0  0  0  0
  192.5320  176.1000  135.5900 C   0  0  0  0  0  0  0  0  0  0  0  0
  186.4130  178.5030  145.5800 C   0  0  0  0  0  0  0  0  0  0  0  0
  187.1610  178.2520  144.6700 C   0  0  0  0  0  0  0  0  0  0  0  0
  185.5210  178.8020  146.6640 C   0  0  0  0  0  0  0  0  0  0  0  0
  185.9240  179.6620  147.6780 O   0  0  0  0  0  1  0  0  0  0  0  0
  184.3740  178.2860  146.6960 O   0  0  0  0  0  0  0  0  0  0  0  0
  1 16  1  0  0  0  0
  1 29  1  0  0  0  0
  2 23  2  0  0  0  0
  4 11  1  0  0  0  0
  6 18  1  0  0  0  0
  6  5  2  0  0  0  0
  7 19  1  0  0  0  0
  8 17  1  0  0  0  0
  9 15  1  0  0  0  0
 10  1  2  0  0  0  0
 11 13  1  0  0  0  0
 11  3  2  0  0  0  0
 12  2  1  0  0  0  0
 12  8  1  0  0  0  0
 13 12  2  0  0  0  0
 14 26  2  0  0  0  0
 15 18  2  0  0  0  0
 17  7  2  0  0  0  0
 17 10  1  0  0  0  0
 19 16  2  0  0  0  0
 20  4  1  0  0  0  0
 20 21  1  0  0  0  0
 21 14  1  0  0  0  0
 21 13  1  0  0  0  0
 22 27  2  0  0  0  0
 22 14  1  0  0  0  0
 23 24  1  0  0  0  0
 23  7  1  0  0  0  0
 25  9  2  0  0  0  0
 25 27  1  0  0  0  0
 26  5  1  0  0  0  0
 26  2  1  0  0  0  0
 27  6  1  0  0  0  0
 28 30  1  0  0  0  0
 29 28  3  0  0  0  0
 30 32  2  0  0  0  0
 30 31  1  0  0  0  0
M  END
>  <MODEL>
6

>  <REMARK>
 VINA RESULT:      -8.3      4.785      7.958
  Name = 
  2 active torsions:
  status: ('A' for Active; 'I' for Inactive)
    1  A    between atoms: C_1  and  C_10
    2  A    between atoms: C_2  and  C_24
                            x       y       z     vdW  Elec       q    Type
                         _______ _______ _______ _____ _____    ______ ____

>  <TORSDO>
F 2

$$$$
=
 OpenBabel10272413403D

 32 37  0  0  0  0  0  0  0  0999 V2000
  192.1740  176.9130  138.5430 C   0  0  0  0  0  0  0  0  0  0  0  0
  188.1190  177.8680  141.5050 C   0  0  0  0  0  0  0  0  0  0  0  0
  186.5330  178.2580  137.3770 O   0  0  0  0  0  0  0  0  0  0  0  0
  184.1360  178.8260  138.4300 S   0  0  0  0  0  0  0  0  0  0  0  0
  187.3620  178.0410  143.8910 N   0  0  0  0  0  0  0  0  0  0  0  0
  186.4090  178.2640  144.8330 C   0  0  0  0  0  0  0  0  0  0  0  0
  190.3800  177.3330  140.6630 C   0  0  0  0  0  0  0  0  0  0  0  0
  188.6180  177.7580  139.0520 O   0  0  0  0  0  0  0  0  0  0  0  0
  184.4820  178.7170  146.7210 N   0  0  0  0  0  0  0  0  0  0  0  0
  190.8410  177.2320  138.2770 C   0  0  0  0  0  3  0  0  0  0  0  0
  185.8690  178.4130  138.4360 C   0  0  0  0  0  0  0  0  0  0  0  0
  187.6900  177.9750  140.0750 C   0  0  0  0  0  0  0  0  0  0  0  0
  186.4180  178.2780  139.7700 C   0  0  0  0  0  0  0  0  0  0  0  0
  185.7620  178.4270  142.1660 C   0  0  0  0  0  0  0  0  0  0  0  0
  185.7550  178.4120  147.0960 C   0  0  0  0  0  3  0  0  0  0  0  0
  192.6160  176.8040  139.8640 C   0  0  0  0  0  3  0  0  0  0  0  0
  189.9460  177.4410  139.3300 C   0  0  0  0  0  0  0  0  0  0  0  0
  186.7110  178.1880  146.1550 N   0  0  0  0  0  0  0  0  0  0  0  0
  191.7230  177.0130  140.9190 C   0  0  0  0  0  3  0  0  0  0  0  0
  184.1080  178.8260  140.2720 C   0  0  0  0  0  2  0  0  0  0  0  0
  185.4410  178.5070  140.7740 N   0  0  0  0  0  0  0  0  0  0  0  0
  184.8070  178.6510  143.1100 N   0  0  0  0  0  0  0  0  0  0  0  0
  189.4170  177.5590  141.7720 C   0  0  0  0  0  0  0  0  0  0  0  0
  189.9320  177.4310  143.1740 C   0  0  0  0  0  1  0  0  0  0  0  0
  184.1390  178.8020  145.4080 C   0  0  0  0  0  3  0  0  0  0  0  0
  187.0780  178.1130  142.5600 C   0  0  0  0  0  0  0  0  0  0  0  0
  185.1040  178.5770  144.4300 C   0  0  0  0  0  0  0  0  0  0  0  0
  193.8620  176.5200  136.5500 C   0  0  0  0  0  0  0  0  0  0  0  0
  193.0920  176.6990  137.4590 C   0  0  0  0  0  0  0  0  0  0  0  0
  194.7790  176.3060  135.4680 C   0  0  0  0  0  0  0  0  0  0  0  0
  196.0160  176.9380  135.4710 O   0  0  0  0  0  1  0  0  0  0  0  0
  194.4640  175.5460  134.5160 O   0  0  0  0  0  0  0  0  0  0  0  0
  1 16  1  0  0  0  0
  2 23  2  0  0  0  0
  2 26  1  0  0  0  0
  3 11  2  0  0  0  0
  4 11  1  0  0  0  0
  4 20  1  0  0  0  0
  5  6  2  0  0  0  0
  6 18  1  0  0  0  0
  7 19  1  0  0  0  0
  7 23  1  0  0  0  0
  8 17  1  0  0  0  0
  8 12  1  0  0  0  0
  9 15  1  0  0  0  0
 10  1  2  0  0  0  0
 10 17  1  0  0  0  0
 11 13  1  0  0  0  0
 12  2  1  0  0  0  0
 13 12  2  0  0  0  0
 13 21  1  0  0  0  0
 14 26  2  0  0  0  0
 14 22  1  0  0  0  0
 16 19  2  0  0  0  0
 17  7  2  0  0  0  0
 18 15  2  0  0  0  0
 20 21  1  0  0  0  0
 21 14  1  0  0  0  0
 22 27  2  0  0  0  0
 23 24  1  0  0  0  0
 25  9  2  0  0  0  0
 26  5  1  0  0  0  0
 27  6  1  0  0  0  0
 27 25  1  0  0  0  0
 28 29  3  0  0  0  0
 29  1  1  0  0  0  0
 30 31  1  0  0  0  0
 30 28  1  0  0  0  0
 32 30  2  0  0  0  0
M  END
>  <MODEL>
7

>  <REMARK>
 VINA RESULT:      -8.1      3.768      6.923
  Name = 
  2 active torsions:
  status: ('A' for Active; 'I' for Inactive)
    1  A    between atoms: C_1  and  C_10
    2  A    between atoms: C_2  and  C_24
                            x       y       z     vdW  Elec       q    Type
                         _______ _______ _______ _____ _____    ______ ____

>  <TORSDO>
F 2

$$$$
=
 OpenBabel10272413403D

 32 37  0  0  0  0  0  0  0  0999 V2000
  190.3980  177.1290  138.7550 C   0  0  0  0  0  0  0  0  0  0  0  0
  186.2800  178.0960  141.6270 C   0  0  0  0  0  0  0  0  0  0  0  0
  189.4700  177.2540  144.5960 O   0  0  0  0  0  0  0  0  0  0  0  0
  187.6690  177.6630  146.5380 S   0  0  0  0  0  0  0  0  0  0  0  0
  183.8470  178.7000  141.5220 N   0  0  0  0  0  0  0  0  0  0  0  0
  182.6560  178.9840  142.1100 C   0  0  0  0  0  0  0  0  0  0  0  0
  187.8410  177.7440  139.7430 C   0  0  0  0  0  0  0  0  0  0  0  0
  188.6830  177.4940  142.0030 O   0  0  0  0  0  0  0  0  0  0  0  0
  180.2630  179.5540  143.3060 N   0  0  0  0  0  0  0  0  0  0  0  0
  190.1700  177.1600  140.1330 C   0  0  0  0  0  3  0  0  0  0  0  0
  188.2750  177.5440  144.8660 C   0  0  0  0  0  0  0  0  0  0  0  0
  187.4280  177.7960  142.5390 C   0  0  0  0  0  0  0  0  0  0  0  0
  187.2560  177.8140  143.8710 C   0  0  0  0  0  0  0  0  0  0  0  0
  184.8500  178.4120  143.6660 C   0  0  0  0  0  0  0  0  0  0  0  0
  180.3710  179.5520  141.9500 C   0  0  0  0  0  3  0  0  0  0  0  0
  189.3540  177.4030  137.8680 C   0  0  0  0  0  3  0  0  0  0  0  0
  188.8980  177.4660  140.6270 C   0  0  0  0  0  0  0  0  0  0  0  0
  181.5620  179.2680  141.3580 N   0  0  0  0  0  2  0  0  0  0  0  0
  188.0820  177.7090  138.3600 C   0  0  0  0  0  3  0  0  0  0  0  0
  185.9880  178.0910  145.9210 C   0  0  0  0  0  2  0  0  0  0  0  0
  186.0020  178.1140  144.4610 N   0  0  0  0  0  0  0  0  0  0  0  0
  183.6560  178.6970  144.2560 N   0  0  0  0  0  0  0  0  0  0  0  0
  186.4940  178.0670  140.2830 C   0  0  0  0  0  0  0  0  0  0  0  0
  185.4030  178.3550  139.2960 C   0  0  0  0  0  1  0  0  0  0  0  0
  181.3350  179.2750  144.0960 C   0  0  0  0  0  2  0  0  0  0  0  0
  184.9550  178.4120  142.2610 C   0  0  0  0  0  0  0  0  0  0  0  0
  182.5620  178.9810  143.5080 C   0  0  0  0  0  0  0  0  0  0  0  0
  192.8020  176.5500  137.8270 C   0  0  0  0  0  0  0  0  0  0  0  0
  191.7050  176.8140  138.2500 C   0  0  0  0  0  0  0  0  0  0  0  0
  194.1080  176.2350  137.3230 C   0  0  0  0  0  0  0  0  0  0  0  0
  194.6070  176.9130  136.2190 O   0  0  0  0  0  0  0  0  0  0  0  0
  194.8010  175.3470  137.8830 O   0  0  0  0  0  1  0  0  0  0  0  0
  1 10  1  0  0  0  0
  2 26  1  0  0  0  0
  2 12  1  0  0  0  0
  3 11  2  0  0  0  0
  5  6  2  0  0  0  0
  5 26  1  0  0  0  0
  6 27  1  0  0  0  0
  7 23  1  0  0  0  0
  7 17  1  0  0  0  0
  8 12  1  0  0  0  0
  9 25  1  0  0  0  0
 10 17  2  0  0  0  0
 11  4  1  0  0  0  0
 12 13  2  0  0  0  0
 13 21  1  0  0  0  0
 13 11  1  0  0  0  0
 14 22  1  0  0  0  0
 14 21  1  0  0  0  0
 15  9  2  0  0  0  0
 16 19  1  0  0  0  0
 16  1  2  0  0  0  0
 17  8  1  0  0  0  0
 18 15  1  0  0  0  0
 18  6  1  0  0  0  0
 19  7  2  0  0  0  0
 20  4  1  0  0  0  0
 21 20  1  0  0  0  0
 23  2  2  0  0  0  0
 24 23  1  0  0  0  0
 26 14  2  0  0  0  0
 27 25  1  0  0  0  0
 27 22  2  0  0  0  0
 28 29  3  0  0  0  0
 29  1  1  0  0  0  0
 30 28  1  0  0  0  0
 30 32  1  0  0  0  0
 31 30  2  0  0  0  0
M  END
>  <MODEL>
8

>  <REMARK>
 VINA RESULT:      -8.0      3.104      6.060
  Name = 
  2 active torsions:
  status: ('A' for Active; 'I' for Inactive)
    1  A    between atoms: C_1  and  C_10
    2  A    between atoms: C_2  and  C_24
                            x       y       z     vdW  Elec       q    Type
                         _______ _______ _______ _____ _____    ______ ____

>  <TORSDO>
F 2

$$$$
=
 OpenBabel10272413403D

 32 37  0  0  0  0  0  0  0  0999 V2000
  192.7160  176.9120  138.5610 C   0  0  0  0  0  0  0  0  0  0  0  0
  189.4480  177.6660  142.4190 C   0  0  0  0  0  0  0  0  0  0  0  0
  186.9820  178.3460  138.7910 O   0  0  0  0  0  0  0  0  0  0  0  0
  184.8930  178.8430  140.3940 S   0  0  0  0  0  0  0  0  0  0  0  0
  189.2500  177.6730  144.9210 N   0  0  0  0  0  0  0  0  0  0  0  0
  188.5380  177.8310  146.0660 C   0  0  0  0  0  0  0  0  0  0  0  0
  191.4520  177.1870  141.0540 C   0  0  0  0  0  0  0  0  0  0  0  0
  189.3810  177.7260  139.9150 O   0  0  0  0  0  0  0  0  0  0  0  0
  187.0930  178.1550  148.3660 N   0  0  0  0  0  0  0  0  0  0  0  0
  191.3630  177.2510  138.6240 C   0  0  0  0  0  3  0  0  0  0  0  0
  186.5760  178.4280  139.9810 C   0  0  0  0  0  0  0  0  0  0  0  0
  188.7110  177.8730  141.1330 C   0  0  0  0  0  0  0  0  0  0  0  0
  187.4080  178.1990  141.1450 C   0  0  0  0  0  0  0  0  0  0  0  0
  187.3110  178.1820  143.6310 C   0  0  0  0  0  0  0  0  0  0  0  0
  188.4120  177.8230  148.4230 C   0  0  0  0  0  3  0  0  0  0  0  0
  193.4420  176.7100  139.7380 C   0  0  0  0  0  3  0  0  0  0  0  0
  190.7320  177.3880  139.8640 C   0  0  0  0  0  0  0  0  0  0  0  0
  189.1280  177.6630  147.2780 N   0  0  0  0  0  2  0  0  0  0  0  0
  192.8130  176.8470  140.9790 C   0  0  0  0  0  3  0  0  0  0  0  0
  185.2800  178.7150  142.1900 C   0  0  0  0  0  2  0  0  0  0  0  0
  186.6870  178.3600  142.3550 N   0  0  0  0  0  0  0  0  0  0  0  0
  186.5960  178.3410  144.7790 N   0  0  0  0  0  0  0  0  0  0  0  0
  190.7670  177.3360  142.3650 C   0  0  0  0  0  0  0  0  0  0  0  0
  191.5830  177.1100  143.6030 C   0  0  0  0  0  1  0  0  0  0  0  0
  186.4650  178.3330  147.1730 C   0  0  0  0  0  2  0  0  0  0  0  0
  188.6760  177.8380  143.6960 C   0  0  0  0  0  0  0  0  0  0  0  0
  187.1810  178.1740  145.9900 C   0  0  0  0  0  0  0  0  0  0  0  0
  193.9060  176.6550  136.2170 C   0  0  0  0  0  0  0  0  0  0  0  0
  193.3630  176.7720  137.2860 C   0  0  0  0  0  0  0  0  0  0  0  0
  194.5520  176.5150  134.9440 C   0  0  0  0  0  0  0  0  0  0  0  0
  194.6830  175.2580  134.3660 O   0  0  0  0  0  1  0  0  0  0  0  0
  194.9980  177.5300  134.3490 O   0  0  0  0  0  0  0  0  0  0  0  0
  1 10  2  0  0  0  0
  1 16  1  0  0  0  0
  2 26  1  0  0  0  0
  3 11  2  0  0  0  0
  4 20  1  0  0  0  0
  5  6  2  0  0  0  0
  6 18  1  0  0  0  0
  7 23  1  0  0  0  0
  8 12  1  0  0  0  0
  9 15  2  0  0  0  0
 10 17  1  0  0  0  0
 11  4  1  0  0  0  0
 11 13  1  0  0  0  0
 12 13  2  0  0  0  0
 12  2  1  0  0  0  0
 13 21  1  0  0  0  0
 14 26  2  0  0  0  0
 14 22  1  0  0  0  0
 16 19  2  0  0  0  0
 17  8  1  0  0  0  0
 17  7  2  0  0  0  0
 18 15  1  0  0  0  0
 19  7  1  0  0  0  0
 20 21  1  0  0  0  0
 21 14  1  0  0  0  0
 22 27  2  0  0  0  0
 23  2  2  0  0  0  0
 23 24  1  0  0  0  0
 25  9  1  0  0  0  0
 26  5  1  0  0  0  0
 27  6  1  0  0  0  0
 27 25  1  0  0  0  0
 28 29  3  0  0  0  0
 29  1  1  0  0  0  0
 30 28  1  0  0  0  0
 31 30  1  0  0  0  0
 32 30  2  0  0  0  0
M  END
>  <MODEL>
9

>  <REMARK>
 VINA RESULT:      -7.7      4.359      7.939
  Name = 
  2 active torsions:
  status: ('A' for Active; 'I' for Inactive)
    1  A    between atoms: C_1  and  C_10
    2  A    between atoms: C_2  and  C_24
                            x       y       z     vdW  Elec       q    Type
                         _______ _______ _______ _____ _____    ______ ____

>  <TORSDO>
F 2

$$$$
