=
 OpenBabel10272401093D

 27 31  0  0  1  0  0  0  0  0999 V2000
  186.3300  178.6620  141.7310 N   0  0  0  0  0  0  0  0  0  0  0  0
  185.8750  178.1630  144.0800 C   0  0  0  0  0  0  0  0  0  0  0  0
  187.9950  177.0140  143.6030 N   0  0  0  0  0  0  0  0  0  0  0  0
  187.1050  178.7590  148.1150 C   0  0  0  0  0  3  0  0  0  0  0  0
  188.6520  178.3070  149.8710 F   0  0  0  0  0  0  0  0  0  0  0  0
  184.8850  178.7380  145.0770 C   0  0  0  0  0  2  0  0  0  0  0  0
  188.6220  177.1520  146.4010 C   0  0  0  0  0  3  0  0  0  0  0  0
  189.7290  176.8620  140.4440 C   0  0  0  0  0  0  0  0  0  0  0  0
  189.0190  177.3270  147.7300 C   0  0  0  0  0  3  0  0  0  0  0  0
  190.7540  176.1780  139.8820 F   0  0  0  0  0  0  0  0  0  0  0  0
  187.4590  177.7730  145.9230 C   0  0  0  0  0  0  0  0  0  0  0  0
  185.4410  177.9630  142.6490 C   0  0  1  0  0  3  0  0  0  0  0  0
  188.2630  178.1320  148.5860 C   0  0  0  0  0  0  0  0  0  0  0  0
  186.7000  178.5700  146.7910 C   0  0  0  0  0  0  0  0  0  0  0  0
  187.5800  178.3540  141.5860 C   0  0  0  0  0  0  0  0  0  0  0  0
  187.0650  177.6630  144.4970 C   0  0  0  0  0  0  0  0  0  0  0  0
  189.3420  176.5530  141.6880 C   0  0  0  0  0  3  0  0  0  0  0  0
  185.5270  179.2080  146.3000 N   0  0  0  0  0  2  0  0  0  0  0  0
  188.9970  177.8930  139.6210 C   0  0  0  0  0  2  0  0  0  0  0  0
  188.3700  178.9870  140.4890 C   0  0  0  0  0  2  0  0  0  0  0  0
  188.2340  177.2630  142.3470 C   0  0  0  0  0  0  0  0  0  0  0  0
  181.3350  178.9350  141.8050 C   0  0  0  0  0  3  0  0  0  0  0  0
  184.0090  178.3200  142.3680 C   0  0  0  0  0  0  0  0  0  0  0  0
  183.5170  178.1900  141.0640 C   0  0  0  0  0  3  0  0  0  0  0  0
  182.1830  178.4980  140.7820 C   0  0  0  0  0  3  0  0  0  0  0  0
  181.8200  179.0620  143.1090 C   0  0  0  0  0  3  0  0  0  0  0  0
  183.1540  178.7540  143.3920 C   0  0  0  0  0  3  0  0  0  0  0  0
  1 12  1  0  0  0  0
  2 16  2  0  0  0  0
  2  6  1  0  0  0  0
  3 16  1  0  0  0  0
  4 13  1  0  0  0  0
  6 18  1  0  0  0  0
  7  9  1  0  0  0  0
  8 17  2  0  0  0  0
  9 13  2  0  0  0  0
 10  8  1  0  0  0  0
 11  7  2  0  0  0  0
 11 14  1  0  0  0  0
 12 23  1  1  0  0  0
 12  2  1  0  0  0  0
 13  5  1  0  0  0  0
 14  4  2  0  0  0  0
 15  1  2  0  0  0  0
 15 21  1  0  0  0  0
 16 11  1  0  0  0  0
 17 21  1  0  0  0  0
 18 14  1  0  0  0  0
 19  8  1  0  0  0  0
 19 20  1  0  0  0  0
 20 15  1  0  0  0  0
 21  3  2  0  0  0  0
 22 26  1  0  0  0  0
 23 27  1  0  0  0  0
 24 23  2  0  0  0  0
 25 24  1  0  0  0  0
 25 22  2  0  0  0  0
 26 27  2  0  0  0  0
M  END
>  <MODEL>
1

>  <REMARK>
 VINA RESULT:     -10.4      0.000      0.000
  Name = 
  1 active torsions:
  status: ('A' for Active; 'I' for Inactive)
    1  A    between atoms: C_9  and  C_15
                            x       y       z     vdW  Elec       q    Type
                         _______ _______ _______ _____ _____    ______ ____

>  <TORSDO>
F 1

$$$$
=
 OpenBabel10272401093D

 27 31  0  0  1  0  0  0  0  0999 V2000
  187.4870  178.5540  141.9000 N   0  0  0  0  0  0  0  0  0  0  0  0
  187.8430  177.5740  144.1100 C   0  0  0  0  0  0  0  0  0  0  0  0
  189.5380  176.5110  142.6820 N   0  0  0  0  0  0  0  0  0  0  0  0
  190.4690  177.2710  147.4510 C   0  0  0  0  0  3  0  0  0  0  0  0
  192.4850  176.4230  148.4000 F   0  0  0  0  0  0  0  0  0  0  0  0
  187.3290  177.9430  145.4900 C   0  0  0  0  0  2  0  0  0  0  0  0
  191.1210  176.0360  145.0280 C   0  0  0  0  0  3  0  0  0  0  0  0
  190.0230  177.0010  139.1420 C   0  0  0  0  0  0  0  0  0  0  0  0
  191.9760  175.9150  146.1270 C   0  0  0  0  0  3  0  0  0  0  0  0
  190.7130  176.4320  138.1240 F   0  0  0  0  0  0  0  0  0  0  0  0
  189.9300  176.7680  145.1360 C   0  0  0  0  0  0  0  0  0  0  0  0
  186.9160  177.6930  142.9260 C   0  0  1  0  0  3  0  0  0  0  0  0
  191.6520  176.5340  147.3380 C   0  0  0  0  0  0  0  0  0  0  0  0
  189.6070  177.3770  146.3560 C   0  0  0  0  0  0  0  0  0  0  0  0
  188.5690  178.2590  141.2520 C   0  0  0  0  0  0  0  0  0  0  0  0
  189.0500  176.9730  143.9600 C   0  0  0  0  0  0  0  0  0  0  0  0
  190.0720  176.4410  140.3570 C   0  0  0  0  0  3  0  0  0  0  0  0
  188.4030  178.1290  146.4600 N   0  0  0  0  0  2  0  0  0  0  0  0
  189.1510  178.1990  138.8560 C   0  0  0  0  0  2  0  0  0  0  0  0
  188.9780  179.0950  140.0850 C   0  0  0  0  0  2  0  0  0  0  0  0
  189.3410  177.0180  141.4970 C   0  0  0  0  0  0  0  0  0  0  0  0
  182.8900  178.9030  143.8450 C   0  0  0  0  0  3  0  0  0  0  0  0
  185.5180  178.1310  143.2610 C   0  0  0  0  0  0  0  0  0  0  0  0
  184.5650  178.2130  142.2390 C   0  0  0  0  0  3  0  0  0  0  0  0
  183.2540  178.6010  142.5300 C   0  0  0  0  0  3  0  0  0  0  0  0
  183.8350  178.8180  144.8700 C   0  0  0  0  0  3  0  0  0  0  0  0
  185.1470  178.4310  144.5810 C   0  0  0  0  0  3  0  0  0  0  0  0
  1 12  1  0  0  0  0
  2  6  1  0  0  0  0
  3 16  1  0  0  0  0
  6 18  1  0  0  0  0
  7 11  2  0  0  0  0
  7  9  1  0  0  0  0
  8 17  2  0  0  0  0
  9 13  2  0  0  0  0
 10  8  1  0  0  0  0
 11 14  1  0  0  0  0
 12 23  1  1  0  0  0
 12  2  1  0  0  0  0
 13  4  1  0  0  0  0
 13  5  1  0  0  0  0
 14 18  1  0  0  0  0
 14  4  2  0  0  0  0
 15 21  1  0  0  0  0
 15  1  2  0  0  0  0
 16  2  2  0  0  0  0
 16 11  1  0  0  0  0
 17 21  1  0  0  0  0
 19  8  1  0  0  0  0
 19 20  1  0  0  0  0
 20 15  1  0  0  0  0
 21  3  2  0  0  0  0
 22 26  1  0  0  0  0
 23 27  1  0  0  0  0
 24 25  1  0  0  0  0
 24 23  2  0  0  0  0
 25 22  2  0  0  0  0
 27 26  2  0  0  0  0
M  END
>  <MODEL>
2

>  <REMARK>
 VINA RESULT:     -10.2      1.816      2.461
  Name = 
  1 active torsions:
  status: ('A' for Active; 'I' for Inactive)
    1  A    between atoms: C_9  and  C_15
                            x       y       z     vdW  Elec       q    Type
                         _______ _______ _______ _____ _____    ______ ____

>  <TORSDO>
F 1

$$$$
=
 OpenBabel10272401093D

 27 31  0  0  1  0  0  0  0  0999 V2000
  189.7950  178.4060  141.8630 N   0  0  0  0  0  0  0  0  0  0  0  0
  187.3890  178.0750  141.5880 C   0  0  0  0  0  0  0  0  0  0  0  0
  187.8430  177.4110  143.9110 N   0  0  0  0  0  0  0  0  0  0  0  0
  183.4960  179.3830  142.7220 C   0  0  0  0  0  3  0  0  0  0  0  0
  181.7760  179.5030  144.3680 F   0  0  0  0  0  0  0  0  0  0  0  0
  186.4120  178.5070  140.5100 C   0  0  0  0  0  2  0  0  0  0  0  0
  185.1050  177.9990  144.5430 C   0  0  0  0  0  3  0  0  0  0  0  0
  191.0460  177.3240  145.5660 C   0  0  0  0  0  0  0  0  0  0  0  0
  183.8210  178.4070  144.9140 C   0  0  0  0  0  3  0  0  0  0  0  0
  191.5810  176.8420  146.7140 F   0  0  0  0  0  0  0  0  0  0  0  0
  185.5910  178.2730  143.2560 C   0  0  0  0  0  0  0  0  0  0  0  0
  188.7710  177.6230  141.1850 C   0  0  1  0  0  3  0  0  0  0  0  0
  183.0170  179.1010  144.0050 C   0  0  0  0  0  0  0  0  0  0  0  0
  184.7740  178.9600  142.3470 C   0  0  0  0  0  0  0  0  0  0  0  0
  189.9650  178.3860  143.1470 C   0  0  0  0  0  0  0  0  0  0  0  0
  186.9780  177.9180  142.8710 C   0  0  0  0  0  0  0  0  0  0  0  0
  189.7610  177.0710  145.2900 C   0  0  0  0  0  3  0  0  0  0  0  0
  185.2730  179.2470  141.0460 N   0  0  0  0  0  2  0  0  0  0  0  0
  191.9360  178.0580  144.5930 C   0  0  0  0  0  2  0  0  0  0  0  0
  191.1560  179.0620  143.7410 C   0  0  0  0  0  2  0  0  0  0  0  0
  189.1280  177.5700  144.0580 C   0  0  0  0  0  0  0  0  0  0  0  0
  189.5240  177.6100  136.9490 C   0  0  0  0  0  3  0  0  0  0  0  0
  189.0210  177.6010  139.7040 C   0  0  0  0  0  0  0  0  0  0  0  0
  189.0240  178.8060  138.9940 C   0  0  0  0  0  3  0  0  0  0  0  0
  189.2720  178.8110  137.6180 C   0  0  0  0  0  3  0  0  0  0  0  0
  189.5270  176.4040  137.6540 C   0  0  0  0  0  3  0  0  0  0  0  0
  189.2780  176.3970  139.0300 C   0  0  0  0  0  3  0  0  0  0  0  0
  1 15  2  0  0  0  0
  2 16  2  0  0  0  0
  3 21  2  0  0  0  0
  4 13  1  0  0  0  0
  6 18  1  0  0  0  0
  6  2  1  0  0  0  0
  7  9  1  0  0  0  0
  8 10  1  0  0  0  0
 11  7  2  0  0  0  0
 12 23  1  6  0  0  0
 12  2  1  0  0  0  0
 12  1  1  0  0  0  0
 13  5  1  0  0  0  0
 13  9  2  0  0  0  0
 14  4  2  0  0  0  0
 14 11  1  0  0  0  0
 15 20  1  0  0  0  0
 15 21  1  0  0  0  0
 16 11  1  0  0  0  0
 16  3  1  0  0  0  0
 17  8  2  0  0  0  0
 18 14  1  0  0  0  0
 19  8  1  0  0  0  0
 20 19  1  0  0  0  0
 21 17  1  0  0  0  0
 22 25  2  0  0  0  0
 22 26  1  0  0  0  0
 24 23  2  0  0  0  0
 25 24  1  0  0  0  0
 26 27  2  0  0  0  0
 27 23  1  0  0  0  0
M  END
>  <MODEL>
3

>  <REMARK>
 VINA RESULT:     -10.0      2.659      5.702
  Name = 
  1 active torsions:
  status: ('A' for Active; 'I' for Inactive)
    1  A    between atoms: C_9  and  C_15
                            x       y       z     vdW  Elec       q    Type
                         _______ _______ _______ _____ _____    ______ ____

>  <TORSDO>
F 1

$$$$
=
 OpenBabel10272401093D

 27 31  0  0  1  0  0  0  0  0999 V2000
  189.5440  176.8640  140.3550 N   0  0  0  0  0  0  0  0  0  0  0  0
  187.7700  178.0270  141.5680 C   0  0  0  0  0  0  0  0  0  0  0  0
  187.4260  178.6570  139.2170 N   0  0  0  0  0  0  0  0  0  0  0  0
  183.5760  178.3200  142.2590 C   0  0  0  0  0  3  0  0  0  0  0  0
  181.4140  178.9630  141.4880 F   0  0  0  0  0  0  0  0  0  0  0  0
  187.2440  177.8990  142.9870 C   0  0  0  0  0  2  0  0  0  0  0  0
  184.6660  179.1590  139.8250 C   0  0  0  0  0  3  0  0  0  0  0  0
  189.4450  177.6990  136.3870 C   0  0  0  0  0  0  0  0  0  0  0  0
  183.2920  179.2770  140.0540 C   0  0  0  0  0  3  0  0  0  0  0  0
  189.5910  178.0390  135.0840 F   0  0  0  0  0  0  0  0  0  0  0  0
  185.5050  178.6280  140.8150 C   0  0  0  0  0  0  0  0  0  0  0  0
  189.2540  177.9120  141.3240 C   0  0  1  0  0  3  0  0  0  0  0  0
  182.7460  178.8560  141.2690 C   0  0  0  0  0  0  0  0  0  0  0  0
  184.9510  178.2180  142.0350 C   0  0  0  0  0  0  0  0  0  0  0  0
  189.1600  176.9200  139.1180 C   0  0  0  0  0  0  0  0  0  0  0  0
  186.9520  178.4220  140.5600 C   0  0  0  0  0  0  0  0  0  0  0  0
  188.5790  178.3810  137.1460 C   0  0  0  0  0  3  0  0  0  0  0  0
  185.8030  177.6690  143.0340 N   0  0  0  0  0  2  0  0  0  0  0  0
  190.3250  176.6180  136.9650 C   0  0  0  0  0  2  0  0  0  0  0  0
  189.6640  175.9040  138.1470 C   0  0  0  0  0  2  0  0  0  0  0  0
  188.3800  178.0530  138.5670 C   0  0  0  0  0  0  0  0  0  0  0  0
  191.6680  177.3390  144.8390 C   0  0  0  0  0  3  0  0  0  0  0  0
  190.0850  177.7270  142.5610 C   0  0  0  0  0  0  0  0  0  0  0  0
  190.4630  176.4350  142.9440 C   0  0  0  0  0  3  0  0  0  0  0  0
  191.2510  176.2400  144.0810 C   0  0  0  0  0  3  0  0  0  0  0  0
  191.2980  178.6310  144.4600 C   0  0  0  0  0  3  0  0  0  0  0  0
  190.5090  178.8270  143.3220 C   0  0  0  0  0  3  0  0  0  0  0  0
  1 12  1  0  0  0  0
  2  6  1  0  0  0  0
  3 16  1  0  0  0  0
  6 18  1  0  0  0  0
  7  9  2  0  0  0  0
  7 11  1  0  0  0  0
  8 19  1  0  0  0  0
  8 17  2  0  0  0  0
  9 13  1  0  0  0  0
 10  8  1  0  0  0  0
 11 14  2  0  0  0  0
 12  2  1  0  0  0  0
 12 23  1  1  0  0  0
 13  5  1  0  0  0  0
 13  4  2  0  0  0  0
 14  4  1  0  0  0  0
 14 18  1  0  0  0  0
 15  1  2  0  0  0  0
 16 11  1  0  0  0  0
 16  2  2  0  0  0  0
 17 21  1  0  0  0  0
 19 20  1  0  0  0  0
 20 15  1  0  0  0  0
 21 15  1  0  0  0  0
 21  3  2  0  0  0  0
 23 24  2  0  0  0  0
 23 27  1  0  0  0  0
 24 25  1  0  0  0  0
 25 22  2  0  0  0  0
 26 22  1  0  0  0  0
 27 26  2  0  0  0  0
M  END
>  <MODEL>
4

>  <REMARK>
 VINA RESULT:      -9.6      3.399      6.527
  Name = 
  1 active torsions:
  status: ('A' for Active; 'I' for Inactive)
    1  A    between atoms: C_9  and  C_15
                            x       y       z     vdW  Elec       q    Type
                         _______ _______ _______ _____ _____    ______ ____

>  <TORSDO>
F 1

$$$$
=
 OpenBabel10272401093D

 27 31  0  0  1  0  0  0  0  0999 V2000
  190.7510  177.8260  142.2680 N   0  0  0  0  0  0  0  0  0  0  0  0
  188.6610  177.5500  141.0310 C   0  0  0  0  0  0  0  0  0  0  0  0
  188.0450  177.1650  143.3790 N   0  0  0  0  0  0  0  0  0  0  0  0
  184.7780  179.1280  140.2700 C   0  0  0  0  0  3  0  0  0  0  0  0
  182.5440  179.5150  141.0090 F   0  0  0  0  0  0  0  0  0  0  0  0
  188.2640  177.8790  139.6030 C   0  0  0  0  0  2  0  0  0  0  0  0
  185.3550  177.9250  142.7280 C   0  0  0  0  0  3  0  0  0  0  0  0
  190.2430  177.1700  146.2380 C   0  0  0  0  0  0  0  0  0  0  0  0
  184.0730  178.4220  142.4760 C   0  0  0  0  0  3  0  0  0  0  0  0
  190.2080  176.8160  147.5450 F   0  0  0  0  0  0  0  0  0  0  0  0
  186.3540  178.0190  141.7490 C   0  0  0  0  0  0  0  0  0  0  0  0
  190.0410  177.0020  141.3000 C   0  0  1  0  0  3  0  0  0  0  0  0
  183.7850  179.0260  141.2490 C   0  0  0  0  0  0  0  0  0  0  0  0
  186.0540  178.6160  140.5170 C   0  0  0  0  0  0  0  0  0  0  0  0
  190.3660  177.9600  143.4980 C   0  0  0  0  0  0  0  0  0  0  0  0
  187.7400  177.5690  142.0270 C   0  0  0  0  0  0  0  0  0  0  0  0
  189.1750  176.9310  145.4680 C   0  0  0  0  0  3  0  0  0  0  0  0
  187.0740  178.7200  139.5290 N   0  0  0  0  0  2  0  0  0  0  0  0
  191.5180  177.7440  145.6690 C   0  0  0  0  0  2  0  0  0  0  0  0
  191.2540  178.6620  144.4720 C   0  0  0  0  0  2  0  0  0  0  0  0
  189.1590  177.2950  144.0420 C   0  0  0  0  0  0  0  0  0  0  0  0
  192.5050  176.3690  137.8290 C   0  0  0  0  0  3  0  0  0  0  0  0
  190.8840  176.7850  140.0750 C   0  0  0  0  0  0  0  0  0  0  0  0
  192.2020  177.2540  140.0630 C   0  0  0  0  0  3  0  0  0  0  0  0
  193.0110  177.0480  138.9410 C   0  0  0  0  0  3  0  0  0  0  0  0
  191.1900  175.8950  137.8380 C   0  0  0  0  0  3  0  0  0  0  0  0
  190.3800  176.1000  138.9590 C   0  0  0  0  0  3  0  0  0  0  0  0
  1 15  2  0  0  0  0
  2 12  1  0  0  0  0
  2 16  2  0  0  0  0
  3 21  2  0  0  0  0
  4 14  2  0  0  0  0
  4 13  1  0  0  0  0
  5 13  1  0  0  0  0
  6  2  1  0  0  0  0
  8 10  1  0  0  0  0
  9  7  1  0  0  0  0
 11 16  1  0  0  0  0
 11  7  2  0  0  0  0
 12 23  1  6  0  0  0
 12  1  1  0  0  0  0
 13  9  2  0  0  0  0
 14 11  1  0  0  0  0
 15 21  1  0  0  0  0
 15 20  1  0  0  0  0
 16  3  1  0  0  0  0
 17  8  2  0  0  0  0
 18  6  1  0  0  0  0
 18 14  1  0  0  0  0
 19  8  1  0  0  0  0
 20 19  1  0  0  0  0
 21 17  1  0  0  0  0
 22 26  2  0  0  0  0
 22 25  1  0  0  0  0
 24 23  1  0  0  0  0
 25 24  2  0  0  0  0
 26 27  1  0  0  0  0
 27 23  2  0  0  0  0
M  END
>  <MODEL>
5

>  <REMARK>
 VINA RESULT:      -9.2      2.743      7.075
  Name = 
  1 active torsions:
  status: ('A' for Active; 'I' for Inactive)
    1  A    between atoms: C_9  and  C_15
                            x       y       z     vdW  Elec       q    Type
                         _______ _______ _______ _____ _____    ______ ____

>  <TORSDO>
F 1

$$$$
=
 OpenBabel10272401093D

 27 31  0  0  1  0  0  0  0  0999 V2000
  186.6830  177.5750  143.0990 N   0  0  0  0  0  0  0  0  0  0  0  0
  186.2510  178.4200  140.8460 C   0  0  0  0  0  0  0  0  0  0  0  0
  188.6700  178.7190  141.1660 N   0  0  0  0  0  0  0  0  0  0  0  0
  186.8770  177.8200  136.6750 C   0  0  0  0  0  3  0  0  0  0  0  0
  188.3440  177.8750  134.7960 F   0  0  0  0  0  0  0  0  0  0  0  0
  185.0490  178.3170  139.9260 C   0  0  0  0  0  2  0  0  0  0  0  0
  188.9900  178.6380  138.3150 C   0  0  0  0  0  3  0  0  0  0  0  0
  190.5860  177.9680  144.1280 C   0  0  0  0  0  0  0  0  0  0  0  0
  189.1960  178.4640  136.9440 C   0  0  0  0  0  3  0  0  0  0  0  0
  191.8270  178.2010  144.6200 F   0  0  0  0  0  0  0  0  0  0  0  0
  187.7230  178.4130  138.8740 C   0  0  0  0  0  0  0  0  0  0  0  0
  186.0280  178.6210  142.3250 C   0  0  1  0  0  3  0  0  0  0  0  0
  188.1410  178.0520  136.1240 C   0  0  0  0  0  0  0  0  0  0  0  0
  186.6690  178.0110  138.0440 C   0  0  0  0  0  0  0  0  0  0  0  0
  187.9690  177.4200  143.1300 C   0  0  0  0  0  0  0  0  0  0  0  0
  187.5060  178.5160  140.3380 C   0  0  0  0  0  0  0  0  0  0  0  0
  190.2370  178.5070  142.9530 C   0  0  0  0  0  3  0  0  0  0  0  0
  185.3880  177.7720  138.6150 N   0  0  0  0  0  2  0  0  0  0  0  0
  189.6050  177.1780  144.9600 C   0  0  0  0  0  2  0  0  0  0  0  0
  188.5680  176.4540  144.0970 C   0  0  0  0  0  2  0  0  0  0  0  0
  188.9030  178.2860  142.3730 C   0  0  0  0  0  0  0  0  0  0  0  0
  181.9200  179.0480  143.5320 C   0  0  0  0  0  3  0  0  0  0  0  0
  184.5880  178.7530  142.7330 C   0  0  0  0  0  0  0  0  0  0  0  0
  184.2800  179.0190  144.0720 C   0  0  0  0  0  3  0  0  0  0  0  0
  182.9490  179.1640  144.4720 C   0  0  0  0  0  3  0  0  0  0  0  0
  182.2220  178.7880  142.1930 C   0  0  0  0  0  3  0  0  0  0  0  0
  183.5530  178.6430  141.7920 C   0  0  0  0  0  3  0  0  0  0  0  0
  1 15  2  0  0  0  0
  2 12  1  0  0  0  0
  3 21  2  0  0  0  0
  4 14  1  0  0  0  0
  5 13  1  0  0  0  0
  6  2  1  0  0  0  0
  7 11  1  0  0  0  0
  8 10  1  0  0  0  0
  8 19  1  0  0  0  0
  9  7  2  0  0  0  0
 11 16  1  0  0  0  0
 12 23  1  6  0  0  0
 12  1  1  0  0  0  0
 13  4  2  0  0  0  0
 13  9  1  0  0  0  0
 14 18  1  0  0  0  0
 14 11  2  0  0  0  0
 15 20  1  0  0  0  0
 16  2  2  0  0  0  0
 16  3  1  0  0  0  0
 17  8  2  0  0  0  0
 18  6  1  0  0  0  0
 20 19  1  0  0  0  0
 21 17  1  0  0  0  0
 21 15  1  0  0  0  0
 22 25  1  0  0  0  0
 23 24  1  0  0  0  0
 24 25  2  0  0  0  0
 26 22  2  0  0  0  0
 27 26  1  0  0  0  0
 27 23  2  0  0  0  0
M  END
>  <MODEL>
6

>  <REMARK>
 VINA RESULT:      -8.9      2.582      6.363
  Name = 
  1 active torsions:
  status: ('A' for Active; 'I' for Inactive)
    1  A    between atoms: C_9  and  C_15
                            x       y       z     vdW  Elec       q    Type
                         _______ _______ _______ _____ _____    ______ ____

>  <TORSDO>
F 1

$$$$
=
 OpenBabel10272401093D

 27 31  0  0  1  0  0  0  0  0999 V2000
  189.7710  176.5500  141.6880 N   0  0  0  0  0  0  0  0  0  0  0  0
  188.2060  177.5930  143.2500 C   0  0  0  0  0  0  0  0  0  0  0  0
  187.8020  178.7380  141.1120 N   0  0  0  0  0  0  0  0  0  0  0  0
  184.1140  178.1310  144.3100 C   0  0  0  0  0  3  0  0  0  0  0  0
  181.9960  179.1260  143.8580 F   0  0  0  0  0  0  0  0  0  0  0  0
  187.7490  177.2170  144.6480 C   0  0  0  0  0  2  0  0  0  0  0  0
  185.1520  179.3600  142.0230 C   0  0  0  0  0  3  0  0  0  0  0  0
  189.5420  178.2150  137.9970 C   0  0  0  0  0  0  0  0  0  0  0  0
  183.8140  179.5570  142.3770 C   0  0  0  0  0  3  0  0  0  0  0  0
  189.6510  178.8090  136.7840 F   0  0  0  0  0  0  0  0  0  0  0  0
  185.9820  178.5540  142.8150 C   0  0  0  0  0  0  0  0  0  0  0  0
  189.6520  177.3910  142.8720 C   0  0  1  0  0  3  0  0  0  0  0  0
  183.2950  178.9410  143.5190 C   0  0  0  0  0  0  0  0  0  0  0  0
  185.4560  177.9480  143.9640 C   0  0  0  0  0  0  0  0  0  0  0  0
  189.3270  176.9040  140.5240 C   0  0  0  0  0  0  0  0  0  0  0  0
  187.3810  178.2690  142.4110 C   0  0  0  0  0  0  0  0  0  0  0  0
  188.7990  178.7990  138.9450 C   0  0  0  0  0  3  0  0  0  0  0  0
  186.2970  177.1210  144.7590 N   0  0  0  0  0  2  0  0  0  0  0  0
  190.3290  176.9570  138.2700 C   0  0  0  0  0  2  0  0  0  0  0  0
  189.6610  176.0750  139.3280 C   0  0  0  0  0  2  0  0  0  0  0  0
  188.6460  178.1980  140.2800 C   0  0  0  0  0  0  0  0  0  0  0  0
  192.1990  175.8810  145.9940 C   0  0  0  0  0  3  0  0  0  0  0  0
  190.5260  176.8690  143.9770 C   0  0  0  0  0  0  0  0  0  0  0  0
  191.2550  175.6920  143.7720 C   0  0  0  0  0  3  0  0  0  0  0  0
  192.0890  175.1970  144.7790 C   0  0  0  0  0  3  0  0  0  0  0  0
  191.4770  177.0590  146.2020 C   0  0  0  0  0  3  0  0  0  0  0  0
  190.6430  177.5550  145.1950 C   0  0  0  0  0  3  0  0  0  0  0  0
  1 12  1  0  0  0  0
  2  6  1  0  0  0  0
  3 16  1  0  0  0  0
  6 18  1  0  0  0  0
  7  9  2  0  0  0  0
  7 11  1  0  0  0  0
  8 19  1  0  0  0  0
  8 17  2  0  0  0  0
  9 13  1  0  0  0  0
 10  8  1  0  0  0  0
 11 14  2  0  0  0  0
 12  2  1  0  0  0  0
 12 23  1  1  0  0  0
 13  5  1  0  0  0  0
 13  4  2  0  0  0  0
 14  4  1  0  0  0  0
 14 18  1  0  0  0  0
 15  1  2  0  0  0  0
 16 11  1  0  0  0  0
 16  2  2  0  0  0  0
 17 21  1  0  0  0  0
 19 20  1  0  0  0  0
 20 15  1  0  0  0  0
 21 15  1  0  0  0  0
 21  3  2  0  0  0  0
 22 26  1  0  0  0  0
 23 27  1  0  0  0  0
 24 23  2  0  0  0  0
 24 25  1  0  0  0  0
 25 22  2  0  0  0  0
 27 26  2  0  0  0  0
M  END
>  <MODEL>
7

>  <REMARK>
 VINA RESULT:      -8.7      2.706      6.001
  Name = 
  1 active torsions:
  status: ('A' for Active; 'I' for Inactive)
    1  A    between atoms: C_9  and  C_15
                            x       y       z     vdW  Elec       q    Type
                         _______ _______ _______ _____ _____    ______ ____

>  <TORSDO>
F 1

$$$$
=
 OpenBabel10272401093D

 27 31  0  0  1  0  0  0  0  0999 V2000
  188.4980  176.8800  144.1480 N   0  0  0  0  0  0  0  0  0  0  0  0
  186.4490  178.1950  143.9320 C   0  0  0  0  0  0  0  0  0  0  0  0
  187.6010  178.4870  141.7800 N   0  0  0  0  0  0  0  0  0  0  0  0
  182.6860  178.5650  141.9680 C   0  0  0  0  0  3  0  0  0  0  0  0
  181.4470  179.0840  139.9990 F   0  0  0  0  0  0  0  0  0  0  0  0
  185.1830  178.2650  144.7670 C   0  0  0  0  0  2  0  0  0  0  0  0
  185.0600  179.0580  140.5740 C   0  0  0  0  0  3  0  0  0  0  0  0
  190.8110  177.1490  140.8270 C   0  0  0  0  0  0  0  0  0  0  0  0
  183.8270  179.2020  139.9300 C   0  0  0  0  0  3  0  0  0  0  0  0
  191.7200  177.3040  139.8350 F   0  0  0  0  0  0  0  0  0  0  0  0
  185.1130  178.6750  141.9220 C   0  0  0  0  0  0  0  0  0  0  0  0
  187.7790  178.0520  144.6290 C   0  0  1  0  0  3  0  0  0  0  0  0
  182.6410  178.9530  140.6260 C   0  0  0  0  0  0  0  0  0  0  0  0
  183.9180  178.4380  142.6150 C   0  0  0  0  0  0  0  0  0  0  0  0
  188.9180  176.7600  142.9280 C   0  0  0  0  0  0  0  0  0  0  0  0
  186.4120  178.4410  142.5980 C   0  0  0  0  0  0  0  0  0  0  0  0
  189.7220  177.9270  140.8420 C   0  0  0  0  0  3  0  0  0  0  0  0
  183.9760  178.0380  143.9800 N   0  0  0  0  0  2  0  0  0  0  0  0
  191.0960  176.1640  141.9350 C   0  0  0  0  0  2  0  0  0  0  0  0
  189.8120  175.6200  142.5690 C   0  0  0  0  0  2  0  0  0  0  0  0
  188.7030  177.8020  141.8960 C   0  0  0  0  0  0  0  0  0  0  0  0
  187.6400  178.0380  148.9290 C   0  0  0  0  0  3  0  0  0  0  0  0
  187.7090  178.0460  146.1290 C   0  0  0  0  0  0  0  0  0  0  0  0
  188.6420  177.2960  146.8530 C   0  0  0  0  0  3  0  0  0  0  0  0
  188.6070  177.2890  148.2510 C   0  0  0  0  0  3  0  0  0  0  0  0
  186.7090  178.7930  148.2120 C   0  0  0  0  0  3  0  0  0  0  0  0
  186.7430  178.7990  146.8140 C   0  0  0  0  0  3  0  0  0  0  0  0
  1 12  1  0  0  0  0
  2 12  1  0  0  0  0
  2  6  1  0  0  0  0
  3 21  2  0  0  0  0
  3 16  1  0  0  0  0
  4 14  1  0  0  0  0
  5 13  1  0  0  0  0
  7 11  1  0  0  0  0
  8 17  2  0  0  0  0
  8 19  1  0  0  0  0
  9  7  2  0  0  0  0
  9 13  1  0  0  0  0
 10  8  1  0  0  0  0
 11 16  1  0  0  0  0
 11 14  2  0  0  0  0
 12 23  1  1  0  0  0
 13  4  2  0  0  0  0
 14 18  1  0  0  0  0
 15  1  2  0  0  0  0
 16  2  2  0  0  0  0
 17 21  1  0  0  0  0
 18  6  1  0  0  0  0
 19 20  1  0  0  0  0
 20 15  1  0  0  0  0
 21 15  1  0  0  0  0
 23 27  2  0  0  0  0
 23 24  1  0  0  0  0
 24 25  2  0  0  0  0
 25 22  1  0  0  0  0
 26 22  2  0  0  0  0
 27 26  1  0  0  0  0
M  END
>  <MODEL>
8

>  <REMARK>
 VINA RESULT:      -8.5      2.334      5.875
  Name = 
  1 active torsions:
  status: ('A' for Active; 'I' for Inactive)
    1  A    between atoms: C_9  and  C_15
                            x       y       z     vdW  Elec       q    Type
                         _______ _______ _______ _____ _____    ______ ____

>  <TORSDO>
F 1

$$$$
=
 OpenBabel10272401093D

 27 31  0  0  1  0  0  0  0  0999 V2000
  186.7960  177.5170  142.9370 N   0  0  0  0  0  0  0  0  0  0  0  0
  188.0550  177.9640  140.8910 C   0  0  0  0  0  0  0  0  0  0  0  0
  189.6940  178.2520  142.7000 N   0  0  0  0  0  0  0  0  0  0  0  0
  191.1570  176.6250  138.2950 C   0  0  0  0  0  3  0  0  0  0  0  0
  193.4830  176.3120  137.8760 F   0  0  0  0  0  0  0  0  0  0  0  0
  187.7430  177.7330  139.4230 C   0  0  0  0  0  2  0  0  0  0  0  0
  191.7780  177.6630  140.8160 C   0  0  0  0  0  3  0  0  0  0  0  0
  189.0940  177.9820  146.2460 C   0  0  0  0  0  0  0  0  0  0  0  0
  192.8010  177.2460  139.9610 C   0  0  0  0  0  3  0  0  0  0  0  0
  189.7320  178.2660  147.4070 F   0  0  0  0  0  0  0  0  0  0  0  0
  190.4380  177.5730  140.4130 C   0  0  0  0  0  0  0  0  0  0  0  0
  186.9530  178.4270  141.8110 C   0  0  1  0  0  3  0  0  0  0  0  0
  192.4910  176.7240  138.7020 C   0  0  0  0  0  0  0  0  0  0  0  0
  190.1360  177.0590  139.1450 C   0  0  0  0  0  0  0  0  0  0  0  0
  187.7150  177.3360  143.8320 C   0  0  0  0  0  0  0  0  0  0  0  0
  189.3360  177.9370  141.3370 C   0  0  0  0  0  0  0  0  0  0  0  0
  189.6720  178.3160  145.0860 C   0  0  0  0  0  3  0  0  0  0  0  0
  188.7750  176.9570  138.7430 N   0  0  0  0  0  2  0  0  0  0  0  0
  187.7130  177.3770  146.2990 C   0  0  0  0  0  2  0  0  0  0  0  0
  187.4010  176.5390  145.0550 C   0  0  0  0  0  2  0  0  0  0  0  0
  189.0230  178.0310  143.7960 C   0  0  0  0  0  0  0  0  0  0  0  0
  183.1420  179.1370  139.9440 C   0  0  0  0  0  3  0  0  0  0  0  0
  185.6300  178.6670  141.1410 C   0  0  0  0  0  0  0  0  0  0  0  0
  184.4500  178.4140  141.8490 C   0  0  0  0  0  3  0  0  0  0  0  0
  183.2080  178.6470  141.2520 C   0  0  0  0  0  3  0  0  0  0  0  0
  184.3160  179.3960  139.2340 C   0  0  0  0  0  3  0  0  0  0  0  0
  185.5600  179.1630  139.8300 C   0  0  0  0  0  3  0  0  0  0  0  0
  1 15  2  0  0  0  0
  2 16  2  0  0  0  0
  2 12  1  0  0  0  0
  3 21  2  0  0  0  0
  4 13  2  0  0  0  0
  4 14  1  0  0  0  0
  5 13  1  0  0  0  0
  6  2  1  0  0  0  0
  8 19  1  0  0  0  0
  8 10  1  0  0  0  0
  9  7  2  0  0  0  0
 11  7  1  0  0  0  0
 11 16  1  0  0  0  0
 12 23  1  6  0  0  0
 12  1  1  0  0  0  0
 13  9  1  0  0  0  0
 14 11  2  0  0  0  0
 15 20  1  0  0  0  0
 16  3  1  0  0  0  0
 17  8  2  0  0  0  0
 18 14  1  0  0  0  0
 18  6  1  0  0  0  0
 20 19  1  0  0  0  0
 21 15  1  0  0  0  0
 21 17  1  0  0  0  0
 22 25  1  0  0  0  0
 23 24  1  0  0  0  0
 25 24  2  0  0  0  0
 26 27  1  0  0  0  0
 26 22  2  0  0  0  0
 27 23  2  0  0  0  0
M  END
>  <MODEL>
9

>  <REMARK>
 VINA RESULT:      -8.5      2.048      6.204
  Name = 
  1 active torsions:
  status: ('A' for Active; 'I' for Inactive)
    1  A    between atoms: C_9  and  C_15
                            x       y       z     vdW  Elec       q    Type
                         _______ _______ _______ _____ _____    ______ ____

>  <TORSDO>
F 1

$$$$
