=
 OpenBabel10272415063D

 37 41  0  0  1  0  0  0  0  0999 V2000
  186.4810  179.4900  142.8450 O   0  0  0  0  0  0  0  0  0  0  0  0
  182.9780  178.8890  142.9080 O   0  0  0  0  0  0  0  0  0  0  0  0
  187.8110  177.5530  143.9310 C   0  0  2  0  0  0  0  0  0  0  0  0
  185.3410  178.6610  142.8050 C   0  0  1  0  0  0  0  0  0  0  0  0
  187.6500  178.6870  142.8610 C   0  0  1  0  0  3  0  0  0  0  0  0
  184.1750  179.3020  143.5180 C   0  0  2  0  0  3  0  0  0  0  0  0
  187.2030  176.2590  143.4010 C   0  0  0  0  0  1  0  0  0  0  0  0
  188.3850  178.5820  141.5030 C   0  0  2  0  0  3  0  0  0  0  0  0
  185.0650  178.3650  146.6000 C   0  0  0  0  0  1  0  0  0  0  0  0
  187.1200  177.8700  145.2890 C   0  0  0  0  0  2  0  0  0  0  0  0
  187.7150  179.2620  140.4580 O   0  0  0  0  0  0  0  0  0  0  0  0
  185.7560  178.5660  145.2670 C   0  0  1  0  0  3  0  0  0  0  0  0
  184.7610  178.2180  141.4800 C   0  0  1  0  0  3  0  0  0  0  0  0
  183.2890  178.5660  141.5740 C   0  0  1  0  0  3  0  0  0  0  0  0
  185.3460  178.9750  140.2950 C   0  0  0  0  0  2  0  0  0  0  0  0
  186.7120  178.4280  139.9380 C   0  0  0  0  0  2  0  0  0  0  0  0
  184.8530  178.0930  144.1360 C   0  0  2  0  0  3  0  0  0  0  0  0
  189.8170  177.1880  145.5360 C   0  0  0  0  0  2  0  0  0  0  0  0
  189.3300  177.2770  144.0970 C   0  0  0  0  0  3  0  0  0  0  0  0
  190.0790  178.4430  144.7220 C   0  0  0  0  0  2  0  0  0  0  0  0
  182.4260  177.3950  141.1090 C   0  0  2  0  0  3  0  0  0  0  0  0
  182.9890  176.8060  139.9720 O   0  0  0  0  0  0  0  0  0  0  0  0
  182.0880  175.8050  139.6000 C   0  0  0  0  0  1  0  0  0  0  0  0
  181.1210  177.8680  140.7990 O   0  0  0  0  0  0  0  0  0  0  0  0
  181.2330  179.4050  138.8870 N   0  0  0  0  0  1  0  0  0  0  0  0
  180.3710  180.0310  140.9470 O   0  0  0  0  0  0  0  0  0  0  0  0
  180.8940  179.1290  140.2430 C   0  0  0  0  0  0  0  0  0  0  0  0
  188.7440  177.2640  141.1610 O   0  0  0  0  0  0  0  0  0  0  0  0
  191.1000  176.8910  141.3360 C   0  0  0  0  0  1  0  0  0  0  0  0
  189.9540  177.3690  140.4620 C   0  0  1  0  0  3  0  0  0  0  0  0
  189.9110  176.5610  139.1960 C   0  0  0  0  0  0  0  0  0  0  0  0
  190.6960  175.6350  139.0520 O   0  0  0  0  0  0  0  0  0  0  0  0
  188.9190  176.8830  138.1150 C   0  0  2  0  0  3  0  0  0  0  0  0
  188.5430  175.6280  137.3450 C   0  0  0  0  0  1  0  0  0  0  0  0
  189.4720  177.9400  137.1760 C   0  0  0  0  0  2  0  0  0  0  0  0
  188.7510  179.1270  137.3200 O   0  0  0  0  0  0  0  0  0  0  0  0
  187.6390  178.9610  136.4960 C   0  0  0  0  0  1  0  0  0  0  0  0
  3  7  1  6  0  0  0
  3 19  1  0  0  0  0
  3 10  1  0  0  0  0
  4  1  1  6  0  0  0
  4  6  1  0  0  0  0
  4 17  1  0  0  0  0
  5  1  1  6  0  0  0
  5  3  1  0  0  0  0
  6  2  1  6  0  0  0
  6 17  1  0  0  0  0
  8 28  1  6  0  0  0
  8  5  1  0  0  0  0
 11  8  1  0  0  0  0
 12 10  1  0  0  0  0
 12  9  1  1  0  0  0
 13 15  1  6  0  0  0
 13 14  1  0  0  0  0
 13  4  1  0  0  0  0
 14 21  1  1  0  0  0
 14  2  1  0  0  0  0
 16 15  1  0  0  0  0
 16 11  1  0  0  0  0
 17 12  1  0  0  0  0
 19 20  1  0  0  0  0
 19 18  1  0  0  0  0
 20 18  1  0  0  0  0
 22 21  1  0  0  0  0
 23 22  1  0  0  0  0
 24 21  1  0  0  0  0
 25 27  1  0  0  0  0
 27 24  1  0  0  0  0
 27 26  2  0  0  0  0
 30 28  1  0  0  0  0
 30 29  1  0  0  0  0
 31 30  1  0  0  0  0
 32 31  2  0  0  0  0
 33 31  1  0  0  0  0
 34 33  1  0  0  0  0
 35 36  1  0  0  0  0
 35 33  1  0  0  0  0
 37 36  1  0  0  0  0
M  END
>  <MODEL>
1

>  <REMARK>
 VINA RESULT:      -6.5      0.000      0.000
  Name = 
  11 active torsions:
  status: ('A' for Active; 'I' for Inactive)
    1  A    between atoms: C_1  and  C_5
    2  A    between atoms: C_1  and  C_23
    3  A    between atoms: O_2  and  C_6
    4  A    between atoms: C_5  and  C_26
    5  A    between atoms: C_6  and  O_8
    6  A    between atoms: C_6  and  C_31
    7  A    between atoms: O_8  and  C_19
    8  A    between atoms: C_9  and  C_30
    9  A    between atoms: O_11  and  C_26
   10  A    between atoms: C_20  and  O_25
   11  A    between atoms: C_23  and  O_25
                            x       y       z     vdW  Elec       q    Type
                         _______ _______ _______ _____ _____    ______ ____

>  <TORSDO>
F 11

$$$$
=
 OpenBabel10272415063D

 37 41  0  0  1  0  0  0  0  0999 V2000
  189.7400  178.2020  138.3840 O   0  0  0  0  0  0  0  0  0  0  0  0
  191.3510  177.2400  141.4030 O   0  0  0  0  0  0  0  0  0  0  0  0
  189.3500  176.1830  136.8130 C   0  0  2  0  0  0  0  0  0  0  0  0
  190.0180  177.3060  139.4370 C   0  0  1  0  0  0  0  0  0  0  0  0
  188.9200  177.5600  137.4210 C   0  0  1  0  0  3  0  0  0  0  0  0
  191.3760  177.5760  140.0380 C   0  0  2  0  0  3  0  0  0  0  0  0
  188.8220  175.0490  137.6850 C   0  0  0  0  0  1  0  0  0  0  0  0
  187.4220  177.9470  137.4830 C   0  0  2  0  0  3  0  0  0  0  0  0
  193.1320  175.8590  137.7710 C   0  0  0  0  0  1  0  0  0  0  0  0
  190.8920  176.0020  136.7000 C   0  0  0  0  0  2  0  0  0  0  0  0
  187.1230  178.8340  138.5450 O   0  0  0  0  0  0  0  0  0  0  0  0
  191.7710  176.5230  137.8400 C   0  0  1  0  0  3  0  0  0  0  0  0
  189.0970  177.2220  140.6350 C   0  0  1  0  0  3  0  0  0  0  0  0
  190.0170  177.3660  141.8310 C   0  0  1  0  0  3  0  0  0  0  0  0
  188.0840  178.3570  140.6830 C   0  0  0  0  0  2  0  0  0  0  0  0
  186.9430  178.0920  139.7240 C   0  0  0  0  0  2  0  0  0  0  0  0
  191.1600  176.3170  139.2190 C   0  0  2  0  0  3  0  0  0  0  0  0
  189.4780  175.3840  134.3470 C   0  0  0  0  0  2  0  0  0  0  0  0
  188.6410  176.0330  135.4400 C   0  0  0  0  0  3  0  0  0  0  0  0
  189.2700  176.8890  134.3520 C   0  0  0  0  0  2  0  0  0  0  0  0
  189.7060  176.3030  142.8830 C   0  0  2  0  0  3  0  0  0  0  0  0
  188.3290  176.0620  142.9290 O   0  0  0  0  0  0  0  0  0  0  0  0
  187.8670  176.8050  144.0180 C   0  0  0  0  0  1  0  0  0  0  0  0
  190.1480  176.7600  144.1560 O   0  0  0  0  0  0  0  0  0  0  0  0
  191.8030  176.8700  145.9660 N   0  0  0  0  0  1  0  0  0  0  0  0
  191.9900  175.3940  144.1870 O   0  0  0  0  0  0  0  0  0  0  0  0
  191.3330  176.3120  144.7420 C   0  0  0  0  0  0  0  0  0  0  0  0
  186.5540  176.8380  137.4310 O   0  0  0  0  0  0  0  0  0  0  0  0
  185.3470  176.9340  135.3690 C   0  0  0  0  0  1  0  0  0  0  0  0
  185.3740  177.3070  136.8400 C   0  0  1  0  0  3  0  0  0  0  0  0
  184.1690  176.7340  137.5310 C   0  0  0  0  0  0  0  0  0  0  0  0
  183.8090  177.2100  138.5980 O   0  0  0  0  0  0  0  0  0  0  0  0
  183.4110  175.5870  136.9250 C   0  0  2  0  0  3  0  0  0  0  0  0
  181.9140  175.8000  137.0690 C   0  0  0  0  0  1  0  0  0  0  0  0
  183.8270  174.2720  137.5600 C   0  0  0  0  0  2  0  0  0  0  0  0
  184.8060  173.6560  136.7780 O   0  0  0  0  0  0  0  0  0  0  0  0
  185.6440  173.0310  137.6990 C   0  0  0  0  0  1  0  0  0  0  0  0
  2 14  1  0  0  0  0
  3  5  1  0  0  0  0
  3  7  1  1  0  0  0
  4  1  1  6  0  0  0
  4  6  1  0  0  0  0
  4 13  1  0  0  0  0
  5  8  1  0  0  0  0
  5  1  1  1  0  0  0
  6  2  1  1  0  0  0
  8 28  1  1  0  0  0
  8 11  1  0  0  0  0
 10  3  1  0  0  0  0
 10 12  1  0  0  0  0
 11 16  1  0  0  0  0
 12  9  1  1  0  0  0
 12 17  1  0  0  0  0
 13 15  1  6  0  0  0
 13 14  1  0  0  0  0
 14 21  1  1  0  0  0
 16 15  1  0  0  0  0
 17  4  1  0  0  0  0
 17  6  1  0  0  0  0
 18 20  1  0  0  0  0
 18 19  1  0  0  0  0
 19  3  1  0  0  0  0
 20 19  1  0  0  0  0
 21 22  1  0  0  0  0
 21 24  1  0  0  0  0
 22 23  1  0  0  0  0
 24 27  1  0  0  0  0
 26 27  2  0  0  0  0
 27 25  1  0  0  0  0
 29 30  1  0  0  0  0
 30 28  1  0  0  0  0
 30 31  1  0  0  0  0
 31 32  2  0  0  0  0
 33 34  1  0  0  0  0
 33 31  1  0  0  0  0
 33 35  1  0  0  0  0
 36 35  1  0  0  0  0
 36 37  1  0  0  0  0
M  END
>  <MODEL>
2

>  <REMARK>
 VINA RESULT:      -6.4      3.440      7.854
  Name = 
  11 active torsions:
  status: ('A' for Active; 'I' for Inactive)
    1  A    between atoms: C_1  and  C_5
    2  A    between atoms: C_1  and  C_23
    3  A    between atoms: O_2  and  C_6
    4  A    between atoms: C_5  and  C_26
    5  A    between atoms: C_6  and  O_8
    6  A    between atoms: C_6  and  C_31
    7  A    between atoms: O_8  and  C_19
    8  A    between atoms: C_9  and  C_30
    9  A    between atoms: O_11  and  C_26
   10  A    between atoms: C_20  and  O_25
   11  A    between atoms: C_23  and  O_25
                            x       y       z     vdW  Elec       q    Type
                         _______ _______ _______ _____ _____    ______ ____

>  <TORSDO>
F 11

$$$$
=
 OpenBabel10272415063D

 37 41  0  0  1  0  0  0  0  0999 V2000
  187.6700  178.7550  138.1940 O   0  0  0  0  0  0  0  0  0  0  0  0
  190.1940  177.7150  140.4710 O   0  0  0  0  0  0  0  0  0  0  0  0
  186.7920  176.7860  136.7620 C   0  0  2  0  0  0  0  0  0  0  0  0
  188.2850  177.8270  139.0600 C   0  0  1  0  0  0  0  0  0  0  0  0
  186.5810  178.1330  137.5320 C   0  0  1  0  0  3  0  0  0  0  0  0
  189.7640  178.1000  139.1890 C   0  0  2  0  0  3  0  0  0  0  0  0
  186.5880  175.6130  137.7140 C   0  0  0  0  0  1  0  0  0  0  0  0
  185.1860  178.4910  138.1010 C   0  0  2  0  0  3  0  0  0  0  0  0
  190.6800  176.4960  136.4030 C   0  0  0  0  0  1  0  0  0  0  0  0
  188.2110  176.6380  136.1390 C   0  0  0  0  0  2  0  0  0  0  0  0
  185.2510  179.3340  139.2360 O   0  0  0  0  0  0  0  0  0  0  0  0
  189.4150  177.1320  136.9430 C   0  0  1  0  0  3  0  0  0  0  0  0
  187.8140  177.6840  140.4910 C   0  0  1  0  0  3  0  0  0  0  0  0
  189.0770  177.8020  141.3200 C   0  0  1  0  0  3  0  0  0  0  0  0
  186.8680  178.7990  140.9160 C   0  0  0  0  0  2  0  0  0  0  0  0
  185.4750  178.5470  140.3780 C   0  0  0  0  0  2  0  0  0  0  0  0
  189.2960  176.8670  138.4380 C   0  0  2  0  0  3  0  0  0  0  0  0
  186.1120  176.1280  134.3460 C   0  0  0  0  0  2  0  0  0  0  0  0
  185.6690  176.6730  135.6960 C   0  0  0  0  0  3  0  0  0  0  0  0
  185.8710  177.6170  134.5210 C   0  0  0  0  0  2  0  0  0  0  0  0
  189.1360  176.6970  142.3730 C   0  0  2  0  0  3  0  0  0  0  0  0
  188.9070  177.2310  143.6450 O   0  0  0  0  0  0  0  0  0  0  0  0
  187.6340  176.7830  144.0020 C   0  0  0  0  0  1  0  0  0  0  0  0
  190.4220  176.0880  142.3410 O   0  0  0  0  0  0  0  0  0  0  0  0
  191.8480  175.3870  144.2130 N   0  0  0  0  0  1  0  0  0  0  0  0
  191.9300  177.5210  143.3080 O   0  0  0  0  0  0  0  0  0  0  0  0
  191.4100  176.3760  143.2840 C   0  0  0  0  0  0  0  0  0  0  0  0
  184.3550  177.3690  138.2940 O   0  0  0  0  0  0  0  0  0  0  0  0
  182.4570  177.1960  136.8510 C   0  0  0  0  0  1  0  0  0  0  0  0
  183.0460  177.8280  138.1000 C   0  0  1  0  0  3  0  0  0  0  0  0
  182.1850  177.5020  139.2870 C   0  0  0  0  0  0  0  0  0  0  0  0
  182.2840  176.4030  139.8120 O   0  0  0  0  0  0  0  0  0  0  0  0
  181.2090  178.5090  139.8260 C   0  0  2  0  0  3  0  0  0  0  0  0
  181.5430  179.9010  139.3170 C   0  0  0  0  0  1  0  0  0  0  0  0
  181.1940  178.4840  141.3440 C   0  0  0  0  0  2  0  0  0  0  0  0
  182.4100  178.9550  141.8390 O   0  0  0  0  0  0  0  0  0  0  0  0
  182.2750  178.8800  143.2240 C   0  0  0  0  0  1  0  0  0  0  0  0
  2 14  1  0  0  0  0
  3  5  1  0  0  0  0
  3  7  1  1  0  0  0
  4  1  1  6  0  0  0
  4  6  1  0  0  0  0
  4 13  1  0  0  0  0
  5  8  1  0  0  0  0
  5  1  1  1  0  0  0
  6  2  1  1  0  0  0
  8 28  1  1  0  0  0
  8 11  1  0  0  0  0
 10  3  1  0  0  0  0
 10 12  1  0  0  0  0
 11 16  1  0  0  0  0
 12  9  1  6  0  0  0
 12 17  1  0  0  0  0
 13 15  1  1  0  0  0
 13 14  1  0  0  0  0
 14 21  1  1  0  0  0
 16 15  1  0  0  0  0
 17  4  1  0  0  0  0
 17  6  1  0  0  0  0
 18 20  1  0  0  0  0
 18 19  1  0  0  0  0
 19  3  1  0  0  0  0
 20 19  1  0  0  0  0
 21 22  1  0  0  0  0
 22 23  1  0  0  0  0
 24 21  1  0  0  0  0
 24 27  1  0  0  0  0
 27 26  2  0  0  0  0
 27 25  1  0  0  0  0
 29 30  1  0  0  0  0
 30 28  1  0  0  0  0
 30 31  1  0  0  0  0
 31 32  2  0  0  0  0
 31 33  1  0  0  0  0
 33 35  1  0  0  0  0
 34 33  1  0  0  0  0
 35 36  1  0  0  0  0
 36 37  1  0  0  0  0
M  END
>  <MODEL>
3

>  <REMARK>
 VINA RESULT:      -6.1      2.877      8.050
  Name = 
  11 active torsions:
  status: ('A' for Active; 'I' for Inactive)
    1  A    between atoms: C_1  and  C_5
    2  A    between atoms: C_1  and  C_23
    3  A    between atoms: O_2  and  C_6
    4  A    between atoms: C_5  and  C_26
    5  A    between atoms: C_6  and  O_8
    6  A    between atoms: C_6  and  C_31
    7  A    between atoms: O_8  and  C_19
    8  A    between atoms: C_9  and  C_30
    9  A    between atoms: O_11  and  C_26
   10  A    between atoms: C_20  and  O_25
   11  A    between atoms: C_23  and  O_25
                            x       y       z     vdW  Elec       q    Type
                         _______ _______ _______ _____ _____    ______ ____

>  <TORSDO>
F 11

$$$$
=
 OpenBabel10272415063D

 37 41  0  0  1  0  0  0  0  0999 V2000
  186.4550  179.4990  142.8590 O   0  0  0  0  0  0  0  0  0  0  0  0
  182.9460  178.9250  142.8680 O   0  0  0  0  0  0  0  0  0  0  0  0
  187.7520  177.5610  143.9800 C   0  0  2  0  0  0  0  0  0  0  0  0
  185.3090  178.6780  142.8060 C   0  0  1  0  0  0  0  0  0  0  0  0
  187.6160  178.6870  142.9000 C   0  0  1  0  0  3  0  0  0  0  0  0
  184.1370  179.3330  143.4950 C   0  0  2  0  0  3  0  0  0  0  0  0
  187.1430  176.2670  143.4510 C   0  0  0  0  0  1  0  0  0  0  0  0
  188.3730  178.5670  141.5550 C   0  0  2  0  0  3  0  0  0  0  0  0
  184.9690  178.4130  146.5980 C   0  0  0  0  0  1  0  0  0  0  0  0
  187.0410  177.8930  145.3240 C   0  0  0  0  0  2  0  0  0  0  0  0
  187.7260  179.2440  140.4940 O   0  0  0  0  0  0  0  0  0  0  0  0
  185.6830  178.5990  145.2750 C   0  0  1  0  0  3  0  0  0  0  0  0
  184.7470  178.2290  141.4750 C   0  0  1  0  0  3  0  0  0  0  0  0
  183.2760  178.5890  141.5430 C   0  0  1  0  0  3  0  0  0  0  0  0
  185.3570  178.9740  140.2950 C   0  0  0  0  0  2  0  0  0  0  0  0
  186.7240  178.4140  139.9640 C   0  0  0  0  0  2  0  0  0  0  0  0
  184.7950  178.1240  144.1330 C   0  0  2  0  0  3  0  0  0  0  0  0
  189.7310  177.2090  145.6210 C   0  0  0  0  0  2  0  0  0  0  0  0
  189.2660  177.2750  144.1740 C   0  0  0  0  0  3  0  0  0  0  0  0
  190.0160  178.4460  144.7870 C   0  0  0  0  0  2  0  0  0  0  0  0
  182.4130  177.4210  141.0720 C   0  0  2  0  0  3  0  0  0  0  0  0
  182.8600  176.9630  139.8290 O   0  0  0  0  0  0  0  0  0  0  0  0
  182.1420  175.7880  139.5960 C   0  0  0  0  0  1  0  0  0  0  0  0
  181.0620  177.8530  140.9580 O   0  0  0  0  0  0  0  0  0  0  0  0
  180.8810  179.3090  138.9900 N   0  0  0  0  0  1  0  0  0  0  0  0
  180.2310  179.9850  141.1100 O   0  0  0  0  0  0  0  0  0  0  0  0
  180.7120  179.0770  140.3850 C   0  0  0  0  0  0  0  0  0  0  0  0
  188.7280  177.2430  141.2280 O   0  0  0  0  0  0  0  0  0  0  0  0
  190.8480  176.1960  141.5830 C   0  0  0  0  0  1  0  0  0  0  0  0
  190.0800  177.2920  140.8650 C   0  0  1  0  0  3  0  0  0  0  0  0
  190.2390  177.1320  139.3800 C   0  0  0  0  0  0  0  0  0  0  0  0
  189.7930  177.9940  138.6360 O   0  0  0  0  0  0  0  0  0  0  0  0
  190.9340  175.9300  138.8080 C   0  0  2  0  0  3  0  0  0  0  0  0
  192.2690  176.3230  138.1990 C   0  0  0  0  0  1  0  0  0  0  0  0
  190.0570  175.2420  137.7760 C   0  0  0  0  0  2  0  0  0  0  0  0
  190.4550  173.9140  137.6240 O   0  0  0  0  0  0  0  0  0  0  0  0
  190.1380  173.6040  136.3020 C   0  0  0  0  0  1  0  0  0  0  0  0
  3  7  1  6  0  0  0
  3 19  1  0  0  0  0
  3 10  1  0  0  0  0
  4  1  1  1  0  0  0
  4  6  1  0  0  0  0
  4 17  1  0  0  0  0
  5  1  1  6  0  0  0
  5  3  1  0  0  0  0
  6  2  1  6  0  0  0
  6 17  1  0  0  0  0
  8 28  1  6  0  0  0
  8  5  1  0  0  0  0
 11  8  1  0  0  0  0
 12 10  1  0  0  0  0
 12  9  1  1  0  0  0
 13 15  1  6  0  0  0
 13 14  1  0  0  0  0
 13  4  1  0  0  0  0
 14 21  1  1  0  0  0
 14  2  1  0  0  0  0
 16 15  1  0  0  0  0
 16 11  1  0  0  0  0
 17 12  1  0  0  0  0
 19 20  1  0  0  0  0
 19 18  1  0  0  0  0
 20 18  1  0  0  0  0
 22 21  1  0  0  0  0
 23 22  1  0  0  0  0
 24 21  1  0  0  0  0
 25 27  1  0  0  0  0
 27 24  1  0  0  0  0
 27 26  2  0  0  0  0
 30 28  1  0  0  0  0
 30 29  1  0  0  0  0
 31 30  1  0  0  0  0
 32 31  2  0  0  0  0
 33 31  1  0  0  0  0
 34 33  1  0  0  0  0
 35 33  1  0  0  0  0
 36 35  1  0  0  0  0
 37 36  1  0  0  0  0
M  END
>  <MODEL>
4

>  <REMARK>
 VINA RESULT:      -6.0      0.989      1.660
  Name = 
  11 active torsions:
  status: ('A' for Active; 'I' for Inactive)
    1  A    between atoms: C_1  and  C_5
    2  A    between atoms: C_1  and  C_23
    3  A    between atoms: O_2  and  C_6
    4  A    between atoms: C_5  and  C_26
    5  A    between atoms: C_6  and  O_8
    6  A    between atoms: C_6  and  C_31
    7  A    between atoms: O_8  and  C_19
    8  A    between atoms: C_9  and  C_30
    9  A    between atoms: O_11  and  C_26
   10  A    between atoms: C_20  and  O_25
   11  A    between atoms: C_23  and  O_25
                            x       y       z     vdW  Elec       q    Type
                         _______ _______ _______ _____ _____    ______ ____

>  <TORSDO>
F 11

$$$$
=
 OpenBabel10272415063D

 37 41  0  0  1  0  0  0  0  0999 V2000
  189.8340  178.1600  138.2040 O   0  0  0  0  0  0  0  0  0  0  0  0
  191.4460  177.4770  141.2990 O   0  0  0  0  0  0  0  0  0  0  0  0
  189.4690  176.0090  136.8120 C   0  0  2  0  0  0  0  0  0  0  0  0
  190.1170  177.3610  139.3310 C   0  0  1  0  0  0  0  0  0  0  0  0
  189.0230  177.4300  137.2990 C   0  0  1  0  0  3  0  0  0  0  0  0
  191.4710  177.6950  139.9100 C   0  0  2  0  0  3  0  0  0  0  0  0
  188.9490  174.9500  137.7770 C   0  0  0  0  0  1  0  0  0  0  0  0
  187.5210  177.8050  137.3240 C   0  0  2  0  0  3  0  0  0  0  0  0
  193.2500  175.8080  137.8020 C   0  0  0  0  0  1  0  0  0  0  0  0
  191.0130  175.8360  136.7180 C   0  0  0  0  0  2  0  0  0  0  0  0
  187.2100  178.7760  138.3060 O   0  0  0  0  0  0  0  0  0  0  0  0
  191.8830  176.4610  137.8110 C   0  0  1  0  0  3  0  0  0  0  0  0
  189.1940  177.3700  140.5300 C   0  0  1  0  0  3  0  0  0  0  0  0
  190.1090  177.6260  141.7110 C   0  0  1  0  0  3  0  0  0  0  0  0
  188.1700  178.4950  140.4790 C   0  0  0  0  0  2  0  0  0  0  0  0
  187.0350  178.1360  139.5440 C   0  0  0  0  0  2  0  0  0  0  0  0
  191.2700  176.3680  139.2010 C   0  0  2  0  0  3  0  0  0  0  0  0
  189.6710  175.2090  134.3520 C   0  0  0  0  0  2  0  0  0  0  0  0
  188.7650  175.7350  135.4550 C   0  0  0  0  0  3  0  0  0  0  0  0
  189.2340  176.6640  134.3470 C   0  0  0  0  0  2  0  0  0  0  0  0
  189.8050  176.6540  142.8500 C   0  0  2  0  0  3  0  0  0  0  0  0
  190.4440  175.4310  142.6210 O   0  0  0  0  0  0  0  0  0  0  0  0
  191.2800  175.2470  143.7250 C   0  0  0  0  0  1  0  0  0  0  0  0
  188.4000  176.4450  142.9250 O   0  0  0  0  0  0  0  0  0  0  0  0
  187.8650  177.0520  145.2430 N   0  0  0  0  0  1  0  0  0  0  0  0
  186.6140  177.7900  143.4360 O   0  0  0  0  0  0  0  0  0  0  0  0
  187.5920  177.1140  143.8460 C   0  0  0  0  0  0  0  0  0  0  0  0
  186.6650  176.6870  137.3650 O   0  0  0  0  0  0  0  0  0  0  0  0
  185.4310  176.9280  135.3320 C   0  0  0  0  0  1  0  0  0  0  0  0
  185.4430  177.1240  136.8370 C   0  0  1  0  0  3  0  0  0  0  0  0
  184.2970  176.3760  137.4560 C   0  0  0  0  0  0  0  0  0  0  0  0
  184.0180  175.2610  137.0390 O   0  0  0  0  0  0  0  0  0  0  0  0
  183.4950  176.9850  138.5700 C   0  0  2  0  0  3  0  0  0  0  0  0
  182.4210  176.0220  139.0450 C   0  0  0  0  0  1  0  0  0  0  0  0
  182.8780  178.3010  138.1320 C   0  0  0  0  0  2  0  0  0  0  0  0
  183.5200  179.3630  138.7710 O   0  0  0  0  0  0  0  0  0  0  0  0
  182.5790  180.3910  138.7670 C   0  0  0  0  0  1  0  0  0  0  0  0
  2 14  1  0  0  0  0
  3  5  1  0  0  0  0
  3  7  1  1  0  0  0
  4  1  1  6  0  0  0
  4  6  1  0  0  0  0
  4 13  1  0  0  0  0
  5  8  1  0  0  0  0
  5  1  1  1  0  0  0
  6  2  1  1  0  0  0
  8 28  1  1  0  0  0
  8 11  1  0  0  0  0
 10  3  1  0  0  0  0
 10 12  1  0  0  0  0
 11 16  1  0  0  0  0
 12  9  1  1  0  0  0
 12 17  1  0  0  0  0
 13 15  1  6  0  0  0
 13 14  1  0  0  0  0
 14 21  1  1  0  0  0
 16 15  1  0  0  0  0
 17  4  1  0  0  0  0
 17  6  1  0  0  0  0
 18 19  1  0  0  0  0
 19  3  1  0  0  0  0
 20 18  1  0  0  0  0
 20 19  1  0  0  0  0
 21 24  1  0  0  0  0
 22 21  1  0  0  0  0
 22 23  1  0  0  0  0
 24 27  1  0  0  0  0
 26 27  2  0  0  0  0
 27 25  1  0  0  0  0
 29 30  1  0  0  0  0
 30 28  1  0  0  0  0
 30 31  1  0  0  0  0
 31 33  1  0  0  0  0
 32 31  2  0  0  0  0
 33 34  1  0  0  0  0
 35 33  1  0  0  0  0
 35 36  1  0  0  0  0
 37 36  1  0  0  0  0
M  END
>  <MODEL>
5

>  <REMARK>
 VINA RESULT:      -6.0      2.802      7.423
  Name = 
  11 active torsions:
  status: ('A' for Active; 'I' for Inactive)
    1  A    between atoms: C_1  and  C_5
    2  A    between atoms: C_1  and  C_23
    3  A    between atoms: O_2  and  C_6
    4  A    between atoms: C_5  and  C_26
    5  A    between atoms: C_6  and  O_8
    6  A    between atoms: C_6  and  C_31
    7  A    between atoms: O_8  and  C_19
    8  A    between atoms: C_9  and  C_30
    9  A    between atoms: O_11  and  C_26
   10  A    between atoms: C_20  and  O_25
   11  A    between atoms: C_23  and  O_25
                            x       y       z     vdW  Elec       q    Type
                         _______ _______ _______ _____ _____    ______ ____

>  <TORSDO>
F 11

$$$$
=
 OpenBabel10272415063D

 37 41  0  0  1  0  0  0  0  0999 V2000
  187.6630  179.1670  142.9020 O   0  0  0  0  0  0  0  0  0  0  0  0
  184.1910  178.8470  143.5990 O   0  0  0  0  0  0  0  0  0  0  0  0
  188.9580  176.9910  143.4370 C   0  0  2  0  0  0  0  0  0  0  0  0
  186.4530  178.4470  142.9890 C   0  0  1  0  0  0  0  0  0  0  0  0
  188.7190  178.2790  142.5770 C   0  0  1  0  0  3  0  0  0  0  0  0
  185.5210  179.0680  144.0000 C   0  0  2  0  0  3  0  0  0  0  0  0
  188.1240  175.8420  142.8810 C   0  0  0  0  0  1  0  0  0  0  0  0
  189.1670  178.3160  141.0960 C   0  0  2  0  0  3  0  0  0  0  0  0
  186.8750  177.6200  146.6910 C   0  0  0  0  0  1  0  0  0  0  0  0
  188.5760  177.1600  144.9360 C   0  0  0  0  0  2  0  0  0  0  0  0
  188.3880  179.1950  140.3050 O   0  0  0  0  0  0  0  0  0  0  0  0
  187.3170  177.9580  145.2820 C   0  0  1  0  0  3  0  0  0  0  0  0
  185.5870  178.2520  141.7640 C   0  0  1  0  0  3  0  0  0  0  0  0
  184.2060  178.7000  142.2000 C   0  0  1  0  0  3  0  0  0  0  0  0
  186.0140  179.1260  140.5920 C   0  0  0  0  0  2  0  0  0  0  0  0
  187.2200  178.5300  139.8980 C   0  0  0  0  0  2  0  0  0  0  0  0
  186.1690  177.7310  144.3070 C   0  0  2  0  0  3  0  0  0  0  0  0
  191.2270  176.3960  144.5450 C   0  0  0  0  0  2  0  0  0  0  0  0
  190.4420  176.5730  143.2540 C   0  0  0  0  0  3  0  0  0  0  0  0
  191.4200  177.6460  143.7040 C   0  0  0  0  0  2  0  0  0  0  0  0
  183.1500  177.6830  141.7740 C   0  0  2  0  0  3  0  0  0  0  0  0
  183.5790  176.9920  140.6360 O   0  0  0  0  0  0  0  0  0  0  0  0
  182.6410  177.3010  139.6490 C   0  0  0  0  0  1  0  0  0  0  0  0
  181.9350  178.3640  141.4820 O   0  0  0  0  0  0  0  0  0  0  0  0
  179.9830  177.8370  142.8750 N   0  0  0  0  0  1  0  0  0  0  0  0
  181.1240  179.8490  143.0300 O   0  0  0  0  0  0  0  0  0  0  0  0
  181.0220  178.7260  142.4730 C   0  0  0  0  0  0  0  0  0  0  0  0
  189.3100  177.0380  140.5210 O   0  0  0  0  0  0  0  0  0  0  0  0
  191.6460  177.0770  140.0100 C   0  0  0  0  0  1  0  0  0  0  0  0
  190.2300  177.1930  139.4760 C   0  0  1  0  0  3  0  0  0  0  0  0
  190.0040  176.1580  138.4100 C   0  0  0  0  0  0  0  0  0  0  0  0
  190.5180  175.0550  138.5300 O   0  0  0  0  0  0  0  0  0  0  0  0
  189.1600  176.4680  137.2070 C   0  0  2  0  0  3  0  0  0  0  0  0
  189.1230  177.9650  136.9520 C   0  0  0  0  0  1  0  0  0  0  0  0
  187.7550  175.9190  137.3780 C   0  0  0  0  0  2  0  0  0  0  0  0
  186.8860  176.5540  136.4900 O   0  0  0  0  0  0  0  0  0  0  0  0
  185.6510  176.5310  137.1360 C   0  0  0  0  0  1  0  0  0  0  0  0
  3  7  1  6  0  0  0
  3 10  1  0  0  0  0
  4  1  1  6  0  0  0
  4  6  1  0  0  0  0
  4 17  1  0  0  0  0
  5  1  1  6  0  0  0
  5  3  1  0  0  0  0
  6  2  1  6  0  0  0
  6 17  1  0  0  0  0
  8 28  1  6  0  0  0
  8  5  1  0  0  0  0
 10 12  1  0  0  0  0
 11  8  1  0  0  0  0
 12  9  1  1  0  0  0
 13 15  1  6  0  0  0
 13 14  1  0  0  0  0
 13  4  1  0  0  0  0
 14 21  1  1  0  0  0
 14  2  1  0  0  0  0
 16 11  1  0  0  0  0
 16 15  1  0  0  0  0
 17 12  1  0  0  0  0
 19  3  1  0  0  0  0
 19 20  1  0  0  0  0
 19 18  1  0  0  0  0
 20 18  1  0  0  0  0
 22 21  1  0  0  0  0
 23 22  1  0  0  0  0
 24 21  1  0  0  0  0
 24 27  1  0  0  0  0
 27 25  1  0  0  0  0
 27 26  2  0  0  0  0
 30 29  1  0  0  0  0
 30 28  1  0  0  0  0
 31 32  2  0  0  0  0
 31 30  1  0  0  0  0
 33 35  1  0  0  0  0
 33 31  1  0  0  0  0
 34 33  1  0  0  0  0
 36 37  1  0  0  0  0
 36 35  1  0  0  0  0
M  END
>  <MODEL>
6

>  <REMARK>
 VINA RESULT:      -5.8      1.557      1.745
  Name = 
  11 active torsions:
  status: ('A' for Active; 'I' for Inactive)
    1  A    between atoms: C_1  and  C_5
    2  A    between atoms: C_1  and  C_23
    3  A    between atoms: O_2  and  C_6
    4  A    between atoms: C_5  and  C_26
    5  A    between atoms: C_6  and  O_8
    6  A    between atoms: C_6  and  C_31
    7  A    between atoms: O_8  and  C_19
    8  A    between atoms: C_9  and  C_30
    9  A    between atoms: O_11  and  C_26
   10  A    between atoms: C_20  and  O_25
   11  A    between atoms: C_23  and  O_25
                            x       y       z     vdW  Elec       q    Type
                         _______ _______ _______ _____ _____    ______ ____

>  <TORSDO>
F 11

$$$$
=
 OpenBabel10272415063D

 37 41  0  0  1  0  0  0  0  0999 V2000
  184.9690  179.3570  138.8790 O   0  0  0  0  0  0  0  0  0  0  0  0
  186.0890  177.3160  136.1920 O   0  0  0  0  0  0  0  0  0  0  0  0
  182.9940  178.2750  140.1540 C   0  0  2  0  0  0  0  0  0  0  0  0
  185.2220  178.1180  138.2540 C   0  0  1  0  0  0  0  0  0  0  0  0
  184.3010  179.1380  140.1100 C   0  0  1  0  0  3  0  0  0  0  0  0
  185.2000  178.2510  136.7510 C   0  0  2  0  0  3  0  0  0  0  0  0
  183.3560  176.8070  140.3500 C   0  0  0  0  0  1  0  0  0  0  0  0
  185.1990  179.2500  141.3660 C   0  0  2  0  0  3  0  0  0  0  0  0
  181.8820  178.0410  136.4080 C   0  0  0  0  0  1  0  0  0  0  0  0
  182.1350  178.3730  138.8600 C   0  0  0  0  0  2  0  0  0  0  0  0
  186.5590  179.4890  141.0540 O   0  0  0  0  0  0  0  0  0  0  0  0
  182.8550  178.4100  137.5090 C   0  0  1  0  0  3  0  0  0  0  0  0
  186.5020  177.3620  138.5360 C   0  0  1  0  0  3  0  0  0  0  0  0
  187.0690  177.0510  137.1650 C   0  0  1  0  0  3  0  0  0  0  0  0
  187.5290  178.1990  139.2880 C   0  0  0  0  0  2  0  0  0  0  0  0
  187.1830  178.2650  140.7600 C   0  0  0  0  0  2  0  0  0  0  0  0
  184.0780  177.5050  137.4490 C   0  0  2  0  0  3  0  0  0  0  0  0
  180.8260  178.0500  141.5610 C   0  0  0  0  0  2  0  0  0  0  0  0
  182.1970  178.6930  141.4190 C   0  0  0  0  0  3  0  0  0  0  0  0
  180.9440  179.4890  141.0930 C   0  0  0  0  0  2  0  0  0  0  0  0
  187.5030  175.5890  137.0810 C   0  0  2  0  0  3  0  0  0  0  0  0
  188.6030  175.4630  136.2260 O   0  0  0  0  0  0  0  0  0  0  0  0
  189.5200  176.4160  136.6730 C   0  0  0  0  0  1  0  0  0  0  0  0
  186.4240  174.8080  136.5810 O   0  0  0  0  0  0  0  0  0  0  0  0
  184.4250  173.9590  137.7250 N   0  0  0  0  0  1  0  0  0  0  0  0
  186.4350  172.8040  137.6970 O   0  0  0  0  0  0  0  0  0  0  0  0
  185.7920  173.8260  137.3460 C   0  0  0  0  0  0  0  0  0  0  0  0
  185.0210  178.1910  142.2780 O   0  0  0  0  0  0  0  0  0  0  0  0
  183.7860  178.8600  144.2130 C   0  0  0  0  0  1  0  0  0  0  0  0
  185.1490  178.7610  143.5510 C   0  0  1  0  0  3  0  0  0  0  0  0
  186.0710  177.9440  144.4110 C   0  0  0  0  0  0  0  0  0  0  0  0
  185.6640  177.5090  145.4780 O   0  0  0  0  0  0  0  0  0  0  0  0
  187.4810  177.6640  143.9730 C   0  0  2  0  0  3  0  0  0  0  0  0
  187.6420  176.2010  143.5970 C   0  0  0  0  0  1  0  0  0  0  0  0
  188.4690  178.0490  145.0600 C   0  0  0  0  0  2  0  0  0  0  0  0
  189.0770  176.9050  145.5750 O   0  0  0  0  0  0  0  0  0  0  0  0
  189.0160  177.0710  146.9580 C   0  0  0  0  0  1  0  0  0  0  0  0
  2 14  1  0  0  0  0
  3  7  1  1  0  0  0
  3 19  1  0  0  0  0
  4 13  1  0  0  0  0
  4  1  1  1  0  0  0
  5  1  1  6  0  0  0
  5  3  1  0  0  0  0
  5  8  1  0  0  0  0
  6  2  1  6  0  0  0
  6 17  1  0  0  0  0
  6  4  1  0  0  0  0
  8 28  1  6  0  0  0
 10  3  1  0  0  0  0
 11  8  1  0  0  0  0
 12  9  1  6  0  0  0
 12 10  1  0  0  0  0
 13 15  1  1  0  0  0
 14 21  1  1  0  0  0
 14 13  1  0  0  0  0
 15 16  1  0  0  0  0
 16 11  1  0  0  0  0
 17 12  1  0  0  0  0
 17  4  1  0  0  0  0
 19 18  1  0  0  0  0
 20 19  1  0  0  0  0
 20 18  1  0  0  0  0
 22 23  1  0  0  0  0
 22 21  1  0  0  0  0
 24 21  1  0  0  0  0
 24 27  1  0  0  0  0
 27 26  2  0  0  0  0
 27 25  1  0  0  0  0
 28 30  1  0  0  0  0
 30 29  1  0  0  0  0
 30 31  1  0  0  0  0
 31 32  2  0  0  0  0
 33 31  1  0  0  0  0
 33 35  1  0  0  0  0
 34 33  1  0  0  0  0
 35 36  1  0  0  0  0
 36 37  1  0  0  0  0
M  END
>  <MODEL>
7

>  <REMARK>
 VINA RESULT:      -5.7      2.657      7.005
  Name = 
  11 active torsions:
  status: ('A' for Active; 'I' for Inactive)
    1  A    between atoms: C_1  and  C_5
    2  A    between atoms: C_1  and  C_23
    3  A    between atoms: O_2  and  C_6
    4  A    between atoms: C_5  and  C_26
    5  A    between atoms: C_6  and  O_8
    6  A    between atoms: C_6  and  C_31
    7  A    between atoms: O_8  and  C_19
    8  A    between atoms: C_9  and  C_30
    9  A    between atoms: O_11  and  C_26
   10  A    between atoms: C_20  and  O_25
   11  A    between atoms: C_23  and  O_25
                            x       y       z     vdW  Elec       q    Type
                         _______ _______ _______ _____ _____    ______ ____

>  <TORSDO>
F 11

$$$$
=
 OpenBabel10272415063D

 37 41  0  0  1  0  0  0  0  0999 V2000
  188.6930  179.0200  141.0920 O   0  0  0  0  0  0  0  0  0  0  0  0
  187.5110  177.6010  138.0540 O   0  0  0  0  0  0  0  0  0  0  0  0
  187.6650  177.8580  143.1630 C   0  0  2  0  0  0  0  0  0  0  0  0
  188.2370  177.9540  140.2890 C   0  0  1  0  0  0  0  0  0  0  0  0
  188.8500  178.5720  142.4280 C   0  0  1  0  0  3  0  0  0  0  0  0
  187.3660  178.4540  139.1620 C   0  0  2  0  0  3  0  0  0  0  0  0
  187.7240  176.3590  142.8940 C   0  0  0  0  0  1  0  0  0  0  0  0
  190.3110  178.2830  142.8500 C   0  0  2  0  0  3  0  0  0  0  0  0
  184.5440  178.6630  140.9410 C   0  0  0  0  0  1  0  0  0  0  0  0
  186.2590  178.3560  142.7150 C   0  0  0  0  0  2  0  0  0  0  0  0
  191.2360  178.4560  141.7920 O   0  0  0  0  0  0  0  0  0  0  0  0
  186.0310  178.6530  141.2310 C   0  0  1  0  0  3  0  0  0  0  0  0
  189.2220  177.0300  139.6070 C   0  0  1  0  0  3  0  0  0  0  0  0
  188.7830  177.0100  138.1570 C   0  0  1  0  0  3  0  0  0  0  0  0
  190.6520  177.5500  139.6570 C   0  0  0  0  0  2  0  0  0  0  0  0
  191.2660  177.2870  141.0150 C   0  0  0  0  0  2  0  0  0  0  0  0
  186.7360  177.6740  140.3010 C   0  0  2  0  0  3  0  0  0  0  0  0
  187.1070  177.0630  145.5690 C   0  0  0  0  0  2  0  0  0  0  0  0
  187.8870  178.0290  144.6900 C   0  0  0  0  0  3  0  0  0  0  0  0
  186.6400  178.5000  145.4210 C   0  0  0  0  0  2  0  0  0  0  0  0
  188.7350  175.5780  137.6270 C   0  0  2  0  0  3  0  0  0  0  0  0
  189.7810  175.3640  136.7250 O   0  0  0  0  0  0  0  0  0  0  0  0
  190.6080  174.4240  137.3450 C   0  0  0  0  0  1  0  0  0  0  0  0
  187.4920  175.3640  136.9690 O   0  0  0  0  0  0  0  0  0  0  0  0
  185.5720  173.8930  137.3960 N   0  0  0  0  0  1  0  0  0  0  0  0
  187.5150  173.1490  136.3710 O   0  0  0  0  0  0  0  0  0  0  0  0
  186.8900  174.1070  136.8960 C   0  0  0  0  0  0  0  0  0  0  0  0
  190.4670  177.0550  143.5230 O   0  0  0  0  0  0  0  0  0  0  0  0
  191.6440  178.6160  144.9000 C   0  0  0  0  0  1  0  0  0  0  0  0
  191.5990  177.2080  144.3330 C   0  0  1  0  0  3  0  0  0  0  0  0
  191.5890  176.2100  145.4560 C   0  0  0  0  0  0  0  0  0  0  0  0
  191.6530  175.0180  145.1960 O   0  0  0  0  0  0  0  0  0  0  0  0
  191.4990  176.6650  146.8850 C   0  0  2  0  0  3  0  0  0  0  0  0
  192.3610  175.7900  147.7790 C   0  0  0  0  0  1  0  0  0  0  0  0
  190.0570  176.6600  147.3620 C   0  0  0  0  0  2  0  0  0  0  0  0
  189.7030  177.9300  147.8160 O   0  0  0  0  0  0  0  0  0  0  0  0
  188.5680  177.7170  148.5950 C   0  0  0  0  0  1  0  0  0  0  0  0
  2 14  1  0  0  0  0
  3  7  1  6  0  0  0
  3 19  1  0  0  0  0
  4 17  1  0  0  0  0
  4  1  1  1  0  0  0
  5  1  1  6  0  0  0
  5  8  1  0  0  0  0
  5  3  1  0  0  0  0
  6  2  1  6  0  0  0
  6  4  1  0  0  0  0
  6 17  1  0  0  0  0
  8 28  1  6  0  0  0
 10  3  1  0  0  0  0
 11  8  1  0  0  0  0
 12  9  1  1  0  0  0
 12 10  1  0  0  0  0
 13 15  1  6  0  0  0
 13  4  1  0  0  0  0
 14 21  1  1  0  0  0
 14 13  1  0  0  0  0
 15 16  1  0  0  0  0
 16 11  1  0  0  0  0
 17 12  1  0  0  0  0
 19 20  1  0  0  0  0
 19 18  1  0  0  0  0
 20 18  1  0  0  0  0
 22 23  1  0  0  0  0
 22 21  1  0  0  0  0
 24 21  1  0  0  0  0
 26 27  2  0  0  0  0
 27 24  1  0  0  0  0
 27 25  1  0  0  0  0
 28 30  1  0  0  0  0
 30 29  1  0  0  0  0
 30 31  1  0  0  0  0
 31 33  1  0  0  0  0
 32 31  2  0  0  0  0
 33 35  1  0  0  0  0
 33 34  1  0  0  0  0
 35 36  1  0  0  0  0
 36 37  1  0  0  0  0
M  END
>  <MODEL>
8

>  <REMARK>
 VINA RESULT:      -5.6      2.989      6.448
  Name = 
  11 active torsions:
  status: ('A' for Active; 'I' for Inactive)
    1  A    between atoms: C_1  and  C_5
    2  A    between atoms: C_1  and  C_23
    3  A    between atoms: O_2  and  C_6
    4  A    between atoms: C_5  and  C_26
    5  A    between atoms: C_6  and  O_8
    6  A    between atoms: C_6  and  C_31
    7  A    between atoms: O_8  and  C_19
    8  A    between atoms: C_9  and  C_30
    9  A    between atoms: O_11  and  C_26
   10  A    between atoms: C_20  and  O_25
   11  A    between atoms: C_23  and  O_25
                            x       y       z     vdW  Elec       q    Type
                         _______ _______ _______ _____ _____    ______ ____

>  <TORSDO>
F 11

$$$$
=
 OpenBabel10272415063D

 37 41  0  0  1  0  0  0  0  0999 V2000
  189.3530  179.0170  142.2250 O   0  0  0  0  0  0  0  0  0  0  0  0
  189.1350  177.8720  138.8660 O   0  0  0  0  0  0  0  0  0  0  0  0
  187.7610  177.7140  143.7930 C   0  0  2  0  0  0  0  0  0  0  0  0
  189.1620  178.0290  141.2380 C   0  0  1  0  0  0  0  0  0  0  0  0
  189.1070  178.4610  143.5060 C   0  0  1  0  0  3  0  0  0  0  0  0
  188.6630  178.6360  139.9490 C   0  0  2  0  0  3  0  0  0  0  0  0
  187.9050  176.2400  143.4310 C   0  0  0  0  0  1  0  0  0  0  0  0
  190.3780  178.1100  144.3160 C   0  0  2  0  0  3  0  0  0  0  0  0
  185.4390  178.7570  140.8200 C   0  0  0  0  0  1  0  0  0  0  0  0
  186.5500  178.2740  142.9910 C   0  0  0  0  0  2  0  0  0  0  0  0
  191.5750  178.3490  143.6000 O   0  0  0  0  0  0  0  0  0  0  0  0
  186.7720  178.6930  141.5360 C   0  0  1  0  0  3  0  0  0  0  0  0
  190.3100  177.1430  140.8050 C   0  0  1  0  0  3  0  0  0  0  0  0
  190.3220  177.2490  139.2930 C   0  0  1  0  0  3  0  0  0  0  0  0
  191.6580  177.6300  141.3200 C   0  0  0  0  0  2  0  0  0  0  0  0
  191.8410  177.2450  142.7720 C   0  0  0  0  0  2  0  0  0  0  0  0
  187.7270  177.7790  140.7800 C   0  0  2  0  0  3  0  0  0  0  0  0
  186.1640  177.2320  145.7820 C   0  0  0  0  0  2  0  0  0  0  0  0
  187.5180  177.7570  145.3270 C   0  0  0  0  0  3  0  0  0  0  0  0
  186.4190  178.7280  145.7250 C   0  0  0  0  0  2  0  0  0  0  0  0
  190.4410  175.8660  138.6570 C   0  0  2  0  0  3  0  0  0  0  0  0
  191.7860  175.4970  138.5550 O   0  0  0  0  0  0  0  0  0  0  0  0
  192.3240  176.3520  137.5910 C   0  0  0  0  0  1  0  0  0  0  0  0
  189.8610  175.8970  137.3580 O   0  0  0  0  0  0  0  0  0  0  0  0
  189.3330  173.5200  137.0430 N   0  0  0  0  0  1  0  0  0  0  0  0
  187.9120  175.2190  136.3560 O   0  0  0  0  0  0  0  0  0  0  0  0
  189.0010  174.8980  136.8980 C   0  0  0  0  0  0  0  0  0  0  0  0
  190.3330  176.8290  144.9020 O   0  0  0  0  0  0  0  0  0  0  0  0
  189.9060  176.8810  147.2540 C   0  0  0  0  0  1  0  0  0  0  0  0
  190.9490  176.9610  146.1530 C   0  0  1  0  0  3  0  0  0  0  0  0
  191.9820  175.8890  146.3550 C   0  0  0  0  0  0  0  0  0  0  0  0
  192.3190  175.1980  145.4040 O   0  0  0  0  0  0  0  0  0  0  0  0
  192.5960  175.6610  147.7060 C   0  0  2  0  0  3  0  0  0  0  0  0
  191.7750  174.6630  148.5040 C   0  0  0  0  0  1  0  0  0  0  0  0
  192.7310  176.9700  148.4640 C   0  0  0  0  0  2  0  0  0  0  0  0
  193.8100  176.8990  149.3460 O   0  0  0  0  0  0  0  0  0  0  0  0
  193.4140  177.6640  150.4420 C   0  0  0  0  0  1  0  0  0  0  0  0
  2 14  1  0  0  0  0
  3  7  1  6  0  0  0
  3 19  1  0  0  0  0
  4  1  1  1  0  0  0
  5  1  1  6  0  0  0
  5  3  1  0  0  0  0
  5  8  1  0  0  0  0
  6  2  1  6  0  0  0
  6 17  1  0  0  0  0
  6  4  1  0  0  0  0
  8 28  1  6  0  0  0
 10  3  1  0  0  0  0
 11  8  1  0  0  0  0
 12  9  1  6  0  0  0
 12 10  1  0  0  0  0
 13  4  1  0  0  0  0
 13 15  1  1  0  0  0
 14 21  1  6  0  0  0
 14 13  1  0  0  0  0
 15 16  1  0  0  0  0
 16 11  1  0  0  0  0
 17  4  1  0  0  0  0
 17 12  1  0  0  0  0
 19 20  1  0  0  0  0
 19 18  1  0  0  0  0
 20 18  1  0  0  0  0
 22 21  1  0  0  0  0
 23 22  1  0  0  0  0
 24 21  1  0  0  0  0
 26 27  2  0  0  0  0
 27 25  1  0  0  0  0
 27 24  1  0  0  0  0
 28 30  1  0  0  0  0
 30 31  1  0  0  0  0
 30 29  1  0  0  0  0
 31 33  1  0  0  0  0
 32 31  2  0  0  0  0
 33 35  1  0  0  0  0
 33 34  1  0  0  0  0
 35 36  1  0  0  0  0
 36 37  1  0  0  0  0
M  END
>  <MODEL>
9

>  <REMARK>
 VINA RESULT:      -5.6      3.570      7.456
  Name = 
  11 active torsions:
  status: ('A' for Active; 'I' for Inactive)
    1  A    between atoms: C_1  and  C_5
    2  A    between atoms: C_1  and  C_23
    3  A    between atoms: O_2  and  C_6
    4  A    between atoms: C_5  and  C_26
    5  A    between atoms: C_6  and  O_8
    6  A    between atoms: C_6  and  C_31
    7  A    between atoms: O_8  and  C_19
    8  A    between atoms: C_9  and  C_30
    9  A    between atoms: O_11  and  C_26
   10  A    between atoms: C_20  and  O_25
   11  A    between atoms: C_23  and  O_25
                            x       y       z     vdW  Elec       q    Type
                         _______ _______ _______ _____ _____    ______ ____

>  <TORSDO>
F 11

$$$$
