=
 OpenBabel10272402123D

 32 36  0  0  1  0  0  0  0  0999 V2000
  187.7510  177.2330  143.1980 C   0  0  1  0  0  3  0  0  0  0  0  0
  187.1280  178.0910  140.9270 C   0  0  0  0  0  0  0  0  0  0  0  0
  187.5470  177.7190  144.6340 C   0  0  0  0  0  2  0  0  0  0  0  0
  186.8340  177.9590  142.2350 C   0  0  0  0  0  0  0  0  0  0  0  0
  186.1240  178.6930  139.9820 C   0  0  0  0  0  0  0  0  0  0  0  0
  189.5230  174.9950  136.1830 C   0  0  0  0  0  1  0  0  0  0  0  0
  188.5080  177.7180  140.3930 C   0  0  1  0  0  3  0  0  0  0  0  0
  187.5820  176.9830  136.6250 S   0  0  0  0  0  0  0  0  0  0  0  0
  187.4510  177.7240  138.1250 C   0  0  0  0  0  0  0  0  0  0  0  0
  185.5400  178.4640  142.7280 C   0  0  0  0  0  0  0  0  0  0  0  0
  186.4890  178.8010  138.5170 C   0  0  0  0  0  2  0  0  0  0  0  0
  184.6740  179.0960  141.8350 O   0  0  0  0  0  0  0  0  0  0  0  0
  185.2020  178.3500  144.0160 C   0  0  0  0  0  3  0  0  0  0  0  0
  189.3110  176.7860  141.3110 C   0  0  0  0  0  2  0  0  0  0  0  0
  189.2210  177.2370  142.7660 C   0  0  1  0  0  3  0  0  0  0  0  0
  188.4000  177.2010  138.9870 C   0  0  0  0  0  0  0  0  0  0  0  0
  184.9440  179.1700  140.4620 C   0  0  0  0  0  0  0  0  0  0  0  0
  186.0690  177.6140  145.0040 C   0  0  0  0  0  2  0  0  0  0  0  0
  188.8570  175.9780  137.0770 C   0  0  0  0  0  0  0  0  0  0  0  0
  189.2070  176.2130  138.4010 C   0  0  0  0  0  3  0  0  0  0  0  0
  183.9480  179.7600  139.6630 O   0  0  0  0  0  0  0  0  0  0  0  0
  182.6330  179.2520  139.4750 C   0  0  0  0  0  1  0  0  0  0  0  0
  189.8970  178.5910  142.9870 C   0  0  0  0  0  2  0  0  0  0  0  0
  191.3510  178.3910  143.3710 C   0  0  0  0  0  2  0  0  0  0  0  0
  191.4590  177.8830  144.8000 C   0  0  0  0  0  2  0  0  0  0  0  0
  191.8000  176.4220  144.8380 C   0  0  0  0  0  0  0  0  0  0  0  0
  192.3820  175.6710  148.3740 O   0  0  0  0  0  0  0  0  0  0  0  0
  191.7790  175.7460  143.7740 O   0  0  0  0  0  0  0  0  0  0  0  0
  192.1500  175.7700  146.0640 N   0  0  0  0  0  2  0  0  0  0  0  0
  191.8150  176.2120  147.3870 C   0  0  0  0  0  0  0  0  0  0  0  0
  190.7330  177.2190  147.6280 C   0  0  0  0  0  2  0  0  0  0  0  0
  189.3660  176.5730  147.5310 C   0  0  0  0  0  1  0  0  0  0  0  0
  1  3  1  1  0  0  0
  2  4  2  0  0  0  0
  3 18  1  0  0  0  0
  4 10  1  0  0  0  0
  4  1  1  0  0  0  0
  5 17  2  0  0  0  0
  5  2  1  0  0  0  0
  6 19  1  0  0  0  0
  7  2  1  0  0  0  0
  7 14  1  1  0  0  0
  8 19  1  0  0  0  0
  8  9  1  0  0  0  0
  9 11  1  0  0  0  0
  9 16  2  0  0  0  0
 10 13  2  0  0  0  0
 11  5  1  0  0  0  0
 12 10  1  0  0  0  0
 13 18  1  0  0  0  0
 14 15  1  0  0  0  0
 15 23  1  6  0  0  0
 15  1  1  0  0  0  0
 16  7  1  0  0  0  0
 17 12  1  0  0  0  0
 19 20  2  0  0  0  0
 20 16  1  0  0  0  0
 21 17  1  0  0  0  0
 22 21  1  0  0  0  0
 23 24  1  0  0  0  0
 24 25  1  0  0  0  0
 25 26  1  0  0  0  0
 26 29  1  0  0  0  0
 28 26  2  0  0  0  0
 29 30  1  0  0  0  0
 30 31  1  0  0  0  0
 30 27  2  0  0  0  0
 32 31  1  0  0  0  0
M  END
>  <MODEL>
1

>  <REMARK>
 VINA RESULT:      -8.1      0.000      0.000
  Name = 
  6 active torsions:
  status: ('A' for Active; 'I' for Inactive)
    1  A    between atoms: C_3  and  C_22
    2  A    between atoms: O_13  and  C_29
    3  A    between atoms: C_15  and  C_26
    4  A    between atoms: C_16  and  C_23
    5  A    between atoms: C_16  and  C_27
    6  A    between atoms: C_22  and  C_23
                            x       y       z     vdW  Elec       q    Type
                         _______ _______ _______ _____ _____    ______ ____

>  <TORSDO>
F 6

$$$$
=
 OpenBabel10272402123D

 32 36  0  0  1  0  0  0  0  0999 V2000
  188.2880  177.2910  141.9640 C   0  0  1  0  0  3  0  0  0  0  0  0
  188.9190  177.7390  139.5800 C   0  0  0  0  0  0  0  0  0  0  0  0
  187.4320  178.0050  143.0110 C   0  0  0  0  0  2  0  0  0  0  0  0
  188.0110  177.8210  140.5720 C   0  0  0  0  0  0  0  0  0  0  0  0
  188.5500  178.1480  138.1800 C   0  0  0  0  0  0  0  0  0  0  0  0
  193.1500  173.9570  137.2090 C   0  0  0  0  0  1  0  0  0  0  0  0
  190.3570  177.3190  139.8680 C   0  0  1  0  0  3  0  0  0  0  0  0
  191.3670  175.9390  136.3090 S   0  0  0  0  0  0  0  0  0  0  0  0
  190.5590  176.9170  137.4070 C   0  0  0  0  0  0  0  0  0  0  0  0
  186.6740  178.3670  140.2700 C   0  0  0  0  0  0  0  0  0  0  0  0
  189.5950  178.0180  137.0930 C   0  0  0  0  0  2  0  0  0  0  0  0
  186.4020  178.8170  138.9790 O   0  0  0  0  0  0  0  0  0  0  0  0
  185.7400  178.4610  141.2210 C   0  0  0  0  0  3  0  0  0  0  0  0
  190.5450  176.5760  141.1980 C   0  0  0  0  0  2  0  0  0  0  0  0
  189.7760  177.2620  142.3240 C   0  0  1  0  0  3  0  0  0  0  0  0
  190.9250  176.5710  138.6960 C   0  0  0  0  0  0  0  0  0  0  0  0
  187.3170  178.6670  137.9290 C   0  0  0  0  0  0  0  0  0  0  0  0
  185.9600  177.9250  142.6100 C   0  0  0  0  0  2  0  0  0  0  0  0
  192.1900  175.0580  137.4870 C   0  0  0  0  0  0  0  0  0  0  0  0
  191.8550  175.5210  138.7530 C   0  0  0  0  0  3  0  0  0  0  0  0
  186.8830  179.0890  136.6590 O   0  0  0  0  0  0  0  0  0  0  0  0
  186.6370  178.2370  135.5470 C   0  0  0  0  0  1  0  0  0  0  0  0
  190.3370  178.6510  142.6330 C   0  0  0  0  0  2  0  0  0  0  0  0
  191.0520  178.6390  143.9710 C   0  0  0  0  0  2  0  0  0  0  0  0
  190.0640  178.3900  145.1000 C   0  0  0  0  0  2  0  0  0  0  0  0
  190.5510  177.3170  146.0280 C   0  0  0  0  0  0  0  0  0  0  0  0
  188.0590  177.1720  148.7070 O   0  0  0  0  0  0  0  0  0  0  0  0
  191.5940  176.6690  145.7440 O   0  0  0  0  0  0  0  0  0  0  0  0
  189.8540  177.0080  147.2410 N   0  0  0  0  0  2  0  0  0  0  0  0
  188.4760  177.2880  147.5240 C   0  0  0  0  0  0  0  0  0  0  0  0
  187.4990  177.6070  146.4340 C   0  0  0  0  0  2  0  0  0  0  0  0
  186.3470  178.4340  146.9690 C   0  0  0  0  0  1  0  0  0  0  0  0
  1 15  1  0  0  0  0
  1  3  1  1  0  0  0
  2  7  1  0  0  0  0
  2  4  2  0  0  0  0
  4  1  1  0  0  0  0
  5  2  1  0  0  0  0
  6 19  1  0  0  0  0
  7 14  1  1  0  0  0
  8  9  1  0  0  0  0
  8 19  1  0  0  0  0
  9 16  2  0  0  0  0
 10  4  1  0  0  0  0
 10 13  2  0  0  0  0
 11  9  1  0  0  0  0
 11  5  1  0  0  0  0
 12 10  1  0  0  0  0
 13 18  1  0  0  0  0
 14 15  1  0  0  0  0
 15 23  1  6  0  0  0
 16 20  1  0  0  0  0
 16  7  1  0  0  0  0
 17  5  2  0  0  0  0
 17 12  1  0  0  0  0
 18  3  1  0  0  0  0
 19 20  2  0  0  0  0
 21 17  1  0  0  0  0
 22 21  1  0  0  0  0
 23 24  1  0  0  0  0
 24 25  1  0  0  0  0
 25 26  1  0  0  0  0
 26 29  1  0  0  0  0
 28 26  2  0  0  0  0
 29 30  1  0  0  0  0
 30 27  2  0  0  0  0
 31 32  1  0  0  0  0
 31 30  1  0  0  0  0
M  END
>  <MODEL>
2

>  <REMARK>
 VINA RESULT:      -7.6      2.196      2.975
  Name = 
  6 active torsions:
  status: ('A' for Active; 'I' for Inactive)
    1  A    between atoms: C_3  and  C_22
    2  A    between atoms: O_13  and  C_29
    3  A    between atoms: C_15  and  C_26
    4  A    between atoms: C_16  and  C_23
    5  A    between atoms: C_16  and  C_27
    6  A    between atoms: C_22  and  C_23
                            x       y       z     vdW  Elec       q    Type
                         _______ _______ _______ _____ _____    ______ ____

>  <TORSDO>
F 6

$$$$
=
 OpenBabel10272402123D

 32 36  0  0  1  0  0  0  0  0999 V2000
  186.2440  179.2290  145.5000 C   0  0  1  0  0  3  0  0  0  0  0  0
  187.8470  177.6570  144.3860 C   0  0  0  0  0  0  0  0  0  0  0  0
  185.5420  179.2790  146.8580 C   0  0  0  0  0  2  0  0  0  0  0  0
  187.3960  178.2450  145.5110 C   0  0  0  0  0  0  0  0  0  0  0  0
  189.0820  176.7990  144.4230 C   0  0  0  0  0  0  0  0  0  0  0  0
  189.0110  178.8280  138.4620 C   0  0  0  0  0  1  0  0  0  0  0  0
  187.0730  177.7740  143.0760 C   0  0  1  0  0  3  0  0  0  0  0  0
  190.0160  177.1850  140.5120 S   0  0  0  0  0  0  0  0  0  0  0  0
  189.1760  177.0160  141.9550 C   0  0  0  0  0  0  0  0  0  0  0  0
  188.1000  177.9870  146.7810 C   0  0  0  0  0  0  0  0  0  0  0  0
  189.5650  176.1760  143.1310 C   0  0  0  0  0  2  0  0  0  0  0  0
  189.1880  177.1140  146.7870 O   0  0  0  0  0  0  0  0  0  0  0  0
  187.6920  178.5530  147.9210 C   0  0  0  0  0  3  0  0  0  0  0  0
  186.0730  178.9390  143.0340 C   0  0  0  0  0  2  0  0  0  0  0  0
  185.2740  179.0250  144.3320 C   0  0  1  0  0  3  0  0  0  0  0  0
  188.0190  177.7730  141.9100 C   0  0  0  0  0  0  0  0  0  0  0  0
  189.7040  176.5580  145.6090 C   0  0  0  0  0  0  0  0  0  0  0  0
  186.5700  179.5560  147.9550 C   0  0  0  0  0  2  0  0  0  0  0  0
  188.8990  178.2410  139.8230 C   0  0  0  0  0  0  0  0  0  0  0  0
  187.8480  178.4680  140.7030 C   0  0  0  0  0  3  0  0  0  0  0  0
  190.8550  175.7620  145.7490 O   0  0  0  0  0  0  0  0  0  0  0  0
  191.9230  176.0080  146.6540 C   0  0  0  0  0  1  0  0  0  0  0  0
  184.3650  177.8100  144.5230 C   0  0  0  0  0  2  0  0  0  0  0  0
  182.9230  178.2550  144.6700 C   0  0  0  0  0  2  0  0  0  0  0  0
  182.5360  179.1900  143.5340 C   0  0  0  0  0  2  0  0  0  0  0  0
  181.1580  178.8900  143.0220 C   0  0  0  0  0  0  0  0  0  0  0  0
  181.4600  178.9610  139.3740 O   0  0  0  0  0  0  0  0  0  0  0  0
  180.2290  178.6350  143.8360 O   0  0  0  0  0  0  0  0  0  0  0  0
  180.8680  178.8870  141.6190 N   0  0  0  0  0  2  0  0  0  0  0  0
  181.8160  178.7110  140.5570 C   0  0  0  0  0  0  0  0  0  0  0  0
  183.1760  178.1360  140.8050 C   0  0  0  0  0  2  0  0  0  0  0  0
  184.2140  178.8160  139.9330 C   0  0  0  0  0  1  0  0  0  0  0  0
  1  4  1  0  0  0  0
  1  3  1  1  0  0  0
  2  5  1  0  0  0  0
  2  4  2  0  0  0  0
  3 18  1  0  0  0  0
  4 10  1  0  0  0  0
  5 17  2  0  0  0  0
  6 19  1  0  0  0  0
  7 14  1  1  0  0  0
  7  2  1  0  0  0  0
  8  9  1  0  0  0  0
  9 11  1  0  0  0  0
 10 12  1  0  0  0  0
 10 13  2  0  0  0  0
 11  5  1  0  0  0  0
 13 18  1  0  0  0  0
 14 15  1  0  0  0  0
 15 23  1  1  0  0  0
 15  1  1  0  0  0  0
 16  9  2  0  0  0  0
 16  7  1  0  0  0  0
 17 21  1  0  0  0  0
 17 12  1  0  0  0  0
 19  8  1  0  0  0  0
 19 20  2  0  0  0  0
 20 16  1  0  0  0  0
 21 22  1  0  0  0  0
 23 24  1  0  0  0  0
 25 24  1  0  0  0  0
 26 25  1  0  0  0  0
 26 28  2  0  0  0  0
 27 30  2  0  0  0  0
 29 26  1  0  0  0  0
 30 31  1  0  0  0  0
 30 29  1  0  0  0  0
 32 31  1  0  0  0  0
M  END
>  <MODEL>
3

>  <REMARK>
 VINA RESULT:      -7.4      3.144      7.578
  Name = 
  6 active torsions:
  status: ('A' for Active; 'I' for Inactive)
    1  A    between atoms: C_3  and  C_22
    2  A    between atoms: O_13  and  C_29
    3  A    between atoms: C_15  and  C_26
    4  A    between atoms: C_16  and  C_23
    5  A    between atoms: C_16  and  C_27
    6  A    between atoms: C_22  and  C_23
                            x       y       z     vdW  Elec       q    Type
                         _______ _______ _______ _____ _____    ______ ____

>  <TORSDO>
F 6

$$$$
=
 OpenBabel10272402123D

 32 36  0  0  1  0  0  0  0  0999 V2000
  188.5190  176.6900  142.4180 C   0  0  1  0  0  3  0  0  0  0  0  0
  187.1420  177.9990  144.0520 C   0  0  0  0  0  0  0  0  0  0  0  0
  190.0130  176.4130  142.2350 C   0  0  0  0  0  2  0  0  0  0  0  0
  188.2250  177.2400  143.7980 C   0  0  0  0  0  0  0  0  0  0  0  0
  186.8140  178.4040  145.4630 C   0  0  0  0  0  0  0  0  0  0  0  0
  181.1700  178.5010  142.6710 C   0  0  0  0  0  1  0  0  0  0  0  0
  186.2790  178.5370  142.9140 C   0  0  1  0  0  3  0  0  0  0  0  0
  182.8730  179.0360  144.8460 S   0  0  0  0  0  0  0  0  0  0  0  0
  184.5390  178.9700  144.6570 C   0  0  0  0  0  0  0  0  0  0  0  0
  189.1080  176.8620  144.9180 C   0  0  0  0  0  0  0  0  0  0  0  0
  185.5740  179.2390  145.7030 C   0  0  0  0  0  2  0  0  0  0  0  0
  188.8170  177.3310  146.1990 O   0  0  0  0  0  0  0  0  0  0  0  0
  190.1900  176.1050  144.7150 C   0  0  0  0  0  3  0  0  0  0  0  0
  186.4490  177.7900  141.5830 C   0  0  0  0  0  2  0  0  0  0  0  0
  187.9220  177.5280  141.2840 C   0  0  1  0  0  3  0  0  0  0  0  0
  184.8450  178.6370  143.3500 C   0  0  0  0  0  0  0  0  0  0  0  0
  187.6530  178.0600  146.4780 C   0  0  0  0  0  0  0  0  0  0  0  0
  190.5080  175.5150  143.3670 C   0  0  0  0  0  2  0  0  0  0  0  0
  182.5350  178.6280  143.2460 C   0  0  0  0  0  0  0  0  0  0  0  0
  183.7160  178.4460  142.5390 C   0  0  0  0  0  3  0  0  0  0  0  0
  187.4400  178.4010  147.8260 O   0  0  0  0  0  0  0  0  0  0  0  0
  188.2840  178.0370  148.9120 C   0  0  0  0  0  1  0  0  0  0  0  0
  188.6930  178.8270  141.0400 C   0  0  0  0  0  2  0  0  0  0  0  0
  189.3560  178.7910  139.6760 C   0  0  0  0  0  2  0  0  0  0  0  0
  188.4710  178.0690  138.6720 C   0  0  0  0  0  2  0  0  0  0  0  0
  188.2990  178.8720  137.4160 C   0  0  0  0  0  0  0  0  0  0  0  0
  185.6280  177.1830  135.5660 O   0  0  0  0  0  0  0  0  0  0  0  0
  188.9840  179.9140  137.2400 O   0  0  0  0  0  0  0  0  0  0  0  0
  187.3660  178.4770  136.4020 N   0  0  0  0  0  2  0  0  0  0  0  0
  186.2230  177.6300  136.5830 C   0  0  0  0  0  0  0  0  0  0  0  0
  185.6560  177.3540  137.9410 C   0  0  0  0  0  2  0  0  0  0  0  0
  184.6390  178.4110  138.3230 C   0  0  0  0  0  1  0  0  0  0  0  0
  1  3  1  6  0  0  0
  1  4  1  0  0  0  0
  2  5  1  0  0  0  0
  3 18  1  0  0  0  0
  4  2  2  0  0  0  0
  4 10  1  0  0  0  0
  5 11  1  0  0  0  0
  5 17  2  0  0  0  0
  6 19  1  0  0  0  0
  7 14  1  6  0  0  0
  7 16  1  0  0  0  0
  7  2  1  0  0  0  0
  9  8  1  0  0  0  0
  9 11  1  0  0  0  0
 10 12  1  0  0  0  0
 12 17  1  0  0  0  0
 13 10  2  0  0  0  0
 15 23  1  1  0  0  0
 15 14  1  0  0  0  0
 15  1  1  0  0  0  0
 16  9  2  0  0  0  0
 17 21  1  0  0  0  0
 18 13  1  0  0  0  0
 19  8  1  0  0  0  0
 20 19  2  0  0  0  0
 20 16  1  0  0  0  0
 21 22  1  0  0  0  0
 24 23  1  0  0  0  0
 25 24  1  0  0  0  0
 26 25  1  0  0  0  0
 27 30  2  0  0  0  0
 28 26  2  0  0  0  0
 29 30  1  0  0  0  0
 29 26  1  0  0  0  0
 30 31  1  0  0  0  0
 31 32  1  0  0  0  0
M  END
>  <MODEL>
4

>  <REMARK>
 VINA RESULT:      -7.4      3.625      7.647
  Name = 
  6 active torsions:
  status: ('A' for Active; 'I' for Inactive)
    1  A    between atoms: C_3  and  C_22
    2  A    between atoms: O_13  and  C_29
    3  A    between atoms: C_15  and  C_26
    4  A    between atoms: C_16  and  C_23
    5  A    between atoms: C_16  and  C_27
    6  A    between atoms: C_22  and  C_23
                            x       y       z     vdW  Elec       q    Type
                         _______ _______ _______ _____ _____    ______ ____

>  <TORSDO>
F 6

$$$$
=
 OpenBabel10272402123D

 32 36  0  0  1  0  0  0  0  0999 V2000
  188.4620  176.7580  142.2620 C   0  0  1  0  0  3  0  0  0  0  0  0
  187.0680  178.0290  143.9120 C   0  0  0  0  0  0  0  0  0  0  0  0
  189.9570  176.4780  142.0920 C   0  0  0  0  0  2  0  0  0  0  0  0
  188.1510  177.2710  143.6530 C   0  0  0  0  0  0  0  0  0  0  0  0
  186.7220  178.3970  145.3290 C   0  0  0  0  0  0  0  0  0  0  0  0
  181.1180  178.5970  142.4620 C   0  0  0  0  0  1  0  0  0  0  0  0
  186.2240  178.6020  142.7770 C   0  0  1  0  0  3  0  0  0  0  0  0
  182.7930  179.0650  144.6750 S   0  0  0  0  0  0  0  0  0  0  0  0
  184.4610  178.9960  144.5070 C   0  0  0  0  0  0  0  0  0  0  0  0
  189.0160  176.8590  144.7740 C   0  0  0  0  0  0  0  0  0  0  0  0
  185.4830  179.2310  145.5750 C   0  0  0  0  0  2  0  0  0  0  0  0
  188.7090  177.2950  146.0630 O   0  0  0  0  0  0  0  0  0  0  0  0
  190.0980  176.1020  144.5660 C   0  0  0  0  0  3  0  0  0  0  0  0
  186.4090  177.8900  141.4290 C   0  0  0  0  0  2  0  0  0  0  0  0
  187.8850  177.6300  141.1430 C   0  0  1  0  0  3  0  0  0  0  0  0
  184.7840  178.6970  143.1960 C   0  0  0  0  0  0  0  0  0  0  0  0
  187.5450  178.0210  146.3460 C   0  0  0  0  0  0  0  0  0  0  0  0
  190.4320  175.5470  143.2060 C   0  0  0  0  0  2  0  0  0  0  0  0
  182.4750  178.7020  143.0600 C   0  0  0  0  0  0  0  0  0  0  0  0
  183.6660  178.5340  142.3640 C   0  0  0  0  0  3  0  0  0  0  0  0
  187.3150  178.3260  147.7000 O   0  0  0  0  0  0  0  0  0  0  0  0
  188.1950  178.0210  148.7740 C   0  0  0  0  0  1  0  0  0  0  0  0
  188.6650  178.9300  140.9450 C   0  0  0  0  0  2  0  0  0  0  0  0
  189.1980  179.0080  139.5270 C   0  0  0  0  0  2  0  0  0  0  0  0
  188.8030  177.7680  138.7410 C   0  0  0  0  0  2  0  0  0  0  0  0
  188.2860  178.1240  137.3780 C   0  0  0  0  0  0  0  0  0  0  0  0
  190.4520  176.3260  135.0370 O   0  0  0  0  0  0  0  0  0  0  0  0
  187.2680  178.8580  137.2670 O   0  0  0  0  0  0  0  0  0  0  0  0
  188.9270  177.6460  136.1900 N   0  0  0  0  0  2  0  0  0  0  0  0
  189.7760  176.4940  136.0870 C   0  0  0  0  0  0  0  0  0  0  0  0
  189.7960  175.4360  137.1460 C   0  0  0  0  0  2  0  0  0  0  0  0
  191.2130  175.1640  137.6090 C   0  0  0  0  0  1  0  0  0  0  0  0
  1  3  1  6  0  0  0
  1  4  1  0  0  0  0
  2  5  1  0  0  0  0
  3 18  1  0  0  0  0
  4  2  2  0  0  0  0
  4 10  1  0  0  0  0
  5 11  1  0  0  0  0
  5 17  2  0  0  0  0
  6 19  1  0  0  0  0
  7 14  1  6  0  0  0
  7 16  1  0  0  0  0
  7  2  1  0  0  0  0
  9  8  1  0  0  0  0
  9 11  1  0  0  0  0
 10 12  1  0  0  0  0
 12 17  1  0  0  0  0
 13 10  2  0  0  0  0
 15 23  1  1  0  0  0
 15 14  1  0  0  0  0
 15  1  1  0  0  0  0
 16  9  2  0  0  0  0
 17 21  1  0  0  0  0
 18 13  1  0  0  0  0
 19  8  1  0  0  0  0
 20 19  2  0  0  0  0
 20 16  1  0  0  0  0
 21 22  1  0  0  0  0
 24 23  1  0  0  0  0
 25 24  1  0  0  0  0
 26 25  1  0  0  0  0
 27 30  2  0  0  0  0
 28 26  2  0  0  0  0
 29 26  1  0  0  0  0
 30 29  1  0  0  0  0
 30 31  1  0  0  0  0
 31 32  1  0  0  0  0
M  END
>  <MODEL>
5

>  <REMARK>
 VINA RESULT:      -7.2      3.605      7.452
  Name = 
  6 active torsions:
  status: ('A' for Active; 'I' for Inactive)
    1  A    between atoms: C_3  and  C_22
    2  A    between atoms: O_13  and  C_29
    3  A    between atoms: C_15  and  C_26
    4  A    between atoms: C_16  and  C_23
    5  A    between atoms: C_16  and  C_27
    6  A    between atoms: C_22  and  C_23
                            x       y       z     vdW  Elec       q    Type
                         _______ _______ _______ _____ _____    ______ ____

>  <TORSDO>
F 6

$$$$
=
 OpenBabel10272402123D

 32 36  0  0  1  0  0  0  0  0999 V2000
  188.6090  176.6450  142.4380 C   0  0  1  0  0  3  0  0  0  0  0  0
  187.2030  177.9760  144.0300 C   0  0  0  0  0  0  0  0  0  0  0  0
  190.1050  176.3620  142.2870 C   0  0  0  0  0  2  0  0  0  0  0  0
  188.2900  177.2120  143.8060 C   0  0  0  0  0  0  0  0  0  0  0  0
  186.8490  178.3980  145.4290 C   0  0  0  0  0  0  0  0  0  0  0  0
  181.2600  178.4760  142.5270 C   0  0  0  0  0  1  0  0  0  0  0  0
  186.3640  178.5030  142.8690 C   0  0  1  0  0  3  0  0  0  0  0  0
  182.9220  179.0320  144.7290 S   0  0  0  0  0  0  0  0  0  0  0  0
  184.5910  178.9600  144.5730 C   0  0  0  0  0  0  0  0  0  0  0  0
  189.1490  176.8450  144.9460 C   0  0  0  0  0  0  0  0  0  0  0  0
  185.6070  179.2390  145.6360 C   0  0  0  0  0  2  0  0  0  0  0  0
  188.8350  177.3300  146.2160 O   0  0  0  0  0  0  0  0  0  0  0  0
  190.2330  176.0830  144.7740 C   0  0  0  0  0  3  0  0  0  0  0  0
  186.5580  177.7400  141.5510 C   0  0  0  0  0  2  0  0  0  0  0  0
  188.0360  177.4720  141.2830 C   0  0  1  0  0  3  0  0  0  0  0  0
  184.9220  178.6110  143.2760 C   0  0  0  0  0  0  0  0  0  0  0  0
  187.6670  178.0640  146.4640 C   0  0  0  0  0  0  0  0  0  0  0  0
  190.5760  175.4770  143.4390 C   0  0  0  0  0  2  0  0  0  0  0  0
  182.6140  178.6060  143.1270 C   0  0  0  0  0  0  0  0  0  0  0  0
  183.8090  178.4130  142.4450 C   0  0  0  0  0  3  0  0  0  0  0  0
  187.4300  178.4210  147.8040 O   0  0  0  0  0  0  0  0  0  0  0  0
  188.2320  178.0380  148.9140 C   0  0  0  0  0  1  0  0  0  0  0  0
  188.8140  178.7650  141.0380 C   0  0  0  0  0  2  0  0  0  0  0  0
  189.3570  178.7880  139.6220 C   0  0  0  0  0  2  0  0  0  0  0  0
  189.2200  177.4180  138.9770 C   0  0  0  0  0  2  0  0  0  0  0  0
  190.5470  176.7270  138.8710 C   0  0  0  0  0  0  0  0  0  0  0  0
  189.8340  173.5460  137.2030 O   0  0  0  0  0  0  0  0  0  0  0  0
  191.5900  177.3070  139.2770 O   0  0  0  0  0  0  0  0  0  0  0  0
  190.6600  175.4110  138.3160 N   0  0  0  0  0  2  0  0  0  0  0  0
  189.7260  174.7820  137.4270 C   0  0  0  0  0  0  0  0  0  0  0  0
  188.7000  175.5730  136.6760 C   0  0  0  0  0  2  0  0  0  0  0  0
  187.3050  175.0610  136.9710 C   0  0  0  0  0  1  0  0  0  0  0  0
  1  3  1  6  0  0  0
  1  4  1  0  0  0  0
  2  5  1  0  0  0  0
  3 18  1  0  0  0  0
  4  2  2  0  0  0  0
  4 10  1  0  0  0  0
  5 11  1  0  0  0  0
  5 17  2  0  0  0  0
  6 19  1  0  0  0  0
  7 14  1  6  0  0  0
  7 16  1  0  0  0  0
  7  2  1  0  0  0  0
  9  8  1  0  0  0  0
  9 11  1  0  0  0  0
 10 12  1  0  0  0  0
 12 17  1  0  0  0  0
 13 10  2  0  0  0  0
 15 23  1  1  0  0  0
 15 14  1  0  0  0  0
 15  1  1  0  0  0  0
 16  9  2  0  0  0  0
 17 21  1  0  0  0  0
 18 13  1  0  0  0  0
 19  8  1  0  0  0  0
 20 19  2  0  0  0  0
 20 16  1  0  0  0  0
 21 22  1  0  0  0  0
 24 23  1  0  0  0  0
 25 24  1  0  0  0  0
 26 25  1  0  0  0  0
 26 28  2  0  0  0  0
 27 30  2  0  0  0  0
 29 26  1  0  0  0  0
 30 29  1  0  0  0  0
 31 32  1  0  0  0  0
 31 30  1  0  0  0  0
M  END
>  <MODEL>
6

>  <REMARK>
 VINA RESULT:      -7.2      3.467      7.073
  Name = 
  6 active torsions:
  status: ('A' for Active; 'I' for Inactive)
    1  A    between atoms: C_3  and  C_22
    2  A    between atoms: O_13  and  C_29
    3  A    between atoms: C_15  and  C_26
    4  A    between atoms: C_16  and  C_23
    5  A    between atoms: C_16  and  C_27
    6  A    between atoms: C_22  and  C_23
                            x       y       z     vdW  Elec       q    Type
                         _______ _______ _______ _____ _____    ______ ____

>  <TORSDO>
F 6

$$$$
=
 OpenBabel10272402123D

 32 36  0  0  1  0  0  0  0  0999 V2000
  184.1410  178.0100  141.9970 C   0  0  1  0  0  3  0  0  0  0  0  0
  186.3720  178.2960  140.8920 C   0  0  0  0  0  0  0  0  0  0  0  0
  182.7720  178.6800  141.8660 C   0  0  0  0  0  2  0  0  0  0  0  0
  185.0280  178.3320  140.8120 C   0  0  0  0  0  0  0  0  0  0  0  0
  187.2090  178.4840  139.6560 C   0  0  0  0  0  0  0  0  0  0  0  0
  190.9750  175.0380  143.3450 C   0  0  0  0  0  1  0  0  0  0  0  0
  187.0730  178.1550  142.2400 C   0  0  1  0  0  3  0  0  0  0  0  0
  190.4930  176.5870  141.0460 S   0  0  0  0  0  0  0  0  0  0  0  0
  189.1100  177.5290  140.9310 C   0  0  0  0  0  0  0  0  0  0  0  0
  184.3990  178.6120  139.5070 C   0  0  0  0  0  0  0  0  0  0  0  0
  188.7160  178.4140  139.7900 C   0  0  0  0  0  2  0  0  0  0  0  0
  185.2130  178.8680  138.4040 O   0  0  0  0  0  0  0  0  0  0  0  0
  183.0700  178.6520  139.3790 C   0  0  0  0  0  3  0  0  0  0  0  0
  186.1810  177.6020  143.3610 C   0  0  0  0  0  2  0  0  0  0  0  0
  184.8080  178.2680  143.3510 C   0  0  1  0  0  3  0  0  0  0  0  0
  188.3550  177.3900  142.0820 C   0  0  0  0  0  0  0  0  0  0  0  0
  186.6090  178.7600  138.4670 C   0  0  0  0  0  0  0  0  0  0  0  0
  182.1490  178.3130  140.5210 C   0  0  0  0  0  2  0  0  0  0  0  0
  190.1260  175.9870  142.5780 C   0  0  0  0  0  0  0  0  0  0  0  0
  188.9260  176.5220  143.0260 C   0  0  0  0  0  3  0  0  0  0  0  0
  187.3040  178.9640  137.2610 O   0  0  0  0  0  0  0  0  0  0  0  0
  187.2650  178.1010  136.1310 C   0  0  0  0  0  1  0  0  0  0  0  0
  184.8940  179.7560  143.6930 C   0  0  0  0  0  2  0  0  0  0  0  0
  185.0970  179.9380  145.1860 C   0  0  0  0  0  2  0  0  0  0  0  0
  185.9760  178.8290  145.7420 C   0  0  0  0  0  2  0  0  0  0  0  0
  186.2120  179.0020  147.2130 C   0  0  0  0  0  0  0  0  0  0  0  0
  188.7560  176.5110  148.0690 O   0  0  0  0  0  0  0  0  0  0  0  0
  185.6070  179.9110  147.8420 O   0  0  0  0  0  0  0  0  0  0  0  0
  187.1160  178.1510  147.9280 N   0  0  0  0  0  2  0  0  0  0  0  0
  188.1930  177.3890  147.3630 C   0  0  0  0  0  0  0  0  0  0  0  0
  188.7330  177.6860  145.9980 C   0  0  0  0  0  2  0  0  0  0  0  0
  190.2440  177.5780  145.9820 C   0  0  0  0  0  1  0  0  0  0  0  0
  1  3  1  6  0  0  0
  1 15  1  0  0  0  0
  2  7  1  0  0  0  0
  4  2  2  0  0  0  0
  4  1  1  0  0  0  0
  5 11  1  0  0  0  0
  5  2  1  0  0  0  0
  7 14  1  1  0  0  0
  8 19  1  0  0  0  0
  9  8  1  0  0  0  0
  9 16  2  0  0  0  0
 10  4  1  0  0  0  0
 11  9  1  0  0  0  0
 12 17  1  0  0  0  0
 12 10  1  0  0  0  0
 13 10  2  0  0  0  0
 13 18  1  0  0  0  0
 15 14  1  0  0  0  0
 15 23  1  6  0  0  0
 16  7  1  0  0  0  0
 16 20  1  0  0  0  0
 17  5  2  0  0  0  0
 18  3  1  0  0  0  0
 19 20  2  0  0  0  0
 19  6  1  0  0  0  0
 21 17  1  0  0  0  0
 22 21  1  0  0  0  0
 23 24  1  0  0  0  0
 24 25  1  0  0  0  0
 25 26  1  0  0  0  0
 26 28  2  0  0  0  0
 26 29  1  0  0  0  0
 30 29  1  0  0  0  0
 30 27  2  0  0  0  0
 31 30  1  0  0  0  0
 32 31  1  0  0  0  0
M  END
>  <MODEL>
7

>  <REMARK>
 VINA RESULT:      -7.1      2.501      4.659
  Name = 
  6 active torsions:
  status: ('A' for Active; 'I' for Inactive)
    1  A    between atoms: C_3  and  C_22
    2  A    between atoms: O_13  and  C_29
    3  A    between atoms: C_15  and  C_26
    4  A    between atoms: C_16  and  C_23
    5  A    between atoms: C_16  and  C_27
    6  A    between atoms: C_22  and  C_23
                            x       y       z     vdW  Elec       q    Type
                         _______ _______ _______ _____ _____    ______ ____

>  <TORSDO>
F 6

$$$$
=
 OpenBabel10272402123D

 32 36  0  0  1  0  0  0  0  0999 V2000
  187.1030  178.7900  141.1960 C   0  0  1  0  0  3  0  0  0  0  0  0
  184.8770  177.9740  140.3850 C   0  0  0  0  0  0  0  0  0  0  0  0
  188.5610  178.4220  140.9150 C   0  0  0  0  0  2  0  0  0  0  0  0
  186.1780  178.2220  140.1400 C   0  0  0  0  0  0  0  0  0  0  0  0
  183.9640  177.5460  139.2690 C   0  0  0  0  0  0  0  0  0  0  0  0
  179.9870  180.2960  143.3040 C   0  0  0  0  0  1  0  0  0  0  0  0
  184.3230  178.0330  141.8050 C   0  0  1  0  0  3  0  0  0  0  0  0
  180.5270  178.7670  141.0050 S   0  0  0  0  0  0  0  0  0  0  0  0
  182.0600  178.1380  140.7430 C   0  0  0  0  0  0  0  0  0  0  0  0
  186.6970  178.0150  138.7750 C   0  0  0  0  0  0  0  0  0  0  0  0
  182.5040  177.2990  139.5860 C   0  0  0  0  0  2  0  0  0  0  0  0
  185.8370  177.5330  137.7890 O   0  0  0  0  0  0  0  0  0  0  0  0
  187.9790  178.2540  138.4830 C   0  0  0  0  0  3  0  0  0  0  0  0
  185.1950  178.8220  142.7930 C   0  0  0  0  0  2  0  0  0  0  0  0
  186.6700  178.4660  142.6290 C   0  0  1  0  0  3  0  0  0  0  0  0
  182.8940  178.4960  141.7880 C   0  0  0  0  0  0  0  0  0  0  0  0
  184.4690  177.3420  138.0220 C   0  0  0  0  0  0  0  0  0  0  0  0
  188.9290  178.8420  139.4930 C   0  0  0  0  0  2  0  0  0  0  0  0
  180.9280  179.5120  142.4620 C   0  0  0  0  0  0  0  0  0  0  0  0
  182.2600  179.2710  142.7720 C   0  0  0  0  0  3  0  0  0  0  0  0
  183.7000  176.9310  136.9170 O   0  0  0  0  0  0  0  0  0  0  0  0
  183.4050  175.5840  136.5730 C   0  0  0  0  0  1  0  0  0  0  0  0
  186.9520  177.0140  143.0190 C   0  0  0  0  0  2  0  0  0  0  0  0
  187.1810  176.9110  144.5150 C   0  0  0  0  0  2  0  0  0  0  0  0
  188.1830  177.9590  144.9740 C   0  0  0  0  0  2  0  0  0  0  0  0
  188.6890  177.6660  146.3550 C   0  0  0  0  0  0  0  0  0  0  0  0
  191.9800  176.1400  145.8580 O   0  0  0  0  0  0  0  0  0  0  0  0
  188.0050  178.0030  147.3580 O   0  0  0  0  0  0  0  0  0  0  0  0
  189.9440  177.0060  146.5640 N   0  0  0  0  0  2  0  0  0  0  0  0
  191.0360  176.9440  145.6360 C   0  0  0  0  0  0  0  0  0  0  0  0
  191.1350  177.8850  144.4750 C   0  0  0  0  0  2  0  0  0  0  0  0
  191.3570  177.1240  143.1840 C   0  0  0  0  0  1  0  0  0  0  0  0
  1  3  1  6  0  0  0
  1 15  1  0  0  0  0
  2  7  1  0  0  0  0
  4  2  2  0  0  0  0
  4  1  1  0  0  0  0
  5 11  1  0  0  0  0
  5  2  1  0  0  0  0
  7 14  1  1  0  0  0
  8 19  1  0  0  0  0
  9  8  1  0  0  0  0
  9 16  2  0  0  0  0
 10  4  1  0  0  0  0
 11  9  1  0  0  0  0
 12 17  1  0  0  0  0
 12 10  1  0  0  0  0
 13 10  2  0  0  0  0
 13 18  1  0  0  0  0
 15 14  1  0  0  0  0
 15 23  1  6  0  0  0
 16  7  1  0  0  0  0
 16 20  1  0  0  0  0
 17  5  2  0  0  0  0
 18  3  1  0  0  0  0
 19 20  2  0  0  0  0
 19  6  1  0  0  0  0
 21 17  1  0  0  0  0
 22 21  1  0  0  0  0
 23 24  1  0  0  0  0
 24 25  1  0  0  0  0
 25 26  1  0  0  0  0
 26 29  1  0  0  0  0
 26 28  2  0  0  0  0
 30 27  2  0  0  0  0
 30 29  1  0  0  0  0
 31 30  1  0  0  0  0
 32 31  1  0  0  0  0
M  END
>  <MODEL>
8

>  <REMARK>
 VINA RESULT:      -7.0      2.780      5.336
  Name = 
  6 active torsions:
  status: ('A' for Active; 'I' for Inactive)
    1  A    between atoms: C_3  and  C_22
    2  A    between atoms: O_13  and  C_29
    3  A    between atoms: C_15  and  C_26
    4  A    between atoms: C_16  and  C_23
    5  A    between atoms: C_16  and  C_27
    6  A    between atoms: C_22  and  C_23
                            x       y       z     vdW  Elec       q    Type
                         _______ _______ _______ _____ _____    ______ ____

>  <TORSDO>
F 6

$$$$
=
 OpenBabel10272402123D

 32 36  0  0  1  0  0  0  0  0999 V2000
  190.5450  175.8570  143.6640 C   0  0  1  0  0  3  0  0  0  0  0  0
  189.0600  177.3950  144.9720 C   0  0  0  0  0  0  0  0  0  0  0  0
  192.0250  175.4720  143.7190 C   0  0  0  0  0  2  0  0  0  0  0  0
  190.1080  176.5490  144.9380 C   0  0  0  0  0  0  0  0  0  0  0  0
  188.5740  177.9480  146.2840 C   0  0  0  0  0  0  0  0  0  0  0  0
  183.3840  178.1360  142.7210 C   0  0  0  0  0  1  0  0  0  0  0  0
  188.4020  177.8770  143.6830 C   0  0  1  0  0  3  0  0  0  0  0  0
  184.8110  178.7630  145.0640 S   0  0  0  0  0  0  0  0  0  0  0  0
  186.4780  178.5770  145.1190 C   0  0  0  0  0  0  0  0  0  0  0  0
  190.8000  176.2230  146.1990 C   0  0  0  0  0  0  0  0  0  0  0  0
  187.3790  178.8770  146.2760 C   0  0  0  0  0  2  0  0  0  0  0  0
  190.3730  176.8260  147.3820 O   0  0  0  0  0  0  0  0  0  0  0  0
  191.8400  175.3850  146.2160 C   0  0  0  0  0  3  0  0  0  0  0  0
  188.6950  177.0010  142.4560 C   0  0  0  0  0  2  0  0  0  0  0  0
  190.1720  176.6220  142.3910 C   0  0  1  0  0  3  0  0  0  0  0  0
  186.9340  178.1060  143.9010 C   0  0  0  0  0  0  0  0  0  0  0  0
  189.2400  177.6480  147.4320 C   0  0  0  0  0  0  0  0  0  0  0  0
  192.2940  174.6540  144.9800 C   0  0  0  0  0  2  0  0  0  0  0  0
  184.6640  178.2310  143.4720 C   0  0  0  0  0  0  0  0  0  0  0  0
  185.9140  177.9110  142.9560 C   0  0  0  0  0  3  0  0  0  0  0  0
  188.8720  178.1250  148.7040 O   0  0  0  0  0  0  0  0  0  0  0  0
  187.6730  177.7950  149.3930 C   0  0  0  0  0  1  0  0  0  0  0  0
  191.0620  177.8420  142.1520 C   0  0  0  0  0  2  0  0  0  0  0  0
  191.9680  177.6010  140.9580 C   0  0  0  0  0  2  0  0  0  0  0  0
  191.2350  176.8100  139.8860 C   0  0  0  0  0  2  0  0  0  0  0  0
  192.0460  176.7120  138.6270 C   0  0  0  0  0  0  0  0  0  0  0  0
  189.5870  176.3980  135.9330 O   0  0  0  0  0  0  0  0  0  0  0  0
  193.3020  176.7990  138.6830 O   0  0  0  0  0  0  0  0  0  0  0  0
  191.4210  176.5200  137.3520 N   0  0  0  0  0  2  0  0  0  0  0  0
  190.0620  176.8310  137.0160 C   0  0  0  0  0  0  0  0  0  0  0  0
  189.2330  177.7450  137.8650 C   0  0  0  0  0  2  0  0  0  0  0  0
  189.0200  179.0760  137.1720 C   0  0  0  0  0  1  0  0  0  0  0  0
  1  3  1  1  0  0  0
  1  4  1  0  0  0  0
  2  5  1  0  0  0  0
  3 18  1  0  0  0  0
  4  2  2  0  0  0  0
  4 10  1  0  0  0  0
  5 17  2  0  0  0  0
  6 19  1  0  0  0  0
  7 14  1  6  0  0  0
  7 16  1  0  0  0  0
  7  2  1  0  0  0  0
  8  9  1  0  0  0  0
  9 11  1  0  0  0  0
 10 13  2  0  0  0  0
 10 12  1  0  0  0  0
 11  5  1  0  0  0  0
 12 17  1  0  0  0  0
 15 23  1  1  0  0  0
 15 14  1  0  0  0  0
 15  1  1  0  0  0  0
 16  9  2  0  0  0  0
 17 21  1  0  0  0  0
 18 13  1  0  0  0  0
 19  8  1  0  0  0  0
 20 19  2  0  0  0  0
 20 16  1  0  0  0  0
 21 22  1  0  0  0  0
 24 23  1  0  0  0  0
 25 24  1  0  0  0  0
 26 28  2  0  0  0  0
 26 25  1  0  0  0  0
 27 30  2  0  0  0  0
 29 26  1  0  0  0  0
 30 29  1  0  0  0  0
 30 31  1  0  0  0  0
 32 31  1  0  0  0  0
M  END
>  <MODEL>
9

>  <REMARK>
 VINA RESULT:      -7.0      3.500      7.360
  Name = 
  6 active torsions:
  status: ('A' for Active; 'I' for Inactive)
    1  A    between atoms: C_3  and  C_22
    2  A    between atoms: O_13  and  C_29
    3  A    between atoms: C_15  and  C_26
    4  A    between atoms: C_16  and  C_23
    5  A    between atoms: C_16  and  C_27
    6  A    between atoms: C_22  and  C_23
                            x       y       z     vdW  Elec       q    Type
                         _______ _______ _______ _____ _____    ______ ____

>  <TORSDO>
F 6

$$$$
