=
 OpenBabel10272414593D

 37 44  0  0  1  0  0  0  0  0999 V2000
  191.3740  175.2990  136.1720 O   0  0  0  0  0  0  0  0  0  0  0  0
  186.7290  178.6810  136.6160 C   0  0  0  0  0  2  0  0  0  0  0  0
  189.6110  177.6760  139.9420 C   0  0  1  0  0  3  0  0  0  0  0  0
  191.6260  173.9520  135.8230 C   0  0  0  0  0  0  0  0  0  0  0  0
  193.0930  177.5070  139.0380 C   0  0  0  0  0  2  0  0  0  0  0  0
  187.4260  178.3400  138.9770 C   0  0  2  0  0  3  0  0  0  0  0  0
  190.7210  176.7030  139.6170 C   0  0  2  0  0  3  0  0  0  0  0  0
  191.6730  173.6570  134.3460 C   0  0  0  0  0  2  0  0  0  0  0  0
  188.5140  177.2680  138.9860 C   0  0  1  0  0  3  0  0  0  0  0  0
  192.0890  177.1730  140.1420 C   0  0  0  0  0  2  0  0  0  0  0  0
  186.8020  178.3580  140.3750 C   0  0  0  0  0  2  0  0  0  0  0  0
  192.4550  173.1420  136.6450 O   0  0  0  0  0  0  0  0  0  0  0  0
  189.1880  176.8070  137.6890 C   0  0  2  0  0  0  0  0  0  0  0  0
  189.1160  177.8390  136.5570 C   0  0  0  0  0  2  0  0  0  0  0  0
  190.4680  173.2300  135.1820 C   0  0  0  0  0  2  0  0  0  0  0  0
  187.8650  178.6050  141.4590 C   0  0  0  0  0  2  0  0  0  0  0  0
  188.6130  175.5950  137.2880 O   0  0  0  0  0  1  0  0  0  0  0  0
  193.4100  173.9530  137.3050 C   0  0  2  0  0  3  0  0  0  0  0  0
  193.6760  176.2730  138.3370 C   0  0  0  0  0  2  0  0  0  0  0  0
  189.0380  177.6130  141.3600 C   0  0  2  0  0  3  0  0  0  0  0  0
  190.6590  176.6090  138.0900 C   0  0  2  0  0  3  0  0  0  0  0  0
  186.3530  178.0450  137.9450 C   0  0  0  0  0  2  0  0  0  0  0  0
  187.7580  177.8520  135.8590 C   0  0  0  0  0  2  0  0  0  0  0  0
  192.7390  175.0580  138.1530 C   0  0  1  0  0  3  0  0  0  0  0  0
  191.3360  175.3370  137.5730 C   0  0  2  0  0  3  0  0  0  0  0  0
  194.3260  174.4720  136.3800 O   0  0  0  0  0  0  0  0  0  0  0  0
  195.3160  173.6040  136.3690 O   0  0  0  0  0  1  0  0  0  0  0  0
  190.0880  177.9860  142.3930 C   0  0  0  0  0  2  0  0  0  0  0  0
  191.6080  175.9270  145.1330 C   0  0  0  0  0  2  0  0  0  0  0  0
  189.8870  177.8220  144.8520 C   0  0  1  0  0  3  0  0  0  0  0  0
  189.1330  176.9890  145.8850 C   0  0  0  0  0  2  0  0  0  0  0  0
  189.1100  177.5970  148.1820 O   0  0  0  0  0  0  0  0  0  0  0  0
  191.1620  176.6710  147.4840 C   0  0  0  0  0  3  0  0  0  0  0  0
  189.7750  177.1100  147.2320 C   0  0  0  0  0  0  0  0  0  0  0  0
  191.2460  177.2400  144.4410 C   0  0  2  0  0  3  0  0  0  0  0  0
  191.9860  176.1550  146.5650 C   0  0  0  0  0  3  0  0  0  0  0  0
  190.0250  177.0310  143.5670 C   0  0  2  0  0  3  0  0  0  0  0  0
  1 25  1  0  0  0  0
  2 22  1  0  0  0  0
  3 20  1  0  0  0  0
  4  1  1  0  0  0  0
  4 12  1  0  0  0  0
  5 10  1  0  0  0  0
  6  9  1  0  0  0  0
  6 11  1  0  0  0  0
  7  3  1  0  0  0  0
  7 10  1  0  0  0  0
  8 15  1  0  0  0  0
  8  4  1  0  0  0  0
  9  3  1  0  0  0  0
 11 16  1  0  0  0  0
 12 18  1  0  0  0  0
 13 21  1  0  0  0  0
 13  9  1  0  0  0  0
 14 13  1  0  0  0  0
 15  4  1  0  0  0  0
 17 13  1  0  0  0  0
 18 24  1  0  0  0  0
 19  5  1  0  0  0  0
 20 16  1  0  0  0  0
 20 28  1  0  0  0  0
 21  7  1  0  0  0  0
 22  6  1  0  0  0  0
 23 14  1  0  0  0  0
 23  2  1  0  0  0  0
 24 19  1  0  0  0  0
 25 21  1  0  0  0  0
 25 24  1  0  0  0  0
 26 18  1  0  0  0  0
 27 26  1  0  0  0  0
 28 37  1  0  0  0  0
 29 36  1  0  0  0  0
 30 31  1  0  0  0  0
 31 34  1  0  0  0  0
 34 33  1  0  0  0  0
 34 32  2  0  0  0  0
 35 30  1  0  0  0  0
 35 29  1  0  0  0  0
 36 33  2  0  0  0  0
 37 35  1  0  0  0  0
 37 30  1  0  0  0  0
M  END
>  <MODEL>
1

>  <REMARK>
 VINA RESULT:      -9.2      0.000      0.000
  Name = 
  3 active torsions:
  status: ('A' for Active; 'I' for Inactive)
    1  A    between atoms: O_11  and  C_26
    2  A    between atoms: C_22  and  C_28
    3  A    between atoms: C_22  and  C_37
                            x       y       z     vdW  Elec       q    Type
                         _______ _______ _______ _____ _____    ______ ____

>  <TORSDO>
F 3

$$$$
=
 OpenBabel10272414593D

 37 44  0  0  1  0  0  0  0  0999 V2000
  182.1960  177.5130  137.7400 O   0  0  0  0  0  0  0  0  0  0  0  0
  179.9970  180.1340  142.3770 C   0  0  0  0  0  2  0  0  0  0  0  0
  184.2040  178.5490  141.9670 C   0  0  1  0  0  3  0  0  0  0  0  0
  181.9040  176.3500  136.9900 C   0  0  0  0  0  0  0  0  0  0  0  0
  185.7730  179.0030  138.7570 C   0  0  0  0  0  2  0  0  0  0  0  0
  182.1600  179.2240  143.1960 C   0  0  2  0  0  3  0  0  0  0  0  0
  184.5420  177.8260  140.6830 C   0  0  2  0  0  3  0  0  0  0  0  0
  180.7910  176.4840  135.9830 C   0  0  0  0  0  2  0  0  0  0  0  0
  182.7180  178.3120  142.1050 C   0  0  1  0  0  3  0  0  0  0  0  0
  185.8930  178.2720  140.0940 C   0  0  0  0  0  2  0  0  0  0  0  0
  182.7980  178.7880  144.5180 C   0  0  0  0  0  2  0  0  0  0  0  0
  182.9370  175.4340  136.6550 O   0  0  0  0  0  0  0  0  0  0  0  0
  182.1230  178.3030  140.6930 C   0  0  2  0  0  0  0  0  0  0  0  0
  181.3840  179.5960  140.3280 C   0  0  0  0  0  2  0  0  0  0  0  0
  180.5660  175.7180  137.2850 C   0  0  0  0  0  2  0  0  0  0  0  0
  184.3330  178.8320  144.4400 C   0  0  0  0  0  2  0  0  0  0  0  0
  181.2730  177.1970  140.5680 O   0  0  0  0  0  1  0  0  0  0  0  0
  184.1690  176.1250  136.5480 C   0  0  2  0  0  3  0  0  0  0  0  0
  185.4500  178.0810  137.5740 C   0  0  0  0  0  2  0  0  0  0  0  0
  184.8780  178.0340  143.2410 C   0  0  2  0  0  3  0  0  0  0  0  0
  183.3510  178.1550  139.7790 C   0  0  2  0  0  3  0  0  0  0  0  0
  180.6500  179.1180  143.3000 C   0  0  0  0  0  2  0  0  0  0  0  0
  179.9820  179.6600  140.9290 C   0  0  0  0  0  2  0  0  0  0  0  0
  184.5250  176.8730  137.8520 C   0  0  1  0  0  3  0  0  0  0  0  0
  183.2210  177.1560  138.6280 C   0  0  2  0  0  3  0  0  0  0  0  0
  184.1530  176.9730  135.4320 O   0  0  0  0  0  0  0  0  0  0  0  0
  185.0110  176.4340  134.5910 O   0  0  0  0  0  1  0  0  0  0  0  0
  186.3850  178.2130  143.1740 C   0  0  0  0  0  2  0  0  0  0  0  0
  189.3690  176.7650  144.9220 C   0  0  0  0  0  2  0  0  0  0  0  0
  187.2830  178.1670  145.4780 C   0  0  1  0  0  3  0  0  0  0  0  0
  187.2620  177.2460  146.6960 C   0  0  0  0  0  2  0  0  0  0  0  0
  188.0560  177.9800  148.8110 O   0  0  0  0  0  0  0  0  0  0  0  0
  189.7840  177.5330  147.2720 C   0  0  0  0  0  3  0  0  0  0  0  0
  188.3590  177.6060  147.6480 C   0  0  0  0  0  0  0  0  0  0  0  0
  188.4400  177.9050  144.5060 C   0  0  2  0  0  3  0  0  0  0  0  0
  190.2450  177.1710  146.0690 C   0  0  0  0  0  3  0  0  0  0  0  0
  187.0580  177.3500  144.2220 C   0  0  2  0  0  3  0  0  0  0  0  0
  1 25  1  0  0  0  0
  2 22  1  0  0  0  0
  3  9  1  0  0  0  0
  3 20  1  0  0  0  0
  4 15  1  0  0  0  0
  4  1  1  0  0  0  0
  5 10  1  0  0  0  0
  6 22  1  0  0  0  0
  6 11  1  0  0  0  0
  7  3  1  0  0  0  0
  8  4  1  0  0  0  0
  8 15  1  0  0  0  0
  9  6  1  0  0  0  0
 10  7  1  0  0  0  0
 12  4  1  0  0  0  0
 13  9  1  0  0  0  0
 14 13  1  0  0  0  0
 14 23  1  0  0  0  0
 16 11  1  0  0  0  0
 17 13  1  0  0  0  0
 18 12  1  0  0  0  0
 18 24  1  0  0  0  0
 19 24  1  0  0  0  0
 19  5  1  0  0  0  0
 20 16  1  0  0  0  0
 21  7  1  0  0  0  0
 21 13  1  0  0  0  0
 23  2  1  0  0  0  0
 24 25  1  0  0  0  0
 25 21  1  0  0  0  0
 26 18  1  0  0  0  0
 27 26  1  0  0  0  0
 28 20  1  0  0  0  0
 28 37  1  0  0  0  0
 29 36  1  0  0  0  0
 30 31  1  0  0  0  0
 31 34  1  0  0  0  0
 33 34  1  0  0  0  0
 34 32  2  0  0  0  0
 35 29  1  0  0  0  0
 35 30  1  0  0  0  0
 36 33  2  0  0  0  0
 37 35  1  0  0  0  0
 37 30  1  0  0  0  0
M  END
>  <MODEL>
2

>  <REMARK>
 VINA RESULT:      -8.7      5.241      7.263
  Name = 
  3 active torsions:
  status: ('A' for Active; 'I' for Inactive)
    1  A    between atoms: O_11  and  C_26
    2  A    between atoms: C_22  and  C_28
    3  A    between atoms: C_22  and  C_37
                            x       y       z     vdW  Elec       q    Type
                         _______ _______ _______ _____ _____    ______ ____

>  <TORSDO>
F 3

$$$$
=
 OpenBabel10272414593D

 37 44  0  0  1  0  0  0  0  0999 V2000
  188.8090  175.7810  136.1170 O   0  0  0  0  0  0  0  0  0  0  0  0
  183.5370  177.5540  134.6110 C   0  0  0  0  0  2  0  0  0  0  0  0
  185.4700  178.1020  138.6540 C   0  0  1  0  0  3  0  0  0  0  0  0
  189.4880  174.5420  136.1880 C   0  0  0  0  0  0  0  0  0  0  0  0
  188.9860  178.8810  138.6480 C   0  0  0  0  0  2  0  0  0  0  0  0
  183.5720  177.8670  137.0760 C   0  0  2  0  0  3  0  0  0  0  0  0
  186.8360  177.4850  138.8500 C   0  0  2  0  0  3  0  0  0  0  0  0
  190.0410  174.0250  134.8850 C   0  0  0  0  0  2  0  0  0  0  0  0
  184.8460  177.2090  137.6060 C   0  0  1  0  0  3  0  0  0  0  0  0
  187.8220  178.4460  139.5390 C   0  0  0  0  0  2  0  0  0  0  0  0
  182.5810  177.9310  138.2420 C   0  0  0  0  0  2  0  0  0  0  0  0
  190.2170  174.1900  137.3550 O   0  0  0  0  0  0  0  0  0  0  0  0
  185.9650  176.7660  136.6590 C   0  0  2  0  0  0  0  0  0  0  0  0
  185.9680  177.5090  135.3170 C   0  0  0  0  0  2  0  0  0  0  0  0
  188.7950  173.3930  135.5010 C   0  0  0  0  0  2  0  0  0  0  0  0
  183.1780  178.6840  139.4430 C   0  0  0  0  0  2  0  0  0  0  0  0
  185.8630  175.3840  136.4560 O   0  0  0  0  0  1  0  0  0  0  0  0
  190.6950  175.3620  137.9900 C   0  0  2  0  0  3  0  0  0  0  0  0
  190.0440  177.7910  138.4350 C   0  0  0  0  0  2  0  0  0  0  0  0
  184.5410  178.1090  139.8710 C   0  0  2  0  0  3  0  0  0  0  0  0
  187.2520  177.1130  137.4240 C   0  0  2  0  0  3  0  0  0  0  0  0
  182.9630  177.0740  135.9350 C   0  0  0  0  0  2  0  0  0  0  0  0
  184.9190  176.9720  134.3460 C   0  0  0  0  0  2  0  0  0  0  0  0
  189.5450  176.3300  138.3540 C   0  0  1  0  0  3  0  0  0  0  0  0
  188.3530  176.0490  137.4150 C   0  0  2  0  0  3  0  0  0  0  0  0
  191.6790  175.9740  137.2010 O   0  0  0  0  0  0  0  0  0  0  0  0
  192.8190  175.5370  137.6930 O   0  0  0  0  0  1  0  0  0  0  0  0
  185.1090  178.9670  140.9880 C   0  0  0  0  0  2  0  0  0  0  0  0
  186.8800  177.0350  143.6680 C   0  0  0  0  0  2  0  0  0  0  0  0
  185.3830  179.1170  143.4420 C   0  0  1  0  0  3  0  0  0  0  0  0
  184.7530  178.5270  144.7010 C   0  0  0  0  0  2  0  0  0  0  0  0
  185.2620  179.3910  146.8550 O   0  0  0  0  0  0  0  0  0  0  0  0
  187.0050  178.1000  145.9330 C   0  0  0  0  0  3  0  0  0  0  0  0
  185.6610  178.7060  145.8780 C   0  0  0  0  0  0  0  0  0  0  0  0
  186.5520  178.2990  142.8760 C   0  0  2  0  0  3  0  0  0  0  0  0
  187.5610  177.3670  144.9620 C   0  0  0  0  0  3  0  0  0  0  0  0
  185.1650  178.1720  142.2770 C   0  0  2  0  0  3  0  0  0  0  0  0
  1  4  1  0  0  0  0
  1 25  1  0  0  0  0
  2 22  1  0  0  0  0
  3  7  1  0  0  0  0
  3 20  1  0  0  0  0
  4 12  1  0  0  0  0
  5 10  1  0  0  0  0
  6  9  1  0  0  0  0
  6 11  1  0  0  0  0
  7 10  1  0  0  0  0
  8 15  1  0  0  0  0
  8  4  1  0  0  0  0
  9  3  1  0  0  0  0
 11 16  1  0  0  0  0
 12 18  1  0  0  0  0
 13 21  1  0  0  0  0
 13  9  1  0  0  0  0
 14 13  1  0  0  0  0
 15  4  1  0  0  0  0
 16 20  1  0  0  0  0
 17 13  1  0  0  0  0
 18 24  1  0  0  0  0
 19  5  1  0  0  0  0
 20 28  1  0  0  0  0
 21  7  1  0  0  0  0
 22  6  1  0  0  0  0
 23  2  1  0  0  0  0
 23 14  1  0  0  0  0
 24 19  1  0  0  0  0
 25 21  1  0  0  0  0
 25 24  1  0  0  0  0
 26 27  1  0  0  0  0
 26 18  1  0  0  0  0
 28 37  1  0  0  0  0
 29 36  1  0  0  0  0
 30 31  1  0  0  0  0
 31 34  1  0  0  0  0
 34 33  1  0  0  0  0
 34 32  2  0  0  0  0
 35 30  1  0  0  0  0
 35 29  1  0  0  0  0
 36 33  2  0  0  0  0
 37 35  1  0  0  0  0
 37 30  1  0  0  0  0
M  END
>  <MODEL>
3

>  <REMARK>
 VINA RESULT:      -8.7      2.573      4.021
  Name = 
  3 active torsions:
  status: ('A' for Active; 'I' for Inactive)
    1  A    between atoms: O_11  and  C_26
    2  A    between atoms: C_22  and  C_28
    3  A    between atoms: C_22  and  C_37
                            x       y       z     vdW  Elec       q    Type
                         _______ _______ _______ _____ _____    ______ ____

>  <TORSDO>
F 3

$$$$
=
 OpenBabel10272414593D

 37 44  0  0  1  0  0  0  0  0999 V2000
  182.0940  178.0140  137.5790 O   0  0  0  0  0  0  0  0  0  0  0  0
  185.6940  173.8190  135.9500 C   0  0  0  0  0  2  0  0  0  0  0  0
  186.7360  177.3440  138.5700 C   0  0  1  0  0  3  0  0  0  0  0  0
  181.3050  178.9910  136.9290 C   0  0  0  0  0  0  0  0  0  0  0  0
  184.2300  178.3560  140.9510 C   0  0  0  0  0  2  0  0  0  0  0  0
  187.2010  175.5160  136.9620 C   0  0  2  0  0  3  0  0  0  0  0  0
  185.6490  178.3670  138.8070 C   0  0  2  0  0  3  0  0  0  0  0  0
  179.9820  178.5110  136.3910 C   0  0  0  0  0  2  0  0  0  0  0  0
  186.3720  176.7730  137.2190 C   0  0  1  0  0  3  0  0  0  0  0  0
  185.5400  178.7800  140.2850 C   0  0  0  0  0  2  0  0  0  0  0  0
  188.6660  175.9530  136.8720 C   0  0  0  0  0  2  0  0  0  0  0  0
  181.3470  180.3460  137.3550 O   0  0  0  0  0  0  0  0  0  0  0  0
  184.8430  176.7500  137.1290 C   0  0  2  0  0  0  0  0  0  0  0  0
  184.2340  175.3570  137.3330 C   0  0  0  0  0  2  0  0  0  0  0  0
  181.1430  178.7980  135.4430 C   0  0  0  0  0  2  0  0  0  0  0  0
  189.1050  176.7000  138.1420 C   0  0  0  0  0  2  0  0  0  0  0  0
  184.4550  177.2810  135.8930 O   0  0  0  0  0  1  0  0  0  0  0  0
  181.6490  180.4010  138.7380 C   0  0  2  0  0  3  0  0  0  0  0  0
  183.0200  179.1970  140.5250 C   0  0  0  0  0  2  0  0  0  0  0  0
  188.1690  177.8740  138.4800 C   0  0  2  0  0  3  0  0  0  0  0  0
  184.3940  177.6640  138.2820 C   0  0  2  0  0  3  0  0  0  0  0  0
  186.7960  174.8290  135.6710 C   0  0  0  0  0  2  0  0  0  0  0  0
  184.3310  174.4860  136.0830 C   0  0  0  0  0  2  0  0  0  0  0  0
  182.9880  179.7000  139.0640 C   0  0  1  0  0  3  0  0  0  0  0  0
  183.2790  178.6600  137.9600 C   0  0  2  0  0  3  0  0  0  0  0  0
  180.5820  179.8880  139.4880 O   0  0  0  0  0  0  0  0  0  0  0  0
  180.0010  180.9490  140.0090 O   0  0  0  0  0  1  0  0  0  0  0  0
  188.6080  178.4920  139.7970 C   0  0  0  0  0  2  0  0  0  0  0  0
  190.4000  176.4500  142.3810 C   0  0  0  0  0  2  0  0  0  0  0  0
  188.3870  178.0470  142.2200 C   0  0  1  0  0  3  0  0  0  0  0  0
  187.7640  176.9980  143.1380 C   0  0  0  0  0  2  0  0  0  0  0  0
  187.5900  177.3570  145.4800 O   0  0  0  0  0  0  0  0  0  0  0  0
  189.7840  176.8660  144.7750 C   0  0  0  0  0  3  0  0  0  0  0  0
  188.3490  177.0880  144.5130 C   0  0  0  0  0  0  0  0  0  0  0  0
  189.8340  177.7470  141.8060 C   0  0  2  0  0  3  0  0  0  0  0  0
  190.7040  176.5920  143.8420 C   0  0  0  0  0  3  0  0  0  0  0  0
  188.6840  177.4250  140.8710 C   0  0  2  0  0  3  0  0  0  0  0  0
  1 25  1  0  0  0  0
  2 23  1  0  0  0  0
  3  7  1  0  0  0  0
  4 12  1  0  0  0  0
  4  1  1  0  0  0  0
  6  9  1  0  0  0  0
  7 10  1  0  0  0  0
  8  4  1  0  0  0  0
  9  3  1  0  0  0  0
 10  5  1  0  0  0  0
 11  6  1  0  0  0  0
 11 16  1  0  0  0  0
 12 18  1  0  0  0  0
 13  9  1  0  0  0  0
 13 14  1  0  0  0  0
 13 21  1  0  0  0  0
 15  8  1  0  0  0  0
 15  4  1  0  0  0  0
 16 20  1  0  0  0  0
 17 13  1  0  0  0  0
 18 24  1  0  0  0  0
 18 26  1  0  0  0  0
 19  5  1  0  0  0  0
 20  3  1  0  0  0  0
 20 28  1  0  0  0  0
 21  7  1  0  0  0  0
 22  2  1  0  0  0  0
 22  6  1  0  0  0  0
 23 14  1  0  0  0  0
 24 19  1  0  0  0  0
 25 21  1  0  0  0  0
 25 24  1  0  0  0  0
 26 27  1  0  0  0  0
 28 37  1  0  0  0  0
 29 36  1  0  0  0  0
 30 31  1  0  0  0  0
 31 34  1  0  0  0  0
 34 33  1  0  0  0  0
 34 32  2  0  0  0  0
 35 30  1  0  0  0  0
 35 29  1  0  0  0  0
 36 33  2  0  0  0  0
 37 35  1  0  0  0  0
 37 30  1  0  0  0  0
M  END
>  <MODEL>
4

>  <REMARK>
 VINA RESULT:      -8.3      4.139      7.751
  Name = 
  3 active torsions:
  status: ('A' for Active; 'I' for Inactive)
    1  A    between atoms: O_11  and  C_26
    2  A    between atoms: C_22  and  C_28
    3  A    between atoms: C_22  and  C_37
                            x       y       z     vdW  Elec       q    Type
                         _______ _______ _______ _____ _____    ______ ____

>  <TORSDO>
F 3

$$$$
=
 OpenBabel10272414593D

 37 44  0  0  1  0  0  0  0  0999 V2000
  187.1600  174.2950  135.9030 O   0  0  0  0  0  0  0  0  0  0  0  0
  181.4300  174.0500  136.4720 C   0  0  0  0  0  2  0  0  0  0  0  0
  184.1330  177.2460  138.1620 C   0  0  1  0  0  3  0  0  0  0  0  0
  188.2560  173.4720  136.2510 C   0  0  0  0  0  0  0  0  0  0  0  0
  186.8730  178.2880  136.0700 C   0  0  0  0  0  2  0  0  0  0  0  0
  182.0950  175.8380  138.0640 C   0  0  2  0  0  3  0  0  0  0  0  0
  185.6190  177.0680  137.9540 C   0  0  2  0  0  3  0  0  0  0  0  0
  188.5390  172.3280  135.3120 C   0  0  0  0  0  2  0  0  0  0  0  0
  183.6200  175.8250  138.1610 C   0  0  1  0  0  3  0  0  0  0  0  0
  186.3090  178.3630  137.4890 C   0  0  0  0  0  2  0  0  0  0  0  0
  181.5690  176.4920  139.3450 C   0  0  0  0  0  2  0  0  0  0  0  0
  189.3850  174.0240  136.9140 O   0  0  0  0  0  0  0  0  0  0  0  0
  184.4730  175.0320  137.1660 C   0  0  2  0  0  0  0  0  0  0  0  0
  183.7730  174.7640  135.8290 C   0  0  0  0  0  2  0  0  0  0  0  0
  187.8950  172.0700  136.6720 C   0  0  0  0  0  2  0  0  0  0  0  0
  182.1590  177.8980  139.5380 C   0  0  0  0  0  2  0  0  0  0  0  0
  184.8650  173.8290  137.7660 O   0  0  0  0  0  1  0  0  0  0  0  0
  189.5340  175.3850  136.5480 C   0  0  2  0  0  3  0  0  0  0  0  0
  188.1530  177.4490  135.9570 C   0  0  0  0  0  2  0  0  0  0  0  0
  183.6980  177.8960  139.4780 C   0  0  2  0  0  3  0  0  0  0  0  0
  185.6890  175.9410  136.9200 C   0  0  2  0  0  3  0  0  0  0  0  0
  181.5270  174.4360  137.9390 C   0  0  0  0  0  2  0  0  0  0  0  0
  182.7760  173.6110  135.9090 C   0  0  0  0  0  2  0  0  0  0  0  0
  188.2690  176.2110  136.8750 C   0  0  1  0  0  3  0  0  0  0  0  0
  187.0570  175.2560  136.9190 C   0  0  2  0  0  3  0  0  0  0  0  0
  189.9050  175.4860  135.2000 O   0  0  0  0  0  0  0  0  0  0  0  0
  191.1790  175.8130  135.2290 O   0  0  0  0  0  1  0  0  0  0  0  0
  184.1970  179.3280  139.5720 C   0  0  0  0  0  2  0  0  0  0  0  0
  184.7170  179.4490  143.2830 C   0  0  0  0  0  2  0  0  0  0  0  0
  185.6050  178.1630  141.2380 C   0  0  1  0  0  3  0  0  0  0  0  0
  186.9330  178.3730  141.9610 C   0  0  0  0  0  2  0  0  0  0  0  0
  187.9390  176.6310  143.2250 O   0  0  0  0  0  0  0  0  0  0  0  0
  186.0750  177.6010  144.2930 C   0  0  0  0  0  3  0  0  0  0  0  0
  187.0220  177.4910  143.1670 C   0  0  0  0  0  0  0  0  0  0  0  0
  184.3890  178.7510  141.9640 C   0  0  2  0  0  3  0  0  0  0  0  0
  185.0470  178.4550  144.3560 C   0  0  0  0  0  3  0  0  0  0  0  0
  185.0390  179.5040  140.8200 C   0  0  2  0  0  3  0  0  0  0  0  0
  1  4  1  0  0  0  0
  1 25  1  0  0  0  0
  2 22  1  0  0  0  0
  3 20  1  0  0  0  0
  4 15  1  0  0  0  0
  4 12  1  0  0  0  0
  5 10  1  0  0  0  0
  6  9  1  0  0  0  0
  6 11  1  0  0  0  0
  7  3  1  0  0  0  0
  8  4  1  0  0  0  0
  8 15  1  0  0  0  0
  9  3  1  0  0  0  0
 10  7  1  0  0  0  0
 11 16  1  0  0  0  0
 13 17  1  0  0  0  0
 13  9  1  0  0  0  0
 14 23  1  0  0  0  0
 14 13  1  0  0  0  0
 18 24  1  0  0  0  0
 18 12  1  0  0  0  0
 19  5  1  0  0  0  0
 19 24  1  0  0  0  0
 20 16  1  0  0  0  0
 20 28  1  0  0  0  0
 21 13  1  0  0  0  0
 21  7  1  0  0  0  0
 22  6  1  0  0  0  0
 23  2  1  0  0  0  0
 24 25  1  0  0  0  0
 25 21  1  0  0  0  0
 26 27  1  0  0  0  0
 26 18  1  0  0  0  0
 28 37  1  0  0  0  0
 29 36  1  0  0  0  0
 30 31  1  0  0  0  0
 30 35  1  0  0  0  0
 31 34  1  0  0  0  0
 33 36  2  0  0  0  0
 34 32  2  0  0  0  0
 34 33  1  0  0  0  0
 35 29  1  0  0  0  0
 37 30  1  0  0  0  0
 37 35  1  0  0  0  0
M  END
>  <MODEL>
5

>  <REMARK>
 VINA RESULT:      -7.5      3.457      5.598
  Name = 
  3 active torsions:
  status: ('A' for Active; 'I' for Inactive)
    1  A    between atoms: O_11  and  C_26
    2  A    between atoms: C_22  and  C_28
    3  A    between atoms: C_22  and  C_37
                            x       y       z     vdW  Elec       q    Type
                         _______ _______ _______ _____ _____    ______ ____

>  <TORSDO>
F 3

$$$$
=
 OpenBabel10272414593D

 37 44  0  0  1  0  0  0  0  0999 V2000
  189.2990  176.8840  146.4240 O   0  0  0  0  0  0  0  0  0  0  0  0
  185.3310  177.7900  142.3450 C   0  0  0  0  0  2  0  0  0  0  0  0
  189.7650  177.2770  141.6700 C   0  0  1  0  0  3  0  0  0  0  0  0
  189.7610  177.5730  147.5700 C   0  0  0  0  0  0  0  0  0  0  0  0
  191.4160  174.8200  143.7210 C   0  0  0  0  0  2  0  0  0  0  0  0
  187.4820  178.0840  141.1360 C   0  0  2  0  0  3  0  0  0  0  0  0
  190.6330  177.1270  142.8980 C   0  0  2  0  0  3  0  0  0  0  0  0
  188.9210  177.4140  148.8110 C   0  0  0  0  0  2  0  0  0  0  0  0
  188.5990  178.0930  142.1790 C   0  0  1  0  0  3  0  0  0  0  0  0
  191.6560  175.9860  142.7600 C   0  0  0  0  0  2  0  0  0  0  0  0
  188.0170  178.8120  139.9000 C   0  0  0  0  0  2  0  0  0  0  0  0
  191.1530  177.7580  147.7820 O   0  0  0  0  0  0  0  0  0  0  0  0
  188.3390  177.6630  143.6270 C   0  0  2  0  0  0  0  0  0  0  0  0
  187.1270  176.7380  143.7870 C   0  0  0  0  0  2  0  0  0  0  0  0
  188.8920  178.7200  148.0200 C   0  0  0  0  0  2  0  0  0  0  0  0
  189.3110  178.1610  139.3830 C   0  0  0  0  0  2  0  0  0  0  0  0
  188.1920  178.8080  144.4180 O   0  0  0  0  0  1  0  0  0  0  0  0
  191.8720  176.6910  147.1890 C   0  0  2  0  0  3  0  0  0  0  0  0
  191.8050  175.1250  145.1730 C   0  0  0  0  0  2  0  0  0  0  0  0
  190.3770  178.0310  140.4870 C   0  0  2  0  0  3  0  0  0  0  0  0
  189.6110  176.8900  144.0140 C   0  0  2  0  0  3  0  0  0  0  0  0
  186.2360  178.7880  141.6410 C   0  0  0  0  0  2  0  0  0  0  0  0
  185.8020  177.4960  143.7630 C   0  0  0  0  0  2  0  0  0  0  0  0
  191.5770  176.5690  145.6770 C   0  0  1  0  0  3  0  0  0  0  0  0
  190.1960  177.1990  145.3930 C   0  0  2  0  0  3  0  0  0  0  0  0
  191.6240  175.4970  147.8800 O   0  0  0  0  0  0  0  0  0  0  0  0
  192.7100  175.2940  148.5960 O   0  0  0  0  0  1  0  0  0  0  0  0
  191.5790  177.2880  139.9270 C   0  0  0  0  0  2  0  0  0  0  0  0
  192.5720  175.8900  136.5930 C   0  0  0  0  0  2  0  0  0  0  0  0
  190.8760  175.4160  138.4710 C   0  0  1  0  0  3  0  0  0  0  0  0
  189.9560  175.1790  137.2760 C   0  0  0  0  0  2  0  0  0  0  0  0
  189.4310  172.9820  136.5410 O   0  0  0  0  0  0  0  0  0  0  0  0
  191.6170  173.6560  135.9760 C   0  0  0  0  0  3  0  0  0  0  0  0
  190.2980  173.8920  136.5940 C   0  0  0  0  0  0  0  0  0  0  0  0
  192.3130  175.8040  138.0960 C   0  0  2  0  0  3  0  0  0  0  0  0
  192.6350  174.5260  135.9750 C   0  0  0  0  0  3  0  0  0  0  0  0
  191.3090  176.8680  138.4960 C   0  0  2  0  0  3  0  0  0  0  0  0
  1  4  1  0  0  0  0
  2 23  1  0  0  0  0
  3  9  1  0  0  0  0
  3  7  1  0  0  0  0
  4 12  1  0  0  0  0
  4 15  1  0  0  0  0
  4  8  1  0  0  0  0
  5 19  1  0  0  0  0
  6 22  1  0  0  0  0
  6  9  1  0  0  0  0
  7 21  1  0  0  0  0
  9 13  1  0  0  0  0
 10  7  1  0  0  0  0
 10  5  1  0  0  0  0
 11  6  1  0  0  0  0
 13 14  1  0  0  0  0
 13 21  1  0  0  0  0
 13 17  1  0  0  0  0
 15  8  1  0  0  0  0
 16 11  1  0  0  0  0
 16 20  1  0  0  0  0
 18 12  1  0  0  0  0
 18 26  1  0  0  0  0
 19 24  1  0  0  0  0
 20  3  1  0  0  0  0
 21 25  1  0  0  0  0
 22  2  1  0  0  0  0
 23 14  1  0  0  0  0
 24 18  1  0  0  0  0
 25 24  1  0  0  0  0
 25  1  1  0  0  0  0
 26 27  1  0  0  0  0
 28 20  1  0  0  0  0
 29 35  1  0  0  0  0
 30 37  1  0  0  0  0
 31 30  1  0  0  0  0
 32 34  2  0  0  0  0
 33 34  1  0  0  0  0
 34 31  1  0  0  0  0
 35 30  1  0  0  0  0
 35 37  1  0  0  0  0
 36 33  2  0  0  0  0
 36 29  1  0  0  0  0
 37 28  1  0  0  0  0
M  END
>  <MODEL>
6

>  <REMARK>
 VINA RESULT:      -6.8      2.127      8.436
  Name = 
  3 active torsions:
  status: ('A' for Active; 'I' for Inactive)
    1  A    between atoms: O_11  and  C_26
    2  A    between atoms: C_22  and  C_28
    3  A    between atoms: C_22  and  C_37
                            x       y       z     vdW  Elec       q    Type
                         _______ _______ _______ _____ _____    ______ ____

>  <TORSDO>
F 3

$$$$
=
 OpenBabel10272414593D

 37 44  0  0  1  0  0  0  0  0999 V2000
  182.8160  178.1620  142.5590 O   0  0  0  0  0  0  0  0  0  0  0  0
  182.0120  175.4330  137.5470 C   0  0  0  0  0  2  0  0  0  0  0  0
  185.6240  177.8910  138.6840 C   0  0  1  0  0  3  0  0  0  0  0  0
  182.1520  179.1760  143.2870 C   0  0  0  0  0  0  0  0  0  0  0  0
  186.7520  177.5850  142.0900 C   0  0  0  0  0  2  0  0  0  0  0  0
  184.0020  176.8590  137.1180 C   0  0  2  0  0  3  0  0  0  0  0  0
  185.5870  178.5830  140.0270 C   0  0  2  0  0  3  0  0  0  0  0  0
  180.9620  178.7280  144.0960 C   0  0  0  0  0  2  0  0  0  0  0  0
  184.1610  177.7970  138.3130 C   0  0  1  0  0  3  0  0  0  0  0  0
  186.8990  178.4130  140.8130 C   0  0  0  0  0  2  0  0  0  0  0  0
  184.7130  177.5160  135.9320 C   0  0  0  0  0  2  0  0  0  0  0  0
  182.8810  180.2760  143.8130 O   0  0  0  0  0  0  0  0  0  0  0  0
  183.3750  177.5770  139.6090 C   0  0  2  0  0  0  0  0  0  0  0  0
  182.9100  176.1300  139.8100 C   0  0  0  0  0  2  0  0  0  0  0  0
  180.7640  179.5100  142.7990 C   0  0  0  0  0  2  0  0  0  0  0  0
  186.1860  177.8120  136.2570 C   0  0  0  0  0  2  0  0  0  0  0  0
  182.2830  178.4520  139.6290 O   0  0  0  0  0  1  0  0  0  0  0  0
  184.2090  179.8730  144.0980 C   0  0  2  0  0  3  0  0  0  0  0  0
  186.0490  178.3290  143.2330 C   0  0  0  0  0  2  0  0  0  0  0  0
  186.3440  178.6290  137.5520 C   0  0  2  0  0  3  0  0  0  0  0  0
  184.3830  177.9340  140.7150 C   0  0  2  0  0  3  0  0  0  0  0  0
  182.5420  176.6300  136.7740 C   0  0  0  0  0  2  0  0  0  0  0  0
  181.6690  175.7920  138.9870 C   0  0  0  0  0  2  0  0  0  0  0  0
  184.9220  179.3140  142.8460 C   0  0  1  0  0  3  0  0  0  0  0  0
  183.8510  178.7990  141.8600 C   0  0  2  0  0  3  0  0  0  0  0  0
  184.2230  178.9700  145.1690 O   0  0  0  0  0  0  0  0  0  0  0  0
  184.9910  179.5380  146.0750 O   0  0  0  0  0  1  0  0  0  0  0  0
  187.8230  178.7890  137.8570 C   0  0  0  0  0  2  0  0  0  0  0  0
  189.5680  176.1140  135.8940 C   0  0  0  0  0  2  0  0  0  0  0  0
  190.0200  177.6540  137.9060 C   0  0  1  0  0  3  0  0  0  0  0  0
  190.6340  176.3730  138.4660 C   0  0  0  0  0  2  0  0  0  0  0  0
  192.9850  176.0320  138.4710 O   0  0  0  0  0  0  0  0  0  0  0  0
  192.0160  175.8040  136.3350 C   0  0  0  0  0  3  0  0  0  0  0  0
  191.9320  176.0690  137.7840 C   0  0  0  0  0  0  0  0  0  0  0  0
  189.4370  177.5120  136.4940 C   0  0  2  0  0  3  0  0  0  0  0  0
  190.9830  175.8290  135.4850 C   0  0  0  0  0  3  0  0  0  0  0  0
  188.5310  177.4570  137.7080 C   0  0  2  0  0  3  0  0  0  0  0  0
  1  4  1  0  0  0  0
  2 23  1  0  0  0  0
  3  7  1  0  0  0  0
  4 12  1  0  0  0  0
  4  8  1  0  0  0  0
  5 19  1  0  0  0  0
  6  9  1  0  0  0  0
  7 21  1  0  0  0  0
  7 10  1  0  0  0  0
  9  3  1  0  0  0  0
  9 13  1  0  0  0  0
 10  5  1  0  0  0  0
 11 16  1  0  0  0  0
 11  6  1  0  0  0  0
 12 18  1  0  0  0  0
 13 17  1  0  0  0  0
 13 14  1  0  0  0  0
 13 21  1  0  0  0  0
 15  4  1  0  0  0  0
 15  8  1  0  0  0  0
 16 20  1  0  0  0  0
 18 26  1  0  0  0  0
 20 28  1  0  0  0  0
 20  3  1  0  0  0  0
 21 25  1  0  0  0  0
 22  6  1  0  0  0  0
 22  2  1  0  0  0  0
 23 14  1  0  0  0  0
 24 19  1  0  0  0  0
 24 18  1  0  0  0  0
 25  1  1  0  0  0  0
 25 24  1  0  0  0  0
 26 27  1  0  0  0  0
 29 35  1  0  0  0  0
 30 31  1  0  0  0  0
 33 34  1  0  0  0  0
 34 31  1  0  0  0  0
 34 32  2  0  0  0  0
 35 37  1  0  0  0  0
 35 30  1  0  0  0  0
 36 29  1  0  0  0  0
 36 33  2  0  0  0  0
 37 28  1  0  0  0  0
 37 30  1  0  0  0  0
M  END
>  <MODEL>
7

>  <REMARK>
 VINA RESULT:      -6.6      3.951      9.166
  Name = 
  3 active torsions:
  status: ('A' for Active; 'I' for Inactive)
    1  A    between atoms: O_11  and  C_26
    2  A    between atoms: C_22  and  C_28
    3  A    between atoms: C_22  and  C_37
                            x       y       z     vdW  Elec       q    Type
                         _______ _______ _______ _____ _____    ______ ____

>  <TORSDO>
F 3

$$$$
=
 OpenBabel10272414593D

 37 44  0  0  1  0  0  0  0  0999 V2000
  188.5120  174.8590  135.7310 O   0  0  0  0  0  0  0  0  0  0  0  0
  183.5040  177.6960  136.0200 C   0  0  0  0  0  2  0  0  0  0  0  0
  186.8720  177.9410  139.0160 C   0  0  1  0  0  3  0  0  0  0  0  0
  188.9170  173.5050  135.6930 C   0  0  0  0  0  0  0  0  0  0  0  0
  190.2110  177.9290  137.6660 C   0  0  0  0  0  2  0  0  0  0  0  0
  184.5150  178.0760  138.2580 C   0  0  2  0  0  3  0  0  0  0  0  0
  188.0680  177.0470  138.7780 C   0  0  2  0  0  3  0  0  0  0  0  0
  188.8330  172.8350  134.3460 C   0  0  0  0  0  2  0  0  0  0  0  0
  185.7430  177.1730  138.3670 C   0  0  1  0  0  3  0  0  0  0  0  0
  189.4040  177.7890  138.9570 C   0  0  0  0  0  2  0  0  0  0  0  0
  184.0640  178.3960  139.6860 C   0  0  0  0  0  2  0  0  0  0  0  0
  189.9460  173.0400  136.5550 O   0  0  0  0  0  0  0  0  0  0  0  0
  186.3210  176.4630  137.1390 C   0  0  2  0  0  0  0  0  0  0  0  0
  185.9660  177.1420  135.8110 C   0  0  0  0  0  2  0  0  0  0  0  0
  187.8110  172.5140  135.4340 C   0  0  0  0  0  2  0  0  0  0  0  0
  185.1980  179.0390  140.5010 C   0  0  0  0  0  2  0  0  0  0  0  0
  185.8880  175.1310  137.1430 O   0  0  0  0  0  1  0  0  0  0  0  0
  190.8420  174.1000  136.8410 C   0  0  2  0  0  3  0  0  0  0  0  0
  190.8830  176.6260  137.2130 C   0  0  0  0  0  2  0  0  0  0  0  0
  186.4840  178.1930  140.4750 C   0  0  2  0  0  3  0  0  0  0  0  0
  187.8420  176.5440  137.3500 C   0  0  2  0  0  3  0  0  0  0  0  0
  183.3840  177.3990  137.5060 C   0  0  0  0  0  2  0  0  0  0  0  0
  184.5480  176.8160  135.3450 C   0  0  0  0  0  2  0  0  0  0  0  0
  190.1200  175.3080  137.4800 C   0  0  1  0  0  3  0  0  0  0  0  0
  188.6330  175.2650  137.0680 C   0  0  2  0  0  3  0  0  0  0  0  0
  191.5580  174.4530  135.6890 O   0  0  0  0  0  0  0  0  0  0  0  0
  192.7660  173.9700  135.8860 O   0  0  0  0  0  1  0  0  0  0  0  0
  187.5820  178.9430  141.2110 C   0  0  0  0  0  2  0  0  0  0  0  0
  189.0070  175.9170  142.9040 C   0  0  0  0  0  2  0  0  0  0  0  0
  189.4930  178.4360  142.6980 C   0  0  1  0  0  3  0  0  0  0  0  0
  189.7700  178.2790  144.1900 C   0  0  0  0  0  2  0  0  0  0  0  0
  191.9900  178.1380  145.0240 O   0  0  0  0  0  0  0  0  0  0  0  0
  191.2730  176.1680  143.9460 C   0  0  0  0  0  3  0  0  0  0  0  0
  191.0590  177.5520  144.4130 C   0  0  0  0  0  0  0  0  0  0  0  0
  189.0760  177.1400  141.9910 C   0  0  2  0  0  3  0  0  0  0  0  0
  190.3790  175.4360  143.2710 C   0  0  0  0  0  3  0  0  0  0  0  0
  188.0310  178.1500  142.4220 C   0  0  2  0  0  3  0  0  0  0  0  0
  1 25  1  0  0  0  0
  2 22  1  0  0  0  0
  3 20  1  0  0  0  0
  4  1  1  0  0  0  0
  4 12  1  0  0  0  0
  5 10  1  0  0  0  0
  6  9  1  0  0  0  0
  6 11  1  0  0  0  0
  7 10  1  0  0  0  0
  7  3  1  0  0  0  0
  8 15  1  0  0  0  0
  8  4  1  0  0  0  0
  9  3  1  0  0  0  0
 11 16  1  0  0  0  0
 12 18  1  0  0  0  0
 13 17  1  0  0  0  0
 13 21  1  0  0  0  0
 13  9  1  0  0  0  0
 14 13  1  0  0  0  0
 15  4  1  0  0  0  0
 18 24  1  0  0  0  0
 19 24  1  0  0  0  0
 19  5  1  0  0  0  0
 20 16  1  0  0  0  0
 20 28  1  0  0  0  0
 21  7  1  0  0  0  0
 22  6  1  0  0  0  0
 23 14  1  0  0  0  0
 23  2  1  0  0  0  0
 25 21  1  0  0  0  0
 25 24  1  0  0  0  0
 26 27  1  0  0  0  0
 26 18  1  0  0  0  0
 28 37  1  0  0  0  0
 29 36  1  0  0  0  0
 30 31  1  0  0  0  0
 31 34  1  0  0  0  0
 33 34  1  0  0  0  0
 34 32  2  0  0  0  0
 35 37  1  0  0  0  0
 35 30  1  0  0  0  0
 35 29  1  0  0  0  0
 36 33  2  0  0  0  0
 37 30  1  0  0  0  0
M  END
>  <MODEL>
8

>  <REMARK>
 VINA RESULT:      -6.6      1.975      2.999
  Name = 
  3 active torsions:
  status: ('A' for Active; 'I' for Inactive)
    1  A    between atoms: O_11  and  C_26
    2  A    between atoms: C_22  and  C_28
    3  A    between atoms: C_22  and  C_37
                            x       y       z     vdW  Elec       q    Type
                         _______ _______ _______ _____ _____    ______ ____

>  <TORSDO>
F 3

$$$$
=
 OpenBabel10272414593D

 37 44  0  0  1  0  0  0  0  0999 V2000
  189.2810  176.9130  146.4950 O   0  0  0  0  0  0  0  0  0  0  0  0
  185.1340  177.8370  142.6020 C   0  0  0  0  0  2  0  0  0  0  0  0
  189.5220  177.2450  141.7190 C   0  0  1  0  0  3  0  0  0  0  0  0
  189.8090  177.6070  147.6080 C   0  0  0  0  0  0  0  0  0  0  0  0
  191.2320  174.7850  143.7170 C   0  0  0  0  0  2  0  0  0  0  0  0
  187.2290  178.0830  141.2870 C   0  0  2  0  0  3  0  0  0  0  0  0
  190.4460  177.0940  142.9060 C   0  0  2  0  0  3  0  0  0  0  0  0
  189.0280  177.4760  148.8900 C   0  0  0  0  0  2  0  0  0  0  0  0
  188.3940  178.0850  142.2740 C   0  0  1  0  0  3  0  0  0  0  0  0
  191.4430  175.9350  142.7320 C   0  0  0  0  0  2  0  0  0  0  0  0
  187.7140  178.7870  140.0170 C   0  0  0  0  0  2  0  0  0  0  0  0
  191.2130  177.7730  147.7510 O   0  0  0  0  0  0  0  0  0  0  0  0
  188.1990  177.6760  143.7380 C   0  0  2  0  0  0  0  0  0  0  0  0
  186.9810  176.7720  143.9680 C   0  0  0  0  0  2  0  0  0  0  0  0
  188.9810  178.7730  148.0860 C   0  0  0  0  0  2  0  0  0  0  0  0
  188.9710  178.1100  139.4470 C   0  0  0  0  0  2  0  0  0  0  0  0
  188.1080  178.8320  144.5220 O   0  0  0  0  0  1  0  0  0  0  0  0
  191.8850  176.6870  147.1360 C   0  0  2  0  0  3  0  0  0  0  0  0
  191.6960  175.1000  145.1450 C   0  0  0  0  0  2  0  0  0  0  0  0
  190.0870  177.9760  140.4980 C   0  0  2  0  0  3  0  0  0  0  0  0
  189.4750  176.8870  144.0720 C   0  0  2  0  0  3  0  0  0  0  0  0
  186.0190  178.8120  141.8430 C   0  0  0  0  0  2  0  0  0  0  0  0
  185.6690  177.5520  143.9990 C   0  0  0  0  0  2  0  0  0  0  0  0
  191.5150  176.5530  145.6410 C   0  0  1  0  0  3  0  0  0  0  0  0
  190.1320  177.2020  145.4180 C   0  0  2  0  0  3  0  0  0  0  0  0
  191.6520  175.5050  147.8530 O   0  0  0  0  0  0  0  0  0  0  0  0
  192.7310  175.3440  148.5890 O   0  0  0  0  0  1  0  0  0  0  0  0
  191.2480  177.2070  139.8900 C   0  0  0  0  0  2  0  0  0  0  0  0
  190.2510  176.5200  136.3420 C   0  0  0  0  0  2  0  0  0  0  0  0
  191.9340  175.6570  138.0890 C   0  0  1  0  0  3  0  0  0  0  0  0
  191.5030  174.3110  137.5130 C   0  0  0  0  0  2  0  0  0  0  0  0
  192.8590  173.1490  135.9460 O   0  0  0  0  0  0  0  0  0  0  0  0
  191.7530  175.0120  135.0190 C   0  0  0  0  0  3  0  0  0  0  0  0
  192.0770  174.1140  136.1450 C   0  0  0  0  0  0  0  0  0  0  0  0
  191.2480  176.8700  137.4450 C   0  0  2  0  0  3  0  0  0  0  0  0
  190.9550  176.0830  135.0920 C   0  0  0  0  0  3  0  0  0  0  0  0
  190.7520  176.3190  138.7670 C   0  0  2  0  0  3  0  0  0  0  0  0
  1  4  1  0  0  0  0
  2 23  1  0  0  0  0
  3  9  1  0  0  0  0
  3  7  1  0  0  0  0
  4 12  1  0  0  0  0
  4 15  1  0  0  0  0
  4  8  1  0  0  0  0
  5 19  1  0  0  0  0
  6 22  1  0  0  0  0
  6  9  1  0  0  0  0
  7 21  1  0  0  0  0
  9 13  1  0  0  0  0
 10  7  1  0  0  0  0
 10  5  1  0  0  0  0
 11  6  1  0  0  0  0
 13 14  1  0  0  0  0
 13 21  1  0  0  0  0
 13 17  1  0  0  0  0
 14 23  1  0  0  0  0
 15  8  1  0  0  0  0
 16 11  1  0  0  0  0
 16 20  1  0  0  0  0
 18 12  1  0  0  0  0
 18 26  1  0  0  0  0
 19 24  1  0  0  0  0
 20  3  1  0  0  0  0
 21 25  1  0  0  0  0
 22  2  1  0  0  0  0
 24 18  1  0  0  0  0
 25 24  1  0  0  0  0
 25  1  1  0  0  0  0
 26 27  1  0  0  0  0
 28 20  1  0  0  0  0
 29 35  1  0  0  0  0
 30 37  1  0  0  0  0
 31 30  1  0  0  0  0
 32 34  2  0  0  0  0
 33 36  2  0  0  0  0
 33 34  1  0  0  0  0
 34 31  1  0  0  0  0
 35 30  1  0  0  0  0
 35 37  1  0  0  0  0
 36 29  1  0  0  0  0
 37 28  1  0  0  0  0
M  END
>  <MODEL>
9

>  <REMARK>
 VINA RESULT:      -6.5      1.861      8.618
  Name = 
  3 active torsions:
  status: ('A' for Active; 'I' for Inactive)
    1  A    between atoms: O_11  and  C_26
    2  A    between atoms: C_22  and  C_28
    3  A    between atoms: C_22  and  C_37
                            x       y       z     vdW  Elec       q    Type
                         _______ _______ _______ _____ _____    ______ ____

>  <TORSDO>
F 3

$$$$
