=
 OpenBabel10272400513D

 25 28  0  0  0  0  0  0  0  0999 V2000
  187.2480  178.0030  145.7200 N   0  0  0  0  0  0  0  0  0  0  0  0
  188.5410  177.6910  145.4160 C   0  0  0  0  0  0  0  0  0  0  0  0
  187.6890  177.9310  148.0550 C   0  0  0  0  0  3  0  0  0  0  0  0
  186.1770  178.2480  144.9440 C   0  0  0  0  0  0  0  0  0  0  0  0
  190.3180  177.2460  143.8220 C   0  0  0  0  0  0  0  0  0  0  0  0
  183.7210  178.8160  143.7900 C   0  0  0  0  0  3  0  0  0  0  0  0
  188.9850  177.6190  147.7730 N   0  0  0  0  0  0  0  0  0  0  0  0
  185.0850  178.5190  145.7380 C   0  0  0  0  0  0  0  0  0  0  0  0
  183.8370  178.8080  145.1910 C   0  0  0  0  0  3  0  0  0  0  0  0
  188.9850  177.5680  144.0960 C   0  0  0  0  0  3  0  0  0  0  0  0
  184.8400  178.5390  142.9750 C   0  0  0  0  0  3  0  0  0  0  0  0
  186.8140  178.1240  146.9930 C   0  0  0  0  0  0  0  0  0  0  0  0
  185.4610  178.4480  147.0710 C   0  0  0  0  0  3  0  0  0  0  0  0
  190.7980  177.1650  146.2160 C   0  0  0  0  0  0  0  0  0  0  0  0
  186.0890  178.2490  143.5510 C   0  0  0  0  0  3  0  0  0  0  0  0
  191.2090  177.0500  144.8830 C   0  0  0  0  0  3  0  0  0  0  0  0
  189.4460  177.4910  146.4910 C   0  0  0  0  0  0  0  0  0  0  0  0
  190.1400  176.9160  139.9730 C   0  0  0  0  0  0  0  0  0  0  0  0
  189.1130  176.8560  139.0420 O   0  0  0  0  0  0  0  0  0  0  0  0
  191.3360  176.8610  139.5820 O   0  0  0  0  0  1  0  0  0  0  0  0
  190.7810  177.1170  142.4280 C   0  0  0  0  0  0  0  0  0  0  0  0
  189.8230  177.0420  141.3630 N   0  0  0  0  0  2  0  0  0  0  0  0
  192.0170  177.0720  142.1790 O   0  0  0  0  0  0  0  0  0  0  0  0
  191.7740  176.9470  147.2010 O   0  0  0  0  0  0  0  0  0  0  0  0
  192.3510  175.6880  147.5170 C   0  0  0  0  0  1  0  0  0  0  0  0
  1 12  1  0  0  0  0
  2  1  1  0  0  0  0
  2 17  1  0  0  0  0
  4  1  1  0  0  0  0
  4  8  1  0  0  0  0
  5 10  1  0  0  0  0
  5 16  2  0  0  0  0
  6  9  1  0  0  0  0
  7  3  2  0  0  0  0
  8 13  1  0  0  0  0
  9  8  2  0  0  0  0
 10  2  2  0  0  0  0
 11 15  1  0  0  0  0
 11  6  2  0  0  0  0
 12 13  2  0  0  0  0
 12  3  1  0  0  0  0
 14 17  2  0  0  0  0
 14 24  1  0  0  0  0
 15  4  2  0  0  0  0
 16 14  1  0  0  0  0
 17  7  1  0  0  0  0
 18 22  1  0  0  0  0
 19 18  2  0  0  0  0
 20 18  1  0  0  0  0
 21  5  1  0  0  0  0
 22 21  1  0  0  0  0
 23 21  2  0  0  0  0
 24 25  1  0  0  0  0
M  END
>  <MODEL>
1

>  <REMARK>
 VINA RESULT:     -11.0      0.000      0.000
  Name = 
  2 active torsions:
  status: ('A' for Active; 'I' for Inactive)
    1  A    between atoms: C_6  and  C_15
    2  A    between atoms: O_13  and  C_20
                            x       y       z     vdW  Elec       q    Type
                         _______ _______ _______ _____ _____    ______ ____

>  <TORSDO>
F 2

$$$$
=
 OpenBabel10272400513D

 25 28  0  0  0  0  0  0  0  0999 V2000
  185.6250  178.2280  144.6650 N   0  0  0  0  0  0  0  0  0  0  0  0
  186.9280  177.8210  144.6610 C   0  0  0  0  0  0  0  0  0  0  0  0
  185.6520  178.5760  147.0160 C   0  0  0  0  0  3  0  0  0  0  0  0
  184.7220  178.3600  143.6770 C   0  0  0  0  0  0  0  0  0  0  0  0
  188.9190  177.0280  143.5190 C   0  0  0  0  0  0  0  0  0  0  0  0
  182.5460  178.7860  142.0140 C   0  0  0  0  0  3  0  0  0  0  0  0
  186.9530  178.1740  147.0340 N   0  0  0  0  0  0  0  0  0  0  0  0
  183.5300  178.8110  144.1980 C   0  0  0  0  0  0  0  0  0  0  0  0
  182.4170  179.0350  143.3920 C   0  0  0  0  0  3  0  0  0  0  0  0
  187.5830  177.4400  143.4860 C   0  0  0  0  0  3  0  0  0  0  0  0
  183.7670  178.3250  141.4780 C   0  0  0  0  0  3  0  0  0  0  0  0
  184.9870  178.5980  145.7960 C   0  0  0  0  0  0  0  0  0  0  0  0
  183.6660  178.9760  145.5690 C   0  0  0  0  0  3  0  0  0  0  0  0
  188.9740  177.3780  145.9370 C   0  0  0  0  0  0  0  0  0  0  0  0
  184.8760  178.1050  142.3120 C   0  0  0  0  0  3  0  0  0  0  0  0
  189.5990  177.0020  144.7430 C   0  0  0  0  0  3  0  0  0  0  0  0
  187.6190  177.7940  145.9000 C   0  0  0  0  0  0  0  0  0  0  0  0
  189.9400  177.0440  139.7900 C   0  0  0  0  0  0  0  0  0  0  0  0
  189.5970  177.8090  138.6840 O   0  0  0  0  0  0  0  0  0  0  0  0
  190.7730  176.1080  139.6620 O   0  0  0  0  0  1  0  0  0  0  0  0
  189.6050  176.6270  142.2780 C   0  0  0  0  0  0  0  0  0  0  0  0
  189.3420  177.3330  141.0580 N   0  0  0  0  0  2  0  0  0  0  0  0
  190.4200  175.6630  142.2950 O   0  0  0  0  0  0  0  0  0  0  0  0
  189.7480  177.3130  147.1060 O   0  0  0  0  0  0  0  0  0  0  0  0
  191.0300  176.7090  147.2070 C   0  0  0  0  0  1  0  0  0  0  0  0
  1 12  1  0  0  0  0
  2  1  1  0  0  0  0
  2 17  1  0  0  0  0
  3  7  2  0  0  0  0
  4  8  1  0  0  0  0
  4  1  1  0  0  0  0
  5 16  2  0  0  0  0
  6  9  1  0  0  0  0
  8 13  1  0  0  0  0
  9  8  2  0  0  0  0
 10  5  1  0  0  0  0
 10  2  2  0  0  0  0
 11  6  2  0  0  0  0
 11 15  1  0  0  0  0
 12  3  1  0  0  0  0
 13 12  2  0  0  0  0
 14 24  1  0  0  0  0
 15  4  2  0  0  0  0
 16 14  1  0  0  0  0
 17 14  2  0  0  0  0
 17  7  1  0  0  0  0
 18 22  1  0  0  0  0
 19 18  2  0  0  0  0
 20 18  1  0  0  0  0
 21 23  2  0  0  0  0
 21  5  1  0  0  0  0
 22 21  1  0  0  0  0
 24 25  1  0  0  0  0
M  END
>  <MODEL>
2

>  <REMARK>
 VINA RESULT:     -10.4      1.261      1.828
  Name = 
  2 active torsions:
  status: ('A' for Active; 'I' for Inactive)
    1  A    between atoms: C_6  and  C_15
    2  A    between atoms: O_13  and  C_20
                            x       y       z     vdW  Elec       q    Type
                         _______ _______ _______ _____ _____    ______ ____

>  <TORSDO>
F 2

$$$$
=
 OpenBabel10272400513D

 25 28  0  0  0  0  0  0  0  0999 V2000
  187.0580  178.0230  145.5450 N   0  0  0  0  0  0  0  0  0  0  0  0
  186.2640  178.3360  144.4810 C   0  0  0  0  0  0  0  0  0  0  0  0
  185.2810  178.3770  147.0840 C   0  0  0  0  0  3  0  0  0  0  0  0
  188.3500  177.6590  145.6260 C   0  0  0  0  0  0  0  0  0  0  0  0
  185.8990  178.6460  142.1000 C   0  0  0  0  0  0  0  0  0  0  0  0
  190.9280  176.8890  146.2960 C   0  0  0  0  0  3  0  0  0  0  0  0
  184.4710  178.6920  146.0350 N   0  0  0  0  0  0  0  0  0  0  0  0
  188.6890  177.4490  146.9440 C   0  0  0  0  0  0  0  0  0  0  0  0
  189.9750  177.0620  147.3160 C   0  0  0  0  0  3  0  0  0  0  0  0
  186.7420  178.3190  143.1670 C   0  0  0  0  0  3  0  0  0  0  0  0
  190.5820  177.1040  144.9450 C   0  0  0  0  0  3  0  0  0  0  0  0
  186.6010  178.0370  146.8160 C   0  0  0  0  0  0  0  0  0  0  0  0
  187.5800  177.6850  147.7430 C   0  0  0  0  0  3  0  0  0  0  0  0
  184.0560  179.0160  143.6600 C   0  0  0  0  0  0  0  0  0  0  0  0
  189.2780  177.4950  144.5950 C   0  0  0  0  0  3  0  0  0  0  0  0
  184.5670  178.9890  142.3580 C   0  0  0  0  0  3  0  0  0  0  0  0
  184.9130  178.6850  144.7400 C   0  0  0  0  0  0  0  0  0  0  0  0
  188.4110  178.2970  139.1800 C   0  0  0  0  0  0  0  0  0  0  0  0
  189.7650  178.0110  139.0830 O   0  0  0  0  0  1  0  0  0  0  0  0
  187.7450  178.5090  138.1330 O   0  0  0  0  0  0  0  0  0  0  0  0
  186.4090  178.6270  140.7170 C   0  0  0  0  0  0  0  0  0  0  0  0
  187.7930  178.3460  140.4710 N   0  0  0  0  0  2  0  0  0  0  0  0
  185.6240  178.8580  139.7560 O   0  0  0  0  0  0  0  0  0  0  0  0
  182.7070  179.3760  143.8040 O   0  0  0  0  0  0  0  0  0  0  0  0
  181.6610  179.0080  142.9160 C   0  0  0  0  0  1  0  0  0  0  0  0
  1  4  1  0  0  0  0
  1 12  1  0  0  0  0
  2 17  1  0  0  0  0
  2  1  1  0  0  0  0
  4  8  1  0  0  0  0
  5 16  2  0  0  0  0
  5 10  1  0  0  0  0
  6  9  1  0  0  0  0
  7  3  2  0  0  0  0
  8  9  2  0  0  0  0
  8 13  1  0  0  0  0
 10  2  2  0  0  0  0
 11  6  2  0  0  0  0
 12  3  1  0  0  0  0
 12 13  2  0  0  0  0
 14 24  1  0  0  0  0
 14 17  2  0  0  0  0
 15 11  1  0  0  0  0
 15  4  2  0  0  0  0
 16 14  1  0  0  0  0
 17  7  1  0  0  0  0
 18 22  1  0  0  0  0
 19 18  1  0  0  0  0
 20 18  2  0  0  0  0
 21  5  1  0  0  0  0
 22 21  1  0  0  0  0
 23 21  2  0  0  0  0
 25 24  1  0  0  0  0
M  END
>  <MODEL>
3

>  <REMARK>
 VINA RESULT:     -10.3      2.322      5.442
  Name = 
  2 active torsions:
  status: ('A' for Active; 'I' for Inactive)
    1  A    between atoms: C_6  and  C_15
    2  A    between atoms: O_13  and  C_20
                            x       y       z     vdW  Elec       q    Type
                         _______ _______ _______ _____ _____    ______ ____

>  <TORSDO>
F 2

$$$$
=
 OpenBabel10272400513D

 25 28  0  0  0  0  0  0  0  0999 V2000
  186.9290  178.1730  142.9630 N   0  0  0  0  0  0  0  0  0  0  0  0
  188.1840  177.7190  142.6770 C   0  0  0  0  0  0  0  0  0  0  0  0
  186.5390  178.7790  140.6970 C   0  0  0  0  0  3  0  0  0  0  0  0
  186.2340  178.2280  144.1130 C   0  0  0  0  0  0  0  0  0  0  0  0
  190.3020  176.7270  143.3310 C   0  0  0  0  0  0  0  0  0  0  0  0
  184.4320  178.5500  146.1950 C   0  0  0  0  0  3  0  0  0  0  0  0
  187.7890  178.3310  140.3910 N   0  0  0  0  0  0  0  0  0  0  0  0
  184.9940  178.7790  143.8770 C   0  0  0  0  0  0  0  0  0  0  0  0
  184.0650  178.9550  144.9000 C   0  0  0  0  0  3  0  0  0  0  0  0
  189.0210  177.1830  143.6600 C   0  0  0  0  0  3  0  0  0  0  0  0
  185.7020  177.9850  146.4390 C   0  0  0  0  0  3  0  0  0  0  0  0
  186.1150  178.6910  142.0180 C   0  0  0  0  0  0  0  0  0  0  0  0
  184.8830  179.0910  142.5300 C   0  0  0  0  0  3  0  0  0  0  0  0
  189.9280  177.3410  140.9960 C   0  0  0  0  0  0  0  0  0  0  0  0
  186.6230  177.8180  145.3900 C   0  0  0  0  0  3  0  0  0  0  0  0
  190.7400  176.8110  142.0040 C   0  0  0  0  0  3  0  0  0  0  0  0
  188.6300  177.8030  141.3330 C   0  0  0  0  0  0  0  0  0  0  0  0
  191.9820  176.2760  146.7840 C   0  0  0  0  0  0  0  0  0  0  0  0
  191.8820  176.9130  148.0130 O   0  0  0  0  0  1  0  0  0  0  0  0
  192.7770  175.3080  146.6510 O   0  0  0  0  0  0  0  0  0  0  0  0
  191.1810  176.1640  144.3710 C   0  0  0  0  0  0  0  0  0  0  0  0
  191.1790  176.7290  145.6890 N   0  0  0  0  0  2  0  0  0  0  0  0
  191.9320  175.1870  144.0960 O   0  0  0  0  0  0  0  0  0  0  0  0
  190.4670  177.3780  139.7010 O   0  0  0  0  0  0  0  0  0  0  0  0
  190.5400  176.2720  138.8120 C   0  0  0  0  0  1  0  0  0  0  0  0
  1  4  1  0  0  0  0
  2  1  1  0  0  0  0
  2 10  1  0  0  0  0
  3 12  1  0  0  0  0
  4 15  1  0  0  0  0
  5 10  2  0  0  0  0
  5 21  1  0  0  0  0
  6 11  1  0  0  0  0
  7  3  2  0  0  0  0
  7 17  1  0  0  0  0
  8  4  2  0  0  0  0
  8  9  1  0  0  0  0
  9  6  2  0  0  0  0
 12 13  2  0  0  0  0
 12  1  1  0  0  0  0
 13  8  1  0  0  0  0
 14 17  1  0  0  0  0
 14 16  2  0  0  0  0
 15 11  2  0  0  0  0
 16  5  1  0  0  0  0
 17  2  2  0  0  0  0
 18 19  1  0  0  0  0
 20 18  2  0  0  0  0
 21 22  1  0  0  0  0
 22 18  1  0  0  0  0
 23 21  2  0  0  0  0
 24 14  1  0  0  0  0
 25 24  1  0  0  0  0
M  END
>  <MODEL>
4

>  <REMARK>
 VINA RESULT:      -9.9      1.635      5.022
  Name = 
  2 active torsions:
  status: ('A' for Active; 'I' for Inactive)
    1  A    between atoms: C_6  and  C_15
    2  A    between atoms: O_13  and  C_20
                            x       y       z     vdW  Elec       q    Type
                         _______ _______ _______ _____ _____    ______ ____

>  <TORSDO>
F 2

$$$$
=
 OpenBabel10272400513D

 25 28  0  0  0  0  0  0  0  0999 V2000
  188.0750  177.5930  145.0830 N   0  0  0  0  0  0  0  0  0  0  0  0
  187.5150  177.8800  143.8720 C   0  0  0  0  0  0  0  0  0  0  0  0
  186.0440  178.0590  146.2280 C   0  0  0  0  0  3  0  0  0  0  0  0
  189.3130  177.2000  145.4300 C   0  0  0  0  0  0  0  0  0  0  0  0
  187.6340  178.0960  141.4560 C   0  0  0  0  0  0  0  0  0  0  0  0
  191.6820  176.3940  146.6230 C   0  0  0  0  0  3  0  0  0  0  0  0
  185.4660  178.3500  145.0290 N   0  0  0  0  0  0  0  0  0  0  0  0
  189.3810  177.0380  146.7960 C   0  0  0  0  0  0  0  0  0  0  0  0
  190.5540  176.6340  147.4280 C   0  0  0  0  0  3  0  0  0  0  0  0
  188.2410  177.7940  142.6800 C   0  0  0  0  0  3  0  0  0  0  0  0
  191.6140  176.5580  145.2230 C   0  0  0  0  0  3  0  0  0  0  0  0
  187.3790  177.6740  146.2380 C   0  0  0  0  0  0  0  0  0  0  0  0
  188.1450  177.3370  147.3520 C   0  0  0  0  0  3  0  0  0  0  0  0
  185.5350  178.5820  142.6080 C   0  0  0  0  0  0  0  0  0  0  0  0
  190.4180  176.9670  144.6090 C   0  0  0  0  0  3  0  0  0  0  0  0
  186.2900  178.4860  141.4340 C   0  0  0  0  0  3  0  0  0  0  0  0
  186.1520  178.2750  143.8480 C   0  0  0  0  0  0  0  0  0  0  0  0
  190.1200  176.7130  138.8370 C   0  0  0  0  0  0  0  0  0  0  0  0
  190.9650  175.6140  138.7740 O   0  0  0  0  0  1  0  0  0  0  0  0
  190.0710  177.5150  137.8670 O   0  0  0  0  0  0  0  0  0  0  0  0
  188.4030  178.0050  140.2020 C   0  0  0  0  0  0  0  0  0  0  0  0
  189.3170  176.9170  140.0050 N   0  0  0  0  0  2  0  0  0  0  0  0
  188.2550  178.8840  139.3090 O   0  0  0  0  0  0  0  0  0  0  0  0
  184.1960  178.9820  142.4710 O   0  0  0  0  0  0  0  0  0  0  0  0
  183.3070  178.5320  141.4580 C   0  0  0  0  0  1  0  0  0  0  0  0
  1  4  1  0  0  0  0
  1 12  1  0  0  0  0
  2  1  1  0  0  0  0
  3 12  1  0  0  0  0
  4  8  1  0  0  0  0
  5 10  1  0  0  0  0
  6  9  1  0  0  0  0
  7  3  2  0  0  0  0
  8 13  1  0  0  0  0
  8  9  2  0  0  0  0
 10  2  2  0  0  0  0
 11  6  2  0  0  0  0
 12 13  2  0  0  0  0
 14 17  2  0  0  0  0
 15 11  1  0  0  0  0
 15  4  2  0  0  0  0
 16  5  2  0  0  0  0
 16 14  1  0  0  0  0
 17  2  1  0  0  0  0
 17  7  1  0  0  0  0
 18 22  1  0  0  0  0
 19 18  1  0  0  0  0
 20 18  2  0  0  0  0
 21  5  1  0  0  0  0
 22 21  1  0  0  0  0
 23 21  2  0  0  0  0
 24 14  1  0  0  0  0
 25 24  1  0  0  0  0
M  END
>  <MODEL>
5

>  <REMARK>
 VINA RESULT:      -9.7      2.338      5.133
  Name = 
  2 active torsions:
  status: ('A' for Active; 'I' for Inactive)
    1  A    between atoms: C_6  and  C_15
    2  A    between atoms: O_13  and  C_20
                            x       y       z     vdW  Elec       q    Type
                         _______ _______ _______ _____ _____    ______ ____

>  <TORSDO>
F 2

$$$$
=
 OpenBabel10272400513D

 25 28  0  0  0  0  0  0  0  0999 V2000
  187.0600  178.0380  145.5310 N   0  0  0  0  0  0  0  0  0  0  0  0
  186.1760  178.3530  144.5410 C   0  0  0  0  0  0  0  0  0  0  0  0
  185.4300  178.4130  147.2210 C   0  0  0  0  0  3  0  0  0  0  0  0
  188.3510  177.6640  145.4980 C   0  0  0  0  0  0  0  0  0  0  0  0
  185.6030  178.6550  142.2000 C   0  0  0  0  0  0  0  0  0  0  0  0
  190.9720  176.8760  145.9400 C   0  0  0  0  0  3  0  0  0  0  0  0
  184.5320  178.7310  146.2470 N   0  0  0  0  0  0  0  0  0  0  0  0
  188.8050  177.4570  146.7820 C   0  0  0  0  0  0  0  0  0  0  0  0
  190.1150  177.0610  147.0390 C   0  0  0  0  0  3  0  0  0  0  0  0
  186.5350  178.3260  143.1900 C   0  0  0  0  0  3  0  0  0  0  0  0
  190.5080  177.0870  144.6240 C   0  0  0  0  0  3  0  0  0  0  0  0
  186.7190  178.0610  146.8380 C   0  0  0  0  0  0  0  0  0  0  0  0
  187.7740  177.7050  147.6750 C   0  0  0  0  0  3  0  0  0  0  0  0
  183.9090  179.0480  143.9170 C   0  0  0  0  0  0  0  0  0  0  0  0
  189.1820  177.4870  144.3890 C   0  0  0  0  0  3  0  0  0  0  0  0
  184.3020  179.0110  142.5750 C   0  0  0  0  0  3  0  0  0  0  0  0
  184.8570  178.7150  144.9180 C   0  0  0  0  0  0  0  0  0  0  0  0
  185.2250  178.3610  138.3630 C   0  0  0  0  0  0  0  0  0  0  0  0
  184.1620  178.1460  137.4980 O   0  0  0  0  0  0  0  0  0  0  0  0
  186.3850  178.5090  137.8960 O   0  0  0  0  0  1  0  0  0  0  0  0
  185.9870  178.6260  140.7770 C   0  0  0  0  0  0  0  0  0  0  0  0
  184.9850  178.4110  139.7740 N   0  0  0  0  0  2  0  0  0  0  0  0
  187.1940  178.7900  140.4490 O   0  0  0  0  0  0  0  0  0  0  0  0
  182.5810  179.4190  144.1790 O   0  0  0  0  0  0  0  0  0  0  0  0
  181.4680  179.1230  143.3480 C   0  0  0  0  0  1  0  0  0  0  0  0
  1 12  1  0  0  0  0
  2 17  1  0  0  0  0
  2  1  1  0  0  0  0
  4  1  1  0  0  0  0
  4  8  1  0  0  0  0
  5 16  2  0  0  0  0
  5 10  1  0  0  0  0
  6  9  1  0  0  0  0
  7  3  2  0  0  0  0
  8  9  2  0  0  0  0
  8 13  1  0  0  0  0
 10  2  2  0  0  0  0
 11  6  2  0  0  0  0
 12  3  1  0  0  0  0
 12 13  2  0  0  0  0
 14 24  1  0  0  0  0
 14 17  2  0  0  0  0
 15 11  1  0  0  0  0
 15  4  2  0  0  0  0
 16 14  1  0  0  0  0
 17  7  1  0  0  0  0
 18 22  1  0  0  0  0
 19 18  2  0  0  0  0
 20 18  1  0  0  0  0
 21  5  1  0  0  0  0
 22 21  1  0  0  0  0
 23 21  2  0  0  0  0
 25 24  1  0  0  0  0
M  END
>  <MODEL>
6

>  <REMARK>
 VINA RESULT:      -9.7      2.844      5.695
  Name = 
  2 active torsions:
  status: ('A' for Active; 'I' for Inactive)
    1  A    between atoms: C_6  and  C_15
    2  A    between atoms: O_13  and  C_20
                            x       y       z     vdW  Elec       q    Type
                         _______ _______ _______ _____ _____    ______ ____

>  <TORSDO>
F 2

$$$$
=
 OpenBabel10272400513D

 25 28  0  0  0  0  0  0  0  0999 V2000
  188.4350  177.6120  144.0250 N   0  0  0  0  0  0  0  0  0  0  0  0
  188.5800  177.7220  142.6730 C   0  0  0  0  0  0  0  0  0  0  0  0
  186.1390  178.2200  143.9150 C   0  0  0  0  0  3  0  0  0  0  0  0
  189.3030  177.2800  144.9980 C   0  0  0  0  0  0  0  0  0  0  0  0
  189.9110  177.5980  140.6450 C   0  0  0  0  0  0  0  0  0  0  0  0
  190.6920  176.6650  147.3160 C   0  0  0  0  0  3  0  0  0  0  0  0
  186.2630  178.3360  142.5630 N   0  0  0  0  0  0  0  0  0  0  0  0
  188.6640  177.3120  146.2170 C   0  0  0  0  0  0  0  0  0  0  0  0
  189.3320  177.0090  147.4010 C   0  0  0  0  0  3  0  0  0  0  0  0
  189.7990  177.4750  142.0340 C   0  0  0  0  0  3  0  0  0  0  0  0
  191.3480  176.6300  146.0670 C   0  0  0  0  0  3  0  0  0  0  0  0
  187.2600  177.8490  144.6480 C   0  0  0  0  0  0  0  0  0  0  0  0
  187.3390  177.6770  146.0280 C   0  0  0  0  0  3  0  0  0  0  0  0
  187.5540  178.2260  140.5040 C   0  0  0  0  0  0  0  0  0  0  0  0
  190.6530  176.9410  144.8860 C   0  0  0  0  0  3  0  0  0  0  0  0
  188.7880  177.9710  139.8970 C   0  0  0  0  0  3  0  0  0  0  0  0
  187.4430  178.1010  141.9120 C   0  0  0  0  0  0  0  0  0  0  0  0
  192.3920  176.4890  137.8940 C   0  0  0  0  0  0  0  0  0  0  0  0
  192.2650  175.9610  136.6170 O   0  0  0  0  0  0  0  0  0  0  0  0
  193.5390  176.6990  138.3680 O   0  0  0  0  0  1  0  0  0  0  0  0
  191.1980  177.3360  139.9770 C   0  0  0  0  0  0  0  0  0  0  0  0
  191.2140  176.7890  138.6520 N   0  0  0  0  0  2  0  0  0  0  0  0
  192.2790  177.5950  140.5740 O   0  0  0  0  0  0  0  0  0  0  0  0
  186.4950  178.5940  139.6580 O   0  0  0  0  0  0  0  0  0  0  0  0
  186.3030  178.1210  138.3330 C   0  0  0  0  0  1  0  0  0  0  0  0
  1 12  1  0  0  0  0
  1  4  1  0  0  0  0
  2  1  1  0  0  0  0
  3 12  1  0  0  0  0
  4  8  1  0  0  0  0
  5 10  2  0  0  0  0
  6  9  1  0  0  0  0
  7  3  2  0  0  0  0
  8  9  2  0  0  0  0
 10  2  1  0  0  0  0
 11  6  2  0  0  0  0
 12 13  2  0  0  0  0
 13  8  1  0  0  0  0
 14 17  1  0  0  0  0
 15  4  2  0  0  0  0
 15 11  1  0  0  0  0
 16 14  2  0  0  0  0
 16  5  1  0  0  0  0
 17  7  1  0  0  0  0
 17  2  2  0  0  0  0
 18 20  1  0  0  0  0
 18 22  1  0  0  0  0
 19 18  2  0  0  0  0
 21 23  2  0  0  0  0
 21  5  1  0  0  0  0
 22 21  1  0  0  0  0
 24 14  1  0  0  0  0
 25 24  1  0  0  0  0
M  END
>  <MODEL>
7

>  <REMARK>
 VINA RESULT:      -9.6      2.294      5.171
  Name = 
  2 active torsions:
  status: ('A' for Active; 'I' for Inactive)
    1  A    between atoms: C_6  and  C_15
    2  A    between atoms: O_13  and  C_20
                            x       y       z     vdW  Elec       q    Type
                         _______ _______ _______ _____ _____    ______ ____

>  <TORSDO>
F 2

$$$$
=
 OpenBabel10272400513D

 25 28  0  0  0  0  0  0  0  0999 V2000
  186.1610  178.3760  144.8690 N   0  0  0  0  0  0  0  0  0  0  0  0
  186.0540  178.4520  143.5110 C   0  0  0  0  0  0  0  0  0  0  0  0
  183.8750  178.9570  145.1680 C   0  0  0  0  0  3  0  0  0  0  0  0
  187.1970  178.0790  145.6740 C   0  0  0  0  0  0  0  0  0  0  0  0
  186.9920  178.2880  141.2780 C   0  0  0  0  0  0  0  0  0  0  0  0
  188.9970  177.5390  147.7110 C   0  0  0  0  0  3  0  0  0  0  0  0
  183.7460  179.0390  143.8140 N   0  0  0  0  0  0  0  0  0  0  0  0
  186.7920  178.1360  146.9890 C   0  0  0  0  0  0  0  0  0  0  0  0
  187.6700  177.8710  148.0370 C   0  0  0  0  0  3  0  0  0  0  0  0
  187.1380  178.2010  142.6660 C   0  0  0  0  0  3  0  0  0  0  0  0
  189.4140  177.4790  146.3640 C   0  0  0  0  0  3  0  0  0  0  0  0
  185.1160  178.6180  145.6920 C   0  0  0  0  0  0  0  0  0  0  0  0
  185.4500  178.4830  147.0370 C   0  0  0  0  0  3  0  0  0  0  0  0
  184.6400  178.8880  141.5560 C   0  0  0  0  0  0  0  0  0  0  0  0
  188.5090  177.7510  145.3240 C   0  0  0  0  0  3  0  0  0  0  0  0
  185.7460  178.6300  140.7390 C   0  0  0  0  0  3  0  0  0  0  0  0
  184.7910  178.7990  142.9630 C   0  0  0  0  0  0  0  0  0  0  0  0
  189.2490  178.4620  138.1420 C   0  0  0  0  0  0  0  0  0  0  0  0
  189.1800  179.1180  136.9210 O   0  0  0  0  0  0  0  0  0  0  0  0
  190.2370  177.7230  138.3950 O   0  0  0  0  0  1  0  0  0  0  0  0
  188.1390  178.0230  140.3900 C   0  0  0  0  0  0  0  0  0  0  0  0
  188.1950  178.6360  139.0960 N   0  0  0  0  0  2  0  0  0  0  0  0
  189.0640  177.2560  140.7740 O   0  0  0  0  0  0  0  0  0  0  0  0
  183.4390  179.2220  140.9110 O   0  0  0  0  0  0  0  0  0  0  0  0
  182.4340  178.2980  140.5200 C   0  0  0  0  0  1  0  0  0  0  0  0
  1  4  1  0  0  0  0
  1 12  1  0  0  0  0
  2  1  1  0  0  0  0
  3 12  1  0  0  0  0
  4  8  1  0  0  0  0
  5 10  1  0  0  0  0
  6  9  1  0  0  0  0
  7  3  2  0  0  0  0
  8 13  1  0  0  0  0
  8  9  2  0  0  0  0
 10  2  2  0  0  0  0
 11  6  2  0  0  0  0
 12 13  2  0  0  0  0
 14 17  2  0  0  0  0
 15  4  2  0  0  0  0
 15 11  1  0  0  0  0
 16  5  2  0  0  0  0
 16 14  1  0  0  0  0
 17  2  1  0  0  0  0
 17  7  1  0  0  0  0
 18 20  1  0  0  0  0
 18 22  1  0  0  0  0
 19 18  2  0  0  0  0
 21 23  2  0  0  0  0
 21  5  1  0  0  0  0
 22 21  1  0  0  0  0
 24 14  1  0  0  0  0
 25 24  1  0  0  0  0
M  END
>  <MODEL>
8

>  <REMARK>
 VINA RESULT:      -9.6      2.400      5.281
  Name = 
  2 active torsions:
  status: ('A' for Active; 'I' for Inactive)
    1  A    between atoms: C_6  and  C_15
    2  A    between atoms: O_13  and  C_20
                            x       y       z     vdW  Elec       q    Type
                         _______ _______ _______ _____ _____    ______ ____

>  <TORSDO>
F 2

$$$$
=
 OpenBabel10272400513D

 25 28  0  0  0  0  0  0  0  0999 V2000
  189.4150  177.4870  144.2310 N   0  0  0  0  0  0  0  0  0  0  0  0
  189.0610  177.7120  142.9330 C   0  0  0  0  0  0  0  0  0  0  0  0
  191.6120  176.8250  143.6070 C   0  0  0  0  0  3  0  0  0  0  0  0
  188.7330  177.6130  145.3830 C   0  0  0  0  0  0  0  0  0  0  0  0
  187.4560  178.3780  141.2360 C   0  0  0  0  0  0  0  0  0  0  0  0
  187.7600  177.7100  147.9770 C   0  0  0  0  0  3  0  0  0  0  0  0
  191.2790  177.0440  142.3040 N   0  0  0  0  0  0  0  0  0  0  0  0
  189.5430  177.2600  146.4400 C   0  0  0  0  0  0  0  0  0  0  0  0
  189.0860  177.2980  147.7550 C   0  0  0  0  0  3  0  0  0  0  0  0
  187.7850  178.1590  142.5780 C   0  0  0  0  0  3  0  0  0  0  0  0
  186.9300  178.0720  146.8950 C   0  0  0  0  0  3  0  0  0  0  0  0
  190.6470  177.0570  144.5800 C   0  0  0  0  0  0  0  0  0  0  0  0
  190.7900  176.8950  145.9560 C   0  0  0  0  0  3  0  0  0  0  0  0
  189.7070  177.7020  140.5670 C   0  0  0  0  0  0  0  0  0  0  0  0
  187.4130  178.0260  145.5770 C   0  0  0  0  0  3  0  0  0  0  0  0
  188.4200  178.1490  140.2480 C   0  0  0  0  0  3  0  0  0  0  0  0
  190.0370  177.4790  141.9280 C   0  0  0  0  0  0  0  0  0  0  0  0
  184.2610  178.8820  139.1170 C   0  0  0  0  0  0  0  0  0  0  0  0
  183.8440  178.4650  137.8610 O   0  0  0  0  0  0  0  0  0  0  0  0
  183.4970  179.5960  139.8200 O   0  0  0  0  0  1  0  0  0  0  0  0
  186.1090  178.8490  140.8680 C   0  0  0  0  0  0  0  0  0  0  0  0
  185.5530  178.4920  139.5950 N   0  0  0  0  0  2  0  0  0  0  0  0
  185.4510  179.5630  141.6740 O   0  0  0  0  0  0  0  0  0  0  0  0
  190.5930  177.5040  139.4980 O   0  0  0  0  0  0  0  0  0  0  0  0
  190.7320  176.2970  138.7620 C   0  0  0  0  0  1  0  0  0  0  0  0
  1 12  1  0  0  0  0
  1  4  1  0  0  0  0
  2  1  1  0  0  0  0
  3 12  1  0  0  0  0
  4 15  2  0  0  0  0
  4  8  1  0  0  0  0
  5 10  2  0  0  0  0
  7  3  2  0  0  0  0
  8  9  2  0  0  0  0
  9  6  1  0  0  0  0
 10  2  1  0  0  0  0
 11  6  2  0  0  0  0
 12 13  2  0  0  0  0
 13  8  1  0  0  0  0
 14 17  1  0  0  0  0
 15 11  1  0  0  0  0
 16 14  2  0  0  0  0
 16  5  1  0  0  0  0
 17  7  1  0  0  0  0
 17  2  2  0  0  0  0
 18 22  1  0  0  0  0
 18 20  1  0  0  0  0
 19 18  2  0  0  0  0
 21  5  1  0  0  0  0
 21 23  2  0  0  0  0
 22 21  1  0  0  0  0
 24 14  1  0  0  0  0
 25 24  1  0  0  0  0
M  END
>  <MODEL>
9

>  <REMARK>
 VINA RESULT:      -9.5      2.700      5.484
  Name = 
  2 active torsions:
  status: ('A' for Active; 'I' for Inactive)
    1  A    between atoms: C_6  and  C_15
    2  A    between atoms: O_13  and  C_20
                            x       y       z     vdW  Elec       q    Type
                         _______ _______ _______ _____ _____    ______ ____

>  <TORSDO>
F 2

$$$$
