=
 OpenBabel10272400463D

 25 28  0  0  0  0  0  0  0  0999 V2000
  187.6700  177.7400  145.8090 C   0  0  0  0  0  0  0  0  0  0  0  0
  188.9890  177.2980  145.6530 C   0  0  0  0  0  0  0  0  0  0  0  0
  187.9910  177.7910  148.2060 C   0  0  0  0  0  3  0  0  0  0  0  0
  186.6800  178.0030  144.8540 C   0  0  0  0  0  0  0  0  0  0  0  0
  185.2150  178.3810  143.2120 C   0  0  0  0  0  3  0  0  0  0  0  0
  189.2450  177.3720  148.0330 O   0  0  0  0  0  0  0  0  0  0  0  0
  185.5120  178.4190  145.3850 C   0  0  0  0  0  0  0  0  0  0  0  0
  184.5650  178.6690  144.4190 C   0  0  0  0  0  3  0  0  0  0  0  0
  191.0920  176.6850  146.6950 C   0  0  0  0  0  0  0  0  0  0  0  0
  191.9570  176.4870  147.8920 C   0  0  0  0  0  1  0  0  0  0  0  0
  189.5290  177.0400  144.4330 N   0  0  0  0  0  0  0  0  0  0  0  0
  187.5190  177.5820  142.4520 C   0  0  0  0  0  1  0  0  0  0  0  0
  187.1810  177.9830  147.0930 C   0  0  0  0  0  0  0  0  0  0  0  0
  185.5640  178.5100  147.0650 S   0  0  0  0  0  0  0  0  0  0  0  0
  191.6160  176.4300  145.4260 C   0  0  0  0  0  3  0  0  0  0  0  0
  186.5220  177.9700  143.4860 C   0  0  0  0  0  0  0  0  0  0  0  0
  190.8110  176.6100  144.2970 C   0  0  0  0  0  0  0  0  0  0  0  0
  189.7670  177.1220  146.8260 C   0  0  0  0  0  0  0  0  0  0  0  0
  191.3700  176.3590  142.9420 C   0  0  0  0  0  2  0  0  0  0  0  0
  191.4140  177.6550  142.1520 C   0  0  0  0  0  2  0  0  0  0  0  0
  191.2770  177.3640  140.6940 C   0  0  0  0  0  0  0  0  0  0  0  0
  192.3140  177.2720  139.9880 O   0  0  0  0  0  0  0  0  0  0  0  0
  190.0260  177.2210  140.0890 O   0  0  0  0  0  0  0  0  0  0  0  0
  189.5990  178.0510  139.0540 C   0  0  0  0  0  3  0  0  0  0  0  0
  188.6140  178.8140  139.2260 O   0  0  0  0  0  0  0  0  0  0  0  0
  1 13  1  0  0  0  0
  2  1  1  0  0  0  0
  2 18  1  0  0  0  0
  4  7  1  0  0  0  0
  4  1  2  0  0  0  0
  5 16  2  0  0  0  0
  5  8  1  0  0  0  0
  6  3  1  0  0  0  0
  7 14  1  0  0  0  0
  8  7  2  0  0  0  0
  9 18  2  0  0  0  0
  9 10  1  0  0  0  0
 11  2  2  0  0  0  0
 12 16  1  0  0  0  0
 13  3  2  0  0  0  0
 14 13  1  0  0  0  0
 15  9  1  0  0  0  0
 16  4  1  0  0  0  0
 17 11  1  0  0  0  0
 17 15  2  0  0  0  0
 18  6  1  0  0  0  0
 19 17  1  0  0  0  0
 20 19  1  0  0  0  0
 21 20  1  0  0  0  0
 22 21  2  0  0  0  0
 23 21  1  0  0  0  0
 24 25  2  0  0  0  0
 24 23  1  0  0  0  0
M  END
>  <MODEL>
1

>  <REMARK>
 VINA RESULT:      -9.2      0.000      0.000
  Name = 
  5 active torsions:
  status: ('A' for Active; 'I' for Inactive)
    1  A    between atoms: C_2  and  O_12
    2  A    between atoms: C_6  and  C_15
    3  A    between atoms: C_6  and  C_23
    4  A    between atoms: O_12  and  C_21
    5  A    between atoms: C_15  and  C_21
                            x       y       z     vdW  Elec       q    Type
                         _______ _______ _______ _____ _____    ______ ____

>  <TORSDO>
F 5

$$$$
=
 OpenBabel10272400463D

 25 28  0  0  0  0  0  0  0  0999 V2000
  186.2230  178.3820  142.8290 C   0  0  0  0  0  0  0  0  0  0  0  0
  187.3500  178.1080  142.0450 C   0  0  0  0  0  0  0  0  0  0  0  0
  185.0290  179.0640  140.8390 C   0  0  0  0  0  3  0  0  0  0  0  0
  186.0230  178.2560  144.2100 C   0  0  0  0  0  0  0  0  0  0  0  0
  185.8620  177.9990  146.4220 C   0  0  0  0  0  3  0  0  0  0  0  0
  186.1150  178.7940  140.1120 O   0  0  0  0  0  0  0  0  0  0  0  0
  184.7880  178.6210  144.6130 C   0  0  0  0  0  0  0  0  0  0  0  0
  184.6270  178.4840  145.9720 C   0  0  0  0  0  3  0  0  0  0  0  0
  188.3650  178.0630  139.8430 C   0  0  0  0  0  0  0  0  0  0  0  0
  188.3170  178.2770  138.3690 C   0  0  0  0  0  1  0  0  0  0  0  0
  188.5090  177.6420  142.5790 N   0  0  0  0  0  0  0  0  0  0  0  0
  188.1220  177.3660  145.4130 C   0  0  0  0  0  1  0  0  0  0  0  0
  185.0660  178.8610  142.2130 C   0  0  0  0  0  0  0  0  0  0  0  0
  183.8170  179.1300  143.3360 S   0  0  0  0  0  0  0  0  0  0  0  0
  189.5410  177.5830  140.4240 C   0  0  0  0  0  3  0  0  0  0  0  0
  186.7210  177.8600  145.3290 C   0  0  0  0  0  0  0  0  0  0  0  0
  189.5970  177.3820  141.8060 C   0  0  0  0  0  0  0  0  0  0  0  0
  187.2510  178.3330  140.6490 C   0  0  0  0  0  0  0  0  0  0  0  0
  190.8400  176.8520  142.4270 C   0  0  0  0  0  2  0  0  0  0  0  0
  191.1910  177.6660  143.6590 C   0  0  0  0  0  2  0  0  0  0  0  0
  191.6640  176.7610  144.7480 C   0  0  0  0  0  0  0  0  0  0  0  0
  191.9020  175.5540  144.4800 O   0  0  0  0  0  0  0  0  0  0  0  0
  191.8220  177.2120  146.0610 O   0  0  0  0  0  0  0  0  0  0  0  0
  191.6210  176.3830  147.1630 C   0  0  0  0  0  3  0  0  0  0  0  0
  192.5990  176.0320  147.8710 O   0  0  0  0  0  0  0  0  0  0  0  0
  1  4  2  0  0  0  0
  2 11  1  0  0  0  0
  2  1  1  0  0  0  0
  3 13  2  0  0  0  0
  4  7  1  0  0  0  0
  4 16  1  0  0  0  0
  6 18  1  0  0  0  0
  6  3  1  0  0  0  0
  7  8  2  0  0  0  0
  8  5  1  0  0  0  0
  9 15  2  0  0  0  0
  9 18  1  0  0  0  0
 10  9  1  0  0  0  0
 13  1  1  0  0  0  0
 13 14  1  0  0  0  0
 14  7  1  0  0  0  0
 15 17  1  0  0  0  0
 16 12  1  0  0  0  0
 16  5  2  0  0  0  0
 17 19  1  0  0  0  0
 17 11  2  0  0  0  0
 18  2  2  0  0  0  0
 19 20  1  0  0  0  0
 20 21  1  0  0  0  0
 21 23  1  0  0  0  0
 22 21  2  0  0  0  0
 23 24  1  0  0  0  0
 24 25  2  0  0  0  0
M  END
>  <MODEL>
2

>  <REMARK>
 VINA RESULT:      -9.0      2.096      5.469
  Name = 
  5 active torsions:
  status: ('A' for Active; 'I' for Inactive)
    1  A    between atoms: C_2  and  O_12
    2  A    between atoms: C_6  and  C_15
    3  A    between atoms: C_6  and  C_23
    4  A    between atoms: O_12  and  C_21
    5  A    between atoms: C_15  and  C_21
                            x       y       z     vdW  Elec       q    Type
                         _______ _______ _______ _____ _____    ______ ____

>  <TORSDO>
F 5

$$$$
=
 OpenBabel10272400463D

 25 28  0  0  0  0  0  0  0  0999 V2000
  187.6440  177.7110  145.7540 C   0  0  0  0  0  0  0  0  0  0  0  0
  188.9620  177.2750  145.5820 C   0  0  0  0  0  0  0  0  0  0  0  0
  187.9740  177.6990  148.1510 C   0  0  0  0  0  3  0  0  0  0  0  0
  186.6500  177.9980  144.8100 C   0  0  0  0  0  0  0  0  0  0  0  0
  185.1780  178.4180  143.1840 C   0  0  0  0  0  3  0  0  0  0  0  0
  189.2270  177.2850  147.9620 O   0  0  0  0  0  0  0  0  0  0  0  0
  185.4830  178.3990  145.3560 C   0  0  0  0  0  0  0  0  0  0  0  0
  184.5330  178.6730  144.4010 C   0  0  0  0  0  3  0  0  0  0  0  0
  191.0690  176.6360  146.6000 C   0  0  0  0  0  0  0  0  0  0  0  0
  191.9390  176.4070  147.7880 C   0  0  0  0  0  1  0  0  0  0  0  0
  189.4970  177.0490  144.3540 N   0  0  0  0  0  0  0  0  0  0  0  0
  187.4800  177.6410  142.3950 C   0  0  0  0  0  1  0  0  0  0  0  0
  187.1590  177.9190  147.0460 C   0  0  0  0  0  0  0  0  0  0  0  0
  185.5410  178.4460  147.0380 S   0  0  0  0  0  0  0  0  0  0  0  0
  191.5890  176.4150  145.3220 C   0  0  0  0  0  3  0  0  0  0  0  0
  186.4860  178.0010  143.4420 C   0  0  0  0  0  0  0  0  0  0  0  0
  190.7800  176.6240  144.2010 C   0  0  0  0  0  0  0  0  0  0  0  0
  189.7450  177.0680  146.7460 C   0  0  0  0  0  0  0  0  0  0  0  0
  191.3340  176.4100  142.8380 C   0  0  0  0  0  2  0  0  0  0  0  0
  191.0650  177.6270  141.9720 C   0  0  0  0  0  2  0  0  0  0  0  0
  191.5740  177.3880  140.5890 C   0  0  0  0  0  0  0  0  0  0  0  0
  192.8100  177.4750  140.3680 O   0  0  0  0  0  0  0  0  0  0  0  0
  190.7110  177.1010  139.5290 O   0  0  0  0  0  0  0  0  0  0  0  0
  191.0900  176.2980  138.4550 C   0  0  0  0  0  3  0  0  0  0  0  0
  190.8170  175.0710  138.4610 O   0  0  0  0  0  0  0  0  0  0  0  0
  1 13  1  0  0  0  0
  2  1  1  0  0  0  0
  2 18  1  0  0  0  0
  4  7  1  0  0  0  0
  4  1  2  0  0  0  0
  5 16  2  0  0  0  0
  5  8  1  0  0  0  0
  6  3  1  0  0  0  0
  7 14  1  0  0  0  0
  8  7  2  0  0  0  0
  9 18  2  0  0  0  0
  9 10  1  0  0  0  0
 11  2  2  0  0  0  0
 12 16  1  0  0  0  0
 13  3  2  0  0  0  0
 14 13  1  0  0  0  0
 15  9  1  0  0  0  0
 16  4  1  0  0  0  0
 17 11  1  0  0  0  0
 17 15  2  0  0  0  0
 18  6  1  0  0  0  0
 19 17  1  0  0  0  0
 20 19  1  0  0  0  0
 21 20  1  0  0  0  0
 22 21  2  0  0  0  0
 23 21  1  0  0  0  0
 24 25  2  0  0  0  0
 24 23  1  0  0  0  0
M  END
>  <MODEL>
3

>  <REMARK>
 VINA RESULT:      -9.0      0.779      1.034
  Name = 
  5 active torsions:
  status: ('A' for Active; 'I' for Inactive)
    1  A    between atoms: C_2  and  O_12
    2  A    between atoms: C_6  and  C_15
    3  A    between atoms: C_6  and  C_23
    4  A    between atoms: O_12  and  C_21
    5  A    between atoms: C_15  and  C_21
                            x       y       z     vdW  Elec       q    Type
                         _______ _______ _______ _____ _____    ______ ____

>  <TORSDO>
F 5

$$$$
=
 OpenBabel10272400463D

 25 28  0  0  0  0  0  0  0  0999 V2000
  187.4460  177.9150  145.9430 C   0  0  0  0  0  0  0  0  0  0  0  0
  186.6300  178.1530  144.8310 C   0  0  0  0  0  0  0  0  0  0  0  0
  185.5940  178.4740  147.3950 C   0  0  0  0  0  3  0  0  0  0  0  0
  188.7860  177.5140  146.0190 C   0  0  0  0  0  0  0  0  0  0  0  0
  190.9240  176.8710  145.9720 C   0  0  0  0  0  3  0  0  0  0  0  0
  184.8360  178.6940  146.3210 O   0  0  0  0  0  0  0  0  0  0  0  0
  189.2420  177.3850  147.2820 C   0  0  0  0  0  0  0  0  0  0  0  0
  190.5580  176.9890  147.3190 C   0  0  0  0  0  3  0  0  0  0  0  0
  184.4540  178.7920  143.9720 C   0  0  0  0  0  0  0  0  0  0  0  0
  183.0360  179.2090  144.1640 C   0  0  0  0  0  1  0  0  0  0  0  0
  187.0820  178.0150  143.5570 N   0  0  0  0  0  0  0  0  0  0  0  0
  189.8290  177.1830  143.6850 C   0  0  0  0  0  1  0  0  0  0  0  0
  186.9160  178.0800  147.2230 C   0  0  0  0  0  0  0  0  0  0  0  0
  188.0650  177.7420  148.4310 S   0  0  0  0  0  0  0  0  0  0  0  0
  184.9490  178.6390  142.6760 C   0  0  0  0  0  3  0  0  0  0  0  0
  189.8250  177.1970  145.1720 C   0  0  0  0  0  0  0  0  0  0  0  0
  186.2790  178.2510  142.4850 C   0  0  0  0  0  0  0  0  0  0  0  0
  185.2910  178.5520  145.0700 C   0  0  0  0  0  0  0  0  0  0  0  0
  186.8060  178.0670  141.1070 C   0  0  0  0  0  2  0  0  0  0  0  0
  188.1640  178.7340  140.9790 C   0  0  0  0  0  2  0  0  0  0  0  0
  188.8600  178.2350  139.7550 C   0  0  0  0  0  0  0  0  0  0  0  0
  188.9860  179.0030  138.7670 O   0  0  0  0  0  0  0  0  0  0  0  0
  189.3490  176.9290  139.6710 O   0  0  0  0  0  0  0  0  0  0  0  0
  190.6130  176.6370  139.1610 C   0  0  0  0  0  3  0  0  0  0  0  0
  190.8430  175.5060  138.6630 O   0  0  0  0  0  0  0  0  0  0  0  0
  1  4  2  0  0  0  0
  1 13  1  0  0  0  0
  2 18  1  0  0  0  0
  2  1  1  0  0  0  0
  4  7  1  0  0  0  0
  5  8  1  0  0  0  0
  6  3  1  0  0  0  0
  7  8  2  0  0  0  0
  7 14  1  0  0  0  0
  9 10  1  0  0  0  0
  9 18  2  0  0  0  0
 11  2  2  0  0  0  0
 12 16  1  0  0  0  0
 13  3  2  0  0  0  0
 13 14  1  0  0  0  0
 15  9  1  0  0  0  0
 16  5  2  0  0  0  0
 16  4  1  0  0  0  0
 17 15  2  0  0  0  0
 17 11  1  0  0  0  0
 18  6  1  0  0  0  0
 19 17  1  0  0  0  0
 20 19  1  0  0  0  0
 21 20  1  0  0  0  0
 22 21  2  0  0  0  0
 23 21  1  0  0  0  0
 24 23  1  0  0  0  0
 25 24  2  0  0  0  0
M  END
>  <MODEL>
4

>  <REMARK>
 VINA RESULT:      -8.9      1.728      4.643
  Name = 
  5 active torsions:
  status: ('A' for Active; 'I' for Inactive)
    1  A    between atoms: C_2  and  O_12
    2  A    between atoms: C_6  and  C_15
    3  A    between atoms: C_6  and  C_23
    4  A    between atoms: O_12  and  C_21
    5  A    between atoms: C_15  and  C_21
                            x       y       z     vdW  Elec       q    Type
                         _______ _______ _______ _____ _____    ______ ____

>  <TORSDO>
F 5

$$$$
=
 OpenBabel10272400463D

 25 28  0  0  0  0  0  0  0  0999 V2000
  186.8690  177.9160  144.9100 C   0  0  0  0  0  0  0  0  0  0  0  0
  188.0090  177.5350  144.1940 C   0  0  0  0  0  0  0  0  0  0  0  0
  188.0640  177.5340  146.9780 C   0  0  0  0  0  3  0  0  0  0  0  0
  185.6090  178.3320  144.4610 C   0  0  0  0  0  0  0  0  0  0  0  0
  183.6580  178.9770  143.5870 C   0  0  0  0  0  3  0  0  0  0  0  0
  189.1390  177.1760  146.2740 O   0  0  0  0  0  0  0  0  0  0  0  0
  184.7460  178.6220  145.4580 C   0  0  0  0  0  0  0  0  0  0  0  0
  183.5220  179.0270  144.9800 C   0  0  0  0  0  3  0  0  0  0  0  0
  190.3130  176.7800  144.2410 C   0  0  0  0  0  0  0  0  0  0  0  0
  191.5510  176.3810  144.9680 C   0  0  0  0  0  1  0  0  0  0  0  0
  188.0390  177.5150  142.8360 N   0  0  0  0  0  0  0  0  0  0  0  0
  185.4660  178.3730  141.8870 C   0  0  0  0  0  1  0  0  0  0  0  0
  186.9080  177.9110  146.3050 C   0  0  0  0  0  0  0  0  0  0  0  0
  185.4270  178.4050  146.9820 S   0  0  0  0  0  0  0  0  0  0  0  0
  190.3110  176.7710  142.8440 C   0  0  0  0  0  3  0  0  0  0  0  0
  184.9490  178.5470  143.2710 C   0  0  0  0  0  0  0  0  0  0  0  0
  189.1540  177.1400  142.1530 C   0  0  0  0  0  0  0  0  0  0  0  0
  189.1580  177.1610  144.9360 C   0  0  0  0  0  0  0  0  0  0  0  0
  189.1520  177.1520  140.6650 C   0  0  0  0  0  2  0  0  0  0  0  0
  188.7550  178.5270  140.1590 C   0  0  0  0  0  2  0  0  0  0  0  0
  188.4110  178.4530  138.7080 C   0  0  0  0  0  0  0  0  0  0  0  0
  189.0110  179.2060  137.8980 O   0  0  0  0  0  0  0  0  0  0  0  0
  187.4200  177.5910  138.2320 O   0  0  0  0  0  0  0  0  0  0  0  0
  186.2070  178.0560  137.7270 C   0  0  0  0  0  3  0  0  0  0  0  0
  185.5250  178.8790  138.3910 O   0  0  0  0  0  0  0  0  0  0  0  0
  1 13  1  0  0  0  0
  2  1  1  0  0  0  0
  2 18  1  0  0  0  0
  4  1  2  0  0  0  0
  4  7  1  0  0  0  0
  5  8  1  0  0  0  0
  6  3  1  0  0  0  0
  7 14  1  0  0  0  0
  8  7  2  0  0  0  0
  9 18  2  0  0  0  0
  9 10  1  0  0  0  0
 11  2  2  0  0  0  0
 12 16  1  0  0  0  0
 13  3  2  0  0  0  0
 13 14  1  0  0  0  0
 15  9  1  0  0  0  0
 16  5  2  0  0  0  0
 16  4  1  0  0  0  0
 17 11  1  0  0  0  0
 17 15  2  0  0  0  0
 18  6  1  0  0  0  0
 19 17  1  0  0  0  0
 20 19  1  0  0  0  0
 21 20  1  0  0  0  0
 22 21  2  0  0  0  0
 23 21  1  0  0  0  0
 24 23  1  0  0  0  0
 24 25  2  0  0  0  0
M  END
>  <MODEL>
5

>  <REMARK>
 VINA RESULT:      -8.8      1.734      2.480
  Name = 
  5 active torsions:
  status: ('A' for Active; 'I' for Inactive)
    1  A    between atoms: C_2  and  O_12
    2  A    between atoms: C_6  and  C_15
    3  A    between atoms: C_6  and  C_23
    4  A    between atoms: O_12  and  C_21
    5  A    between atoms: C_15  and  C_21
                            x       y       z     vdW  Elec       q    Type
                         _______ _______ _______ _____ _____    ______ ____

>  <TORSDO>
F 5

$$$$
=
 OpenBabel10272400463D

 25 28  0  0  0  0  0  0  0  0999 V2000
  189.3340  177.5100  144.2920 C   0  0  0  0  0  0  0  0  0  0  0  0
  188.5250  177.8120  143.1900 C   0  0  0  0  0  0  0  0  0  0  0  0
  191.2480  177.3630  142.8210 C   0  0  0  0  0  3  0  0  0  0  0  0
  189.0110  177.3800  145.6490 C   0  0  0  0  0  0  0  0  0  0  0  0
  188.3380  177.2120  147.7710 C   0  0  0  0  0  3  0  0  0  0  0  0
  190.4580  177.6550  141.7870 O   0  0  0  0  0  0  0  0  0  0  0  0
  190.0680  177.0760  146.4300 C   0  0  0  0  0  0  0  0  0  0  0  0
  189.7160  176.9580  147.7540 C   0  0  0  0  0  3  0  0  0  0  0  0
  188.3570  178.1840  140.7990 C   0  0  0  0  0  0  0  0  0  0  0  0
  188.9550  178.2710  139.4380 C   0  0  0  0  0  1  0  0  0  0  0  0
  187.1900  178.0390  143.3100 N   0  0  0  0  0  0  0  0  0  0  0  0
  186.5040  177.7900  146.0890 C   0  0  0  0  0  1  0  0  0  0  0  0
  190.6970  177.2860  144.0940 C   0  0  0  0  0  0  0  0  0  0  0  0
  191.4980  176.9340  145.5530 S   0  0  0  0  0  0  0  0  0  0  0  0
  186.9880  178.4130  140.9580 C   0  0  0  0  0  3  0  0  0  0  0  0
  187.9080  177.4730  146.4680 C   0  0  0  0  0  0  0  0  0  0  0  0
  186.4170  178.3310  142.2310 C   0  0  0  0  0  0  0  0  0  0  0  0
  189.1440  177.8780  141.9170 C   0  0  0  0  0  0  0  0  0  0  0  0
  184.9630  178.5940  142.4090 C   0  0  0  0  0  2  0  0  0  0  0  0
  184.7410  179.4670  143.6300 C   0  0  0  0  0  2  0  0  0  0  0  0
  183.5060  179.0290  144.3480 C   0  0  0  0  0  0  0  0  0  0  0  0
  183.4450  179.1630  145.5980 O   0  0  0  0  0  0  0  0  0  0  0  0
  182.4320  178.4470  143.6720 O   0  0  0  0  0  0  0  0  0  0  0  0
  181.2810  179.1630  143.3450 C   0  0  0  0  0  3  0  0  0  0  0  0
  181.1130  179.5780  142.1700 O   0  0  0  0  0  0  0  0  0  0  0  0
  1  4  2  0  0  0  0
  2 11  1  0  0  0  0
  2  1  1  0  0  0  0
  3 13  2  0  0  0  0
  4  7  1  0  0  0  0
  4 16  1  0  0  0  0
  6 18  1  0  0  0  0
  6  3  1  0  0  0  0
  7  8  2  0  0  0  0
  8  5  1  0  0  0  0
  9 15  2  0  0  0  0
  9 18  1  0  0  0  0
 10  9  1  0  0  0  0
 12 16  1  0  0  0  0
 13  1  1  0  0  0  0
 13 14  1  0  0  0  0
 14  7  1  0  0  0  0
 15 17  1  0  0  0  0
 16  5  2  0  0  0  0
 17 19  1  0  0  0  0
 17 11  2  0  0  0  0
 18  2  2  0  0  0  0
 19 20  1  0  0  0  0
 20 21  1  0  0  0  0
 21 22  2  0  0  0  0
 23 21  1  0  0  0  0
 24 23  1  0  0  0  0
 25 24  2  0  0  0  0
M  END
>  <MODEL>
6

>  <REMARK>
 VINA RESULT:      -8.7      3.186      6.411
  Name = 
  5 active torsions:
  status: ('A' for Active; 'I' for Inactive)
    1  A    between atoms: C_2  and  O_12
    2  A    between atoms: C_6  and  C_15
    3  A    between atoms: C_6  and  C_23
    4  A    between atoms: O_12  and  C_21
    5  A    between atoms: C_15  and  C_21
                            x       y       z     vdW  Elec       q    Type
                         _______ _______ _______ _____ _____    ______ ____

>  <TORSDO>
F 5

$$$$
=
 OpenBabel10272400463D

 25 28  0  0  0  0  0  0  0  0999 V2000
  185.7540  178.4080  144.5080 C   0  0  0  0  0  0  0  0  0  0  0  0
  186.9540  178.1370  145.1760 C   0  0  0  0  0  0  0  0  0  0  0  0
  184.6150  178.5200  146.6390 C   0  0  0  0  0  3  0  0  0  0  0  0
  185.4840  178.5350  143.1390 C   0  0  0  0  0  0  0  0  0  0  0  0
  185.2180  178.7090  140.9290 C   0  0  0  0  0  3  0  0  0  0  0  0
  185.7700  178.2620  147.2530 O   0  0  0  0  0  0  0  0  0  0  0  0
  184.1900  178.8030  142.8650 C   0  0  0  0  0  0  0  0  0  0  0  0
  183.9630  178.9220  141.5140 C   0  0  0  0  0  3  0  0  0  0  0  0
  188.1070  177.8050  147.2840 C   0  0  0  0  0  0  0  0  0  0  0  0
  188.1300  177.7290  148.7720 C   0  0  0  0  0  1  0  0  0  0  0  0
  188.1240  177.9400  144.5150 N   0  0  0  0  0  0  0  0  0  0  0  0
  187.5990  178.2050  141.7020 C   0  0  0  0  0  1  0  0  0  0  0  0
  184.5890  178.5970  145.2520 C   0  0  0  0  0  0  0  0  0  0  0  0
  183.2470  178.9140  144.2540 S   0  0  0  0  0  0  0  0  0  0  0  0
  189.2930  177.6090  146.5730 C   0  0  0  0  0  3  0  0  0  0  0  0
  186.1540  178.4710  141.9370 C   0  0  0  0  0  0  0  0  0  0  0  0
  189.2820  177.6750  145.1770 C   0  0  0  0  0  0  0  0  0  0  0  0
  186.9180  178.0710  146.5920 C   0  0  0  0  0  0  0  0  0  0  0  0
  190.5460  177.4870  144.4160 C   0  0  0  0  0  2  0  0  0  0  0  0
  190.3930  176.3400  143.4330 C   0  0  0  0  0  2  0  0  0  0  0  0
  190.8900  176.7560  142.0880 C   0  0  0  0  0  0  0  0  0  0  0  0
  191.7550  177.6670  142.0100 O   0  0  0  0  0  0  0  0  0  0  0  0
  190.3990  176.1800  140.9140 O   0  0  0  0  0  0  0  0  0  0  0  0
  190.5260  176.7970  139.6710 C   0  0  0  0  0  3  0  0  0  0  0  0
  190.6630  176.0980  138.6340 O   0  0  0  0  0  0  0  0  0  0  0  0
  1  2  1  0  0  0  0
  1 13  1  0  0  0  0
  2 18  1  0  0  0  0
  3  6  1  0  0  0  0
  4  1  2  0  0  0  0
  5  8  1  0  0  0  0
  5 16  2  0  0  0  0
  7  4  1  0  0  0  0
  7 14  1  0  0  0  0
  8  7  2  0  0  0  0
  9 10  1  0  0  0  0
 11  2  2  0  0  0  0
 11 17  1  0  0  0  0
 12 16  1  0  0  0  0
 13  3  2  0  0  0  0
 14 13  1  0  0  0  0
 15  9  1  0  0  0  0
 16  4  1  0  0  0  0
 17 15  2  0  0  0  0
 18  6  1  0  0  0  0
 18  9  2  0  0  0  0
 19 17  1  0  0  0  0
 20 19  1  0  0  0  0
 21 20  1  0  0  0  0
 22 21  2  0  0  0  0
 23 21  1  0  0  0  0
 24 23  1  0  0  0  0
 25 24  2  0  0  0  0
M  END
>  <MODEL>
7

>  <REMARK>
 VINA RESULT:      -8.6      1.793      2.663
  Name = 
  5 active torsions:
  status: ('A' for Active; 'I' for Inactive)
    1  A    between atoms: C_2  and  O_12
    2  A    between atoms: C_6  and  C_15
    3  A    between atoms: C_6  and  C_23
    4  A    between atoms: O_12  and  C_21
    5  A    between atoms: C_15  and  C_21
                            x       y       z     vdW  Elec       q    Type
                         _______ _______ _______ _____ _____    ______ ____

>  <TORSDO>
F 5

$$$$
=
 OpenBabel10272400463D

 25 28  0  0  0  0  0  0  0  0999 V2000
  188.4170  177.5020  145.2280 C   0  0  0  0  0  0  0  0  0  0  0  0
  187.9690  177.7860  143.9330 C   0  0  0  0  0  0  0  0  0  0  0  0
  186.1770  177.8690  146.0630 C   0  0  0  0  0  3  0  0  0  0  0  0
  189.6920  177.1560  145.6940 C   0  0  0  0  0  0  0  0  0  0  0  0
  191.7780  176.6120  146.2760 C   0  0  0  0  0  3  0  0  0  0  0  0
  185.7720  178.1350  144.8210 O   0  0  0  0  0  0  0  0  0  0  0  0
  189.7460  176.9530  147.0270 C   0  0  0  0  0  0  0  0  0  0  0  0
  191.0100  176.6140  147.4470 C   0  0  0  0  0  3  0  0  0  0  0  0
  186.1240  178.3910  142.4800 C   0  0  0  0  0  0  0  0  0  0  0  0
  184.6920  178.7300  142.2450 C   0  0  0  0  0  1  0  0  0  0  0  0
  188.7970  177.7630  142.8570 N   0  0  0  0  0  0  0  0  0  0  0  0
  191.4200  177.0450  143.7840 C   0  0  0  0  0  1  0  0  0  0  0  0
  187.5100  177.5480  146.2880 C   0  0  0  0  0  0  0  0  0  0  0  0
  188.2520  177.1720  147.7720 S   0  0  0  0  0  0  0  0  0  0  0  0
  187.0020  178.3570  141.3940 C   0  0  0  0  0  3  0  0  0  0  0  0
  190.9590  176.9480  145.1950 C   0  0  0  0  0  0  0  0  0  0  0  0
  188.3480  178.0430  141.6040 C   0  0  0  0  0  0  0  0  0  0  0  0
  186.5970  178.1070  143.7670 C   0  0  0  0  0  0  0  0  0  0  0  0
  189.2840  177.9860  140.4500 C   0  0  0  0  0  2  0  0  0  0  0  0
  188.6080  177.3130  139.2690 C   0  0  0  0  0  2  0  0  0  0  0  0
  188.8290  178.1200  138.0310 C   0  0  0  0  0  0  0  0  0  0  0  0
  188.9520  179.3680  138.1290 O   0  0  0  0  0  0  0  0  0  0  0  0
  188.8740  177.5270  136.7670 O   0  0  0  0  0  0  0  0  0  0  0  0
  187.7450  177.4110  135.9580 C   0  0  0  0  0  3  0  0  0  0  0  0
  187.0920  178.4390  135.6410 O   0  0  0  0  0  0  0  0  0  0  0  0
  1  4  2  0  0  0  0
  1 13  1  0  0  0  0
  2  1  1  0  0  0  0
  3 13  2  0  0  0  0
  4  7  1  0  0  0  0
  5  8  1  0  0  0  0
  6  3  1  0  0  0  0
  7  8  2  0  0  0  0
  7 14  1  0  0  0  0
  9 18  2  0  0  0  0
 10  9  1  0  0  0  0
 11  2  2  0  0  0  0
 12 16  1  0  0  0  0
 13 14  1  0  0  0  0
 15 17  2  0  0  0  0
 15  9  1  0  0  0  0
 16  4  1  0  0  0  0
 16  5  2  0  0  0  0
 17 11  1  0  0  0  0
 18  2  1  0  0  0  0
 18  6  1  0  0  0  0
 19 17  1  0  0  0  0
 20 19  1  0  0  0  0
 21 22  2  0  0  0  0
 21 20  1  0  0  0  0
 23 21  1  0  0  0  0
 24 23  1  0  0  0  0
 25 24  2  0  0  0  0
M  END
>  <MODEL>
8

>  <REMARK>
 VINA RESULT:      -8.3      1.958      4.692
  Name = 
  5 active torsions:
  status: ('A' for Active; 'I' for Inactive)
    1  A    between atoms: C_2  and  O_12
    2  A    between atoms: C_6  and  C_15
    3  A    between atoms: C_6  and  C_23
    4  A    between atoms: O_12  and  C_21
    5  A    between atoms: C_15  and  C_21
                            x       y       z     vdW  Elec       q    Type
                         _______ _______ _______ _____ _____    ______ ____

>  <TORSDO>
F 5

$$$$
=
 OpenBabel10272400463D

 25 28  0  0  0  0  0  0  0  0999 V2000
  187.2520  178.0830  141.5600 C   0  0  0  0  0  0  0  0  0  0  0  0
  186.5380  178.1730  142.7610 C   0  0  0  0  0  0  0  0  0  0  0  0
  185.3140  178.9070  140.3700 C   0  0  0  0  0  3  0  0  0  0  0  0
  188.5650  177.6640  141.3110 C   0  0  0  0  0  0  0  0  0  0  0  0
  190.6750  176.9710  141.0810 C   0  0  0  0  0  3  0  0  0  0  0  0
  184.6540  178.9860  141.5260 O   0  0  0  0  0  0  0  0  0  0  0  0
  188.9120  177.7120  140.0080 C   0  0  0  0  0  0  0  0  0  0  0  0
  190.2050  177.2960  139.8020 C   0  0  0  0  0  3  0  0  0  0  0  0
  184.4690  178.7480  143.8890 C   0  0  0  0  0  0  0  0  0  0  0  0
  183.0630  179.2410  143.8840 C   0  0  0  0  0  1  0  0  0  0  0  0
  187.0840  177.8280  143.9560 N   0  0  0  0  0  0  0  0  0  0  0  0
  189.7840  176.9720  143.4750 C   0  0  0  0  0  1  0  0  0  0  0  0
  186.6270  178.4530  140.3680 C   0  0  0  0  0  0  0  0  0  0  0  0
  187.6610  178.2700  139.0290 S   0  0  0  0  0  0  0  0  0  0  0  0
  185.0600  178.3860  145.1010 C   0  0  0  0  0  3  0  0  0  0  0  0
  189.6570  177.2000  142.0100 C   0  0  0  0  0  0  0  0  0  0  0  0
  186.3780  177.9190  145.1150 C   0  0  0  0  0  0  0  0  0  0  0  0
  185.2020  178.6450  142.6990 C   0  0  0  0  0  0  0  0  0  0  0  0
  187.0190  177.5510  146.4060 C   0  0  0  0  0  2  0  0  0  0  0  0
  188.4730  177.9880  146.4050 C   0  0  0  0  0  2  0  0  0  0  0  0
  189.1620  177.4590  147.6190 C   0  0  0  0  0  0  0  0  0  0  0  0
  188.9380  177.9980  148.7340 O   0  0  0  0  0  0  0  0  0  0  0  0
  190.0710  176.4000  147.5440 O   0  0  0  0  0  0  0  0  0  0  0  0
  191.4420  176.6040  147.4060 C   0  0  0  0  0  3  0  0  0  0  0  0
  191.9160  176.9570  146.2960 O   0  0  0  0  0  0  0  0  0  0  0  0
  1  2  1  0  0  0  0
  2 11  1  0  0  0  0
  3  6  1  0  0  0  0
  4  1  2  0  0  0  0
  4 16  1  0  0  0  0
  5 16  2  0  0  0  0
  6 18  1  0  0  0  0
  7  4  1  0  0  0  0
  8  7  2  0  0  0  0
  8  5  1  0  0  0  0
  9 15  2  0  0  0  0
 10  9  1  0  0  0  0
 11 17  2  0  0  0  0
 13  3  2  0  0  0  0
 13  1  1  0  0  0  0
 14  7  1  0  0  0  0
 14 13  1  0  0  0  0
 15 17  1  0  0  0  0
 16 12  1  0  0  0  0
 17 19  1  0  0  0  0
 18  2  2  0  0  0  0
 18  9  1  0  0  0  0
 20 19  1  0  0  0  0
 20 21  1  0  0  0  0
 21 22  2  0  0  0  0
 23 21  1  0  0  0  0
 24 23  1  0  0  0  0
 25 24  2  0  0  0  0
M  END
>  <MODEL>
9

>  <REMARK>
 VINA RESULT:      -8.2      2.792      6.700
  Name = 
  5 active torsions:
  status: ('A' for Active; 'I' for Inactive)
    1  A    between atoms: C_2  and  O_12
    2  A    between atoms: C_6  and  C_15
    3  A    between atoms: C_6  and  C_23
    4  A    between atoms: O_12  and  C_21
    5  A    between atoms: C_15  and  C_21
                            x       y       z     vdW  Elec       q    Type
                         _______ _______ _______ _____ _____    ______ ____

>  <TORSDO>
F 5

$$$$
