=
 OpenBabel10272415323D

 34 39  0  0  1  0  0  0  0  0999 V2000
  186.9050  177.3100  136.2940 C   0  0  1  0  0  3  0  0  0  0  0  0
  189.6410  176.2500  138.7430 C   0  0  0  0  0  0  0  0  0  0  0  0
  189.1060  175.1160  136.6030 C   0  0  1  0  0  3  0  0  0  0  0  0
  189.0020  178.0160  135.1170 C   0  0  0  0  0  2  0  0  0  0  0  0
  189.0480  176.7130  134.3460 C   0  0  0  0  0  2  0  0  0  0  0  0
  188.1220  174.7960  135.5110 C   0  0  0  0  0  2  0  0  0  0  0  0
  187.5500  178.3740  135.4070 C   0  0  0  0  0  2  0  0  0  0  0  0
  189.4490  175.4580  135.1380 C   0  0  2  0  0  3  0  0  0  0  0  0
  190.7140  175.3640  138.8120 O   0  0  0  0  0  1  0  0  0  0  0  0
  189.4000  177.1470  139.8060 C   0  0  0  0  0  0  0  0  0  0  0  0
  188.3160  178.0240  139.7210 C   0  0  0  0  0  3  0  0  0  0  0  0
  188.8010  176.2260  137.6050 C   0  0  0  0  0  0  0  0  0  0  0  0
  187.4890  178.0210  138.6060 C   0  0  0  0  0  3  0  0  0  0  0  0
  187.6980  177.1230  137.5530 C   0  0  0  0  0  0  0  0  0  0  0  0
  184.5050  176.6130  135.5690 C   0  0  1  0  0  3  0  0  0  0  0  0
  183.4360  175.5450  138.3220 C   0  0  0  0  0  2  0  0  0  0  0  0
  183.5700  173.1930  134.5820 C   0  0  0  0  0  2  0  0  0  0  0  0
  185.0310  177.5260  137.9990 C   0  0  1  0  0  3  0  0  0  0  0  0
  185.3930  177.4770  136.5000 C   0  0  1  0  0  3  0  0  0  0  0  0
  183.5070  172.5280  136.9690 C   0  0  0  0  0  0  0  0  0  0  0  0
  183.1270  174.4600  135.2880 C   0  0  2  0  0  3  0  0  0  0  0  0
  183.3150  171.3660  137.2910 O   0  0  0  0  0  0  0  0  0  0  0  0
  184.3440  175.1190  135.9530 C   0  0  2  0  0  3  0  0  0  0  0  0
  185.2470  178.8230  138.4710 O   0  0  0  0  0  1  0  0  0  0  0  0
  183.1580  177.5810  139.5290 O   0  0  0  0  0  1  0  0  0  0  0  0
  182.7060  173.0860  135.8210 C   0  0  1  0  0  3  0  0  0  0  0  0
  184.5140  173.3300  137.7490 C   0  0  2  0  0  3  0  0  0  0  0  0
  184.4630  174.8210  137.4520 C   0  0  2  0  0  3  0  0  0  0  0  0
  185.9150  172.8000  137.5000 C   0  0  0  0  0  1  0  0  0  0  0  0
  183.5920  177.0710  138.3030 C   0  0  2  0  0  3  0  0  0  0  0  0
  183.1950  177.3360  135.2740 C   0  0  0  0  0  1  0  0  0  0  0  0
  190.2540  177.1950  141.0170 C   0  0  0  0  0  0  0  0  0  0  0  0
  191.5810  177.6010  140.9460 O   0  0  0  0  0  0  0  0  0  0  0  0
  189.7790  176.8670  142.1370 O   0  0  0  0  0  1  0  0  0  0  0  0
  1  7  1  1  0  0  0
  1 14  1  0  0  0  0
  2  9  1  0  0  0  0
  2 10  1  0  0  0  0
  3  6  1  6  0  0  0
  3 12  1  0  0  0  0
  4  7  1  0  0  0  0
  5  4  1  0  0  0  0
  8  5  1  1  0  0  0
  8  6  1  0  0  0  0
  8  3  1  0  0  0  0
 10 32  1  0  0  0  0
 11 10  2  0  0  0  0
 12  2  2  0  0  0  0
 13 11  1  0  0  0  0
 14 12  1  0  0  0  0
 14 13  2  0  0  0  0
 15 31  1  1  0  0  0
 15 23  1  0  0  0  0
 15 19  1  0  0  0  0
 17 26  1  0  0  0  0
 18 30  1  0  0  0  0
 18 24  1  6  0  0  0
 19  1  1  1  0  0  0
 19 18  1  0  0  0  0
 20 22  2  0  0  0  0
 20 27  1  0  0  0  0
 21 17  1  6  0  0  0
 21 26  1  0  0  0  0
 21 23  1  0  0  0  0
 23 28  1  0  0  0  0
 26 20  1  0  0  0  0
 28 27  1  0  0  0  0
 28 16  1  0  0  0  0
 29 27  1  0  0  0  0
 30 16  1  0  0  0  0
 30 25  1  0  0  0  0
 32 34  1  0  0  0  0
 33 32  2  0  0  0  0
M  END
>  <MODEL>
1

>  <REMARK>
 VINA RESULT:      -7.1      0.000      0.000
  Name = 
  2 active torsions:
  status: ('A' for Active; 'I' for Inactive)
    1  A    between atoms: C_1  and  C_9
    2  A    between atoms: C_3  and  C_25
                            x       y       z     vdW  Elec       q    Type
                         _______ _______ _______ _____ _____    ______ ____

>  <TORSDO>
F 2

$$$$
=
 OpenBabel10272415323D

 34 39  0  0  1  0  0  0  0  0999 V2000
  182.5290  175.5500  136.3230 C   0  0  1  0  0  3  0  0  0  0  0  0
  181.8100  178.3790  138.7890 C   0  0  0  0  0  0  0  0  0  0  0  0
  181.5190  178.5050  136.3290 C   0  0  1  0  0  3  0  0  0  0  0  0
  180.0230  175.6090  136.3800 C   0  0  0  0  0  2  0  0  0  0  0  0
  179.9840  176.5190  135.1690 C   0  0  0  0  0  2  0  0  0  0  0  0
  181.8770  178.0210  134.9510 C   0  0  0  0  0  2  0  0  0  0  0  0
  181.2520  174.7110  136.2900 C   0  0  0  0  0  2  0  0  0  0  0  0
  180.4130  177.9770  135.3910 C   0  0  2  0  0  3  0  0  0  0  0  0
  181.2240  179.6430  138.8080 O   0  0  0  0  0  1  0  0  0  0  0  0
  182.2730  177.8000  139.9900 C   0  0  0  0  0  0  0  0  0  0  0  0
  182.8620  176.5350  139.9510 C   0  0  0  0  0  3  0  0  0  0  0  0
  181.9420  177.6990  137.5550 C   0  0  0  0  0  0  0  0  0  0  0  0
  182.9880  175.8490  138.7500 C   0  0  0  0  0  3  0  0  0  0  0  0
  182.5570  176.4170  137.5450 C   0  0  0  0  0  0  0  0  0  0  0  0
  184.8540  175.4820  135.1560 C   0  0  1  0  0  3  0  0  0  0  0  0
  186.6740  175.0690  137.6820 C   0  0  0  0  0  2  0  0  0  0  0  0
  187.0620  178.4060  134.8090 C   0  0  0  0  0  2  0  0  0  0  0  0
  184.3350  174.0770  137.3400 C   0  0  1  0  0  3  0  0  0  0  0  0
  183.8190  174.7620  136.0570 C   0  0  1  0  0  3  0  0  0  0  0  0
  187.7600  178.1510  137.1740 C   0  0  0  0  0  0  0  0  0  0  0  0
  186.9910  176.9090  135.0360 C   0  0  2  0  0  3  0  0  0  0  0  0
  188.4960  178.9710  137.7020 O   0  0  0  0  0  0  0  0  0  0  0  0
  185.7180  176.5800  135.8310 C   0  0  2  0  0  3  0  0  0  0  0  0
  183.6350  172.8830  137.5250 O   0  0  0  0  0  1  0  0  0  0  0  0
  186.1870  172.8040  138.2340 O   0  0  0  0  0  1  0  0  0  0  0  0
  188.0530  177.7530  135.7500 C   0  0  1  0  0  3  0  0  0  0  0  0
  186.6270  177.5800  137.9820 C   0  0  2  0  0  3  0  0  0  0  0  0
  185.9640  176.3760  137.3300 C   0  0  2  0  0  3  0  0  0  0  0  0
  185.5900  178.6530  138.2640 C   0  0  0  0  0  1  0  0  0  0  0  0
  185.8530  173.8200  137.3370 C   0  0  2  0  0  3  0  0  0  0  0  0
  185.6450  174.4620  134.3460 C   0  0  0  0  0  1  0  0  0  0  0  0
  182.1590  178.4850  141.3000 C   0  0  0  0  0  0  0  0  0  0  0  0
  180.9190  178.7440  141.8730 O   0  0  0  0  0  0  0  0  0  0  0  0
  183.1980  178.8440  141.9180 O   0  0  0  0  0  1  0  0  0  0  0  0
  1  7  1  1  0  0  0
  1 14  1  0  0  0  0
  2  9  1  0  0  0  0
  2 10  1  0  0  0  0
  3  6  1  6  0  0  0
  3 12  1  0  0  0  0
  5  8  1  0  0  0  0
  5  4  1  0  0  0  0
  7  4  1  0  0  0  0
  8  6  1  6  0  0  0
  8  3  1  0  0  0  0
 10 32  1  0  0  0  0
 11 10  2  0  0  0  0
 12  2  2  0  0  0  0
 13 11  1  0  0  0  0
 14 12  1  0  0  0  0
 14 13  2  0  0  0  0
 15 31  1  1  0  0  0
 15 23  1  0  0  0  0
 15 19  1  0  0  0  0
 17 26  1  0  0  0  0
 18 24  1  6  0  0  0
 19  1  1  1  0  0  0
 19 18  1  0  0  0  0
 20 22  2  0  0  0  0
 20 27  1  0  0  0  0
 21 17  1  6  0  0  0
 21 26  1  0  0  0  0
 21 23  1  0  0  0  0
 23 28  1  0  0  0  0
 26 20  1  0  0  0  0
 27 29  1  0  0  0  0
 28 16  1  0  0  0  0
 28 27  1  0  0  0  0
 30 18  1  0  0  0  0
 30 16  1  0  0  0  0
 30 25  1  0  0  0  0
 32 33  2  0  0  0  0
 32 34  1  0  0  0  0
M  END
>  <MODEL>
2

>  <REMARK>
 VINA RESULT:      -6.5      2.409      6.629
  Name = 
  2 active torsions:
  status: ('A' for Active; 'I' for Inactive)
    1  A    between atoms: C_1  and  C_9
    2  A    between atoms: C_3  and  C_25
                            x       y       z     vdW  Elec       q    Type
                         _______ _______ _______ _____ _____    ______ ____

>  <TORSDO>
F 2

$$$$
=
 OpenBabel10272415323D

 34 39  0  0  1  0  0  0  0  0999 V2000
  186.3560  178.0000  137.7560 C   0  0  1  0  0  3  0  0  0  0  0  0
  189.6920  176.2310  138.3400 C   0  0  0  0  0  0  0  0  0  0  0  0
  187.6800  175.2060  137.3150 C   0  0  1  0  0  3  0  0  0  0  0  0
  187.3130  177.8510  135.4450 C   0  0  0  0  0  2  0  0  0  0  0  0
  186.5610  176.5620  135.1800 C   0  0  0  0  0  2  0  0  0  0  0  0
  186.1870  175.1720  137.1330 C   0  0  0  0  0  2  0  0  0  0  0  0
  186.5070  178.7100  136.4120 C   0  0  0  0  0  2  0  0  0  0  0  0
  187.0780  175.3050  135.8970 C   0  0  2  0  0  3  0  0  0  0  0  0
  190.3280  175.0350  138.0130 O   0  0  0  0  0  1  0  0  0  0  0  0
  190.3930  177.2280  139.0530 C   0  0  0  0  0  0  0  0  0  0  0  0
  189.7380  178.4170  139.3770 C   0  0  0  0  0  3  0  0  0  0  0  0
  188.3430  176.4200  137.9600 C   0  0  0  0  0  0  0  0  0  0  0  0
  188.4180  178.6240  139.0010 C   0  0  0  0  0  3  0  0  0  0  0  0
  187.6990  177.6380  138.3150 C   0  0  0  0  0  0  0  0  0  0  0  0
  184.0220  179.0750  138.1680 C   0  0  1  0  0  3  0  0  0  0  0  0
  183.0370  177.2550  140.5290 C   0  0  0  0  0  2  0  0  0  0  0  0
  180.8910  177.8100  136.7050 C   0  0  0  0  0  2  0  0  0  0  0  0
  185.4510  178.0200  140.1320 C   0  0  1  0  0  3  0  0  0  0  0  0
  185.4090  178.6950  138.7450 C   0  0  1  0  0  3  0  0  0  0  0  0
  180.8360  176.0030  138.4020 C   0  0  0  0  0  0  0  0  0  0  0  0
  181.5400  178.4480  137.9180 C   0  0  2  0  0  3  0  0  0  0  0  0
  179.9820  175.1310  138.3610 O   0  0  0  0  0  0  0  0  0  0  0  0
  182.9810  177.9320  138.0480 C   0  0  2  0  0  3  0  0  0  0  0  0
  186.5550  178.5070  140.8350 O   0  0  0  0  0  1  0  0  0  0  0  0
  184.4080  178.0350  142.3150 O   0  0  0  0  0  1  0  0  0  0  0  0
  180.4180  177.4180  138.0900 C   0  0  1  0  0  3  0  0  0  0  0  0
  182.2400  175.6140  138.7780 C   0  0  2  0  0  3  0  0  0  0  0  0
  183.1410  176.8040  139.0730 C   0  0  2  0  0  3  0  0  0  0  0  0
  182.8570  174.7550  137.6880 C   0  0  0  0  0  1  0  0  0  0  0  0
  184.1610  178.2100  140.9520 C   0  0  2  0  0  3  0  0  0  0  0  0
  183.5000  180.3380  138.8460 C   0  0  0  0  0  1  0  0  0  0  0  0
  191.8050  177.0610  139.4750 C   0  0  0  0  0  0  0  0  0  0  0  0
  192.7840  176.6620  138.5730 O   0  0  0  0  0  0  0  0  0  0  0  0
  192.1360  177.2830  140.6710 O   0  0  0  0  0  1  0  0  0  0  0  0
  1  7  1  6  0  0  0
  1 14  1  0  0  0  0
  2 10  1  0  0  0  0
  3  6  1  1  0  0  0
  3 12  1  0  0  0  0
  4  7  1  0  0  0  0
  5  4  1  0  0  0  0
  8  5  1  1  0  0  0
  8  6  1  0  0  0  0
  8  3  1  0  0  0  0
  9  2  1  0  0  0  0
 10 11  2  0  0  0  0
 10 32  1  0  0  0  0
 12 14  1  0  0  0  0
 12  2  2  0  0  0  0
 13 11  1  0  0  0  0
 14 13  2  0  0  0  0
 15 19  1  0  0  0  0
 15 31  1  1  0  0  0
 16 30  1  0  0  0  0
 17 26  1  0  0  0  0
 18 24  1  1  0  0  0
 18 30  1  0  0  0  0
 19  1  1  6  0  0  0
 19 18  1  0  0  0  0
 20 27  1  0  0  0  0
 21 17  1  6  0  0  0
 21 23  1  0  0  0  0
 21 26  1  0  0  0  0
 22 20  2  0  0  0  0
 23 15  1  0  0  0  0
 23 28  1  0  0  0  0
 26 20  1  0  0  0  0
 27 28  1  0  0  0  0
 28 16  1  0  0  0  0
 29 27  1  0  0  0  0
 30 25  1  0  0  0  0
 32 34  1  0  0  0  0
 33 32  2  0  0  0  0
M  END
>  <MODEL>
3

>  <REMARK>
 VINA RESULT:      -6.3      2.091      3.071
  Name = 
  2 active torsions:
  status: ('A' for Active; 'I' for Inactive)
    1  A    between atoms: C_1  and  C_9
    2  A    between atoms: C_3  and  C_25
                            x       y       z     vdW  Elec       q    Type
                         _______ _______ _______ _____ _____    ______ ____

>  <TORSDO>
F 2

$$$$
=
 OpenBabel10272415323D

 34 39  0  0  1  0  0  0  0  0999 V2000
  182.7180  177.4970  139.2320 C   0  0  1  0  0  3  0  0  0  0  0  0
  183.1470  178.7170  142.8270 C   0  0  0  0  0  0  0  0  0  0  0  0
  181.0610  178.8710  141.4950 C   0  0  1  0  0  3  0  0  0  0  0  0
  181.4620  175.7760  140.5520 C   0  0  0  0  0  2  0  0  0  0  0  0
  180.1590  176.5220  140.3480 C   0  0  0  0  0  2  0  0  0  0  0  0
  180.3740  178.9310  140.1590 C   0  0  0  0  0  2  0  0  0  0  0  0
  182.3670  176.0140  139.3490 C   0  0  0  0  0  2  0  0  0  0  0  0
  179.9820  177.8260  141.1400 C   0  0  2  0  0  3  0  0  0  0  0  0
  182.3730  179.1950  143.8830 O   0  0  0  0  0  1  0  0  0  0  0  0
  184.5300  178.5020  143.0110 C   0  0  0  0  0  0  0  0  0  0  0  0
  185.2910  178.0280  141.9410 C   0  0  0  0  0  3  0  0  0  0  0  0
  182.5310  178.4650  141.5800 C   0  0  0  0  0  0  0  0  0  0  0  0
  184.6990  177.7650  140.7130 C   0  0  0  0  0  3  0  0  0  0  0  0
  183.3340  177.9950  140.5040 C   0  0  0  0  0  0  0  0  0  0  0  0
  184.8270  177.1430  137.7490 C   0  0  1  0  0  3  0  0  0  0  0  0
  183.4260  176.2440  135.0860 C   0  0  0  0  0  2  0  0  0  0  0  0
  186.4700  173.8870  137.2580 C   0  0  0  0  0  2  0  0  0  0  0  0
  182.5240  177.9800  136.7430 C   0  0  1  0  0  3  0  0  0  0  0  0
  183.4770  177.8760  137.9520 C   0  0  1  0  0  3  0  0  0  0  0  0
  184.6990  173.2440  135.6470 C   0  0  0  0  0  0  0  0  0  0  0  0
  186.0830  175.2060  136.6170 C   0  0  2  0  0  3  0  0  0  0  0  0
  184.6660  172.1210  135.1670 O   0  0  0  0  0  0  0  0  0  0  0  0
  184.7550  175.6870  137.2180 C   0  0  2  0  0  3  0  0  0  0  0  0
  181.9100  179.2340  136.7600 O   0  0  0  0  0  1  0  0  0  0  0  0
  182.4800  178.3010  134.3460 O   0  0  0  0  0  1  0  0  0  0  0  0
  186.0440  173.9060  135.8050 C   0  0  1  0  0  3  0  0  0  0  0  0
  183.3990  173.8980  136.0300 C   0  0  2  0  0  3  0  0  0  0  0  0
  183.5350  175.3800  136.3420 C   0  0  2  0  0  3  0  0  0  0  0  0
  182.7740  173.1750  137.2100 C   0  0  0  0  0  1  0  0  0  0  0  0
  183.2140  177.7330  135.3890 C   0  0  2  0  0  3  0  0  0  0  0  0
  185.8040  178.0430  137.0000 C   0  0  0  0  0  1  0  0  0  0  0  0
  185.2120  178.7620  144.3020 C   0  0  0  0  0  0  0  0  0  0  0  0
  185.9660  177.7770  144.9300 O   0  0  0  0  0  1  0  0  0  0  0  0
  185.1150  179.8930  144.8500 O   0  0  0  0  0  0  0  0  0  0  0  0
  1  7  1  1  0  0  0
  1 14  1  0  0  0  0
  2 10  1  0  0  0  0
  2  9  1  0  0  0  0
  3  6  1  6  0  0  0
  3 12  1  0  0  0  0
  5  4  1  0  0  0  0
  5  8  1  0  0  0  0
  7  4  1  0  0  0  0
  8  6  1  6  0  0  0
  8  3  1  0  0  0  0
 10 32  1  0  0  0  0
 11 10  2  0  0  0  0
 12  2  2  0  0  0  0
 13 11  1  0  0  0  0
 14 13  2  0  0  0  0
 14 12  1  0  0  0  0
 15 31  1  6  0  0  0
 15 19  1  0  0  0  0
 16 30  1  0  0  0  0
 16 28  1  0  0  0  0
 18 24  1  6  0  0  0
 18 19  1  0  0  0  0
 19  1  1  1  0  0  0
 20 26  1  0  0  0  0
 20 27  1  0  0  0  0
 21 23  1  0  0  0  0
 21 17  1  1  0  0  0
 22 20  2  0  0  0  0
 23 15  1  0  0  0  0
 25 30  1  0  0  0  0
 26 21  1  0  0  0  0
 26 17  1  0  0  0  0
 27 28  1  0  0  0  0
 27 29  1  0  0  0  0
 28 23  1  0  0  0  0
 30 18  1  0  0  0  0
 32 34  2  0  0  0  0
 32 33  1  0  0  0  0
M  END
>  <MODEL>
4

>  <REMARK>
 VINA RESULT:      -6.3      3.239      5.999
  Name = 
  2 active torsions:
  status: ('A' for Active; 'I' for Inactive)
    1  A    between atoms: C_1  and  C_9
    2  A    between atoms: C_3  and  C_25
                            x       y       z     vdW  Elec       q    Type
                         _______ _______ _______ _____ _____    ______ ____

>  <TORSDO>
F 2

$$$$
=
 OpenBabel10272415323D

 34 39  0  0  1  0  0  0  0  0999 V2000
  184.2780  176.6900  136.8040 C   0  0  1  0  0  3  0  0  0  0  0  0
  187.2060  174.4080  135.9010 C   0  0  0  0  0  0  0  0  0  0  0  0
  186.8100  176.6750  134.9760 C   0  0  1  0  0  3  0  0  0  0  0  0
  186.2050  177.7720  137.9860 C   0  0  0  0  0  2  0  0  0  0  0  0
  186.4410  178.7060  136.8160 C   0  0  0  0  0  2  0  0  0  0  0  0
  185.8640  177.7960  134.6420 C   0  0  0  0  0  2  0  0  0  0  0  0
  184.7210  177.4340  138.0630 C   0  0  0  0  0  2  0  0  0  0  0  0
  187.0580  178.0840  135.5540 C   0  0  2  0  0  3  0  0  0  0  0  0
  188.4090  174.4560  135.2000 O   0  0  0  0  0  1  0  0  0  0  0  0
  186.8490  173.2370  136.6040 C   0  0  0  0  0  0  0  0  0  0  0  0
  185.6370  173.2040  137.2960 C   0  0  0  0  0  3  0  0  0  0  0  0
  186.3540  175.5360  135.8860 C   0  0  0  0  0  0  0  0  0  0  0  0
  184.7940  174.3080  137.3010 C   0  0  0  0  0  3  0  0  0  0  0  0
  185.1200  175.4690  136.5900 C   0  0  0  0  0  0  0  0  0  0  0  0
  182.0070  176.4180  138.0470 C   0  0  1  0  0  3  0  0  0  0  0  0
  180.4210  178.7840  136.7250 C   0  0  0  0  0  2  0  0  0  0  0  0
  181.0820  178.3040  141.0690 C   0  0  0  0  0  2  0  0  0  0  0  0
  182.1490  177.2960  135.5520 C   0  0  1  0  0  3  0  0  0  0  0  0
  182.7630  176.4610  136.6950 C   0  0  1  0  0  3  0  0  0  0  0  0
  180.5700  180.2840  139.6680 C   0  0  0  0  0  0  0  0  0  0  0  0
  180.5890  177.6970  139.7700 C   0  0  2  0  0  3  0  0  0  0  0  0
  180.2640  181.3510  140.1780 O   0  0  0  0  0  0  0  0  0  0  0  0
  181.7050  177.7840  138.7180 C   0  0  2  0  0  3  0  0  0  0  0  0
  182.3460  176.6210  134.3460 O   0  0  0  0  0  1  0  0  0  0  0  0
  180.0430  177.9180  134.5370 O   0  0  0  0  0  1  0  0  0  0  0  0
  180.0110  179.0230  140.2750 C   0  0  1  0  0  3  0  0  0  0  0  0
  181.4660  180.3000  138.4590 C   0  0  2  0  0  3  0  0  0  0  0  0
  181.5440  178.9580  137.7460 C   0  0  2  0  0  3  0  0  0  0  0  0
  182.8590  180.7650  138.8430 C   0  0  0  0  0  1  0  0  0  0  0  0
  180.6570  177.6180  135.7550 C   0  0  2  0  0  3  0  0  0  0  0  0
  180.8080  175.4810  137.9480 C   0  0  0  0  0  1  0  0  0  0  0  0
  187.7130  172.0320  136.6360 C   0  0  0  0  0  0  0  0  0  0  0  0
  187.9540  171.2880  135.4870 O   0  0  0  0  0  0  0  0  0  0  0  0
  188.2460  171.6670  137.7180 O   0  0  0  0  0  1  0  0  0  0  0  0
  1  7  1  1  0  0  0
  2 10  1  0  0  0  0
  3  6  1  6  0  0  0
  3  8  1  0  0  0  0
  3 12  1  0  0  0  0
  4  7  1  0  0  0  0
  5  4  1  0  0  0  0
  8  6  1  6  0  0  0
  8  5  1  0  0  0  0
  9  2  1  0  0  0  0
 10 32  1  0  0  0  0
 10 11  2  0  0  0  0
 11 13  1  0  0  0  0
 12  2  2  0  0  0  0
 12 14  1  0  0  0  0
 14  1  1  0  0  0  0
 14 13  2  0  0  0  0
 15 31  1  6  0  0  0
 15 23  1  0  0  0  0
 16 28  1  0  0  0  0
 18 24  1  6  0  0  0
 18 30  1  0  0  0  0
 18 19  1  0  0  0  0
 19  1  1  1  0  0  0
 19 15  1  0  0  0  0
 20 22  2  0  0  0  0
 20 26  1  0  0  0  0
 21 26  1  0  0  0  0
 21 17  1  1  0  0  0
 23 21  1  0  0  0  0
 25 30  1  0  0  0  0
 26 17  1  0  0  0  0
 27 29  1  0  0  0  0
 27 20  1  0  0  0  0
 28 27  1  0  0  0  0
 28 23  1  0  0  0  0
 30 16  1  0  0  0  0
 32 34  1  0  0  0  0
 33 32  2  0  0  0  0
M  END
>  <MODEL>
5

>  <REMARK>
 VINA RESULT:      -6.2      3.160      5.758
  Name = 
  2 active torsions:
  status: ('A' for Active; 'I' for Inactive)
    1  A    between atoms: C_1  and  C_9
    2  A    between atoms: C_3  and  C_25
                            x       y       z     vdW  Elec       q    Type
                         _______ _______ _______ _____ _____    ______ ____

>  <TORSDO>
F 2

$$$$
=
 OpenBabel10272415323D

 34 39  0  0  1  0  0  0  0  0999 V2000
  182.3320  178.5300  140.7820 C   0  0  1  0  0  3  0  0  0  0  0  0
  183.7780  178.8230  144.3060 C   0  0  0  0  0  0  0  0  0  0  0  0
  181.4910  179.5010  143.6280 C   0  0  1  0  0  3  0  0  0  0  0  0
  181.1600  176.6890  142.0130 C   0  0  0  0  0  2  0  0  0  0  0  0
  179.9820  177.5930  142.3120 C   0  0  0  0  0  2  0  0  0  0  0  0
  180.5290  179.9440  142.5600 C   0  0  0  0  0  2  0  0  0  0  0  0
  181.7860  177.1070  140.6880 C   0  0  0  0  0  2  0  0  0  0  0  0
  180.2050  178.6870  143.3680 C   0  0  2  0  0  3  0  0  0  0  0  0
  183.3580  179.1180  145.6020 O   0  0  0  0  0  1  0  0  0  0  0  0
  185.1130  178.4270  144.0730 C   0  0  0  0  0  0  0  0  0  0  0  0
  185.5170  178.1410  142.7680 C   0  0  0  0  0  3  0  0  0  0  0  0
  182.8550  178.9360  143.2410 C   0  0  0  0  0  0  0  0  0  0  0  0
  184.6210  178.2360  141.7120 C   0  0  0  0  0  3  0  0  0  0  0  0
  183.3000  178.6490  141.9200 C   0  0  0  0  0  0  0  0  0  0  0  0
  183.8520  178.2460  138.6890 C   0  0  1  0  0  3  0  0  0  0  0  0
  181.6600  178.4050  136.4460 C   0  0  0  0  0  2  0  0  0  0  0  0
  184.4540  175.0270  137.0100 C   0  0  0  0  0  2  0  0  0  0  0  0
  181.6580  179.7280  138.6430 C   0  0  1  0  0  3  0  0  0  0  0  0
  182.8230  179.1180  139.4500 C   0  0  1  0  0  3  0  0  0  0  0  0
  182.2380  175.1940  135.9110 C   0  0  0  0  0  0  0  0  0  0  0  0
  184.2640  176.5210  136.8270 C   0  0  2  0  0  3  0  0  0  0  0  0
  181.8070  174.2780  135.2260 O   0  0  0  0  0  0  0  0  0  0  0  0
  183.2890  177.0390  137.8940 C   0  0  2  0  0  3  0  0  0  0  0  0
  181.4020  181.0140  139.1240 O   0  0  0  0  0  1  0  0  0  0  0  0
  181.1070  180.7220  136.5070 O   0  0  0  0  0  1  0  0  0  0  0  0
  183.7020  175.5350  135.7970 C   0  0  1  0  0  3  0  0  0  0  0  0
  181.2790  175.9310  136.8060 C   0  0  2  0  0  3  0  0  0  0  0  0
  181.8550  177.2150  137.3840 C   0  0  2  0  0  3  0  0  0  0  0  0
  180.8040  175.0250  137.9270 C   0  0  0  0  0  1  0  0  0  0  0  0
  181.9090  179.7590  137.1230 C   0  0  2  0  0  3  0  0  0  0  0  0
  184.8080  179.1340  137.8990 C   0  0  0  0  0  1  0  0  0  0  0  0
  186.1090  178.3050  145.1640 C   0  0  0  0  0  0  0  0  0  0  0  0
  186.0890  179.1620  146.2580 O   0  0  0  0  0  1  0  0  0  0  0  0
  186.9960  177.4100  145.1120 O   0  0  0  0  0  0  0  0  0  0  0  0
  1  7  1  6  0  0  0
  1 14  1  0  0  0  0
  2  9  1  0  0  0  0
  3  6  1  6  0  0  0
  4  5  1  0  0  0  0
  6  8  1  0  0  0  0
  7  4  1  0  0  0  0
  8  5  1  6  0  0  0
  8  3  1  0  0  0  0
 10  2  1  0  0  0  0
 10 32  1  0  0  0  0
 11 10  2  0  0  0  0
 12  3  1  0  0  0  0
 12  2  2  0  0  0  0
 13 14  2  0  0  0  0
 13 11  1  0  0  0  0
 14 12  1  0  0  0  0
 15 31  1  6  0  0  0
 15 19  1  0  0  0  0
 16 30  1  0  0  0  0
 16 28  1  0  0  0  0
 18 24  1  1  0  0  0
 18 19  1  0  0  0  0
 19  1  1  1  0  0  0
 20 27  1  0  0  0  0
 21 17  1  1  0  0  0
 21 23  1  0  0  0  0
 22 20  2  0  0  0  0
 23 15  1  0  0  0  0
 25 30  1  0  0  0  0
 26 20  1  0  0  0  0
 26 21  1  0  0  0  0
 26 17  1  0  0  0  0
 27 28  1  0  0  0  0
 27 29  1  0  0  0  0
 28 23  1  0  0  0  0
 30 18  1  0  0  0  0
 32 33  1  0  0  0  0
 34 32  2  0  0  0  0
M  END
>  <MODEL>
6

>  <REMARK>
 VINA RESULT:      -6.0      4.079      6.696
  Name = 
  2 active torsions:
  status: ('A' for Active; 'I' for Inactive)
    1  A    between atoms: C_1  and  C_9
    2  A    between atoms: C_3  and  C_25
                            x       y       z     vdW  Elec       q    Type
                         _______ _______ _______ _____ _____    ______ ____

>  <TORSDO>
F 2

$$$$
=
 OpenBabel10272415323D

 34 39  0  0  1  0  0  0  0  0999 V2000
  185.7050  176.5830  136.7950 C   0  0  1  0  0  3  0  0  0  0  0  0
  189.0260  175.2220  135.4850 C   0  0  0  0  0  0  0  0  0  0  0  0
  188.0480  177.4270  134.9110 C   0  0  1  0  0  3  0  0  0  0  0  0
  187.3930  177.9320  138.0650 C   0  0  0  0  0  2  0  0  0  0  0  0
  187.3270  179.0430  137.0370 C   0  0  0  0  0  2  0  0  0  0  0  0
  186.8450  178.3200  134.7710 C   0  0  0  0  0  2  0  0  0  0  0  0
  186.0390  177.2370  138.1350 C   0  0  0  0  0  2  0  0  0  0  0  0
  187.9920  178.7650  135.6800 C   0  0  2  0  0  3  0  0  0  0  0  0
  190.1370  175.6550  134.7640 O   0  0  0  0  0  1  0  0  0  0  0  0
  189.0010  173.9160  136.0210 C   0  0  0  0  0  0  0  0  0  0  0  0
  187.8780  173.4980  136.7360 C   0  0  0  0  0  3  0  0  0  0  0  0
  187.9320  176.1010  135.6590 C   0  0  0  0  0  0  0  0  0  0  0  0
  186.8000  174.3530  136.9260 C   0  0  0  0  0  3  0  0  0  0  0  0
  186.7970  175.6430  136.3820 C   0  0  0  0  0  0  0  0  0  0  0  0
  183.5500  175.8430  138.0530 C   0  0  1  0  0  3  0  0  0  0  0  0
  181.4720  177.7340  136.6490 C   0  0  0  0  0  2  0  0  0  0  0  0
  182.1990  177.5750  141.0060 C   0  0  0  0  0  2  0  0  0  0  0  0
  183.5020  176.6400  135.5270 C   0  0  1  0  0  3  0  0  0  0  0  0
  184.2840  176.0090  136.6990 C   0  0  1  0  0  3  0  0  0  0  0  0
  181.2560  179.3330  139.5350 C   0  0  0  0  0  0  0  0  0  0  0  0
  181.8660  176.8240  139.7310 C   0  0  2  0  0  3  0  0  0  0  0  0
  180.7110  180.3200  140.0080 O   0  0  0  0  0  0  0  0  0  0  0  0
  182.9390  177.1270  138.6740 C   0  0  2  0  0  3  0  0  0  0  0  0
  183.8550  175.9850  134.3460 O   0  0  0  0  0  1  0  0  0  0  0  0
  181.3160  176.7270  134.4960 O   0  0  0  0  0  1  0  0  0  0  0  0
  180.9970  178.0000  140.1900 C   0  0  1  0  0  3  0  0  0  0  0  0
  182.1320  179.5100  138.3250 C   0  0  2  0  0  3  0  0  0  0  0  0
  182.5200  178.1970  137.6610 C   0  0  2  0  0  3  0  0  0  0  0  0
  183.3790  180.2950  138.6880 C   0  0  0  0  0  1  0  0  0  0  0  0
  181.9740  176.6190  135.7220 C   0  0  2  0  0  3  0  0  0  0  0  0
  182.5980  174.6540  137.9910 C   0  0  0  0  0  1  0  0  0  0  0  0
  190.1260  172.9650  135.8520 C   0  0  0  0  0  0  0  0  0  0  0  0
  191.3620  173.1990  136.4420 O   0  0  0  0  0  1  0  0  0  0  0  0
  189.9710  171.9190  135.1650 O   0  0  0  0  0  0  0  0  0  0  0  0
  1  7  1  1  0  0  0
  2 12  2  0  0  0  0
  2 10  1  0  0  0  0
  3  6  1  6  0  0  0
  3 12  1  0  0  0  0
  3  8  1  0  0  0  0
  4  7  1  0  0  0  0
  5  4  1  0  0  0  0
  8  6  1  6  0  0  0
  8  5  1  0  0  0  0
  9  2  1  0  0  0  0
 10 11  2  0  0  0  0
 11 13  1  0  0  0  0
 12 14  1  0  0  0  0
 14  1  1  0  0  0  0
 14 13  2  0  0  0  0
 15 31  1  6  0  0  0
 15 23  1  0  0  0  0
 16 28  1  0  0  0  0
 18 24  1  6  0  0  0
 18 30  1  0  0  0  0
 18 19  1  0  0  0  0
 19  1  1  1  0  0  0
 19 15  1  0  0  0  0
 20 22  2  0  0  0  0
 20 26  1  0  0  0  0
 21 26  1  0  0  0  0
 21 17  1  1  0  0  0
 23 21  1  0  0  0  0
 25 30  1  0  0  0  0
 26 17  1  0  0  0  0
 27 29  1  0  0  0  0
 27 20  1  0  0  0  0
 28 27  1  0  0  0  0
 28 23  1  0  0  0  0
 30 16  1  0  0  0  0
 32 10  1  0  0  0  0
 32 33  1  0  0  0  0
 34 32  2  0  0  0  0
M  END
>  <MODEL>
7

>  <REMARK>
 VINA RESULT:      -5.9      2.805      5.091
  Name = 
  2 active torsions:
  status: ('A' for Active; 'I' for Inactive)
    1  A    between atoms: C_1  and  C_9
    2  A    between atoms: C_3  and  C_25
                            x       y       z     vdW  Elec       q    Type
                         _______ _______ _______ _____ _____    ______ ____

>  <TORSDO>
F 2

$$$$
=
 OpenBabel10272415323D

 34 39  0  0  1  0  0  0  0  0999 V2000
  186.6620  174.5470  136.7360 C   0  0  1  0  0  3  0  0  0  0  0  0
  183.4720  172.5840  135.9820 C   0  0  0  0  0  0  0  0  0  0  0  0
  185.6300  172.3370  134.7860 C   0  0  1  0  0  3  0  0  0  0  0  0
  187.1850  172.2730  137.6510 C   0  0  0  0  0  2  0  0  0  0  0  0
  187.8590  171.8700  136.3560 C   0  0  0  0  0  2  0  0  0  0  0  0
  186.9530  172.9110  134.3590 C   0  0  0  0  0  2  0  0  0  0  0  0
  187.3550  173.7740  137.8570 C   0  0  0  0  0  2  0  0  0  0  0  0
  186.9380  171.6050  135.1550 C   0  0  2  0  0  3  0  0  0  0  0  0
  183.0530  171.4990  135.2140 O   0  0  0  0  0  1  0  0  0  0  0  0
  182.5630  173.2200  136.8550 C   0  0  0  0  0  0  0  0  0  0  0  0
  182.9980  174.3080  137.6130 C   0  0  0  0  0  3  0  0  0  0  0  0
  184.8060  173.0360  135.8640 C   0  0  0  0  0  0  0  0  0  0  0  0
  184.3090  174.7580  137.5170 C   0  0  0  0  0  3  0  0  0  0  0  0
  185.2180  174.1550  136.6400 C   0  0  0  0  0  0  0  0  0  0  0  0
  187.4800  176.6220  138.0770 C   0  0  1  0  0  3  0  0  0  0  0  0
  189.8120  177.5540  136.1920 C   0  0  0  0  0  2  0  0  0  0  0  0
  190.2750  176.5470  140.4710 C   0  0  0  0  0  2  0  0  0  0  0  0
  187.5900  176.5230  135.4330 C   0  0  1  0  0  3  0  0  0  0  0  0
  186.9230  176.0600  136.7460 C   0  0  1  0  0  3  0  0  0  0  0  0
  191.8830  176.5940  138.5850 C   0  0  0  0  0  0  0  0  0  0  0  0
  189.5510  177.3580  139.4130 C   0  0  2  0  0  3  0  0  0  0  0  0
  193.0840  176.4930  138.7830 O   0  0  0  0  0  0  0  0  0  0  0  0
  188.9930  176.4070  138.3440 C   0  0  2  0  0  3  0  0  0  0  0  0
  186.6020  176.6920  134.4610 O   0  0  0  0  0  1  0  0  0  0  0  0
  188.5880  178.4430  134.3520 O   0  0  0  0  0  1  0  0  0  0  0  0
  191.0770  177.4350  139.5420 C   0  0  1  0  0  3  0  0  0  0  0  0
  191.2910  175.8910  137.3930 C   0  0  2  0  0  3  0  0  0  0  0  0
  189.8630  176.3160  137.0860 C   0  0  2  0  0  3  0  0  0  0  0  0
  191.3550  174.3870  137.5850 C   0  0  0  0  0  1  0  0  0  0  0  0
  188.4260  177.8080  135.5850 C   0  0  2  0  0  3  0  0  0  0  0  0
  186.9980  178.0530  138.2860 C   0  0  0  0  0  1  0  0  0  0  0  0
  181.1550  172.7780  136.9980 C   0  0  0  0  0  0  0  0  0  0  0  0
  180.8180  171.6930  137.7990 O   0  0  0  0  0  1  0  0  0  0  0  0
  180.2360  173.3900  136.3900 O   0  0  0  0  0  0  0  0  0  0  0  0
  1  7  1  1  0  0  0
  2 10  1  0  0  0  0
  3  6  1  6  0  0  0
  3  8  1  0  0  0  0
  3 12  1  0  0  0  0
  4  7  1  0  0  0  0
  5  4  1  0  0  0  0
  8  6  1  6  0  0  0
  8  5  1  0  0  0  0
  9  2  1  0  0  0  0
 10 32  1  0  0  0  0
 10 11  2  0  0  0  0
 12  2  2  0  0  0  0
 12 14  1  0  0  0  0
 13 11  1  0  0  0  0
 14  1  1  0  0  0  0
 14 13  2  0  0  0  0
 15 31  1  6  0  0  0
 15 23  1  0  0  0  0
 16 28  1  0  0  0  0
 18 24  1  6  0  0  0
 18 30  1  0  0  0  0
 18 19  1  0  0  0  0
 19  1  1  1  0  0  0
 19 15  1  0  0  0  0
 20 22  2  0  0  0  0
 20 26  1  0  0  0  0
 21 26  1  0  0  0  0
 21 17  1  1  0  0  0
 23 21  1  0  0  0  0
 25 30  1  0  0  0  0
 26 17  1  0  0  0  0
 27 29  1  0  0  0  0
 27 20  1  0  0  0  0
 28 27  1  0  0  0  0
 28 23  1  0  0  0  0
 30 16  1  0  0  0  0
 32 33  1  0  0  0  0
 34 32  2  0  0  0  0
M  END
>  <MODEL>
8

>  <REMARK>
 VINA RESULT:      -5.7      2.262      7.152
  Name = 
  2 active torsions:
  status: ('A' for Active; 'I' for Inactive)
    1  A    between atoms: C_1  and  C_9
    2  A    between atoms: C_3  and  C_25
                            x       y       z     vdW  Elec       q    Type
                         _______ _______ _______ _____ _____    ______ ____

>  <TORSDO>
F 2

$$$$
=
 OpenBabel10272415323D

 34 39  0  0  1  0  0  0  0  0999 V2000
  185.7570  174.3070  136.0570 C   0  0  1  0  0  3  0  0  0  0  0  0
  183.3370  171.5220  135.0630 C   0  0  0  0  0  0  0  0  0  0  0  0
  185.7660  171.5620  134.5670 C   0  0  1  0  0  3  0  0  0  0  0  0
  186.3560  172.4620  137.6440 C   0  0  0  0  0  2  0  0  0  0  0  0
  187.4530  171.9770  136.7190 C   0  0  0  0  0  2  0  0  0  0  0  0
  187.0370  172.3370  134.3550 C   0  0  0  0  0  2  0  0  0  0  0  0
  186.1960  173.9690  137.4810 C   0  0  0  0  0  2  0  0  0  0  0  0
  187.0040  171.2570  135.4380 C   0  0  2  0  0  3  0  0  0  0  0  0
  183.3650  170.2350  134.5290 O   0  0  0  0  0  1  0  0  0  0  0  0
  182.1090  172.0860  135.4730 C   0  0  0  0  0  0  0  0  0  0  0  0
  182.0990  173.3780  136.0000 C   0  0  0  0  0  3  0  0  0  0  0  0
  184.5450  172.2480  135.1740 C   0  0  0  0  0  0  0  0  0  0  0  0
  183.2780  174.1010  136.1270 C   0  0  0  0  0  3  0  0  0  0  0  0
  184.5010  173.5680  135.7030 C   0  0  0  0  0  0  0  0  0  0  0  0
  184.3540  176.3770  135.3370 C   0  0  1  0  0  3  0  0  0  0  0  0
  184.9260  178.2520  137.7900 C   0  0  0  0  0  2  0  0  0  0  0  0
  180.9030  177.0060  136.4500 C   0  0  0  0  0  2  0  0  0  0  0  0
  186.5900  176.6110  136.7360 C   0  0  1  0  0  3  0  0  0  0  0  0
  185.7390  175.8070  135.7300 C   0  0  1  0  0  3  0  0  0  0  0  0
  181.7600  177.8060  138.6340 C   0  0  0  0  0  0  0  0  0  0  0  0
  182.2390  177.6290  136.0950 C   0  0  2  0  0  3  0  0  0  0  0  0
  180.9930  178.1030  139.5380 O   0  0  0  0  0  0  0  0  0  0  0  0
  183.3660  176.6660  136.4980 C   0  0  2  0  0  3  0  0  0  0  0  0
  187.9310  176.5350  136.3530 O   0  0  0  0  0  1  0  0  0  0  0  0
  187.1930  178.8620  137.3840 O   0  0  0  0  0  1  0  0  0  0  0  0
  181.3880  178.2100  137.2300 C   0  0  1  0  0  3  0  0  0  0  0  0
  183.0300  177.0780  138.9820 C   0  0  2  0  0  3  0  0  0  0  0  0
  184.0270  177.0170  137.8350 C   0  0  2  0  0  3  0  0  0  0  0  0
  182.7140  175.6750  139.4690 C   0  0  0  0  0  1  0  0  0  0  0  0
  186.1510  178.0800  136.8830 C   0  0  2  0  0  3  0  0  0  0  0  0
  184.5200  177.5240  134.3460 C   0  0  0  0  0  1  0  0  0  0  0  0
  180.8220  171.3570  135.3650 C   0  0  0  0  0  0  0  0  0  0  0  0
  180.3910  170.5030  136.3740 O   0  0  0  0  0  1  0  0  0  0  0  0
  180.0960  171.5070  134.3460 O   0  0  0  0  0  0  0  0  0  0  0  0
  1  7  1  1  0  0  0
  2 12  2  0  0  0  0
  2 10  1  0  0  0  0
  3  6  1  6  0  0  0
  3 12  1  0  0  0  0
  3  8  1  0  0  0  0
  5  4  1  0  0  0  0
  7  4  1  0  0  0  0
  8  6  1  6  0  0  0
  8  5  1  0  0  0  0
  9  2  1  0  0  0  0
 10 11  2  0  0  0  0
 11 13  1  0  0  0  0
 12 14  1  0  0  0  0
 14  1  1  0  0  0  0
 14 13  2  0  0  0  0
 15 31  1  1  0  0  0
 15 19  1  0  0  0  0
 15 23  1  0  0  0  0
 16 28  1  0  0  0  0
 17 26  1  0  0  0  0
 18 24  1  6  0  0  0
 18 30  1  0  0  0  0
 19  1  1  1  0  0  0
 19 18  1  0  0  0  0
 20 27  1  0  0  0  0
 20 22  2  0  0  0  0
 21 17  1  6  0  0  0
 21 23  1  0  0  0  0
 21 26  1  0  0  0  0
 23 28  1  0  0  0  0
 26 20  1  0  0  0  0
 27 29  1  0  0  0  0
 28 27  1  0  0  0  0
 30 25  1  0  0  0  0
 30 16  1  0  0  0  0
 32 10  1  0  0  0  0
 32 33  1  0  0  0  0
 34 32  2  0  0  0  0
M  END
>  <MODEL>
9

>  <REMARK>
 VINA RESULT:      -5.0      2.793      6.490
  Name = 
  2 active torsions:
  status: ('A' for Active; 'I' for Inactive)
    1  A    between atoms: C_1  and  C_9
    2  A    between atoms: C_3  and  C_25
                            x       y       z     vdW  Elec       q    Type
                         _______ _______ _______ _____ _____    ______ ____

>  <TORSDO>
F 2

$$$$
