=
 OpenBabel10272400463D

 25 29  0  0  1  0  0  0  0  0999 V2000
  187.0030  177.9930  145.7980 C   0  0  0  0  0  0  0  0  0  0  0  0
  188.2730  177.5380  145.4440 C   0  0  0  0  0  0  0  0  0  0  0  0
  187.6040  178.0690  148.1270 C   0  0  0  0  0  3  0  0  0  0  0  0
  185.8700  178.2800  145.0680 C   0  0  0  0  0  0  0  0  0  0  0  0
  183.3150  179.0260  144.3020 C   0  0  0  0  0  3  0  0  0  0  0  0
  188.8510  177.6220  147.7900 N   0  0  0  0  0  0  0  0  0  0  0  0
  184.9410  178.6920  145.9990 C   0  0  0  0  0  0  0  0  0  0  0  0
  183.7350  179.0490  145.6820 N   0  0  0  0  0  0  0  0  0  0  0  0
  190.5300  176.8840  146.1740 N   0  0  0  0  0  0  0  0  0  0  0  0
  191.5270  176.6780  147.2110 C   0  0  0  0  0  1  0  0  0  0  0  0
  188.6170  177.2770  144.1750 C   0  0  0  0  0  3  0  0  0  0  0  0
  184.1540  178.6370  143.3220 C   0  0  0  0  0  3  0  0  0  0  0  0
  186.6750  178.2540  147.1090 C   0  0  0  0  0  0  0  0  0  0  0  0
  185.4320  178.6740  147.2210 O   0  0  0  0  0  0  0  0  0  0  0  0
  190.8750  176.6120  144.8090 C   0  0  0  0  0  3  0  0  0  0  0  0
  185.5800  178.2030  143.5990 C   0  0  0  0  0  2  0  0  0  0  0  0
  189.9770  176.7920  143.8350 C   0  0  0  0  0  0  0  0  0  0  0  0
  189.2070  177.3540  146.4920 C   0  0  0  0  0  0  0  0  0  0  0  0
  190.3630  176.5040  142.4490 C   0  0  0  0  0  3  0  0  0  0  0  0
  189.9790  177.2670  141.4310 C   0  0  0  0  0  3  0  0  0  0  0  0
  190.3870  176.9430  140.0330 C   0  0  2  0  0  3  0  0  0  0  0  0
  191.7530  177.1830  139.8910 O   0  0  0  0  0  1  0  0  0  0  0  0
  189.6170  177.8020  139.0400 C   0  0  0  0  0  3  0  0  0  0  0  0
  188.6790  176.9250  138.2340 C   0  0  0  0  0  2  0  0  0  0  0  0
  189.9830  177.3930  137.6270 C   0  0  0  0  0  2  0  0  0  0  0  0
  1 13  1  0  0  0  0
  2  1  1  0  0  0  0
  2 18  1  0  0  0  0
  4  1  2  0  0  0  0
  4  7  1  0  0  0  0
  5  8  1  0  0  0  0
  6  3  1  0  0  0  0
  7 14  1  0  0  0  0
  8  7  2  0  0  0  0
  9 18  1  0  0  0  0
  9 10  1  0  0  0  0
 11  2  2  0  0  0  0
 12 16  1  0  0  0  0
 12  5  2  0  0  0  0
 13 14  1  0  0  0  0
 13  3  2  0  0  0  0
 15  9  1  0  0  0  0
 16  4  1  0  0  0  0
 17 11  1  0  0  0  0
 17 15  2  0  0  0  0
 18  6  2  0  0  0  0
 19 17  1  0  0  0  0
 20 19  2  0  0  0  0
 21 22  1  1  0  0  0
 21 20  1  0  0  0  0
 23 21  1  0  0  0  0
 24 23  1  0  0  0  0
 25 24  1  0  0  0  0
 25 23  1  0  0  0  0
M  END
>  <MODEL>
1

>  <REMARK>
 VINA RESULT:     -10.5      0.000      0.000
  Name = 
  3 active torsions:
  status: ('A' for Active; 'I' for Inactive)
    1  A    between atoms: C_2  and  C_21
    2  A    between atoms: C_6  and  C_23
    3  A    between atoms: C_15  and  C_21
                            x       y       z     vdW  Elec       q    Type
                         _______ _______ _______ _____ _____    ______ ____

>  <TORSDO>
F 3

$$$$
=
 OpenBabel10272400463D

 25 29  0  0  1  0  0  0  0  0999 V2000
  187.1570  177.8820  145.5560 C   0  0  0  0  0  0  0  0  0  0  0  0
  188.3760  177.4670  145.0170 C   0  0  0  0  0  0  0  0  0  0  0  0
  188.0200  177.7320  147.7990 C   0  0  0  0  0  3  0  0  0  0  0  0
  185.9510  178.2350  144.9910 C   0  0  0  0  0  0  0  0  0  0  0  0
  183.3320  179.0430  144.5970 C   0  0  0  0  0  3  0  0  0  0  0  0
  189.2160  177.3240  147.2800 N   0  0  0  0  0  0  0  0  0  0  0  0
  185.1370  178.5500  146.0580 C   0  0  0  0  0  0  0  0  0  0  0  0
  183.9060  178.9320  145.9160 N   0  0  0  0  0  0  0  0  0  0  0  0
  190.6960  176.7540  145.4190 N   0  0  0  0  0  0  0  0  0  0  0  0
  191.8020  176.4510  146.3110 C   0  0  0  0  0  1  0  0  0  0  0  0
  188.5720  177.3330  143.6990 C   0  0  0  0  0  3  0  0  0  0  0  0
  184.0510  178.7540  143.4950 C   0  0  0  0  0  3  0  0  0  0  0  0
  186.9820  178.0120  146.9160 C   0  0  0  0  0  0  0  0  0  0  0  0
  185.7640  178.4140  147.2080 O   0  0  0  0  0  0  0  0  0  0  0  0
  190.8820  176.6180  144.0040 C   0  0  0  0  0  3  0  0  0  0  0  0
  185.4960  178.3000  143.5650 C   0  0  0  0  0  2  0  0  0  0  0  0
  189.8800  176.8890  143.1610 C   0  0  0  0  0  0  0  0  0  0  0  0
  189.4210  177.1850  145.9290 C   0  0  0  0  0  0  0  0  0  0  0  0
  190.1050  176.7390  141.7180 C   0  0  0  0  0  3  0  0  0  0  0  0
  189.4340  177.4500  140.8170 C   0  0  0  0  0  3  0  0  0  0  0  0
  189.6850  177.2700  139.3580 C   0  0  2  0  0  3  0  0  0  0  0  0
  188.4870  176.9290  138.7300 O   0  0  0  0  0  1  0  0  0  0  0  0
  190.7090  176.1690  139.1240 C   0  0  0  0  0  3  0  0  0  0  0  0
  191.7350  176.6400  138.1110 C   0  0  0  0  0  2  0  0  0  0  0  0
  190.6280  175.7000  137.6840 C   0  0  0  0  0  2  0  0  0  0  0  0
  1 13  1  0  0  0  0
  2  1  1  0  0  0  0
  2 18  1  0  0  0  0
  4  1  2  0  0  0  0
  4  7  1  0  0  0  0
  5  8  1  0  0  0  0
  6  3  1  0  0  0  0
  7 14  1  0  0  0  0
  8  7  2  0  0  0  0
  9 18  1  0  0  0  0
  9 10  1  0  0  0  0
 11  2  2  0  0  0  0
 12 16  1  0  0  0  0
 12  5  2  0  0  0  0
 13 14  1  0  0  0  0
 13  3  2  0  0  0  0
 15  9  1  0  0  0  0
 16  4  1  0  0  0  0
 17 11  1  0  0  0  0
 17 15  2  0  0  0  0
 18  6  2  0  0  0  0
 19 17  1  0  0  0  0
 20 19  2  0  0  0  0
 21 22  1  6  0  0  0
 21 20  1  0  0  0  0
 23 21  1  0  0  0  0
 24 23  1  0  0  0  0
 25 24  1  0  0  0  0
 25 23  1  0  0  0  0
M  END
>  <MODEL>
2

>  <REMARK>
 VINA RESULT:     -10.3      1.047      1.204
  Name = 
  3 active torsions:
  status: ('A' for Active; 'I' for Inactive)
    1  A    between atoms: C_2  and  C_21
    2  A    between atoms: C_6  and  C_23
    3  A    between atoms: C_15  and  C_21
                            x       y       z     vdW  Elec       q    Type
                         _______ _______ _______ _____ _____    ______ ____

>  <TORSDO>
F 3

$$$$
=
 OpenBabel10272400463D

 25 29  0  0  1  0  0  0  0  0999 V2000
  189.8610  177.4670  143.5200 C   0  0  0  0  0  0  0  0  0  0  0  0
  188.8140  177.7950  142.6560 C   0  0  0  0  0  0  0  0  0  0  0  0
  191.4060  177.2780  141.6840 C   0  0  0  0  0  3  0  0  0  0  0  0
  189.9400  177.3220  144.8880 C   0  0  0  0  0  0  0  0  0  0  0  0
  190.8380  176.8690  147.4680 C   0  0  0  0  0  3  0  0  0  0  0  0
  190.3870  177.5970  140.8310 N   0  0  0  0  0  0  0  0  0  0  0  0
  191.2550  176.9900  145.1340 C   0  0  0  0  0  0  0  0  0  0  0  0
  191.7150  176.7700  146.3260 N   0  0  0  0  0  0  0  0  0  0  0  0
  188.0650  178.1870  140.3460 N   0  0  0  0  0  0  0  0  0  0  0  0
  188.3170  178.2600  138.9170 C   0  0  0  0  0  1  0  0  0  0  0  0
  187.5730  178.0450  143.0930 C   0  0  0  0  0  3  0  0  0  0  0  0
  189.5370  177.1870  147.3240 C   0  0  0  0  0  3  0  0  0  0  0  0
  191.1290  177.2150  143.0450 C   0  0  0  0  0  0  0  0  0  0  0  0
  191.9610  176.9280  144.0230 O   0  0  0  0  0  0  0  0  0  0  0  0
  186.7430  178.4500  140.8370 C   0  0  0  0  0  3  0  0  0  0  0  0
  188.9130  177.4610  145.9690 C   0  0  0  0  0  3  0  0  0  0  0  0
  186.4830  178.3880  142.1470 C   0  0  0  0  0  0  0  0  0  0  0  0
  189.1130  177.8540  141.2740 C   0  0  2  0  0  3  0  0  0  0  0  0
  185.1200  178.6640  142.6150 C   0  0  0  0  0  3  0  0  0  0  0  0
  184.8690  179.1400  143.8310 C   0  0  0  0  0  3  0  0  0  0  0  0
  183.4700  179.4050  144.2760 C   0  0  2  0  0  3  0  0  0  0  0  0
  183.3670  179.1290  145.6400 O   0  0  0  0  0  1  0  0  0  0  0  0
  182.4900  178.5310  143.5070 C   0  0  0  0  0  3  0  0  0  0  0  0
  181.4370  179.4050  142.8540 C   0  0  0  0  0  2  0  0  0  0  0  0
  181.1110  178.6530  144.1250 C   0  0  0  0  0  2  0  0  0  0  0  0
  1  4  1  0  0  0  0
  2 11  2  0  0  0  0
  2  1  1  0  0  0  0
  3 13  1  0  0  0  0
  4  7  1  0  0  0  0
  4 16  2  0  0  0  0
  6  3  2  0  0  0  0
  7  8  2  0  0  0  0
  8  5  1  0  0  0  0
  9 15  1  0  0  0  0
  9 18  1  0  0  0  0
 10  9  1  0  0  0  0
 12  5  2  0  0  0  0
 13  1  2  0  0  0  0
 13 14  1  0  0  0  0
 14  7  1  0  0  0  0
 15 17  2  0  0  0  0
 16 12  1  0  0  0  0
 17 19  1  0  0  0  0
 17 11  1  0  0  0  0
 18  6  1  1  0  0  0
 18  2  1  0  0  0  0
 19 20  2  0  0  0  0
 20 21  1  0  0  0  0
 21 22  1  1  0  0  0
 23 25  1  0  0  0  0
 23 21  1  0  0  0  0
 24 23  1  0  0  0  0
 24 25  1  0  0  0  0
M  END
>  <MODEL>
3

>  <REMARK>
 VINA RESULT:      -9.5      2.362      6.975
  Name = 
  3 active torsions:
  status: ('A' for Active; 'I' for Inactive)
    1  A    between atoms: C_2  and  C_21
    2  A    between atoms: C_6  and  C_23
    3  A    between atoms: C_15  and  C_21
                            x       y       z     vdW  Elec       q    Type
                         _______ _______ _______ _____ _____    ______ ____

>  <TORSDO>
F 3

$$$$
=
 OpenBabel10272400463D

 25 29  0  0  1  0  0  0  0  0999 V2000
  187.7660  177.7010  145.6090 C   0  0  0  0  0  0  0  0  0  0  0  0
  186.8850  178.0460  144.5830 C   0  0  0  0  0  0  0  0  0  0  0  0
  186.0750  178.0790  147.2810 C   0  0  0  0  0  3  0  0  0  0  0  0
  189.0850  177.3020  145.6210 C   0  0  0  0  0  0  0  0  0  0  0  0
  191.6090  176.4800  146.4080 C   0  0  0  0  0  3  0  0  0  0  0  0
  185.2060  178.4190  146.2830 N   0  0  0  0  0  0  0  0  0  0  0  0
  189.3860  177.1070  146.9520 C   0  0  0  0  0  0  0  0  0  0  0  0
  190.5540  176.7240  147.3620 N   0  0  0  0  0  0  0  0  0  0  0  0
  184.6280  178.7780  143.9350 N   0  0  0  0  0  0  0  0  0  0  0  0
  183.2660  179.1630  144.2660 C   0  0  0  0  0  1  0  0  0  0  0  0
  187.2450  178.0390  143.2930 C   0  0  0  0  0  3  0  0  0  0  0  0
  191.4080  176.6440  145.0860 C   0  0  0  0  0  3  0  0  0  0  0  0
  187.3710  177.7170  146.9280 C   0  0  0  0  0  0  0  0  0  0  0  0
  188.3520  177.3580  147.7290 O   0  0  0  0  0  0  0  0  0  0  0  0
  185.0350  178.7630  142.5600 C   0  0  0  0  0  3  0  0  0  0  0  0
  190.0750  177.0900  144.5170 C   0  0  0  0  0  3  0  0  0  0  0  0
  186.2820  178.4130  142.2290 C   0  0  0  0  0  0  0  0  0  0  0  0
  185.5700  178.4140  144.9590 C   0  0  2  0  0  3  0  0  0  0  0  0
  186.6660  178.4090  140.8120 C   0  0  0  0  0  3  0  0  0  0  0  0
  187.8730  178.0270  140.4040 C   0  0  0  0  0  3  0  0  0  0  0  0
  188.2320  178.0380  138.9560 C   0  0  2  0  0  3  0  0  0  0  0  0
  188.9820  179.1820  138.6830 O   0  0  0  0  0  1  0  0  0  0  0  0
  186.9770  178.0390  138.0960 C   0  0  0  0  0  3  0  0  0  0  0  0
  187.0360  176.8840  137.1150 C   0  0  0  0  0  2  0  0  0  0  0  0
  187.3560  178.2870  136.6490 C   0  0  0  0  0  2  0  0  0  0  0  0
  1  4  1  0  0  0  0
  1 13  2  0  0  0  0
  2  1  1  0  0  0  0
  4  7  1  0  0  0  0
  5  8  1  0  0  0  0
  6  3  2  0  0  0  0
  7  8  2  0  0  0  0
  7 14  1  0  0  0  0
  9 10  1  0  0  0  0
  9 18  1  0  0  0  0
 11  2  2  0  0  0  0
 12  5  2  0  0  0  0
 13  3  1  0  0  0  0
 13 14  1  0  0  0  0
 15  9  1  0  0  0  0
 16 12  1  0  0  0  0
 16  4  2  0  0  0  0
 17 15  2  0  0  0  0
 17 11  1  0  0  0  0
 18  2  1  6  0  0  0
 18  6  1  0  0  0  0
 19 17  1  0  0  0  0
 20 19  2  0  0  0  0
 21 22  1  1  0  0  0
 21 20  1  0  0  0  0
 23 21  1  0  0  0  0
 24 23  1  0  0  0  0
 25 24  1  0  0  0  0
 25 23  1  0  0  0  0
M  END
>  <MODEL>
4

>  <REMARK>
 VINA RESULT:      -9.5      1.725      4.738
  Name = 
  3 active torsions:
  status: ('A' for Active; 'I' for Inactive)
    1  A    between atoms: C_2  and  C_21
    2  A    between atoms: C_6  and  C_23
    3  A    between atoms: C_15  and  C_21
                            x       y       z     vdW  Elec       q    Type
                         _______ _______ _______ _____ _____    ______ ____

>  <TORSDO>
F 3

$$$$
=
 OpenBabel10272400463D

 25 29  0  0  1  0  0  0  0  0999 V2000
  187.8470  177.6910  145.5600 C   0  0  0  0  0  0  0  0  0  0  0  0
  187.0540  178.0350  144.4640 C   0  0  0  0  0  0  0  0  0  0  0  0
  186.0260  178.0770  147.0860 C   0  0  0  0  0  3  0  0  0  0  0  0
  189.1600  177.2890  145.6820 C   0  0  0  0  0  0  0  0  0  0  0  0
  191.6090  176.4630  146.6750 C   0  0  0  0  0  3  0  0  0  0  0  0
  185.2420  178.4170  146.0190 N   0  0  0  0  0  0  0  0  0  0  0  0
  189.3500  177.0980  147.0340 C   0  0  0  0  0  0  0  0  0  0  0  0
  190.4800  176.7120  147.5390 N   0  0  0  0  0  0  0  0  0  0  0  0
  184.8600  178.7690  143.6310 N   0  0  0  0  0  0  0  0  0  0  0  0
  183.4770  179.1590  143.8470 C   0  0  0  0  0  1  0  0  0  0  0  0
  187.5190  178.0230  143.2080 C   0  0  0  0  0  3  0  0  0  0  0  0
  191.5180  176.6240  145.3410 C   0  0  0  0  0  3  0  0  0  0  0  0
  187.3450  177.7110  146.8420 C   0  0  0  0  0  0  0  0  0  0  0  0
  188.2560  177.3520  147.7220 O   0  0  0  0  0  0  0  0  0  0  0  0
  185.3790  178.7500  142.2940 C   0  0  0  0  0  3  0  0  0  0  0  0
  190.2370  177.0720  144.6630 C   0  0  0  0  0  3  0  0  0  0  0  0
  186.6490  178.3960  142.0670 C   0  0  0  0  0  0  0  0  0  0  0  0
  185.7140  178.4060  144.7300 C   0  0  2  0  0  3  0  0  0  0  0  0
  187.1480  178.3870  140.6870 C   0  0  0  0  0  3  0  0  0  0  0  0
  188.4450  178.3290  140.4010 C   0  0  0  0  0  3  0  0  0  0  0  0
  188.9190  178.3250  138.9870 C   0  0  2  0  0  3  0  0  0  0  0  0
  187.8930  178.7860  138.1620 O   0  0  0  0  0  1  0  0  0  0  0  0
  189.3160  176.9190  138.5610 C   0  0  0  0  0  3  0  0  0  0  0  0
  190.7880  176.8970  138.1990 C   0  0  0  0  0  2  0  0  0  0  0  0
  189.7430  176.9320  137.1060 C   0  0  0  0  0  2  0  0  0  0  0  0
  1  4  1  0  0  0  0
  1 13  2  0  0  0  0
  2  1  1  0  0  0  0
  4  7  1  0  0  0  0
  5  8  1  0  0  0  0
  6  3  2  0  0  0  0
  7  8  2  0  0  0  0
  7 14  1  0  0  0  0
  9 10  1  0  0  0  0
  9 18  1  0  0  0  0
 11  2  2  0  0  0  0
 12  5  2  0  0  0  0
 13  3  1  0  0  0  0
 13 14  1  0  0  0  0
 15  9  1  0  0  0  0
 16 12  1  0  0  0  0
 16  4  2  0  0  0  0
 17 15  2  0  0  0  0
 17 11  1  0  0  0  0
 18  2  1  6  0  0  0
 18  6  1  0  0  0  0
 19 17  1  0  0  0  0
 20 19  2  0  0  0  0
 21 22  1  6  0  0  0
 21 20  1  0  0  0  0
 23 21  1  0  0  0  0
 24 23  1  0  0  0  0
 25 24  1  0  0  0  0
 25 23  1  0  0  0  0
M  END
>  <MODEL>
5

>  <REMARK>
 VINA RESULT:      -9.3      1.685      4.675
  Name = 
  3 active torsions:
  status: ('A' for Active; 'I' for Inactive)
    1  A    between atoms: C_2  and  C_21
    2  A    between atoms: C_6  and  C_23
    3  A    between atoms: C_15  and  C_21
                            x       y       z     vdW  Elec       q    Type
                         _______ _______ _______ _____ _____    ______ ____

>  <TORSDO>
F 3

$$$$
=
 OpenBabel10272400463D

 25 29  0  0  1  0  0  0  0  0999 V2000
  185.3090  178.3430  144.4880 C   0  0  0  0  0  0  0  0  0  0  0  0
  186.6470  177.9730  144.6300 C   0  0  0  0  0  0  0  0  0  0  0  0
  185.1110  178.7880  146.8450 C   0  0  0  0  0  3  0  0  0  0  0  0
  184.4640  178.4160  143.4020 C   0  0  0  0  0  0  0  0  0  0  0  0
  182.2650  178.7970  141.7610 C   0  0  0  0  0  3  0  0  0  0  0  0
  186.4200  178.4260  146.9940 N   0  0  0  0  0  0  0  0  0  0  0  0
  183.2620  178.8550  143.9150 C   0  0  0  0  0  0  0  0  0  0  0  0
  182.2090  179.0450  143.1820 N   0  0  0  0  0  0  0  0  0  0  0  0
  188.5700  177.6490  146.1280 N   0  0  0  0  0  0  0  0  0  0  0  0
  189.1830  177.6830  147.4460 C   0  0  0  0  0  1  0  0  0  0  0  0
  187.3990  177.5810  143.5920 C   0  0  0  0  0  3  0  0  0  0  0  0
  183.3970  178.3660  141.1710 C   0  0  0  0  0  3  0  0  0  0  0  0
  184.5570  178.7430  145.5700 C   0  0  0  0  0  0  0  0  0  0  0  0
  183.3270  179.0480  145.2170 O   0  0  0  0  0  0  0  0  0  0  0  0
  189.3570  177.2330  145.0030 C   0  0  0  0  0  3  0  0  0  0  0  0
  184.6740  178.1160  141.9490 C   0  0  0  0  0  2  0  0  0  0  0  0
  188.8180  177.1920  143.7800 C   0  0  0  0  0  0  0  0  0  0  0  0
  187.1950  178.0240  145.9340 C   0  0  0  0  0  0  0  0  0  0  0  0
  189.6500  176.7620  142.6510 C   0  0  0  0  0  3  0  0  0  0  0  0
  189.5120  177.2720  141.4310 C   0  0  0  0  0  3  0  0  0  0  0  0
  190.3730  176.8090  140.3040 C   0  0  2  0  0  3  0  0  0  0  0  0
  191.5630  177.5370  140.3120 O   0  0  0  0  0  1  0  0  0  0  0  0
  189.6640  177.0140  138.9730 C   0  0  0  0  0  3  0  0  0  0  0  0
  189.9170  175.8170  138.0760 C   0  0  0  0  0  2  0  0  0  0  0  0
  190.6910  177.0990  137.8610 C   0  0  0  0  0  2  0  0  0  0  0  0
  1  2  1  0  0  0  0
  1 13  1  0  0  0  0
  2 18  1  0  0  0  0
  3  6  1  0  0  0  0
  4  7  1  0  0  0  0
  4  1  2  0  0  0  0
  5  8  1  0  0  0  0
  7 14  1  0  0  0  0
  8  7  2  0  0  0  0
  9 10  1  0  0  0  0
 11 17  1  0  0  0  0
 11  2  2  0  0  0  0
 12  5  2  0  0  0  0
 12 16  1  0  0  0  0
 13  3  2  0  0  0  0
 14 13  1  0  0  0  0
 15  9  1  0  0  0  0
 16  4  1  0  0  0  0
 17 15  2  0  0  0  0
 18  9  1  0  0  0  0
 18  6  2  0  0  0  0
 19 17  1  0  0  0  0
 20 19  2  0  0  0  0
 21 22  1  6  0  0  0
 21 20  1  0  0  0  0
 23 21  1  0  0  0  0
 24 23  1  0  0  0  0
 25 24  1  0  0  0  0
 25 23  1  0  0  0  0
M  END
>  <MODEL>
6

>  <REMARK>
 VINA RESULT:      -9.3      1.464      2.037
  Name = 
  3 active torsions:
  status: ('A' for Active; 'I' for Inactive)
    1  A    between atoms: C_2  and  C_21
    2  A    between atoms: C_6  and  C_23
    3  A    between atoms: C_15  and  C_21
                            x       y       z     vdW  Elec       q    Type
                         _______ _______ _______ _____ _____    ______ ____

>  <TORSDO>
F 3

$$$$
=
 OpenBabel10272400463D

 25 29  0  0  1  0  0  0  0  0999 V2000
  189.6550  177.4580  143.9250 C   0  0  0  0  0  0  0  0  0  0  0  0
  188.6080  177.6550  144.8260 C   0  0  0  0  0  0  0  0  0  0  0  0
  191.2130  177.0630  145.7180 C   0  0  0  0  0  3  0  0  0  0  0  0
  189.7290  177.4840  142.5500 C   0  0  0  0  0  0  0  0  0  0  0  0
  190.6200  177.3740  139.9300 C   0  0  0  0  0  3  0  0  0  0  0  0
  190.1930  177.2560  146.6070 N   0  0  0  0  0  0  0  0  0  0  0  0
  191.0480  177.2080  142.2590 C   0  0  0  0  0  0  0  0  0  0  0  0
  191.5060  177.1470  141.0470 N   0  0  0  0  0  0  0  0  0  0  0  0
  187.8650  177.7430  147.1700 N   0  0  0  0  0  0  0  0  0  0  0  0
  188.1240  177.6430  148.5960 C   0  0  0  0  0  1  0  0  0  0  0  0
  187.3600  177.9380  144.4280 C   0  0  0  0  0  3  0  0  0  0  0  0
  189.3150  177.6510  140.1170 C   0  0  0  0  0  3  0  0  0  0  0  0
  190.9290  177.1670  144.3600 C   0  0  0  0  0  0  0  0  0  0  0  0
  191.7610  177.0190  143.3510 O   0  0  0  0  0  0  0  0  0  0  0  0
  186.5370  178.0450  146.7210 C   0  0  0  0  0  3  0  0  0  0  0  0
  188.6940  177.7420  141.4970 C   0  0  0  0  0  2  0  0  0  0  0  0
  186.2710  178.1440  145.4140 C   0  0  0  0  0  0  0  0  0  0  0  0
  188.9130  177.5460  146.2040 C   0  0  0  0  0  0  0  0  0  0  0  0
  184.9010  178.4550  144.9880 C   0  0  0  0  0  3  0  0  0  0  0  0
  184.6000  178.7580  143.7300 C   0  0  0  0  0  3  0  0  0  0  0  0
  183.1970  179.0720  143.3320 C   0  0  2  0  0  3  0  0  0  0  0  0
  182.3470  178.7880  144.4010 O   0  0  0  0  0  1  0  0  0  0  0  0
  182.7860  178.2420  142.1250 C   0  0  0  0  0  3  0  0  0  0  0  0
  182.4430  179.1640  140.9700 C   0  0  0  0  0  2  0  0  0  0  0  0
  181.3370  178.5290  141.7830 C   0  0  0  0  0  2  0  0  0  0  0  0
  1 13  1  0  0  0  0
  1  2  1  0  0  0  0
  2 18  1  0  0  0  0
  3  6  1  0  0  0  0
  4  1  2  0  0  0  0
  5 12  2  0  0  0  0
  5  8  1  0  0  0  0
  7  4  1  0  0  0  0
  7 14  1  0  0  0  0
  8  7  2  0  0  0  0
  9 10  1  0  0  0  0
 11  2  2  0  0  0  0
 11 17  1  0  0  0  0
 12 16  1  0  0  0  0
 13  3  2  0  0  0  0
 14 13  1  0  0  0  0
 15  9  1  0  0  0  0
 16  4  1  0  0  0  0
 17 15  2  0  0  0  0
 18  6  2  0  0  0  0
 18  9  1  0  0  0  0
 19 17  1  0  0  0  0
 20 19  2  0  0  0  0
 21 20  1  0  0  0  0
 21 22  1  1  0  0  0
 23 21  1  0  0  0  0
 24 25  1  0  0  0  0
 24 23  1  0  0  0  0
 25 23  1  0  0  0  0
M  END
>  <MODEL>
7

>  <REMARK>
 VINA RESULT:      -9.1      1.953      6.104
  Name = 
  3 active torsions:
  status: ('A' for Active; 'I' for Inactive)
    1  A    between atoms: C_2  and  C_21
    2  A    between atoms: C_6  and  C_23
    3  A    between atoms: C_15  and  C_21
                            x       y       z     vdW  Elec       q    Type
                         _______ _______ _______ _____ _____    ______ ____

>  <TORSDO>
F 3

$$$$
=
 OpenBabel10272400463D

 25 29  0  0  1  0  0  0  0  0999 V2000
  185.9490  178.4370  142.1660 C   0  0  0  0  0  0  0  0  0  0  0  0
  187.3010  178.0960  142.2240 C   0  0  0  0  0  0  0  0  0  0  0  0
  186.0430  178.6780  139.7720 C   0  0  0  0  0  3  0  0  0  0  0  0
  184.9710  178.5720  143.1270 C   0  0  0  0  0  0  0  0  0  0  0  0
  182.5750  179.0180  144.4420 C   0  0  0  0  0  3  0  0  0  0  0  0
  187.3670  178.3460  139.8200 N   0  0  0  0  0  0  0  0  0  0  0  0
  183.8350  178.9290  142.4320 C   0  0  0  0  0  0  0  0  0  0  0  0
  182.6950  179.1470  143.0090 N   0  0  0  0  0  0  0  0  0  0  0  0
  189.4060  177.7110  141.0100 N   0  0  0  0  0  0  0  0  0  0  0  0
  190.1800  177.6570  139.7820 C   0  0  0  0  0  1  0  0  0  0  0  0
  187.9230  177.8160  143.3770 C   0  0  0  0  0  3  0  0  0  0  0  0
  183.6310  178.6730  145.2040 C   0  0  0  0  0  3  0  0  0  0  0  0
  185.3320  178.7210  140.9670 C   0  0  0  0  0  0  0  0  0  0  0  0
  184.0610  179.0160  141.1370 O   0  0  0  0  0  0  0  0  0  0  0  0
  190.0510  177.4140  142.2560 C   0  0  0  0  0  3  0  0  0  0  0  0
  185.0020  178.4000  144.6150 C   0  0  0  0  0  3  0  0  0  0  0  0
  189.3620  177.4580  143.4020 C   0  0  0  0  0  0  0  0  0  0  0  0
  188.0090  178.0570  140.9990 C   0  0  2  0  0  3  0  0  0  0  0  0
  190.0530  177.1490  144.6590 C   0  0  0  0  0  3  0  0  0  0  0  0
  189.4070  177.0350  145.8150 C   0  0  0  0  0  3  0  0  0  0  0  0
  190.1410  176.7240  147.0760 C   0  0  2  0  0  3  0  0  0  0  0  0
  189.8280  177.6880  148.0340 O   0  0  0  0  0  1  0  0  0  0  0  0
  191.6430  176.7220  146.8330 C   0  0  0  0  0  3  0  0  0  0  0  0
  192.1630  175.2980  146.8880 C   0  0  0  0  0  2  0  0  0  0  0  0
  192.3570  176.2190  148.0720 C   0  0  0  0  0  2  0  0  0  0  0  0
  1  2  1  0  0  0  0
  1  4  1  0  0  0  0
  2 11  2  0  0  0  0
  3  6  2  0  0  0  0
  3 13  1  0  0  0  0
  4 16  2  0  0  0  0
  5 12  2  0  0  0  0
  7  8  2  0  0  0  0
  7  4  1  0  0  0  0
  8  5  1  0  0  0  0
  9 15  1  0  0  0  0
 10  9  1  0  0  0  0
 11 17  1  0  0  0  0
 13 14  1  0  0  0  0
 13  1  2  0  0  0  0
 14  7  1  0  0  0  0
 15 17  2  0  0  0  0
 16 12  1  0  0  0  0
 17 19  1  0  0  0  0
 18  6  1  6  0  0  0
 18  9  1  0  0  0  0
 18  2  1  0  0  0  0
 19 20  2  0  0  0  0
 20 21  1  0  0  0  0
 21 22  1  1  0  0  0
 23 24  1  0  0  0  0
 23 21  1  0  0  0  0
 23 25  1  0  0  0  0
 24 25  1  0  0  0  0
M  END
>  <MODEL>
8

>  <REMARK>
 VINA RESULT:      -9.1      2.937      5.735
  Name = 
  3 active torsions:
  status: ('A' for Active; 'I' for Inactive)
    1  A    between atoms: C_2  and  C_21
    2  A    between atoms: C_6  and  C_23
    3  A    between atoms: C_15  and  C_21
                            x       y       z     vdW  Elec       q    Type
                         _______ _______ _______ _____ _____    ______ ____

>  <TORSDO>
F 3

$$$$
=
 OpenBabel10272400463D

 25 29  0  0  1  0  0  0  0  0999 V2000
  189.4100  177.4770  144.4150 C   0  0  0  0  0  0  0  0  0  0  0  0
  189.0220  177.6810  143.0900 C   0  0  0  0  0  0  0  0  0  0  0  0
  191.6180  176.8010  143.7360 C   0  0  0  0  0  3  0  0  0  0  0  0
  188.7560  177.6210  145.6190 C   0  0  0  0  0  0  0  0  0  0  0  0
  188.1220  177.6710  148.3140 C   0  0  0  0  0  3  0  0  0  0  0  0
  191.2470  176.9960  142.4350 N   0  0  0  0  0  0  0  0  0  0  0  0
  189.6840  177.2650  146.5740 C   0  0  0  0  0  0  0  0  0  0  0  0
  189.4280  177.2740  147.8450 N   0  0  0  0  0  0  0  0  0  0  0  0
  189.6330  177.6190  140.7080 N   0  0  0  0  0  0  0  0  0  0  0  0
  190.5870  177.3700  139.6400 C   0  0  0  0  0  1  0  0  0  0  0  0
  187.7940  178.0980  142.7560 C   0  0  0  0  0  3  0  0  0  0  0  0
  187.1510  178.0360  147.4550 C   0  0  0  0  0  3  0  0  0  0  0  0
  190.6800  177.0480  144.7320 C   0  0  0  0  0  0  0  0  0  0  0  0
  190.8350  176.9220  146.0330 O   0  0  0  0  0  0  0  0  0  0  0  0
  188.3120  178.0670  140.3740 C   0  0  0  0  0  3  0  0  0  0  0  0
  187.3610  178.0540  145.9530 C   0  0  0  0  0  3  0  0  0  0  0  0
  187.4150  178.3020  141.3370 C   0  0  0  0  0  0  0  0  0  0  0  0
  189.9890  177.4240  142.0890 C   0  0  2  0  0  3  0  0  0  0  0  0
  186.0720  178.7590  140.9610 C   0  0  0  0  0  3  0  0  0  0  0  0
  185.5540  178.5280  139.7580 C   0  0  0  0  0  3  0  0  0  0  0  0
  184.1860  179.0100  139.4070 C   0  0  2  0  0  3  0  0  0  0  0  0
  184.2470  180.3710  139.1100 O   0  0  0  0  0  1  0  0  0  0  0  0
  183.2280  178.7870  140.5670 C   0  0  0  0  0  3  0  0  0  0  0  0
  182.2070  177.7330  140.1860 C   0  0  0  0  0  2  0  0  0  0  0  0
  181.8280  179.1960  140.1530 C   0  0  0  0  0  2  0  0  0  0  0  0
  1 13  2  0  0  0  0
  1  4  1  0  0  0  0
  2  1  1  0  0  0  0
  3 13  1  0  0  0  0
  4 16  2  0  0  0  0
  4  7  1  0  0  0  0
  6  3  2  0  0  0  0
  7  8  2  0  0  0  0
  8  5  1  0  0  0  0
  9 18  1  0  0  0  0
 10  9  1  0  0  0  0
 11  2  2  0  0  0  0
 12  5  2  0  0  0  0
 13 14  1  0  0  0  0
 14  7  1  0  0  0  0
 15  9  1  0  0  0  0
 15 17  2  0  0  0  0
 16 12  1  0  0  0  0
 17 11  1  0  0  0  0
 18  6  1  1  0  0  0
 18  2  1  0  0  0  0
 19 17  1  0  0  0  0
 20 19  2  0  0  0  0
 21 22  1  1  0  0  0
 21 20  1  0  0  0  0
 21 23  1  0  0  0  0
 24 23  1  0  0  0  0
 25 24  1  0  0  0  0
 25 23  1  0  0  0  0
M  END
>  <MODEL>
9

>  <REMARK>
 VINA RESULT:      -9.1      3.127      5.573
  Name = 
  3 active torsions:
  status: ('A' for Active; 'I' for Inactive)
    1  A    between atoms: C_2  and  C_21
    2  A    between atoms: C_6  and  C_23
    3  A    between atoms: C_15  and  C_21
                            x       y       z     vdW  Elec       q    Type
                         _______ _______ _______ _____ _____    ______ ____

>  <TORSDO>
F 3

$$$$
