=
 OpenBabel10272414513D

 37 39  0  0  1  0  0  0  0  0999 V2000
  185.3760  176.8250  137.6310 C   0  0  2  0  0  3  0  0  0  0  0  0
  182.0840  177.3580  136.9460 C   0  0  0  0  0  0  0  0  0  0  0  0
  182.2630  179.4290  138.2770 N   0  0  0  0  0  0  0  0  0  0  0  0
  182.9190  173.4670  135.6140 C   0  0  0  0  0  3  0  0  0  0  0  0
  184.4820  178.6670  139.1290 C   0  0  1  0  0  3  0  0  0  0  0  0
  183.4390  175.2860  137.0930 N   0  0  0  0  0  0  0  0  0  0  0  0
  181.7640  174.2190  135.1110 C   0  0  0  0  0  3  0  0  0  0  0  0
  184.3110  175.8250  138.1430 C   0  0  0  0  0  2  0  0  0  0  0  0
  181.3800  175.3430  135.7040 C   0  0  0  0  0  3  0  0  0  0  0  0
  183.3810  179.7400  139.1720 C   0  0  0  0  0  2  0  0  0  0  0  0
  182.0740  175.8520  136.9410 C   0  0  2  0  0  3  0  0  0  0  0  0
  184.9060  178.2830  137.7070 C   0  0  0  0  0  2  0  0  0  0  0  0
  183.7070  173.9590  136.5770 C   0  0  0  0  0  0  0  0  0  0  0  0
  181.8250  178.0920  138.1540 N   0  0  0  0  0  0  0  0  0  0  0  0
  182.3650  177.9790  135.8850 O   0  0  0  0  0  0  0  0  0  0  0  0
  180.6570  180.2220  136.5680 C   0  0  0  0  0  3  0  0  0  0  0  0
  181.5430  180.4980  137.6270 C   0  0  0  0  0  0  0  0  0  0  0  0
  181.7310  181.8340  138.0320 C   0  0  0  0  0  3  0  0  0  0  0  0
  181.2550  184.1560  137.7700 F   0  0  0  0  0  0  0  0  0  0  0  0
  180.1840  182.5810  136.3240 C   0  0  0  0  0  3  0  0  0  0  0  0
  181.0500  182.8700  137.3850 C   0  0  0  0  0  0  0  0  0  0  0  0
  179.9860  181.2570  135.9170 C   0  0  0  0  0  3  0  0  0  0  0  0
  184.8460  173.1070  137.1000 C   0  0  0  0  0  0  0  0  0  0  0  0
  184.9590  173.2500  138.4650 F   0  0  0  0  0  0  0  0  0  0  0  0
  184.6010  171.7870  136.7930 F   0  0  0  0  0  0  0  0  0  0  0  0
  186.0500  173.4750  136.5270 F   0  0  0  0  0  0  0  0  0  0  0  0
  185.1550  178.9500  141.3000 C   0  0  0  0  0  1  0  0  0  0  0  0
  185.5830  178.9660  139.9660 O   0  0  0  0  0  0  0  0  0  0  0  0
  185.9700  176.4760  136.2540 C   0  0  2  0  0  3  0  0  0  0  0  0
  188.0210  176.0110  137.6310 C   0  0  0  0  0  1  0  0  0  0  0  0
  188.0600  177.6550  135.8940 O   0  0  0  0  0  1  0  0  0  0  0  0
  187.5010  176.4270  136.2670 C   0  0  2  0  0  3  0  0  0  0  0  0
  185.5180  177.3680  135.2690 O   0  0  0  0  0  0  0  0  0  0  0  0
  184.8190  176.5840  134.3500 C   0  0  0  0  0  1  0  0  0  0  0  0
  181.2980  177.4110  139.3320 C   0  0  0  0  0  2  0  0  0  0  0  0
  180.0010  179.0920  140.5580 C   0  0  0  0  0  2  0  0  0  0  0  0
  179.9980  178.0240  139.7530 C   0  0  0  0  0  3  0  0  0  0  0  0
  1 29  1  6  0  0  0
  1 12  1  0  0  0  0
  1  8  1  0  0  0  0
  2 14  1  0  0  0  0
  3 10  1  0  0  0  0
  4 13  2  0  0  0  0
  5 10  1  0  0  0  0
  5 28  1  1  0  0  0
  6  8  1  0  0  0  0
  7  4  1  0  0  0  0
  7  9  2  0  0  0  0
 11  9  1  6  0  0  0
 11  2  1  0  0  0  0
 11  6  1  0  0  0  0
 12  5  1  0  0  0  0
 13  6  1  0  0  0  0
 13 23  1  0  0  0  0
 14  3  1  0  0  0  0
 14 35  1  0  0  0  0
 15  2  2  0  0  0  0
 16 17  1  0  0  0  0
 17 18  2  0  0  0  0
 17  3  1  0  0  0  0
 20 21  2  0  0  0  0
 21 19  1  0  0  0  0
 21 18  1  0  0  0  0
 22 20  1  0  0  0  0
 22 16  2  0  0  0  0
 23 24  1  0  0  0  0
 25 23  1  0  0  0  0
 26 23  1  0  0  0  0
 28 27  1  0  0  0  0
 29 33  1  6  0  0  0
 29 32  1  0  0  0  0
 31 32  1  0  0  0  0
 32 30  1  1  0  0  0
 34 33  1  0  0  0  0
 35 37  1  0  0  0  0
 37 36  2  0  0  0  0
M  END
>  <MODEL>
1

>  <REMARK>
 VINA RESULT:      -4.7      0.000      0.000
  Name = 
  8 active torsions:
  status: ('A' for Active; 'I' for Inactive)
    1  A    between atoms: C_1  and  C_5
    2  A    between atoms: C_3  and  C_30
    3  A    between atoms: C_5  and  O_11
    4  A    between atoms: C_5  and  C_23
    5  A    between atoms: C_6  and  N_7
    6  A    between atoms: C_10  and  O_33
    7  A    between atoms: C_14  and  N_31
    8  A    between atoms: C_14  and  C_37
                            x       y       z     vdW  Elec       q    Type
                         _______ _______ _______ _____ _____    ______ ____

>  <TORSDO>
F 8

$$$$
=
 OpenBabel10272414513D

 37 39  0  0  1  0  0  0  0  0999 V2000
  184.5360  178.7950  140.0050 C   0  0  2  0  0  3  0  0  0  0  0  0
  184.7100  177.0130  137.1100 C   0  0  0  0  0  0  0  0  0  0  0  0
  187.0980  176.6480  137.6160 N   0  0  0  0  0  0  0  0  0  0  0  0
  180.9400  178.8570  137.0980 C   0  0  0  0  0  3  0  0  0  0  0  0
  186.9660  178.3850  139.4040 C   0  0  1  0  0  3  0  0  0  0  0  0
  183.2240  178.8590  137.8410 N   0  0  0  0  0  0  0  0  0  0  0  0
  181.2220  177.6800  136.2700 C   0  0  0  0  0  3  0  0  0  0  0  0
  184.2680  179.4970  138.6520 C   0  0  0  0  0  2  0  0  0  0  0  0
  182.4670  177.2520  136.1050 C   0  0  0  0  0  3  0  0  0  0  0  0
  187.8520  177.3970  138.6270 C   0  0  0  0  0  2  0  0  0  0  0  0
  183.6350  177.9880  136.7100 C   0  0  2  0  0  3  0  0  0  0  0  0
  185.6660  177.7620  139.9250 C   0  0  0  0  0  2  0  0  0  0  0  0
  181.8970  179.4400  137.8310 C   0  0  0  0  0  0  0  0  0  0  0  0
  186.0960  177.3060  136.8690 N   0  0  0  0  0  0  0  0  0  0  0  0
  184.3900  175.9460  137.7010 O   0  0  0  0  0  0  0  0  0  0  0  0
  188.8180  174.9360  137.1240 C   0  0  0  0  0  3  0  0  0  0  0  0
  187.4660  175.2870  137.3070 C   0  0  0  0  0  0  0  0  0  0  0  0
  186.4770  174.2940  137.1680 C   0  0  0  0  0  3  0  0  0  0  0  0
  185.8710  172.0360  136.6940 F   0  0  0  0  0  0  0  0  0  0  0  0
  188.1810  172.6520  136.6520 C   0  0  0  0  0  3  0  0  0  0  0  0
  186.8350  172.9810  136.8470 C   0  0  0  0  0  0  0  0  0  0  0  0
  189.1730  173.6290  136.7930 C   0  0  0  0  0  3  0  0  0  0  0  0
  181.5600  180.6920  138.6150 C   0  0  0  0  0  0  0  0  0  0  0  0
  182.5990  181.5940  138.5410 F   0  0  0  0  0  0  0  0  0  0  0  0
  180.4180  181.2590  138.0930 F   0  0  0  0  0  0  0  0  0  0  0  0
  181.3360  180.4020  139.9490 F   0  0  0  0  0  0  0  0  0  0  0  0
  188.2630  178.1770  141.2800 C   0  0  0  0  0  1  0  0  0  0  0  0
  187.6710  179.0960  140.4030 O   0  0  0  0  0  0  0  0  0  0  0  0
  183.2790  178.2300  140.6920 C   0  0  2  0  0  3  0  0  0  0  0  0
  181.9780  178.9500  142.7180 C   0  0  0  0  0  1  0  0  0  0  0  0
  184.3470  179.2550  142.6140 O   0  0  0  0  0  1  0  0  0  0  0  0
  183.3040  178.4120  142.2130 C   0  0  2  0  0  3  0  0  0  0  0  0
  183.0900  176.8780  140.3650 O   0  0  0  0  0  0  0  0  0  0  0  0
  181.7420  176.7630  140.0200 C   0  0  0  0  0  1  0  0  0  0  0  0
  186.4750  178.4230  136.0100 C   0  0  0  0  0  2  0  0  0  0  0  0
  187.9440  177.3810  134.3460 C   0  0  0  0  0  2  0  0  0  0  0  0
  186.7610  177.9410  134.6210 C   0  0  0  0  0  3  0  0  0  0  0  0
  1 29  1  6  0  0  0
  2 15  2  0  0  0  0
  3 10  1  0  0  0  0
  4 13  2  0  0  0  0
  5 12  1  0  0  0  0
  5 28  1  1  0  0  0
  6  8  1  0  0  0  0
  7  4  1  0  0  0  0
  8  1  1  0  0  0  0
  9  7  2  0  0  0  0
 10  5  1  0  0  0  0
 11  9  1  1  0  0  0
 11  2  1  0  0  0  0
 11  6  1  0  0  0  0
 12  1  1  0  0  0  0
 13  6  1  0  0  0  0
 13 23  1  0  0  0  0
 14  2  1  0  0  0  0
 14  3  1  0  0  0  0
 16 17  1  0  0  0  0
 17  3  1  0  0  0  0
 18 17  2  0  0  0  0
 19 21  1  0  0  0  0
 20 22  1  0  0  0  0
 20 21  2  0  0  0  0
 21 18  1  0  0  0  0
 22 16  2  0  0  0  0
 23 26  1  0  0  0  0
 24 23  1  0  0  0  0
 25 23  1  0  0  0  0
 28 27  1  0  0  0  0
 29 33  1  1  0  0  0
 29 32  1  0  0  0  0
 32 31  1  0  0  0  0
 32 30  1  6  0  0  0
 34 33  1  0  0  0  0
 35 14  1  0  0  0  0
 36 37  2  0  0  0  0
 37 35  1  0  0  0  0
M  END
>  <MODEL>
2

>  <REMARK>
 VINA RESULT:      -3.8      2.309      7.252
  Name = 
  8 active torsions:
  status: ('A' for Active; 'I' for Inactive)
    1  A    between atoms: C_1  and  C_5
    2  A    between atoms: C_3  and  C_30
    3  A    between atoms: C_5  and  O_11
    4  A    between atoms: C_5  and  C_23
    5  A    between atoms: C_6  and  N_7
    6  A    between atoms: C_10  and  O_33
    7  A    between atoms: C_14  and  N_31
    8  A    between atoms: C_14  and  C_37
                            x       y       z     vdW  Elec       q    Type
                         _______ _______ _______ _____ _____    ______ ____

>  <TORSDO>
F 8

$$$$
=
 OpenBabel10272414513D

 37 39  0  0  1  0  0  0  0  0999 V2000
  190.5870  177.2710  139.0490 C   0  0  2  0  0  3  0  0  0  0  0  0
  190.6740  174.7160  136.8010 C   0  0  0  0  0  0  0  0  0  0  0  0
  193.1290  174.7280  137.0590 N   0  0  0  0  0  0  0  0  0  0  0  0
  186.7260  176.1390  136.7700 C   0  0  0  0  0  3  0  0  0  0  0  0
  192.9730  176.9080  138.2660 C   0  0  1  0  0  3  0  0  0  0  0  0
  189.0580  176.5630  137.1600 N   0  0  0  0  0  0  0  0  0  0  0  0
  187.0620  174.7940  136.2890 C   0  0  0  0  0  3  0  0  0  0  0  0
  190.0940  177.5040  137.6000 C   0  0  0  0  0  2  0  0  0  0  0  0
  188.3260  174.4450  136.0870 C   0  0  0  0  0  3  0  0  0  0  0  0
  193.8870  175.8100  137.6960 C   0  0  0  0  0  2  0  0  0  0  0  0
  189.4510  175.4270  136.2860 C   0  0  2  0  0  3  0  0  0  0  0  0
  191.8210  176.3630  139.1190 C   0  0  0  0  0  2  0  0  0  0  0  0
  187.6760  176.9970  137.1640 C   0  0  0  0  0  0  0  0  0  0  0  0
  191.9810  175.0400  136.2980 N   0  0  0  0  0  0  0  0  0  0  0  0
  190.5510  173.8560  137.7150 O   0  0  0  0  0  0  0  0  0  0  0  0
  194.6030  173.0080  138.0580 C   0  0  0  0  0  3  0  0  0  0  0  0
  193.6270  173.3750  137.1120 C   0  0  0  0  0  0  0  0  0  0  0  0
  193.1550  172.4050  136.2050 C   0  0  0  0  0  3  0  0  0  0  0  0
  193.2110  170.1790  135.3500 F   0  0  0  0  0  0  0  0  0  0  0  0
  194.6380  170.7560  137.1800 C   0  0  0  0  0  3  0  0  0  0  0  0
  193.6570  171.1000  136.2430 C   0  0  0  0  0  0  0  0  0  0  0  0
  195.1090  171.7100  138.0890 C   0  0  0  0  0  3  0  0  0  0  0  0
  187.2720  178.3940  137.5890 C   0  0  0  0  0  0  0  0  0  0  0  0
  188.3890  179.1840  137.7500 F   0  0  0  0  0  0  0  0  0  0  0  0
  186.4540  178.9420  136.6250 F   0  0  0  0  0  0  0  0  0  0  0  0
  186.5830  178.3720  138.7880 F   0  0  0  0  0  0  0  0  0  0  0  0
  193.7330  177.6780  140.2840 C   0  0  0  0  0  1  0  0  0  0  0  0
  193.6860  177.9460  138.9090 O   0  0  0  0  0  0  0  0  0  0  0  0
  189.4880  176.8350  140.0360 C   0  0  2  0  0  3  0  0  0  0  0  0
  187.5660  177.7290  141.3860 C   0  0  0  0  0  1  0  0  0  0  0  0
  189.0380  179.2110  140.2210 O   0  0  0  0  0  1  0  0  0  0  0  0
  188.9810  177.9900  140.9040 C   0  0  2  0  0  3  0  0  0  0  0  0
  189.9260  175.7730  140.8420 O   0  0  0  0  0  0  0  0  0  0  0  0
  190.3350  176.3600  142.0410 C   0  0  0  0  0  1  0  0  0  0  0  0
  192.1280  175.8720  135.1080 C   0  0  0  0  0  2  0  0  0  0  0  0
  194.3820  176.4650  134.3470 C   0  0  0  0  0  2  0  0  0  0  0  0
  193.4080  175.5500  134.4000 C   0  0  0  0  0  3  0  0  0  0  0  0
  1 12  1  0  0  0  0
  1 29  1  1  0  0  0
  2 15  2  0  0  0  0
  3 17  1  0  0  0  0
  3 10  1  0  0  0  0
  4 13  2  0  0  0  0
  5 28  1  1  0  0  0
  5 12  1  0  0  0  0
  6 13  1  0  0  0  0
  6  8  1  0  0  0  0
  7  4  1  0  0  0  0
  8  1  1  0  0  0  0
  9  7  2  0  0  0  0
 10  5  1  0  0  0  0
 11  9  1  1  0  0  0
 11  2  1  0  0  0  0
 11  6  1  0  0  0  0
 13 23  1  0  0  0  0
 14  2  1  0  0  0  0
 14  3  1  0  0  0  0
 16 22  1  0  0  0  0
 17 16  2  0  0  0  0
 18 21  2  0  0  0  0
 18 17  1  0  0  0  0
 19 21  1  0  0  0  0
 20 22  2  0  0  0  0
 21 20  1  0  0  0  0
 23 24  1  0  0  0  0
 23 26  1  0  0  0  0
 25 23  1  0  0  0  0
 28 27  1  0  0  0  0
 29 33  1  1  0  0  0
 29 32  1  0  0  0  0
 31 32  1  0  0  0  0
 32 30  1  6  0  0  0
 33 34  1  0  0  0  0
 35 14  1  0  0  0  0
 36 37  2  0  0  0  0
 37 35  1  0  0  0  0
M  END
>  <MODEL>
3

>  <REMARK>
 VINA RESULT:      -2.7      5.540     10.525
  Name = 
  8 active torsions:
  status: ('A' for Active; 'I' for Inactive)
    1  A    between atoms: C_1  and  C_5
    2  A    between atoms: C_3  and  C_30
    3  A    between atoms: C_5  and  O_11
    4  A    between atoms: C_5  and  C_23
    5  A    between atoms: C_6  and  N_7
    6  A    between atoms: C_10  and  O_33
    7  A    between atoms: C_14  and  N_31
    8  A    between atoms: C_14  and  C_37
                            x       y       z     vdW  Elec       q    Type
                         _______ _______ _______ _____ _____    ______ ____

>  <TORSDO>
F 8

$$$$
=
 OpenBabel10272414513D

 37 39  0  0  1  0  0  0  0  0999 V2000
  186.8430  177.7080  138.1950 C   0  0  2  0  0  3  0  0  0  0  0  0
  183.7430  177.2430  136.8660 C   0  0  0  0  0  0  0  0  0  0  0  0
  182.9010  178.8040  138.5820 N   0  0  0  0  0  0  0  0  0  0  0  0
  186.2200  174.3940  135.0310 C   0  0  0  0  0  3  0  0  0  0  0  0
  185.0910  178.6500  139.7700 C   0  0  1  0  0  3  0  0  0  0  0  0
  185.7640  175.8060  136.9200 N   0  0  0  0  0  0  0  0  0  0  0  0
  184.9490  174.8110  134.4270 C   0  0  0  0  0  3  0  0  0  0  0  0
  186.1930  176.3040  138.2320 C   0  0  0  0  0  2  0  0  0  0  0  0
  184.0740  175.5270  135.1200 C   0  0  0  0  0  3  0  0  0  0  0  0
  183.6650  179.2250  139.7610 C   0  0  0  0  0  2  0  0  0  0  0  0
  184.3240  175.8870  136.5620 C   0  0  2  0  0  3  0  0  0  0  0  0
  185.8340  178.8370  138.4420 C   0  0  0  0  0  2  0  0  0  0  0  0
  186.6030  174.8460  136.2310 C   0  0  0  0  0  0  0  0  0  0  0  0
  183.0440  177.4850  138.0970 N   0  0  0  0  0  0  0  0  0  0  0  0
  183.9100  178.1860  136.0460 O   0  0  0  0  0  0  0  0  0  0  0  0
  181.4380  180.7950  138.7350 C   0  0  0  0  0  3  0  0  0  0  0  0
  181.9240  179.6940  138.0030 C   0  0  0  0  0  0  0  0  0  0  0  0
  181.4300  179.4640  136.7040 C   0  0  0  0  0  3  0  0  0  0  0  0
  179.9820  180.0730  134.9090 F   0  0  0  0  0  0  0  0  0  0  0  0
  179.9820  181.3970  136.9000 C   0  0  0  0  0  3  0  0  0  0  0  0
  180.4670  180.3160  136.1540 C   0  0  0  0  0  0  0  0  0  0  0  0
  180.4690  181.6370  138.1890 C   0  0  0  0  0  3  0  0  0  0  0  0
  187.8950  174.3290  136.8310 C   0  0  0  0  0  0  0  0  0  0  0  0
  188.8820  174.2870  135.8710 F   0  0  0  0  0  0  0  0  0  0  0  0
  188.2830  175.1630  137.8570 F   0  0  0  0  0  0  0  0  0  0  0  0
  187.7340  173.0530  137.3400 F   0  0  0  0  0  0  0  0  0  0  0  0
  187.0850  178.4020  140.8690 C   0  0  0  0  0  1  0  0  0  0  0  0
  185.8530  179.0700  140.8860 O   0  0  0  0  0  0  0  0  0  0  0  0
  187.7200  177.9740  136.9570 C   0  0  2  0  0  3  0  0  0  0  0  0
  189.5950  177.9920  138.6310 C   0  0  0  0  0  1  0  0  0  0  0  0
  189.0500  179.9580  137.3830 O   0  0  0  0  0  1  0  0  0  0  0  0
  189.0890  178.5600  137.3180 C   0  0  2  0  0  3  0  0  0  0  0  0
  187.0600  178.8040  136.0390 O   0  0  0  0  0  0  0  0  0  0  0  0
  187.2700  178.2190  134.7890 C   0  0  0  0  0  1  0  0  0  0  0  0
  182.6610  176.3720  138.9590 C   0  0  0  0  0  2  0  0  0  0  0  0
  181.1340  174.6010  138.2210 C   0  0  0  0  0  2  0  0  0  0  0  0
  181.2950  175.8750  138.5950 C   0  0  0  0  0  3  0  0  0  0  0  0
  1 29  1  6  0  0  0
  1  8  1  0  0  0  0
  1 12  1  0  0  0  0
  2 14  1  0  0  0  0
  3 10  1  0  0  0  0
  4 13  2  0  0  0  0
  5 28  1  1  0  0  0
  6  8  1  0  0  0  0
  7  4  1  0  0  0  0
  7  9  2  0  0  0  0
 10  5  1  0  0  0  0
 11  9  1  6  0  0  0
 11  2  1  0  0  0  0
 11  6  1  0  0  0  0
 12  5  1  0  0  0  0
 13 23  1  0  0  0  0
 13  6  1  0  0  0  0
 14  3  1  0  0  0  0
 14 35  1  0  0  0  0
 15  2  2  0  0  0  0
 17  3  1  0  0  0  0
 17 16  2  0  0  0  0
 18 17  1  0  0  0  0
 19 21  1  0  0  0  0
 20 22  2  0  0  0  0
 21 18  2  0  0  0  0
 21 20  1  0  0  0  0
 22 16  1  0  0  0  0
 23 26  1  0  0  0  0
 23 25  1  0  0  0  0
 24 23  1  0  0  0  0
 27 28  1  0  0  0  0
 29 33  1  6  0  0  0
 29 32  1  0  0  0  0
 32 31  1  0  0  0  0
 32 30  1  1  0  0  0
 34 33  1  0  0  0  0
 36 37  2  0  0  0  0
 37 35  1  0  0  0  0
M  END
>  <MODEL>
4

>  <REMARK>
 VINA RESULT:      -2.6      2.039      2.730
  Name = 
  8 active torsions:
  status: ('A' for Active; 'I' for Inactive)
    1  A    between atoms: C_1  and  C_5
    2  A    between atoms: C_3  and  C_30
    3  A    between atoms: C_5  and  O_11
    4  A    between atoms: C_5  and  C_23
    5  A    between atoms: C_6  and  N_7
    6  A    between atoms: C_10  and  O_33
    7  A    between atoms: C_14  and  N_31
    8  A    between atoms: C_14  and  C_37
                            x       y       z     vdW  Elec       q    Type
                         _______ _______ _______ _____ _____    ______ ____

>  <TORSDO>
F 8

$$$$
=
 OpenBabel10272414513D

 37 39  0  0  1  0  0  0  0  0999 V2000
  183.1880  176.9630  137.7380 C   0  0  2  0  0  3  0  0  0  0  0  0
  185.8790  175.6620  136.1070 C   0  0  0  0  0  0  0  0  0  0  0  0
  187.2410  177.3990  137.2110 N   0  0  0  0  0  0  0  0  0  0  0  0
  182.5120  173.7780  134.4540 C   0  0  0  0  0  3  0  0  0  0  0  0
  185.1490  178.5640  137.9170 C   0  0  1  0  0  3  0  0  0  0  0  0
  183.4580  175.6830  135.5700 N   0  0  0  0  0  0  0  0  0  0  0  0
  183.8520  173.1900  134.3460 C   0  0  0  0  0  3  0  0  0  0  0  0
  183.2400  176.9950  136.1910 C   0  0  0  0  0  2  0  0  0  0  0  0
  184.9280  173.8990  134.6630 C   0  0  0  0  0  3  0  0  0  0  0  0
  186.6860  178.5740  137.8920 C   0  0  0  0  0  2  0  0  0  0  0  0
  184.8200  175.3410  135.0860 C   0  0  2  0  0  3  0  0  0  0  0  0
  184.5530  177.2310  138.3840 C   0  0  0  0  0  2  0  0  0  0  0  0
  182.3200  174.9790  135.0150 C   0  0  0  0  0  0  0  0  0  0  0  0
  186.6010  176.9020  136.0540 N   0  0  0  0  0  0  0  0  0  0  0  0
  186.1020  174.8480  137.0440 O   0  0  0  0  0  0  0  0  0  0  0  0
  189.0090  175.6750  137.0490 C   0  0  0  0  0  3  0  0  0  0  0  0
  188.4940  176.8380  137.6530 C   0  0  0  0  0  0  0  0  0  0  0  0
  189.2120  177.4370  138.7070 C   0  0  0  0  0  3  0  0  0  0  0  0
  191.0890  177.4510  140.1790 F   0  0  0  0  0  0  0  0  0  0  0  0
  190.9060  175.7120  138.5480 C   0  0  0  0  0  3  0  0  0  0  0  0
  190.4160  176.8770  139.1480 C   0  0  0  0  0  0  0  0  0  0  0  0
  190.2040  175.1120  137.4970 C   0  0  0  0  0  3  0  0  0  0  0  0
  180.9210  175.5610  135.0400 C   0  0  0  0  0  0  0  0  0  0  0  0
  180.8960  176.7650  134.3700 F   0  0  0  0  0  0  0  0  0  0  0  0
  180.0530  174.6790  134.4350 F   0  0  0  0  0  0  0  0  0  0  0  0
  180.4940  175.7800  136.3360 F   0  0  0  0  0  0  0  0  0  0  0  0
  184.0480  179.2390  139.8090 C   0  0  0  0  0  1  0  0  0  0  0  0
  184.5960  179.6760  138.5960 O   0  0  0  0  0  0  0  0  0  0  0  0
  182.4990  175.7200  138.3290 C   0  0  2  0  0  3  0  0  0  0  0  0
  180.4570  175.0970  139.6550 C   0  0  0  0  0  1  0  0  0  0  0  0
  181.1830  177.3720  139.5220 O   0  0  0  0  0  1  0  0  0  0  0  0
  181.6360  176.0470  139.5510 C   0  0  2  0  0  3  0  0  0  0  0  0
  183.4370  174.7250  138.6450 O   0  0  0  0  0  0  0  0  0  0  0  0
  182.9560  173.5570  138.0510 C   0  0  0  0  0  1  0  0  0  0  0  0
  186.5100  177.7590  134.8760 C   0  0  0  0  0  2  0  0  0  0  0  0
  188.9020  177.8540  134.3460 C   0  0  0  0  0  2  0  0  0  0  0  0
  187.7890  178.5150  134.6790 C   0  0  0  0  0  3  0  0  0  0  0  0
  1 29  1  6  0  0  0
  1 12  1  0  0  0  0
  2 15  2  0  0  0  0
  3 17  1  0  0  0  0
  3 10  1  0  0  0  0
  4 13  2  0  0  0  0
  5 12  1  0  0  0  0
  5 28  1  1  0  0  0
  6  8  1  0  0  0  0
  7  4  1  0  0  0  0
  7  9  2  0  0  0  0
  8  1  1  0  0  0  0
 10  5  1  0  0  0  0
 11  9  1  1  0  0  0
 11  6  1  0  0  0  0
 11  2  1  0  0  0  0
 13 23  1  0  0  0  0
 13  6  1  0  0  0  0
 14  2  1  0  0  0  0
 14  3  1  0  0  0  0
 16 22  2  0  0  0  0
 16 17  1  0  0  0  0
 17 18  2  0  0  0  0
 18 21  1  0  0  0  0
 20 21  2  0  0  0  0
 21 19  1  0  0  0  0
 22 20  1  0  0  0  0
 23 26  1  0  0  0  0
 24 23  1  0  0  0  0
 25 23  1  0  0  0  0
 28 27  1  0  0  0  0
 29 33  1  1  0  0  0
 29 32  1  0  0  0  0
 31 32  1  0  0  0  0
 32 30  1  6  0  0  0
 34 33  1  0  0  0  0
 35 14  1  0  0  0  0
 36 37  2  0  0  0  0
 37 35  1  0  0  0  0
M  END
>  <MODEL>
5

>  <REMARK>
 VINA RESULT:      -2.5      3.452      6.624
  Name = 
  8 active torsions:
  status: ('A' for Active; 'I' for Inactive)
    1  A    between atoms: C_1  and  C_5
    2  A    between atoms: C_3  and  C_30
    3  A    between atoms: C_5  and  O_11
    4  A    between atoms: C_5  and  C_23
    5  A    between atoms: C_6  and  N_7
    6  A    between atoms: C_10  and  O_33
    7  A    between atoms: C_14  and  N_31
    8  A    between atoms: C_14  and  C_37
                            x       y       z     vdW  Elec       q    Type
                         _______ _______ _______ _____ _____    ______ ____

>  <TORSDO>
F 8

$$$$
=
 OpenBabel10272414513D

 37 39  0  0  1  0  0  0  0  0999 V2000
  187.4850  177.2500  137.3230 C   0  0  2  0  0  3  0  0  0  0  0  0
  185.1690  174.7970  136.8670 C   0  0  0  0  0  0  0  0  0  0  0  0
  186.5400  174.0170  134.9680 N   0  0  0  0  0  0  0  0  0  0  0  0
  183.5230  177.4170  139.7030 C   0  0  0  0  0  3  0  0  0  0  0  0
  187.8580  176.1350  135.0750 C   0  0  1  0  0  3  0  0  0  0  0  0
  185.0160  177.0670  137.8540 N   0  0  0  0  0  0  0  0  0  0  0  0
  183.0510  176.0340  139.5690 C   0  0  0  0  0  3  0  0  0  0  0  0
  186.0300  177.6250  136.9510 C   0  0  0  0  0  2  0  0  0  0  0  0
  183.4100  175.2960  138.5270 C   0  0  0  0  0  3  0  0  0  0  0  0
  187.6170  174.7990  134.3520 C   0  0  0  0  0  2  0  0  0  0  0  0
  184.2610  175.8630  137.4200 C   0  0  2  0  0  3  0  0  0  0  0  0
  187.9790  175.9930  136.5970 C   0  0  0  0  0  2  0  0  0  0  0  0
  184.4430  177.9230  138.8720 C   0  0  0  0  0  0  0  0  0  0  0  0
  185.3910  174.6810  135.4520 N   0  0  0  0  0  0  0  0  0  0  0  0
  185.7730  174.0250  137.6600 O   0  0  0  0  0  0  0  0  0  0  0  0
  185.4520  171.8070  134.7210 C   0  0  0  0  0  3  0  0  0  0  0  0
  186.6060  172.5760  134.9660 C   0  0  0  0  0  0  0  0  0  0  0  0
  187.8250  171.9170  135.2260 C   0  0  0  0  0  3  0  0  0  0  0  0
  189.0560  169.8950  135.5170 F   0  0  0  0  0  0  0  0  0  0  0  0
  186.7220  169.7710  135.0150 C   0  0  0  0  0  3  0  0  0  0  0  0
  187.8810  170.5200  135.2450 C   0  0  0  0  0  0  0  0  0  0  0  0
  185.5080  170.4140  134.7500 C   0  0  0  0  0  3  0  0  0  0  0  0
  184.8430  179.3780  139.0200 C   0  0  0  0  0  0  0  0  0  0  0  0
  183.7300  180.1860  138.9490 F   0  0  0  0  0  0  0  0  0  0  0  0
  185.4650  179.5550  140.2360 F   0  0  0  0  0  0  0  0  0  0  0  0
  185.7180  179.7600  138.0190 F   0  0  0  0  0  0  0  0  0  0  0  0
  190.0960  176.1420  134.5890 C   0  0  0  0  0  1  0  0  0  0  0  0
  188.9130  176.8900  134.5110 O   0  0  0  0  0  0  0  0  0  0  0  0
  187.7640  177.1940  138.8370 C   0  0  2  0  0  3  0  0  0  0  0  0
  188.1450  178.8920  140.6510 C   0  0  0  0  0  1  0  0  0  0  0  0
  188.6920  179.3870  138.3760 O   0  0  0  0  0  1  0  0  0  0  0  0
  188.6390  178.3550  139.3200 C   0  0  2  0  0  3  0  0  0  0  0  0
  188.3370  175.9660  139.1990 O   0  0  0  0  0  0  0  0  0  0  0  0
  189.6230  176.2730  139.6490 C   0  0  0  0  0  1  0  0  0  0  0  0
  184.5530  175.4180  134.5110 C   0  0  0  0  0  2  0  0  0  0  0  0
  182.1280  175.3000  134.8540 C   0  0  0  0  0  2  0  0  0  0  0  0
  183.2290  174.7360  134.3460 C   0  0  0  0  0  3  0  0  0  0  0  0
  1 29  1  1  0  0  0
  2 11  1  0  0  0  0
  2 15  2  0  0  0  0
  3 14  1  0  0  0  0
  5 28  1  6  0  0  0
  5 12  1  0  0  0  0
  6 13  1  0  0  0  0
  7  4  1  0  0  0  0
  8  1  1  0  0  0  0
  8  6  1  0  0  0  0
  9  7  2  0  0  0  0
 10  3  1  0  0  0  0
 10  5  1  0  0  0  0
 11  6  1  0  0  0  0
 11  9  1  1  0  0  0
 12  1  1  0  0  0  0
 13 23  1  0  0  0  0
 13  4  2  0  0  0  0
 14  2  1  0  0  0  0
 16 22  2  0  0  0  0
 16 17  1  0  0  0  0
 17  3  1  0  0  0  0
 17 18  2  0  0  0  0
 18 21  1  0  0  0  0
 20 21  2  0  0  0  0
 21 19  1  0  0  0  0
 22 20  1  0  0  0  0
 23 25  1  0  0  0  0
 24 23  1  0  0  0  0
 26 23  1  0  0  0  0
 28 27  1  0  0  0  0
 29 33  1  6  0  0  0
 29 32  1  0  0  0  0
 31 32  1  0  0  0  0
 32 30  1  1  0  0  0
 33 34  1  0  0  0  0
 35 14  1  0  0  0  0
 37 35  1  0  0  0  0
 37 36  2  0  0  0  0
M  END
>  <MODEL>
6

>  <REMARK>
 VINA RESULT:      -2.4      3.417      7.592
  Name = 
  8 active torsions:
  status: ('A' for Active; 'I' for Inactive)
    1  A    between atoms: C_1  and  C_5
    2  A    between atoms: C_3  and  C_30
    3  A    between atoms: C_5  and  O_11
    4  A    between atoms: C_5  and  C_23
    5  A    between atoms: C_6  and  N_7
    6  A    between atoms: C_10  and  O_33
    7  A    between atoms: C_14  and  N_31
    8  A    between atoms: C_14  and  C_37
                            x       y       z     vdW  Elec       q    Type
                         _______ _______ _______ _____ _____    ______ ____

>  <TORSDO>
F 8

$$$$
=
 OpenBabel10272414513D

 37 39  0  0  1  0  0  0  0  0999 V2000
  190.6170  176.9600  138.4150 C   0  0  2  0  0  3  0  0  0  0  0  0
  191.0800  175.0740  135.6190 C   0  0  0  0  0  0  0  0  0  0  0  0
  193.3800  174.6650  136.4180 N   0  0  0  0  0  0  0  0  0  0  0  0
  187.3950  177.0140  135.0990 C   0  0  0  0  0  3  0  0  0  0  0  0
  193.0890  176.4670  138.1210 C   0  0  1  0  0  3  0  0  0  0  0  0
  189.5740  176.9830  136.1090 N   0  0  0  0  0  0  0  0  0  0  0  0
  187.7380  175.8010  134.3480 C   0  0  0  0  0  3  0  0  0  0  0  0
  190.5330  177.6210  137.0180 C   0  0  0  0  0  2  0  0  0  0  0  0
  188.9800  175.3350  134.3470 C   0  0  0  0  0  3  0  0  0  0  0  0
  194.0300  175.4290  137.4870 C   0  0  0  0  0  2  0  0  0  0  0  0
  190.0900  176.0610  135.0630 C   0  0  2  0  0  3  0  0  0  0  0  0
  191.7180  175.8960  138.5030 C   0  0  0  0  0  2  0  0  0  0  0  0
  188.2760  177.5970  135.9220 C   0  0  0  0  0  0  0  0  0  0  0  0
  192.4930  175.3220  135.5370 N   0  0  0  0  0  0  0  0  0  0  0  0
  190.6610  174.0370  136.2010 O   0  0  0  0  0  0  0  0  0  0  0  0
  193.5450  172.6860  134.9390 C   0  0  0  0  0  3  0  0  0  0  0  0
  193.7410  173.2850  136.1980 C   0  0  0  0  0  0  0  0  0  0  0  0
  194.2790  172.5130  137.2470 C   0  0  0  0  0  3  0  0  0  0  0  0
  195.1050  170.4290  138.0610 F   0  0  0  0  0  0  0  0  0  0  0  0
  194.3910  170.5850  135.7840 C   0  0  0  0  0  3  0  0  0  0  0  0
  194.6070  171.1700  137.0380 C   0  0  0  0  0  0  0  0  0  0  0  0
  193.8630  171.3440  134.7350 C   0  0  0  0  0  3  0  0  0  0  0  0
  187.8850  178.8840  136.6200 C   0  0  0  0  0  0  0  0  0  0  0  0
  187.0810  179.6440  135.8000 F   0  0  0  0  0  0  0  0  0  0  0  0
  187.2070  178.5820  137.7810 F   0  0  0  0  0  0  0  0  0  0  0  0
  189.0010  179.6340  136.9460 F   0  0  0  0  0  0  0  0  0  0  0  0
  194.4790  176.3190  139.9350 C   0  0  0  0  0  1  0  0  0  0  0  0
  193.6910  177.1930  139.1750 O   0  0  0  0  0  0  0  0  0  0  0  0
  189.2720  176.4510  138.9640 C   0  0  2  0  0  3  0  0  0  0  0  0
  188.6060  178.0890  140.7520 C   0  0  0  0  0  1  0  0  0  0  0  0
  190.3260  176.4750  141.1490 O   0  0  0  0  0  1  0  0  0  0  0  0
  189.1200  176.6890  140.4700 C   0  0  2  0  0  3  0  0  0  0  0  0
  189.0840  175.0940  138.6620 O   0  0  0  0  0  0  0  0  0  0  0  0
  187.8500  175.0240  138.0120 C   0  0  0  0  0  1  0  0  0  0  0  0
  193.0050  176.3990  134.6940 C   0  0  0  0  0  2  0  0  0  0  0  0
  195.2590  177.3280  134.4390 C   0  0  0  0  0  2  0  0  0  0  0  0
  194.4800  176.2420  134.4860 C   0  0  0  0  0  3  0  0  0  0  0  0
  1 12  1  0  0  0  0
  1 29  1  6  0  0  0
  2 15  2  0  0  0  0
  3 10  1  0  0  0  0
  4 13  2  0  0  0  0
  5 12  1  0  0  0  0
  5 28  1  1  0  0  0
  6  8  1  0  0  0  0
  7  4  1  0  0  0  0
  8  1  1  0  0  0  0
  9  7  2  0  0  0  0
 10  5  1  0  0  0  0
 11  9  1  1  0  0  0
 11  2  1  0  0  0  0
 11  6  1  0  0  0  0
 13  6  1  0  0  0  0
 13 23  1  0  0  0  0
 14  2  1  0  0  0  0
 14  3  1  0  0  0  0
 16 17  1  0  0  0  0
 17  3  1  0  0  0  0
 17 18  2  0  0  0  0
 20 21  2  0  0  0  0
 21 18  1  0  0  0  0
 21 19  1  0  0  0  0
 22 16  2  0  0  0  0
 22 20  1  0  0  0  0
 23 26  1  0  0  0  0
 23 25  1  0  0  0  0
 24 23  1  0  0  0  0
 28 27  1  0  0  0  0
 29 33  1  1  0  0  0
 29 32  1  0  0  0  0
 32 30  1  6  0  0  0
 32 31  1  0  0  0  0
 34 33  1  0  0  0  0
 35 14  1  0  0  0  0
 36 37  2  0  0  0  0
 37 35  1  0  0  0  0
M  END
>  <MODEL>
7

>  <REMARK>
 VINA RESULT:      -2.2      6.025     10.722
  Name = 
  8 active torsions:
  status: ('A' for Active; 'I' for Inactive)
    1  A    between atoms: C_1  and  C_5
    2  A    between atoms: C_3  and  C_30
    3  A    between atoms: C_5  and  O_11
    4  A    between atoms: C_5  and  C_23
    5  A    between atoms: C_6  and  N_7
    6  A    between atoms: C_10  and  O_33
    7  A    between atoms: C_14  and  N_31
    8  A    between atoms: C_14  and  C_37
                            x       y       z     vdW  Elec       q    Type
                         _______ _______ _______ _____ _____    ______ ____

>  <TORSDO>
F 8

$$$$
=
 OpenBabel10272414513D

 37 39  0  0  1  0  0  0  0  0999 V2000
  185.9470  176.5700  136.2990 C   0  0  2  0  0  3  0  0  0  0  0  0
  184.8470  177.8960  139.2360 C   0  0  0  0  0  0  0  0  0  0  0  0
  182.5560  177.6710  138.3450 N   0  0  0  0  0  0  0  0  0  0  0  0
  189.0190  178.3490  139.2620 C   0  0  0  0  0  3  0  0  0  0  0  0
  183.5020  177.2150  136.0800 C   0  0  1  0  0  3  0  0  0  0  0  0
  186.9860  178.1280  138.0020 N   0  0  0  0  0  0  0  0  0  0  0  0
  188.2350  178.3820  140.5010 C   0  0  0  0  0  3  0  0  0  0  0  0
  186.3430  178.0150  136.6880 C   0  0  0  0  0  2  0  0  0  0  0  0
  186.9120  178.4720  140.4620 C   0  0  0  0  0  3  0  0  0  0  0  0
  182.2400  177.4150  136.9360 C   0  0  0  0  0  2  0  0  0  0  0  0
  186.1750  178.6010  139.1540 C   0  0  2  0  0  3  0  0  0  0  0  0
  184.5030  176.2260  136.6880 C   0  0  0  0  0  2  0  0  0  0  0  0
  188.4280  178.2520  138.0650 C   0  0  0  0  0  0  0  0  0  0  0  0
  183.6650  178.4840  138.6700 N   0  0  0  0  0  0  0  0  0  0  0  0
  184.7830  176.7560  139.7720 O   0  0  0  0  0  0  0  0  0  0  0  0
  181.2080  178.0710  140.3820 C   0  0  0  0  0  3  0  0  0  0  0  0
  181.6680  177.1970  139.3780 C   0  0  0  0  0  0  0  0  0  0  0  0
  181.2630  175.8480  139.4070 C   0  0  0  0  0  3  0  0  0  0  0  0
  180.0520  174.0780  140.4530 F   0  0  0  0  0  0  0  0  0  0  0  0
  179.9840  176.2630  141.4220 C   0  0  0  0  0  3  0  0  0  0  0  0
  180.4200  175.3860  140.4230 C   0  0  0  0  0  0  0  0  0  0  0  0
  180.3760  177.6060  141.4000 C   0  0  0  0  0  3  0  0  0  0  0  0
  189.2880  178.2880  136.8170 C   0  0  0  0  0  0  0  0  0  0  0  0
  188.5470  177.9130  135.7180 F   0  0  0  0  0  0  0  0  0  0  0  0
  189.7680  179.5660  136.6350 F   0  0  0  0  0  0  0  0  0  0  0  0
  190.3640  177.4260  136.9270 F   0  0  0  0  0  0  0  0  0  0  0  0
  183.4960  175.5880  134.4680 C   0  0  0  0  0  1  0  0  0  0  0  0
  183.2160  176.9370  134.7220 O   0  0  0  0  0  0  0  0  0  0  0  0
  186.9440  175.4890  136.7530 C   0  0  2  0  0  3  0  0  0  0  0  0
  189.0900  174.7760  135.6530 C   0  0  0  0  0  1  0  0  0  0  0  0
  187.1420  175.2470  134.3470 O   0  0  0  0  0  1  0  0  0  0  0  0
  187.5740  174.7360  135.5770 C   0  0  2  0  0  3  0  0  0  0  0  0
  186.3420  174.5880  137.6440 O   0  0  0  0  0  0  0  0  0  0  0  0
  186.8470  173.3320  137.3020 C   0  0  0  0  0  1  0  0  0  0  0  0
  183.6700  179.8770  138.2340 C   0  0  0  0  0  2  0  0  0  0  0  0
  181.5310  181.0750  138.2510 C   0  0  0  0  0  2  0  0  0  0  0  0
  182.5950  180.6480  138.9380 C   0  0  0  0  0  3  0  0  0  0  0  0
  1  8  1  0  0  0  0
  1 12  1  0  0  0  0
  1 29  1  1  0  0  0
  2 15  2  0  0  0  0
  3 14  1  0  0  0  0
  3 17  1  0  0  0  0
  4  7  1  0  0  0  0
  5 28  1  6  0  0  0
  5 12  1  0  0  0  0
  5 10  1  0  0  0  0
  6 13  1  0  0  0  0
  6 11  1  0  0  0  0
  8  6  1  0  0  0  0
  9  7  2  0  0  0  0
 10  3  1  0  0  0  0
 11  2  1  0  0  0  0
 11  9  1  1  0  0  0
 13  4  2  0  0  0  0
 14  2  1  0  0  0  0
 16 22  1  0  0  0  0
 17 18  1  0  0  0  0
 17 16  2  0  0  0  0
 18 21  2  0  0  0  0
 21 19  1  0  0  0  0
 21 20  1  0  0  0  0
 22 20  2  0  0  0  0
 23 26  1  0  0  0  0
 23 13  1  0  0  0  0
 24 23  1  0  0  0  0
 25 23  1  0  0  0  0
 27 28  1  0  0  0  0
 29 33  1  1  0  0  0
 31 32  1  0  0  0  0
 32 30  1  6  0  0  0
 32 29  1  0  0  0  0
 34 33  1  0  0  0  0
 35 14  1  0  0  0  0
 35 37  1  0  0  0  0
 36 37  2  0  0  0  0
M  END
>  <MODEL>
8

>  <REMARK>
 VINA RESULT:      -1.9      2.865      5.617
  Name = 
  8 active torsions:
  status: ('A' for Active; 'I' for Inactive)
    1  A    between atoms: C_1  and  C_5
    2  A    between atoms: C_3  and  C_30
    3  A    between atoms: C_5  and  O_11
    4  A    between atoms: C_5  and  C_23
    5  A    between atoms: C_6  and  N_7
    6  A    between atoms: C_10  and  O_33
    7  A    between atoms: C_14  and  N_31
    8  A    between atoms: C_14  and  C_37
                            x       y       z     vdW  Elec       q    Type
                         _______ _______ _______ _____ _____    ______ ____

>  <TORSDO>
F 8

$$$$
