=
 OpenBabel10272415043D

 37 37  0  0  1  0  0  0  0  0999 V2000
  189.9780  175.1730  142.6590 O   0  0  0  0  0  1  0  0  0  0  0  0
  189.5250  176.4990  142.7470 C   0  0  1  0  0  0  0  0  0  0  0  0
  191.7880  177.1030  143.4230 O   0  0  0  0  0  0  0  0  0  0  0  0
  191.2680  176.4890  144.5800 C   0  0  2  0  0  3  0  0  0  0  0  0
  190.4230  177.3240  143.6910 C   0  0  2  0  0  3  0  0  0  0  0  0
  191.6630  177.3020  145.7970 C   0  0  0  0  0  2  0  0  0  0  0  0
  190.3580  175.8930  147.1810 F   0  0  0  0  0  0  0  0  0  0  0  0
  191.6140  176.4580  147.0620 C   0  0  0  0  0  0  0  0  0  0  0  0
  191.8580  177.2490  148.1700 F   0  0  0  0  0  0  0  0  0  0  0  0
  192.5570  175.4480  146.9980 F   0  0  0  0  0  0  0  0  0  0  0  0
  189.5920  177.1410  141.3430 C   0  0  2  0  0  3  0  0  0  0  0  0
  188.0200  178.3880  139.7160 C   0  0  0  0  0  0  0  0  0  0  0  0
  188.2730  177.4940  140.8040 N   0  0  0  0  0  2  0  0  0  0  0  0
  188.9590  179.0280  139.1730 O   0  0  0  0  0  0  0  0  0  0  0  0
  186.6890  178.5730  139.2560 N   0  0  0  0  0  1  0  0  0  0  0  0
  190.4530  176.3740  140.3400 C   0  0  0  0  0  2  0  0  0  0  0  0
  191.5980  177.2350  139.8440 C   0  0  0  0  0  2  0  0  0  0  0  0
  192.2880  176.5320  138.6960 C   0  0  0  0  0  2  0  0  0  0  0  0
  191.6230  175.3380  138.4080 O   0  0  0  0  0  0  0  0  0  0  0  0
  191.5630  175.9570  136.1110 C   0  0  0  0  0  1  0  0  0  0  0  0
  192.0830  174.9720  137.1420 C   0  0  1  0  0  3  0  0  0  0  0  0
  193.6040  174.9630  137.1390 C   0  0  0  0  0  2  0  0  0  0  0  0
  193.5940  172.5790  136.4010 C   0  0  0  0  0  1  0  0  0  0  0  0
  194.1500  173.5680  137.4070 C   0  0  0  0  0  2  0  0  0  0  0  0
  188.1070  176.5190  143.3380 C   0  0  0  0  0  2  0  0  0  0  0  0
  187.8980  177.6120  144.3790 C   0  0  0  0  0  2  0  0  0  0  0  0
  187.5820  176.9960  145.7350 C   0  0  0  0  0  2  0  0  0  0  0  0
  187.1200  178.0110  146.6730 N   0  0  0  0  0  0  0  0  0  0  0  0
  185.4160  179.4170  147.4410 O   0  0  0  0  0  0  0  0  0  0  0  0
  185.7800  178.5330  146.6210 C   0  0  0  0  0  0  0  0  0  0  0  0
  188.0040  178.3810  147.7670 C   0  0  0  0  0  1  0  0  0  0  0  0
  184.8020  178.0520  145.5970 C   0  0  0  0  0  2  0  0  0  0  0  0
  184.0920  179.2220  144.9260 C   0  0  1  0  0  3  0  0  0  0  0  0
  184.9420  179.7730  143.7940 C   0  0  0  0  0  1  0  0  0  0  0  0
  182.6890  178.8520  144.4380 C   0  0  0  0  0  2  0  0  0  0  0  0
  182.5740  178.8840  142.9200 C   0  0  0  0  0  2  0  0  0  0  0  0
  181.2840  179.2680  142.5610 O   0  0  0  0  0  1  0  0  0  0  0  0
  2  1  1  6  0  0  0
  2 25  1  0  0  0  0
  3  5  1  0  0  0  0
  3  4  1  0  0  0  0
  4  6  1  1  0  0  0
  5  2  1  6  0  0  0
  5  4  1  0  0  0  0
  6  8  1  0  0  0  0
  8  7  1  0  0  0  0
  8  9  1  0  0  0  0
 10  8  1  0  0  0  0
 11 16  1  6  0  0  0
 11  2  1  0  0  0  0
 12 13  1  0  0  0  0
 13 11  1  0  0  0  0
 14 12  2  0  0  0  0
 15 12  1  0  0  0  0
 17 16  1  0  0  0  0
 18 17  1  0  0  0  0
 19 18  1  0  0  0  0
 21 20  1  6  0  0  0
 21 19  1  0  0  0  0
 22 21  1  0  0  0  0
 22 24  1  0  0  0  0
 23 24  1  0  0  0  0
 25 26  1  0  0  0  0
 26 27  1  0  0  0  0
 27 28  1  0  0  0  0
 28 31  1  0  0  0  0
 30 28  1  0  0  0  0
 30 29  2  0  0  0  0
 32 30  1  0  0  0  0
 33 34  1  6  0  0  0
 33 32  1  0  0  0  0
 35 33  1  0  0  0  0
 36 35  1  0  0  0  0
 37 36  1  0  0  0  0
M  END
>  <MODEL>
1

>  <REMARK>
 VINA RESULT:      -6.7      0.000      0.000
  Name = 
  20 active torsions:
  status: ('A' for Active; 'I' for Inactive)
    1  A    between atoms: C_1  and  N_5
    2  A    between atoms: C_1  and  C_36
    3  A    between atoms: C_6  and  O_8
    4  A    between atoms: C_6  and  C_31
    5  A    between atoms: C_7  and  C_33
    6  A    between atoms: O_8  and  C_19
    7  A    between atoms: C_10  and  C_14
    8  A    between atoms: C_10  and  C_20
    9  A    between atoms: C_10  and  N_22
   10  A    between atoms: C_11  and  C_26
   11  A    between atoms: C_11  and  C_33
   12  A    between atoms: C_14  and  C_31
   13  A    between atoms: C_16  and  C_30
   14  A    between atoms: C_17  and  C_26
   15  A    between atoms: C_18  and  C_19
   16  A    between atoms: C_18  and  C_35
   17  A    between atoms: C_20  and  C_24
   18  A    between atoms: C_20  and  C_29
   19  A    between atoms: C_21  and  C_30
   20  A    between atoms: C_29  and  C_36
                            x       y       z     vdW  Elec       q    Type
                         _______ _______ _______ _____ _____    ______ ____

>  <TORSDO>
F 20

$$$$
=
 OpenBabel10272415043D

 37 37  0  0  1  0  0  0  0  0999 V2000
  189.5390  178.4650  143.7000 O   0  0  0  0  0  1  0  0  0  0  0  0
  188.5630  177.5230  144.0650 C   0  0  1  0  0  0  0  0  0  0  0  0
  188.8860  178.2960  146.3540 O   0  0  0  0  0  0  0  0  0  0  0  0
  190.0150  177.4800  146.1350 C   0  0  2  0  0  3  0  0  0  0  0  0
  188.6890  177.1520  145.5560 C   0  0  2  0  0  3  0  0  0  0  0  0
  190.2510  176.6150  147.3580 C   0  0  0  0  0  2  0  0  0  0  0  0
  191.6450  174.7280  147.6720 F   0  0  0  0  0  0  0  0  0  0  0  0
  191.6750  176.0800  147.3870 C   0  0  0  0  0  0  0  0  0  0  0  0
  192.4050  176.7290  148.3650 F   0  0  0  0  0  0  0  0  0  0  0  0
  192.2790  176.2680  146.1570 F   0  0  0  0  0  0  0  0  0  0  0  0
  187.1660  178.1460  143.8450 C   0  0  2  0  0  3  0  0  0  0  0  0
  185.1320  178.8270  145.2840 C   0  0  0  0  0  0  0  0  0  0  0  0
  186.2900  178.0300  145.0170 N   0  0  0  0  0  2  0  0  0  0  0  0
  184.8180  179.7860  144.5310 O   0  0  0  0  0  0  0  0  0  0  0  0
  184.3370  178.5460  146.4280 N   0  0  0  0  0  1  0  0  0  0  0  0
  186.4790  177.7140  142.5500 C   0  0  0  0  0  2  0  0  0  0  0  0
  186.6330  178.7750  141.4790 C   0  0  0  0  0  2  0  0  0  0  0  0
  185.2660  179.1510  140.9510 C   0  0  0  0  0  2  0  0  0  0  0  0
  184.3290  178.1970  141.3520 O   0  0  0  0  0  0  0  0  0  0  0  0
  183.6450  179.3100  139.3620 C   0  0  0  0  0  1  0  0  0  0  0  0
  183.2390  178.3900  140.5010 C   0  0  1  0  0  3  0  0  0  0  0  0
  182.7800  177.0480  139.9530 C   0  0  0  0  0  2  0  0  0  0  0  0
  180.6840  177.9250  140.9850 C   0  0  0  0  0  1  0  0  0  0  0  0
  181.2650  176.9150  140.0150 C   0  0  0  0  0  2  0  0  0  0  0  0
  188.7680  176.2330  143.2570 C   0  0  0  0  0  2  0  0  0  0  0  0
  190.0600  176.2200  142.4500 C   0  0  0  0  0  2  0  0  0  0  0  0
  189.7970  176.6900  141.0260 C   0  0  0  0  0  2  0  0  0  0  0  0
  191.0480  176.8760  140.3000 N   0  0  0  0  0  0  0  0  0  0  0  0
  192.2610  176.7260  138.3050 O   0  0  0  0  0  0  0  0  0  0  0  0
  191.1620  176.5620  138.9000 C   0  0  0  0  0  0  0  0  0  0  0  0
  192.1450  177.5340  140.9920 C   0  0  0  0  0  1  0  0  0  0  0  0
  189.9970  176.0280  138.1300 C   0  0  0  0  0  2  0  0  0  0  0  0
  189.6840  176.9110  136.9280 C   0  0  1  0  0  3  0  0  0  0  0  0
  188.8560  176.1420  135.9130 C   0  0  0  0  0  1  0  0  0  0  0  0
  188.9980  178.2210  137.3270 C   0  0  0  0  0  2  0  0  0  0  0  0
  187.6860  177.9890  138.0630 C   0  0  0  0  0  2  0  0  0  0  0  0
  186.7210  178.8680  137.5750 O   0  0  0  0  0  1  0  0  0  0  0  0
  2  1  1  6  0  0  0
  4  3  1  0  0  0  0
  4  6  1  1  0  0  0
  5  2  1  6  0  0  0
  5  4  1  0  0  0  0
  5  3  1  0  0  0  0
  6  8  1  0  0  0  0
  8  7  1  0  0  0  0
  8  9  1  0  0  0  0
 10  8  1  0  0  0  0
 11 16  1  6  0  0  0
 11  2  1  0  0  0  0
 11 13  1  0  0  0  0
 12 15  1  0  0  0  0
 13 12  1  0  0  0  0
 14 12  2  0  0  0  0
 17 16  1  0  0  0  0
 18 19  1  0  0  0  0
 18 17  1  0  0  0  0
 21 20  1  6  0  0  0
 21 19  1  0  0  0  0
 22 24  1  0  0  0  0
 22 21  1  0  0  0  0
 24 23  1  0  0  0  0
 25  2  1  0  0  0  0
 26 25  1  0  0  0  0
 27 26  1  0  0  0  0
 28 31  1  0  0  0  0
 28 27  1  0  0  0  0
 29 30  2  0  0  0  0
 30 28  1  0  0  0  0
 32 30  1  0  0  0  0
 33 34  1  6  0  0  0
 33 35  1  0  0  0  0
 33 32  1  0  0  0  0
 35 36  1  0  0  0  0
 37 36  1  0  0  0  0
M  END
>  <MODEL>
2

>  <REMARK>
 VINA RESULT:      -6.5      2.381      7.345
  Name = 
  20 active torsions:
  status: ('A' for Active; 'I' for Inactive)
    1  A    between atoms: C_1  and  N_5
    2  A    between atoms: C_1  and  C_36
    3  A    between atoms: C_6  and  O_8
    4  A    between atoms: C_6  and  C_31
    5  A    between atoms: C_7  and  C_33
    6  A    between atoms: O_8  and  C_19
    7  A    between atoms: C_10  and  C_14
    8  A    between atoms: C_10  and  C_20
    9  A    between atoms: C_10  and  N_22
   10  A    between atoms: C_11  and  C_26
   11  A    between atoms: C_11  and  C_33
   12  A    between atoms: C_14  and  C_31
   13  A    between atoms: C_16  and  C_30
   14  A    between atoms: C_17  and  C_26
   15  A    between atoms: C_18  and  C_19
   16  A    between atoms: C_18  and  C_35
   17  A    between atoms: C_20  and  C_24
   18  A    between atoms: C_20  and  C_29
   19  A    between atoms: C_21  and  C_30
   20  A    between atoms: C_29  and  C_36
                            x       y       z     vdW  Elec       q    Type
                         _______ _______ _______ _____ _____    ______ ____

>  <TORSDO>
F 20

$$$$
=
 OpenBabel10272415043D

 37 37  0  0  1  0  0  0  0  0999 V2000
  188.8580  176.0160  142.0870 O   0  0  0  0  0  1  0  0  0  0  0  0
  189.4790  177.2660  141.9350 C   0  0  1  0  0  0  0  0  0  0  0  0
  191.2000  176.2040  143.2960 O   0  0  0  0  0  0  0  0  0  0  0  0
  190.3470  176.7780  144.2600 C   0  0  2  0  0  3  0  0  0  0  0  0
  190.6180  177.4410  142.9610 C   0  0  2  0  0  3  0  0  0  0  0  0
  191.1850  177.4380  145.3380 C   0  0  0  0  0  2  0  0  0  0  0  0
  192.0980  175.5070  146.3570 F   0  0  0  0  0  0  0  0  0  0  0  0
  191.2520  176.5750  146.5890 C   0  0  0  0  0  0  0  0  0  0  0  0
  189.9940  176.0920  146.8990 F   0  0  0  0  0  0  0  0  0  0  0  0
  191.7390  177.3130  147.6520 F   0  0  0  0  0  0  0  0  0  0  0  0
  190.0950  177.3450  140.5210 C   0  0  2  0  0  3  0  0  0  0  0  0
  192.4560  176.9860  139.5340 C   0  0  0  0  0  0  0  0  0  0  0  0
  191.5570  177.4780  140.5330 N   0  0  0  0  0  2  0  0  0  0  0  0
  192.0340  176.2990  138.5660 O   0  0  0  0  0  0  0  0  0  0  0  0
  193.8460  177.2580  139.6460 N   0  0  0  0  0  1  0  0  0  0  0  0
  189.4200  178.3540  139.5930 C   0  0  0  0  0  2  0  0  0  0  0  0
  188.8700  177.6670  138.3590 C   0  0  0  0  0  2  0  0  0  0  0  0
  187.3600  177.6240  138.4460 C   0  0  0  0  0  2  0  0  0  0  0  0
  186.8570  176.7730  137.4590 O   0  0  0  0  0  0  0  0  0  0  0  0
  185.0250  176.5690  135.9530 C   0  0  0  0  0  1  0  0  0  0  0  0
  185.8060  177.4850  136.8790 C   0  0  1  0  0  3  0  0  0  0  0  0
  184.8960  178.0260  137.9720 C   0  0  0  0  0  2  0  0  0  0  0  0
  182.5250  178.7840  138.1520 C   0  0  0  0  0  1  0  0  0  0  0  0
  183.4420  177.6580  137.7140 C   0  0  0  0  0  2  0  0  0  0  0  0
  188.4570  178.3820  142.1970 C   0  0  0  0  0  2  0  0  0  0  0  0
  187.0090  177.9120  142.1090 C   0  0  0  0  0  2  0  0  0  0  0  0
  186.0680  179.1080  142.0790 C   0  0  0  0  0  2  0  0  0  0  0  0
  184.7570  178.7530  142.6100 N   0  0  0  0  0  0  0  0  0  0  0  0
  183.3270  178.5060  144.4440 O   0  0  0  0  0  0  0  0  0  0  0  0
  184.4680  178.8300  144.0170 C   0  0  0  0  0  0  0  0  0  0  0  0
  183.6950  178.4590  141.6610 C   0  0  0  0  0  1  0  0  0  0  0  0
  185.5030  179.2800  144.9970 C   0  0  0  0  0  2  0  0  0  0  0  0
  185.8410  178.1700  145.9870 C   0  0  1  0  0  3  0  0  0  0  0  0
  186.8660  177.2250  145.3850 C   0  0  0  0  0  1  0  0  0  0  0  0
  186.3110  178.7150  147.3380 C   0  0  0  0  0  2  0  0  0  0  0  0
  187.4170  177.8680  147.9530 C   0  0  0  0  0  2  0  0  0  0  0  0
  188.5650  178.6430  148.1010 O   0  0  0  0  0  1  0  0  0  0  0  0
  2  1  1  1  0  0  0
  2 25  1  0  0  0  0
  3  4  1  0  0  0  0
  4  6  1  1  0  0  0
  5  2  1  6  0  0  0
  5  3  1  0  0  0  0
  5  4  1  0  0  0  0
  6  8  1  0  0  0  0
  7  8  1  0  0  0  0
  8  9  1  0  0  0  0
  8 10  1  0  0  0  0
 11 16  1  1  0  0  0
 11 13  1  0  0  0  0
 11  2  1  0  0  0  0
 12 15  1  0  0  0  0
 12 13  1  0  0  0  0
 14 12  2  0  0  0  0
 17 18  1  0  0  0  0
 17 16  1  0  0  0  0
 19 18  1  0  0  0  0
 21 20  1  6  0  0  0
 21 19  1  0  0  0  0
 21 22  1  0  0  0  0
 24 22  1  0  0  0  0
 24 23  1  0  0  0  0
 26 25  1  0  0  0  0
 27 26  1  0  0  0  0
 27 28  1  0  0  0  0
 28 30  1  0  0  0  0
 30 29  2  0  0  0  0
 30 32  1  0  0  0  0
 31 28  1  0  0  0  0
 32 33  1  0  0  0  0
 33 34  1  6  0  0  0
 33 35  1  0  0  0  0
 35 36  1  0  0  0  0
 36 37  1  0  0  0  0
M  END
>  <MODEL>
3

>  <REMARK>
 VINA RESULT:      -6.4      2.498      5.123
  Name = 
  20 active torsions:
  status: ('A' for Active; 'I' for Inactive)
    1  A    between atoms: C_1  and  N_5
    2  A    between atoms: C_1  and  C_36
    3  A    between atoms: C_6  and  O_8
    4  A    between atoms: C_6  and  C_31
    5  A    between atoms: C_7  and  C_33
    6  A    between atoms: O_8  and  C_19
    7  A    between atoms: C_10  and  C_14
    8  A    between atoms: C_10  and  C_20
    9  A    between atoms: C_10  and  N_22
   10  A    between atoms: C_11  and  C_26
   11  A    between atoms: C_11  and  C_33
   12  A    between atoms: C_14  and  C_31
   13  A    between atoms: C_16  and  C_30
   14  A    between atoms: C_17  and  C_26
   15  A    between atoms: C_18  and  C_19
   16  A    between atoms: C_18  and  C_35
   17  A    between atoms: C_20  and  C_24
   18  A    between atoms: C_20  and  C_29
   19  A    between atoms: C_21  and  C_30
   20  A    between atoms: C_29  and  C_36
                            x       y       z     vdW  Elec       q    Type
                         _______ _______ _______ _____ _____    ______ ____

>  <TORSDO>
F 20

$$$$
=
 OpenBabel10272415043D

 37 37  0  0  1  0  0  0  0  0999 V2000
  188.7470  179.3030  141.5040 O   0  0  0  0  0  1  0  0  0  0  0  0
  188.3210  178.0400  141.0610 C   0  0  1  0  0  0  0  0  0  0  0  0
  186.3350  179.2350  140.3030 O   0  0  0  0  0  0  0  0  0  0  0  0
  186.0720  179.0220  141.6720 C   0  0  2  0  0  3  0  0  0  0  0  0
  186.7930  178.0200  140.8490 C   0  0  2  0  0  3  0  0  0  0  0  0
  184.6300  178.5810  141.8400 C   0  0  0  0  0  2  0  0  0  0  0  0
  184.4990  180.0070  143.7240 F   0  0  0  0  0  0  0  0  0  0  0  0
  184.1710  178.7390  143.2820 C   0  0  0  0  0  0  0  0  0  0  0  0
  184.8010  177.8060  144.0850 F   0  0  0  0  0  0  0  0  0  0  0  0
  182.8010  178.5730  143.3660 F   0  0  0  0  0  0  0  0  0  0  0  0
  188.9940  177.7380  139.7030 C   0  0  2  0  0  3  0  0  0  0  0  0
  188.0000  178.4250  137.4190 C   0  0  0  0  0  0  0  0  0  0  0  0
  188.0360  177.6130  138.5980 N   0  0  0  0  0  2  0  0  0  0  0  0
  188.7790  179.4040  137.2840 O   0  0  0  0  0  0  0  0  0  0  0  0
  187.0570  178.1340  136.3970 N   0  0  0  0  0  1  0  0  0  0  0  0
  190.0040  176.5920  139.7400 C   0  0  0  0  0  2  0  0  0  0  0  0
  191.2740  176.9700  139.0050 C   0  0  0  0  0  2  0  0  0  0  0  0
  191.6900  175.8240  138.1100 C   0  0  0  0  0  2  0  0  0  0  0  0
  192.0540  176.3160  136.8540 O   0  0  0  0  0  0  0  0  0  0  0  0
  194.2340  176.2650  135.9020 C   0  0  0  0  0  1  0  0  0  0  0  0
  193.0580  175.4530  136.4120 C   0  0  1  0  0  3  0  0  0  0  0  0
  193.4970  174.5560  137.5590 C   0  0  0  0  0  2  0  0  0  0  0  0
  195.5110  174.0790  138.9530 C   0  0  0  0  0  1  0  0  0  0  0  0
  195.0040  174.3420  137.5480 C   0  0  0  0  0  2  0  0  0  0  0  0
  188.6450  176.9850  142.1280 C   0  0  0  0  0  2  0  0  0  0  0  0
  188.6850  177.5460  143.5450 C   0  0  0  0  0  2  0  0  0  0  0  0
  190.0990  177.9900  143.8970 C   0  0  0  0  0  2  0  0  0  0  0  0
  190.7060  177.0770  144.8580 N   0  0  0  0  0  0  0  0  0  0  0  0
  190.9120  176.3150  147.0590 O   0  0  0  0  0  0  0  0  0  0  0  0
  190.3600  177.1120  146.2540 C   0  0  0  0  0  0  0  0  0  0  0  0
  191.5660  176.0210  144.3450 C   0  0  0  0  0  1  0  0  0  0  0  0
  189.3590  178.0900  146.7790 C   0  0  0  0  0  2  0  0  0  0  0  0
  188.1510  177.3740  147.3720 C   0  0  1  0  0  3  0  0  0  0  0  0
  187.9670  177.7730  148.8260 C   0  0  0  0  0  1  0  0  0  0  0  0
  186.8740  177.6130  146.5630 C   0  0  0  0  0  2  0  0  0  0  0  0
  186.0760  178.8040  147.0750 C   0  0  0  0  0  2  0  0  0  0  0  0
  184.7200  178.4830  147.0840 O   0  0  0  0  0  1  0  0  0  0  0  0
  2  1  1  1  0  0  0
  2 25  1  0  0  0  0
  3  5  1  0  0  0  0
  3  4  1  0  0  0  0
  4  6  1  6  0  0  0
  5  2  1  1  0  0  0
  5  4  1  0  0  0  0
  6  8  1  0  0  0  0
  8 10  1  0  0  0  0
  8  7  1  0  0  0  0
  8  9  1  0  0  0  0
 11 16  1  1  0  0  0
 11  2  1  0  0  0  0
 12 13  1  0  0  0  0
 13 11  1  0  0  0  0
 14 12  2  0  0  0  0
 15 12  1  0  0  0  0
 17 16  1  0  0  0  0
 18 17  1  0  0  0  0
 19 18  1  0  0  0  0
 21 20  1  1  0  0  0
 21 19  1  0  0  0  0
 21 22  1  0  0  0  0
 24 22  1  0  0  0  0
 24 23  1  0  0  0  0
 25 26  1  0  0  0  0
 26 27  1  0  0  0  0
 27 28  1  0  0  0  0
 28 30  1  0  0  0  0
 30 32  1  0  0  0  0
 30 29  2  0  0  0  0
 31 28  1  0  0  0  0
 32 33  1  0  0  0  0
 33 34  1  1  0  0  0
 35 36  1  0  0  0  0
 35 33  1  0  0  0  0
 36 37  1  0  0  0  0
M  END
>  <MODEL>
4

>  <REMARK>
 VINA RESULT:      -6.2      2.983      4.865
  Name = 
  20 active torsions:
  status: ('A' for Active; 'I' for Inactive)
    1  A    between atoms: C_1  and  N_5
    2  A    between atoms: C_1  and  C_36
    3  A    between atoms: C_6  and  O_8
    4  A    between atoms: C_6  and  C_31
    5  A    between atoms: C_7  and  C_33
    6  A    between atoms: O_8  and  C_19
    7  A    between atoms: C_10  and  C_14
    8  A    between atoms: C_10  and  C_20
    9  A    between atoms: C_10  and  N_22
   10  A    between atoms: C_11  and  C_26
   11  A    between atoms: C_11  and  C_33
   12  A    between atoms: C_14  and  C_31
   13  A    between atoms: C_16  and  C_30
   14  A    between atoms: C_17  and  C_26
   15  A    between atoms: C_18  and  C_19
   16  A    between atoms: C_18  and  C_35
   17  A    between atoms: C_20  and  C_24
   18  A    between atoms: C_20  and  C_29
   19  A    between atoms: C_21  and  C_30
   20  A    between atoms: C_29  and  C_36
                            x       y       z     vdW  Elec       q    Type
                         _______ _______ _______ _____ _____    ______ ____

>  <TORSDO>
F 20

$$$$
=
 OpenBabel10272415043D

 37 37  0  0  1  0  0  0  0  0999 V2000
  186.6700  179.9920  141.6730 O   0  0  0  0  0  1  0  0  0  0  0  0
  186.5890  178.6660  141.2180 C   0  0  1  0  0  0  0  0  0  0  0  0
  184.7400  179.6720  139.9870 O   0  0  0  0  0  0  0  0  0  0  0  0
  184.0880  179.0020  141.0420 C   0  0  2  0  0  3  0  0  0  0  0  0
  185.3030  178.4470  140.3950 C   0  0  2  0  0  3  0  0  0  0  0  0
  182.8660  178.2860  140.5000 C   0  0  0  0  0  2  0  0  0  0  0  0
  182.0340  178.6610  142.6840 F   0  0  0  0  0  0  0  0  0  0  0  0
  181.6420  178.5560  141.3630 C   0  0  0  0  0  0  0  0  0  0  0  0
  180.7400  177.5150  141.2430 F   0  0  0  0  0  0  0  0  0  0  0  0
  181.0390  179.7380  140.9770 F   0  0  0  0  0  0  0  0  0  0  0  0
  187.7970  178.3830  140.2970 C   0  0  2  0  0  3  0  0  0  0  0  0
  188.0600  178.6530  137.7410 C   0  0  0  0  0  0  0  0  0  0  0  0
  187.4150  178.1240  138.9040 N   0  0  0  0  0  2  0  0  0  0  0  0
  188.9990  179.4850  137.8450 O   0  0  0  0  0  0  0  0  0  0  0  0
  187.6210  178.2500  136.4510 N   0  0  0  0  0  1  0  0  0  0  0  0
  188.7770  177.3440  140.8430 C   0  0  0  0  0  2  0  0  0  0  0  0
  190.1920  177.8870  140.8420 C   0  0  0  0  0  2  0  0  0  0  0  0
  190.9630  177.2640  139.7000 C   0  0  0  0  0  2  0  0  0  0  0  0
  190.4910  175.9710  139.4650 O   0  0  0  0  0  0  0  0  0  0  0  0
  190.0840  175.5810  137.1530 C   0  0  0  0  0  1  0  0  0  0  0  0
  191.1070  175.5790  138.2740 C   0  0  1  0  0  3  0  0  0  0  0  0
  192.2420  176.5400  137.9510 C   0  0  0  0  0  2  0  0  0  0  0  0
  193.8370  176.1030  136.0820 C   0  0  0  0  0  1  0  0  0  0  0  0
  193.4970  175.7910  137.5270 C   0  0  0  0  0  2  0  0  0  0  0  0
  186.5270  177.7130  142.4200 C   0  0  0  0  0  2  0  0  0  0  0  0
  186.4550  178.4320  143.7620 C   0  0  0  0  0  2  0  0  0  0  0  0
  186.2660  177.4270  144.8900 C   0  0  0  0  0  2  0  0  0  0  0  0
  186.6350  178.0100  146.1740 N   0  0  0  0  0  0  0  0  0  0  0  0
  188.1820  178.2350  147.9140 O   0  0  0  0  0  0  0  0  0  0  0  0
  187.8990  177.7210  146.7990 C   0  0  0  0  0  0  0  0  0  0  0  0
  185.7540  179.0170  146.7430 C   0  0  0  0  0  1  0  0  0  0  0  0
  188.8900  176.8060  146.1540 C   0  0  0  0  0  2  0  0  0  0  0  0
  190.2330  177.5000  145.9610 C   0  0  1  0  0  3  0  0  0  0  0  0
  191.3240  176.7460  146.7000 C   0  0  0  0  0  1  0  0  0  0  0  0
  190.5880  177.6870  144.4840 C   0  0  0  0  0  2  0  0  0  0  0  0
  191.5210  176.6000  143.9680 C   0  0  0  0  0  2  0  0  0  0  0  0
  190.7760  175.6200  143.3170 O   0  0  0  0  0  1  0  0  0  0  0  0
  2  1  1  1  0  0  0
  2 25  1  0  0  0  0
  3  5  1  0  0  0  0
  3  4  1  0  0  0  0
  4  6  1  6  0  0  0
  5  4  1  0  0  0  0
  5  2  1  1  0  0  0
  6  8  1  0  0  0  0
  8  7  1  0  0  0  0
  9  8  1  0  0  0  0
 10  8  1  0  0  0  0
 11 16  1  1  0  0  0
 11  2  1  0  0  0  0
 12 14  2  0  0  0  0
 12 13  1  0  0  0  0
 13 11  1  0  0  0  0
 15 12  1  0  0  0  0
 17 16  1  0  0  0  0
 18 17  1  0  0  0  0
 19 18  1  0  0  0  0
 21 20  1  6  0  0  0
 21 19  1  0  0  0  0
 22 21  1  0  0  0  0
 23 24  1  0  0  0  0
 24 22  1  0  0  0  0
 25 26  1  0  0  0  0
 26 27  1  0  0  0  0
 27 28  1  0  0  0  0
 28 31  1  0  0  0  0
 28 30  1  0  0  0  0
 30 29  2  0  0  0  0
 32 30  1  0  0  0  0
 33 32  1  0  0  0  0
 33 34  1  6  0  0  0
 35 33  1  0  0  0  0
 36 35  1  0  0  0  0
 37 36  1  0  0  0  0
M  END
>  <MODEL>
5

>  <REMARK>
 VINA RESULT:      -6.2      3.626      6.149
  Name = 
  20 active torsions:
  status: ('A' for Active; 'I' for Inactive)
    1  A    between atoms: C_1  and  N_5
    2  A    between atoms: C_1  and  C_36
    3  A    between atoms: C_6  and  O_8
    4  A    between atoms: C_6  and  C_31
    5  A    between atoms: C_7  and  C_33
    6  A    between atoms: O_8  and  C_19
    7  A    between atoms: C_10  and  C_14
    8  A    between atoms: C_10  and  C_20
    9  A    between atoms: C_10  and  N_22
   10  A    between atoms: C_11  and  C_26
   11  A    between atoms: C_11  and  C_33
   12  A    between atoms: C_14  and  C_31
   13  A    between atoms: C_16  and  C_30
   14  A    between atoms: C_17  and  C_26
   15  A    between atoms: C_18  and  C_19
   16  A    between atoms: C_18  and  C_35
   17  A    between atoms: C_20  and  C_24
   18  A    between atoms: C_20  and  C_29
   19  A    between atoms: C_21  and  C_30
   20  A    between atoms: C_29  and  C_36
                            x       y       z     vdW  Elec       q    Type
                         _______ _______ _______ _____ _____    ______ ____

>  <TORSDO>
F 20

$$$$
=
 OpenBabel10272415043D

 37 37  0  0  1  0  0  0  0  0999 V2000
  188.4480  179.2530  138.1540 O   0  0  0  0  0  1  0  0  0  0  0  0
  188.2380  178.1340  138.9750 C   0  0  1  0  0  0  0  0  0  0  0  0
  185.9520  178.8620  138.5400 O   0  0  0  0  0  0  0  0  0  0  0  0
  186.0480  178.9470  139.9440 C   0  0  2  0  0  3  0  0  0  0  0  0
  186.7310  177.8760  139.1770 C   0  0  2  0  0  3  0  0  0  0  0  0
  184.7840  178.3830  140.5660 C   0  0  0  0  0  2  0  0  0  0  0  0
  185.3520  179.7900  142.3820 F   0  0  0  0  0  0  0  0  0  0  0  0
  184.7840  178.5680  142.0760 C   0  0  0  0  0  0  0  0  0  0  0  0
  185.5230  177.5660  142.6760 F   0  0  0  0  0  0  0  0  0  0  0  0
  183.4880  178.5410  142.5590 F   0  0  0  0  0  0  0  0  0  0  0  0
  188.8460  176.8910  138.2860 C   0  0  2  0  0  3  0  0  0  0  0  0
  191.2240  175.9130  138.0350 C   0  0  0  0  0  0  0  0  0  0  0  0
  190.2940  177.0010  138.0700 N   0  0  0  0  0  2  0  0  0  0  0  0
  190.8520  174.7360  138.2810 O   0  0  0  0  0  0  0  0  0  0  0  0
  192.5900  176.1690  137.7390 N   0  0  0  0  0  1  0  0  0  0  0  0
  188.0960  176.4340  137.0350 C   0  0  0  0  0  2  0  0  0  0  0  0
  187.5560  175.0290  137.2150 C   0  0  0  0  0  2  0  0  0  0  0  0
  186.3810  174.8250  136.2850 C   0  0  0  0  0  2  0  0  0  0  0  0
  185.1880  174.9400  137.0030 O   0  0  0  0  0  0  0  0  0  0  0  0
  184.0360  175.9140  135.1620 C   0  0  0  0  0  1  0  0  0  0  0  0
  184.6150  176.1290  136.5490 C   0  0  1  0  0  3  0  0  0  0  0  0
  183.5210  176.5640  137.5120 C   0  0  0  0  0  2  0  0  0  0  0  0
  182.2790  175.9060  139.5740 C   0  0  0  0  0  1  0  0  0  0  0  0
  183.0360  175.3990  138.3610 C   0  0  0  0  0  2  0  0  0  0  0  0
  188.8440  178.3940  140.3620 C   0  0  0  0  0  2  0  0  0  0  0  0
  188.8530  177.1640  141.2620 C   0  0  0  0  0  2  0  0  0  0  0  0
  188.7410  177.5770  142.7220 C   0  0  0  0  0  2  0  0  0  0  0  0
  189.7220  176.8730  143.5400 N   0  0  0  0  0  0  0  0  0  0  0  0
  190.7300  176.5240  145.6210 O   0  0  0  0  0  0  0  0  0  0  0  0
  189.8660  177.1440  144.9460 C   0  0  0  0  0  0  0  0  0  0  0  0
  190.4540  175.7750  142.9290 C   0  0  0  0  0  1  0  0  0  0  0  0
  189.0120  178.1630  145.6290 C   0  0  0  0  0  2  0  0  0  0  0  0
  187.9130  177.4980  146.4480 C   0  0  1  0  0  3  0  0  0  0  0  0
  188.0430  177.8820  147.9120 C   0  0  0  0  0  1  0  0  0  0  0  0
  186.5130  177.8120  145.9130 C   0  0  0  0  0  2  0  0  0  0  0  0
  185.6450  178.5270  146.9390 C   0  0  0  0  0  2  0  0  0  0  0  0
  184.3760  178.7380  146.4040 O   0  0  0  0  0  1  0  0  0  0  0  0
  2  1  1  6  0  0  0
  2 25  1  0  0  0  0
  3  5  1  0  0  0  0
  3  4  1  0  0  0  0
  4  6  1  1  0  0  0
  5  2  1  6  0  0  0
  5  4  1  0  0  0  0
  6  8  1  0  0  0  0
  8  7  1  0  0  0  0
  8 10  1  0  0  0  0
  8  9  1  0  0  0  0
 11 16  1  6  0  0  0
 11  2  1  0  0  0  0
 12 13  1  0  0  0  0
 12 14  2  0  0  0  0
 13 11  1  0  0  0  0
 15 12  1  0  0  0  0
 16 17  1  0  0  0  0
 18 19  1  0  0  0  0
 18 17  1  0  0  0  0
 21 20  1  6  0  0  0
 21 19  1  0  0  0  0
 21 22  1  0  0  0  0
 22 24  1  0  0  0  0
 24 23  1  0  0  0  0
 25 26  1  0  0  0  0
 26 27  1  0  0  0  0
 27 28  1  0  0  0  0
 28 30  1  0  0  0  0
 30 29  2  0  0  0  0
 30 32  1  0  0  0  0
 31 28  1  0  0  0  0
 32 33  1  0  0  0  0
 33 34  1  1  0  0  0
 35 33  1  0  0  0  0
 35 36  1  0  0  0  0
 37 36  1  0  0  0  0
M  END
>  <MODEL>
6

>  <REMARK>
 VINA RESULT:      -6.2      3.828      6.628
  Name = 
  20 active torsions:
  status: ('A' for Active; 'I' for Inactive)
    1  A    between atoms: C_1  and  N_5
    2  A    between atoms: C_1  and  C_36
    3  A    between atoms: C_6  and  O_8
    4  A    between atoms: C_6  and  C_31
    5  A    between atoms: C_7  and  C_33
    6  A    between atoms: O_8  and  C_19
    7  A    between atoms: C_10  and  C_14
    8  A    between atoms: C_10  and  C_20
    9  A    between atoms: C_10  and  N_22
   10  A    between atoms: C_11  and  C_26
   11  A    between atoms: C_11  and  C_33
   12  A    between atoms: C_14  and  C_31
   13  A    between atoms: C_16  and  C_30
   14  A    between atoms: C_17  and  C_26
   15  A    between atoms: C_18  and  C_19
   16  A    between atoms: C_18  and  C_35
   17  A    between atoms: C_20  and  C_24
   18  A    between atoms: C_20  and  C_29
   19  A    between atoms: C_21  and  C_30
   20  A    between atoms: C_29  and  C_36
                            x       y       z     vdW  Elec       q    Type
                         _______ _______ _______ _____ _____    ______ ____

>  <TORSDO>
F 20

$$$$
=
 OpenBabel10272415043D

 37 37  0  0  1  0  0  0  0  0999 V2000
  188.5230  179.0260  138.2560 O   0  0  0  0  0  1  0  0  0  0  0  0
  188.5780  177.6360  138.4490 C   0  0  1  0  0  0  0  0  0  0  0  0
  187.4980  177.5800  136.2640 O   0  0  0  0  0  0  0  0  0  0  0  0
  186.4100  177.7220  137.1490 C   0  0  2  0  0  3  0  0  0  0  0  0
  187.6030  176.9110  137.5000 C   0  0  2  0  0  3  0  0  0  0  0  0
  185.2910  176.7950  136.7170 C   0  0  0  0  0  2  0  0  0  0  0  0
  183.3000  177.8450  135.9840 F   0  0  0  0  0  0  0  0  0  0  0  0
  183.9310  177.3530  137.1110 C   0  0  0  0  0  0  0  0  0  0  0  0
  184.0880  178.3800  138.0230 F   0  0  0  0  0  0  0  0  0  0  0  0
  183.1490  176.3560  137.6650 F   0  0  0  0  0  0  0  0  0  0  0  0
  190.0090  177.1470  138.1280 C   0  0  2  0  0  3  0  0  0  0  0  0
  190.7230  175.0120  136.8620 C   0  0  0  0  0  0  0  0  0  0  0  0
  190.0970  175.6920  137.9540 N   0  0  0  0  0  2  0  0  0  0  0  0
  191.1940  175.6510  135.8850 O   0  0  0  0  0  0  0  0  0  0  0  0
  190.7960  173.5920  136.8700 N   0  0  0  0  0  1  0  0  0  0  0  0
  191.0880  177.6960  139.0610 C   0  0  0  0  0  2  0  0  0  0  0  0
  191.3700  176.7240  140.1880 C   0  0  0  0  0  2  0  0  0  0  0  0
  191.3220  177.4640  141.5070 C   0  0  0  0  0  2  0  0  0  0  0  0
  191.0810  176.5600  142.5440 O   0  0  0  0  0  0  0  0  0  0  0  0
  190.6020  178.3130  144.0820 C   0  0  0  0  0  1  0  0  0  0  0  0
  191.5580  177.2000  143.6900 C   0  0  1  0  0  3  0  0  0  0  0  0
  191.6800  176.1910  144.8210 C   0  0  0  0  0  2  0  0  0  0  0  0
  191.8550  175.8730  147.2900 C   0  0  0  0  0  1  0  0  0  0  0  0
  191.5690  176.8660  146.1800 C   0  0  0  0  0  2  0  0  0  0  0  0
  188.1480  177.3000  139.8850 C   0  0  0  0  0  2  0  0  0  0  0  0
  187.7890  178.5280  140.7140 C   0  0  0  0  0  2  0  0  0  0  0  0
  187.5030  178.1260  142.1540 C   0  0  0  0  0  2  0  0  0  0  0  0
  186.1310  178.4560  142.5230 N   0  0  0  0  0  0  0  0  0  0  0  0
  184.3870  178.3650  144.0790 O   0  0  0  0  0  0  0  0  0  0  0  0
  185.5800  178.0720  143.7960 C   0  0  0  0  0  0  0  0  0  0  0  0
  185.3740  179.3190  141.6300 C   0  0  0  0  0  1  0  0  0  0  0  0
  186.3940  177.3160  144.7960 C   0  0  0  0  0  2  0  0  0  0  0  0
  186.8540  178.2260  145.9290 C   0  0  1  0  0  3  0  0  0  0  0  0
  185.6850  178.5610  146.8400 C   0  0  0  0  0  1  0  0  0  0  0  0
  188.0220  177.6320  146.7200 C   0  0  0  0  0  2  0  0  0  0  0  0
  188.0500  178.1110  148.1640 C   0  0  0  0  0  2  0  0  0  0  0  0
  189.3670  178.3590  148.5440 O   0  0  0  0  0  1  0  0  0  0  0  0
  2  1  1  6  0  0  0
  2 25  1  0  0  0  0
  3  4  1  0  0  0  0
  3  5  1  0  0  0  0
  4  6  1  6  0  0  0
  4  5  1  0  0  0  0
  5  2  1  1  0  0  0
  6  8  1  0  0  0  0
  7  8  1  0  0  0  0
  8 10  1  0  0  0  0
  8  9  1  0  0  0  0
 11  2  1  0  0  0  0
 11 16  1  1  0  0  0
 12 15  1  0  0  0  0
 12 13  1  0  0  0  0
 13 11  1  0  0  0  0
 14 12  2  0  0  0  0
 16 17  1  0  0  0  0
 17 18  1  0  0  0  0
 18 19  1  0  0  0  0
 19 21  1  0  0  0  0
 21 20  1  1  0  0  0
 21 22  1  0  0  0  0
 22 24  1  0  0  0  0
 24 23  1  0  0  0  0
 25 26  1  0  0  0  0
 26 27  1  0  0  0  0
 27 28  1  0  0  0  0
 28 30  1  0  0  0  0
 30 29  2  0  0  0  0
 30 32  1  0  0  0  0
 31 28  1  0  0  0  0
 32 33  1  0  0  0  0
 33 35  1  0  0  0  0
 33 34  1  1  0  0  0
 35 36  1  0  0  0  0
 36 37  1  0  0  0  0
M  END
>  <MODEL>
7

>  <REMARK>
 VINA RESULT:      -6.1      4.234      7.299
  Name = 
  20 active torsions:
  status: ('A' for Active; 'I' for Inactive)
    1  A    between atoms: C_1  and  N_5
    2  A    between atoms: C_1  and  C_36
    3  A    between atoms: C_6  and  O_8
    4  A    between atoms: C_6  and  C_31
    5  A    between atoms: C_7  and  C_33
    6  A    between atoms: O_8  and  C_19
    7  A    between atoms: C_10  and  C_14
    8  A    between atoms: C_10  and  C_20
    9  A    between atoms: C_10  and  N_22
   10  A    between atoms: C_11  and  C_26
   11  A    between atoms: C_11  and  C_33
   12  A    between atoms: C_14  and  C_31
   13  A    between atoms: C_16  and  C_30
   14  A    between atoms: C_17  and  C_26
   15  A    between atoms: C_18  and  C_19
   16  A    between atoms: C_18  and  C_35
   17  A    between atoms: C_20  and  C_24
   18  A    between atoms: C_20  and  C_29
   19  A    between atoms: C_21  and  C_30
   20  A    between atoms: C_29  and  C_36
                            x       y       z     vdW  Elec       q    Type
                         _______ _______ _______ _____ _____    ______ ____

>  <TORSDO>
F 20

$$$$
=
 OpenBabel10272415043D

 37 37  0  0  1  0  0  0  0  0999 V2000
  188.2600  175.9700  143.2500 O   0  0  0  0  0  1  0  0  0  0  0  0
  188.7290  177.2630  143.5350 C   0  0  1  0  0  0  0  0  0  0  0  0
  187.3070  176.9120  145.4850 O   0  0  0  0  0  0  0  0  0  0  0  0
  186.4660  177.6260  144.6060 C   0  0  2  0  0  3  0  0  0  0  0  0
  187.9230  177.8970  144.6880 C   0  0  2  0  0  3  0  0  0  0  0  0
  185.7190  178.6910  145.3850 C   0  0  0  0  0  2  0  0  0  0  0  0
  183.4020  179.0850  145.6580 F   0  0  0  0  0  0  0  0  0  0  0  0
  184.4050  179.0480  144.7080 C   0  0  0  0  0  0  0  0  0  0  0  0
  184.0880  178.0950  143.7570 F   0  0  0  0  0  0  0  0  0  0  0  0
  184.5010  180.2890  144.1060 F   0  0  0  0  0  0  0  0  0  0  0  0
  190.2050  177.1670  143.9820 C   0  0  2  0  0  3  0  0  0  0  0  0
  191.3290  176.6430  146.2490 C   0  0  0  0  0  0  0  0  0  0  0  0
  190.3830  177.3380  145.4300 N   0  0  0  0  0  2  0  0  0  0  0  0
  192.0540  175.7320  145.7700 O   0  0  0  0  0  0  0  0  0  0  0  0
  191.4360  176.9720  147.6270 N   0  0  0  0  0  1  0  0  0  0  0  0
  191.1690  178.0240  143.1640 C   0  0  0  0  0  2  0  0  0  0  0  0
  191.9700  177.1670  142.2050 C   0  0  0  0  0  2  0  0  0  0  0  0
  191.7320  177.6480  140.7900 C   0  0  0  0  0  2  0  0  0  0  0  0
  192.8170  177.2960  139.9850 O   0  0  0  0  0  0  0  0  0  0  0  0
  193.1380  175.8880  138.0930 C   0  0  0  0  0  1  0  0  0  0  0  0
  192.2470  176.9140  138.7690 C   0  0  1  0  0  3  0  0  0  0  0  0
  190.8660  176.3260  139.0180 C   0  0  0  0  0  2  0  0  0  0  0  0
  189.7890  177.5770  137.1470 C   0  0  0  0  0  1  0  0  0  0  0  0
  190.0750  176.2040  137.7240 C   0  0  0  0  0  2  0  0  0  0  0  0
  188.5420  178.1600  142.3030 C   0  0  0  0  0  2  0  0  0  0  0  0
  187.9320  177.4350  141.1100 C   0  0  0  0  0  2  0  0  0  0  0  0
  187.6340  178.4210  139.9890 C   0  0  0  0  0  2  0  0  0  0  0  0
  186.2030  178.6840  139.8940 N   0  0  0  0  0  0  0  0  0  0  0  0
  184.2320  178.6660  138.6350 O   0  0  0  0  0  0  0  0  0  0  0  0
  185.4660  178.4180  138.6870 C   0  0  0  0  0  0  0  0  0  0  0  0
  185.5020  179.0830  141.1040 C   0  0  0  0  0  1  0  0  0  0  0  0
  186.1410  177.8600  137.4750 C   0  0  0  0  0  2  0  0  0  0  0  0
  185.6110  176.4700  137.1430 C   0  0  1  0  0  3  0  0  0  0  0  0
  184.3110  176.5760  136.3640 C   0  0  0  0  0  1  0  0  0  0  0  0
  186.6380  175.6140  136.3980 C   0  0  0  0  0  2  0  0  0  0  0  0
  186.4770  174.1280  136.6880 C   0  0  0  0  0  2  0  0  0  0  0  0
  187.7100  173.5910  137.0510 O   0  0  0  0  0  1  0  0  0  0  0  0
  2  1  1  6  0  0  0
  2 11  1  0  0  0  0
  4  5  1  0  0  0  0
  4  6  1  1  0  0  0
  4  3  1  0  0  0  0
  5  2  1  6  0  0  0
  5  3  1  0  0  0  0
  8  6  1  0  0  0  0
  8  7  1  0  0  0  0
  9  8  1  0  0  0  0
 10  8  1  0  0  0  0
 11 16  1  6  0  0  0
 11 13  1  0  0  0  0
 12 15  1  0  0  0  0
 13 12  1  0  0  0  0
 14 12  2  0  0  0  0
 17 16  1  0  0  0  0
 18 17  1  0  0  0  0
 19 18  1  0  0  0  0
 21 20  1  1  0  0  0
 21 22  1  0  0  0  0
 21 19  1  0  0  0  0
 23 24  1  0  0  0  0
 24 22  1  0  0  0  0
 25  2  1  0  0  0  0
 26 25  1  0  0  0  0
 27 26  1  0  0  0  0
 28 27  1  0  0  0  0
 28 31  1  0  0  0  0
 29 30  2  0  0  0  0
 30 28  1  0  0  0  0
 32 30  1  0  0  0  0
 33 34  1  6  0  0  0
 33 32  1  0  0  0  0
 35 36  1  0  0  0  0
 35 33  1  0  0  0  0
 36 37  1  0  0  0  0
M  END
>  <MODEL>
8

>  <REMARK>
 VINA RESULT:      -6.0      3.459      6.445
  Name = 
  20 active torsions:
  status: ('A' for Active; 'I' for Inactive)
    1  A    between atoms: C_1  and  N_5
    2  A    between atoms: C_1  and  C_36
    3  A    between atoms: C_6  and  O_8
    4  A    between atoms: C_6  and  C_31
    5  A    between atoms: C_7  and  C_33
    6  A    between atoms: O_8  and  C_19
    7  A    between atoms: C_10  and  C_14
    8  A    between atoms: C_10  and  C_20
    9  A    between atoms: C_10  and  N_22
   10  A    between atoms: C_11  and  C_26
   11  A    between atoms: C_11  and  C_33
   12  A    between atoms: C_14  and  C_31
   13  A    between atoms: C_16  and  C_30
   14  A    between atoms: C_17  and  C_26
   15  A    between atoms: C_18  and  C_19
   16  A    between atoms: C_18  and  C_35
   17  A    between atoms: C_20  and  C_24
   18  A    between atoms: C_20  and  C_29
   19  A    between atoms: C_21  and  C_30
   20  A    between atoms: C_29  and  C_36
                            x       y       z     vdW  Elec       q    Type
                         _______ _______ _______ _____ _____    ______ ____

>  <TORSDO>
F 20

$$$$
=
 OpenBabel10272415043D

 37 37  0  0  1  0  0  0  0  0999 V2000
  188.5850  176.0390  142.9870 O   0  0  0  0  0  1  0  0  0  0  0  0
  189.0240  177.2980  143.4270 C   0  0  1  0  0  0  0  0  0  0  0  0
  187.5660  176.7070  145.2900 O   0  0  0  0  0  0  0  0  0  0  0  0
  186.7320  177.5020  144.4770 C   0  0  2  0  0  3  0  0  0  0  0  0
  188.1810  177.7850  144.6240 C   0  0  2  0  0  3  0  0  0  0  0  0
  185.9480  178.4600  145.3530 C   0  0  0  0  0  2  0  0  0  0  0  0
  184.3690  178.0300  143.6440 F   0  0  0  0  0  0  0  0  0  0  0  0
  184.6670  178.9100  144.6660 C   0  0  0  0  0  0  0  0  0  0  0  0
  184.8340  180.1760  144.1350 F   0  0  0  0  0  0  0  0  0  0  0  0
  183.6210  178.9210  145.5710 F   0  0  0  0  0  0  0  0  0  0  0  0
  190.4920  177.1760  143.8970 C   0  0  2  0  0  3  0  0  0  0  0  0
  191.4770  176.6530  146.2270 C   0  0  0  0  0  0  0  0  0  0  0  0
  190.6610  177.4190  145.3340 N   0  0  0  0  0  2  0  0  0  0  0  0
  192.0710  175.6160  145.8320 O   0  0  0  0  0  0  0  0  0  0  0  0
  191.6010  177.0580  147.5840 N   0  0  0  0  0  1  0  0  0  0  0  0
  191.4940  177.9530  143.0450 C   0  0  0  0  0  2  0  0  0  0  0  0
  192.1720  177.0400  142.0440 C   0  0  0  0  0  2  0  0  0  0  0  0
  191.9030  177.5480  140.6450 C   0  0  0  0  0  2  0  0  0  0  0  0
  192.9750  177.2190  139.8110 O   0  0  0  0  0  0  0  0  0  0  0  0
  191.0070  176.9410  138.5000 C   0  0  0  0  0  1  0  0  0  0  0  0
  192.4100  176.4410  138.7980 C   0  0  1  0  0  3  0  0  0  0  0  0
  193.2750  176.5290  137.5500 C   0  0  0  0  0  2  0  0  0  0  0  0
  194.6580  174.5010  137.9950 C   0  0  0  0  0  1  0  0  0  0  0  0
  193.6640  175.1470  137.0480 C   0  0  0  0  0  2  0  0  0  0  0  0
  188.8490  178.3270  142.3000 C   0  0  0  0  0  2  0  0  0  0  0  0
  188.1740  177.7570  141.0580 C   0  0  0  0  0  2  0  0  0  0  0  0
  186.9570  178.5940  140.6890 C   0  0  0  0  0  2  0  0  0  0  0  0
  186.4820  178.2600  139.3510 N   0  0  0  0  0  0  0  0  0  0  0  0
  184.7650  178.2700  137.7630 O   0  0  0  0  0  0  0  0  0  0  0  0
  185.1470  178.5810  138.9230 C   0  0  0  0  0  0  0  0  0  0  0  0
  187.4440  177.7250  138.4010 C   0  0  0  0  0  1  0  0  0  0  0  0
  184.1870  179.2730  139.8360 C   0  0  0  0  0  2  0  0  0  0  0  0
  182.7810  178.7010  139.6900 C   0  0  1  0  0  3  0  0  0  0  0  0
  182.2440  178.2770  141.0470 C   0  0  0  0  0  1  0  0  0  0  0  0
  181.8240  179.6690  138.9910 C   0  0  0  0  0  2  0  0  0  0  0  0
  181.2560  179.0960  137.7010 C   0  0  0  0  0  2  0  0  0  0  0  0
  180.0250  178.4980  137.9630 O   0  0  0  0  0  1  0  0  0  0  0  0
  2  1  1  6  0  0  0
  2 11  1  0  0  0  0
  4  5  1  0  0  0  0
  4  3  1  0  0  0  0
  4  6  1  1  0  0  0
  5  2  1  6  0  0  0
  5  3  1  0  0  0  0
  7  8  1  0  0  0  0
  8  6  1  0  0  0  0
  8 10  1  0  0  0  0
  9  8  1  0  0  0  0
 11 16  1  6  0  0  0
 11 13  1  0  0  0  0
 12 15  1  0  0  0  0
 13 12  1  0  0  0  0
 14 12  2  0  0  0  0
 17 16  1  0  0  0  0
 18 17  1  0  0  0  0
 19 18  1  0  0  0  0
 21 20  1  6  0  0  0
 21 19  1  0  0  0  0
 22 21  1  0  0  0  0
 24 22  1  0  0  0  0
 24 23  1  0  0  0  0
 25  2  1  0  0  0  0
 26 25  1  0  0  0  0
 27 26  1  0  0  0  0
 28 27  1  0  0  0  0
 29 30  2  0  0  0  0
 30 28  1  0  0  0  0
 30 32  1  0  0  0  0
 31 28  1  0  0  0  0
 33 32  1  0  0  0  0
 33 34  1  1  0  0  0
 35 33  1  0  0  0  0
 36 37  1  0  0  0  0
 36 35  1  0  0  0  0
M  END
>  <MODEL>
9

>  <REMARK>
 VINA RESULT:      -5.9      3.255      5.650
  Name = 
  20 active torsions:
  status: ('A' for Active; 'I' for Inactive)
    1  A    between atoms: C_1  and  N_5
    2  A    between atoms: C_1  and  C_36
    3  A    between atoms: C_6  and  O_8
    4  A    between atoms: C_6  and  C_31
    5  A    between atoms: C_7  and  C_33
    6  A    between atoms: O_8  and  C_19
    7  A    between atoms: C_10  and  C_14
    8  A    between atoms: C_10  and  C_20
    9  A    between atoms: C_10  and  N_22
   10  A    between atoms: C_11  and  C_26
   11  A    between atoms: C_11  and  C_33
   12  A    between atoms: C_14  and  C_31
   13  A    between atoms: C_16  and  C_30
   14  A    between atoms: C_17  and  C_26
   15  A    between atoms: C_18  and  C_19
   16  A    between atoms: C_18  and  C_35
   17  A    between atoms: C_20  and  C_24
   18  A    between atoms: C_20  and  C_29
   19  A    between atoms: C_21  and  C_30
   20  A    between atoms: C_29  and  C_36
                            x       y       z     vdW  Elec       q    Type
                         _______ _______ _______ _____ _____    ______ ____

>  <TORSDO>
F 20

$$$$
