=
 OpenBabel10272400573D

 25 28  0  0  1  0  0  0  0  0999 V2000
  189.3600  177.4000  145.7420 C   0  0  0  0  0  0  0  0  0  0  0  0
  188.1360  178.1080  145.6000 C   0  0  0  0  0  0  0  0  0  0  0  0
  188.9380  177.2070  148.1350 C   0  0  0  0  0  3  0  0  0  0  0  0
  190.2480  177.1480  144.6260 N   0  0  0  0  0  0  0  0  0  0  0  0
  186.4110  177.6340  143.9730 N   0  0  0  0  0  0  0  0  0  0  0  0
  187.7630  177.9380  147.9970 C   0  0  0  0  0  3  0  0  0  0  0  0
  191.2110  176.0490  144.7540 C   0  0  0  0  0  2  0  0  0  0  0  0
  191.9430  176.1780  146.0790 C   0  0  0  0  0  2  0  0  0  0  0  0
  186.0500  179.1590  146.6070 C   0  0  2  0  0  3  0  0  0  0  0  0
  185.5450  179.5380  147.8530 O   0  0  0  0  0  1  0  0  0  0  0  0
  187.5920  178.4470  144.2430 C   0  0  0  0  0  2  0  0  0  0  0  0
  189.7370  176.9380  147.0270 C   0  0  0  0  0  0  0  0  0  0  0  0
  190.9420  176.0630  147.2240 C   0  0  0  0  0  2  0  0  0  0  0  0
  185.0040  178.3430  145.8590 C   0  0  0  0  0  2  0  0  0  0  0  0
  185.2400  178.4150  144.3530 C   0  0  0  0  0  2  0  0  0  0  0  0
  187.3510  178.3970  146.7410 C   0  0  0  0  0  0  0  0  0  0  0  0
  191.7960  178.0870  142.9810 C   0  0  0  0  0  2  0  0  0  0  0  0
  191.4150  179.2350  143.8880 C   0  0  0  0  0  2  0  0  0  0  0  0
  190.3940  178.1530  143.5590 C   0  0  0  0  0  3  0  0  0  0  0  0
  186.3410  177.4560  142.5330 C   0  0  0  0  0  2  0  0  0  0  0  0
  187.2470  179.1240  141.0760 O   0  0  0  0  0  1  0  0  0  0  0  0
  186.1300  178.7980  141.8480 C   0  0  1  0  0  3  0  0  0  0  0  0
  184.9140  178.7520  140.9850 C   0  0  0  0  0  0  0  0  0  0  0  0
  183.9940  177.9250  141.2220 O   0  0  0  0  0  0  0  0  0  0  0  0
  184.7930  179.6490  139.8890 N   0  0  0  0  0  1  0  0  0  0  0  0
  1 12  1  0  0  0  0
  2  1  2  0  0  0  0
  2 16  1  0  0  0  0
  4  7  1  0  0  0  0
  4  1  1  0  0  0  0
  5 11  1  0  0  0  0
  5 15  1  0  0  0  0
  6  3  1  0  0  0  0
  7  8  1  0  0  0  0
  8 13  1  0  0  0  0
  9 16  1  0  0  0  0
  9 10  1  1  0  0  0
 11  2  1  0  0  0  0
 12 13  1  0  0  0  0
 12  3  2  0  0  0  0
 14  9  1  0  0  0  0
 15 14  1  0  0  0  0
 16  6  2  0  0  0  0
 17 19  1  0  0  0  0
 17 18  1  0  0  0  0
 19 18  1  0  0  0  0
 19  4  1  0  0  0  0
 20  5  1  0  0  0  0
 22 21  1  6  0  0  0
 22 20  1  0  0  0  0
 23 24  2  0  0  0  0
 23 22  1  0  0  0  0
 25 23  1  0  0  0  0
M  END
>  <MODEL>
1

>  <REMARK>
 VINA RESULT:      -8.0      0.000      0.000
  Name = 
  4 active torsions:
  status: ('A' for Active; 'I' for Inactive)
    1  A    between atoms: C_2  and  C_25
    2  A    between atoms: N_5  and  C_22
    3  A    between atoms: N_6  and  C_15
    4  A    between atoms: C_15  and  C_25
                            x       y       z     vdW  Elec       q    Type
                         _______ _______ _______ _____ _____    ______ ____

>  <TORSDO>
F 4

$$$$
=
 OpenBabel10272400573D

 25 28  0  0  1  0  0  0  0  0999 V2000
  187.5490  177.7990  145.0170 C   0  0  0  0  0  0  0  0  0  0  0  0
  188.4530  177.2970  144.0440 C   0  0  0  0  0  0  0  0  0  0  0  0
  189.1120  177.1440  146.7690 C   0  0  0  0  0  3  0  0  0  0  0  0
  186.2620  178.3650  144.6660 N   0  0  0  0  0  0  0  0  0  0  0  0
  189.1960  178.4720  142.0660 N   0  0  0  0  0  0  0  0  0  0  0  0
  189.9730  176.6140  145.8150 C   0  0  0  0  0  3  0  0  0  0  0  0
  185.6200  179.2570  145.6370 C   0  0  0  0  0  2  0  0  0  0  0  0
  185.6250  178.5940  147.0040 C   0  0  0  0  0  2  0  0  0  0  0  0
  190.6280  176.1300  143.4290 C   0  0  2  0  0  3  0  0  0  0  0  0
  191.6330  175.3670  144.0290 O   0  0  0  0  0  1  0  0  0  0  0  0
  188.2170  177.5210  142.5790 C   0  0  0  0  0  2  0  0  0  0  0  0
  187.9080  177.7290  146.3850 C   0  0  0  0  0  0  0  0  0  0  0  0
  187.0640  178.3690  147.4520 C   0  0  0  0  0  2  0  0  0  0  0  0
  191.2580  177.2470  142.6060 C   0  0  0  0  0  2  0  0  0  0  0  0
  190.3050  177.7080  141.5060 C   0  0  0  0  0  2  0  0  0  0  0  0
  189.6590  176.6790  144.4520 C   0  0  0  0  0  0  0  0  0  0  0  0
  185.1370  178.9160  142.5640 C   0  0  0  0  0  2  0  0  0  0  0  0
  184.0680  178.3340  143.4620 C   0  0  0  0  0  2  0  0  0  0  0  0
  185.4950  177.8080  143.5380 C   0  0  0  0  0  3  0  0  0  0  0  0
  188.5690  179.1670  140.9540 C   0  0  0  0  0  2  0  0  0  0  0  0
  186.8210  178.3100  139.5650 O   0  0  0  0  0  1  0  0  0  0  0  0
  188.1770  178.1750  139.8700 C   0  0  1  0  0  3  0  0  0  0  0  0
  188.9960  178.3990  138.6440 C   0  0  0  0  0  0  0  0  0  0  0  0
  188.9910  179.5200  138.0690 O   0  0  0  0  0  0  0  0  0  0  0  0
  189.7910  177.3420  138.1240 N   0  0  0  0  0  1  0  0  0  0  0  0
  1 12  1  0  0  0  0
  2 16  1  0  0  0  0
  2  1  2  0  0  0  0
  4  1  1  0  0  0  0
  4  7  1  0  0  0  0
  5 11  1  0  0  0  0
  6  3  1  0  0  0  0
  7  8  1  0  0  0  0
  8 13  1  0  0  0  0
  9 10  1  1  0  0  0
  9 16  1  0  0  0  0
 11  2  1  0  0  0  0
 12  3  2  0  0  0  0
 12 13  1  0  0  0  0
 14  9  1  0  0  0  0
 15  5  1  0  0  0  0
 15 14  1  0  0  0  0
 16  6  2  0  0  0  0
 17 18  1  0  0  0  0
 17 19  1  0  0  0  0
 18 19  1  0  0  0  0
 19  4  1  0  0  0  0
 20  5  1  0  0  0  0
 22 21  1  6  0  0  0
 22 20  1  0  0  0  0
 23 22  1  0  0  0  0
 24 23  2  0  0  0  0
 25 23  1  0  0  0  0
M  END
>  <MODEL>
2

>  <REMARK>
 VINA RESULT:      -7.9      2.539      4.960
  Name = 
  4 active torsions:
  status: ('A' for Active; 'I' for Inactive)
    1  A    between atoms: C_2  and  C_25
    2  A    between atoms: N_5  and  C_22
    3  A    between atoms: N_6  and  C_15
    4  A    between atoms: C_15  and  C_25
                            x       y       z     vdW  Elec       q    Type
                         _______ _______ _______ _____ _____    ______ ____

>  <TORSDO>
F 4

$$$$
=
 OpenBabel10272400573D

 25 28  0  0  1  0  0  0  0  0999 V2000
  189.3330  177.4420  145.7080 C   0  0  0  0  0  0  0  0  0  0  0  0
  188.0990  178.0700  145.3920 C   0  0  0  0  0  0  0  0  0  0  0  0
  188.4790  176.9490  147.9370 C   0  0  0  0  0  3  0  0  0  0  0  0
  190.4390  177.3830  144.7740 N   0  0  0  0  0  0  0  0  0  0  0  0
  186.7710  177.6590  143.4130 N   0  0  0  0  0  0  0  0  0  0  0  0
  187.2900  177.6030  147.6370 C   0  0  0  0  0  3  0  0  0  0  0  0
  191.4580  176.3500  144.9870 C   0  0  0  0  0  2  0  0  0  0  0  0
  191.9070  176.3820  146.4380 C   0  0  0  0  0  2  0  0  0  0  0  0
  185.7690  178.8450  146.0550 C   0  0  2  0  0  3  0  0  0  0  0  0
  185.0000  179.0430  147.2050 O   0  0  0  0  0  1  0  0  0  0  0  0
  187.7960  178.5200  143.9920 C   0  0  0  0  0  2  0  0  0  0  0  0
  189.4980  176.8670  146.9920 C   0  0  0  0  0  0  0  0  0  0  0  0
  190.7210  176.0650  147.3410 C   0  0  0  0  0  2  0  0  0  0  0  0
  184.9670  178.0440  145.0370 C   0  0  0  0  0  2  0  0  0  0  0  0
  185.4800  178.3030  143.6230 C   0  0  0  0  0  2  0  0  0  0  0  0
  187.0850  178.1700  146.3740 C   0  0  0  0  0  0  0  0  0  0  0  0
  191.9900  178.2800  143.1080 C   0  0  0  0  0  2  0  0  0  0  0  0
  191.9410  179.3060  144.2180 C   0  0  0  0  0  2  0  0  0  0  0  0
  190.6930  178.5110  143.8600 C   0  0  0  0  0  3  0  0  0  0  0  0
  186.9960  177.6400  141.9780 C   0  0  0  0  0  2  0  0  0  0  0  0
  188.9710  176.2910  141.9060 O   0  0  0  0  0  1  0  0  0  0  0  0
  188.4870  177.5820  141.6810 C   0  0  1  0  0  3  0  0  0  0  0  0
  188.7480  177.9820  140.2680 C   0  0  0  0  0  0  0  0  0  0  0  0
  189.9050  177.8840  139.7800 O   0  0  0  0  0  0  0  0  0  0  0  0
  187.6820  178.4730  139.4660 N   0  0  0  0  0  1  0  0  0  0  0  0
  1 12  1  0  0  0  0
  2  1  2  0  0  0  0
  2 16  1  0  0  0  0
  4  7  1  0  0  0  0
  4  1  1  0  0  0  0
  5 15  1  0  0  0  0
  5 11  1  0  0  0  0
  6  3  1  0  0  0  0
  7  8  1  0  0  0  0
  8 13  1  0  0  0  0
  9 16  1  0  0  0  0
  9 10  1  1  0  0  0
 11  2  1  0  0  0  0
 12 13  1  0  0  0  0
 12  3  2  0  0  0  0
 14  9  1  0  0  0  0
 15 14  1  0  0  0  0
 16  6  2  0  0  0  0
 17 19  1  0  0  0  0
 17 18  1  0  0  0  0
 19 18  1  0  0  0  0
 19  4  1  0  0  0  0
 20  5  1  0  0  0  0
 22 21  1  6  0  0  0
 22 20  1  0  0  0  0
 23 22  1  0  0  0  0
 24 23  2  0  0  0  0
 25 23  1  0  0  0  0
M  END
>  <MODEL>
3

>  <REMARK>
 VINA RESULT:      -7.8      1.592      1.877
  Name = 
  4 active torsions:
  status: ('A' for Active; 'I' for Inactive)
    1  A    between atoms: C_2  and  C_25
    2  A    between atoms: N_5  and  C_22
    3  A    between atoms: N_6  and  C_15
    4  A    between atoms: C_15  and  C_25
                            x       y       z     vdW  Elec       q    Type
                         _______ _______ _______ _____ _____    ______ ____

>  <TORSDO>
F 4

$$$$
=
 OpenBabel10272400573D

 25 28  0  0  1  0  0  0  0  0999 V2000
  188.1020  177.7170  145.6160 C   0  0  0  0  0  0  0  0  0  0  0  0
  188.1150  177.3850  144.2350 C   0  0  0  0  0  0  0  0  0  0  0  0
  190.4510  177.0840  145.7630 C   0  0  0  0  0  3  0  0  0  0  0  0
  186.9070  178.1780  146.2950 N   0  0  0  0  0  0  0  0  0  0  0  0
  187.2950  178.7810  142.4390 N   0  0  0  0  0  0  0  0  0  0  0  0
  190.4470  176.7190  144.4210 C   0  0  0  0  0  3  0  0  0  0  0  0
  187.0780  178.9230  147.5470 C   0  0  0  0  0  2  0  0  0  0  0  0
  188.0220  178.1570  148.4590 C   0  0  0  0  0  2  0  0  0  0  0  0
  189.3170  176.4920  142.1790 C   0  0  2  0  0  3  0  0  0  0  0  0
  190.4770  175.7880  141.8460 O   0  0  0  0  0  1  0  0  0  0  0  0
  186.9430  177.7000  143.3520 C   0  0  0  0  0  2  0  0  0  0  0  0
  189.2950  177.5750  146.3650 C   0  0  0  0  0  0  0  0  0  0  0  0
  189.3880  178.0420  147.7910 C   0  0  0  0  0  2  0  0  0  0  0  0
  189.1990  177.7280  141.2950 C   0  0  0  0  0  2  0  0  0  0  0  0
  187.7440  178.1770  141.1900 C   0  0  0  0  0  2  0  0  0  0  0  0
  189.2900  176.8600  143.6460 C   0  0  0  0  0  0  0  0  0  0  0  0
  184.6380  178.7790  145.6080 C   0  0  0  0  0  2  0  0  0  0  0  0
  184.4850  178.0050  146.8980 C   0  0  0  0  0  2  0  0  0  0  0  0
  185.5900  177.6380  145.9160 C   0  0  0  0  0  3  0  0  0  0  0  0
  186.0670  179.4950  142.1350 C   0  0  0  0  0  2  0  0  0  0  0  0
  183.8980  178.5870  142.5780 O   0  0  0  0  0  1  0  0  0  0  0  0
  184.9850  178.5170  141.7030 C   0  0  1  0  0  3  0  0  0  0  0  0
  184.5370  178.8250  140.3140 C   0  0  0  0  0  0  0  0  0  0  0  0
  184.8570  179.9130  139.7650 O   0  0  0  0  0  0  0  0  0  0  0  0
  183.7460  177.8820  139.6030 N   0  0  0  0  0  1  0  0  0  0  0  0
  1  4  1  0  0  0  0
  1 12  1  0  0  0  0
  2  1  2  0  0  0  0
  3 12  2  0  0  0  0
  4  7  1  0  0  0  0
  5 11  1  0  0  0  0
  6  3  1  0  0  0  0
  7  8  1  0  0  0  0
  9 10  1  6  0  0  0
  9 16  1  0  0  0  0
 11  2  1  0  0  0  0
 12 13  1  0  0  0  0
 13  8  1  0  0  0  0
 14  9  1  0  0  0  0
 15 14  1  0  0  0  0
 15  5  1  0  0  0  0
 16  2  1  0  0  0  0
 16  6  2  0  0  0  0
 17 19  1  0  0  0  0
 17 18  1  0  0  0  0
 19  4  1  0  0  0  0
 19 18  1  0  0  0  0
 20  5  1  0  0  0  0
 22 20  1  0  0  0  0
 22 21  1  1  0  0  0
 23 22  1  0  0  0  0
 24 23  2  0  0  0  0
 25 23  1  0  0  0  0
M  END
>  <MODEL>
4

>  <REMARK>
 VINA RESULT:      -7.5      2.014      4.385
  Name = 
  4 active torsions:
  status: ('A' for Active; 'I' for Inactive)
    1  A    between atoms: C_2  and  C_25
    2  A    between atoms: N_5  and  C_22
    3  A    between atoms: N_6  and  C_15
    4  A    between atoms: C_15  and  C_25
                            x       y       z     vdW  Elec       q    Type
                         _______ _______ _______ _____ _____    ______ ____

>  <TORSDO>
F 4

$$$$
=
 OpenBabel10272400573D

 25 28  0  0  1  0  0  0  0  0999 V2000
  187.7830  178.0020  143.0660 C   0  0  0  0  0  0  0  0  0  0  0  0
  187.4680  178.4300  141.7480 C   0  0  0  0  0  0  0  0  0  0  0  0
  185.4150  178.1110  143.6360 C   0  0  0  0  0  3  0  0  0  0  0  0
  189.1420  177.7530  143.5000 N   0  0  0  0  0  0  0  0  0  0  0  0
  188.2260  177.3830  139.7040 N   0  0  0  0  0  0  0  0  0  0  0  0
  185.1190  178.5710  142.3580 C   0  0  0  0  0  3  0  0  0  0  0  0
  189.3380  176.8930  144.6720 C   0  0  0  0  0  2  0  0  0  0  0  0
  188.4320  177.3680  145.7970 C   0  0  0  0  0  2  0  0  0  0  0  0
  185.7810  179.2060  140.0100 C   0  0  2  0  0  3  0  0  0  0  0  0
  184.4660  179.6720  139.9370 O   0  0  0  0  0  1  0  0  0  0  0  0
  188.5110  178.4400  140.6680 C   0  0  0  0  0  2  0  0  0  0  0  0
  186.7300  177.8300  143.9980 C   0  0  0  0  0  0  0  0  0  0  0  0
  186.9760  177.2450  145.3600 C   0  0  0  0  0  2  0  0  0  0  0  0
  185.9860  178.0960  138.9860 C   0  0  0  0  0  2  0  0  0  0  0  0
  187.4610  177.9740  138.6130 C   0  0  0  0  0  2  0  0  0  0  0  0
  186.1300  178.7390  141.4060 C   0  0  0  0  0  0  0  0  0  0  0  0
  191.5490  178.1680  143.6400 C   0  0  0  0  0  2  0  0  0  0  0  0
  190.8850  179.4600  144.0590 C   0  0  0  0  0  2  0  0  0  0  0  0
  190.2440  178.5860  142.9890 C   0  0  0  0  0  3  0  0  0  0  0  0
  189.5000  176.9700  139.1410 C   0  0  0  0  0  2  0  0  0  0  0  0
  190.4780  175.9340  141.0620 O   0  0  0  0  0  1  0  0  0  0  0  0
  190.5870  177.0300  140.2030 C   0  0  1  0  0  3  0  0  0  0  0  0
  191.9340  177.0400  139.5640 C   0  0  0  0  0  0  0  0  0  0  0  0
  192.9370  177.4730  140.1920 O   0  0  0  0  0  0  0  0  0  0  0  0
  192.0880  176.5540  138.2360 N   0  0  0  0  0  1  0  0  0  0  0  0
  1  4  1  0  0  0  0
  1 12  1  0  0  0  0
  2  1  2  0  0  0  0
  3 12  2  0  0  0  0
  4  7  1  0  0  0  0
  5 11  1  0  0  0  0
  6  3  1  0  0  0  0
  7  8  1  0  0  0  0
  9 10  1  1  0  0  0
  9 16  1  0  0  0  0
 11  2  1  0  0  0  0
 12 13  1  0  0  0  0
 13  8  1  0  0  0  0
 14  9  1  0  0  0  0
 15 14  1  0  0  0  0
 15  5  1  0  0  0  0
 16  2  1  0  0  0  0
 16  6  2  0  0  0  0
 17 18  1  0  0  0  0
 19  4  1  0  0  0  0
 19 17  1  0  0  0  0
 19 18  1  0  0  0  0
 20  5  1  0  0  0  0
 20 22  1  0  0  0  0
 22 21  1  1  0  0  0
 23 24  2  0  0  0  0
 23 22  1  0  0  0  0
 25 23  1  0  0  0  0
M  END
>  <MODEL>
5

>  <REMARK>
 VINA RESULT:      -7.3      2.899      5.246
  Name = 
  4 active torsions:
  status: ('A' for Active; 'I' for Inactive)
    1  A    between atoms: C_2  and  C_25
    2  A    between atoms: N_5  and  C_22
    3  A    between atoms: N_6  and  C_15
    4  A    between atoms: C_15  and  C_25
                            x       y       z     vdW  Elec       q    Type
                         _______ _______ _______ _____ _____    ______ ____

>  <TORSDO>
F 4

$$$$
=
 OpenBabel10272400573D

 25 28  0  0  1  0  0  0  0  0999 V2000
  187.6590  177.9970  142.9670 C   0  0  0  0  0  0  0  0  0  0  0  0
  187.4020  178.4050  141.6310 C   0  0  0  0  0  0  0  0  0  0  0  0
  185.2720  178.1380  143.4400 C   0  0  0  0  0  3  0  0  0  0  0  0
  188.9980  177.7430  143.4600 N   0  0  0  0  0  0  0  0  0  0  0  0
  188.2300  177.3160  139.6370 N   0  0  0  0  0  0  0  0  0  0  0  0
  185.0310  178.5790  142.1440 C   0  0  0  0  0  3  0  0  0  0  0  0
  189.1380  176.9020  144.6530 C   0  0  0  0  0  2  0  0  0  0  0  0
  188.1930  177.4050  145.7320 C   0  0  0  0  0  2  0  0  0  0  0  0
  185.7930  179.1670  139.8140 C   0  0  2  0  0  3  0  0  0  0  0  0
  184.4870  179.6440  139.6800 O   0  0  0  0  0  1  0  0  0  0  0  0
  188.4870  178.3870  140.5930 C   0  0  0  0  0  2  0  0  0  0  0  0
  186.5690  177.8510  143.8590 C   0  0  0  0  0  0  0  0  0  0  0  0
  186.7550  177.2880  145.2400 C   0  0  0  0  0  2  0  0  0  0  0  0
  186.0280  178.0370  138.8180 C   0  0  0  0  0  2  0  0  0  0  0  0
  187.5150  177.8950  138.5060 C   0  0  0  0  0  2  0  0  0  0  0  0
  186.0820  178.7210  141.2300 C   0  0  0  0  0  0  0  0  0  0  0  0
  191.4290  178.0080  143.5340 C   0  0  0  0  0  2  0  0  0  0  0  0
  190.8580  179.2910  144.0950 C   0  0  0  0  0  2  0  0  0  0  0  0
  190.1270  178.5570  142.9790 C   0  0  0  0  0  3  0  0  0  0  0  0
  189.5210  176.8810  139.1320 C   0  0  0  0  0  2  0  0  0  0  0  0
  190.4850  177.2620  136.9760 O   0  0  0  0  0  1  0  0  0  0  0  0
  189.4370  176.6170  137.6360 C   0  0  1  0  0  3  0  0  0  0  0  0
  189.4950  175.1520  137.3670 C   0  0  0  0  0  0  0  0  0  0  0  0
  188.5210  174.5620  136.8270 O   0  0  0  0  0  0  0  0  0  0  0  0
  190.6590  174.4150  137.7200 N   0  0  0  0  0  1  0  0  0  0  0  0
  1  4  1  0  0  0  0
  1 12  1  0  0  0  0
  2  1  2  0  0  0  0
  3 12  2  0  0  0  0
  4  7  1  0  0  0  0
  5 11  1  0  0  0  0
  6  3  1  0  0  0  0
  7  8  1  0  0  0  0
  9 10  1  1  0  0  0
  9 16  1  0  0  0  0
 11  2  1  0  0  0  0
 12 13  1  0  0  0  0
 13  8  1  0  0  0  0
 14  9  1  0  0  0  0
 15 14  1  0  0  0  0
 15  5  1  0  0  0  0
 16  2  1  0  0  0  0
 16  6  2  0  0  0  0
 17 18  1  0  0  0  0
 19  4  1  0  0  0  0
 19 17  1  0  0  0  0
 19 18  1  0  0  0  0
 20  5  1  0  0  0  0
 22 21  1  6  0  0  0
 22 20  1  0  0  0  0
 23 22  1  0  0  0  0
 23 25  1  0  0  0  0
 24 23  2  0  0  0  0
M  END
>  <MODEL>
6

>  <REMARK>
 VINA RESULT:      -7.3      3.425      5.287
  Name = 
  4 active torsions:
  status: ('A' for Active; 'I' for Inactive)
    1  A    between atoms: C_2  and  C_25
    2  A    between atoms: N_5  and  C_22
    3  A    between atoms: N_6  and  C_15
    4  A    between atoms: C_15  and  C_25
                            x       y       z     vdW  Elec       q    Type
                         _______ _______ _______ _____ _____    ______ ____

>  <TORSDO>
F 4

$$$$
=
 OpenBabel10272400573D

 25 28  0  0  1  0  0  0  0  0999 V2000
  187.6240  177.6430  142.7230 C   0  0  0  0  0  0  0  0  0  0  0  0
  186.3950  178.3280  142.9220 C   0  0  0  0  0  0  0  0  0  0  0  0
  187.6990  177.1420  145.1070 C   0  0  0  0  0  3  0  0  0  0  0  0
  188.2660  177.5570  141.4270 N   0  0  0  0  0  0  0  0  0  0  0  0
  184.3760  178.0130  141.6300 N   0  0  0  0  0  0  0  0  0  0  0  0
  186.5200  177.8510  145.3030 C   0  0  0  0  0  3  0  0  0  0  0  0
  189.2370  176.4780  141.2170 C   0  0  0  0  0  2  0  0  0  0  0  0
  190.2250  176.4620  142.3720 C   0  0  0  0  0  2  0  0  0  0  0  0
  184.5570  179.1870  144.4560 C   0  0  2  0  0  3  0  0  0  0  0  0
  184.3160  179.3940  145.8160 O   0  0  0  0  0  1  0  0  0  0  0  0
  185.5850  178.8190  141.7580 C   0  0  0  0  0  2  0  0  0  0  0  0
  188.2560  177.0360  143.8350 C   0  0  0  0  0  0  0  0  0  0  0  0
  189.4790  176.1770  143.6710 C   0  0  0  0  0  2  0  0  0  0  0  0
  183.3810  178.4410  143.8370 C   0  0  0  0  0  2  0  0  0  0  0  0
  183.3050  178.7060  142.3360 C   0  0  0  0  0  2  0  0  0  0  0  0
  185.8580  178.4520  144.2260 C   0  0  0  0  0  0  0  0  0  0  0  0
  187.7290  178.2020  139.1290 C   0  0  0  0  0  2  0  0  0  0  0  0
  189.1770  178.5850  139.3350 C   0  0  0  0  0  2  0  0  0  0  0  0
  188.1900  178.6910  140.4900 C   0  0  0  0  0  3  0  0  0  0  0  0
  184.0140  178.0130  140.2230 C   0  0  0  0  0  2  0  0  0  0  0  0
  184.5080  180.0400  139.0530 O   0  0  0  0  0  1  0  0  0  0  0  0
  183.5270  179.3940  139.8080 C   0  0  1  0  0  3  0  0  0  0  0  0
  182.2700  179.2800  139.0140 C   0  0  0  0  0  0  0  0  0  0  0  0
  181.5680  178.2360  139.0750 O   0  0  0  0  0  0  0  0  0  0  0  0
  181.8600  180.3600  138.1850 N   0  0  0  0  0  1  0  0  0  0  0  0
  1  2  2  0  0  0  0
  1 12  1  0  0  0  0
  2 16  1  0  0  0  0
  3  6  1  0  0  0  0
  4  1  1  0  0  0  0
  5 11  1  0  0  0  0
  5 15  1  0  0  0  0
  7  4  1  0  0  0  0
  7  8  1  0  0  0  0
  8 13  1  0  0  0  0
  9 10  1  1  0  0  0
 11  2  1  0  0  0  0
 12  3  2  0  0  0  0
 13 12  1  0  0  0  0
 14  9  1  0  0  0  0
 15 14  1  0  0  0  0
 16  9  1  0  0  0  0
 16  6  2  0  0  0  0
 17 18  1  0  0  0  0
 17 19  1  0  0  0  0
 18 19  1  0  0  0  0
 19  4  1  0  0  0  0
 20  5  1  0  0  0  0
 22 21  1  6  0  0  0
 22 20  1  0  0  0  0
 23 24  2  0  0  0  0
 23 22  1  0  0  0  0
 25 23  1  0  0  0  0
M  END
>  <MODEL>
7

>  <REMARK>
 VINA RESULT:      -7.1      2.500      3.540
  Name = 
  4 active torsions:
  status: ('A' for Active; 'I' for Inactive)
    1  A    between atoms: C_2  and  C_25
    2  A    between atoms: N_5  and  C_22
    3  A    between atoms: N_6  and  C_15
    4  A    between atoms: C_15  and  C_25
                            x       y       z     vdW  Elec       q    Type
                         _______ _______ _______ _____ _____    ______ ____

>  <TORSDO>
F 4

$$$$
=
 OpenBabel10272400573D

 25 28  0  0  1  0  0  0  0  0999 V2000
  187.2430  177.9080  145.6800 C   0  0  0  0  0  0  0  0  0  0  0  0
  188.4940  177.3160  145.3630 C   0  0  0  0  0  0  0  0  0  0  0  0
  187.8420  177.8490  148.0410 C   0  0  0  0  0  3  0  0  0  0  0  0
  186.2530  178.2230  144.6690 N   0  0  0  0  0  0  0  0  0  0  0  0
  190.0480  178.1060  143.6870 N   0  0  0  0  0  0  0  0  0  0  0  0
  189.0470  177.2300  147.7300 C   0  0  0  0  0  3  0  0  0  0  0  0
  185.2330  179.2240  145.0010 C   0  0  0  0  0  2  0  0  0  0  0  0
  184.6200  178.8850  146.3500 C   0  0  0  0  0  2  0  0  0  0  0  0
  190.7190  176.3120  146.0800 C   0  0  2  0  0  3  0  0  0  0  0  0
  191.3470  175.8280  147.2310 O   0  0  0  0  0  1  0  0  0  0  0  0
  188.9490  177.1810  143.9390 C   0  0  0  0  0  2  0  0  0  0  0  0
  186.9410  178.1860  147.0350 C   0  0  0  0  0  0  0  0  0  0  0  0
  185.7000  178.9400  147.4240 C   0  0  0  0  0  2  0  0  0  0  0  0
  191.6470  177.2880  145.3650 C   0  0  0  0  0  2  0  0  0  0  0  0
  191.2950  177.3760  143.8830 C   0  0  0  0  0  2  0  0  0  0  0  0
  189.3870  176.9540  146.4000 C   0  0  0  0  0  0  0  0  0  0  0  0
  186.2220  178.1530  142.2240 C   0  0  0  0  0  2  0  0  0  0  0  0
  184.8570  177.6750  142.6660 C   0  0  0  0  0  2  0  0  0  0  0  0
  186.0870  177.3430  143.5000 C   0  0  0  0  0  3  0  0  0  0  0  0
  189.9900  178.4570  142.2780 C   0  0  0  0  0  2  0  0  0  0  0  0
  188.7560  176.8840  140.9650 O   0  0  0  0  0  1  0  0  0  0  0  0
  190.0370  177.2000  141.4220 C   0  0  1  0  0  3  0  0  0  0  0  0
  190.9530  177.3990  140.2630 C   0  0  0  0  0  0  0  0  0  0  0  0
  192.2020  177.4030  140.4290 O   0  0  0  0  0  0  0  0  0  0  0  0
  190.4140  177.5830  138.9610 N   0  0  0  0  0  1  0  0  0  0  0  0
  1 12  1  0  0  0  0
  2  1  2  0  0  0  0
  2 16  1  0  0  0  0
  4  7  1  0  0  0  0
  4  1  1  0  0  0  0
  5 15  1  0  0  0  0
  5 11  1  0  0  0  0
  6  3  1  0  0  0  0
  7  8  1  0  0  0  0
  8 13  1  0  0  0  0
  9 16  1  0  0  0  0
  9 10  1  1  0  0  0
 11  2  1  0  0  0  0
 12 13  1  0  0  0  0
 12  3  2  0  0  0  0
 14  9  1  0  0  0  0
 15 14  1  0  0  0  0
 16  6  2  0  0  0  0
 17 18  1  0  0  0  0
 17 19  1  0  0  0  0
 18 19  1  0  0  0  0
 19  4  1  0  0  0  0
 20  5  1  0  0  0  0
 22 21  1  6  0  0  0
 22 20  1  0  0  0  0
 23 24  2  0  0  0  0
 23 22  1  0  0  0  0
 25 23  1  0  0  0  0
M  END
>  <MODEL>
8

>  <REMARK>
 VINA RESULT:      -7.1      2.459      5.078
  Name = 
  4 active torsions:
  status: ('A' for Active; 'I' for Inactive)
    1  A    between atoms: C_2  and  C_25
    2  A    between atoms: N_5  and  C_22
    3  A    between atoms: N_6  and  C_15
    4  A    between atoms: C_15  and  C_25
                            x       y       z     vdW  Elec       q    Type
                         _______ _______ _______ _____ _____    ______ ____

>  <TORSDO>
F 4

$$$$
=
 OpenBabel10272400573D

 25 28  0  0  1  0  0  0  0  0999 V2000
  187.8400  177.6620  142.9220 C   0  0  0  0  0  0  0  0  0  0  0  0
  186.6340  178.3360  143.2490 C   0  0  0  0  0  0  0  0  0  0  0  0
  188.1360  177.1060  145.2760 C   0  0  0  0  0  3  0  0  0  0  0  0
  188.3600  177.6080  141.5700 N   0  0  0  0  0  0  0  0  0  0  0  0
  184.5040  178.0410  142.1420 N   0  0  0  0  0  0  0  0  0  0  0  0
  186.9780  177.8050  145.5970 C   0  0  0  0  0  3  0  0  0  0  0  0
  189.3110  176.5390  141.2470 C   0  0  0  0  0  2  0  0  0  0  0  0
  190.4000  176.5010  142.3060 C   0  0  0  0  0  2  0  0  0  0  0  0
  184.9420  179.1510  144.9650 C   0  0  2  0  0  3  0  0  0  0  0  0
  184.8270  179.3250  146.3470 O   0  0  0  0  0  1  0  0  0  0  0  0
  185.7180  178.8490  142.1760 C   0  0  0  0  0  2  0  0  0  0  0  0
  188.5740  177.0320  143.9560 C   0  0  0  0  0  0  0  0  0  0  0  0
  189.7780  176.1830  143.6600 C   0  0  0  0  0  2  0  0  0  0  0  0
  183.7160  178.4130  144.4400 C   0  0  0  0  0  2  0  0  0  0  0  0
  183.5010  178.7130  142.9590 C   0  0  0  0  0  2  0  0  0  0  0  0
  186.2190  178.4270  144.5990 C   0  0  0  0  0  0  0  0  0  0  0  0
  187.6050  178.3040  139.3500 C   0  0  0  0  0  2  0  0  0  0  0  0
  189.0670  178.6840  139.4240 C   0  0  0  0  0  2  0  0  0  0  0  0
  188.1950  178.7620  140.6710 C   0  0  0  0  0  3  0  0  0  0  0  0
  184.0140  178.0720  140.7750 C   0  0  0  0  0  2  0  0  0  0  0  0
  182.2970  179.5250  139.9580 O   0  0  0  0  0  1  0  0  0  0  0  0
  182.5290  178.4040  140.7580 C   0  0  1  0  0  3  0  0  0  0  0  0
  181.7470  177.2430  140.2430 C   0  0  0  0  0  0  0  0  0  0  0  0
  180.4940  177.2080  140.3750 O   0  0  0  0  0  0  0  0  0  0  0  0
  182.4190  176.1710  139.5960 N   0  0  0  0  0  1  0  0  0  0  0  0
  1  2  2  0  0  0  0
  1 12  1  0  0  0  0
  2 16  1  0  0  0  0
  3  6  1  0  0  0  0
  4  1  1  0  0  0  0
  5 11  1  0  0  0  0
  5 15  1  0  0  0  0
  7  4  1  0  0  0  0
  7  8  1  0  0  0  0
  8 13  1  0  0  0  0
  9 10  1  1  0  0  0
 11  2  1  0  0  0  0
 12  3  2  0  0  0  0
 13 12  1  0  0  0  0
 14  9  1  0  0  0  0
 15 14  1  0  0  0  0
 16  9  1  0  0  0  0
 16  6  2  0  0  0  0
 17 18  1  0  0  0  0
 17 19  1  0  0  0  0
 18 19  1  0  0  0  0
 19  4  1  0  0  0  0
 20  5  1  0  0  0  0
 22 21  1  6  0  0  0
 22 20  1  0  0  0  0
 23 24  2  0  0  0  0
 23 22  1  0  0  0  0
 25 23  1  0  0  0  0
M  END
>  <MODEL>
9

>  <REMARK>
 VINA RESULT:      -6.8      2.426      3.487
  Name = 
  4 active torsions:
  status: ('A' for Active; 'I' for Inactive)
    1  A    between atoms: C_2  and  C_25
    2  A    between atoms: N_5  and  C_22
    3  A    between atoms: N_6  and  C_15
    4  A    between atoms: C_15  and  C_25
                            x       y       z     vdW  Elec       q    Type
                         _______ _______ _______ _____ _____    ______ ____

>  <TORSDO>
F 4

$$$$
