=
 OpenBabel10272400183D

 31 35  0  0  1  0  0  0  0  0999 V2000
  185.5670  178.7880  139.7040 C   0  0  0  0  0  0  0  0  0  0  0  0
  188.9940  177.6550  139.5840 C   0  0  0  0  0  0  0  0  0  0  0  0
  189.2250  177.4090  138.1050 C   0  0  0  0  0  0  0  0  0  0  0  0
  188.4230  175.9480  136.2720 C   0  0  0  0  0  3  0  0  0  0  0  0
  187.8210  178.1260  140.0740 C   0  0  0  0  0  0  0  0  0  0  0  0
  185.4140  179.0690  141.0600 C   0  0  0  0  0  3  0  0  0  0  0  0
  188.1630  176.5780  137.4240 C   0  0  0  0  0  3  0  0  0  0  0  0
  189.9600  177.8510  141.8900 N   0  0  0  0  0  0  0  0  0  0  0  0
  184.6060  178.9590  138.9100 O   0  0  0  0  0  0  0  0  0  0  0  0
  191.5650  176.8050  138.7000 C   0  0  0  0  0  3  0  0  0  0  0  0
  190.0020  175.4120  134.3950 N   0  0  0  0  0  1  0  0  0  0  0  0
  188.6700  178.2970  142.3240 C   0  0  0  0  0  3  0  0  0  0  0  0
  190.1520  177.5360  140.5040 C   0  0  0  0  0  0  0  0  0  0  0  0
  186.7580  178.3280  139.2450 N   0  0  0  0  0  2  0  0  0  0  0  0
  189.7870  175.9470  135.6950 C   0  0  0  0  0  0  0  0  0  0  0  0
  187.6630  178.4310  141.4540 C   0  0  0  0  0  0  0  0  0  0  0  0
  186.4630  178.8860  141.9020 N   0  0  0  0  0  0  0  0  0  0  0  0
  191.3220  177.1690  140.0650 N   0  0  0  0  0  0  0  0  0  0  0  0
  190.6020  176.8710  137.7810 C   0  0  0  0  0  0  0  0  0  0  0  0
  190.8340  176.3430  136.4290 C   0  0  0  0  0  2  0  0  0  0  0  0
  191.0190  177.6710  142.8750 C   0  0  0  0  0  2  0  0  0  0  0  0
  191.5680  175.4110  143.7210 C   0  0  0  0  0  1  0  0  0  0  0  0
  190.6340  176.5940  143.8760 C   0  0  1  0  0  3  0  0  0  0  0  0
  190.7260  177.1210  145.2310 N   0  0  0  0  0  2  0  0  0  0  0  0
  187.2120  177.8470  146.3030 C   0  0  0  0  0  0  0  0  0  0  0  0
  188.6440  177.7660  148.2530 C   0  0  0  0  0  3  0  0  0  0  0  0
  185.8670  178.0360  145.7010 C   0  0  0  0  0  1  0  0  0  0  0  0
  188.3120  177.5730  145.4850 C   0  0  0  0  0  3  0  0  0  0  0  0
  189.7440  177.4920  147.4340 C   0  0  0  0  0  3  0  0  0  0  0  0
  189.5840  177.3930  146.0480 C   0  0  0  0  0  0  0  0  0  0  0  0
  187.3780  177.9430  147.6870 C   0  0  0  0  0  3  0  0  0  0  0  0
  1  6  1  0  0  0  0
  2  5  2  0  0  0  0
  2 13  1  0  0  0  0
  3  2  1  0  0  0  0
  4  7  1  0  0  0  0
  5 16  1  0  0  0  0
  6 17  2  0  0  0  0
  7  3  2  0  0  0  0
  8 12  1  0  0  0  0
  8 21  1  0  0  0  0
  9  1  2  0  0  0  0
 10 18  1  0  0  0  0
 11 15  1  0  0  0  0
 13  8  1  0  0  0  0
 14  1  1  0  0  0  0
 14  5  1  0  0  0  0
 15  4  2  0  0  0  0
 15 20  1  0  0  0  0
 16 17  1  0  0  0  0
 16 12  2  0  0  0  0
 18 13  2  0  0  0  0
 19  3  1  0  0  0  0
 19 10  2  0  0  0  0
 20 19  1  0  0  0  0
 21 23  1  0  0  0  0
 23 22  1  1  0  0  0
 23 24  1  0  0  0  0
 24 30  1  0  0  0  0
 25 31  1  0  0  0  0
 27 25  1  0  0  0  0
 28 30  1  0  0  0  0
 28 25  2  0  0  0  0
 29 26  1  0  0  0  0
 30 29  2  0  0  0  0
 31 26  2  0  0  0  0
M  END
>  <MODEL>
1

>  <REMARK>
 VINA RESULT:      -9.7      0.000      0.000
  Name = 
  4 active torsions:
  status: ('A' for Active; 'I' for Inactive)
    1  A    between atoms: N_3  and  C_9
    2  A    between atoms: N_3  and  C_22
    3  A    between atoms: C_9  and  C_23
    4  A    between atoms: N_15  and  C_23
                            x       y       z     vdW  Elec       q    Type
                         _______ _______ _______ _____ _____    ______ ____

>  <TORSDO>
F 4

$$$$
=
 OpenBabel10272400183D

 31 35  0  0  1  0  0  0  0  0999 V2000
  187.5180  178.3370  136.6340 C   0  0  0  0  0  0  0  0  0  0  0  0
  186.5400  178.3780  140.1110 C   0  0  0  0  0  0  0  0  0  0  0  0
  185.0250  178.3250  140.0440 C   0  0  2  0  0  3  0  0  0  0  0  0
  183.1090  179.6720  139.2390 C   0  0  0  0  0  3  0  0  0  0  0  0
  187.3230  178.3510  139.0040 C   0  0  0  0  0  0  0  0  0  0  0  0
  188.9070  178.3160  136.7360 C   0  0  0  0  0  3  0  0  0  0  0  0
  184.3930  179.3230  139.1020 C   0  0  0  0  0  3  0  0  0  0  0  0
  188.6200  178.2470  141.5050 N   0  0  0  0  0  0  0  0  0  0  0  0
  186.9650  178.3420  135.5040 O   0  0  0  0  0  0  0  0  0  0  0  0
  185.0430  178.2920  142.5330 C   0  0  0  0  0  3  0  0  0  0  0  0
  180.9040  179.4370  140.4180 N   0  0  0  0  0  1  0  0  0  0  0  0
  189.3650  178.2690  140.2830 C   0  0  0  0  0  3  0  0  0  0  0  0
  187.1870  178.2840  141.4420 C   0  0  0  0  0  0  0  0  0  0  0  0
  186.7630  178.3520  137.7620 N   0  0  0  0  0  2  0  0  0  0  0  0
  182.3040  179.1850  140.3830 C   0  0  0  0  0  0  0  0  0  0  0  0
  188.7410  178.3120  139.1010 C   0  0  0  0  0  0  0  0  0  0  0  0
  189.4860  178.3030  137.9630 N   0  0  0  0  0  0  0  0  0  0  0  0
  186.4750  178.2210  142.5310 N   0  0  0  0  0  0  0  0  0  0  0  0
  184.3510  178.3790  141.3980 C   0  0  0  0  0  0  0  0  0  0  0  0
  182.9000  178.6110  141.4350 C   0  0  0  0  0  3  0  0  0  0  0  0
  189.3360  178.2480  142.7750 C   0  0  0  0  0  2  0  0  0  0  0  0
  190.0600  175.8840  142.6660 C   0  0  0  0  0  1  0  0  0  0  0  0
  189.2310  176.8860  143.4430 C   0  0  1  0  0  3  0  0  0  0  0  0
  189.7140  176.9690  144.8150 N   0  0  0  0  0  2  0  0  0  0  0  0
  186.7680  178.1170  146.8220 C   0  0  0  0  0  0  0  0  0  0  0  0
  188.7030  177.9400  148.2660 C   0  0  0  0  0  3  0  0  0  0  0  0
  185.3310  178.4360  146.6290 C   0  0  0  0  0  1  0  0  0  0  0  0
  187.5420  177.6960  145.7360 C   0  0  0  0  0  3  0  0  0  0  0  0
  189.4760  177.5190  147.1800 C   0  0  0  0  0  3  0  0  0  0  0  0
  188.9010  177.3930  145.9120 C   0  0  0  0  0  0  0  0  0  0  0  0
  187.3490  178.2390  148.0870 C   0  0  0  0  0  3  0  0  0  0  0  0
  1  6  1  0  0  0  0
  1 14  1  0  0  0  0
  2 13  1  0  0  0  0
  3  7  1  6  0  0  0
  3  2  1  0  0  0  0
  3 19  1  0  0  0  0
  4 15  1  0  0  0  0
  5 16  1  0  0  0  0
  5  2  2  0  0  0  0
  6 17  2  0  0  0  0
  7  4  2  0  0  0  0
  8 21  1  0  0  0  0
  9  1  2  0  0  0  0
 12  8  1  0  0  0  0
 13  8  1  0  0  0  0
 13 18  2  0  0  0  0
 14  5  1  0  0  0  0
 15 11  1  0  0  0  0
 15 20  2  0  0  0  0
 16 12  2  0  0  0  0
 17 16  1  0  0  0  0
 18 10  1  0  0  0  0
 19 20  1  0  0  0  0
 19 10  2  0  0  0  0
 21 23  1  0  0  0  0
 23 22  1  6  0  0  0
 23 24  1  0  0  0  0
 24 30  1  0  0  0  0
 25 31  1  0  0  0  0
 27 25  1  0  0  0  0
 28 30  1  0  0  0  0
 28 25  2  0  0  0  0
 29 26  1  0  0  0  0
 30 29  2  0  0  0  0
 31 26  2  0  0  0  0
M  END
>  <MODEL>
2

>  <REMARK>
 VINA RESULT:      -9.4      1.947      4.733
  Name = 
  4 active torsions:
  status: ('A' for Active; 'I' for Inactive)
    1  A    between atoms: N_3  and  C_9
    2  A    between atoms: N_3  and  C_22
    3  A    between atoms: C_9  and  C_23
    4  A    between atoms: N_15  and  C_23
                            x       y       z     vdW  Elec       q    Type
                         _______ _______ _______ _____ _____    ______ ____

>  <TORSDO>
F 4

$$$$
=
 OpenBabel10272400183D

 31 35  0  0  1  0  0  0  0  0999 V2000
  185.3650  178.4060  144.2060 C   0  0  0  0  0  0  0  0  0  0  0  0
  188.6900  177.5590  143.0800 C   0  0  0  0  0  0  0  0  0  0  0  0
  189.3410  176.9870  144.3250 C   0  0  2  0  0  3  0  0  0  0  0  0
  190.0270  177.6800  146.6030 C   0  0  0  0  0  3  0  0  0  0  0  0
  187.4020  177.9820  143.0560 C   0  0  0  0  0  0  0  0  0  0  0  0
  184.7790  178.8610  143.0270 C   0  0  0  0  0  3  0  0  0  0  0  0
  189.1910  177.8310  145.5690 C   0  0  0  0  0  3  0  0  0  0  0  0
  188.7980  177.9540  140.6060 N   0  0  0  0  0  0  0  0  0  0  0  0
  184.7050  178.3930  145.2770 O   0  0  0  0  0  0  0  0  0  0  0  0
  191.3590  176.5750  142.9280 C   0  0  0  0  0  3  0  0  0  0  0  0
  191.9680  176.5020  147.6750 N   0  0  0  0  0  1  0  0  0  0  0  0
  187.4490  178.4270  140.6870 C   0  0  0  0  0  3  0  0  0  0  0  0
  189.4410  177.4930  141.8030 C   0  0  0  0  0  0  0  0  0  0  0  0
  186.6530  177.9790  144.1940 N   0  0  0  0  0  2  0  0  0  0  0  0
  191.1920  176.7680  146.5140 C   0  0  0  0  0  0  0  0  0  0  0  0
  186.7930  178.4310  141.8520 C   0  0  0  0  0  0  0  0  0  0  0  0
  185.5040  178.8620  141.8800 N   0  0  0  0  0  0  0  0  0  0  0  0
  190.6520  177.0140  141.7610 N   0  0  0  0  0  0  0  0  0  0  0  0
  190.7880  176.5880  144.1320 C   0  0  0  0  0  0  0  0  0  0  0  0
  191.5850  176.2850  145.3290 C   0  0  0  0  0  3  0  0  0  0  0  0
  189.4970  178.0100  139.3280 C   0  0  0  0  0  2  0  0  0  0  0  0
  189.0150  179.2050  137.2150 C   0  0  0  0  0  1  0  0  0  0  0  0
  188.5030  178.1620  138.1880 C   0  0  1  0  0  3  0  0  0  0  0  0
  188.3350  176.8870  137.5030 N   0  0  0  0  0  2  0  0  0  0  0  0
  185.6990  174.2600  137.0880 C   0  0  0  0  0  0  0  0  0  0  0  0
  184.6730  176.4500  136.9780 C   0  0  0  0  0  3  0  0  0  0  0  0
  185.5820  172.7800  137.0450 C   0  0  0  0  0  1  0  0  0  0  0  0
  186.9500  174.8560  137.2780 C   0  0  0  0  0  3  0  0  0  0  0  0
  185.9230  177.0460  137.1680 C   0  0  0  0  0  3  0  0  0  0  0  0
  187.0660  176.2540  137.3190 C   0  0  0  0  0  0  0  0  0  0  0  0
  184.5610  175.0570  136.9390 C   0  0  0  0  0  3  0  0  0  0  0  0
  1  9  2  0  0  0  0
  2  3  1  0  0  0  0
  3  7  1  1  0  0  0
  5  2  2  0  0  0  0
  5 14  1  0  0  0  0
  6  1  1  0  0  0  0
  7  4  2  0  0  0  0
  8 12  1  0  0  0  0
  8 13  1  0  0  0  0
 10 19  2  0  0  0  0
 12 16  2  0  0  0  0
 13  2  1  0  0  0  0
 14  1  1  0  0  0  0
 15  4  1  0  0  0  0
 15 11  1  0  0  0  0
 16 17  1  0  0  0  0
 16  5  1  0  0  0  0
 17  6  2  0  0  0  0
 18 13  2  0  0  0  0
 18 10  1  0  0  0  0
 19  3  1  0  0  0  0
 19 20  1  0  0  0  0
 20 15  2  0  0  0  0
 21  8  1  0  0  0  0
 23 22  1  6  0  0  0
 23 21  1  0  0  0  0
 24 23  1  0  0  0  0
 25 28  1  0  0  0  0
 26 29  2  0  0  0  0
 27 25  1  0  0  0  0
 28 30  2  0  0  0  0
 29 30  1  0  0  0  0
 30 24  1  0  0  0  0
 31 26  1  0  0  0  0
 31 25  2  0  0  0  0
M  END
>  <MODEL>
3

>  <REMARK>
 VINA RESULT:      -9.4      2.314      7.467
  Name = 
  4 active torsions:
  status: ('A' for Active; 'I' for Inactive)
    1  A    between atoms: N_3  and  C_9
    2  A    between atoms: N_3  and  C_22
    3  A    between atoms: C_9  and  C_23
    4  A    between atoms: N_15  and  C_23
                            x       y       z     vdW  Elec       q    Type
                         _______ _______ _______ _____ _____    ______ ____

>  <TORSDO>
F 4

$$$$
=
 OpenBabel10272400183D

 31 35  0  0  1  0  0  0  0  0999 V2000
  185.1280  178.4450  144.6880 C   0  0  0  0  0  0  0  0  0  0  0  0
  188.1870  177.6810  142.9270 C   0  0  0  0  0  0  0  0  0  0  0  0
  189.0280  176.9860  143.9810 C   0  0  2  0  0  3  0  0  0  0  0  0
  190.1130  177.4490  146.1590 C   0  0  0  0  0  3  0  0  0  0  0  0
  186.9260  178.1160  143.1660 C   0  0  0  0  0  0  0  0  0  0  0  0
  184.3600  179.0160  143.6760 C   0  0  0  0  0  3  0  0  0  0  0  0
  189.1150  177.7070  145.3050 C   0  0  0  0  0  3  0  0  0  0  0  0
  187.8770  178.3130  140.5200 N   0  0  0  0  0  0  0  0  0  0  0  0
  184.6620  178.3330  145.8520 O   0  0  0  0  0  0  0  0  0  0  0  0
  190.7640  176.6930  142.2210 C   0  0  0  0  0  3  0  0  0  0  0  0
  192.1790  176.1570  146.7630 N   0  0  0  0  0  1  0  0  0  0  0  0
  186.5750  178.7880  140.8780 C   0  0  0  0  0  3  0  0  0  0  0  0
  188.7050  177.7330  141.5380 C   0  0  0  0  0  0  0  0  0  0  0  0
  186.3830  178.0090  144.4120 N   0  0  0  0  0  2  0  0  0  0  0  0
  191.2220  176.5410  145.7840 C   0  0  0  0  0  0  0  0  0  0  0  0
  186.1300  178.6850  142.1350 C   0  0  0  0  0  0  0  0  0  0  0  0
  184.8760  179.1220  142.4260 N   0  0  0  0  0  0  0  0  0  0  0  0
  189.8780  177.2500  141.2420 N   0  0  0  0  0  0  0  0  0  0  0  0
  190.4100  176.5950  143.5020 C   0  0  0  0  0  0  0  0  0  0  0  0
  191.3930  176.1710  144.5090 C   0  0  0  0  0  3  0  0  0  0  0  0
  188.3470  178.4860  139.1510 C   0  0  0  0  0  2  0  0  0  0  0  0
  186.4620  177.7930  137.7030 C   0  0  0  0  0  1  0  0  0  0  0  0
  187.8070  177.3760  138.2630 C   0  0  1  0  0  3  0  0  0  0  0  0
  188.7370  177.1200  137.1700 N   0  0  0  0  0  2  0  0  0  0  0  0
  192.0830  175.5020  137.6360 C   0  0  0  0  0  0  0  0  0  0  0  0
  190.4670  173.8260  136.9720 C   0  0  0  0  0  3  0  0  0  0  0  0
  193.4710  175.8740  138.0120 C   0  0  0  0  0  1  0  0  0  0  0  0
  191.0860  176.4810  137.5890 C   0  0  0  0  0  3  0  0  0  0  0  0
  189.4700  174.8050  136.9250 C   0  0  0  0  0  3  0  0  0  0  0  0
  189.7730  176.1350  137.2340 C   0  0  0  0  0  0  0  0  0  0  0  0
  191.7730  174.1750  137.3280 C   0  0  0  0  0  3  0  0  0  0  0  0
  1  9  2  0  0  0  0
  2  5  2  0  0  0  0
  2  3  1  0  0  0  0
  3  7  1  1  0  0  0
  5 14  1  0  0  0  0
  6  1  1  0  0  0  0
  7  4  2  0  0  0  0
  8 12  1  0  0  0  0
  8 13  1  0  0  0  0
 10 19  2  0  0  0  0
 12 16  2  0  0  0  0
 13  2  1  0  0  0  0
 14  1  1  0  0  0  0
 15  4  1  0  0  0  0
 15 11  1  0  0  0  0
 16 17  1  0  0  0  0
 16  5  1  0  0  0  0
 17  6  2  0  0  0  0
 18 13  2  0  0  0  0
 18 10  1  0  0  0  0
 19  3  1  0  0  0  0
 19 20  1  0  0  0  0
 20 15  2  0  0  0  0
 21  8  1  0  0  0  0
 23 22  1  6  0  0  0
 23 21  1  0  0  0  0
 24 30  1  0  0  0  0
 24 23  1  0  0  0  0
 25 27  1  0  0  0  0
 26 31  1  0  0  0  0
 28 25  1  0  0  0  0
 29 26  2  0  0  0  0
 29 30  1  0  0  0  0
 30 28  2  0  0  0  0
 31 25  2  0  0  0  0
M  END
>  <MODEL>
4

>  <REMARK>
 VINA RESULT:      -9.1      2.111      7.432
  Name = 
  4 active torsions:
  status: ('A' for Active; 'I' for Inactive)
    1  A    between atoms: N_3  and  C_9
    2  A    between atoms: N_3  and  C_22
    3  A    between atoms: C_9  and  C_23
    4  A    between atoms: N_15  and  C_23
                            x       y       z     vdW  Elec       q    Type
                         _______ _______ _______ _____ _____    ______ ____

>  <TORSDO>
F 4

$$$$
=
 OpenBabel10272400183D

 31 35  0  0  1  0  0  0  0  0999 V2000
  183.0680  178.8190  141.2740 C   0  0  0  0  0  0  0  0  0  0  0  0
  186.4610  178.3760  140.1180 C   0  0  0  0  0  0  0  0  0  0  0  0
  186.3280  178.4810  138.6110 C   0  0  0  0  0  0  0  0  0  0  0  0
  185.2690  177.3010  136.7070 C   0  0  0  0  0  3  0  0  0  0  0  0
  185.4050  178.5170  140.9570 C   0  0  0  0  0  0  0  0  0  0  0  0
  183.2380  178.7870  142.6560 C   0  0  0  0  0  3  0  0  0  0  0  0
  185.2390  177.6270  138.0050 C   0  0  0  0  0  3  0  0  0  0  0  0
  187.9590  178.2720  142.1260 N   0  0  0  0  0  0  0  0  0  0  0  0
  181.9200  178.9700  140.7800 O   0  0  0  0  0  0  0  0  0  0  0  0
  188.8000  178.2050  138.5020 C   0  0  0  0  0  3  0  0  0  0  0  0
  186.3610  177.4530  134.4510 N   0  0  0  0  0  1  0  0  0  0  0  0
  186.7810  178.3790  142.9320 C   0  0  0  0  0  3  0  0  0  0  0  0
  187.8230  178.2850  140.6980 C   0  0  0  0  0  0  0  0  0  0  0  0
  184.1470  178.6860  140.4620 N   0  0  0  0  0  2  0  0  0  0  0  0
  186.4260  177.6660  135.8560 C   0  0  0  0  0  0  0  0  0  0  0  0
  185.5740  178.5020  142.3690 C   0  0  0  0  0  0  0  0  0  0  0  0
  184.4830  178.6300  143.1710 N   0  0  0  0  0  0  0  0  0  0  0  0
  188.8750  178.2340  139.9330 N   0  0  0  0  0  0  0  0  0  0  0  0
  187.6310  178.2790  137.8660 C   0  0  0  0  0  0  0  0  0  0  0  0
  187.5690  178.0880  136.4100 C   0  0  0  0  0  2  0  0  0  0  0  0
  189.2520  178.0920  142.7760 C   0  0  0  0  0  2  0  0  0  0  0  0
  190.1420  175.7830  142.8180 C   0  0  0  0  0  1  0  0  0  0  0  0
  189.2760  176.7860  143.5530 C   0  0  1  0  0  3  0  0  0  0  0  0
  189.8110  177.0150  144.8890 N   0  0  0  0  0  2  0  0  0  0  0  0
  186.8800  178.1240  146.9390 C   0  0  0  0  0  0  0  0  0  0  0  0
  188.8430  177.9980  148.3490 C   0  0  0  0  0  3  0  0  0  0  0  0
  185.4330  178.4120  146.7700 C   0  0  0  0  0  1  0  0  0  0  0  0
  187.6420  177.7070  145.8420 C   0  0  0  0  0  3  0  0  0  0  0  0
  189.6050  177.5810  147.2530 C   0  0  0  0  0  3  0  0  0  0  0  0
  189.0090  177.4330  145.9960 C   0  0  0  0  0  0  0  0  0  0  0  0
  187.4800  178.2680  148.1920 C   0  0  0  0  0  3  0  0  0  0  0  0
  1  6  1  0  0  0  0
  2 13  1  0  0  0  0
  2  5  2  0  0  0  0
  3  2  1  0  0  0  0
  4  7  1  0  0  0  0
  5 16  1  0  0  0  0
  6 17  2  0  0  0  0
  7  3  2  0  0  0  0
  8 21  1  0  0  0  0
  8 12  1  0  0  0  0
  9  1  2  0  0  0  0
 10 18  1  0  0  0  0
 11 15  1  0  0  0  0
 13  8  1  0  0  0  0
 14  5  1  0  0  0  0
 14  1  1  0  0  0  0
 15 20  1  0  0  0  0
 15  4  2  0  0  0  0
 16 12  2  0  0  0  0
 16 17  1  0  0  0  0
 18 13  2  0  0  0  0
 19 10  2  0  0  0  0
 19  3  1  0  0  0  0
 20 19  1  0  0  0  0
 21 23  1  0  0  0  0
 23 22  1  6  0  0  0
 23 24  1  0  0  0  0
 24 30  1  0  0  0  0
 25 31  1  0  0  0  0
 27 25  1  0  0  0  0
 28 30  1  0  0  0  0
 28 25  2  0  0  0  0
 29 26  1  0  0  0  0
 30 29  2  0  0  0  0
 31 26  2  0  0  0  0
M  END
>  <MODEL>
5

>  <REMARK>
 VINA RESULT:      -9.1      1.944      2.487
  Name = 
  4 active torsions:
  status: ('A' for Active; 'I' for Inactive)
    1  A    between atoms: N_3  and  C_9
    2  A    between atoms: N_3  and  C_22
    3  A    between atoms: C_9  and  C_23
    4  A    between atoms: N_15  and  C_23
                            x       y       z     vdW  Elec       q    Type
                         _______ _______ _______ _____ _____    ______ ____

>  <TORSDO>
F 4

$$$$
=
 OpenBabel10272400183D

 31 35  0  0  1  0  0  0  0  0999 V2000
  182.3750  178.7890  143.7840 C   0  0  0  0  0  0  0  0  0  0  0  0
  184.4010  178.4280  140.8170 C   0  0  0  0  0  0  0  0  0  0  0  0
  183.3710  178.2930  139.7100 C   0  0  0  0  0  0  0  0  0  0  0  0
  181.5720  176.7640  138.9620 C   0  0  0  0  0  3  0  0  0  0  0  0
  184.0590  178.6160  142.1150 C   0  0  0  0  0  0  0  0  0  0  0  0
  183.3470  178.9790  144.7640 C   0  0  0  0  0  3  0  0  0  0  0  0
  182.2820  177.2790  139.9720 C   0  0  0  0  0  3  0  0  0  0  0  0
  186.8010  178.7400  141.4710 N   0  0  0  0  0  0  0  0  0  0  0  0
  181.1550  178.7790  144.0960 O   0  0  0  0  0  0  0  0  0  0  0  0
  185.2820  178.1870  138.1190 C   0  0  0  0  0  3  0  0  0  0  0  0
  181.0420  176.6530  136.5100 N   0  0  0  0  0  1  0  0  0  0  0  0
  186.3490  178.8810  142.8220 C   0  0  0  0  0  3  0  0  0  0  0  0
  185.8310  178.5260  140.4360 C   0  0  0  0  0  0  0  0  0  0  0  0
  182.7500  178.6150  142.4920 N   0  0  0  0  0  2  0  0  0  0  0  0
  181.9090  177.0800  137.5540 C   0  0  0  0  0  0  0  0  0  0  0  0
  185.0450  178.8270  143.1170 C   0  0  0  0  0  0  0  0  0  0  0  0
  184.6560  178.9940  144.4090 N   0  0  0  0  0  0  0  0  0  0  0  0
  186.2000  178.4370  139.1900 N   0  0  0  0  0  0  0  0  0  0  0  0
  183.9720  178.0780  138.3380 C   0  0  0  0  0  0  0  0  0  0  0  0
  183.0740  177.6640  137.2510 C   0  0  0  0  0  2  0  0  0  0  0  0
  188.2320  178.7560  141.1940 C   0  0  0  0  0  2  0  0  0  0  0  0
  189.8330  176.8690  141.1820 C   0  0  0  0  0  1  0  0  0  0  0  0
  188.9500  177.7330  142.0590 C   0  0  1  0  0  3  0  0  0  0  0  0
  189.7630  178.4130  143.0590 N   0  0  0  0  0  2  0  0  0  0  0  0
  189.2950  177.3250  146.6120 C   0  0  0  0  0  0  0  0  0  0  0  0
  191.5730  176.8720  145.9270 C   0  0  0  0  0  3  0  0  0  0  0  0
  188.2320  177.2910  147.6480 C   0  0  0  0  0  1  0  0  0  0  0  0
  189.0180  177.8440  145.3430 C   0  0  0  0  0  3  0  0  0  0  0  0
  191.2960  177.3920  144.6590 C   0  0  0  0  0  3  0  0  0  0  0  0
  190.0190  177.8790  144.3600 C   0  0  0  0  0  0  0  0  0  0  0  0
  190.5730  176.8380  146.9030 C   0  0  0  0  0  3  0  0  0  0  0  0
  1  9  2  0  0  0  0
  1  6  1  0  0  0  0
  2  5  2  0  0  0  0
  3  7  2  0  0  0  0
  3  2  1  0  0  0  0
  4  7  1  0  0  0  0
  5 14  1  0  0  0  0
  5 16  1  0  0  0  0
  8 12  1  0  0  0  0
 10 19  2  0  0  0  0
 10 18  1  0  0  0  0
 11 15  1  0  0  0  0
 12 16  2  0  0  0  0
 13  2  1  0  0  0  0
 13  8  1  0  0  0  0
 14  1  1  0  0  0  0
 15  4  2  0  0  0  0
 16 17  1  0  0  0  0
 17  6  2  0  0  0  0
 18 13  2  0  0  0  0
 19  3  1  0  0  0  0
 20 15  1  0  0  0  0
 20 19  1  0  0  0  0
 21  8  1  0  0  0  0
 21 23  1  0  0  0  0
 23 22  1  6  0  0  0
 23 24  1  0  0  0  0
 24 30  1  0  0  0  0
 25 31  1  0  0  0  0
 25 27  1  0  0  0  0
 26 31  2  0  0  0  0
 28 25  2  0  0  0  0
 29 26  1  0  0  0  0
 30 29  2  0  0  0  0
 30 28  1  0  0  0  0
M  END
>  <MODEL>
6

>  <REMARK>
 VINA RESULT:      -9.0      2.885      4.976
  Name = 
  4 active torsions:
  status: ('A' for Active; 'I' for Inactive)
    1  A    between atoms: N_3  and  C_9
    2  A    between atoms: N_3  and  C_22
    3  A    between atoms: C_9  and  C_23
    4  A    between atoms: N_15  and  C_23
                            x       y       z     vdW  Elec       q    Type
                         _______ _______ _______ _____ _____    ______ ____

>  <TORSDO>
F 4

$$$$
=
 OpenBabel10272400183D

 31 35  0  0  1  0  0  0  0  0999 V2000
  187.7870  178.4050  140.4330 C   0  0  0  0  0  0  0  0  0  0  0  0
  185.2610  178.6080  143.0070 C   0  0  0  0  0  0  0  0  0  0  0  0
  186.0750  178.6720  144.2850 C   0  0  2  0  0  3  0  0  0  0  0  0
  187.6540  177.2930  145.6050 C   0  0  0  0  0  3  0  0  0  0  0  0
  185.8310  178.5530  141.7780 C   0  0  0  0  0  0  0  0  0  0  0  0
  187.0090  178.4190  139.2780 C   0  0  0  0  0  3  0  0  0  0  0  0
  187.1520  177.6190  144.4080 C   0  0  0  0  0  3  0  0  0  0  0  0
  183.0260  178.8130  141.8880 N   0  0  0  0  0  0  0  0  0  0  0  0
  189.0400  178.3290  140.3520 O   0  0  0  0  0  0  0  0  0  0  0  0
  183.9130  178.8730  145.5020 C   0  0  0  0  0  3  0  0  0  0  0  0
  187.7430  177.6300  148.0920 N   0  0  0  0  0  1  0  0  0  0  0  0
  183.7120  178.7000  140.6370 C   0  0  0  0  0  3  0  0  0  0  0  0
  183.7910  178.7860  143.1010 C   0  0  0  0  0  0  0  0  0  0  0  0
  187.1850  178.4740  141.6480 N   0  0  0  0  0  2  0  0  0  0  0  0
  187.0900  177.8640  146.8500 C   0  0  0  0  0  0  0  0  0  0  0  0
  185.0440  178.5840  140.5940 C   0  0  0  0  0  0  0  0  0  0  0  0
  185.6590  178.5080  139.3840 N   0  0  0  0  0  0  0  0  0  0  0  0
  183.2070  178.9290  144.2560 N   0  0  0  0  0  0  0  0  0  0  0  0
  185.2360  178.7160  145.5440 C   0  0  0  0  0  0  0  0  0  0  0  0
  185.9130  178.5020  146.8310 C   0  0  0  0  0  3  0  0  0  0  0  0
  181.5700  178.8900  141.8970 C   0  0  0  0  0  2  0  0  0  0  0  0
  180.1050  177.4420  140.5260 C   0  0  0  0  0  1  0  0  0  0  0  0
  181.0190  178.6490  140.5010 C   0  0  1  0  0  3  0  0  0  0  0  0
  180.2770  179.8210  140.0530 N   0  0  0  0  0  2  0  0  0  0  0  0
  180.8020  182.3440  137.3360 C   0  0  0  0  0  0  0  0  0  0  0  0
  180.5350  180.1480  136.3510 C   0  0  0  0  0  3  0  0  0  0  0  0
  181.0230  183.8040  137.1830 C   0  0  0  0  0  1  0  0  0  0  0  0
  180.6520  181.7890  138.6110 C   0  0  0  0  0  3  0  0  0  0  0  0
  180.3840  179.5940  137.6260 C   0  0  0  0  0  3  0  0  0  0  0  0
  180.4430  180.4100  138.7610 C   0  0  0  0  0  0  0  0  0  0  0  0
  180.7450  181.5230  136.2060 C   0  0  0  0  0  3  0  0  0  0  0  0
  1 14  1  0  0  0  0
  2 13  1  0  0  0  0
  2  3  1  0  0  0  0
  3  7  1  1  0  0  0
  3 19  1  0  0  0  0
  4 15  1  0  0  0  0
  5  2  2  0  0  0  0
  6 17  2  0  0  0  0
  6  1  1  0  0  0  0
  7  4  2  0  0  0  0
  8 21  1  0  0  0  0
  8 13  1  0  0  0  0
  9  1  2  0  0  0  0
 10 19  2  0  0  0  0
 12  8  1  0  0  0  0
 13 18  2  0  0  0  0
 14  5  1  0  0  0  0
 15 11  1  0  0  0  0
 16 12  2  0  0  0  0
 16  5  1  0  0  0  0
 17 16  1  0  0  0  0
 18 10  1  0  0  0  0
 19 20  1  0  0  0  0
 20 15  2  0  0  0  0
 23 22  1  1  0  0  0
 23 21  1  0  0  0  0
 24 23  1  0  0  0  0
 25 28  1  0  0  0  0
 26 29  2  0  0  0  0
 27 25  1  0  0  0  0
 28 30  2  0  0  0  0
 29 30  1  0  0  0  0
 30 24  1  0  0  0  0
 31 26  1  0  0  0  0
 31 25  2  0  0  0  0
M  END
>  <MODEL>
7

>  <REMARK>
 VINA RESULT:      -9.0      3.931      9.472
  Name = 
  4 active torsions:
  status: ('A' for Active; 'I' for Inactive)
    1  A    between atoms: N_3  and  C_9
    2  A    between atoms: N_3  and  C_22
    3  A    between atoms: C_9  and  C_23
    4  A    between atoms: N_15  and  C_23
                            x       y       z     vdW  Elec       q    Type
                         _______ _______ _______ _____ _____    ______ ____

>  <TORSDO>
F 4

$$$$
=
 OpenBabel10272400183D

 31 35  0  0  1  0  0  0  0  0999 V2000
  186.9260  177.9560  137.7630 C   0  0  0  0  0  0  0  0  0  0  0  0
  190.3270  177.2010  138.7160 C   0  0  0  0  0  0  0  0  0  0  0  0
  190.9760  176.8150  137.4000 C   0  0  0  0  0  0  0  0  0  0  0  0
  190.8250  175.0740  135.6450 C   0  0  0  0  0  3  0  0  0  0  0  0
  189.0320  177.5940  138.8060 C   0  0  0  0  0  0  0  0  0  0  0  0
  186.3820  178.3720  138.9770 C   0  0  0  0  0  3  0  0  0  0  0  0
  190.2090  175.7990  136.5860 C   0  0  0  0  0  3  0  0  0  0  0  0
  190.5970  177.7650  141.1440 N   0  0  0  0  0  0  0  0  0  0  0  0
  186.2130  177.9280  136.7270 O   0  0  0  0  0  0  0  0  0  0  0  0
  193.0980  176.5450  138.6730 C   0  0  0  0  0  3  0  0  0  0  0  0
  192.8980  174.5040  134.3470 N   0  0  0  0  0  1  0  0  0  0  0  0
  189.2090  178.1140  141.1540 C   0  0  0  0  0  3  0  0  0  0  0  0
  191.1890  177.3170  139.9170 C   0  0  0  0  0  0  0  0  0  0  0  0
  188.2290  177.5810  137.7050 N   0  0  0  0  0  2  0  0  0  0  0  0
  192.2920  175.1580  135.4560 C   0  0  0  0  0  0  0  0  0  0  0  0
  188.4750  178.0350  140.0380 C   0  0  0  0  0  0  0  0  0  0  0  0
  187.1670  178.4030  140.0830 N   0  0  0  0  0  0  0  0  0  0  0  0
  192.4590  177.0330  139.8600 N   0  0  0  0  0  0  0  0  0  0  0  0
  192.4250  176.3980  137.5320 C   0  0  0  0  0  0  0  0  0  0  0  0
  193.0620  175.7480  136.3780 C   0  0  0  0  0  2  0  0  0  0  0  0
  191.3530  177.8180  142.3900 C   0  0  0  0  0  2  0  0  0  0  0  0
  191.5500  175.8130  143.8280 C   0  0  0  0  0  1  0  0  0  0  0  0
  190.6650  176.9870  143.4610 C   0  0  1  0  0  3  0  0  0  0  0  0
  190.4180  177.8050  144.6410 N   0  0  0  0  0  2  0  0  0  0  0  0
  187.9320  177.7890  147.4420 C   0  0  0  0  0  0  0  0  0  0  0  0
  186.7560  177.7490  145.3260 C   0  0  0  0  0  3  0  0  0  0  0  0
  187.9100  177.7990  148.9270 C   0  0  0  0  0  1  0  0  0  0  0  0
  189.1540  177.8060  146.7620 C   0  0  0  0  0  3  0  0  0  0  0  0
  187.9780  177.7670  144.6460 C   0  0  0  0  0  3  0  0  0  0  0  0
  189.1810  177.7970  145.3590 C   0  0  0  0  0  0  0  0  0  0  0  0
  186.7340  177.7610  146.7240 C   0  0  0  0  0  3  0  0  0  0  0  0
  1  6  1  0  0  0  0
  2  5  2  0  0  0  0
  2 13  1  0  0  0  0
  3 19  1  0  0  0  0
  3  2  1  0  0  0  0
  4  7  1  0  0  0  0
  5 16  1  0  0  0  0
  6 17  2  0  0  0  0
  7  3  2  0  0  0  0
  8 12  1  0  0  0  0
  8 21  1  0  0  0  0
  9  1  2  0  0  0  0
 10 18  1  0  0  0  0
 11 15  1  0  0  0  0
 13  8  1  0  0  0  0
 14  1  1  0  0  0  0
 14  5  1  0  0  0  0
 15  4  2  0  0  0  0
 15 20  1  0  0  0  0
 16 17  1  0  0  0  0
 16 12  2  0  0  0  0
 18 13  2  0  0  0  0
 19 10  2  0  0  0  0
 20 19  1  0  0  0  0
 21 23  1  0  0  0  0
 23 22  1  1  0  0  0
 23 24  1  0  0  0  0
 24 30  1  0  0  0  0
 25 27  1  0  0  0  0
 26 31  1  0  0  0  0
 28 25  1  0  0  0  0
 29 26  2  0  0  0  0
 29 30  1  0  0  0  0
 30 28  2  0  0  0  0
 31 25  2  0  0  0  0
M  END
>  <MODEL>
8

>  <REMARK>
 VINA RESULT:      -8.9      1.396      2.077
  Name = 
  4 active torsions:
  status: ('A' for Active; 'I' for Inactive)
    1  A    between atoms: N_3  and  C_9
    2  A    between atoms: N_3  and  C_22
    3  A    between atoms: C_9  and  C_23
    4  A    between atoms: N_15  and  C_23
                            x       y       z     vdW  Elec       q    Type
                         _______ _______ _______ _____ _____    ______ ____

>  <TORSDO>
F 4

$$$$
=
 OpenBabel10272400183D

 31 35  0  0  1  0  0  0  0  0999 V2000
  189.1360  176.8790  146.9220 C   0  0  0  0  0  0  0  0  0  0  0  0
  188.0540  177.8380  143.6120 C   0  0  0  0  0  0  0  0  0  0  0  0
  189.1640  177.3120  142.7210 C   0  0  0  0  0  0  0  0  0  0  0  0
  191.5810  177.6500  142.2930 C   0  0  0  0  0  3  0  0  0  0  0  0
  188.0500  177.6620  144.9570 C   0  0  0  0  0  0  0  0  0  0  0  0
  188.0660  177.3140  147.7010 C   0  0  0  0  0  3  0  0  0  0  0  0
  190.5620  177.6780  143.1610 C   0  0  0  0  0  3  0  0  0  0  0  0
  185.7610  178.8350  143.8010 N   0  0  0  0  0  0  0  0  0  0  0  0
  190.1270  176.3220  147.4620 O   0  0  0  0  0  0  0  0  0  0  0  0
  187.8410  178.1590  140.7900 C   0  0  0  0  0  3  0  0  0  0  0  0
  192.4600  177.1910  139.9860 N   0  0  0  0  0  1  0  0  0  0  0  0
  185.8670  178.6510  145.2170 C   0  0  0  0  0  3  0  0  0  0  0  0
  186.8500  178.4150  142.9670 C   0  0  0  0  0  0  0  0  0  0  0  0
  189.1030  177.0600  145.5780 N   0  0  0  0  0  2  0  0  0  0  0  0
  191.3490  177.3760  140.8550 C   0  0  0  0  0  0  0  0  0  0  0  0
  186.9540  178.0880  145.7560 C   0  0  0  0  0  0  0  0  0  0  0  0
  187.0020  177.9060  147.1030 N   0  0  0  0  0  0  0  0  0  0  0  0
  186.7720  178.5260  141.6720 N   0  0  0  0  0  0  0  0  0  0  0  0
  188.9740  177.6320  141.2540 C   0  0  0  0  0  0  0  0  0  0  0  0
  190.1110  177.4140  140.3490 C   0  0  0  0  0  2  0  0  0  0  0  0
  184.5820  179.4950  143.2550 C   0  0  0  0  0  2  0  0  0  0  0  0
  182.4990  178.6690  144.3050 C   0  0  0  0  0  1  0  0  0  0  0  0
  183.4350  178.5070  143.1250 C   0  0  1  0  0  3  0  0  0  0  0  0
  182.7110  178.7490  141.8840 N   0  0  0  0  0  2  0  0  0  0  0  0
  183.3860  176.6650  138.8470 C   0  0  0  0  0  0  0  0  0  0  0  0
  184.4450  178.8260  138.5880 C   0  0  0  0  0  3  0  0  0  0  0  0
  183.0810  175.3100  138.3210 C   0  0  0  0  0  1  0  0  0  0  0  0
  182.9020  177.0530  140.1000 C   0  0  0  0  0  3  0  0  0  0  0  0
  183.9610  179.2150  139.8410 C   0  0  0  0  0  3  0  0  0  0  0  0
  183.1870  178.3320  140.6020 C   0  0  0  0  0  0  0  0  0  0  0  0
  184.1570  177.5520  138.0910 C   0  0  0  0  0  3  0  0  0  0  0  0
  1  9  2  0  0  0  0
  1  6  1  0  0  0  0
  2  5  2  0  0  0  0
  3  7  2  0  0  0  0
  3  2  1  0  0  0  0
  4  7  1  0  0  0  0
  5 14  1  0  0  0  0
  5 16  1  0  0  0  0
  8 12  1  0  0  0  0
 10 19  2  0  0  0  0
 10 18  1  0  0  0  0
 11 15  1  0  0  0  0
 12 16  2  0  0  0  0
 13  2  1  0  0  0  0
 13  8  1  0  0  0  0
 14  1  1  0  0  0  0
 15  4  2  0  0  0  0
 16 17  1  0  0  0  0
 17  6  2  0  0  0  0
 18 13  2  0  0  0  0
 19  3  1  0  0  0  0
 20 15  1  0  0  0  0
 20 19  1  0  0  0  0
 21  8  1  0  0  0  0
 23 21  1  0  0  0  0
 23 22  1  1  0  0  0
 24 23  1  0  0  0  0
 25 28  1  0  0  0  0
 26 29  2  0  0  0  0
 27 25  1  0  0  0  0
 28 30  2  0  0  0  0
 29 30  1  0  0  0  0
 30 24  1  0  0  0  0
 31 26  1  0  0  0  0
 31 25  2  0  0  0  0
M  END
>  <MODEL>
9

>  <REMARK>
 VINA RESULT:      -8.8      3.056      7.042
  Name = 
  4 active torsions:
  status: ('A' for Active; 'I' for Inactive)
    1  A    between atoms: N_3  and  C_9
    2  A    between atoms: N_3  and  C_22
    3  A    between atoms: C_9  and  C_23
    4  A    between atoms: N_15  and  C_23
                            x       y       z     vdW  Elec       q    Type
                         _______ _______ _______ _____ _____    ______ ____

>  <TORSDO>
F 4

$$$$
