=
 OpenBabel10272415003D

 37 45  0  0  1  0  0  0  0  0999 V2000
  185.6710  179.0200  145.2880 C   0  0  1  0  0  3  0  0  0  0  0  0
  190.4000  176.2210  147.4470 C   0  0  0  0  0  2  0  0  0  0  0  0
  190.0720  177.5450  143.1600 C   0  0  2  0  0  0  0  0  0  0  0  0
  187.3820  177.4950  140.8490 N   0  0  0  0  0  2  0  0  0  0  0  0
  190.9810  177.3850  145.2550 C   0  0  0  0  0  0  0  0  0  0  0  0
  188.8500  178.2930  142.7010 C   0  0  1  0  0  3  0  0  0  0  0  0
  186.0710  178.0760  147.4500 O   0  0  0  0  0  1  0  0  0  0  0  0
  189.8400  177.0100  144.4920 N   0  0  0  0  0  0  0  0  0  0  0  0
  188.5570  178.3130  141.2000 C   0  0  1  0  0  3  0  0  0  0  0  0
  191.8650  178.1090  144.4800 O   0  0  0  0  0  0  0  0  0  0  0  0
  188.3940  177.0550  144.7860 C   0  0  1  0  0  3  0  0  0  0  0  0
  188.6940  177.7210  147.2290 C   0  0  0  0  0  2  0  0  0  0  0  0
  192.0170  177.5050  141.1270 C   0  0  0  0  0  2  0  0  0  0  0  0
  186.4380  177.9610  146.1030 C   0  0  2  0  0  3  0  0  0  0  0  0
  191.3370  178.3240  143.1730 C   0  0  1  0  0  3  0  0  0  0  0  0
  187.9720  178.0360  145.9120 C   0  0  2  0  0  3  0  0  0  0  0  0
  186.2170  177.9970  141.6060 C   0  0  0  0  0  2  0  0  0  0  0  0
  191.2690  176.9920  142.3580 C   0  0  2  0  0  0  0  0  0  0  0  0
  187.8210  177.4580  143.4280 C   0  0  1  0  0  3  0  0  0  0  0  0
  191.2500  177.0640  146.5240 C   0  0  0  0  0  3  0  0  0  0  0  0
  189.8040  178.0200  140.3650 C   0  0  1  0  0  3  0  0  0  0  0  0
  189.0060  176.3550  147.2920 O   0  0  0  0  0  0  0  0  0  0  0  0
  186.3810  177.8410  143.1380 C   0  0  1  0  0  3  0  0  0  0  0  0
  186.0690  179.1690  143.8150 C   0  0  0  0  0  2  0  0  0  0  0  0
  190.6940  176.8890  140.9040 C   0  0  1  0  0  3  0  0  0  0  0  0
  189.0470  178.9910  138.1560 C   0  0  0  0  0  3  0  0  0  0  0  0
  189.5320  177.9010  138.8960 C   0  0  0  0  0  0  0  0  0  0  0  0
  189.7930  176.6880  138.2500 C   0  0  0  0  0  3  0  0  0  0  0  0
  189.8150  175.3810  136.2570 F   0  0  0  0  0  0  0  0  0  0  0  0
  189.0760  177.6440  136.1440 C   0  0  0  0  0  3  0  0  0  0  0  0
  189.5640  176.5590  136.8770 C   0  0  0  0  0  0  0  0  0  0  0  0
  188.8190  178.8600  136.7830 C   0  0  0  0  0  3  0  0  0  0  0  0
  184.1520  178.8940  145.4540 C   0  0  0  0  0  2  0  0  0  0  0  0
  183.3730  179.6400  144.3800 C   0  0  0  0  0  2  0  0  0  0  0  0
  182.2860  178.7490  143.8120 C   0  0  0  0  0  2  0  0  0  0  0  0
  182.4410  178.6490  142.3610 C   0  0  0  0  0  0  0  0  0  0  0  0
  182.5690  178.5640  141.1650 C   0  0  0  0  0  3  0  0  0  0  0  0
  1 33  1  6  0  0  0
  1 14  1  0  0  0  0
  3 15  1  0  0  0  0
  3  8  1  1  0  0  0
  4  9  1  0  0  0  0
  4 17  1  0  0  0  0
  5 20  2  0  0  0  0
  6  3  1  0  0  0  0
  6 19  1  0  0  0  0
  8 11  1  0  0  0  0
  8  5  1  0  0  0  0
  9  6  1  0  0  0  0
 10  5  1  0  0  0  0
 11 16  1  0  0  0  0
 12 22  1  0  0  0  0
 13 18  1  0  0  0  0
 14  7  1  0  0  0  0
 15 10  1  0  0  0  0
 16 14  1  0  0  0  0
 16 12  1  0  0  0  0
 17 23  1  0  0  0  0
 18  3  1  0  0  0  0
 18 15  1  0  0  0  0
 19 11  1  0  0  0  0
 20  2  1  0  0  0  0
 21 25  1  0  0  0  0
 21  9  1  0  0  0  0
 22  2  1  0  0  0  0
 23 19  1  0  0  0  0
 23 24  1  0  0  0  0
 24  1  1  0  0  0  0
 25 13  1  0  0  0  0
 25 18  1  0  0  0  0
 26 27  1  0  0  0  0
 27 21  1  0  0  0  0
 28 27  2  0  0  0  0
 29 31  1  0  0  0  0
 30 32  1  0  0  0  0
 30 31  2  0  0  0  0
 31 28  1  0  0  0  0
 32 26  2  0  0  0  0
 34 33  1  0  0  0  0
 35 34  1  0  0  0  0
 36 35  1  0  0  0  0
 37 36  3  0  0  0  0
M  END
>  <MODEL>
1

>  <REMARK>
 VINA RESULT:      -9.6      0.000      0.000
  Name = 
  5 active torsions:
  status: ('A' for Active; 'I' for Inactive)
    1  A    between atoms: C_1  and  C_5
    2  A    between atoms: C_5  and  C_17
    3  A    between atoms: C_6  and  C_31
    4  A    between atoms: C_11  and  C_26
    5  A    between atoms: C_17  and  C_26
                            x       y       z     vdW  Elec       q    Type
                         _______ _______ _______ _____ _____    ______ ____

>  <TORSDO>
F 5

$$$$
=
 OpenBabel10272415003D

 37 45  0  0  1  0  0  0  0  0999 V2000
  183.8530  178.0710  140.0670 C   0  0  1  0  0  3  0  0  0  0  0  0
  189.1250  178.6540  137.4740 C   0  0  0  0  0  2  0  0  0  0  0  0
  188.6260  177.6630  141.8340 C   0  0  2  0  0  0  0  0  0  0  0  0
  186.3780  178.8520  144.3060 N   0  0  0  0  0  2  0  0  0  0  0  0
  189.3550  177.3970  139.6790 C   0  0  0  0  0  0  0  0  0  0  0  0
  187.2470  177.4880  142.4070 C   0  0  1  0  0  3  0  0  0  0  0  0
  184.4300  178.7270  137.8400 O   0  0  0  0  0  1  0  0  0  0  0  0
  188.5280  178.2200  140.4940 N   0  0  0  0  0  0  0  0  0  0  0  0
  187.0890  177.6190  143.9220 C   0  0  1  0  0  3  0  0  0  0  0  0
  189.9270  176.3910  140.4310 O   0  0  0  0  0  0  0  0  0  0  0  0
  187.1690  178.7640  140.2960 C   0  0  1  0  0  3  0  0  0  0  0  0
  186.9800  177.9860  137.8750 C   0  0  0  0  0  2  0  0  0  0  0  0
  190.5740  176.9450  143.7340 C   0  0  0  0  0  2  0  0  0  0  0  0
  184.9160  178.7090  139.1530 C   0  0  2  0  0  3  0  0  0  0  0  0
  189.4610  176.4360  141.7790 C   0  0  1  0  0  3  0  0  0  0  0  0
  186.2980  178.0180  139.2490 C   0  0  2  0  0  3  0  0  0  0  0  0
  185.0540  178.8540  143.6510 C   0  0  0  0  0  2  0  0  0  0  0  0
  190.0040  177.6950  142.5290 C   0  0  2  0  0  0  0  0  0  0  0  0
  186.5900  178.6560  141.7060 C   0  0  1  0  0  3  0  0  0  0  0  0
  189.6300  177.5560  138.3820 C   0  0  0  0  0  3  0  0  0  0  0  0
  188.4100  177.3930  144.6600 C   0  0  1  0  0  3  0  0  0  0  0  0
  187.8130  179.1040  137.7240 O   0  0  0  0  0  0  0  0  0  0  0  0
  185.1460  178.9000  142.1060 C   0  0  1  0  0  3  0  0  0  0  0  0
  184.2710  177.8020  141.5170 C   0  0  0  0  0  2  0  0  0  0  0  0
  189.6370  178.0520  144.0100 C   0  0  1  0  0  3  0  0  0  0  0  0
  187.0890  177.6650  146.8000 C   0  0  0  0  0  3  0  0  0  0  0  0
  188.3250  177.6410  146.1360 C   0  0  0  0  0  0  0  0  0  0  0  0
  189.5060  177.8260  146.8650 C   0  0  0  0  0  3  0  0  0  0  0  0
  190.5980  178.2220  148.9460 F   0  0  0  0  0  0  0  0  0  0  0  0
  188.2200  178.0690  148.9030 C   0  0  0  0  0  3  0  0  0  0  0  0
  189.4530  178.0410  148.2450 C   0  0  0  0  0  0  0  0  0  0  0  0
  187.0390  177.8800  148.1800 C   0  0  0  0  0  3  0  0  0  0  0  0
  182.5080  178.8020  139.9920 C   0  0  0  0  0  2  0  0  0  0  0  0
  181.3610  178.0010  140.5940 C   0  0  0  0  0  2  0  0  0  0  0  0
  180.5000  178.8960  141.4630 C   0  0  0  0  0  2  0  0  0  0  0  0
  180.9630  178.8280  142.8490 C   0  0  0  0  0  0  0  0  0  0  0  0
  181.3430  178.7710  143.9920 C   0  0  0  0  0  3  0  0  0  0  0  0
  1 33  1  1  0  0  0
  1 24  1  0  0  0  0
  2 22  1  0  0  0  0
  2 20  1  0  0  0  0
  3  8  1  6  0  0  0
  3  6  1  0  0  0  0
  3 18  1  0  0  0  0
  5 10  1  0  0  0  0
  5  8  1  0  0  0  0
  6  9  1  0  0  0  0
  7 14  1  0  0  0  0
  9  4  1  0  0  0  0
  9 21  1  0  0  0  0
 10 15  1  0  0  0  0
 11  8  1  0  0  0  0
 11 19  1  0  0  0  0
 12 16  1  0  0  0  0
 13 25  1  0  0  0  0
 14 16  1  0  0  0  0
 14  1  1  0  0  0  0
 15  3  1  0  0  0  0
 15 18  1  0  0  0  0
 16 11  1  0  0  0  0
 17  4  1  0  0  0  0
 18 13  1  0  0  0  0
 18 25  1  0  0  0  0
 19 23  1  0  0  0  0
 19  6  1  0  0  0  0
 20  5  2  0  0  0  0
 21 27  1  0  0  0  0
 22 12  1  0  0  0  0
 23 17  1  0  0  0  0
 24 23  1  0  0  0  0
 25 21  1  0  0  0  0
 26 32  1  0  0  0  0
 27 26  2  0  0  0  0
 27 28  1  0  0  0  0
 28 31  2  0  0  0  0
 31 30  1  0  0  0  0
 31 29  1  0  0  0  0
 32 30  2  0  0  0  0
 33 34  1  0  0  0  0
 34 35  1  0  0  0  0
 35 36  1  0  0  0  0
 36 37  3  0  0  0  0
M  END
>  <MODEL>
2

>  <REMARK>
 VINA RESULT:      -9.0      3.420      6.754
  Name = 
  5 active torsions:
  status: ('A' for Active; 'I' for Inactive)
    1  A    between atoms: C_1  and  C_5
    2  A    between atoms: C_5  and  C_17
    3  A    between atoms: C_6  and  C_31
    4  A    between atoms: C_11  and  C_26
    5  A    between atoms: C_17  and  C_26
                            x       y       z     vdW  Elec       q    Type
                         _______ _______ _______ _____ _____    ______ ____

>  <TORSDO>
F 5

$$$$
=
 OpenBabel10272415003D

 37 45  0  0  1  0  0  0  0  0999 V2000
  188.2230  178.8650  140.6740 C   0  0  1  0  0  3  0  0  0  0  0  0
  183.0910  178.3090  143.5380 C   0  0  0  0  0  2  0  0  0  0  0  0
  187.0880  178.0830  145.5910 C   0  0  2  0  0  0  0  0  0  0  0  0
  190.1590  176.5690  144.6660 N   0  0  0  0  0  2  0  0  0  0  0  0
  184.9680  178.8440  145.1770 C   0  0  0  0  0  0  0  0  0  0  0  0
  188.3480  178.2800  144.7930 C   0  0  1  0  0  3  0  0  0  0  0  0
  185.9780  178.7930  139.8490 O   0  0  0  0  0  1  0  0  0  0  0  0
  185.9580  177.9480  144.6850 N   0  0  0  0  0  0  0  0  0  0  0  0
  189.6520  177.7480  145.3910 C   0  0  1  0  0  3  0  0  0  0  0  0
  185.4280  179.5050  146.2980 O   0  0  0  0  0  0  0  0  0  0  0  0
  186.4610  177.6790  143.3230 C   0  0  1  0  0  3  0  0  0  0  0  0
  184.7140  179.1300  142.1610 C   0  0  0  0  0  2  0  0  0  0  0  0
  187.6780  177.9530  148.3390 C   0  0  0  0  0  2  0  0  0  0  0  0
  186.7840  178.3700  140.9140 C   0  0  2  0  0  3  0  0  0  0  0  0
  186.7800  179.1460  146.5810 C   0  0  1  0  0  3  0  0  0  0  0  0
  186.2090  178.8050  142.2840 C   0  0  2  0  0  3  0  0  0  0  0  0
  190.3570  176.9380  143.2500 C   0  0  0  0  0  2  0  0  0  0  0  0
  186.8870  177.6630  147.0620 C   0  0  2  0  0  0  0  0  0  0  0  0
  187.9510  177.4620  143.5860 C   0  0  1  0  0  3  0  0  0  0  0  0
  183.7300  179.0230  144.7070 C   0  0  0  0  0  3  0  0  0  0  0  0
  189.5600  177.5680  146.9070 C   0  0  1  0  0  3  0  0  0  0  0  0
  183.9480  177.9950  142.4650 O   0  0  0  0  0  0  0  0  0  0  0  0
  189.0370  177.3200  142.5360 C   0  0  1  0  0  3  0  0  0  0  0  0
  189.2190  178.6510  141.8190 C   0  0  0  0  0  2  0  0  0  0  0  0
  188.2420  176.9560  147.4080 C   0  0  1  0  0  3  0  0  0  0  0  0
  191.2060  175.6580  147.0980 C   0  0  0  0  0  3  0  0  0  0  0  0
  190.7710  176.9260  147.5120 C   0  0  0  0  0  0  0  0  0  0  0  0
  191.4940  177.6200  148.4890 C   0  0  0  0  0  3  0  0  0  0  0  0
  193.3320  177.7240  150.0030 F   0  0  0  0  0  0  0  0  0  0  0  0
  193.0650  175.7840  148.6440 C   0  0  0  0  0  3  0  0  0  0  0  0
  192.6370  177.0490  149.0550 C   0  0  0  0  0  0  0  0  0  0  0  0
  192.3500  175.0890  147.6650 C   0  0  0  0  0  3  0  0  0  0  0  0
  188.7880  178.3810  139.3340 C   0  0  0  0  0  2  0  0  0  0  0  0
  188.9240  176.8660  139.2580 C   0  0  0  0  0  2  0  0  0  0  0  0
  190.2350  176.4930  138.5970 C   0  0  0  0  0  2  0  0  0  0  0  0
  191.3510  176.9620  139.4190 C   0  0  0  0  0  0  0  0  0  0  0  0
  192.2710  177.3470  140.0960 C   0  0  0  0  0  3  0  0  0  0  0  0
  1 33  1  6  0  0  0
  1 14  1  0  0  0  0
  1 24  1  0  0  0  0
  2 20  1  0  0  0  0
  3  8  1  6  0  0  0
  3 15  1  0  0  0  0
  3 18  1  0  0  0  0
  4  9  1  0  0  0  0
  5 10  1  0  0  0  0
  6  9  1  0  0  0  0
  6  3  1  0  0  0  0
  7 14  1  0  0  0  0
  8  5  1  0  0  0  0
  9 21  1  0  0  0  0
 10 15  1  0  0  0  0
 11 19  1  0  0  0  0
 11  8  1  0  0  0  0
 12 16  1  0  0  0  0
 12 22  1  0  0  0  0
 14 16  1  0  0  0  0
 15 18  1  0  0  0  0
 16 11  1  0  0  0  0
 17  4  1  0  0  0  0
 18 25  1  0  0  0  0
 18 13  1  0  0  0  0
 19  6  1  0  0  0  0
 20  5  2  0  0  0  0
 21 25  1  0  0  0  0
 21 27  1  0  0  0  0
 22  2  1  0  0  0  0
 23 17  1  0  0  0  0
 23 19  1  0  0  0  0
 24 23  1  0  0  0  0
 25 13  1  0  0  0  0
 26 27  2  0  0  0  0
 26 32  1  0  0  0  0
 27 28  1  0  0  0  0
 28 31  2  0  0  0  0
 30 31  1  0  0  0  0
 31 29  1  0  0  0  0
 32 30  2  0  0  0  0
 34 33  1  0  0  0  0
 35 34  1  0  0  0  0
 35 36  1  0  0  0  0
 36 37  3  0  0  0  0
M  END
>  <MODEL>
3

>  <REMARK>
 VINA RESULT:      -8.6      3.162      7.685
  Name = 
  5 active torsions:
  status: ('A' for Active; 'I' for Inactive)
    1  A    between atoms: C_1  and  C_5
    2  A    between atoms: C_5  and  C_17
    3  A    between atoms: C_6  and  C_31
    4  A    between atoms: C_11  and  C_26
    5  A    between atoms: C_17  and  C_26
                            x       y       z     vdW  Elec       q    Type
                         _______ _______ _______ _____ _____    ______ ____

>  <TORSDO>
F 5

$$$$
=
 OpenBabel10272415003D

 37 45  0  0  1  0  0  0  0  0999 V2000
  190.5100  176.1350  143.4800 C   0  0  1  0  0  3  0  0  0  0  0  0
  188.8690  178.5620  148.6050 C   0  0  0  0  0  2  0  0  0  0  0  0
  186.1210  178.2100  145.0610 C   0  0  2  0  0  0  0  0  0  0  0  0
  186.6460  178.6700  141.5830 N   0  0  0  0  0  2  0  0  0  0  0  0
  186.8210  177.9360  147.2240 C   0  0  0  0  0  0  0  0  0  0  0  0
  186.6050  177.5370  143.8050 C   0  0  1  0  0  3  0  0  0  0  0  0
  191.7700  176.5900  145.4620 O   0  0  0  0  0  1  0  0  0  0  0  0
  187.2450  178.4280  145.9570 N   0  0  0  0  0  0  0  0  0  0  0  0
  185.8540  177.8400  142.5080 C   0  0  1  0  0  3  0  0  0  0  0  0
  185.5370  177.4360  147.1430 O   0  0  0  0  0  0  0  0  0  0  0  0
  188.5040  178.2640  145.2020 C   0  0  1  0  0  3  0  0  0  0  0  0
  189.7370  177.0850  147.0980 C   0  0  0  0  0  2  0  0  0  0  0  0
  183.3700  178.7740  144.8730 C   0  0  0  0  0  2  0  0  0  0  0  0
  190.6500  177.0150  144.7360 C   0  0  2  0  0  3  0  0  0  0  0  0
  185.0510  177.4970  145.8030 C   0  0  1  0  0  3  0  0  0  0  0  0
  189.3710  177.0420  145.6080 C   0  0  2  0  0  3  0  0  0  0  0  0
  187.9130  177.9690  141.2910 C   0  0  0  0  0  2  0  0  0  0  0  0
  184.8110  178.9730  145.3490 C   0  0  2  0  0  0  0  0  0  0  0  0
  187.9860  178.1510  143.7690 C   0  0  1  0  0  3  0  0  0  0  0  0
  187.4940  177.9780  148.3770 C   0  0  0  0  0  3  0  0  0  0  0  0
  184.4380  178.3570  142.7690 C   0  0  1  0  0  3  0  0  0  0  0  0
  189.7850  178.4140  147.5440 O   0  0  0  0  0  0  0  0  0  0  0  0
  188.8050  177.7880  142.5440 C   0  0  1  0  0  3  0  0  0  0  0  0
  189.2400  176.3320  142.6450 C   0  0  0  0  0  2  0  0  0  0  0  0
  184.3200  179.3740  143.9150 C   0  0  1  0  0  3  0  0  0  0  0  0
  184.4170  179.1630  140.3720 C   0  0  0  0  0  3  0  0  0  0  0  0
  183.7160  178.7880  141.5280 C   0  0  0  0  0  0  0  0  0  0  0  0
  182.3160  178.7890  141.5190 C   0  0  0  0  0  3  0  0  0  0  0  0
  180.2660  179.1730  140.3660 F   0  0  0  0  0  0  0  0  0  0  0  0
  182.3220  179.5480  139.2200 C   0  0  0  0  0  3  0  0  0  0  0  0
  181.6210  179.1700  140.3690 C   0  0  0  0  0  0  0  0  0  0  0  0
  183.7200  179.5440  139.2210 C   0  0  0  0  0  3  0  0  0  0  0  0
  191.7710  176.1630  142.6080 C   0  0  0  0  0  2  0  0  0  0  0  0
  192.0000  177.5110  141.9370 C   0  0  0  0  0  2  0  0  0  0  0  0
  192.4550  177.3100  140.5050 C   0  0  0  0  0  2  0  0  0  0  0  0
  191.3140  176.9130  139.6780 C   0  0  0  0  0  0  0  0  0  0  0  0
  190.3760  176.5850  138.9970 C   0  0  0  0  0  3  0  0  0  0  0  0
  1 33  1  6  0  0  0
  1 14  1  0  0  0  0
  3 18  1  0  0  0  0
  3 15  1  0  0  0  0
  3  8  1  1  0  0  0
  4  9  1  0  0  0  0
  5 20  2  0  0  0  0
  6  3  1  0  0  0  0
  8  5  1  0  0  0  0
  9 21  1  0  0  0  0
  9  6  1  0  0  0  0
 10  5  1  0  0  0  0
 11 16  1  0  0  0  0
 11  8  1  0  0  0  0
 12 22  1  0  0  0  0
 13 18  1  0  0  0  0
 14  7  1  0  0  0  0
 14 16  1  0  0  0  0
 15 10  1  0  0  0  0
 16 12  1  0  0  0  0
 17  4  1  0  0  0  0
 17 23  1  0  0  0  0
 18 15  1  0  0  0  0
 19  6  1  0  0  0  0
 19 11  1  0  0  0  0
 20  2  1  0  0  0  0
 21 25  1  0  0  0  0
 22  2  1  0  0  0  0
 23 24  1  0  0  0  0
 23 19  1  0  0  0  0
 24  1  1  0  0  0  0
 25 13  1  0  0  0  0
 25 18  1  0  0  0  0
 26 27  1  0  0  0  0
 27 21  1  0  0  0  0
 28 27  2  0  0  0  0
 29 31  1  0  0  0  0
 30 32  1  0  0  0  0
 30 31  2  0  0  0  0
 31 28  1  0  0  0  0
 32 26  2  0  0  0  0
 34 33  1  0  0  0  0
 35 34  1  0  0  0  0
 36 35  1  0  0  0  0
 37 36  3  0  0  0  0
M  END
>  <MODEL>
4

>  <REMARK>
 VINA RESULT:      -8.4      2.426      6.219
  Name = 
  5 active torsions:
  status: ('A' for Active; 'I' for Inactive)
    1  A    between atoms: C_1  and  C_5
    2  A    between atoms: C_5  and  C_17
    3  A    between atoms: C_6  and  C_31
    4  A    between atoms: C_11  and  C_26
    5  A    between atoms: C_17  and  C_26
                            x       y       z     vdW  Elec       q    Type
                         _______ _______ _______ _____ _____    ______ ____

>  <TORSDO>
F 5

$$$$
=
 OpenBabel10272415003D

 37 45  0  0  1  0  0  0  0  0999 V2000
  183.7610  178.0380  140.1990 C   0  0  1  0  0  3  0  0  0  0  0  0
  188.9820  178.7400  137.5340 C   0  0  0  0  0  2  0  0  0  0  0  0
  188.5660  177.7090  141.8930 C   0  0  2  0  0  0  0  0  0  0  0  0
  186.3320  178.8360  144.4070 N   0  0  0  0  0  2  0  0  0  0  0  0
  189.2680  177.4720  139.7270 C   0  0  0  0  0  0  0  0  0  0  0  0
  187.1980  177.5030  142.4850 C   0  0  1  0  0  3  0  0  0  0  0  0
  184.2920  178.7200  137.9680 O   0  0  0  0  0  1  0  0  0  0  0  0
  188.4370  178.2730  140.5590 N   0  0  0  0  0  0  0  0  0  0  0  0
  187.0600  177.6210  144.0030 C   0  0  1  0  0  3  0  0  0  0  0  0
  189.8700  176.4720  140.4630 O   0  0  0  0  0  0  0  0  0  0  0  0
  187.0660  178.7920  140.3850 C   0  0  1  0  0  3  0  0  0  0  0  0
  186.8560  178.0280  137.9610 C   0  0  0  0  0  2  0  0  0  0  0  0
  190.5540  177.0150  143.7600 C   0  0  0  0  0  2  0  0  0  0  0  0
  184.7980  178.7020  139.2740 C   0  0  2  0  0  3  0  0  0  0  0  0
  189.4230  176.4990  141.8180 C   0  0  1  0  0  3  0  0  0  0  0  0
  186.1940  178.0370  139.3450 C   0  0  2  0  0  3  0  0  0  0  0  0
  184.9990  178.8180  143.7710 C   0  0  0  0  0  2  0  0  0  0  0  0
  189.9530  177.7630  142.5680 C   0  0  2  0  0  0  0  0  0  0  0  0
  186.5100  178.6640  141.8030 C   0  0  1  0  0  3  0  0  0  0  0  0
  189.5210  177.6460  138.4260 C   0  0  0  0  0  3  0  0  0  0  0  0
  188.3960  177.4150  144.7200 C   0  0  1  0  0  3  0  0  0  0  0  0
  187.6660  179.1630  137.8060 O   0  0  0  0  0  0  0  0  0  0  0  0
  185.0680  178.8770  142.2250 C   0  0  1  0  0  3  0  0  0  0  0  0
  184.2050  177.7660  141.6400 C   0  0  0  0  0  2  0  0  0  0  0  0
  189.6000  178.1020  144.0580 C   0  0  1  0  0  3  0  0  0  0  0  0
  187.1000  177.6630  146.8780 C   0  0  0  0  0  3  0  0  0  0  0  0
  188.3280  177.6510  146.1990 C   0  0  0  0  0  0  0  0  0  0  0  0
  189.5160  177.8340  146.9150 C   0  0  0  0  0  3  0  0  0  0  0  0
  190.6320  178.2190  148.9860 F   0  0  0  0  0  0  0  0  0  0  0  0
  188.2540  178.0550  148.9700 C   0  0  0  0  0  3  0  0  0  0  0  0
  189.4800  178.0380  148.2970 C   0  0  0  0  0  0  0  0  0  0  0  0
  187.0650  177.8670  148.2610 C   0  0  0  0  0  3  0  0  0  0  0  0
  182.4010  178.7440  140.1480 C   0  0  0  0  0  2  0  0  0  0  0  0
  181.2340  177.8080  140.4380 C   0  0  0  0  0  2  0  0  0  0  0  0
  181.3150  176.5850  139.5470 C   0  0  0  0  0  2  0  0  0  0  0  0
  181.0560  176.9700  138.1590 C   0  0  0  0  0  0  0  0  0  0  0  0
  180.8420  177.2850  137.0160 C   0  0  0  0  0  3  0  0  0  0  0  0
  1 33  1  1  0  0  0
  1 24  1  0  0  0  0
  2 22  1  0  0  0  0
  2 20  1  0  0  0  0
  3  8  1  6  0  0  0
  3  6  1  0  0  0  0
  3 18  1  0  0  0  0
  5 10  1  0  0  0  0
  5  8  1  0  0  0  0
  6  9  1  0  0  0  0
  7 14  1  0  0  0  0
  9  4  1  0  0  0  0
  9 21  1  0  0  0  0
 10 15  1  0  0  0  0
 11  8  1  0  0  0  0
 11 19  1  0  0  0  0
 12 16  1  0  0  0  0
 13 25  1  0  0  0  0
 14 16  1  0  0  0  0
 14  1  1  0  0  0  0
 15  3  1  0  0  0  0
 15 18  1  0  0  0  0
 16 11  1  0  0  0  0
 17  4  1  0  0  0  0
 18 13  1  0  0  0  0
 18 25  1  0  0  0  0
 19 23  1  0  0  0  0
 19  6  1  0  0  0  0
 20  5  2  0  0  0  0
 21 27  1  0  0  0  0
 22 12  1  0  0  0  0
 23 17  1  0  0  0  0
 24 23  1  0  0  0  0
 25 21  1  0  0  0  0
 26 32  1  0  0  0  0
 27 26  2  0  0  0  0
 27 28  1  0  0  0  0
 28 31  2  0  0  0  0
 31 30  1  0  0  0  0
 31 29  1  0  0  0  0
 32 30  2  0  0  0  0
 33 34  1  0  0  0  0
 35 34  1  0  0  0  0
 36 35  1  0  0  0  0
 37 36  3  0  0  0  0
M  END
>  <MODEL>
5

>  <REMARK>
 VINA RESULT:      -8.3      3.560      6.855
  Name = 
  5 active torsions:
  status: ('A' for Active; 'I' for Inactive)
    1  A    between atoms: C_1  and  C_5
    2  A    between atoms: C_5  and  C_17
    3  A    between atoms: C_6  and  C_31
    4  A    between atoms: C_11  and  C_26
    5  A    between atoms: C_17  and  C_26
                            x       y       z     vdW  Elec       q    Type
                         _______ _______ _______ _____ _____    ______ ____

>  <TORSDO>
F 5

$$$$
=
 OpenBabel10272415003D

 37 45  0  0  1  0  0  0  0  0999 V2000
  189.3020  177.4010  141.3500 C   0  0  1  0  0  3  0  0  0  0  0  0
  186.7740  178.3400  136.0990 C   0  0  0  0  0  2  0  0  0  0  0  0
  190.6840  176.1700  136.5910 C   0  0  2  0  0  0  0  0  0  0  0  0
  193.4820  176.7480  138.6930 N   0  0  0  0  0  2  0  0  0  0  0  0
  188.5160  176.4870  135.9260 C   0  0  0  0  0  0  0  0  0  0  0  0
  191.2380  175.9340  137.9700 C   0  0  1  0  0  3  0  0  0  0  0  0
  187.3340  178.6290  140.7660 O   0  0  0  0  0  1  0  0  0  0  0  0
  189.5650  177.0960  136.6710 N   0  0  0  0  0  0  0  0  0  0  0  0
  192.7320  175.6330  138.0880 C   0  0  1  0  0  3  0  0  0  0  0  0
  188.9250  175.2700  135.4200 O   0  0  0  0  0  0  0  0  0  0  0  0
  189.5860  177.7660  137.9870 C   0  0  1  0  0  3  0  0  0  0  0  0
  187.0530  177.7350  138.2810 C   0  0  0  0  0  2  0  0  0  0  0  0
  192.2200  174.8020  134.6710 C   0  0  0  0  0  2  0  0  0  0  0  0
  188.5660  178.2000  140.2580 C   0  0  2  0  0  3  0  0  0  0  0  0
  190.2470  174.9560  135.8560 C   0  0  1  0  0  3  0  0  0  0  0  0
  188.4050  177.4160  138.9320 C   0  0  2  0  0  3  0  0  0  0  0  0
  192.9090  177.0310  140.0250 C   0  0  0  0  0  2  0  0  0  0  0  0
  191.3030  175.9050  135.2030 C   0  0  2  0  0  0  0  0  0  0  0  0
  190.9280  177.2970  138.5460 C   0  0  1  0  0  3  0  0  0  0  0  0
  187.3080  176.9940  135.6640 C   0  0  0  0  0  3  0  0  0  0  0  0
  193.3210  175.1120  136.7760 C   0  0  1  0  0  3  0  0  0  0  0  0
  187.1950  178.7890  137.3660 O   0  0  0  0  0  0  0  0  0  0  0  0
  191.4390  177.5140  139.9580 C   0  0  1  0  0  3  0  0  0  0  0  0
  190.5960  176.6960  140.9280 C   0  0  0  0  0  2  0  0  0  0  0  0
  192.8380  175.8440  135.5130 C   0  0  1  0  0  3  0  0  0  0  0  0
  195.4150  174.0960  137.7660 C   0  0  0  0  0  3  0  0  0  0  0  0
  194.8090  174.9290  136.8130 C   0  0  0  0  0  0  0  0  0  0  0  0
  195.6000  175.5820  135.8610 C   0  0  0  0  0  3  0  0  0  0  0  0
  197.7490  176.0500  134.9440 F   0  0  0  0  0  0  0  0  0  0  0  0
  197.5890  174.5860  136.8190 C   0  0  0  0  0  3  0  0  0  0  0  0
  196.9870  175.4130  135.8650 C   0  0  0  0  0  0  0  0  0  0  0  0
  196.8030  173.9270  137.7680 C   0  0  0  0  0  3  0  0  0  0  0  0
  189.4940  178.2140  142.6360 C   0  0  0  0  0  2  0  0  0  0  0  0
  189.2900  177.3870  143.8980 C   0  0  0  0  0  2  0  0  0  0  0  0
  188.0020  176.5940  143.8000 C   0  0  0  0  0  2  0  0  0  0  0  0
  186.8950  177.3870  144.3360 C   0  0  0  0  0  0  0  0  0  0  0  0
  185.9820  178.0390  144.7770 C   0  0  0  0  0  3  0  0  0  0  0  0
  1 33  1  1  0  0  0
  2 22  1  0  0  0  0
  3  8  1  6  0  0  0
  3  6  1  0  0  0  0
  4 17  1  0  0  0  0
  5  8  1  0  0  0  0
  6  9  1  0  0  0  0
  6 19  1  0  0  0  0
  8 11  1  0  0  0  0
  9  4  1  0  0  0  0
 10 15  1  0  0  0  0
 10  5  1  0  0  0  0
 11 19  1  0  0  0  0
 11 16  1  0  0  0  0
 12 16  1  0  0  0  0
 13 18  1  0  0  0  0
 13 25  1  0  0  0  0
 14  7  1  0  0  0  0
 14  1  1  0  0  0  0
 15  3  1  0  0  0  0
 16 14  1  0  0  0  0
 18 25  1  0  0  0  0
 18 15  1  0  0  0  0
 18  3  1  0  0  0  0
 19 23  1  0  0  0  0
 20  5  2  0  0  0  0
 20  2  1  0  0  0  0
 21 27  1  0  0  0  0
 21  9  1  0  0  0  0
 22 12  1  0  0  0  0
 23 17  1  0  0  0  0
 23 24  1  0  0  0  0
 24  1  1  0  0  0  0
 25 21  1  0  0  0  0
 26 32  1  0  0  0  0
 27 26  2  0  0  0  0
 28 31  2  0  0  0  0
 28 27  1  0  0  0  0
 29 31  1  0  0  0  0
 30 32  2  0  0  0  0
 31 30  1  0  0  0  0
 33 34  1  0  0  0  0
 35 34  1  0  0  0  0
 35 36  1  0  0  0  0
 36 37  3  0  0  0  0
M  END
>  <MODEL>
6

>  <REMARK>
 VINA RESULT:      -8.2      4.355      7.512
  Name = 
  5 active torsions:
  status: ('A' for Active; 'I' for Inactive)
    1  A    between atoms: C_1  and  C_5
    2  A    between atoms: C_5  and  C_17
    3  A    between atoms: C_6  and  C_31
    4  A    between atoms: C_11  and  C_26
    5  A    between atoms: C_17  and  C_26
                            x       y       z     vdW  Elec       q    Type
                         _______ _______ _______ _____ _____    ______ ____

>  <TORSDO>
F 5

$$$$
=
 OpenBabel10272415003D

 37 45  0  0  1  0  0  0  0  0999 V2000
  187.8890  177.3280  143.3070 C   0  0  1  0  0  3  0  0  0  0  0  0
  184.4880  179.5270  139.0120 C   0  0  0  0  0  2  0  0  0  0  0  0
  188.2020  177.1160  138.2150 C   0  0  2  0  0  0  0  0  0  0  0  0
  191.3950  177.0780  139.7570 N   0  0  0  0  0  2  0  0  0  0  0  0
  185.9840  177.6770  138.0990 C   0  0  0  0  0  0  0  0  0  0  0  0
  188.9880  176.5540  139.3670 C   0  0  1  0  0  3  0  0  0  0  0  0
  185.9680  178.7490  143.4150 O   0  0  0  0  0  1  0  0  0  0  0  0
  187.2100  178.0540  138.7170 N   0  0  0  0  0  0  0  0  0  0  0  0
  190.4430  176.1620  139.1050 C   0  0  1  0  0  3  0  0  0  0  0  0
  186.1730  176.5830  137.2780 O   0  0  0  0  0  0  0  0  0  0  0  0
  187.5470  178.4140  140.1090 C   0  0  1  0  0  3  0  0  0  0  0  0
  185.1280  178.4410  140.9140 C   0  0  0  0  0  2  0  0  0  0  0  0
  189.2020  176.1340  135.7750 C   0  0  0  0  0  2  0  0  0  0  0  0
  187.0330  178.3830  142.5820 C   0  0  2  0  0  3  0  0  0  0  0  0
  187.5190  176.1180  137.3530 C   0  0  1  0  0  3  0  0  0  0  0  0
  186.5450  177.9210  141.1870 C   0  0  2  0  0  3  0  0  0  0  0  0
  191.1200  177.0870  141.2080 C   0  0  0  0  0  2  0  0  0  0  0  0
  188.5120  177.1350  136.7040 C   0  0  2  0  0  0  0  0  0  0  0  0
  188.9240  177.7690  140.2650 C   0  0  1  0  0  3  0  0  0  0  0  0
  184.8010  178.2870  138.2060 C   0  0  0  0  0  3  0  0  0  0  0  0
  190.7150  175.9170  137.6200 C   0  0  1  0  0  3  0  0  0  0  0  0
  185.1860  179.6630  140.2280 O   0  0  0  0  0  0  0  0  0  0  0  0
  189.7160  177.6430  141.5530 C   0  0  1  0  0  3  0  0  0  0  0  0
  189.0060  176.6730  142.4870 C   0  0  0  0  0  2  0  0  0  0  0  0
  190.0660  176.9330  136.6660 C   0  0  1  0  0  3  0  0  0  0  0  0
  192.7990  174.4900  137.7450 C   0  0  0  0  0  3  0  0  0  0  0  0
  192.1580  175.6590  137.3060 C   0  0  0  0  0  0  0  0  0  0  0  0
  192.8660  176.5900  136.5390 C   0  0  0  0  0  3  0  0  0  0  0  0
  194.8890  177.2690  135.4780 F   0  0  0  0  0  0  0  0  0  0  0  0
  194.8450  175.2000  136.6610 C   0  0  0  0  0  3  0  0  0  0  0  0
  194.2070  176.3630  136.2190 C   0  0  0  0  0  0  0  0  0  0  0  0
  194.1410  174.2640  137.4230 C   0  0  0  0  0  3  0  0  0  0  0  0
  188.4010  177.8260  144.6640 C   0  0  0  0  0  2  0  0  0  0  0  0
  189.6660  177.1120  145.1210 C   0  0  0  0  0  2  0  0  0  0  0  0
  189.8570  177.2950  146.6130 C   0  0  0  0  0  2  0  0  0  0  0  0
  191.0250  176.5340  147.0560 C   0  0  0  0  0  0  0  0  0  0  0  0
  191.9880  175.9080  147.4220 C   0  0  0  0  0  3  0  0  0  0  0  0
  1 33  1  1  0  0  0
  2 22  1  0  0  0  0
  3  8  1  1  0  0  0
  3  6  1  0  0  0  0
  4 17  1  0  0  0  0
  5 20  2  0  0  0  0
  5  8  1  0  0  0  0
  6 19  1  0  0  0  0
  8 11  1  0  0  0  0
  9  6  1  0  0  0  0
  9  4  1  0  0  0  0
 10 15  1  0  0  0  0
 10  5  1  0  0  0  0
 11 19  1  0  0  0  0
 11 16  1  0  0  0  0
 12 16  1  0  0  0  0
 13 25  1  0  0  0  0
 13 18  1  0  0  0  0
 14  1  1  0  0  0  0
 14  7  1  0  0  0  0
 15  3  1  0  0  0  0
 16 14  1  0  0  0  0
 17 23  1  0  0  0  0
 18 15  1  0  0  0  0
 18  3  1  0  0  0  0
 19 23  1  0  0  0  0
 20  2  1  0  0  0  0
 21  9  1  0  0  0  0
 22 12  1  0  0  0  0
 23 24  1  0  0  0  0
 24  1  1  0  0  0  0
 25 18  1  0  0  0  0
 25 21  1  0  0  0  0
 27 21  1  0  0  0  0
 27 26  2  0  0  0  0
 28 27  1  0  0  0  0
 29 31  1  0  0  0  0
 30 32  2  0  0  0  0
 31 28  2  0  0  0  0
 31 30  1  0  0  0  0
 32 26  1  0  0  0  0
 33 34  1  0  0  0  0
 34 35  1  0  0  0  0
 35 36  1  0  0  0  0
 36 37  3  0  0  0  0
M  END
>  <MODEL>
7

>  <REMARK>
 VINA RESULT:      -8.2      3.240      6.420
  Name = 
  5 active torsions:
  status: ('A' for Active; 'I' for Inactive)
    1  A    between atoms: C_1  and  C_5
    2  A    between atoms: C_5  and  C_17
    3  A    between atoms: C_6  and  C_31
    4  A    between atoms: C_11  and  C_26
    5  A    between atoms: C_17  and  C_26
                            x       y       z     vdW  Elec       q    Type
                         _______ _______ _______ _____ _____    ______ ____

>  <TORSDO>
F 5

$$$$
=
 OpenBabel10272415003D

 37 45  0  0  1  0  0  0  0  0999 V2000
  189.9040  176.9670  139.4300 C   0  0  1  0  0  3  0  0  0  0  0  0
  191.8150  178.2330  144.8710 C   0  0  0  0  0  2  0  0  0  0  0  0
  187.4550  177.9210  143.8070 C   0  0  2  0  0  0  0  0  0  0  0  0
  185.6100  178.9970  140.9760 N   0  0  0  0  0  2  0  0  0  0  0  0
  189.3890  177.4540  144.9410 C   0  0  0  0  0  0  0  0  0  0  0  0
  187.0530  177.5500  142.4060 C   0  0  1  0  0  3  0  0  0  0  0  0
  192.1180  177.3400  140.2570 O   0  0  0  0  0  1  0  0  0  0  0  0
  188.8810  178.2040  143.8430 N   0  0  0  0  0  0  0  0  0  0  0  0
  185.6330  177.9020  141.9620 C   0  0  1  0  0  3  0  0  0  0  0  0
  188.3760  176.7420  145.5510 O   0  0  0  0  0  0  0  0  0  0  0  0
  189.3700  178.3960  142.4630 C   0  0  1  0  0  3  0  0  0  0  0  0
  191.5840  177.1910  142.8540 C   0  0  0  0  0  2  0  0  0  0  0  0
  185.1990  177.9840  145.4890 C   0  0  0  0  0  2  0  0  0  0  0  0
  190.7750  177.6540  140.4980 C   0  0  2  0  0  3  0  0  0  0  0  0
  187.1420  176.9150  144.8550 C   0  0  1  0  0  3  0  0  0  0  0  0
  190.3510  177.3090  141.9470 C   0  0  2  0  0  3  0  0  0  0  0  0
  186.4260  178.5970  139.8120 C   0  0  0  0  0  2  0  0  0  0  0  0
  186.5990  178.3720  145.0100 C   0  0  2  0  0  0  0  0  0  0  0  0
  188.0600  178.4080  141.6760 C   0  0  1  0  0  3  0  0  0  0  0  0
  190.6410  177.4440  145.4060 C   0  0  0  0  0  3  0  0  0  0  0  0
  184.6900  178.1000  143.1510 C   0  0  1  0  0  3  0  0  0  0  0  0
  191.8450  178.4210  143.4750 O   0  0  0  0  0  0  0  0  0  0  0  0
  187.9210  178.3960  140.1640 C   0  0  1  0  0  3  0  0  0  0  0  0
  188.3870  177.0480  139.6290 C   0  0  0  0  0  2  0  0  0  0  0  0
  185.2860  178.8900  144.3260 C   0  0  1  0  0  3  0  0  0  0  0  0
  182.4480  179.1280  143.7100 C   0  0  0  0  0  3  0  0  0  0  0  0
  183.3220  178.5740  142.7620 C   0  0  0  0  0  0  0  0  0  0  0  0
  182.9240  178.4840  141.4240 C   0  0  0  0  0  3  0  0  0  0  0  0
  181.2780  178.8430  139.7380 F   0  0  0  0  0  0  0  0  0  0  0  0
  180.7890  179.4830  141.9820 C   0  0  0  0  0  3  0  0  0  0  0  0
  181.6600  178.9350  141.0350 C   0  0  0  0  0  0  0  0  0  0  0  0
  181.1840  179.5800  143.3190 C   0  0  0  0  0  3  0  0  0  0  0  0
  190.3110  177.3620  138.0060 C   0  0  0  0  0  2  0  0  0  0  0  0
  189.8730  176.3470  136.9590 C   0  0  0  0  0  2  0  0  0  0  0  0
  189.4250  177.0600  135.6980 C   0  0  0  0  0  2  0  0  0  0  0  0
  188.2300  177.8550  135.9820 C   0  0  0  0  0  0  0  0  0  0  0  0
  187.2450  178.5090  136.2170 C   0  0  0  0  0  3  0  0  0  0  0  0
  1 33  1  6  0  0  0
  1 24  1  0  0  0  0
  1 14  1  0  0  0  0
  2 20  1  0  0  0  0
  3  8  1  1  0  0  0
  3 15  1  0  0  0  0
  3 18  1  0  0  0  0
  4  9  1  0  0  0  0
  5 20  2  0  0  0  0
  5 10  1  0  0  0  0
  6  3  1  0  0  0  0
  7 14  1  0  0  0  0
  8  5  1  0  0  0  0
  9  6  1  0  0  0  0
  9 21  1  0  0  0  0
 11  8  1  0  0  0  0
 12 22  1  0  0  0  0
 14 16  1  0  0  0  0
 15 18  1  0  0  0  0
 15 10  1  0  0  0  0
 16 11  1  0  0  0  0
 16 12  1  0  0  0  0
 17 23  1  0  0  0  0
 17  4  1  0  0  0  0
 18 13  1  0  0  0  0
 19  6  1  0  0  0  0
 19 11  1  0  0  0  0
 21 25  1  0  0  0  0
 22  2  1  0  0  0  0
 23 19  1  0  0  0  0
 24 23  1  0  0  0  0
 25 18  1  0  0  0  0
 25 13  1  0  0  0  0
 27 21  1  0  0  0  0
 27 26  2  0  0  0  0
 28 27  1  0  0  0  0
 29 31  1  0  0  0  0
 30 32  2  0  0  0  0
 31 28  2  0  0  0  0
 31 30  1  0  0  0  0
 32 26  1  0  0  0  0
 34 33  1  0  0  0  0
 35 36  1  0  0  0  0
 35 34  1  0  0  0  0
 36 37  3  0  0  0  0
M  END
>  <MODEL>
8

>  <REMARK>
 VINA RESULT:      -8.1      2.123      6.595
  Name = 
  5 active torsions:
  status: ('A' for Active; 'I' for Inactive)
    1  A    between atoms: C_1  and  C_5
    2  A    between atoms: C_5  and  C_17
    3  A    between atoms: C_6  and  C_31
    4  A    between atoms: C_11  and  C_26
    5  A    between atoms: C_17  and  C_26
                            x       y       z     vdW  Elec       q    Type
                         _______ _______ _______ _____ _____    ______ ____

>  <TORSDO>
F 5

$$$$
=
 OpenBabel10272415003D

 37 45  0  0  1  0  0  0  0  0999 V2000
  189.8560  176.9540  139.3590 C   0  0  1  0  0  3  0  0  0  0  0  0
  191.8220  178.2390  144.7760 C   0  0  0  0  0  2  0  0  0  0  0  0
  187.4510  177.9280  143.7560 C   0  0  2  0  0  0  0  0  0  0  0  0
  185.5790  178.9950  140.9390 N   0  0  0  0  0  2  0  0  0  0  0  0
  189.3960  177.4640  144.8720 C   0  0  0  0  0  0  0  0  0  0  0  0
  187.0350  177.5520  142.3610 C   0  0  1  0  0  3  0  0  0  0  0  0
  192.0790  177.3280  140.1620 O   0  0  0  0  0  1  0  0  0  0  0  0
  188.8770  178.2100  143.7770 N   0  0  0  0  0  0  0  0  0  0  0  0
  185.6110  177.9040  141.9290 C   0  0  1  0  0  3  0  0  0  0  0  0
  188.3880  176.7560  145.4950 O   0  0  0  0  0  0  0  0  0  0  0  0
  189.3530  178.3960  142.3920 C   0  0  1  0  0  3  0  0  0  0  0  0
  191.5690  177.1900  142.7650 C   0  0  0  0  0  2  0  0  0  0  0  0
  185.2120  178.0000  145.4600 C   0  0  0  0  0  2  0  0  0  0  0  0
  190.7380  177.6450  140.4160 C   0  0  2  0  0  3  0  0  0  0  0  0
  187.1480  176.9270  144.8110 C   0  0  1  0  0  3  0  0  0  0  0  0
  190.3280  177.3060  141.8700 C   0  0  2  0  0  3  0  0  0  0  0  0
  186.3840  178.5900  139.7680 C   0  0  0  0  0  2  0  0  0  0  0  0
  186.6080  178.3860  144.9650 C   0  0  2  0  0  0  0  0  0  0  0  0
  188.0360  178.4070  141.6170 C   0  0  1  0  0  3  0  0  0  0  0  0
  190.6530  177.4540  145.3250 C   0  0  0  0  0  3  0  0  0  0  0  0
  184.6800  178.1080  143.1260 C   0  0  1  0  0  3  0  0  0  0  0  0
  191.8380  178.4220  143.3790 O   0  0  0  0  0  0  0  0  0  0  0  0
  187.8810  178.3880  140.1070 C   0  0  1  0  0  3  0  0  0  0  0  0
  188.3410  177.0380  139.5720 C   0  0  0  0  0  2  0  0  0  0  0  0
  185.2890  178.9010  144.2930 C   0  0  1  0  0  3  0  0  0  0  0  0
  182.4370  179.1230  143.7080 C   0  0  0  0  0  3  0  0  0  0  0  0
  183.3090  178.5820  142.7490 C   0  0  0  0  0  0  0  0  0  0  0  0
  182.9050  178.5060  141.4120 C   0  0  0  0  0  3  0  0  0  0  0  0
  181.2500  178.8790  139.7380 F   0  0  0  0  0  0  0  0  0  0  0  0
  180.7700  179.4910  141.9910 C   0  0  0  0  0  3  0  0  0  0  0  0
  181.6370  178.9570  141.0340 C   0  0  0  0  0  0  0  0  0  0  0  0
  181.1700  179.5750  143.3270 C   0  0  0  0  0  3  0  0  0  0  0  0
  190.2490  177.3440  137.9290 C   0  0  0  0  0  2  0  0  0  0  0  0
  190.2400  176.1630  136.9680 C   0  0  0  0  0  2  0  0  0  0  0  0
  190.7660  174.9220  137.6610 C   0  0  0  0  0  2  0  0  0  0  0  0
  192.2290  174.9210  137.6230 C   0  0  0  0  0  0  0  0  0  0  0  0
  193.4340  174.9200  137.5930 C   0  0  0  0  0  3  0  0  0  0  0  0
  1 33  1  6  0  0  0
  1 24  1  0  0  0  0
  1 14  1  0  0  0  0
  2 20  1  0  0  0  0
  3  8  1  1  0  0  0
  3 15  1  0  0  0  0
  3 18  1  0  0  0  0
  4  9  1  0  0  0  0
  5 20  2  0  0  0  0
  5 10  1  0  0  0  0
  6  3  1  0  0  0  0
  7 14  1  0  0  0  0
  8  5  1  0  0  0  0
  9  6  1  0  0  0  0
  9 21  1  0  0  0  0
 11  8  1  0  0  0  0
 12 22  1  0  0  0  0
 14 16  1  0  0  0  0
 15 18  1  0  0  0  0
 15 10  1  0  0  0  0
 16 11  1  0  0  0  0
 16 12  1  0  0  0  0
 17 23  1  0  0  0  0
 17  4  1  0  0  0  0
 18 13  1  0  0  0  0
 19  6  1  0  0  0  0
 19 11  1  0  0  0  0
 21 25  1  0  0  0  0
 22  2  1  0  0  0  0
 23 19  1  0  0  0  0
 24 23  1  0  0  0  0
 25 18  1  0  0  0  0
 25 13  1  0  0  0  0
 27 21  1  0  0  0  0
 27 26  2  0  0  0  0
 28 27  1  0  0  0  0
 29 31  1  0  0  0  0
 30 32  2  0  0  0  0
 31 28  2  0  0  0  0
 31 30  1  0  0  0  0
 32 26  1  0  0  0  0
 34 35  1  0  0  0  0
 34 33  1  0  0  0  0
 36 35  1  0  0  0  0
 37 36  3  0  0  0  0
M  END
>  <MODEL>
9

>  <REMARK>
 VINA RESULT:      -8.0      2.302      6.942
  Name = 
  5 active torsions:
  status: ('A' for Active; 'I' for Inactive)
    1  A    between atoms: C_1  and  C_5
    2  A    between atoms: C_5  and  C_17
    3  A    between atoms: C_6  and  C_31
    4  A    between atoms: C_11  and  C_26
    5  A    between atoms: C_17  and  C_26
                            x       y       z     vdW  Elec       q    Type
                         _______ _______ _______ _____ _____    ______ ____

>  <TORSDO>
F 5

$$$$
