=
 OpenBabel10272413383D

 32 38  0  0  1  0  0  0  0  0999 V2000
  190.0490  176.7330  145.4070 C   0  0  0  0  0  0  0  0  0  0  0  0
  190.4210  177.4040  140.8910 C   0  0  2  0  0  3  0  0  0  0  0  0
  186.7040  178.3950  141.8780 C   0  0  0  0  0  2  0  0  0  0  0  0
  190.4260  176.4210  138.5600 C   0  0  0  0  0  0  0  0  0  0  0  0
  189.9970  176.4090  137.1510 C   0  0  0  0  0  0  0  0  0  0  0  0
  191.5200  177.5580  143.0350 C   0  0  1  0  0  3  0  0  0  0  0  0
  189.6760  179.1340  142.5710 O   0  0  0  0  0  0  0  0  0  0  0  0
  189.2620  176.4710  134.4480 C   0  0  0  0  0  3  0  0  0  0  0  0
  189.2190  177.5010  144.4070 C   0  0  0  0  0  2  0  0  0  0  0  0
  187.6170  178.7780  140.7500 C   0  0  1  0  0  3  0  0  0  0  0  0
  189.4030  177.9290  141.8750 C   0  0  1  0  0  0  0  0  0  0  0  0
  187.9540  177.5780  141.6240 C   0  0  1  0  0  3  0  0  0  0  0  0
  189.0920  178.5580  138.8570 C   0  0  2  0  0  3  0  0  0  0  0  0
  189.8700  175.3320  134.9810 C   0  0  0  0  0  3  0  0  0  0  0  0
  191.2060  176.1420  145.0540 C   0  0  0  0  0  3  0  0  0  0  0  0
  190.0440  177.9220  143.1910 C   0  0  2  0  0  0  0  0  0  0  0  0
  190.2410  175.3000  136.3280 C   0  0  0  0  0  3  0  0  0  0  0  0
  191.7340  176.1780  143.6460 C   0  0  0  0  0  2  0  0  0  0  0  0
  187.6870  178.1640  139.3750 C   0  0  2  0  0  3  0  0  0  0  0  0
  189.1020  178.6500  137.4300 O   0  0  0  0  0  0  0  0  0  0  0  0
  191.7940  177.5260  141.5280 C   0  0  0  0  0  2  0  0  0  0  0  0
  190.9700  175.3980  139.0610 O   0  0  0  0  0  0  0  0  0  0  0  0
  189.0130  177.5790  135.2650 C   0  0  0  0  0  3  0  0  0  0  0  0
  190.2900  177.6890  139.3700 C   0  0  1  0  0  3  0  0  0  0  0  0
  189.3690  177.5460  136.6160 C   0  0  0  0  0  0  0  0  0  0  0  0
  185.9640  177.6410  138.0910 C   0  0  0  0  0  1  0  0  0  0  0  0
  186.6920  178.7290  138.5740 O   0  0  0  0  0  0  0  0  0  0  0  0
  189.5710  176.6520  146.7190 O   0  0  0  0  0  0  0  0  0  0  0  0
  189.5470  177.7630  147.6070 C   0  0  0  0  0  2  0  0  0  0  0  0
  188.1700  177.9480  148.1370 C   0  0  0  0  0  0  0  0  0  0  0  0
  187.9760  177.9960  149.3800 O   0  0  0  0  0  0  0  0  0  0  0  0
  187.0670  178.0280  147.2430 N   0  0  0  0  0  1  0  0  0  0  0  0
  1 28  1  0  0  0  0
  2 21  1  1  0  0  0
  2 11  1  0  0  0  0
  4 22  2  0  0  0  0
  5  4  1  0  0  0  0
  6 21  1  6  0  0  0
  6 16  1  0  0  0  0
  6 18  1  0  0  0  0
  7 16  1  0  0  0  0
  8 14  2  0  0  0  0
  8 23  1  0  0  0  0
  9  1  1  0  0  0  0
 10 12  1  0  0  0  0
 10  3  1  1  0  0  0
 11  7  1  6  0  0  0
 11 16  1  0  0  0  0
 12 11  1  0  0  0  0
 12  3  1  1  0  0  0
 13 20  1  6  0  0  0
 13 24  1  0  0  0  0
 13 19  1  0  0  0  0
 14 17  1  0  0  0  0
 15  1  2  0  0  0  0
 16  9  1  1  0  0  0
 17  5  2  0  0  0  0
 18 15  1  0  0  0  0
 19 27  1  6  0  0  0
 19 10  1  0  0  0  0
 23 25  2  0  0  0  0
 24  4  1  6  0  0  0
 24  2  1  0  0  0  0
 25  5  1  0  0  0  0
 25 20  1  0  0  0  0
 26 27  1  0  0  0  0
 28 29  1  0  0  0  0
 29 30  1  0  0  0  0
 30 31  2  0  0  0  0
 32 30  1  0  0  0  0
M  END
>  <MODEL>
1

>  <REMARK>
 VINA RESULT:      -8.3      0.000      0.000
  Name = 
  4 active torsions:
  status: ('A' for Active; 'I' for Inactive)
    1  A    between atoms: C_1  and  C_10
    2  A    between atoms: C_2  and  O_24
    3  A    between atoms: C_10  and  O_24
    4  A    between atoms: O_25  and  C_26
                            x       y       z     vdW  Elec       q    Type
                         _______ _______ _______ _____ _____    ______ ____

>  <TORSDO>
F 4

$$$$
=
 OpenBabel10272413383D

 32 38  0  0  1  0  0  0  0  0999 V2000
  190.4400  176.6780  145.1930 C   0  0  0  0  0  0  0  0  0  0  0  0
  190.1740  177.4540  140.6870 C   0  0  2  0  0  3  0  0  0  0  0  0
  186.6160  178.3600  142.2000 C   0  0  0  0  0  2  0  0  0  0  0  0
  189.8700  176.5220  138.3540 C   0  0  0  0  0  0  0  0  0  0  0  0
  189.2500  176.5340  137.0170 C   0  0  0  0  0  0  0  0  0  0  0  0
  191.5570  177.5800  142.6610 C   0  0  1  0  0  3  0  0  0  0  0  0
  189.6450  179.1340  142.4940 O   0  0  0  0  0  0  0  0  0  0  0  0
  188.1470  176.6430  134.4440 C   0  0  0  0  0  3  0  0  0  0  0  0
  189.4690  177.4540  144.3360 C   0  0  0  0  0  2  0  0  0  0  0  0
  187.3600  178.7830  140.9660 C   0  0  1  0  0  3  0  0  0  0  0  0
  189.2950  177.9400  141.8140 C   0  0  1  0  0  0  0  0  0  0  0  0
  187.8300  177.5710  141.7570 C   0  0  1  0  0  3  0  0  0  0  0  0
  188.5610  178.6300  138.8840 C   0  0  2  0  0  3  0  0  0  0  0  0
  188.8390  175.5020  134.8610 C   0  0  0  0  0  3  0  0  0  0  0  0
  191.5450  176.1140  144.6690 C   0  0  0  0  0  3  0  0  0  0  0  0
  190.1120  177.9160  143.0280 C   0  0  2  0  0  0  0  0  0  0  0  0
  189.3930  175.4470  136.1430 C   0  0  0  0  0  3  0  0  0  0  0  0
  191.8720  176.1900  143.2040 C   0  0  0  0  0  2  0  0  0  0  0  0
  187.2470  178.2010  139.5800 C   0  0  2  0  0  3  0  0  0  0  0  0
  188.3720  178.7530  137.4710 O   0  0  0  0  0  0  0  0  0  0  0  0
  191.6210  177.5850  141.1300 C   0  0  0  0  0  2  0  0  0  0  0  0
  190.4920  175.4980  138.7510 O   0  0  0  0  0  0  0  0  0  0  0  0
  187.9990  177.7280  135.3140 C   0  0  0  0  0  3  0  0  0  0  0  0
  189.8300  177.7700  139.2060 C   0  0  1  0  0  3  0  0  0  0  0  0
  188.5390  177.6720  136.6020 C   0  0  0  0  0  0  0  0  0  0  0  0
  185.3720  177.6770  138.5300 C   0  0  0  0  0  1  0  0  0  0  0  0
  186.1430  178.7670  138.9380 O   0  0  0  0  0  0  0  0  0  0  0  0
  190.1490  176.5610  146.5560 O   0  0  0  0  0  0  0  0  0  0  0  0
  190.9790  177.1030  147.5770 C   0  0  0  0  0  2  0  0  0  0  0  0
  191.9920  176.0940  147.9840 C   0  0  0  0  0  0  0  0  0  0  0  0
  191.8050  174.8750  147.7290 O   0  0  0  0  0  0  0  0  0  0  0  0
  193.1520  176.4990  148.6990 N   0  0  0  0  0  1  0  0  0  0  0  0
  1 28  1  0  0  0  0
  2 21  1  1  0  0  0
  2 11  1  0  0  0  0
  4 22  2  0  0  0  0
  5  4  1  0  0  0  0
  6 21  1  6  0  0  0
  6 16  1  0  0  0  0
  6 18  1  0  0  0  0
  7 16  1  0  0  0  0
  8 14  2  0  0  0  0
  8 23  1  0  0  0  0
  9  1  1  0  0  0  0
 10 12  1  0  0  0  0
 10  3  1  1  0  0  0
 11  7  1  6  0  0  0
 11 16  1  0  0  0  0
 12 11  1  0  0  0  0
 12  3  1  1  0  0  0
 13 20  1  6  0  0  0
 13 24  1  0  0  0  0
 13 19  1  0  0  0  0
 14 17  1  0  0  0  0
 15  1  2  0  0  0  0
 16  9  1  1  0  0  0
 17  5  2  0  0  0  0
 18 15  1  0  0  0  0
 19 27  1  6  0  0  0
 19 10  1  0  0  0  0
 23 25  2  0  0  0  0
 24  4  1  6  0  0  0
 24  2  1  0  0  0  0
 25  5  1  0  0  0  0
 25 20  1  0  0  0  0
 26 27  1  0  0  0  0
 28 29  1  0  0  0  0
 29 30  1  0  0  0  0
 30 32  1  0  0  0  0
 31 30  2  0  0  0  0
M  END
>  <MODEL>
2

>  <REMARK>
 VINA RESULT:      -7.2      1.561      1.764
  Name = 
  4 active torsions:
  status: ('A' for Active; 'I' for Inactive)
    1  A    between atoms: C_1  and  C_10
    2  A    between atoms: C_2  and  O_24
    3  A    between atoms: C_10  and  O_24
    4  A    between atoms: O_25  and  C_26
                            x       y       z     vdW  Elec       q    Type
                         _______ _______ _______ _____ _____    ______ ____

>  <TORSDO>
F 4

$$$$
=
 OpenBabel10272413383D

 32 38  0  0  1  0  0  0  0  0999 V2000
  191.1310  176.4900  137.3090 C   0  0  0  0  0  0  0  0  0  0  0  0
  186.8730  177.9430  138.1640 C   0  0  2  0  0  3  0  0  0  0  0  0
  188.8330  178.0950  141.6150 C   0  0  0  0  0  2  0  0  0  0  0  0
  184.4500  177.3700  138.6110 C   0  0  0  0  0  0  0  0  0  0  0  0
  183.1960  177.5130  139.3720 C   0  0  0  0  0  0  0  0  0  0  0  0
  188.7080  177.9360  136.5960 C   0  0  1  0  0  3  0  0  0  0  0  0
  188.9870  179.2180  138.6870 O   0  0  0  0  0  0  0  0  0  0  0  0
  180.7910  177.8860  140.7590 C   0  0  0  0  0  3  0  0  0  0  0  0
  190.5140  177.2540  138.4540 C   0  0  0  0  0  2  0  0  0  0  0  0
  187.6310  178.8100  141.0690 C   0  0  1  0  0  3  0  0  0  0  0  0
  188.1420  178.1150  138.9650 C   0  0  1  0  0  0  0  0  0  0  0  0
  188.1510  177.5610  140.3720 C   0  0  1  0  0  3  0  0  0  0  0  0
  185.4550  179.1640  140.0970 C   0  0  2  0  0  3  0  0  0  0  0  0
  180.9370  176.7990  139.8930 C   0  0  0  0  0  3  0  0  0  0  0  0
  190.4210  176.1760  136.2090 C   0  0  0  0  0  3  0  0  0  0  0  0
  189.2550  178.0060  138.0210 C   0  0  2  0  0  0  0  0  0  0  0  0
  182.1350  176.6130  139.1980 C   0  0  0  0  0  3  0  0  0  0  0  0
  188.9690  176.5330  136.0580 C   0  0  0  0  0  2  0  0  0  0  0  0
  186.1790  178.4500  141.2640 C   0  0  2  0  0  3  0  0  0  0  0  0
  184.1090  179.4870  140.4550 O   0  0  0  0  0  0  0  0  0  0  0  0
  187.2020  178.1980  136.7030 C   0  0  0  0  0  2  0  0  0  0  0  0
  184.6030  176.3900  137.8300 O   0  0  0  0  0  0  0  0  0  0  0  0
  181.8470  178.7850  140.9390 C   0  0  0  0  0  3  0  0  0  0  0  0
  185.5070  178.4460  138.7060 C   0  0  1  0  0  3  0  0  0  0  0  0
  183.0520  178.5950  140.2570 C   0  0  0  0  0  0  0  0  0  0  0  0
  185.6720  177.8420  143.3290 C   0  0  0  0  0  1  0  0  0  0  0  0
  185.7480  178.9560  142.4920 O   0  0  0  0  0  0  0  0  0  0  0  0
  192.4730  176.1140  137.4300 O   0  0  0  0  0  0  0  0  0  0  0  0
  192.8890  174.7680  137.6240 C   0  0  0  0  0  2  0  0  0  0  0  0
  194.3730  174.7050  137.6710 C   0  0  0  0  0  0  0  0  0  0  0  0
  195.0590  175.5420  137.0260 O   0  0  0  0  0  0  0  0  0  0  0  0
  195.0200  173.6750  138.4080 N   0  0  0  0  0  1  0  0  0  0  0  0
  1 28  1  0  0  0  0
  1  9  1  0  0  0  0
  2 21  1  6  0  0  0
  2 24  1  0  0  0  0
  2 11  1  0  0  0  0
  4  5  1  0  0  0  0
  5 25  1  0  0  0  0
  6 18  1  1  0  0  0
  6 21  1  0  0  0  0
  6 16  1  0  0  0  0
  8 23  1  0  0  0  0
 10 19  1  0  0  0  0
 10  3  1  1  0  0  0
 11  7  1  1  0  0  0
 11 12  1  0  0  0  0
 12 10  1  0  0  0  0
 12  3  1  1  0  0  0
 13 20  1  1  0  0  0
 13 19  1  0  0  0  0
 14  8  2  0  0  0  0
 15  1  2  0  0  0  0
 16  9  1  1  0  0  0
 16  7  1  0  0  0  0
 16 11  1  0  0  0  0
 17  5  2  0  0  0  0
 17 14  1  0  0  0  0
 18 15  1  0  0  0  0
 19 27  1  1  0  0  0
 22  4  2  0  0  0  0
 24  4  1  1  0  0  0
 24 13  1  0  0  0  0
 25 20  1  0  0  0  0
 25 23  2  0  0  0  0
 27 26  1  0  0  0  0
 28 29  1  0  0  0  0
 29 30  1  0  0  0  0
 30 32  1  0  0  0  0
 31 30  2  0  0  0  0
M  END
>  <MODEL>
3

>  <REMARK>
 VINA RESULT:      -6.8      3.741      7.613
  Name = 
  4 active torsions:
  status: ('A' for Active; 'I' for Inactive)
    1  A    between atoms: C_1  and  C_10
    2  A    between atoms: C_2  and  O_24
    3  A    between atoms: C_10  and  O_24
    4  A    between atoms: O_25  and  C_26
                            x       y       z     vdW  Elec       q    Type
                         _______ _______ _______ _____ _____    ______ ____

>  <TORSDO>
F 4

$$$$
=
 OpenBabel10272413383D

 32 38  0  0  1  0  0  0  0  0999 V2000
  186.2410  176.9540  137.1000 C   0  0  0  0  0  0  0  0  0  0  0  0
  187.4920  178.1750  141.3330 C   0  0  2  0  0  3  0  0  0  0  0  0
  190.6320  176.3690  139.7040 C   0  0  0  0  0  2  0  0  0  0  0  0
  187.4520  177.6900  143.8160 C   0  0  0  0  0  0  0  0  0  0  0  0
  188.1110  177.5480  145.1260 C   0  0  0  0  0  0  0  0  0  0  0  0
  186.2410  178.7870  139.3610 C   0  0  1  0  0  3  0  0  0  0  0  0
  188.7060  178.8000  139.2110 O   0  0  0  0  0  0  0  0  0  0  0  0
  189.3620  177.3960  147.6280 C   0  0  0  0  0  3  0  0  0  0  0  0
  187.5810  177.0880  137.7800 C   0  0  0  0  0  2  0  0  0  0  0  0
  190.4670  177.3740  140.8080 C   0  0  1  0  0  3  0  0  0  0  0  0
  188.3330  177.7950  140.1380 C   0  0  1  0  0  0  0  0  0  0  0  0
  189.2570  176.6070  140.2930 C   0  0  1  0  0  3  0  0  0  0  0  0
  189.6980  178.3780  142.8580 C   0  0  2  0  0  3  0  0  0  0  0  0
  188.0710  176.8890  147.4610 C   0  0  0  0  0  3  0  0  0  0  0  0
  185.0990  177.3100  137.7190 C   0  0  0  0  0  3  0  0  0  0  0  0
  187.5280  178.0720  138.9480 C   0  0  2  0  0  0  0  0  0  0  0  0
  187.4440  176.9660  146.2140 C   0  0  0  0  0  3  0  0  0  0  0  0
  185.0750  177.8320  139.1290 C   0  0  0  0  0  2  0  0  0  0  0  0
  190.3720  177.1070  142.2890 C   0  0  2  0  0  3  0  0  0  0  0  0
  190.0990  178.6040  144.2130 O   0  0  0  0  0  0  0  0  0  0  0  0
  186.3880  179.1010  140.8530 C   0  0  0  0  0  2  0  0  0  0  0  0
  186.2890  177.2310  143.6430 O   0  0  0  0  0  0  0  0  0  0  0  0
  190.0330  177.9740  146.5460 C   0  0  0  0  0  3  0  0  0  0  0  0
  188.1410  178.4620  142.7150 C   0  0  1  0  0  3  0  0  0  0  0  0
  189.4160  178.0400  145.2940 C   0  0  0  0  0  0  0  0  0  0  0  0
  191.6080  175.7900  143.5660 C   0  0  0  0  0  1  0  0  0  0  0  0
  191.6610  176.9600  142.8060 O   0  0  0  0  0  0  0  0  0  0  0  0
  186.2240  176.4420  135.7980 O   0  0  0  0  0  0  0  0  0  0  0  0
  186.8500  175.2170  135.4370 C   0  0  0  0  0  2  0  0  0  0  0  0
  186.0490  174.0760  135.9530 C   0  0  0  0  0  0  0  0  0  0  0  0
  185.0390  173.6760  135.3160 O   0  0  0  0  0  0  0  0  0  0  0  0
  186.3970  173.4620  137.1880 N   0  0  0  0  0  1  0  0  0  0  0  0
  1 15  2  0  0  0  0
  1  9  1  0  0  0  0
  2 21  1  6  0  0  0
  2 24  1  0  0  0  0
  4  5  1  0  0  0  0
  5 25  2  0  0  0  0
  5 17  1  0  0  0  0
  6 18  1  1  0  0  0
  6 21  1  0  0  0  0
 10  3  1  6  0  0  0
 10 19  1  0  0  0  0
 11  7  1  6  0  0  0
 11 12  1  0  0  0  0
 11  2  1  0  0  0  0
 12  3  1  6  0  0  0
 12 10  1  0  0  0  0
 13 20  1  1  0  0  0
 14  8  1  0  0  0  0
 15 18  1  0  0  0  0
 16  9  1  6  0  0  0
 16  7  1  0  0  0  0
 16  6  1  0  0  0  0
 16 11  1  0  0  0  0
 17 14  2  0  0  0  0
 19 27  1  1  0  0  0
 19 13  1  0  0  0  0
 20 25  1  0  0  0  0
 22  4  2  0  0  0  0
 23  8  2  0  0  0  0
 24 13  1  0  0  0  0
 24  4  1  1  0  0  0
 25 23  1  0  0  0  0
 27 26  1  0  0  0  0
 28  1  1  0  0  0  0
 29 28  1  0  0  0  0
 29 30  1  0  0  0  0
 30 32  1  0  0  0  0
 31 30  2  0  0  0  0
M  END
>  <MODEL>
4

>  <REMARK>
 VINA RESULT:      -6.7      2.892      8.424
  Name = 
  4 active torsions:
  status: ('A' for Active; 'I' for Inactive)
    1  A    between atoms: C_1  and  C_10
    2  A    between atoms: C_2  and  O_24
    3  A    between atoms: C_10  and  O_24
    4  A    between atoms: O_25  and  C_26
                            x       y       z     vdW  Elec       q    Type
                         _______ _______ _______ _____ _____    ______ ____

>  <TORSDO>
F 4

$$$$
=
 OpenBabel10272413383D

 32 38  0  0  1  0  0  0  0  0999 V2000
  188.3620  177.2910  143.3550 C   0  0  0  0  0  0  0  0  0  0  0  0
  185.6320  178.4130  139.8530 C   0  0  2  0  0  3  0  0  0  0  0  0
  183.3740  178.4990  143.1180 C   0  0  0  0  0  2  0  0  0  0  0  0
  184.2240  177.6580  137.8910 C   0  0  0  0  0  0  0  0  0  0  0  0
  182.9860  177.6770  137.0920 C   0  0  0  0  0  0  0  0  0  0  0  0
  187.8360  178.6130  140.8150 C   0  0  1  0  0  3  0  0  0  0  0  0
  185.9800  179.7920  141.9370 O   0  0  0  0  0  0  0  0  0  0  0  0
  180.6680  177.8140  135.5250 C   0  0  0  0  0  3  0  0  0  0  0  0
  187.0060  177.9470  143.2750 C   0  0  0  0  0  2  0  0  0  0  0  0
  183.2850  179.1640  141.7750 C   0  0  1  0  0  3  0  0  0  0  0  0
  185.4510  178.6220  141.3370 C   0  0  1  0  0  0  0  0  0  0  0  0
  184.2360  177.9920  141.9810 C   0  0  1  0  0  3  0  0  0  0  0  0
  183.1860  179.4280  139.3830 C   0  0  2  0  0  3  0  0  0  0  0  0
  181.5940  176.7890  135.3150 C   0  0  0  0  0  3  0  0  0  0  0  0
  189.0660  176.9930  142.2460 C   0  0  0  0  0  3  0  0  0  0  0  0
  186.7900  178.6390  141.9280 C   0  0  2  0  0  0  0  0  0  0  0  0
  182.7530  176.7210  136.0940 C   0  0  0  0  0  3  0  0  0  0  0  0
  188.5430  177.2620  140.8620 C   0  0  0  0  0  2  0  0  0  0  0  0
  182.5090  178.7000  140.5690 C   0  0  2  0  0  3  0  0  0  0  0  0
  182.2550  179.6430  138.3180 O   0  0  0  0  0  0  0  0  0  0  0  0
  187.0660  178.7700  139.5010 C   0  0  0  0  0  2  0  0  0  0  0  0
  185.0690  176.7360  137.7210 O   0  0  0  0  0  0  0  0  0  0  0  0
  180.8940  178.7680  136.5220 C   0  0  0  0  0  3  0  0  0  0  0  0
  184.5130  178.7940  138.8450 C   0  0  1  0  0  3  0  0  0  0  0  0
  182.0440  178.6960  137.3130 C   0  0  0  0  0  0  0  0  0  0  0  0
  180.4470  177.9190  140.7500 C   0  0  0  0  0  1  0  0  0  0  0  0
  181.1790  179.1070  140.7010 O   0  0  0  0  0  0  0  0  0  0  0  0
  188.8660  176.9970  144.6260 O   0  0  0  0  0  0  0  0  0  0  0  0
  189.8360  177.8030  145.2830 C   0  0  0  0  0  2  0  0  0  0  0  0
  191.0660  177.0050  145.5270 C   0  0  0  0  0  0  0  0  0  0  0  0
  191.6080  176.3790  144.5790 O   0  0  0  0  0  0  0  0  0  0  0  0
  191.6070  176.9130  146.8390 N   0  0  0  0  0  1  0  0  0  0  0  0
  1 28  1  0  0  0  0
  2 21  1  6  0  0  0
  2 11  1  0  0  0  0
  5 25  1  0  0  0  0
  5  4  1  0  0  0  0
  6 21  1  6  0  0  0
  6 18  1  0  0  0  0
  6 16  1  0  0  0  0
  8 23  1  0  0  0  0
  9  1  1  0  0  0  0
 10 12  1  0  0  0  0
 10  3  1  1  0  0  0
 11 16  1  0  0  0  0
 11  7  1  1  0  0  0
 11 12  1  0  0  0  0
 12  3  1  1  0  0  0
 13 20  1  6  0  0  0
 13 19  1  0  0  0  0
 14  8  2  0  0  0  0
 14 17  1  0  0  0  0
 15  1  2  0  0  0  0
 16  7  1  0  0  0  0
 16  9  1  1  0  0  0
 17  5  2  0  0  0  0
 18 15  1  0  0  0  0
 19 27  1  1  0  0  0
 19 10  1  0  0  0  0
 22  4  2  0  0  0  0
 23 25  2  0  0  0  0
 24  4  1  1  0  0  0
 24 13  1  0  0  0  0
 24  2  1  0  0  0  0
 25 20  1  0  0  0  0
 27 26  1  0  0  0  0
 28 29  1  0  0  0  0
 29 30  1  0  0  0  0
 30 32  1  0  0  0  0
 31 30  2  0  0  0  0
M  END
>  <MODEL>
5

>  <REMARK>
 VINA RESULT:      -6.7      3.392      5.525
  Name = 
  4 active torsions:
  status: ('A' for Active; 'I' for Inactive)
    1  A    between atoms: C_1  and  C_10
    2  A    between atoms: C_2  and  O_24
    3  A    between atoms: C_10  and  O_24
    4  A    between atoms: O_25  and  C_26
                            x       y       z     vdW  Elec       q    Type
                         _______ _______ _______ _____ _____    ______ ____

>  <TORSDO>
F 4

$$$$
=
 OpenBabel10272413383D

 32 38  0  0  1  0  0  0  0  0999 V2000
  187.8900  177.3320  143.8290 C   0  0  0  0  0  0  0  0  0  0  0  0
  185.4370  178.4320  140.1200 C   0  0  2  0  0  3  0  0  0  0  0  0
  182.9390  178.5560  143.2050 C   0  0  0  0  0  2  0  0  0  0  0  0
  184.1790  177.6640  138.0640 C   0  0  0  0  0  0  0  0  0  0  0  0
  183.0040  177.6800  137.1740 C   0  0  0  0  0  0  0  0  0  0  0  0
  187.5630  178.6330  141.2450 C   0  0  1  0  0  3  0  0  0  0  0  0
  185.6320  179.8290  142.2130 O   0  0  0  0  0  0  0  0  0  0  0  0
  180.8120  177.8110  135.4350 C   0  0  0  0  0  3  0  0  0  0  0  0
  186.5470  177.9930  143.6410 C   0  0  0  0  0  2  0  0  0  0  0  0
  182.9550  179.2090  141.8530 C   0  0  1  0  0  3  0  0  0  0  0  0
  185.1450  178.6550  141.5850 C   0  0  1  0  0  0  0  0  0  0  0  0
  183.8820  178.0360  142.1400 C   0  0  1  0  0  3  0  0  0  0  0  0
  183.0380  179.4520  139.4580 C   0  0  2  0  0  3  0  0  0  0  0  0
  181.7470  176.7800  135.3050 C   0  0  0  0  0  3  0  0  0  0  0  0
  188.6740  177.0220  142.7790 C   0  0  0  0  0  3  0  0  0  0  0  0
  186.4360  178.6720  142.2760 C   0  0  2  0  0  0  0  0  0  0  0  0
  182.8430  176.7150  136.1700 C   0  0  0  0  0  3  0  0  0  0  0  0
  188.2590  177.2800  141.3580 C   0  0  0  0  0  2  0  0  0  0  0  0
  182.2700  178.7360  140.5960 C   0  0  2  0  0  3  0  0  0  0  0  0
  182.1910  179.6600  138.3240 O   0  0  0  0  0  0  0  0  0  0  0  0
  186.8950  178.7800  139.8750 C   0  0  0  0  0  2  0  0  0  0  0  0
  185.0300  176.7370  137.9670 O   0  0  0  0  0  0  0  0  0  0  0  0
  180.9660  178.7730  136.4380 C   0  0  0  0  0  3  0  0  0  0  0  0
  184.3990  178.8080  139.0280 C   0  0  1  0  0  3  0  0  0  0  0  0
  182.0530  178.7040  137.3140 C   0  0  0  0  0  0  0  0  0  0  0  0
  180.2010  177.9710  140.7630 C   0  0  0  0  0  1  0  0  0  0  0  0
  180.9360  179.1490  140.6230 O   0  0  0  0  0  0  0  0  0  0  0  0
  188.2950  177.0490  145.1370 O   0  0  0  0  0  0  0  0  0  0  0  0
  187.7130  177.6620  146.2810 C   0  0  0  0  0  2  0  0  0  0  0  0
  188.6360  177.5370  147.4390 C   0  0  0  0  0  0  0  0  0  0  0  0
  189.7530  176.9740  147.2950 O   0  0  0  0  0  0  0  0  0  0  0  0
  188.2420  178.0140  148.7190 N   0  0  0  0  0  1  0  0  0  0  0  0
  1 28  1  0  0  0  0
  2 21  1  6  0  0  0
  2 11  1  0  0  0  0
  5 25  1  0  0  0  0
  5  4  1  0  0  0  0
  6 21  1  6  0  0  0
  6 18  1  0  0  0  0
  6 16  1  0  0  0  0
  7 16  1  0  0  0  0
  8 23  1  0  0  0  0
  9  1  1  0  0  0  0
 10 12  1  0  0  0  0
 10  3  1  1  0  0  0
 11 12  1  0  0  0  0
 11  7  1  1  0  0  0
 11 16  1  0  0  0  0
 12  3  1  1  0  0  0
 13 20  1  6  0  0  0
 13 19  1  0  0  0  0
 14  8  2  0  0  0  0
 14 17  1  0  0  0  0
 15  1  2  0  0  0  0
 16  9  1  1  0  0  0
 17  5  2  0  0  0  0
 18 15  1  0  0  0  0
 19 27  1  1  0  0  0
 19 10  1  0  0  0  0
 22  4  2  0  0  0  0
 23 25  2  0  0  0  0
 24  4  1  1  0  0  0
 24 13  1  0  0  0  0
 24  2  1  0  0  0  0
 25 20  1  0  0  0  0
 27 26  1  0  0  0  0
 28 29  1  0  0  0  0
 29 30  1  0  0  0  0
 30 32  1  0  0  0  0
 31 30  2  0  0  0  0
M  END
>  <MODEL>
6

>  <REMARK>
 VINA RESULT:      -6.7      3.413      5.403
  Name = 
  4 active torsions:
  status: ('A' for Active; 'I' for Inactive)
    1  A    between atoms: C_1  and  C_10
    2  A    between atoms: C_2  and  O_24
    3  A    between atoms: C_10  and  O_24
    4  A    between atoms: O_25  and  C_26
                            x       y       z     vdW  Elec       q    Type
                         _______ _______ _______ _____ _____    ______ ____

>  <TORSDO>
F 4

$$$$
=
 OpenBabel10272413383D

 32 38  0  0  1  0  0  0  0  0999 V2000
  192.3950  173.2350  136.3380 C   0  0  0  0  0  0  0  0  0  0  0  0
  188.6990  175.9370  136.4860 C   0  0  2  0  0  3  0  0  0  0  0  0
  190.9580  176.9430  139.5930 C   0  0  0  0  0  2  0  0  0  0  0  0
  186.2630  176.2220  137.1050 C   0  0  0  0  0  0  0  0  0  0  0  0
  185.1560  176.9690  137.7290 C   0  0  0  0  0  0  0  0  0  0  0  0
  190.3230  174.8420  135.0750 C   0  0  1  0  0  3  0  0  0  0  0  0
  191.0930  176.7330  136.4630 O   0  0  0  0  0  0  0  0  0  0  0  0
  183.0490  178.4580  138.8210 C   0  0  0  0  0  3  0  0  0  0  0  0
  192.0860  174.5200  137.0670 C   0  0  0  0  0  2  0  0  0  0  0  0
  189.9120  177.6620  138.7920 C   0  0  1  0  0  3  0  0  0  0  0  0
  190.0430  176.0840  137.1590 C   0  0  1  0  0  0  0  0  0  0  0  0
  190.0560  176.1520  138.6700 C   0  0  1  0  0  3  0  0  0  0  0  0
  187.7980  178.1400  137.7390 C   0  0  2  0  0  3  0  0  0  0  0  0
  182.8520  177.1180  138.4750 C   0  0  0  0  0  3  0  0  0  0  0  0
  191.5290  172.7020  135.4560 C   0  0  0  0  0  3  0  0  0  0  0  0
  191.0040  175.3300  136.3520 C   0  0  2  0  0  0  0  0  0  0  0  0
  183.9020  176.3740  137.9280 C   0  0  0  0  0  3  0  0  0  0  0  0
  190.1940  173.3250  135.1580 C   0  0  0  0  0  2  0  0  0  0  0  0
  188.4420  177.7900  139.1030 C   0  0  2  0  0  3  0  0  0  0  0  0
  186.6060  178.9090  137.9210 O   0  0  0  0  0  0  0  0  0  0  0  0
  188.9390  175.4980  135.0520 C   0  0  0  0  0  2  0  0  0  0  0  0
  186.1070  175.0090  136.7940 O   0  0  0  0  0  0  0  0  0  0  0  0
  184.2990  179.0540  138.6280 C   0  0  0  0  0  3  0  0  0  0  0  0
  187.5470  176.9410  136.7630 C   0  0  1  0  0  3  0  0  0  0  0  0
  185.3550  178.3100  138.0950 C   0  0  0  0  0  0  0  0  0  0  0  0
  187.8480  178.2090  141.1920 C   0  0  0  0  0  1  0  0  0  0  0  0
  188.2600  178.8330  140.0140 O   0  0  0  0  0  0  0  0  0  0  0  0
  193.6160  172.6110  136.6150 O   0  0  0  0  0  0  0  0  0  0  0  0
  194.7990  173.3300  136.9420 C   0  0  0  0  0  2  0  0  0  0  0  0
  195.3180  172.8650  138.2560 C   0  0  0  0  0  0  0  0  0  0  0  0
  195.2970  171.6400  138.5430 O   0  0  0  0  0  0  0  0  0  0  0  0
  195.7980  173.8080  139.2060 N   0  0  0  0  0  1  0  0  0  0  0  0
  1 28  1  0  0  0  0
  1  9  1  0  0  0  0
  2 21  1  6  0  0  0
  2 24  1  0  0  0  0
  2 11  1  0  0  0  0
  4  5  1  0  0  0  0
  5 17  2  0  0  0  0
  5 25  1  0  0  0  0
  6 21  1  1  0  0  0
  6 18  1  0  0  0  0
  6 16  1  0  0  0  0
 10 19  1  0  0  0  0
 10  3  1  1  0  0  0
 11  7  1  6  0  0  0
 11 12  1  0  0  0  0
 12 10  1  0  0  0  0
 12  3  1  6  0  0  0
 13 20  1  1  0  0  0
 13 19  1  0  0  0  0
 14  8  2  0  0  0  0
 15  1  2  0  0  0  0
 16  7  1  0  0  0  0
 16  9  1  1  0  0  0
 16 11  1  0  0  0  0
 17 14  1  0  0  0  0
 18 15  1  0  0  0  0
 19 27  1  1  0  0  0
 20 25  1  0  0  0  0
 22  4  2  0  0  0  0
 23  8  1  0  0  0  0
 24  4  1  1  0  0  0
 24 13  1  0  0  0  0
 25 23  2  0  0  0  0
 27 26  1  0  0  0  0
 28 29  1  0  0  0  0
 29 30  1  0  0  0  0
 30 31  2  0  0  0  0
 30 32  1  0  0  0  0
M  END
>  <MODEL>
7

>  <REMARK>
 VINA RESULT:      -6.6      4.140      7.636
  Name = 
  4 active torsions:
  status: ('A' for Active; 'I' for Inactive)
    1  A    between atoms: C_1  and  C_10
    2  A    between atoms: C_2  and  O_24
    3  A    between atoms: C_10  and  O_24
    4  A    between atoms: O_25  and  C_26
                            x       y       z     vdW  Elec       q    Type
                         _______ _______ _______ _____ _____    ______ ____

>  <TORSDO>
F 4

$$$$
=
 OpenBabel10272413383D

 32 38  0  0  1  0  0  0  0  0999 V2000
  190.2800  177.1120  142.0900 C   0  0  0  0  0  0  0  0  0  0  0  0
  186.8310  178.1280  139.2520 C   0  0  2  0  0  3  0  0  0  0  0  0
  185.4190  178.5430  142.9400 C   0  0  0  0  0  2  0  0  0  0  0  0
  184.9740  177.3130  137.7390 C   0  0  0  0  0  0  0  0  0  0  0  0
  183.5830  177.3390  137.2560 C   0  0  0  0  0  0  0  0  0  0  0  0
  189.2070  178.2840  139.6510 C   0  0  1  0  0  3  0  0  0  0  0  0
  187.7090  179.6260  141.0840 O   0  0  0  0  0  0  0  0  0  0  0  0
  180.9640  177.4830  136.2710 C   0  0  0  0  0  3  0  0  0  0  0  0
  188.9650  177.8270  142.2810 C   0  0  0  0  0  2  0  0  0  0  0  0
  185.0340  179.1200  141.6080 C   0  0  1  0  0  3  0  0  0  0  0  0
  187.0150  178.4450  140.7170 C   0  0  1  0  0  0  0  0  0  0  0  0
  185.9690  177.9200  141.6740 C   0  0  1  0  0  3  0  0  0  0  0  0
  184.3770  179.2280  139.2930 C   0  0  2  0  0  3  0  0  0  0  0  0
  181.7810  176.4020  135.9280 C   0  0  0  0  0  3  0  0  0  0  0  0
  190.6900  176.7060  140.8730 C   0  0  0  0  0  3  0  0  0  0  0  0
  188.4560  178.4360  140.9740 C   0  0  2  0  0  0  0  0  0  0  0  0
  183.0890  176.3300  136.4160 C   0  0  0  0  0  3  0  0  0  0  0  0
  189.8610  176.9070  139.6350 C   0  0  0  0  0  2  0  0  0  0  0  0
  183.9790  178.6150  140.6580 C   0  0  2  0  0  3  0  0  0  0  0  0
  183.2270  179.4160  138.4640 O   0  0  0  0  0  0  0  0  0  0  0  0
  188.1510  178.3900  138.5470 C   0  0  0  0  0  2  0  0  0  0  0  0
  185.7250  176.3420  137.4470 O   0  0  0  0  0  0  0  0  0  0  0  0
  181.4510  178.4900  137.1100 C   0  0  0  0  0  3  0  0  0  0  0  0
  185.5180  178.4950  138.5100 C   0  0  1  0  0  3  0  0  0  0  0  0
  182.7530  178.4150  137.6120 C   0  0  0  0  0  0  0  0  0  0  0  0
  181.9310  177.9570  141.1720 C   0  0  0  0  0  1  0  0  0  0  0  0
  182.7330  179.0940  141.0670 O   0  0  0  0  0  0  0  0  0  0  0  0
  191.0620  176.8800  143.2260 O   0  0  0  0  0  0  0  0  0  0  0  0
  191.2760  177.8590  144.2350 C   0  0  0  0  0  2  0  0  0  0  0  0
  191.0570  177.2520  145.5750 C   0  0  0  0  0  0  0  0  0  0  0  0
  192.0140  176.7020  146.1800 O   0  0  0  0  0  0  0  0  0  0  0  0
  189.7580  177.2530  146.1530 N   0  0  0  0  0  1  0  0  0  0  0  0
  1  9  1  0  0  0  0
  1 28  1  0  0  0  0
  2 21  1  6  0  0  0
  2 11  1  0  0  0  0
  5 25  1  0  0  0  0
  5  4  1  0  0  0  0
  6 21  1  6  0  0  0
  6 16  1  0  0  0  0
  8 23  1  0  0  0  0
 10 12  1  0  0  0  0
 10  3  1  1  0  0  0
 11 16  1  0  0  0  0
 11  7  1  1  0  0  0
 11 12  1  0  0  0  0
 12  3  1  1  0  0  0
 13 20  1  6  0  0  0
 13 19  1  0  0  0  0
 14  8  2  0  0  0  0
 14 17  1  0  0  0  0
 15  1  2  0  0  0  0
 16  7  1  0  0  0  0
 16  9  1  1  0  0  0
 17  5  2  0  0  0  0
 18  6  1  0  0  0  0
 18 15  1  0  0  0  0
 19 27  1  1  0  0  0
 19 10  1  0  0  0  0
 22  4  2  0  0  0  0
 23 25  2  0  0  0  0
 24  4  1  1  0  0  0
 24  2  1  0  0  0  0
 24 13  1  0  0  0  0
 25 20  1  0  0  0  0
 27 26  1  0  0  0  0
 28 29  1  0  0  0  0
 29 30  1  0  0  0  0
 30 32  1  0  0  0  0
 30 31  2  0  0  0  0
M  END
>  <MODEL>
8

>  <REMARK>
 VINA RESULT:      -6.5      2.705      4.932
  Name = 
  4 active torsions:
  status: ('A' for Active; 'I' for Inactive)
    1  A    between atoms: C_1  and  C_10
    2  A    between atoms: C_2  and  O_24
    3  A    between atoms: C_10  and  O_24
    4  A    between atoms: O_25  and  C_26
                            x       y       z     vdW  Elec       q    Type
                         _______ _______ _______ _____ _____    ______ ____

>  <TORSDO>
F 4

$$$$
=
 OpenBabel10272413383D

 32 38  0  0  1  0  0  0  0  0999 V2000
  194.8560  174.3780  137.8350 C   0  0  0  0  0  0  0  0  0  0  0  0
  190.4400  174.6440  136.6500 C   0  0  2  0  0  3  0  0  0  0  0  0
  191.0860  177.5640  139.2640 C   0  0  0  0  0  2  0  0  0  0  0  0
  188.0780  173.7850  136.9350 C   0  0  0  0  0  0  0  0  0  0  0  0
  186.6320  173.9900  137.1370 C   0  0  0  0  0  0  0  0  0  0  0  0
  192.6900  174.1950  135.9000 C   0  0  1  0  0  3  0  0  0  0  0  0
  192.1150  176.5240  136.4850 O   0  0  0  0  0  0  0  0  0  0  0  0
  183.8750  174.4040  137.4050 C   0  0  0  0  0  3  0  0  0  0  0  0
  193.8150  175.4610  137.9770 C   0  0  0  0  0  2  0  0  0  0  0  0
  190.0770  177.3500  138.1730 C   0  0  1  0  0  3  0  0  0  0  0  0
  191.3380  175.6670  137.3040 C   0  0  1  0  0  0  0  0  0  0  0  0
  190.9240  176.1830  138.6640 C   0  0  1  0  0  3  0  0  0  0  0  0
  188.3380  176.3080  136.8720 C   0  0  2  0  0  3  0  0  0  0  0  0
  184.4120  173.1290  137.6000 C   0  0  0  0  0  3  0  0  0  0  0  0
  194.5960  173.2340  137.1750 C   0  0  0  0  0  3  0  0  0  0  0  0
  192.7110  175.3260  136.9280 C   0  0  2  0  0  0  0  0  0  0  0  0
  185.7870  172.9200  137.4640 C   0  0  0  0  0  3  0  0  0  0  0  0
  193.2540  172.9430  136.5630 C   0  0  0  0  0  2  0  0  0  0  0  0
  188.6890  176.7770  138.3050 C   0  0  2  0  0  3  0  0  0  0  0  0
  186.9250  176.3520  136.6530 O   0  0  0  0  0  0  0  0  0  0  0  0
  191.2190  173.9880  135.5250 C   0  0  0  0  0  2  0  0  0  0  0  0
  188.5820  172.6420  137.1150 O   0  0  0  0  0  0  0  0  0  0  0  0
  184.7130  175.4750  137.0820 C   0  0  0  0  0  3  0  0  0  0  0  0
  188.9290  174.9270  136.4290 C   0  0  1  0  0  3  0  0  0  0  0  0
  186.0910  175.2740  136.9590 C   0  0  0  0  0  0  0  0  0  0  0  0
  187.9680  177.8420  140.1040 C   0  0  0  0  0  1  0  0  0  0  0  0
  187.8180  177.7880  138.7170 O   0  0  0  0  0  0  0  0  0  0  0  0
  196.1070  174.6030  138.4200 O   0  0  0  0  0  0  0  0  0  0  0  0
  196.3050  174.6860  139.8260 C   0  0  0  0  0  2  0  0  0  0  0  0
  197.6960  175.1260  140.1090 C   0  0  0  0  0  0  0  0  0  0  0  0
  198.1360  175.1020  141.2890 O   0  0  0  0  0  0  0  0  0  0  0  0
  198.5180  175.6130  139.0560 N   0  0  0  0  0  1  0  0  0  0  0  0
  1  9  1  0  0  0  0
  1 28  1  0  0  0  0
  2 21  1  6  0  0  0
  2 11  1  0  0  0  0
  4 22  2  0  0  0  0
  4  5  1  0  0  0  0
  5 17  1  0  0  0  0
  6 21  1  1  0  0  0
  6 18  1  0  0  0  0
  6 16  1  0  0  0  0
  7 16  1  0  0  0  0
  8 14  1  0  0  0  0
 10 19  1  0  0  0  0
 10 12  1  0  0  0  0
 10  3  1  1  0  0  0
 11  7  1  6  0  0  0
 11 12  1  0  0  0  0
 12  3  1  1  0  0  0
 13 20  1  1  0  0  0
 13 19  1  0  0  0  0
 15  1  2  0  0  0  0
 16 11  1  0  0  0  0
 16  9  1  1  0  0  0
 17 14  2  0  0  0  0
 18 15  1  0  0  0  0
 19 27  1  6  0  0  0
 20 25  1  0  0  0  0
 23  8  2  0  0  0  0
 24  2  1  0  0  0  0
 24 13  1  0  0  0  0
 24  4  1  1  0  0  0
 25 23  1  0  0  0  0
 25  5  2  0  0  0  0
 27 26  1  0  0  0  0
 28 29  1  0  0  0  0
 29 30  1  0  0  0  0
 30 31  2  0  0  0  0
 32 30  1  0  0  0  0
M  END
>  <MODEL>
9

>  <REMARK>
 VINA RESULT:      -6.4      4.802      7.202
  Name = 
  4 active torsions:
  status: ('A' for Active; 'I' for Inactive)
    1  A    between atoms: C_1  and  C_10
    2  A    between atoms: C_2  and  O_24
    3  A    between atoms: C_10  and  O_24
    4  A    between atoms: O_25  and  C_26
                            x       y       z     vdW  Elec       q    Type
                         _______ _______ _______ _____ _____    ______ ____

>  <TORSDO>
F 4

$$$$
