=
 OpenBabel10272415343D

 34 34  0  0  1  0  0  0  0  0999 V2000
  185.4150  179.2860  140.5600 O   0  0  0  0  0  0  0  0  0  0  0  0
  186.1160  179.0620  141.7470 C   0  0  0  0  0  2  0  0  0  0  0  0
  185.1930  178.4860  142.8110 C   0  0  2  0  0  3  0  0  0  0  0  0
  183.7910  178.4170  142.2310 C   0  0  0  0  0  2  0  0  0  0  0  0
  182.8890  179.0640  143.0740 O   0  0  0  0  0  1  0  0  0  0  0  0
  185.2020  179.3240  143.9380 O   0  0  0  0  0  0  0  0  0  0  0  0
  184.5320  178.4050  146.0780 C   0  0  0  0  0  2  0  0  0  0  0  0
  185.7590  179.2550  146.3760 C   0  0  0  0  0  2  0  0  0  0  0  0
  185.6220  178.5530  145.0380 C   0  0  0  0  0  0  0  0  0  0  0  0
  186.4320  177.2810  144.8020 C   0  0  0  0  0  2  0  0  0  0  0  0
  187.7890  177.3480  145.4860 C   0  0  0  0  0  2  0  0  0  0  0  0
  189.1110  177.6160  144.2680 S   0  0  0  0  0  0  0  0  0  0  0  0
  190.4010  177.6430  145.5570 C   0  0  1  0  0  3  0  0  0  0  0  0
  189.8380  177.0900  146.8500 C   0  0  0  0  0  1  0  0  0  0  0  0
  191.6480  176.8590  145.1470 C   0  0  1  0  0  3  0  0  0  0  0  0
  192.0270  175.9570  146.1430 O   0  0  0  0  0  1  0  0  0  0  0  0
  191.4290  176.1260  143.8380 C   0  0  0  0  0  1  0  0  0  0  0  0
  185.9550  178.3800  139.6450 C   0  0  0  0  0  2  0  0  0  0  0  0
  185.4300  178.6620  138.2450 C   0  0  2  0  0  3  0  0  0  0  0  0
  184.2670  177.7830  137.9180 C   0  0  0  0  0  0  0  0  0  0  0  0
  183.2320  177.8310  138.6330 O   0  0  0  0  0  0  0  0  0  0  0  0
  184.3090  176.9100  136.7930 N   0  0  0  0  0  1  0  0  0  0  0  0
  186.7600  178.4130  137.0280 S   0  0  0  0  0  0  0  0  0  0  0  0
  187.5940  177.1510  138.0400 C   0  0  1  0  0  3  0  0  0  0  0  0
  188.8350  175.4740  136.8640 O   0  0  0  0  0  1  0  0  0  0  0  0
  187.5600  175.8060  137.3240 C   0  0  0  0  0  2  0  0  0  0  0  0
  189.0860  178.9790  138.4550 O   0  0  0  0  0  1  0  0  0  0  0  0
  189.0120  177.5860  138.4460 C   0  0  1  0  0  3  0  0  0  0  0  0
  189.4640  177.0180  139.8060 C   0  0  2  0  0  3  0  0  0  0  0  0
  189.5370  178.0170  140.7860 O   0  0  0  0  0  1  0  0  0  0  0  0
  190.6690  176.2830  139.7300 O   0  0  0  0  0  0  0  0  0  0  0  0
  191.7480  177.1710  139.8900 C   0  0  0  0  0  2  0  0  0  0  0  0
  192.8720  176.8000  138.9410 C   0  0  0  0  0  2  0  0  0  0  0  0
  192.4000  175.7570  137.9460 C   0  0  0  0  0  1  0  0  0  0  0  0
  1  2  1  0  0  0  0
  3  2  1  6  0  0  0
  3  6  1  0  0  0  0
  4  3  1  0  0  0  0
  4  5  1  0  0  0  0
  6  9  1  0  0  0  0
  7  8  1  0  0  0  0
  9  7  1  0  0  0  0
  9  8  1  0  0  0  0
 10  9  1  0  0  0  0
 10 11  1  0  0  0  0
 12 11  1  0  0  0  0
 12 13  1  0  0  0  0
 13 14  1  1  0  0  0
 15 17  1  6  0  0  0
 15 13  1  0  0  0  0
 15 16  1  0  0  0  0
 18  1  1  0  0  0  0
 19 18  1  1  0  0  0
 20 19  1  0  0  0  0
 20 21  2  0  0  0  0
 22 20  1  0  0  0  0
 23 24  1  0  0  0  0
 23 19  1  0  0  0  0
 24 26  1  6  0  0  0
 24 28  1  0  0  0  0
 25 26  1  0  0  0  0
 28 27  1  1  0  0  0
 28 29  1  0  0  0  0
 29 30  1  1  0  0  0
 31 29  1  0  0  0  0
 31 32  1  0  0  0  0
 33 32  1  0  0  0  0
 34 33  1  0  0  0  0
M  END
>  <MODEL>
1

>  <REMARK>
 VINA RESULT:      -5.6      0.000      0.000
  Name = 
  21 active torsions:
  status: ('A' for Active; 'I' for Inactive)
    1  A    between atoms: O_2  and  C_23
    2  A    between atoms: O_2  and  C_32
    3  A    between atoms: C_3  and  C_25
    4  A    between atoms: C_4  and  C_30
    5  A    between atoms: C_7  and  O_16
    6  A    between atoms: C_7  and  C_29
    7  A    between atoms: C_8  and  C_10
    8  A    between atoms: C_10  and  S_17
    9  A    between atoms: C_11  and  C_26
   10  A    between atoms: C_12  and  S_17
   11  A    between atoms: C_12  and  C_22
   12  A    between atoms: O_16  and  C_30
   13  A    between atoms: C_19  and  C_22
   14  A    between atoms: C_19  and  O_28
   15  A    between atoms: C_23  and  C_25
   16  A    between atoms: C_25  and  S_27
   17  A    between atoms: C_26  and  O_28
   18  A    between atoms: C_26  and  C_32
   19  A    between atoms: S_27  and  C_33
   20  A    between atoms: C_29  and  C_33
   21  A    between atoms: C_33  and  C_34
                            x       y       z     vdW  Elec       q    Type
                         _______ _______ _______ _____ _____    ______ ____

>  <TORSDO>
F 21

$$$$
=
 OpenBabel10272415343D

 34 34  0  0  1  0  0  0  0  0999 V2000
  187.8880  177.8420  141.2350 O   0  0  0  0  0  0  0  0  0  0  0  0
  186.9770  178.8950  141.1220 C   0  0  0  0  0  2  0  0  0  0  0  0
  185.6690  178.5460  141.8160 C   0  0  2  0  0  3  0  0  0  0  0  0
  184.5530  178.6350  140.7890 C   0  0  0  0  0  2  0  0  0  0  0  0
  184.8120  179.6620  139.8830 O   0  0  0  0  0  1  0  0  0  0  0  0
  185.4340  179.4610  142.8540 O   0  0  0  0  0  0  0  0  0  0  0  0
  183.8580  178.6570  144.5100 C   0  0  0  0  0  2  0  0  0  0  0  0
  184.8720  179.4790  145.2930 C   0  0  0  0  0  2  0  0  0  0  0  0
  185.2970  178.7250  144.0470 C   0  0  0  0  0  0  0  0  0  0  0  0
  186.0680  177.4200  144.2190 C   0  0  0  0  0  2  0  0  0  0  0  0
  187.0730  177.5100  145.3570 C   0  0  0  0  0  2  0  0  0  0  0  0
  188.7400  177.0690  144.7810 S   0  0  0  0  0  0  0  0  0  0  0  0
  189.5230  177.7420  146.2850 C   0  0  1  0  0  3  0  0  0  0  0  0
  188.6190  177.5060  147.4780 C   0  0  0  0  0  1  0  0  0  0  0  0
  190.9030  177.1350  146.5420 C   0  0  1  0  0  3  0  0  0  0  0  0
  190.8410  176.1290  147.5080 O   0  0  0  0  0  1  0  0  0  0  0  0
  191.5080  176.5900  145.2630 C   0  0  0  0  0  1  0  0  0  0  0  0
  188.7380  177.9800  140.1360 C   0  0  0  0  0  2  0  0  0  0  0  0
  189.8260  176.9180  140.1690 C   0  0  2  0  0  3  0  0  0  0  0  0
  191.0300  177.4020  140.9110 C   0  0  0  0  0  0  0  0  0  0  0  0
  190.9300  177.7030  142.1280 O   0  0  0  0  0  0  0  0  0  0  0  0
  192.2930  177.5030  140.2600 N   0  0  0  0  0  1  0  0  0  0  0  0
  190.2860  176.4560  138.4700 S   0  0  0  0  0  0  0  0  0  0  0  0
  188.8310  177.2710  137.7410 C   0  0  1  0  0  3  0  0  0  0  0  0
  188.1430  179.4590  137.0540 O   0  0  0  0  0  1  0  0  0  0  0  0
  189.2390  178.5990  137.1140 C   0  0  0  0  0  2  0  0  0  0  0  0
  188.4320  175.0190  137.0260 O   0  0  0  0  0  1  0  0  0  0  0  0
  188.0830  176.3450  136.7670 C   0  0  1  0  0  3  0  0  0  0  0  0
  186.5510  176.5140  136.8140 C   0  0  2  0  0  3  0  0  0  0  0  0
  186.1350  177.1570  137.9880 O   0  0  0  0  0  1  0  0  0  0  0  0
  185.8510  175.3020  136.6180 O   0  0  0  0  0  0  0  0  0  0  0  0
  184.5090  175.4910  136.9920 C   0  0  0  0  0  2  0  0  0  0  0  0
  183.9970  174.2660  137.7260 C   0  0  0  0  0  2  0  0  0  0  0  0
  185.0620  173.1860  137.7590 C   0  0  0  0  0  1  0  0  0  0  0  0
  2  1  1  0  0  0  0
  2  3  1  0  0  0  0
  3  4  1  6  0  0  0
  3  6  1  0  0  0  0
  5  4  1  0  0  0  0
  6  9  1  0  0  0  0
  7  8  1  0  0  0  0
  9 10  1  0  0  0  0
  9  7  1  0  0  0  0
  9  8  1  0  0  0  0
 10 11  1  0  0  0  0
 12 11  1  0  0  0  0
 12 13  1  0  0  0  0
 13 15  1  0  0  0  0
 13 14  1  1  0  0  0
 15 17  1  6  0  0  0
 15 16  1  0  0  0  0
 18  1  1  0  0  0  0
 19 18  1  6  0  0  0
 19 20  1  0  0  0  0
 20 21  2  0  0  0  0
 22 20  1  0  0  0  0
 23 19  1  0  0  0  0
 24 26  1  6  0  0  0
 24 23  1  0  0  0  0
 25 26  1  0  0  0  0
 28 29  1  0  0  0  0
 28 27  1  1  0  0  0
 28 24  1  0  0  0  0
 29 30  1  1  0  0  0
 31 29  1  0  0  0  0
 31 32  1  0  0  0  0
 32 33  1  0  0  0  0
 33 34  1  0  0  0  0
M  END
>  <MODEL>
2

>  <REMARK>
 VINA RESULT:      -5.5      2.341      4.332
  Name = 
  21 active torsions:
  status: ('A' for Active; 'I' for Inactive)
    1  A    between atoms: O_2  and  C_23
    2  A    between atoms: O_2  and  C_32
    3  A    between atoms: C_3  and  C_25
    4  A    between atoms: C_4  and  C_30
    5  A    between atoms: C_7  and  O_16
    6  A    between atoms: C_7  and  C_29
    7  A    between atoms: C_8  and  C_10
    8  A    between atoms: C_10  and  S_17
    9  A    between atoms: C_11  and  C_26
   10  A    between atoms: C_12  and  S_17
   11  A    between atoms: C_12  and  C_22
   12  A    between atoms: O_16  and  C_30
   13  A    between atoms: C_19  and  C_22
   14  A    between atoms: C_19  and  O_28
   15  A    between atoms: C_23  and  C_25
   16  A    between atoms: C_25  and  S_27
   17  A    between atoms: C_26  and  O_28
   18  A    between atoms: C_26  and  C_32
   19  A    between atoms: S_27  and  C_33
   20  A    between atoms: C_29  and  C_33
   21  A    between atoms: C_33  and  C_34
                            x       y       z     vdW  Elec       q    Type
                         _______ _______ _______ _____ _____    ______ ____

>  <TORSDO>
F 21

$$$$
=
 OpenBabel10272415343D

 34 34  0  0  1  0  0  0  0  0999 V2000
  189.6310  177.9210  140.7620 O   0  0  0  0  0  0  0  0  0  0  0  0
  188.7660  178.3190  139.7390 C   0  0  0  0  0  2  0  0  0  0  0  0
  189.3890  178.0460  138.3780 C   0  0  2  0  0  3  0  0  0  0  0  0
  188.9000  179.1140  137.4150 C   0  0  0  0  0  2  0  0  0  0  0  0
  187.5290  178.9810  137.2030 O   0  0  0  0  0  1  0  0  0  0  0  0
  188.9860  176.7790  137.9280 O   0  0  0  0  0  0  0  0  0  0  0  0
  190.8070  175.1910  137.7410 C   0  0  0  0  0  2  0  0  0  0  0  0
  191.4370  176.5510  137.4790 C   0  0  0  0  0  2  0  0  0  0  0  0
  189.9970  176.2860  137.0820 C   0  0  0  0  0  0  0  0  0  0  0  0
  189.6880  176.0290  135.6090 C   0  0  0  0  0  2  0  0  0  0  0  0
  188.2090  175.7520  135.3890 C   0  0  0  0  0  2  0  0  0  0  0  0
  187.8690  173.9680  135.4720 S   0  0  0  0  0  0  0  0  0  0  0  0
  186.8820  174.1460  136.9950 C   0  0  1  0  0  3  0  0  0  0  0  0
  185.9670  175.3480  136.8700 C   0  0  0  0  0  1  0  0  0  0  0  0
  186.0650  172.8930  137.3080 C   0  0  1  0  0  3  0  0  0  0  0  0
  184.8500  173.2200  137.9130 O   0  0  0  0  0  1  0  0  0  0  0  0
  185.8170  172.0740  136.0560 C   0  0  0  0  0  1  0  0  0  0  0  0
  188.8590  177.1070  141.5920 C   0  0  0  0  0  2  0  0  0  0  0  0
  188.6070  177.7940  142.9260 C   0  0  2  0  0  3  0  0  0  0  0  0
  189.7920  177.6740  143.8280 C   0  0  0  0  0  0  0  0  0  0  0  0
  190.1220  178.6480  144.5520 O   0  0  0  0  0  0  0  0  0  0  0  0
  190.5360  176.4610  143.8920 N   0  0  0  0  0  1  0  0  0  0  0  0
  187.1410  177.0700  143.7240 S   0  0  0  0  0  0  0  0  0  0  0  0
  186.1130  178.5390  143.4110 C   0  0  1  0  0  3  0  0  0  0  0  0
  185.4290  179.5450  141.3480 O   0  0  0  0  0  1  0  0  0  0  0  0
  185.3540  178.3720  142.1000 C   0  0  0  0  0  2  0  0  0  0  0  0
  183.8830  178.5220  144.2870 O   0  0  0  0  0  1  0  0  0  0  0  0
  185.1990  178.8650  144.6040 C   0  0  1  0  0  3  0  0  0  0  0  0
  185.6300  178.1760  145.9140 C   0  0  2  0  0  3  0  0  0  0  0  0
  184.6750  178.3440  146.9260 O   0  0  0  0  0  1  0  0  0  0  0  0
  186.9150  178.5670  146.3510 O   0  0  0  0  0  0  0  0  0  0  0  0
  186.9720  178.4450  147.7510 C   0  0  0  0  0  2  0  0  0  0  0  0
  188.3810  178.0910  148.1850 C   0  0  0  0  0  2  0  0  0  0  0  0
  188.9150  176.9370  147.3570 C   0  0  0  0  0  1  0  0  0  0  0  0
  1 18  1  0  0  0  0
  2  1  1  0  0  0  0
  3  4  1  6  0  0  0
  3  2  1  0  0  0  0
  5  4  1  0  0  0  0
  6  3  1  0  0  0  0
  8  7  1  0  0  0  0
  9  8  1  0  0  0  0
  9  7  1  0  0  0  0
  9  6  1  0  0  0  0
 10  9  1  0  0  0  0
 11 12  1  0  0  0  0
 11 10  1  0  0  0  0
 12 13  1  0  0  0  0
 13 14  1  6  0  0  0
 13 15  1  0  0  0  0
 15 17  1  6  0  0  0
 15 16  1  0  0  0  0
 19 18  1  6  0  0  0
 19 23  1  0  0  0  0
 19 20  1  0  0  0  0
 20 22  1  0  0  0  0
 20 21  2  0  0  0  0
 24 26  1  6  0  0  0
 24 23  1  0  0  0  0
 24 28  1  0  0  0  0
 25 26  1  0  0  0  0
 28 27  1  6  0  0  0
 28 29  1  0  0  0  0
 29 31  1  0  0  0  0
 29 30  1  1  0  0  0
 31 32  1  0  0  0  0
 32 33  1  0  0  0  0
 34 33  1  0  0  0  0
M  END
>  <MODEL>
3

>  <REMARK>
 VINA RESULT:      -5.4      2.830      8.481
  Name = 
  21 active torsions:
  status: ('A' for Active; 'I' for Inactive)
    1  A    between atoms: O_2  and  C_23
    2  A    between atoms: O_2  and  C_32
    3  A    between atoms: C_3  and  C_25
    4  A    between atoms: C_4  and  C_30
    5  A    between atoms: C_7  and  O_16
    6  A    between atoms: C_7  and  C_29
    7  A    between atoms: C_8  and  C_10
    8  A    between atoms: C_10  and  S_17
    9  A    between atoms: C_11  and  C_26
   10  A    between atoms: C_12  and  S_17
   11  A    between atoms: C_12  and  C_22
   12  A    between atoms: O_16  and  C_30
   13  A    between atoms: C_19  and  C_22
   14  A    between atoms: C_19  and  O_28
   15  A    between atoms: C_23  and  C_25
   16  A    between atoms: C_25  and  S_27
   17  A    between atoms: C_26  and  O_28
   18  A    between atoms: C_26  and  C_32
   19  A    between atoms: S_27  and  C_33
   20  A    between atoms: C_29  and  C_33
   21  A    between atoms: C_33  and  C_34
                            x       y       z     vdW  Elec       q    Type
                         _______ _______ _______ _____ _____    ______ ____

>  <TORSDO>
F 21

$$$$
=
 OpenBabel10272415343D

 34 34  0  0  1  0  0  0  0  0999 V2000
  190.3380  176.2300  140.2630 O   0  0  0  0  0  0  0  0  0  0  0  0
  191.1410  176.6800  139.2120 C   0  0  0  0  0  2  0  0  0  0  0  0
  190.7550  175.9900  137.9120 C   0  0  2  0  0  3  0  0  0  0  0  0
  189.2980  176.3070  137.6250 C   0  0  0  0  0  2  0  0  0  0  0  0
  189.2020  177.2560  136.6090 O   0  0  0  0  0  1  0  0  0  0  0  0
  190.9220  174.6030  138.0550 O   0  0  0  0  0  0  0  0  0  0  0  0
  191.4860  174.6140  135.6990 C   0  0  0  0  0  2  0  0  0  0  0  0
  191.4320  173.1440  136.0880 C   0  0  0  0  0  2  0  0  0  0  0  0
  191.8670  174.1870  137.0990 C   0  0  0  0  0  0  0  0  0  0  0  0
  193.3560  174.3200  137.4060 C   0  0  0  0  0  2  0  0  0  0  0  0
  194.1180  174.9130  136.2290 C   0  0  0  0  0  2  0  0  0  0  0  0
  195.4090  173.7700  135.6560 S   0  0  0  0  0  0  0  0  0  0  0  0
  196.6020  174.3680  136.8980 C   0  0  1  0  0  3  0  0  0  0  0  0
  197.2190  173.1870  137.6200 C   0  0  0  0  0  1  0  0  0  0  0  0
  197.6970  175.2380  136.2800 C   0  0  1  0  0  3  0  0  0  0  0  0
  198.9270  175.0230  136.9060 O   0  0  0  0  0  1  0  0  0  0  0  0
  197.8220  174.9840  134.7910 C   0  0  0  0  0  1  0  0  0  0  0  0
  190.2820  177.3000  141.1580 C   0  0  0  0  0  2  0  0  0  0  0  0
  188.9330  177.3350  141.8600 C   0  0  2  0  0  3  0  0  0  0  0  0
  187.9690  178.2150  141.1330 C   0  0  0  0  0  0  0  0  0  0  0  0
  186.8610  178.4930  141.6620 O   0  0  0  0  0  0  0  0  0  0  0  0
  188.3000  178.7600  139.8590 N   0  0  0  0  0  1  0  0  0  0  0  0
  189.1440  177.9230  143.5690 S   0  0  0  0  0  0  0  0  0  0  0  0
  190.8950  177.4290  143.6350 C   0  0  1  0  0  3  0  0  0  0  0  0
  190.9780  179.7920  144.0110 O   0  0  0  0  0  1  0  0  0  0  0  0
  191.7680  178.6470  143.9130 C   0  0  0  0  0  2  0  0  0  0  0  0
  191.9800  175.3330  144.0500 O   0  0  0  0  0  1  0  0  0  0  0  0
  191.1290  176.2770  144.6270 C   0  0  1  0  0  3  0  0  0  0  0  0
  191.6890  176.7410  145.9870 C   0  0  2  0  0  3  0  0  0  0  0  0
  192.2740  175.6830  146.6950 O   0  0  0  0  0  1  0  0  0  0  0  0
  190.7360  177.4230  146.7770 O   0  0  0  0  0  0  0  0  0  0  0  0
  189.7200  176.5210  147.1360 C   0  0  0  0  0  2  0  0  0  0  0  0
  188.4130  177.2630  147.3400 C   0  0  0  0  0  2  0  0  0  0  0  0
  188.4630  178.0800  148.6170 C   0  0  0  0  0  1  0  0  0  0  0  0
  1 18  1  0  0  0  0
  2  1  1  0  0  0  0
  3  4  1  1  0  0  0
  3  6  1  0  0  0  0
  3  2  1  0  0  0  0
  5  4  1  0  0  0  0
  7  8  1  0  0  0  0
  7  9  1  0  0  0  0
  8  9  1  0  0  0  0
  9 10  1  0  0  0  0
  9  6  1  0  0  0  0
 11 10  1  0  0  0  0
 12 11  1  0  0  0  0
 12 13  1  0  0  0  0
 13 14  1  6  0  0  0
 15 17  1  6  0  0  0
 15 13  1  0  0  0  0
 15 16  1  0  0  0  0
 19 18  1  6  0  0  0
 19 23  1  0  0  0  0
 20 21  2  0  0  0  0
 20 19  1  0  0  0  0
 22 20  1  0  0  0  0
 23 24  1  0  0  0  0
 24 26  1  1  0  0  0
 24 28  1  0  0  0  0
 26 25  1  0  0  0  0
 28 27  1  6  0  0  0
 28 29  1  0  0  0  0
 29 30  1  1  0  0  0
 29 31  1  0  0  0  0
 31 32  1  0  0  0  0
 32 33  1  0  0  0  0
 33 34  1  0  0  0  0
M  END
>  <MODEL>
4

>  <REMARK>
 VINA RESULT:      -5.3      3.565      8.973
  Name = 
  21 active torsions:
  status: ('A' for Active; 'I' for Inactive)
    1  A    between atoms: O_2  and  C_23
    2  A    between atoms: O_2  and  C_32
    3  A    between atoms: C_3  and  C_25
    4  A    between atoms: C_4  and  C_30
    5  A    between atoms: C_7  and  O_16
    6  A    between atoms: C_7  and  C_29
    7  A    between atoms: C_8  and  C_10
    8  A    between atoms: C_10  and  S_17
    9  A    between atoms: C_11  and  C_26
   10  A    between atoms: C_12  and  S_17
   11  A    between atoms: C_12  and  C_22
   12  A    between atoms: O_16  and  C_30
   13  A    between atoms: C_19  and  C_22
   14  A    between atoms: C_19  and  O_28
   15  A    between atoms: C_23  and  C_25
   16  A    between atoms: C_25  and  S_27
   17  A    between atoms: C_26  and  O_28
   18  A    between atoms: C_26  and  C_32
   19  A    between atoms: S_27  and  C_33
   20  A    between atoms: C_29  and  C_33
   21  A    between atoms: C_33  and  C_34
                            x       y       z     vdW  Elec       q    Type
                         _______ _______ _______ _____ _____    ______ ____

>  <TORSDO>
F 21

$$$$
=
 OpenBabel10272415343D

 34 34  0  0  1  0  0  0  0  0999 V2000
  190.8530  177.4240  141.1760 O   0  0  0  0  0  0  0  0  0  0  0  0
  189.6440  177.3110  141.8670 C   0  0  0  0  0  2  0  0  0  0  0  0
  189.8800  176.7660  143.2680 C   0  0  2  0  0  3  0  0  0  0  0  0
  190.5750  175.4210  143.1400 C   0  0  0  0  0  2  0  0  0  0  0  0
  191.8120  175.4560  143.7810 O   0  0  0  0  0  1  0  0  0  0  0  0
  188.6460  176.6040  143.9180 O   0  0  0  0  0  0  0  0  0  0  0  0
  189.8930  178.2650  145.1660 C   0  0  0  0  0  2  0  0  0  0  0  0
  189.8340  177.0450  146.0750 C   0  0  0  0  0  2  0  0  0  0  0  0
  188.6960  177.3400  145.1170 C   0  0  0  0  0  0  0  0  0  0  0  0
  187.4150  177.9500  145.6800 C   0  0  0  0  0  2  0  0  0  0  0  0
  186.2230  177.6820  144.7730 C   0  0  0  0  0  2  0  0  0  0  0  0
  185.1430  179.1410  144.6820 S   0  0  0  0  0  0  0  0  0  0  0  0
  183.9870  178.3120  143.5410 C   0  0  1  0  0  3  0  0  0  0  0  0
  182.6630  179.0490  143.5350 C   0  0  0  0  0  1  0  0  0  0  0  0
  184.5430  178.2150  142.1200 C   0  0  1  0  0  3  0  0  0  0  0  0
  183.5150  178.2190  141.1740 O   0  0  0  0  0  1  0  0  0  0  0  0
  185.5150  179.3420  141.8340 C   0  0  0  0  0  1  0  0  0  0  0  0
  190.4910  177.5540  139.8340 C   0  0  0  0  0  2  0  0  0  0  0  0
  190.9480  176.3400  139.0400 C   0  0  2  0  0  3  0  0  0  0  0  0
  192.2490  176.6030  138.3540 C   0  0  0  0  0  0  0  0  0  0  0  0
  192.3090  176.5570  137.0980 O   0  0  0  0  0  0  0  0  0  0  0  0
  193.4160  176.9250  139.1050 N   0  0  0  0  0  1  0  0  0  0  0  0
  189.6790  175.8910  137.8160 S   0  0  0  0  0  0  0  0  0  0  0  0
  188.7930  177.4710  137.9990 C   0  0  1  0  0  3  0  0  0  0  0  0
  189.1240  179.7320  137.2820 O   0  0  0  0  0  1  0  0  0  0  0  0
  189.1570  178.4060  136.8510 C   0  0  0  0  0  2  0  0  0  0  0  0
  186.6800  178.4700  138.5290 O   0  0  0  0  0  1  0  0  0  0  0  0
  187.2770  177.2650  138.1550 C   0  0  1  0  0  3  0  0  0  0  0  0
  186.6000  176.7040  136.8880 C   0  0  2  0  0  3  0  0  0  0  0  0
  186.0630  177.7240  136.0930 O   0  0  0  0  0  1  0  0  0  0  0  0
  185.6370  175.7090  137.1670 O   0  0  0  0  0  0  0  0  0  0  0  0
  186.2700  174.4530  137.1560 C   0  0  0  0  0  2  0  0  0  0  0  0
  186.4090  173.9530  135.7310 C   0  0  0  0  0  2  0  0  0  0  0  0
  186.0560  172.4800  135.6520 C   0  0  0  0  0  1  0  0  0  0  0  0
  1  2  1  0  0  0  0
  3  2  1  6  0  0  0
  3  6  1  0  0  0  0
  4  3  1  0  0  0  0
  4  5  1  0  0  0  0
  6  9  1  0  0  0  0
  7  8  1  0  0  0  0
  9  7  1  0  0  0  0
  9 10  1  0  0  0  0
  9  8  1  0  0  0  0
 11 10  1  0  0  0  0
 12 11  1  0  0  0  0
 13 14  1  6  0  0  0
 13 12  1  0  0  0  0
 15 17  1  6  0  0  0
 15 13  1  0  0  0  0
 16 15  1  0  0  0  0
 18  1  1  0  0  0  0
 19 18  1  6  0  0  0
 20 19  1  0  0  0  0
 20 22  1  0  0  0  0
 21 20  2  0  0  0  0
 23 24  1  0  0  0  0
 23 19  1  0  0  0  0
 24 26  1  6  0  0  0
 24 28  1  0  0  0  0
 26 25  1  0  0  0  0
 28 27  1  6  0  0  0
 29 30  1  1  0  0  0
 29 31  1  0  0  0  0
 29 28  1  0  0  0  0
 32 31  1  0  0  0  0
 33 32  1  0  0  0  0
 34 33  1  0  0  0  0
M  END
>  <MODEL>
5

>  <REMARK>
 VINA RESULT:      -5.3      2.679      6.062
  Name = 
  21 active torsions:
  status: ('A' for Active; 'I' for Inactive)
    1  A    between atoms: O_2  and  C_23
    2  A    between atoms: O_2  and  C_32
    3  A    between atoms: C_3  and  C_25
    4  A    between atoms: C_4  and  C_30
    5  A    between atoms: C_7  and  O_16
    6  A    between atoms: C_7  and  C_29
    7  A    between atoms: C_8  and  C_10
    8  A    between atoms: C_10  and  S_17
    9  A    between atoms: C_11  and  C_26
   10  A    between atoms: C_12  and  S_17
   11  A    between atoms: C_12  and  C_22
   12  A    between atoms: O_16  and  C_30
   13  A    between atoms: C_19  and  C_22
   14  A    between atoms: C_19  and  O_28
   15  A    between atoms: C_23  and  C_25
   16  A    between atoms: C_25  and  S_27
   17  A    between atoms: C_26  and  O_28
   18  A    between atoms: C_26  and  C_32
   19  A    between atoms: S_27  and  C_33
   20  A    between atoms: C_29  and  C_33
   21  A    between atoms: C_33  and  C_34
                            x       y       z     vdW  Elec       q    Type
                         _______ _______ _______ _____ _____    ______ ____

>  <TORSDO>
F 21

$$$$
=
 OpenBabel10272415343D

 34 34  0  0  1  0  0  0  0  0999 V2000
  187.2220  178.0260  142.1200 O   0  0  0  0  0  0  0  0  0  0  0  0
  187.8740  178.4690  140.9670 C   0  0  0  0  0  2  0  0  0  0  0  0
  186.9040  178.5270  139.7950 C   0  0  2  0  0  3  0  0  0  0  0  0
  185.5060  178.7400  140.3510 C   0  0  0  0  0  2  0  0  0  0  0  0
  184.8340  179.7070  139.6060 O   0  0  0  0  0  1  0  0  0  0  0  0
  186.9560  177.3150  139.0890 O   0  0  0  0  0  0  0  0  0  0  0  0
  186.1410  177.8740  136.8760 C   0  0  0  0  0  2  0  0  0  0  0  0
  186.9640  176.6080  136.6890 C   0  0  0  0  0  2  0  0  0  0  0  0
  187.3370  177.6090  137.7660 C   0  0  0  0  0  0  0  0  0  0  0  0
  188.5190  178.5390  137.5120 C   0  0  0  0  0  2  0  0  0  0  0  0
  189.7560  177.7660  137.0820 C   0  0  0  0  0  2  0  0  0  0  0  0
  190.4560  176.8400  138.4800 S   0  0  0  0  0  0  0  0  0  0  0  0
  191.8230  176.1870  137.4670 C   0  0  1  0  0  3  0  0  0  0  0  0
  193.1290  176.3310  138.2220 C   0  0  0  0  0  1  0  0  0  0  0  0
  191.6050  174.7270  137.0670 C   0  0  1  0  0  3  0  0  0  0  0  0
  190.6130  174.1320  137.8500 O   0  0  0  0  0  1  0  0  0  0  0  0
  191.2470  174.6100  135.5990 C   0  0  0  0  0  1  0  0  0  0  0  0
  188.1420  177.1880  142.7540 C   0  0  0  0  0  2  0  0  0  0  0  0
  189.5100  177.8510  142.8170 C   0  0  2  0  0  3  0  0  0  0  0  0
  190.5940  176.8870  142.4580 C   0  0  0  0  0  0  0  0  0  0  0  0
  190.3060  175.6810  142.2430 O   0  0  0  0  0  0  0  0  0  0  0  0
  191.9440  177.3230  142.3370 N   0  0  0  0  0  1  0  0  0  0  0  0
  189.7960  178.5160  144.4860 S   0  0  0  0  0  0  0  0  0  0  0  0
  189.6390  176.8840  145.2780 C   0  0  1  0  0  3  0  0  0  0  0  0
  191.9220  177.4380  145.7430 O   0  0  0  0  0  1  0  0  0  0  0  0
  191.0130  176.3800  145.7050 C   0  0  0  0  0  2  0  0  0  0  0  0
  189.2880  176.9930  147.6460 O   0  0  0  0  0  1  0  0  0  0  0  0
  188.6160  176.8980  146.4260 C   0  0  1  0  0  3  0  0  0  0  0  0
  187.5700  178.0250  146.3020 C   0  0  2  0  0  3  0  0  0  0  0  0
  187.1940  178.5230  147.5570 O   0  0  0  0  0  1  0  0  0  0  0  0
  186.4420  177.6540  145.5370 O   0  0  0  0  0  0  0  0  0  0  0  0
  185.3540  178.4580  145.9220 C   0  0  0  0  0  2  0  0  0  0  0  0
  184.9250  179.3420  144.7660 C   0  0  0  0  0  2  0  0  0  0  0  0
  184.0990  178.5470  143.7720 C   0  0  0  0  0  1  0  0  0  0  0  0
  1 18  1  0  0  0  0
  2  1  1  0  0  0  0
  3  4  1  1  0  0  0
  3  2  1  0  0  0  0
  5  4  1  0  0  0  0
  6  3  1  0  0  0  0
  7  9  1  0  0  0  0
  8  7  1  0  0  0  0
  8  9  1  0  0  0  0
  9  6  1  0  0  0  0
 10  9  1  0  0  0  0
 11 10  1  0  0  0  0
 11 12  1  0  0  0  0
 13 14  1  1  0  0  0
 13 12  1  0  0  0  0
 15 17  1  6  0  0  0
 15 13  1  0  0  0  0
 15 16  1  0  0  0  0
 19 18  1  1  0  0  0
 19 23  1  0  0  0  0
 20 19  1  0  0  0  0
 21 20  2  0  0  0  0
 22 20  1  0  0  0  0
 23 24  1  0  0  0  0
 24 26  1  1  0  0  0
 24 28  1  0  0  0  0
 26 25  1  0  0  0  0
 28 27  1  1  0  0  0
 29 28  1  0  0  0  0
 29 30  1  1  0  0  0
 31 32  1  0  0  0  0
 31 29  1  0  0  0  0
 33 32  1  0  0  0  0
 34 33  1  0  0  0  0
M  END
>  <MODEL>
6

>  <REMARK>
 VINA RESULT:      -5.3      2.600      7.725
  Name = 
  21 active torsions:
  status: ('A' for Active; 'I' for Inactive)
    1  A    between atoms: O_2  and  C_23
    2  A    between atoms: O_2  and  C_32
    3  A    between atoms: C_3  and  C_25
    4  A    between atoms: C_4  and  C_30
    5  A    between atoms: C_7  and  O_16
    6  A    between atoms: C_7  and  C_29
    7  A    between atoms: C_8  and  C_10
    8  A    between atoms: C_10  and  S_17
    9  A    between atoms: C_11  and  C_26
   10  A    between atoms: C_12  and  S_17
   11  A    between atoms: C_12  and  C_22
   12  A    between atoms: O_16  and  C_30
   13  A    between atoms: C_19  and  C_22
   14  A    between atoms: C_19  and  O_28
   15  A    between atoms: C_23  and  C_25
   16  A    between atoms: C_25  and  S_27
   17  A    between atoms: C_26  and  O_28
   18  A    between atoms: C_26  and  C_32
   19  A    between atoms: S_27  and  C_33
   20  A    between atoms: C_29  and  C_33
   21  A    between atoms: C_33  and  C_34
                            x       y       z     vdW  Elec       q    Type
                         _______ _______ _______ _____ _____    ______ ____

>  <TORSDO>
F 21

$$$$
=
 OpenBabel10272415343D

 34 34  0  0  1  0  0  0  0  0999 V2000
  185.8030  176.6180  137.2290 O   0  0  0  0  0  0  0  0  0  0  0  0
  184.4380  176.7410  136.9580 C   0  0  0  0  0  2  0  0  0  0  0  0
  183.6210  176.5290  138.2240 C   0  0  2  0  0  3  0  0  0  0  0  0
  182.9650  175.1610  138.1360 C   0  0  0  0  0  2  0  0  0  0  0  0
  183.8910  174.2080  137.7160 O   0  0  0  0  0  1  0  0  0  0  0  0
  182.6360  177.5250  138.3150 O   0  0  0  0  0  0  0  0  0  0  0  0
  181.3850  177.6960  140.3830 C   0  0  0  0  0  2  0  0  0  0  0  0
  181.6800  179.1330  139.9770 C   0  0  0  0  0  2  0  0  0  0  0  0
  182.6570  178.0240  139.6310 C   0  0  0  0  0  0  0  0  0  0  0  0
  183.9260  177.8900  140.4670 C   0  0  0  0  0  2  0  0  0  0  0  0
  183.7590  178.5240  141.8410 C   0  0  0  0  0  2  0  0  0  0  0  0
  185.3750  178.7810  142.6320 S   0  0  0  0  0  0  0  0  0  0  0  0
  184.6170  179.4890  144.1310 C   0  0  1  0  0  3  0  0  0  0  0  0
  183.1640  179.0680  144.2130 C   0  0  0  0  0  1  0  0  0  0  0  0
  185.3570  179.0810  145.4050 C   0  0  1  0  0  3  0  0  0  0  0  0
  184.4630  178.7170  146.4140 O   0  0  0  0  0  1  0  0  0  0  0  0
  186.3250  177.9460  145.1350 C   0  0  0  0  0  1  0  0  0  0  0  0
  186.3990  176.3970  135.9860 C   0  0  0  0  0  2  0  0  0  0  0  0
  187.9060  176.5840  136.0780 C   0  0  2  0  0  3  0  0  0  0  0  0
  188.6120  175.8160  135.0090 C   0  0  0  0  0  0  0  0  0  0  0  0
  189.7950  176.1180  134.7060 O   0  0  0  0  0  0  0  0  0  0  0  0
  187.9680  174.7320  134.3460 N   0  0  0  0  0  1  0  0  0  0  0  0
  188.4920  176.0540  137.7170 S   0  0  0  0  0  0  0  0  0  0  0  0
  189.4540  177.5770  137.9830 C   0  0  1  0  0  3  0  0  0  0  0  0
  189.0000  179.9040  137.6510 O   0  0  0  0  0  1  0  0  0  0  0  0
  188.9870  178.6610  137.0180 C   0  0  0  0  0  2  0  0  0  0  0  0
  188.1700  177.7590  139.9970 O   0  0  0  0  0  1  0  0  0  0  0  0
  189.4280  178.0220  139.4540 C   0  0  1  0  0  3  0  0  0  0  0  0
  190.5290  177.3690  140.3130 C   0  0  2  0  0  3  0  0  0  0  0  0
  191.5880  176.8960  139.5270 O   0  0  0  0  0  1  0  0  0  0  0  0
  190.0380  176.3610  141.1740 O   0  0  0  0  0  0  0  0  0  0  0  0
  190.5680  176.5690  142.4590 C   0  0  0  0  0  2  0  0  0  0  0  0
  189.8440  177.7140  143.1410 C   0  0  0  0  0  2  0  0  0  0  0  0
  190.1690  177.7360  144.6230 C   0  0  0  0  0  1  0  0  0  0  0  0
  2  1  1  0  0  0  0
  3  2  1  6  0  0  0
  3  6  1  0  0  0  0
  4  3  1  0  0  0  0
  5  4  1  0  0  0  0
  6  9  1  0  0  0  0
  8  7  1  0  0  0  0
  9  8  1  0  0  0  0
  9  7  1  0  0  0  0
  9 10  1  0  0  0  0
 10 11  1  0  0  0  0
 11 12  1  0  0  0  0
 12 13  1  0  0  0  0
 13 14  1  1  0  0  0
 13 15  1  0  0  0  0
 15 17  1  6  0  0  0
 15 16  1  0  0  0  0
 18  1  1  0  0  0  0
 19 18  1  1  0  0  0
 19 23  1  0  0  0  0
 20 19  1  0  0  0  0
 21 20  2  0  0  0  0
 22 20  1  0  0  0  0
 23 24  1  0  0  0  0
 24 26  1  6  0  0  0
 24 28  1  0  0  0  0
 26 25  1  0  0  0  0
 28 27  1  1  0  0  0
 28 29  1  0  0  0  0
 29 30  1  6  0  0  0
 29 31  1  0  0  0  0
 31 32  1  0  0  0  0
 32 33  1  0  0  0  0
 33 34  1  0  0  0  0
M  END
>  <MODEL>
7

>  <REMARK>
 VINA RESULT:      -5.1      2.381      5.277
  Name = 
  21 active torsions:
  status: ('A' for Active; 'I' for Inactive)
    1  A    between atoms: O_2  and  C_23
    2  A    between atoms: O_2  and  C_32
    3  A    between atoms: C_3  and  C_25
    4  A    between atoms: C_4  and  C_30
    5  A    between atoms: C_7  and  O_16
    6  A    between atoms: C_7  and  C_29
    7  A    between atoms: C_8  and  C_10
    8  A    between atoms: C_10  and  S_17
    9  A    between atoms: C_11  and  C_26
   10  A    between atoms: C_12  and  S_17
   11  A    between atoms: C_12  and  C_22
   12  A    between atoms: O_16  and  C_30
   13  A    between atoms: C_19  and  C_22
   14  A    between atoms: C_19  and  O_28
   15  A    between atoms: C_23  and  C_25
   16  A    between atoms: C_25  and  S_27
   17  A    between atoms: C_26  and  O_28
   18  A    between atoms: C_26  and  C_32
   19  A    between atoms: S_27  and  C_33
   20  A    between atoms: C_29  and  C_33
   21  A    between atoms: C_33  and  C_34
                            x       y       z     vdW  Elec       q    Type
                         _______ _______ _______ _____ _____    ______ ____

>  <TORSDO>
F 21

$$$$
=
 OpenBabel10272415343D

 34 34  0  0  1  0  0  0  0  0999 V2000
  184.2930  177.8240  141.6850 O   0  0  0  0  0  0  0  0  0  0  0  0
  184.1720  178.9630  142.4850 C   0  0  0  0  0  2  0  0  0  0  0  0
  184.0310  178.5730  143.9490 C   0  0  2  0  0  3  0  0  0  0  0  0
  182.5840  178.7920  144.3570 C   0  0  0  0  0  2  0  0  0  0  0  0
  181.9430  179.6170  143.4350 O   0  0  0  0  0  1  0  0  0  0  0  0
  184.8730  179.3820  144.7290 O   0  0  0  0  0  0  0  0  0  0  0  0
  184.8780  178.2110  146.8500 C   0  0  0  0  0  2  0  0  0  0  0  0
  186.1080  179.1050  146.8870 C   0  0  0  0  0  2  0  0  0  0  0  0
  185.6180  178.5340  145.5700 C   0  0  0  0  0  0  0  0  0  0  0  0
  186.3700  177.3490  144.9700 C   0  0  0  0  0  2  0  0  0  0  0  0
  187.4400  177.8050  143.9900 C   0  0  0  0  0  2  0  0  0  0  0  0
  188.8270  176.6320  143.9600 S   0  0  0  0  0  0  0  0  0  0  0  0
  189.7240  177.5360  145.2650 C   0  0  1  0  0  3  0  0  0  0  0  0
  189.3690  176.9570  146.6200 C   0  0  0  0  0  1  0  0  0  0  0  0
  191.2380  177.5050  145.0590 C   0  0  1  0  0  3  0  0  0  0  0  0
  191.8840  176.9160  146.1470 O   0  0  0  0  0  1  0  0  0  0  0  0
  191.6020  176.7750  143.7810 C   0  0  0  0  0  1  0  0  0  0  0  0
  183.2650  177.9310  140.7460 C   0  0  0  0  0  2  0  0  0  0  0  0
  183.8130  177.7700  139.3370 C   0  0  2  0  0  3  0  0  0  0  0  0
  184.6190  178.9620  138.9310 C   0  0  0  0  0  0  0  0  0  0  0  0
  185.7740  178.7980  138.4590 O   0  0  0  0  0  0  0  0  0  0  0  0
  184.0850  180.2770  139.0540 N   0  0  0  0  0  1  0  0  0  0  0  0
  182.4410  177.5210  138.1680 S   0  0  0  0  0  0  0  0  0  0  0  0
  182.3520  175.7310  138.4900 C   0  0  1  0  0  3  0  0  0  0  0  0
  180.5080  174.6580  139.5780 O   0  0  0  0  0  1  0  0  0  0  0  0
  180.9080  175.2550  138.3820 C   0  0  0  0  0  2  0  0  0  0  0  0
  182.7100  173.7500  137.1910 O   0  0  0  0  0  1  0  0  0  0  0  0
  183.3200  174.9380  137.5960 C   0  0  1  0  0  3  0  0  0  0  0  0
  183.8130  175.7310  136.3690 C   0  0  2  0  0  3  0  0  0  0  0  0
  183.5800  175.0360  135.1750 O   0  0  0  0  0  1  0  0  0  0  0  0
  185.1630  176.1350  136.4730 O   0  0  0  0  0  0  0  0  0  0  0  0
  185.9790  174.9910  136.4330 C   0  0  0  0  0  2  0  0  0  0  0  0
  187.4310  175.3940  136.2590 C   0  0  0  0  0  2  0  0  0  0  0  0
  187.9210  176.1460  137.4820 C   0  0  0  0  0  1  0  0  0  0  0  0
  1  2  1  0  0  0  0
  3  2  1  6  0  0  0
  3  4  1  0  0  0  0
  3  6  1  0  0  0  0
  5  4  1  0  0  0  0
  6  9  1  0  0  0  0
  7  8  1  0  0  0  0
  9  7  1  0  0  0  0
  9  8  1  0  0  0  0
 10  9  1  0  0  0  0
 11 10  1  0  0  0  0
 12 11  1  0  0  0  0
 12 13  1  0  0  0  0
 13 14  1  1  0  0  0
 15 17  1  6  0  0  0
 15 13  1  0  0  0  0
 15 16  1  0  0  0  0
 18  1  1  0  0  0  0
 19 18  1  1  0  0  0
 20 22  1  0  0  0  0
 20 19  1  0  0  0  0
 21 20  2  0  0  0  0
 23 24  1  0  0  0  0
 23 19  1  0  0  0  0
 24 26  1  6  0  0  0
 26 25  1  0  0  0  0
 28 27  1  6  0  0  0
 28 24  1  0  0  0  0
 29 30  1  6  0  0  0
 29 31  1  0  0  0  0
 29 28  1  0  0  0  0
 32 31  1  0  0  0  0
 33 32  1  0  0  0  0
 33 34  1  0  0  0  0
M  END
>  <MODEL>
8

>  <REMARK>
 VINA RESULT:      -5.1      2.566      4.278
  Name = 
  21 active torsions:
  status: ('A' for Active; 'I' for Inactive)
    1  A    between atoms: O_2  and  C_23
    2  A    between atoms: O_2  and  C_32
    3  A    between atoms: C_3  and  C_25
    4  A    between atoms: C_4  and  C_30
    5  A    between atoms: C_7  and  O_16
    6  A    between atoms: C_7  and  C_29
    7  A    between atoms: C_8  and  C_10
    8  A    between atoms: C_10  and  S_17
    9  A    between atoms: C_11  and  C_26
   10  A    between atoms: C_12  and  S_17
   11  A    between atoms: C_12  and  C_22
   12  A    between atoms: O_16  and  C_30
   13  A    between atoms: C_19  and  C_22
   14  A    between atoms: C_19  and  O_28
   15  A    between atoms: C_23  and  C_25
   16  A    between atoms: C_25  and  S_27
   17  A    between atoms: C_26  and  O_28
   18  A    between atoms: C_26  and  C_32
   19  A    between atoms: S_27  and  C_33
   20  A    between atoms: C_29  and  C_33
   21  A    between atoms: C_33  and  C_34
                            x       y       z     vdW  Elec       q    Type
                         _______ _______ _______ _____ _____    ______ ____

>  <TORSDO>
F 21

$$$$
=
 OpenBabel10272415343D

 34 34  0  0  1  0  0  0  0  0999 V2000
  186.7260  178.0930  143.6750 O   0  0  0  0  0  0  0  0  0  0  0  0
  186.8860  177.0990  144.6430 C   0  0  0  0  0  2  0  0  0  0  0  0
  186.5850  177.6500  146.0290 C   0  0  2  0  0  3  0  0  0  0  0  0
  185.3280  178.4980  145.9350 C   0  0  0  0  0  2  0  0  0  0  0  0
  184.8440  178.7840  147.2110 O   0  0  0  0  0  1  0  0  0  0  0  0
  187.6630  178.4410  146.4590 O   0  0  0  0  0  0  0  0  0  0  0  0
  187.5530  176.9380  148.3570 C   0  0  0  0  0  2  0  0  0  0  0  0
  188.4300  178.0940  148.8150 C   0  0  0  0  0  2  0  0  0  0  0  0
  188.4240  177.6710  147.3580 C   0  0  0  0  0  0  0  0  0  0  0  0
  189.5990  176.8490  146.8380 C   0  0  0  0  0  2  0  0  0  0  0  0
  190.3480  177.5810  145.7350 C   0  0  0  0  0  2  0  0  0  0  0  0
  191.2520  176.4080  144.6820 S   0  0  0  0  0  0  0  0  0  0  0  0
  190.9430  177.3950  143.1800 C   0  0  1  0  0  3  0  0  0  0  0  0
  191.5660  178.7670  143.3370 C   0  0  0  0  0  1  0  0  0  0  0  0
  191.4760  176.7160  141.9180 C   0  0  1  0  0  3  0  0  0  0  0  0
  190.4410  176.1390  141.1790 O   0  0  0  0  0  1  0  0  0  0  0  0
  192.2480  177.6940  141.0540 C   0  0  0  0  0  1  0  0  0  0  0  0
  187.4300  177.6300  142.5620 C   0  0  0  0  0  2  0  0  0  0  0  0
  186.7050  178.0080  141.2790 C   0  0  2  0  0  3  0  0  0  0  0  0
  187.6700  178.4190  140.2140 C   0  0  0  0  0  0  0  0  0  0  0  0
  188.8090  178.8430  140.5390 O   0  0  0  0  0  0  0  0  0  0  0  0
  187.3210  178.3130  138.8370 N   0  0  0  0  0  1  0  0  0  0  0  0
  185.5330  179.3600  141.6110 S   0  0  0  0  0  0  0  0  0  0  0  0
  184.1490  178.5020  140.7950 C   0  0  1  0  0  3  0  0  0  0  0  0
  183.3900  178.6660  143.0600 O   0  0  0  0  0  1  0  0  0  0  0  0
  183.1350  178.0450  141.8370 C   0  0  0  0  0  2  0  0  0  0  0  0
  184.4830  180.2410  139.1810 O   0  0  0  0  0  1  0  0  0  0  0  0
  183.5270  179.3520  139.6750 C   0  0  1  0  0  3  0  0  0  0  0  0
  182.9310  178.5140  138.5260 C   0  0  2  0  0  3  0  0  0  0  0  0
  181.5580  178.2960  138.7020 O   0  0  0  0  0  1  0  0  0  0  0  0
  183.6200  177.3000  138.3070 O   0  0  0  0  0  0  0  0  0  0  0  0
  184.1270  177.3000  136.9960 C   0  0  0  0  0  2  0  0  0  0  0  0
  184.5540  175.8990  136.6030 C   0  0  0  0  0  2  0  0  0  0  0  0
  186.0030  175.6620  136.9860 C   0  0  0  0  0  1  0  0  0  0  0  0
  1  2  1  0  0  0  0
  3  2  1  6  0  0  0
  3  6  1  0  0  0  0
  4  3  1  0  0  0  0
  4  5  1  0  0  0  0
  6  9  1  0  0  0  0
  7  8  1  0  0  0  0
  9  7  1  0  0  0  0
  9  8  1  0  0  0  0
 10  9  1  0  0  0  0
 11 10  1  0  0  0  0
 12 11  1  0  0  0  0
 13 14  1  1  0  0  0
 13 12  1  0  0  0  0
 15 17  1  6  0  0  0
 15 13  1  0  0  0  0
 16 15  1  0  0  0  0
 18  1  1  0  0  0  0
 19 23  1  0  0  0  0
 19 18  1  1  0  0  0
 20 21  2  0  0  0  0
 20 19  1  0  0  0  0
 22 20  1  0  0  0  0
 24 23  1  0  0  0  0
 24 26  1  1  0  0  0
 26 25  1  0  0  0  0
 28 27  1  6  0  0  0
 28 24  1  0  0  0  0
 29 30  1  1  0  0  0
 29 28  1  0  0  0  0
 31 29  1  0  0  0  0
 32 31  1  0  0  0  0
 33 34  1  0  0  0  0
 33 32  1  0  0  0  0
M  END
>  <MODEL>
9

>  <REMARK>
 VINA RESULT:      -5.0      2.267      5.150
  Name = 
  21 active torsions:
  status: ('A' for Active; 'I' for Inactive)
    1  A    between atoms: O_2  and  C_23
    2  A    between atoms: O_2  and  C_32
    3  A    between atoms: C_3  and  C_25
    4  A    between atoms: C_4  and  C_30
    5  A    between atoms: C_7  and  O_16
    6  A    between atoms: C_7  and  C_29
    7  A    between atoms: C_8  and  C_10
    8  A    between atoms: C_10  and  S_17
    9  A    between atoms: C_11  and  C_26
   10  A    between atoms: C_12  and  S_17
   11  A    between atoms: C_12  and  C_22
   12  A    between atoms: O_16  and  C_30
   13  A    between atoms: C_19  and  C_22
   14  A    between atoms: C_19  and  O_28
   15  A    between atoms: C_23  and  C_25
   16  A    between atoms: C_25  and  S_27
   17  A    between atoms: C_26  and  O_28
   18  A    between atoms: C_26  and  C_32
   19  A    between atoms: S_27  and  C_33
   20  A    between atoms: C_29  and  C_33
   21  A    between atoms: C_33  and  C_34
                            x       y       z     vdW  Elec       q    Type
                         _______ _______ _______ _____ _____    ______ ____

>  <TORSDO>
F 21

$$$$
