=
 OpenBabel10272401533D

 28 32  0  0  0  0  0  0  0  0999 V2000
  187.5620  178.2100  140.8740 N   0  0  0  0  0  0  0  0  0  0  0  0
  190.4010  177.1220  144.7820 C   0  0  0  0  0  2  0  0  0  0  0  0
  184.3900  178.6030  144.6740 C   0  0  0  0  0  1  0  0  0  0  0  0
  188.9500  177.2790  146.7230 C   0  0  0  0  0  0  0  0  0  0  0  0
  188.1000  177.7200  144.5020 C   0  0  0  0  0  0  0  0  0  0  0  0
  191.2830  176.6730  146.9870 C   0  0  0  0  0  0  0  0  0  0  0  0
  189.1260  177.3840  145.3180 C   0  0  0  0  0  0  0  0  0  0  0  0
  186.5500  177.8980  146.5100 C   0  0  0  0  0  3  0  0  0  0  0  0
  190.0270  176.9260  147.5400 C   0  0  0  0  0  3  0  0  0  0  0  0
  186.0150  178.3980  142.7660 C   0  0  0  0  0  0  0  0  0  0  0  0
  188.3030  177.8090  143.1560 N   0  0  0  0  0  0  0  0  0  0  0  0
  187.7670  177.5120  147.2970 C   0  0  0  0  0  3  0  0  0  0  0  0
  185.2750  178.7900  140.5050 C   0  0  0  0  0  3  0  0  0  0  0  0
  185.7650  178.3230  144.1450 C   0  0  0  0  0  0  0  0  0  0  0  0
  185.0620  178.7060  141.9270 N   0  0  0  0  0  0  0  0  0  0  0  0
  192.3450  176.3220  147.8080 O   0  0  0  0  0  1  0  0  0  0  0  0
  191.4700  176.7700  145.6080 C   0  0  0  0  0  3  0  0  0  0  0  0
  186.8110  177.9810  145.0250 C   0  0  0  0  0  0  0  0  0  0  0  0
  186.4830  178.5480  139.9940 C   0  0  0  0  0  3  0  0  0  0  0  0
  187.3100  178.1340  142.2880 C   0  0  0  0  0  0  0  0  0  0  0  0
  188.8730  177.9050  140.3140 C   0  0  0  0  0  2  0  0  0  0  0  0
  188.7870  177.7820  138.8300 C   0  0  0  0  0  0  0  0  0  0  0  0
  188.5700  177.5290  136.0780 C   0  0  0  0  0  0  0  0  0  0  0  0
  189.0280  178.8880  138.0130 C   0  0  0  0  0  3  0  0  0  0  0  0
  188.4320  176.5640  138.2430 C   0  0  0  0  0  3  0  0  0  0  0  0
  188.3330  176.4630  136.8900 N   0  0  0  0  0  0  0  0  0  0  0  0
  188.4520  177.3780  134.6040 C   0  0  0  0  0  1  0  0  0  0  0  0
  188.9210  178.7640  136.6270 C   0  0  0  0  0  3  0  0  0  0  0  0
  1 20  1  0  0  0  0
  2  7  1  0  0  0  0
  2 17  1  0  0  0  0
  4 12  1  0  0  0  0
  4  9  2  0  0  0  0
  5 18  1  0  0  0  0
  5  7  2  0  0  0  0
  6  9  1  0  0  0  0
  6 16  1  0  0  0  0
  7  4  1  0  0  0  0
  8 12  2  0  0  0  0
 10 14  1  0  0  0  0
 11  5  1  0  0  0  0
 13 15  1  0  0  0  0
 14  3  1  0  0  0  0
 14 18  2  0  0  0  0
 15 10  2  0  0  0  0
 17  6  2  0  0  0  0
 18  8  1  0  0  0  0
 19 13  2  0  0  0  0
 19  1  1  0  0  0  0
 20 10  1  0  0  0  0
 20 11  2  0  0  0  0
 21  1  1  0  0  0  0
 22 21  1  0  0  0  0
 23 28  2  0  0  0  0
 23 26  1  0  0  0  0
 24 22  2  0  0  0  0
 25 22  1  0  0  0  0
 26 25  2  0  0  0  0
 27 23  1  0  0  0  0
 28 24  1  0  0  0  0
M  END
>  <MODEL>
1

>  <REMARK>
 VINA RESULT:     -11.0      0.000      0.000
  Name = 
  2 active torsions:
  status: ('A' for Active; 'I' for Inactive)
    1  A    between atoms: N_1  and  C_2
    2  A    between atoms: C_2  and  C_3
                            x       y       z     vdW  Elec       q    Type
                         _______ _______ _______ _____ _____    ______ ____

>  <TORSDO>
F 2

$$$$
=
 OpenBabel10272401533D

 28 32  0  0  0  0  0  0  0  0999 V2000
  189.8580  177.1150  142.5180 N   0  0  0  0  0  0  0  0  0  0  0  0
  185.0900  178.4170  142.8050 C   0  0  0  0  0  2  0  0  0  0  0  0
  189.0660  177.2930  147.4160 C   0  0  0  0  0  1  0  0  0  0  0  0
  184.5760  178.5410  145.1760 C   0  0  0  0  0  0  0  0  0  0  0  0
  186.7910  177.9320  144.4180 C   0  0  0  0  0  0  0  0  0  0  0  0
  182.8660  179.0310  143.5270 C   0  0  0  0  0  0  0  0  0  0  0  0
  185.5140  178.2860  144.1410 C   0  0  0  0  0  0  0  0  0  0  0  0
  186.2900  178.0480  146.9090 C   0  0  0  0  0  3  0  0  0  0  0  0
  183.2650  178.9090  144.8590 C   0  0  0  0  0  3  0  0  0  0  0  0
  189.4430  177.2090  144.9320 C   0  0  0  0  0  0  0  0  0  0  0  0
  187.6670  177.6970  143.4010 N   0  0  0  0  0  0  0  0  0  0  0  0
  184.9120  178.4370  146.4640 C   0  0  0  0  0  3  0  0  0  0  0  0
  191.6170  176.6380  144.0610 C   0  0  0  0  0  3  0  0  0  0  0  0
  188.5720  177.4360  146.0080 C   0  0  0  0  0  0  0  0  0  0  0  0
  190.6890  176.8760  145.1360 N   0  0  0  0  0  0  0  0  0  0  0  0
  181.5630  179.3980  143.2240 O   0  0  0  0  0  1  0  0  0  0  0  0
  183.7780  178.7850  142.5000 C   0  0  0  0  0  3  0  0  0  0  0  0
  187.2340  177.8010  145.7570 C   0  0  0  0  0  0  0  0  0  0  0  0
  191.2170  176.7550  142.7940 C   0  0  0  0  0  3  0  0  0  0  0  0
  188.9620  177.3470  143.6190 C   0  0  0  0  0  0  0  0  0  0  0  0
  189.4300  177.2840  141.1350 C   0  0  0  0  0  2  0  0  0  0  0  0
  190.5490  176.9610  140.2020 C   0  0  0  0  0  0  0  0  0  0  0  0
  192.5910  176.3800  138.4200 C   0  0  0  0  0  0  0  0  0  0  0  0
  191.8170  177.5110  140.4010 C   0  0  0  0  0  3  0  0  0  0  0  0
  190.3300  176.1300  139.1000 C   0  0  0  0  0  3  0  0  0  0  0  0
  191.3470  175.8580  138.2390 N   0  0  0  0  0  0  0  0  0  0  0  0
  193.6770  176.0580  137.4580 C   0  0  0  0  0  1  0  0  0  0  0  0
  192.8480  177.2190  139.5070 C   0  0  0  0  0  3  0  0  0  0  0  0
  1 19  1  0  0  0  0
  1 20  1  0  0  0  0
  2  7  1  0  0  0  0
  4 12  1  0  0  0  0
  5 18  1  0  0  0  0
  6  9  1  0  0  0  0
  7  5  2  0  0  0  0
  7  4  1  0  0  0  0
  9  4  2  0  0  0  0
 10 15  2  0  0  0  0
 10 14  1  0  0  0  0
 11 20  2  0  0  0  0
 11  5  1  0  0  0  0
 12  8  2  0  0  0  0
 13 15  1  0  0  0  0
 14  3  1  0  0  0  0
 16  6  1  0  0  0  0
 17  2  1  0  0  0  0
 17  6  2  0  0  0  0
 18 14  2  0  0  0  0
 18  8  1  0  0  0  0
 19 13  2  0  0  0  0
 20 10  1  0  0  0  0
 21  1  1  0  0  0  0
 22 24  1  0  0  0  0
 22 21  1  0  0  0  0
 23 28  1  0  0  0  0
 25 22  2  0  0  0  0
 26 23  2  0  0  0  0
 26 25  1  0  0  0  0
 27 23  1  0  0  0  0
 28 24  2  0  0  0  0
M  END
>  <MODEL>
2

>  <REMARK>
 VINA RESULT:     -10.5      3.203      5.299
  Name = 
  2 active torsions:
  status: ('A' for Active; 'I' for Inactive)
    1  A    between atoms: N_1  and  C_2
    2  A    between atoms: C_2  and  C_3
                            x       y       z     vdW  Elec       q    Type
                         _______ _______ _______ _____ _____    ______ ____

>  <TORSDO>
F 2

$$$$
=
 OpenBabel10272401533D

 28 32  0  0  0  0  0  0  0  0999 V2000
  189.3840  177.8070  140.3190 N   0  0  0  0  0  0  0  0  0  0  0  0
  185.0470  178.5320  142.5960 C   0  0  0  0  0  2  0  0  0  0  0  0
  190.5340  177.1390  145.1020 C   0  0  0  0  0  1  0  0  0  0  0  0
  185.4820  178.2320  144.9670 C   0  0  0  0  0  0  0  0  0  0  0  0
  187.2560  177.9880  143.3400 C   0  0  0  0  0  0  0  0  0  0  0  0
  183.2510  178.7870  144.1940 C   0  0  0  0  0  0  0  0  0  0  0  0
  185.9580  178.2430  143.6290 C   0  0  0  0  0  0  0  0  0  0  0  0
  187.7500  177.6630  145.8140 C   0  0  0  0  0  3  0  0  0  0  0  0
  184.1370  178.5040  145.2340 C   0  0  0  0  0  3  0  0  0  0  0  0
  189.9280  177.4820  142.6870 C   0  0  0  0  0  0  0  0  0  0  0  0
  187.6810  178.0080  142.0460 N   0  0  0  0  0  0  0  0  0  0  0  0
  186.2920  177.9670  145.9940 C   0  0  0  0  0  3  0  0  0  0  0  0
  191.6190  177.2870  140.9800 C   0  0  0  0  0  3  0  0  0  0  0  0
  189.5300  177.4450  144.0320 C   0  0  0  0  0  0  0  0  0  0  0  0
  191.1680  177.2550  142.3470 N   0  0  0  0  0  0  0  0  0  0  0  0
  181.9180  179.0550  144.4700 O   0  0  0  0  0  1  0  0  0  0  0  0
  183.7050  178.8020  142.8750 C   0  0  0  0  0  3  0  0  0  0  0  0
  188.1860  177.7000  144.3690 C   0  0  0  0  0  0  0  0  0  0  0  0
  190.7570  177.5560  139.9980 C   0  0  0  0  0  3  0  0  0  0  0  0
  188.9720  177.7680  141.6970 C   0  0  0  0  0  0  0  0  0  0  0  0
  188.4490  178.1410  139.2520 C   0  0  0  0  0  2  0  0  0  0  0  0
  188.7810  177.3780  138.0140 C   0  0  0  0  0  0  0  0  0  0  0  0
  189.3410  175.9360  135.7130 C   0  0  0  0  0  0  0  0  0  0  0  0
  189.2900  178.0370  136.8920 C   0  0  0  0  0  3  0  0  0  0  0  0
  188.5560  176.0000  137.9530 C   0  0  0  0  0  3  0  0  0  0  0  0
  188.8390  175.3130  136.8140 N   0  0  0  0  0  0  0  0  0  0  0  0
  189.6380  175.1500  134.4870 C   0  0  0  0  0  1  0  0  0  0  0  0
  189.5740  177.3130  135.7320 C   0  0  0  0  0  3  0  0  0  0  0  0
  1 20  1  0  0  0  0
  2 17  1  0  0  0  0
  2  7  1  0  0  0  0
  4  9  2  0  0  0  0
  4 12  1  0  0  0  0
  5  7  2  0  0  0  0
  5 18  1  0  0  0  0
  6 16  1  0  0  0  0
  6  9  1  0  0  0  0
  7  4  1  0  0  0  0
  8 12  2  0  0  0  0
 10 14  1  0  0  0  0
 11  5  1  0  0  0  0
 13 15  1  0  0  0  0
 14 18  2  0  0  0  0
 14  3  1  0  0  0  0
 15 10  2  0  0  0  0
 17  6  2  0  0  0  0
 18  8  1  0  0  0  0
 19  1  1  0  0  0  0
 19 13  2  0  0  0  0
 20 11  2  0  0  0  0
 20 10  1  0  0  0  0
 21  1  1  0  0  0  0
 22 21  1  0  0  0  0
 23 28  2  0  0  0  0
 23 26  1  0  0  0  0
 24 22  2  0  0  0  0
 25 22  1  0  0  0  0
 26 25  2  0  0  0  0
 27 23  1  0  0  0  0
 28 24  1  0  0  0  0
M  END
>  <MODEL>
3

>  <REMARK>
 VINA RESULT:     -10.1      2.590      4.609
  Name = 
  2 active torsions:
  status: ('A' for Active; 'I' for Inactive)
    1  A    between atoms: N_1  and  C_2
    2  A    between atoms: C_2  and  C_3
                            x       y       z     vdW  Elec       q    Type
                         _______ _______ _______ _____ _____    ______ ____

>  <TORSDO>
F 2

$$$$
=
 OpenBabel10272401533D

 28 32  0  0  0  0  0  0  0  0999 V2000
  189.6290  177.6750  141.4370 N   0  0  0  0  0  0  0  0  0  0  0  0
  184.8930  178.6360  142.5150 C   0  0  0  0  0  2  0  0  0  0  0  0
  189.5320  177.2730  146.3840 C   0  0  0  0  0  1  0  0  0  0  0  0
  184.7150  178.4710  144.9320 C   0  0  0  0  0  0  0  0  0  0  0  0
  186.8270  178.0870  143.8160 C   0  0  0  0  0  0  0  0  0  0  0  0
  182.7680  179.0280  143.5980 C   0  0  0  0  0  0  0  0  0  0  0  0
  185.5080  178.3890  143.7570 C   0  0  0  0  0  0  0  0  0  0  0  0
  186.6790  177.9030  146.3480 C   0  0  0  0  0  3  0  0  0  0  0  0
  183.3570  178.7880  144.8400 C   0  0  0  0  0  3  0  0  0  0  0  0
  189.5560  177.4820  143.8790 C   0  0  0  0  0  0  0  0  0  0  0  0
  187.5610  178.0190  142.6690 N   0  0  0  0  0  0  0  0  0  0  0  0
  185.2350  178.2500  146.1420 C   0  0  0  0  0  3  0  0  0  0  0  0
  191.6100  177.1450  142.6620 C   0  0  0  0  0  3  0  0  0  0  0  0
  188.8360  177.5360  145.0820 C   0  0  0  0  0  0  0  0  0  0  0  0
  190.8330  177.2070  143.8720 N   0  0  0  0  0  0  0  0  0  0  0  0
  181.4190  179.3430  143.5180 O   0  0  0  0  0  1  0  0  0  0  0  0
  183.5360  178.9520  142.4350 C   0  0  0  0  0  3  0  0  0  0  0  0
  187.4610  177.8410  145.0580 C   0  0  0  0  0  0  0  0  0  0  0  0
  191.0290  177.3730  141.4830 C   0  0  0  0  0  3  0  0  0  0  0  0
  188.8880  177.7290  142.6680 C   0  0  0  0  0  0  0  0  0  0  0  0
  189.0020  177.9640  140.1530 C   0  0  0  0  0  2  0  0  0  0  0  0
  189.3530  176.9130  139.1550 C   0  0  0  0  0  0  0  0  0  0  0  0
  190.0200  174.9200  137.3460 C   0  0  0  0  0  0  0  0  0  0  0  0
  188.4370  176.5390  138.1690 C   0  0  0  0  0  3  0  0  0  0  0  0
  190.5920  176.2680  139.2160 C   0  0  0  0  0  3  0  0  0  0  0  0
  190.8980  175.2940  138.3170 N   0  0  0  0  0  0  0  0  0  0  0  0
  190.3930  173.8520  136.3830 C   0  0  0  0  0  1  0  0  0  0  0  0
  188.7710  175.5370  137.2560 C   0  0  0  0  0  3  0  0  0  0  0  0
  1 19  1  0  0  0  0
  1 20  1  0  0  0  0
  2  7  1  0  0  0  0
  4 12  1  0  0  0  0
  5 18  1  0  0  0  0
  6  9  1  0  0  0  0
  7  5  2  0  0  0  0
  7  4  1  0  0  0  0
  9  4  2  0  0  0  0
 10 14  1  0  0  0  0
 11  5  1  0  0  0  0
 12  8  2  0  0  0  0
 13 15  1  0  0  0  0
 14  3  1  0  0  0  0
 15 10  2  0  0  0  0
 16  6  1  0  0  0  0
 17  2  1  0  0  0  0
 17  6  2  0  0  0  0
 18 14  2  0  0  0  0
 18  8  1  0  0  0  0
 19 13  2  0  0  0  0
 20 11  2  0  0  0  0
 20 10  1  0  0  0  0
 21  1  1  0  0  0  0
 22 25  1  0  0  0  0
 22 21  1  0  0  0  0
 23 26  1  0  0  0  0
 24 22  2  0  0  0  0
 26 25  2  0  0  0  0
 27 23  1  0  0  0  0
 28 23  2  0  0  0  0
 28 24  1  0  0  0  0
M  END
>  <MODEL>
4

>  <REMARK>
 VINA RESULT:     -10.1      2.887      4.990
  Name = 
  2 active torsions:
  status: ('A' for Active; 'I' for Inactive)
    1  A    between atoms: N_1  and  C_2
    2  A    between atoms: C_2  and  C_3
                            x       y       z     vdW  Elec       q    Type
                         _______ _______ _______ _____ _____    ______ ____

>  <TORSDO>
F 2

$$$$
=
 OpenBabel10272401533D

 28 32  0  0  0  0  0  0  0  0999 V2000
  189.8860  177.8300  139.4240 N   0  0  0  0  0  0  0  0  0  0  0  0
  191.0100  176.9800  144.1700 C   0  0  0  0  0  2  0  0  0  0  0  0
  185.5300  178.4860  141.7140 C   0  0  0  0  0  1  0  0  0  0  0  0
  188.9400  177.2710  145.4070 C   0  0  0  0  0  0  0  0  0  0  0  0
  189.0030  177.5720  143.0070 C   0  0  0  0  0  0  0  0  0  0  0  0
  190.9820  176.6690  146.5670 C   0  0  0  0  0  0  0  0  0  0  0  0
  189.6360  177.2830  144.1690 C   0  0  0  0  0  0  0  0  0  0  0  0
  186.8170  177.8890  144.2670 C   0  0  0  0  0  3  0  0  0  0  0  0
  189.6190  176.9650  146.5890 C   0  0  0  0  0  3  0  0  0  0  0  0
  187.7460  178.1490  140.5760 C   0  0  0  0  0  0  0  0  0  0  0  0
  189.7000  177.5730  141.8360 N   0  0  0  0  0  0  0  0  0  0  0  0
  187.6360  177.5480  145.4760 C   0  0  0  0  0  3  0  0  0  0  0  0
  187.9240  178.3990  138.1850 C   0  0  0  0  0  3  0  0  0  0  0  0
  186.9940  178.1650  141.7600 C   0  0  0  0  0  0  0  0  0  0  0  0
  187.1900  178.4080  139.4240 N   0  0  0  0  0  0  0  0  0  0  0  0
  191.6460  176.3660  147.7470 O   0  0  0  0  0  1  0  0  0  0  0  0
  191.6780  176.6760  145.3580 C   0  0  0  0  0  3  0  0  0  0  0  0
  187.6200  177.8750  142.9890 C   0  0  0  0  0  0  0  0  0  0  0  0
  189.2280  178.1170  138.1830 C   0  0  0  0  0  3  0  0  0  0  0  0
  189.1170  177.8470  140.6390 C   0  0  0  0  0  0  0  0  0  0  0  0
  191.3010  177.4820  139.4190 C   0  0  0  0  0  2  0  0  0  0  0  0
  191.5330  176.2590  138.5970 C   0  0  0  0  0  0  0  0  0  0  0  0
  191.9160  174.0040  137.0300 C   0  0  0  0  0  0  0  0  0  0  0  0
  192.8070  175.9680  138.1050 C   0  0  0  0  0  3  0  0  0  0  0  0
  190.4680  175.4090  138.2830 C   0  0  0  0  0  3  0  0  0  0  0  0
  190.6800  174.3070  137.5140 N   0  0  0  0  0  0  0  0  0  0  0  0
  192.1060  172.7900  136.1930 C   0  0  0  0  0  1  0  0  0  0  0  0
  193.0030  174.8320  137.3170 C   0  0  0  0  0  3  0  0  0  0  0  0
  1 20  1  0  0  0  0
  2 17  1  0  0  0  0
  3 14  1  0  0  0  0
  4 12  1  0  0  0  0
  4  9  2  0  0  0  0
  5  7  2  0  0  0  0
  6  9  1  0  0  0  0
  6 16  1  0  0  0  0
  7  2  1  0  0  0  0
  7  4  1  0  0  0  0
  8 12  2  0  0  0  0
 10 20  1  0  0  0  0
 10 14  1  0  0  0  0
 11  5  1  0  0  0  0
 13 15  1  0  0  0  0
 14 18  2  0  0  0  0
 15 10  2  0  0  0  0
 17  6  2  0  0  0  0
 18  5  1  0  0  0  0
 18  8  1  0  0  0  0
 19 13  2  0  0  0  0
 19  1  1  0  0  0  0
 20 11  2  0  0  0  0
 21  1  1  0  0  0  0
 22 21  1  0  0  0  0
 23 28  2  0  0  0  0
 23 26  1  0  0  0  0
 24 22  2  0  0  0  0
 25 22  1  0  0  0  0
 26 25  2  0  0  0  0
 27 23  1  0  0  0  0
 28 24  1  0  0  0  0
M  END
>  <MODEL>
5

>  <REMARK>
 VINA RESULT:      -9.9      2.366      2.983
  Name = 
  2 active torsions:
  status: ('A' for Active; 'I' for Inactive)
    1  A    between atoms: N_1  and  C_2
    2  A    between atoms: C_2  and  C_3
                            x       y       z     vdW  Elec       q    Type
                         _______ _______ _______ _____ _____    ______ ____

>  <TORSDO>
F 2

$$$$
=
 OpenBabel10272401533D

 28 32  0  0  0  0  0  0  0  0999 V2000
  186.5600  178.4760  140.2110 N   0  0  0  0  0  0  0  0  0  0  0  0
  188.7450  177.7510  144.5940 C   0  0  0  0  0  2  0  0  0  0  0  0
  182.7900  178.9640  143.4050 C   0  0  0  0  0  1  0  0  0  0  0  0
  186.9860  177.9640  146.2570 C   0  0  0  0  0  0  0  0  0  0  0  0
  186.5040  178.2320  143.9020 C   0  0  0  0  0  0  0  0  0  0  0  0
  189.2620  177.4750  146.9390 C   0  0  0  0  0  0  0  0  0  0  0  0
  187.3910  177.9900  144.8960 C   0  0  0  0  0  0  0  0  0  0  0  0
  184.6370  178.4650  145.6130 C   0  0  0  0  0  3  0  0  0  0  0  0
  187.9240  177.7080  147.2610 C   0  0  0  0  0  3  0  0  0  0  0  0
  184.7150  178.7130  141.8070 C   0  0  0  0  0  0  0  0  0  0  0  0
  186.9240  178.2470  142.6050 N   0  0  0  0  0  0  0  0  0  0  0  0
  185.7180  178.1810  146.6120 C   0  0  0  0  0  3  0  0  0  0  0  0
  184.3480  178.9340  139.4340 C   0  0  0  0  0  3  0  0  0  0  0  0
  184.2420  178.7110  143.1280 C   0  0  0  0  0  0  0  0  0  0  0  0
  183.9050  178.9290  140.8040 N   0  0  0  0  0  0  0  0  0  0  0  0
  190.1840  177.2210  147.9450 O   0  0  0  0  0  1  0  0  0  0  0  0
  189.6720  177.4960  145.6060 C   0  0  0  0  0  3  0  0  0  0  0  0
  185.1380  178.4690  144.1890 C   0  0  0  0  0  0  0  0  0  0  0  0
  185.6310  178.7140  139.1450 C   0  0  0  0  0  3  0  0  0  0  0  0
  186.0790  178.4760  141.5660 C   0  0  0  0  0  0  0  0  0  0  0  0
  187.9540  178.1940  139.8940 C   0  0  0  0  0  2  0  0  0  0  0  0
  188.0780  177.6950  138.4940 C   0  0  0  0  0  0  0  0  0  0  0  0
  188.3710  176.7790  135.8930 C   0  0  0  0  0  0  0  0  0  0  0  0
  187.5850  176.4360  138.1450 C   0  0  0  0  0  3  0  0  0  0  0  0
  188.7190  178.4710  137.5230 C   0  0  0  0  0  3  0  0  0  0  0  0
  188.8510  178.0020  136.2530 N   0  0  0  0  0  0  0  0  0  0  0  0
  188.5330  176.3030  134.4950 C   0  0  0  0  0  1  0  0  0  0  0  0
  187.7290  175.9730  136.8360 C   0  0  0  0  0  3  0  0  0  0  0  0
  1 20  1  0  0  0  0
  2  7  1  0  0  0  0
  2 17  1  0  0  0  0
  4 12  1  0  0  0  0
  4  9  2  0  0  0  0
  5 18  1  0  0  0  0
  5  7  2  0  0  0  0
  6  9  1  0  0  0  0
  6 16  1  0  0  0  0
  7  4  1  0  0  0  0
  8 12  2  0  0  0  0
 10 14  1  0  0  0  0
 11  5  1  0  0  0  0
 13 15  1  0  0  0  0
 14  3  1  0  0  0  0
 14 18  2  0  0  0  0
 15 10  2  0  0  0  0
 17  6  2  0  0  0  0
 18  8  1  0  0  0  0
 19 13  2  0  0  0  0
 19  1  1  0  0  0  0
 20 10  1  0  0  0  0
 20 11  2  0  0  0  0
 21  1  1  0  0  0  0
 22 21  1  0  0  0  0
 23 26  2  0  0  0  0
 23 28  1  0  0  0  0
 24 22  1  0  0  0  0
 25 22  2  0  0  0  0
 26 25  1  0  0  0  0
 27 23  1  0  0  0  0
 28 24  2  0  0  0  0
M  END
>  <MODEL>
6

>  <REMARK>
 VINA RESULT:      -9.7      1.221      1.872
  Name = 
  2 active torsions:
  status: ('A' for Active; 'I' for Inactive)
    1  A    between atoms: N_1  and  C_2
    2  A    between atoms: C_2  and  C_3
                            x       y       z     vdW  Elec       q    Type
                         _______ _______ _______ _____ _____    ______ ____

>  <TORSDO>
F 2

$$$$
=
 OpenBabel10272401533D

 28 32  0  0  0  0  0  0  0  0999 V2000
  188.9610  177.7150  139.2220 N   0  0  0  0  0  0  0  0  0  0  0  0
  185.6240  178.5290  142.7890 C   0  0  0  0  0  2  0  0  0  0  0  0
  191.4190  176.4200  143.3360 C   0  0  0  0  0  1  0  0  0  0  0  0
  186.7180  177.9290  144.8730 C   0  0  0  0  0  0  0  0  0  0  0  0
  187.8790  177.7260  142.7600 C   0  0  0  0  0  0  0  0  0  0  0  0
  184.4350  178.7470  144.8820 C   0  0  0  0  0  0  0  0  0  0  0  0
  186.7660  178.0520  143.4590 C   0  0  0  0  0  0  0  0  0  0  0  0
  189.0570  177.0850  144.9210 C   0  0  0  0  0  3  0  0  0  0  0  0
  185.5560  178.2770  145.5670 C   0  0  0  0  0  3  0  0  0  0  0  0
  190.1540  177.0810  141.2670 C   0  0  0  0  0  0  0  0  0  0  0  0
  187.8930  177.8580  141.4030 N   0  0  0  0  0  0  0  0  0  0  0  0
  187.7660  177.4840  145.5700 C   0  0  0  0  0  3  0  0  0  0  0  0
  191.2180  176.9440  139.1080 C   0  0  0  0  0  3  0  0  0  0  0  0
  190.1800  176.9250  142.6610 C   0  0  0  0  0  0  0  0  0  0  0  0
  191.2010  176.7940  140.5400 N   0  0  0  0  0  0  0  0  0  0  0  0
  183.2870  179.0900  145.5820 O   0  0  0  0  0  1  0  0  0  0  0  0
  184.4680  178.8730  143.4930 C   0  0  0  0  0  3  0  0  0  0  0  0
  189.0370  177.2490  143.4200 C   0  0  0  0  0  0  0  0  0  0  0  0
  190.1360  177.3900  138.4690 C   0  0  0  0  0  3  0  0  0  0  0  0
  188.9830  177.5550  140.6510 C   0  0  0  0  0  0  0  0  0  0  0  0
  187.7910  178.2420  138.5300 C   0  0  0  0  0  2  0  0  0  0  0  0
  187.3830  177.3250  137.4270 C   0  0  0  0  0  0  0  0  0  0  0  0
  186.5850  175.5920  135.4160 C   0  0  0  0  0  0  0  0  0  0  0  0
  186.9460  177.8390  136.2050 C   0  0  0  0  0  3  0  0  0  0  0  0
  187.4040  175.9400  137.6170 C   0  0  0  0  0  3  0  0  0  0  0  0
  187.0090  175.1090  136.6160 N   0  0  0  0  0  0  0  0  0  0  0  0
  186.1630  174.6500  134.3460 C   0  0  0  0  0  1  0  0  0  0  0  0
  186.5450  176.9690  135.1890 C   0  0  0  0  0  3  0  0  0  0  0  0
  1 20  1  0  0  0  0
  2  7  1  0  0  0  0
  2 17  1  0  0  0  0
  4  9  2  0  0  0  0
  4 12  1  0  0  0  0
  5 18  1  0  0  0  0
  5  7  2  0  0  0  0
  6  9  1  0  0  0  0
  6 16  1  0  0  0  0
  7  4  1  0  0  0  0
  8 12  2  0  0  0  0
 10 14  1  0  0  0  0
 11  5  1  0  0  0  0
 13 15  1  0  0  0  0
 14  3  1  0  0  0  0
 14 18  2  0  0  0  0
 15 10  2  0  0  0  0
 17  6  2  0  0  0  0
 18  8  1  0  0  0  0
 19 13  2  0  0  0  0
 19  1  1  0  0  0  0
 20 10  1  0  0  0  0
 20 11  2  0  0  0  0
 21  1  1  0  0  0  0
 22 25  1  0  0  0  0
 22 21  1  0  0  0  0
 23 26  1  0  0  0  0
 24 22  2  0  0  0  0
 26 25  2  0  0  0  0
 27 23  1  0  0  0  0
 28 23  2  0  0  0  0
 28 24  1  0  0  0  0
M  END
>  <MODEL>
7

>  <REMARK>
 VINA RESULT:      -9.7      2.546      4.531
  Name = 
  2 active torsions:
  status: ('A' for Active; 'I' for Inactive)
    1  A    between atoms: N_1  and  C_2
    2  A    between atoms: C_2  and  C_3
                            x       y       z     vdW  Elec       q    Type
                         _______ _______ _______ _____ _____    ______ ____

>  <TORSDO>
F 2

$$$$
=
 OpenBabel10272401533D

 28 32  0  0  0  0  0  0  0  0999 V2000
  183.6410  178.6890  141.8480 N   0  0  0  0  0  0  0  0  0  0  0  0
  188.4980  177.7280  141.7830 C   0  0  0  0  0  2  0  0  0  0  0  0
  184.7530  178.3520  146.6750 C   0  0  0  0  0  1  0  0  0  0  0  0
  189.1690  177.5360  144.1100 C   0  0  0  0  0  0  0  0  0  0  0  0
  186.8730  178.0150  143.5180 C   0  0  0  0  0  0  0  0  0  0  0  0
  190.8000  177.2460  142.3390 C   0  0  0  0  0  0  0  0  0  0  0  0
  188.1510  177.7670  143.1470 C   0  0  0  0  0  0  0  0  0  0  0  0
  187.5380  177.8250  145.9650 C   0  0  0  0  0  3  0  0  0  0  0  0
  190.4790  177.2790  143.6960 C   0  0  0  0  0  3  0  0  0  0  0  0
  184.2140  178.5180  144.2250 C   0  0  0  0  0  0  0  0  0  0  0  0
  185.9190  178.2300  142.5680 N   0  0  0  0  0  0  0  0  0  0  0  0
  188.9090  177.5580  145.4190 C   0  0  0  0  0  3  0  0  0  0  0  0
  181.9540  178.9670  143.5160 C   0  0  0  0  0  3  0  0  0  0  0  0
  185.1660  178.3080  145.2340 C   0  0  0  0  0  0  0  0  0  0  0  0
  182.9630  178.7500  144.5200 N   0  0  0  0  0  0  0  0  0  0  0  0
  192.1040  176.9890  141.9400 O   0  0  0  0  0  1  0  0  0  0  0  0
  189.8100  177.4700  141.3820 C   0  0  0  0  0  3  0  0  0  0  0  0
  186.5080  178.0530  144.8850 C   0  0  0  0  0  0  0  0  0  0  0  0
  182.2800  178.9360  142.2230 C   0  0  0  0  0  3  0  0  0  0  0  0
  184.6190  178.4750  142.8800 C   0  0  0  0  0  0  0  0  0  0  0  0
  183.9910  178.6140  140.4350 C   0  0  0  0  0  2  0  0  0  0  0  0
  182.9430  177.8690  139.6800 C   0  0  0  0  0  0  0  0  0  0  0  0
  181.0190  176.5060  138.2210 C   0  0  0  0  0  0  0  0  0  0  0  0
  182.7630  176.4990  139.8830 C   0  0  0  0  0  3  0  0  0  0  0  0
  182.1510  178.5280  138.7360 C   0  0  0  0  0  3  0  0  0  0  0  0
  181.2120  177.8400  138.0330 N   0  0  0  0  0  0  0  0  0  0  0  0
  179.9820  175.7890  137.4340 C   0  0  0  0  0  1  0  0  0  0  0  0
  181.7940  175.8100  139.1510 C   0  0  0  0  0  3  0  0  0  0  0  0
  1 19  1  0  0  0  0
  1 20  1  0  0  0  0
  2  7  1  0  0  0  0
  4 12  1  0  0  0  0
  5 18  1  0  0  0  0
  6  9  1  0  0  0  0
  7  5  2  0  0  0  0
  7  4  1  0  0  0  0
  9  4  2  0  0  0  0
 10 15  2  0  0  0  0
 10 14  1  0  0  0  0
 11 20  2  0  0  0  0
 11  5  1  0  0  0  0
 12  8  2  0  0  0  0
 13 15  1  0  0  0  0
 14  3  1  0  0  0  0
 16  6  1  0  0  0  0
 17  2  1  0  0  0  0
 17  6  2  0  0  0  0
 18 14  2  0  0  0  0
 18  8  1  0  0  0  0
 19 13  2  0  0  0  0
 20 10  1  0  0  0  0
 21  1  1  0  0  0  0
 22 24  1  0  0  0  0
 22 21  1  0  0  0  0
 23 28  1  0  0  0  0
 25 22  2  0  0  0  0
 26 23  2  0  0  0  0
 26 25  1  0  0  0  0
 27 23  1  0  0  0  0
 28 24  2  0  0  0  0
M  END
>  <MODEL>
8

>  <REMARK>
 VINA RESULT:      -9.7      3.096      4.779
  Name = 
  2 active torsions:
  status: ('A' for Active; 'I' for Inactive)
    1  A    between atoms: N_1  and  C_2
    2  A    between atoms: C_2  and  C_3
                            x       y       z     vdW  Elec       q    Type
                         _______ _______ _______ _____ _____    ______ ____

>  <TORSDO>
F 2

$$$$
=
 OpenBabel10272401533D

 28 32  0  0  0  0  0  0  0  0999 V2000
  189.9260  177.6790  140.2380 N   0  0  0  0  0  0  0  0  0  0  0  0
  185.3060  178.5300  141.8010 C   0  0  0  0  0  2  0  0  0  0  0  0
  190.2950  177.0240  145.1450 C   0  0  0  0  0  1  0  0  0  0  0  0
  185.3560  178.2390  144.2130 C   0  0  0  0  0  0  0  0  0  0  0  0
  187.3560  177.9380  142.8860 C   0  0  0  0  0  0  0  0  0  0  0  0
  183.2890  178.8410  143.0960 C   0  0  0  0  0  0  0  0  0  0  0  0
  186.0360  178.2270  142.9660 C   0  0  0  0  0  0  0  0  0  0  0  0
  187.4470  177.6220  145.4080 C   0  0  0  0  0  3  0  0  0  0  0  0
  183.9930  178.5460  144.2640 C   0  0  0  0  0  3  0  0  0  0  0  0
  190.0840  177.3610  142.6630 C   0  0  0  0  0  0  0  0  0  0  0  0
  187.9800  177.9370  141.6740 N   0  0  0  0  0  0  0  0  0  0  0  0
  185.9880  177.9630  145.3550 C   0  0  0  0  0  3  0  0  0  0  0  0
  192.0160  177.1110  141.2440 C   0  0  0  0  0  3  0  0  0  0  0  0
  189.4790  177.3460  143.9290 C   0  0  0  0  0  0  0  0  0  0  0  0
  191.3560  177.1010  142.5240 N   0  0  0  0  0  0  0  0  0  0  0  0
  181.9360  179.1450  143.1590 O   0  0  0  0  0  1  0  0  0  0  0  0
  183.9450  178.8340  141.8650 C   0  0  0  0  0  3  0  0  0  0  0  0
  188.1050  177.6360  144.0490 C   0  0  0  0  0  0  0  0  0  0  0  0
  191.3270  177.3920  140.1380 C   0  0  0  0  0  3  0  0  0  0  0  0
  189.3030  177.6620  141.5340 C   0  0  0  0  0  0  0  0  0  0  0  0
  189.1800  178.0270  139.0350 C   0  0  0  0  0  2  0  0  0  0  0  0
  188.9070  176.8060  138.2230 C   0  0  0  0  0  0  0  0  0  0  0  0
  188.3640  174.5720  136.6730 C   0  0  0  0  0  0  0  0  0  0  0  0
  189.9600  176.0250  137.7440 C   0  0  0  0  0  3  0  0  0  0  0  0
  187.5930  176.4500  137.9050 C   0  0  0  0  0  3  0  0  0  0  0  0
  187.3500  175.3490  137.1440 N   0  0  0  0  0  0  0  0  0  0  0  0
  188.0570  173.3760  135.8460 C   0  0  0  0  0  1  0  0  0  0  0  0
  189.6900  174.8980  136.9650 C   0  0  0  0  0  3  0  0  0  0  0  0
  1 20  1  0  0  0  0
  2 17  1  0  0  0  0
  2  7  1  0  0  0  0
  4  9  2  0  0  0  0
  4 12  1  0  0  0  0
  5  7  2  0  0  0  0
  5 18  1  0  0  0  0
  6 16  1  0  0  0  0
  6  9  1  0  0  0  0
  7  4  1  0  0  0  0
 10 14  1  0  0  0  0
 11  5  1  0  0  0  0
 12  8  2  0  0  0  0
 13 15  1  0  0  0  0
 14 18  2  0  0  0  0
 14  3  1  0  0  0  0
 15 10  2  0  0  0  0
 17  6  2  0  0  0  0
 18  8  1  0  0  0  0
 19  1  1  0  0  0  0
 19 13  2  0  0  0  0
 20 11  2  0  0  0  0
 20 10  1  0  0  0  0
 21  1  1  0  0  0  0
 22 21  1  0  0  0  0
 23 28  2  0  0  0  0
 23 26  1  0  0  0  0
 24 22  2  0  0  0  0
 25 22  1  0  0  0  0
 26 25  2  0  0  0  0
 27 23  1  0  0  0  0
 28 24  1  0  0  0  0
M  END
>  <MODEL>
9

>  <REMARK>
 VINA RESULT:      -9.7      2.851      4.970
  Name = 
  2 active torsions:
  status: ('A' for Active; 'I' for Inactive)
    1  A    between atoms: N_1  and  C_2
    2  A    between atoms: C_2  and  C_3
                            x       y       z     vdW  Elec       q    Type
                         _______ _______ _______ _____ _____    ______ ____

>  <TORSDO>
F 2

$$$$
