=
 OpenBabel10272413583D

 30 34  0  0  1  0  0  0  0  0999 V2000
  182.5030  178.4410  136.3980 C   0  0  0  0  0  2  0  0  0  0  0  0
  180.6760  178.8970  138.0390 C   0  0  0  0  0  0  0  0  0  0  0  0
  183.8760  178.7980  139.2030 C   0  0  0  0  0  2  0  0  0  0  0  0
  182.9100  177.0980  135.7740 C   0  0  2  0  0  3  0  0  0  0  0  0
  182.0520  175.8910  136.2120 C   0  0  2  0  0  3  0  0  0  0  0  0
  184.6600  172.0250  135.8600 C   0  0  0  0  0  2  0  0  0  0  0  0
  182.7980  174.6080  136.2290 N   0  0  0  0  0  0  0  0  0  0  0  0
  186.2520  175.9290  136.8560 O   0  0  0  0  0  0  0  0  0  0  0  0
  185.2710  178.2380  138.9670 C   0  0  0  0  0  2  0  0  0  0  0  0
  180.8100  175.8860  135.3170 C   0  0  0  0  0  1  0  0  0  0  0  0
  183.4010  174.5160  137.5580 C   0  0  0  0  0  2  0  0  0  0  0  0
  179.9830  178.6250  139.3370 C   0  0  0  0  0  2  0  0  0  0  0  0
  185.8660  174.5820  136.6470 C   0  0  2  0  0  3  0  0  0  0  0  0
  185.3500  172.9420  134.8760 C   0  0  0  0  0  3  0  0  0  0  0  0
  180.0870  179.5940  137.1710 O   0  0  0  0  0  0  0  0  0  0  0  0
  182.8130  177.7770  138.8220 C   0  0  2  0  0  3  0  0  0  0  0  0
  180.9850  178.3830  140.4570 C   0  0  0  0  0  2  0  0  0  0  0  0
  181.9560  178.3040  137.7490 N   0  0  0  0  0  0  0  0  0  0  0  0
  184.4220  176.9210  135.6210 C   0  0  0  0  0  2  0  0  0  0  0  0
  185.5630  178.1200  137.4800 C   0  0  0  0  0  2  0  0  0  0  0  0
  185.1250  176.7610  136.9640 C   0  0  2  0  0  3  0  0  0  0  0  0
  185.8600  174.1340  135.2150 C   0  0  0  0  0  3  0  0  0  0  0  0
  184.8540  172.4080  137.3360 C   0  0  0  0  0  2  0  0  0  0  0  0
  182.0250  177.3370  140.0590 C   0  0  1  0  0  3  0  0  0  0  0  0
  181.3860  175.9750  139.8430 C   0  0  0  0  0  1  0  0  0  0  0  0
  184.8250  173.9210  137.5670 C   0  0  2  0  0  3  0  0  0  0  0  0
  181.8710  173.4760  136.1730 C   0  0  0  0  0  2  0  0  0  0  0  0
  181.1380  171.7970  137.6890 O   0  0  0  0  0  0  0  0  0  0  0  0
  179.9820  172.5510  137.4280 C   0  0  0  0  0  2  0  0  0  0  0  0
  181.3100  173.1870  137.5540 C   0  0  2  0  0  3  0  0  0  0  0  0
  1 18  1  0  0  0  0
  2 12  1  0  0  0  0
  4 19  1  1  0  0  0
  4  5  1  0  0  0  0
  4  1  1  0  0  0  0
  5 10  1  6  0  0  0
  5  7  1  0  0  0  0
  6 23  1  0  0  0  0
  7 11  1  0  0  0  0
  8 21  1  0  0  0  0
  9  3  1  0  0  0  0
 11 26  1  0  0  0  0
 12 17  1  0  0  0  0
 13 22  1  6  0  0  0
 13  8  1  0  0  0  0
 13 26  1  0  0  0  0
 14 22  2  0  0  0  0
 14  6  1  0  0  0  0
 15  2  2  0  0  0  0
 16  3  1  1  0  0  0
 16 24  1  0  0  0  0
 18  2  1  0  0  0  0
 18 16  1  0  0  0  0
 20  9  1  0  0  0  0
 21 19  1  6  0  0  0
 21 20  1  0  0  0  0
 24 25  1  6  0  0  0
 24 17  1  0  0  0  0
 26 23  1  6  0  0  0
 27  7  1  0  0  0  0
 29 30  1  0  0  0  0
 29 28  1  0  0  0  0
 30 27  1  6  0  0  0
 30 28  1  0  0  0  0
M  END
>  <MODEL>
1

>  <REMARK>
 VINA RESULT:      -4.4      0.000      0.000
  Name = 
  2 active torsions:
  status: ('A' for Active; 'I' for Inactive)
    1  A    between atoms: C_6  and  N_8
    2  A    between atoms: C_6  and  C_21
                            x       y       z     vdW  Elec       q    Type
                         _______ _______ _______ _____ _____    ______ ____

>  <TORSDO>
F 2

$$$$
=
 OpenBabel10272413583D

 30 34  0  0  1  0  0  0  0  0999 V2000
  188.3930  175.8270  134.3880 C   0  0  0  0  0  2  0  0  0  0  0  0
  189.1910  177.8320  135.6470 C   0  0  0  0  0  0  0  0  0  0  0  0
  189.9960  174.7560  136.8710 C   0  0  0  0  0  2  0  0  0  0  0  0
  186.9840  175.2180  134.3620 C   0  0  2  0  0  3  0  0  0  0  0  0
  185.9350  175.9690  135.2100 C   0  0  2  0  0  3  0  0  0  0  0  0
  182.6370  172.9200  136.5130 C   0  0  0  0  0  2  0  0  0  0  0  0
  184.8760  175.0870  135.7610 N   0  0  0  0  0  0  0  0  0  0  0  0
  186.8010  171.8740  135.9400 O   0  0  0  0  0  0  0  0  0  0  0  0
  189.5880  173.2910  136.9270 C   0  0  0  0  0  2  0  0  0  0  0  0
  185.4110  177.1180  134.3460 C   0  0  0  0  0  1  0  0  0  0  0  0
  185.3900  174.5970  137.0390 C   0  0  0  0  0  2  0  0  0  0  0  0
  189.3510  178.6010  136.9200 C   0  0  0  0  0  2  0  0  0  0  0  0
  185.4390  172.0850  136.2670 C   0  0  2  0  0  3  0  0  0  0  0  0
  183.1870  172.2540  135.2720 C   0  0  0  0  0  3  0  0  0  0  0  0
  189.4080  178.4170  134.5530 O   0  0  0  0  0  0  0  0  0  0  0  0
  188.7700  175.6590  136.8870 C   0  0  2  0  0  3  0  0  0  0  0  0
  189.7040  177.6810  138.0800 C   0  0  0  0  0  2  0  0  0  0  0  0
  188.7160  176.4720  135.6630 N   0  0  0  0  0  0  0  0  0  0  0  0
  186.9720  173.6880  134.3470 C   0  0  0  0  0  2  0  0  0  0  0  0
  188.9440  172.8580  135.6200 C   0  0  0  0  0  2  0  0  0  0  0  0
  187.4450  173.0930  135.6680 C   0  0  2  0  0  3  0  0  0  0  0  0
  184.4750  171.9140  135.1310 C   0  0  0  0  0  3  0  0  0  0  0  0
  183.5850  172.9010  137.7220 C   0  0  0  0  0  2  0  0  0  0  0  0
  188.7400  176.4980  138.1670 C   0  0  1  0  0  3  0  0  0  0  0  0
  187.3260  176.9570  138.4850 C   0  0  0  0  0  1  0  0  0  0  0  0
  185.0480  173.1220  137.3350 C   0  0  2  0  0  3  0  0  0  0  0  0
  183.6940  175.8720  136.1240 C   0  0  0  0  0  2  0  0  0  0  0  0
  182.6270  176.5760  138.1290 O   0  0  0  0  0  0  0  0  0  0  0  0
  183.1190  177.7650  137.5670 C   0  0  0  0  0  2  0  0  0  0  0  0
  183.8800  176.5000  137.4930 C   0  0  2  0  0  3  0  0  0  0  0  0
  1 18  1  0  0  0  0
  2 18  1  0  0  0  0
  2 12  1  0  0  0  0
  3  9  1  0  0  0  0
  4 19  1  1  0  0  0
  4  1  1  0  0  0  0
  4  5  1  0  0  0  0
  5 10  1  6  0  0  0
  5  7  1  0  0  0  0
  6 23  1  0  0  0  0
  7 27  1  0  0  0  0
  7 11  1  0  0  0  0
  8 13  1  0  0  0  0
 12 17  1  0  0  0  0
 13 22  1  6  0  0  0
 13 26  1  0  0  0  0
 14  6  1  0  0  0  0
 15  2  2  0  0  0  0
 16  3  1  6  0  0  0
 16 24  1  0  0  0  0
 17 24  1  0  0  0  0
 18 16  1  0  0  0  0
 20 21  1  0  0  0  0
 20  9  1  0  0  0  0
 21 19  1  6  0  0  0
 21  8  1  0  0  0  0
 22 14  2  0  0  0  0
 24 25  1  6  0  0  0
 26 11  1  6  0  0  0
 26 23  1  0  0  0  0
 29 28  1  0  0  0  0
 30 27  1  6  0  0  0
 30 29  1  0  0  0  0
 30 28  1  0  0  0  0
M  END
>  <MODEL>
2

>  <REMARK>
 VINA RESULT:      -3.6      2.932      5.694
  Name = 
  2 active torsions:
  status: ('A' for Active; 'I' for Inactive)
    1  A    between atoms: C_6  and  N_8
    2  A    between atoms: C_6  and  C_21
                            x       y       z     vdW  Elec       q    Type
                         _______ _______ _______ _____ _____    ______ ____

>  <TORSDO>
F 2

$$$$
=
 OpenBabel10272413583D

 30 34  0  0  1  0  0  0  0  0999 V2000
  184.7450  175.9860  134.6420 C   0  0  0  0  0  2  0  0  0  0  0  0
  186.4690  174.2220  135.0370 C   0  0  0  0  0  0  0  0  0  0  0  0
  183.2480  173.2240  134.5540 C   0  0  0  0  0  2  0  0  0  0  0  0
  184.0840  176.9170  135.6680 C   0  0  2  0  0  3  0  0  0  0  0  0
  184.5770  176.7410  137.1200 C   0  0  2  0  0  3  0  0  0  0  0  0
  181.1510  178.0670  140.0130 C   0  0  0  0  0  2  0  0  0  0  0  0
  183.5440  177.0470  138.1400 N   0  0  0  0  0  0  0  0  0  0  0  0
  180.4720  176.2520  136.1400 O   0  0  0  0  0  0  0  0  0  0  0  0
  181.7860  173.6310  134.6700 C   0  0  0  0  0  2  0  0  0  0  0  0
  185.8580  177.5690  137.2540 C   0  0  0  0  0  1  0  0  0  0  0  0
  182.8160  175.7970  138.3570 C   0  0  0  0  0  2  0  0  0  0  0  0
  186.9520  172.9990  135.7500 C   0  0  0  0  0  2  0  0  0  0  0  0
  180.5360  176.7530  137.4630 C   0  0  2  0  0  3  0  0  0  0  0  0
  180.7990  178.8360  138.7600 C   0  0  0  0  0  3  0  0  0  0  0  0
  187.2880  174.8840  134.3460 O   0  0  0  0  0  0  0  0  0  0  0  0
  184.0610  173.7940  135.7090 C   0  0  2  0  0  3  0  0  0  0  0  0
  185.8220  172.0000  135.9600 C   0  0  0  0  0  2  0  0  0  0  0  0
  185.1160  174.6850  135.2030 N   0  0  0  0  0  0  0  0  0  0  0  0
  182.5950  177.1600  135.4120 C   0  0  0  0  0  2  0  0  0  0  0  0
  181.6130  175.1150  134.3870 C   0  0  0  0  0  2  0  0  0  0  0  0
  181.7530  175.9150  135.6700 C   0  0  2  0  0  3  0  0  0  0  0  0
  180.5660  178.2480  137.5790 C   0  0  0  0  0  3  0  0  0  0  0  0
  180.9200  176.5510  139.9190 C   0  0  0  0  0  2  0  0  0  0  0  0
  184.6000  172.6650  136.5910 C   0  0  1  0  0  3  0  0  0  0  0  0
  184.9050  173.1680  137.9930 C   0  0  0  0  0  1  0  0  0  0  0  0
  181.2960  175.9750  138.5520 C   0  0  2  0  0  3  0  0  0  0  0  0
  184.1690  177.3310  139.4330 C   0  0  0  0  0  2  0  0  0  0  0  0
  185.5880  179.1010  140.1470 O   0  0  0  0  0  0  0  0  0  0  0  0
  184.5260  179.1210  141.0660 C   0  0  0  0  0  2  0  0  0  0  0  0
  184.3050  178.8290  139.6340 C   0  0  2  0  0  3  0  0  0  0  0  0
  1 18  1  0  0  0  0
  2 18  1  0  0  0  0
  2 12  1  0  0  0  0
  3  9  1  0  0  0  0
  4  1  1  6  0  0  0
  4  5  1  0  0  0  0
  5 10  1  1  0  0  0
  5  7  1  0  0  0  0
  7 11  1  0  0  0  0
  7 27  1  0  0  0  0
  8 13  1  0  0  0  0
 12 17  1  0  0  0  0
 13 22  1  6  0  0  0
 13 26  1  0  0  0  0
 14  6  1  0  0  0  0
 15  2  2  0  0  0  0
 16  3  1  6  0  0  0
 16 24  1  0  0  0  0
 17 24  1  0  0  0  0
 18 16  1  0  0  0  0
 19  4  1  0  0  0  0
 19 21  1  0  0  0  0
 20  9  1  0  0  0  0
 21 20  1  6  0  0  0
 21  8  1  0  0  0  0
 22 14  2  0  0  0  0
 23  6  1  0  0  0  0
 24 25  1  1  0  0  0
 26 11  1  6  0  0  0
 26 23  1  0  0  0  0
 28 29  1  0  0  0  0
 30 27  1  1  0  0  0
 30 28  1  0  0  0  0
 30 29  1  0  0  0  0
M  END
>  <MODEL>
3

>  <REMARK>
 VINA RESULT:      -3.5      1.839      6.360
  Name = 
  2 active torsions:
  status: ('A' for Active; 'I' for Inactive)
    1  A    between atoms: C_6  and  N_8
    2  A    between atoms: C_6  and  C_21
                            x       y       z     vdW  Elec       q    Type
                         _______ _______ _______ _____ _____    ______ ____

>  <TORSDO>
F 2

$$$$
=
 OpenBabel10272413583D

 30 34  0  0  1  0  0  0  0  0999 V2000
  183.9260  176.1510  134.9560 C   0  0  0  0  0  2  0  0  0  0  0  0
  184.7930  174.0630  136.0170 C   0  0  0  0  0  0  0  0  0  0  0  0
  181.4880  174.1820  135.2020 C   0  0  0  0  0  2  0  0  0  0  0  0
  183.5960  177.4920  135.6240 C   0  0  2  0  0  3  0  0  0  0  0  0
  183.8630  177.5460  137.1440 C   0  0  2  0  0  3  0  0  0  0  0  0
  180.9950  180.7180  139.0350 C   0  0  0  0  0  2  0  0  0  0  0  0
  182.9490  178.4580  137.8760 N   0  0  0  0  0  0  0  0  0  0  0  0
  179.9830  178.3030  135.5850 O   0  0  0  0  0  0  0  0  0  0  0  0
  180.2940  175.0970  134.9690 C   0  0  0  0  0  2  0  0  0  0  0  0
  185.3490  177.8690  137.3190 C   0  0  0  0  0  1  0  0  0  0  0  0
  181.7790  177.6530  138.2250 C   0  0  0  0  0  2  0  0  0  0  0  0
  184.7050  172.9840  137.0510 C   0  0  0  0  0  2  0  0  0  0  0  0
  180.1290  179.0800  136.7600 C   0  0  2  0  0  3  0  0  0  0  0  0
  181.0710  181.1990  137.6040 C   0  0  0  0  0  3  0  0  0  0  0  0
  185.8580  174.1820  135.3550 O   0  0  0  0  0  0  0  0  0  0  0  0
  182.3610  174.7120  136.3310 C   0  0  2  0  0  3  0  0  0  0  0  0
  183.2630  172.5460  137.2690 C   0  0  0  0  0  2  0  0  0  0  0  0
  183.7160  175.0020  135.8400 N   0  0  0  0  0  0  0  0  0  0  0  0
  182.3430  178.1700  135.0640 C   0  0  0  0  0  2  0  0  0  0  0  0
  180.7330  176.4130  134.3470 C   0  0  0  0  0  2  0  0  0  0  0  0
  181.0670  177.4220  135.4320 C   0  0  2  0  0  3  0  0  0  0  0  0
  180.7250  180.4420  136.5550 C   0  0  0  0  0  3  0  0  0  0  0  0
  180.2030  179.4160  139.2300 C   0  0  0  0  0  2  0  0  0  0  0  0
  182.3470  173.7440  137.5170 C   0  0  1  0  0  3  0  0  0  0  0  0
  182.7080  174.4580  138.8090 C   0  0  0  0  0  1  0  0  0  0  0  0
  180.4360  178.4040  138.1070 C   0  0  2  0  0  3  0  0  0  0  0  0
  183.5280  178.8340  139.1670 C   0  0  0  0  0  2  0  0  0  0  0  0
  182.7000  178.4500  141.3630 O   0  0  0  0  0  0  0  0  0  0  0  0
  184.0300  178.0030  141.4160 C   0  0  0  0  0  2  0  0  0  0  0  0
  183.1890  177.7930  140.2190 C   0  0  2  0  0  3  0  0  0  0  0  0
  1 18  1  0  0  0  0
  2 12  1  0  0  0  0
  4  1  1  1  0  0  0
  4  5  1  0  0  0  0
  5 10  1  6  0  0  0
  5  7  1  0  0  0  0
  6 23  1  0  0  0  0
  7 11  1  0  0  0  0
  7 27  1  0  0  0  0
  8 13  1  0  0  0  0
  9  3  1  0  0  0  0
 12 17  1  0  0  0  0
 13 22  1  6  0  0  0
 13 26  1  0  0  0  0
 14  6  1  0  0  0  0
 15  2  2  0  0  0  0
 16  3  1  6  0  0  0
 16 24  1  0  0  0  0
 17 24  1  0  0  0  0
 18  2  1  0  0  0  0
 18 16  1  0  0  0  0
 19 21  1  0  0  0  0
 19  4  1  0  0  0  0
 20  9  1  0  0  0  0
 21 20  1  6  0  0  0
 21  8  1  0  0  0  0
 22 14  2  0  0  0  0
 24 25  1  1  0  0  0
 26 11  1  6  0  0  0
 26 23  1  0  0  0  0
 28 29  1  0  0  0  0
 30 27  1  6  0  0  0
 30 28  1  0  0  0  0
 30 29  1  0  0  0  0
M  END
>  <MODEL>
4

>  <REMARK>
 VINA RESULT:      -2.8      1.734      6.264
  Name = 
  2 active torsions:
  status: ('A' for Active; 'I' for Inactive)
    1  A    between atoms: C_6  and  N_8
    2  A    between atoms: C_6  and  C_21
                            x       y       z     vdW  Elec       q    Type
                         _______ _______ _______ _____ _____    ______ ____

>  <TORSDO>
F 2

$$$$
=
 OpenBabel10272413583D

 30 34  0  0  1  0  0  0  0  0999 V2000
  187.9380  176.8000  134.3620 C   0  0  0  0  0  2  0  0  0  0  0  0
  190.1940  176.2020  135.2520 C   0  0  0  0  0  0  0  0  0  0  0  0
  187.8520  173.7360  135.0600 C   0  0  0  0  0  2  0  0  0  0  0  0
  186.7980  177.5390  135.0770 C   0  0  2  0  0  3  0  0  0  0  0  0
  187.1150  177.9840  136.5210 C   0  0  2  0  0  3  0  0  0  0  0  0
  183.0970  178.2420  138.8990 C   0  0  0  0  0  2  0  0  0  0  0  0
  185.9250  178.0190  137.4060 N   0  0  0  0  0  0  0  0  0  0  0  0
  183.8320  175.4140  135.7020 O   0  0  0  0  0  0  0  0  0  0  0  0
  186.3610  173.4310  135.0480 C   0  0  0  0  0  2  0  0  0  0  0  0
  187.8620  179.3160  136.4180 C   0  0  0  0  0  1  0  0  0  0  0  0
  185.8060  176.6740  137.9680 C   0  0  0  0  0  2  0  0  0  0  0  0
  191.0680  175.5670  136.2870 C   0  0  0  0  0  2  0  0  0  0  0  0
  183.4860  176.2010  136.8270 C   0  0  2  0  0  3  0  0  0  0  0  0
  182.6150  178.4170  137.4770 C   0  0  0  0  0  3  0  0  0  0  0  0
  190.7190  176.9720  134.4050 O   0  0  0  0  0  0  0  0  0  0  0  0
  188.1610  174.8870  136.0070 C   0  0  2  0  0  3  0  0  0  0  0  0
  190.4830  174.2460  136.7680 C   0  0  0  0  0  2  0  0  0  0  0  0
  188.7680  176.0080  135.2730 N   0  0  0  0  0  0  0  0  0  0  0  0
  185.4070  176.9890  134.7550 C   0  0  0  0  0  2  0  0  0  0  0  0
  185.5880  174.5400  134.3530 C   0  0  0  0  0  2  0  0  0  0  0  0
  185.1800  175.6060  135.3540 C   0  0  2  0  0  3  0  0  0  0  0  0
  182.8310  177.5130  136.5120 C   0  0  0  0  0  3  0  0  0  0  0  0
  183.5800  176.8240  139.2410 C   0  0  0  0  0  2  0  0  0  0  0  0
  189.0190  174.4010  137.1780 C   0  0  1  0  0  3  0  0  0  0  0  0
  188.8740  175.3210  138.3790 C   0  0  0  0  0  1  0  0  0  0  0  0
  184.3550  176.1670  138.0970 C   0  0  2  0  0  3  0  0  0  0  0  0
  186.1750  178.8750  138.5670 C   0  0  0  0  0  2  0  0  0  0  0  0
  186.9790  178.9000  140.8060 O   0  0  0  0  0  0  0  0  0  0  0  0
  188.1370  178.7400  140.0280 C   0  0  0  0  0  2  0  0  0  0  0  0
  186.8630  178.0840  139.6650 C   0  0  2  0  0  3  0  0  0  0  0  0
  1 18  1  0  0  0  0
  2 18  1  0  0  0  0
  2 12  1  0  0  0  0
  4  1  1  1  0  0  0
  4  5  1  0  0  0  0
  5 10  1  6  0  0  0
  5  7  1  0  0  0  0
  6 23  1  0  0  0  0
  7 11  1  0  0  0  0
  7 27  1  0  0  0  0
  8 13  1  0  0  0  0
  9  3  1  0  0  0  0
 12 17  1  0  0  0  0
 13 22  1  6  0  0  0
 13 26  1  0  0  0  0
 14  6  1  0  0  0  0
 15  2  2  0  0  0  0
 16  3  1  6  0  0  0
 16 24  1  0  0  0  0
 17 24  1  0  0  0  0
 18 16  1  0  0  0  0
 19  4  1  0  0  0  0
 19 21  1  0  0  0  0
 20  9  1  0  0  0  0
 21 20  1  6  0  0  0
 21  8  1  0  0  0  0
 22 14  2  0  0  0  0
 24 25  1  1  0  0  0
 26 11  1  6  0  0  0
 26 23  1  0  0  0  0
 29 28  1  0  0  0  0
 30 27  1  6  0  0  0
 30 29  1  0  0  0  0
 30 28  1  0  0  0  0
M  END
>  <MODEL>
5

>  <REMARK>
 VINA RESULT:      -1.9      3.048      7.093
  Name = 
  2 active torsions:
  status: ('A' for Active; 'I' for Inactive)
    1  A    between atoms: C_6  and  N_8
    2  A    between atoms: C_6  and  C_21
                            x       y       z     vdW  Elec       q    Type
                         _______ _______ _______ _____ _____    ______ ____

>  <TORSDO>
F 2

$$$$
