=
 OpenBabel10272400483D

 25 27  0  0  1  0  0  0  0  0999 V2000
  187.4210  177.8510  145.2390 C   0  0  0  0  0  0  0  0  0  0  0  0
  186.3260  178.3470  144.3660 C   0  0  0  0  0  0  0  0  0  0  0  0
  185.9700  178.3060  147.1960 C   0  0  0  0  0  2  0  0  0  0  0  0
  185.1840  179.0980  146.3060 O   0  0  0  0  0  0  0  0  0  0  0  0
  184.1430  179.5080  144.0700 C   0  0  2  0  0  3  0  0  0  0  0  0
  182.8960  178.6680  144.2660 C   0  0  0  0  0  1  0  0  0  0  0  0
  186.4530  178.2560  142.9380 N   0  0  0  0  0  0  0  0  0  0  0  0
  187.2780  177.8920  146.5820 C   0  0  0  0  0  0  0  0  0  0  0  0
  188.5060  177.2740  147.6800 Cl  0  0  0  0  0  0  0  0  0  0  0  0
  184.4880  179.5360  142.6500 N   0  0  0  0  0  2  0  0  0  0  0  0
  185.6000  178.8040  142.1310 C   0  0  0  0  0  0  0  0  0  0  0  0
  185.2610  178.9600  144.9180 C   0  0  0  0  0  0  0  0  0  0  0  0
  188.6650  177.3470  144.6160 C   0  0  0  0  0  0  0  0  0  0  0  0
  191.0100  176.4150  143.3950 C   0  0  0  0  0  3  0  0  0  0  0  0
  189.9020  177.9360  144.9170 C   0  0  0  0  0  3  0  0  0  0  0  0
  191.0720  177.4690  144.3100 C   0  0  0  0  0  3  0  0  0  0  0  0
  189.7810  175.8280  143.0840 C   0  0  0  0  0  3  0  0  0  0  0  0
  188.6110  176.2950  143.6920 C   0  0  0  0  0  3  0  0  0  0  0  0
  185.8440  178.6860  140.3660 S   0  0  0  0  0  0  0  0  0  0  0  0
  187.6420  178.4530  140.5570 C   0  0  0  0  0  2  0  0  0  0  0  0
  188.2420  177.6280  139.4240 C   0  0  2  0  0  3  0  0  0  0  0  0
  189.5300  177.1940  139.7480 O   0  0  0  0  0  1  0  0  0  0  0  0
  188.2370  178.3740  138.1270 C   0  0  0  0  0  0  0  0  0  0  0  0
  187.4020  177.9560  137.0990 O   0  0  0  0  0  0  0  0  0  0  0  0
  188.9550  179.3970  137.9710 O   0  0  0  0  0  1  0  0  0  0  0  0
  1  8  2  0  0  0  0
  2 12  2  0  0  0  0
  2  1  1  0  0  0  0
  4  3  1  0  0  0  0
  5  6  1  6  0  0  0
  5 12  1  0  0  0  0
  7  2  1  0  0  0  0
  8  3  1  0  0  0  0
  8  9  1  0  0  0  0
 10  5  1  0  0  0  0
 11 10  1  0  0  0  0
 11  7  2  0  0  0  0
 12  4  1  0  0  0  0
 13 15  1  0  0  0  0
 13  1  1  0  0  0  0
 14 16  1  0  0  0  0
 16 15  2  0  0  0  0
 17 14  2  0  0  0  0
 17 18  1  0  0  0  0
 18 13  2  0  0  0  0
 19 20  1  0  0  0  0
 19 11  1  0  0  0  0
 21 22  1  1  0  0  0
 21 20  1  0  0  0  0
 23 21  1  0  0  0  0
 24 23  2  0  0  0  0
 25 23  1  0  0  0  0
M  END
>  <MODEL>
1

>  <REMARK>
 VINA RESULT:      -8.4      0.000      0.000
  Name = 
  5 active torsions:
  status: ('A' for Active; 'I' for Inactive)
    1  A    between atoms: C_1  and  C_5
    2  A    between atoms: C_2  and  C_21
    3  A    between atoms: S_6  and  C_15
    4  A    between atoms: S_6  and  C_23
    5  A    between atoms: C_15  and  C_21
                            x       y       z     vdW  Elec       q    Type
                         _______ _______ _______ _____ _____    ______ ____

>  <TORSDO>
F 5

$$$$
=
 OpenBabel10272400483D

 25 27  0  0  1  0  0  0  0  0999 V2000
  187.5580  177.7790  143.9130 C   0  0  0  0  0  0  0  0  0  0  0  0
  186.9610  178.0910  142.5880 C   0  0  0  0  0  0  0  0  0  0  0  0
  185.3480  178.2390  144.9370 C   0  0  0  0  0  2  0  0  0  0  0  0
  185.0180  178.8750  143.7020 O   0  0  0  0  0  0  0  0  0  0  0  0
  185.1000  178.9990  141.2060 C   0  0  2  0  0  3  0  0  0  0  0  0
  183.9490  178.0560  140.9150 C   0  0  0  0  0  1  0  0  0  0  0  0
  187.7350  177.9000  141.3930 N   0  0  0  0  0  0  0  0  0  0  0  0
  186.8120  177.9120  145.0310 C   0  0  0  0  0  0  0  0  0  0  0  0
  187.4300  177.5100  146.6300 Cl  0  0  0  0  0  0  0  0  0  0  0  0
  186.0560  178.9480  140.1030 N   0  0  0  0  0  2  0  0  0  0  0  0
  187.3200  178.2930  140.2300 C   0  0  0  0  0  0  0  0  0  0  0  0
  185.7310  178.6350  142.5250 C   0  0  0  0  0  0  0  0  0  0  0  0
  188.9740  177.3550  143.9820 C   0  0  0  0  0  0  0  0  0  0  0  0
  191.6620  176.5640  144.0660 C   0  0  0  0  0  3  0  0  0  0  0  0
  189.9350  178.1770  144.5890 C   0  0  0  0  0  3  0  0  0  0  0  0
  191.2750  177.7810  144.6330 C   0  0  0  0  0  3  0  0  0  0  0  0
  190.7120  175.7430  143.4530 C   0  0  0  0  0  3  0  0  0  0  0  0
  189.3720  176.1390  143.4100 C   0  0  0  0  0  3  0  0  0  0  0  0
  188.3540  178.0610  138.7920 S   0  0  0  0  0  0  0  0  0  0  0  0
  189.6700  177.2730  139.7770 C   0  0  0  0  0  2  0  0  0  0  0  0
  190.8370  176.8050  138.9130 C   0  0  2  0  0  3  0  0  0  0  0  0
  190.7240  175.4450  138.6150 O   0  0  0  0  0  1  0  0  0  0  0  0
  192.1570  177.1090  139.5470 C   0  0  0  0  0  0  0  0  0  0  0  0
  193.3280  176.8700  138.8390 O   0  0  0  0  0  0  0  0  0  0  0  0
  192.2160  177.6120  140.7000 O   0  0  0  0  0  1  0  0  0  0  0  0
  1 13  1  0  0  0  0
  1  8  2  0  0  0  0
  2  1  1  0  0  0  0
  3  8  1  0  0  0  0
  4  3  1  0  0  0  0
  5  6  1  6  0  0  0
  5 12  1  0  0  0  0
  7  2  1  0  0  0  0
  8  9  1  0  0  0  0
 10 11  1  0  0  0  0
 10  5  1  0  0  0  0
 11  7  2  0  0  0  0
 12  2  2  0  0  0  0
 12  4  1  0  0  0  0
 13 15  1  0  0  0  0
 14 16  1  0  0  0  0
 15 16  2  0  0  0  0
 17 14  2  0  0  0  0
 18 17  1  0  0  0  0
 18 13  2  0  0  0  0
 19 20  1  0  0  0  0
 19 11  1  0  0  0  0
 21 22  1  1  0  0  0
 21 23  1  0  0  0  0
 21 20  1  0  0  0  0
 23 25  1  0  0  0  0
 24 23  2  0  0  0  0
M  END
>  <MODEL>
2

>  <REMARK>
 VINA RESULT:      -8.2      2.068      2.705
  Name = 
  5 active torsions:
  status: ('A' for Active; 'I' for Inactive)
    1  A    between atoms: C_1  and  C_5
    2  A    between atoms: C_2  and  C_21
    3  A    between atoms: S_6  and  C_15
    4  A    between atoms: S_6  and  C_23
    5  A    between atoms: C_15  and  C_21
                            x       y       z     vdW  Elec       q    Type
                         _______ _______ _______ _____ _____    ______ ____

>  <TORSDO>
F 5

$$$$
=
 OpenBabel10272400483D

 25 27  0  0  1  0  0  0  0  0999 V2000
  187.1450  177.8740  145.1430 C   0  0  0  0  0  0  0  0  0  0  0  0
  186.0140  178.3690  144.3140 C   0  0  0  0  0  0  0  0  0  0  0  0
  185.7460  178.2590  147.1520 C   0  0  0  0  0  2  0  0  0  0  0  0
  184.9200  179.0560  146.3050 O   0  0  0  0  0  0  0  0  0  0  0  0
  183.8040  179.4970  144.1100 C   0  0  2  0  0  3  0  0  0  0  0  0
  182.5780  178.6300  144.3250 C   0  0  0  0  0  1  0  0  0  0  0  0
  186.1000  178.3120  142.8810 N   0  0  0  0  0  0  0  0  0  0  0  0
  187.0410  177.8830  146.4890 C   0  0  0  0  0  0  0  0  0  0  0  0
  188.3140  177.2620  147.5360 Cl  0  0  0  0  0  0  0  0  0  0  0  0
  184.1050  179.5620  142.6820 N   0  0  0  0  0  2  0  0  0  0  0  0
  185.2130  178.8620  142.1120 C   0  0  0  0  0  0  0  0  0  0  0  0
  184.9570  178.9500  144.9120 C   0  0  0  0  0  0  0  0  0  0  0  0
  188.3780  177.4070  144.4700 C   0  0  0  0  0  0  0  0  0  0  0  0
  190.7280  176.5030  143.2370 C   0  0  0  0  0  3  0  0  0  0  0  0
  188.3520  176.2740  143.6430 C   0  0  0  0  0  3  0  0  0  0  0  0
  189.5240  175.8250  143.0270 C   0  0  0  0  0  3  0  0  0  0  0  0
  190.7620  177.6280  144.0650 C   0  0  0  0  0  3  0  0  0  0  0  0
  189.5900  178.0770  144.6810 C   0  0  0  0  0  3  0  0  0  0  0  0
  185.4050  178.7880  140.3390 S   0  0  0  0  0  0  0  0  0  0  0  0
  183.6740  178.2690  140.1000 C   0  0  0  0  0  2  0  0  0  0  0  0
  182.8870  179.2550  139.2440 C   0  0  2  0  0  3  0  0  0  0  0  0
  183.6350  180.4090  138.9960 O   0  0  0  0  0  1  0  0  0  0  0  0
  181.5640  179.5930  139.8560 C   0  0  0  0  0  0  0  0  0  0  0  0
  180.7190  180.4860  139.2110 O   0  0  0  0  0  0  0  0  0  0  0  0
  181.1940  179.0490  140.9290 O   0  0  0  0  0  1  0  0  0  0  0  0
  1  8  2  0  0  0  0
  2 12  2  0  0  0  0
  2  1  1  0  0  0  0
  4  3  1  0  0  0  0
  5  6  1  6  0  0  0
  5 12  1  0  0  0  0
  7  2  1  0  0  0  0
  8  3  1  0  0  0  0
  8  9  1  0  0  0  0
 10  5  1  0  0  0  0
 11 10  1  0  0  0  0
 11  7  2  0  0  0  0
 12  4  1  0  0  0  0
 13 18  1  0  0  0  0
 13  1  1  0  0  0  0
 14 17  1  0  0  0  0
 15 13  2  0  0  0  0
 16 14  2  0  0  0  0
 16 15  1  0  0  0  0
 17 18  2  0  0  0  0
 19 11  1  0  0  0  0
 20 19  1  0  0  0  0
 21 22  1  1  0  0  0
 21 23  1  0  0  0  0
 21 20  1  0  0  0  0
 23 25  1  0  0  0  0
 24 23  2  0  0  0  0
M  END
>  <MODEL>
3

>  <REMARK>
 VINA RESULT:      -8.0      2.626      3.418
  Name = 
  5 active torsions:
  status: ('A' for Active; 'I' for Inactive)
    1  A    between atoms: C_1  and  C_5
    2  A    between atoms: C_2  and  C_21
    3  A    between atoms: S_6  and  C_15
    4  A    between atoms: S_6  and  C_23
    5  A    between atoms: C_15  and  C_21
                            x       y       z     vdW  Elec       q    Type
                         _______ _______ _______ _____ _____    ______ ____

>  <TORSDO>
F 5

$$$$
=
 OpenBabel10272400483D

 25 27  0  0  1  0  0  0  0  0999 V2000
  186.7780  177.9240  144.9440 C   0  0  0  0  0  0  0  0  0  0  0  0
  188.0520  177.6110  144.2450 C   0  0  0  0  0  0  0  0  0  0  0  0
  187.9640  177.5990  147.0960 C   0  0  0  0  0  2  0  0  0  0  0  0
  188.9770  176.9520  146.3280 O   0  0  0  0  0  0  0  0  0  0  0  0
  190.3930  176.7640  144.2750 C   0  0  2  0  0  3  0  0  0  0  0  0
  191.4680  177.7560  144.6740 C   0  0  0  0  0  1  0  0  0  0  0  0
  188.1310  177.7350  142.8160 N   0  0  0  0  0  0  0  0  0  0  0  0
  186.7210  177.8560  146.2920 C   0  0  0  0  0  0  0  0  0  0  0  0
  185.2660  178.2650  147.1950 Cl  0  0  0  0  0  0  0  0  0  0  0  0
  190.2740  176.7410  142.8190 N   0  0  0  0  0  2  0  0  0  0  0  0
  189.1640  177.3350  142.1430 C   0  0  0  0  0  0  0  0  0  0  0  0
  189.0940  177.1280  144.9460 C   0  0  0  0  0  0  0  0  0  0  0  0
  185.5860  178.2790  144.1420 C   0  0  0  0  0  0  0  0  0  0  0  0
  183.3120  178.9070  142.6270 C   0  0  0  0  0  3  0  0  0  0  0  0
  184.5400  179.0210  144.7110 C   0  0  0  0  0  3  0  0  0  0  0  0
  183.4070  179.3360  143.9540 C   0  0  0  0  0  3  0  0  0  0  0  0
  184.3470  178.1610  142.0570 C   0  0  0  0  0  3  0  0  0  0  0  0
  185.4800  177.8470  142.8130 C   0  0  0  0  0  3  0  0  0  0  0  0
  189.1770  177.4810  140.3630 S   0  0  0  0  0  0  0  0  0  0  0  0
  190.9780  177.2100  140.2820 C   0  0  0  0  0  2  0  0  0  0  0  0
  191.4290  176.7340  138.9050 C   0  0  2  0  0  3  0  0  0  0  0  0
  190.9780  175.4360  138.6520 O   0  0  0  0  0  1  0  0  0  0  0  0
  192.9140  176.8280  138.7410 C   0  0  0  0  0  0  0  0  0  0  0  0
  193.7010  177.1860  139.8270 O   0  0  0  0  0  1  0  0  0  0  0  0
  193.4580  176.5520  137.6400 O   0  0  0  0  0  0  0  0  0  0  0  0
  1  8  2  0  0  0  0
  2  1  1  0  0  0  0
  2 12  2  0  0  0  0
  4  3  1  0  0  0  0
  5  6  1  6  0  0  0
  5 12  1  0  0  0  0
  7  2  1  0  0  0  0
  8  3  1  0  0  0  0
  8  9  1  0  0  0  0
 10  5  1  0  0  0  0
 11  7  2  0  0  0  0
 11 10  1  0  0  0  0
 12  4  1  0  0  0  0
 13 15  1  0  0  0  0
 13  1  1  0  0  0  0
 14 16  1  0  0  0  0
 16 15  2  0  0  0  0
 17 14  2  0  0  0  0
 17 18  1  0  0  0  0
 18 13  2  0  0  0  0
 19 11  1  0  0  0  0
 20 19  1  0  0  0  0
 21 22  1  1  0  0  0
 21 20  1  0  0  0  0
 23 21  1  0  0  0  0
 23 24  1  0  0  0  0
 25 23  2  0  0  0  0
M  END
>  <MODEL>
4

>  <REMARK>
 VINA RESULT:      -7.9      2.573      4.898
  Name = 
  5 active torsions:
  status: ('A' for Active; 'I' for Inactive)
    1  A    between atoms: C_1  and  C_5
    2  A    between atoms: C_2  and  C_21
    3  A    between atoms: S_6  and  C_15
    4  A    between atoms: S_6  and  C_23
    5  A    between atoms: C_15  and  C_21
                            x       y       z     vdW  Elec       q    Type
                         _______ _______ _______ _____ _____    ______ ____

>  <TORSDO>
F 5

$$$$
=
 OpenBabel10272400483D

 25 27  0  0  1  0  0  0  0  0999 V2000
  185.9110  178.3690  142.4390 C   0  0  0  0  0  0  0  0  0  0  0  0
  187.1040  178.1650  141.5770 C   0  0  0  0  0  0  0  0  0  0  0  0
  184.5640  178.6710  140.3810 C   0  0  0  0  0  2  0  0  0  0  0  0
  185.8100  178.8480  139.7080 O   0  0  0  0  0  0  0  0  0  0  0  0
  188.2140  178.2600  139.3500 C   0  0  2  0  0  3  0  0  0  0  0  0
  188.0010  177.0710  138.4340 C   0  0  0  0  0  1  0  0  0  0  0  0
  188.3580  177.7900  142.1690 N   0  0  0  0  0  0  0  0  0  0  0  0
  184.7220  178.6730  141.8760 C   0  0  0  0  0  0  0  0  0  0  0  0
  183.2530  178.8750  142.8250 Cl  0  0  0  0  0  0  0  0  0  0  0  0
  189.4560  178.0780  140.0970 N   0  0  0  0  0  2  0  0  0  0  0  0
  189.4590  177.7430  141.4860 C   0  0  0  0  0  0  0  0  0  0  0  0
  187.0220  178.4210  140.2570 C   0  0  0  0  0  0  0  0  0  0  0  0
  186.0590  178.2630  143.9080 C   0  0  0  0  0  0  0  0  0  0  0  0
  186.2960  178.0490  146.6930 C   0  0  0  0  0  3  0  0  0  0  0  0
  186.7120  177.1600  144.4800 C   0  0  0  0  0  3  0  0  0  0  0  0
  186.8320  177.0550  145.8690 C   0  0  0  0  0  3  0  0  0  0  0  0
  185.6380  179.1460  146.1310 C   0  0  0  0  0  3  0  0  0  0  0  0
  185.5190  179.2510  144.7420 C   0  0  0  0  0  3  0  0  0  0  0  0
  190.9900  177.3090  142.2970 S   0  0  0  0  0  0  0  0  0  0  0  0
  190.1330  176.9000  143.8530 C   0  0  0  0  0  2  0  0  0  0  0  0
  190.6440  177.7270  145.0290 C   0  0  2  0  0  3  0  0  0  0  0  0
  191.7310  178.5180  144.6490 O   0  0  0  0  0  1  0  0  0  0  0  0
  190.9870  176.8710  146.2060 C   0  0  0  0  0  0  0  0  0  0  0  0
  190.0890  176.7620  147.2590 O   0  0  0  0  0  1  0  0  0  0  0  0
  192.0640  176.2200  146.2350 O   0  0  0  0  0  0  0  0  0  0  0  0
  1 13  1  0  0  0  0
  2  7  1  0  0  0  0
  2  1  1  0  0  0  0
  3  8  1  0  0  0  0
  4 12  1  0  0  0  0
  4  3  1  0  0  0  0
  5  6  1  6  0  0  0
  5 10  1  0  0  0  0
  5 12  1  0  0  0  0
  8  1  2  0  0  0  0
  8  9  1  0  0  0  0
 10 11  1  0  0  0  0
 11  7  2  0  0  0  0
 11 19  1  0  0  0  0
 12  2  2  0  0  0  0
 13 15  2  0  0  0  0
 13 18  1  0  0  0  0
 15 16  1  0  0  0  0
 16 14  2  0  0  0  0
 17 14  1  0  0  0  0
 18 17  2  0  0  0  0
 19 20  1  0  0  0  0
 20 21  1  0  0  0  0
 21 22  1  6  0  0  0
 21 23  1  0  0  0  0
 23 25  2  0  0  0  0
 23 24  1  0  0  0  0
M  END
>  <MODEL>
5

>  <REMARK>
 VINA RESULT:      -7.7      3.181      6.011
  Name = 
  5 active torsions:
  status: ('A' for Active; 'I' for Inactive)
    1  A    between atoms: C_1  and  C_5
    2  A    between atoms: C_2  and  C_21
    3  A    between atoms: S_6  and  C_15
    4  A    between atoms: S_6  and  C_23
    5  A    between atoms: C_15  and  C_21
                            x       y       z     vdW  Elec       q    Type
                         _______ _______ _______ _____ _____    ______ ____

>  <TORSDO>
F 5

$$$$
=
 OpenBabel10272400483D

 25 27  0  0  1  0  0  0  0  0999 V2000
  188.9210  177.5800  145.8010 C   0  0  0  0  0  0  0  0  0  0  0  0
  187.5130  177.9990  145.5740 C   0  0  0  0  0  0  0  0  0  0  0  0
  188.4460  177.5540  148.2330 C   0  0  0  0  0  2  0  0  0  0  0  0
  187.2810  178.3150  147.9150 O   0  0  0  0  0  0  0  0  0  0  0  0
  185.3290  178.8260  146.4370 C   0  0  2  0  0  3  0  0  0  0  0  0
  184.3770  177.7810  146.9850 C   0  0  0  0  0  1  0  0  0  0  0  0
  187.0060  178.1050  144.2340 N   0  0  0  0  0  0  0  0  0  0  0  0
  189.3800  177.4320  147.0630 C   0  0  0  0  0  0  0  0  0  0  0  0
  191.0170  176.8860  147.4120 Cl  0  0  0  0  0  0  0  0  0  0  0  0
  185.0100  179.0820  145.0350 N   0  0  0  0  0  2  0  0  0  0  0  0
  185.8390  178.6060  143.9730 C   0  0  0  0  0  0  0  0  0  0  0  0
  186.7510  178.3620  146.6220 C   0  0  0  0  0  0  0  0  0  0  0  0
  189.8030  177.3600  144.6330 C   0  0  0  0  0  0  0  0  0  0  0  0
  191.5080  176.9340  142.4480 C   0  0  0  0  0  3  0  0  0  0  0  0
  189.7160  176.1740  143.8880 C   0  0  0  0  0  3  0  0  0  0  0  0
  190.5650  175.9630  142.7970 C   0  0  0  0  0  3  0  0  0  0  0  0
  191.6050  178.1140  143.1900 C   0  0  0  0  0  3  0  0  0  0  0  0
  190.7550  178.3260  144.2800 C   0  0  0  0  0  3  0  0  0  0  0  0
  185.2910  178.7460  142.2800 S   0  0  0  0  0  0  0  0  0  0  0  0
  186.9490  178.3520  141.6340 C   0  0  0  0  0  2  0  0  0  0  0  0
  187.1410  178.8360  140.2000 C   0  0  2  0  0  3  0  0  0  0  0  0
  186.0470  178.4870  139.4040 O   0  0  0  0  0  1  0  0  0  0  0  0
  188.4190  178.3310  139.6080 C   0  0  0  0  0  0  0  0  0  0  0  0
  188.8630  177.0540  139.9230 O   0  0  0  0  0  1  0  0  0  0  0  0
  189.0770  179.0390  138.8010 O   0  0  0  0  0  0  0  0  0  0  0  0
  1  8  2  0  0  0  0
  2  1  1  0  0  0  0
  2 12  2  0  0  0  0
  4  3  1  0  0  0  0
  5 12  1  0  0  0  0
  5  6  1  6  0  0  0
  7  2  1  0  0  0  0
  8  9  1  0  0  0  0
  8  3  1  0  0  0  0
 10  5  1  0  0  0  0
 11  7  2  0  0  0  0
 11 10  1  0  0  0  0
 12  4  1  0  0  0  0
 13  1  1  0  0  0  0
 14 16  2  0  0  0  0
 14 17  1  0  0  0  0
 15 13  2  0  0  0  0
 16 15  1  0  0  0  0
 17 18  2  0  0  0  0
 18 13  1  0  0  0  0
 19 11  1  0  0  0  0
 20 19  1  0  0  0  0
 21 22  1  6  0  0  0
 21 20  1  0  0  0  0
 23 24  1  0  0  0  0
 23 21  1  0  0  0  0
 25 23  2  0  0  0  0
M  END
>  <MODEL>
6

>  <REMARK>
 VINA RESULT:      -7.7      1.565      2.311
  Name = 
  5 active torsions:
  status: ('A' for Active; 'I' for Inactive)
    1  A    between atoms: C_1  and  C_5
    2  A    between atoms: C_2  and  C_21
    3  A    between atoms: S_6  and  C_15
    4  A    between atoms: S_6  and  C_23
    5  A    between atoms: C_15  and  C_21
                            x       y       z     vdW  Elec       q    Type
                         _______ _______ _______ _____ _____    ______ ____

>  <TORSDO>
F 5

$$$$
=
 OpenBabel10272400483D

 25 27  0  0  1  0  0  0  0  0999 V2000
  189.5660  177.4770  141.9670 C   0  0  0  0  0  0  0  0  0  0  0  0
  188.7270  177.8990  140.8150 C   0  0  0  0  0  0  0  0  0  0  0  0
  191.4760  177.2560  140.4030 C   0  0  0  0  0  2  0  0  0  0  0  0
  190.5000  177.2860  139.3620 O   0  0  0  0  0  0  0  0  0  0  0  0
  188.3810  178.1630  138.3640 C   0  0  2  0  0  3  0  0  0  0  0  0
  188.9550  179.4140  137.7290 C   0  0  0  0  0  1  0  0  0  0  0  0
  187.3780  178.3410  141.0380 N   0  0  0  0  0  0  0  0  0  0  0  0
  190.8500  177.1110  141.7610 C   0  0  0  0  0  0  0  0  0  0  0  0
  191.9220  176.6520  143.0800 Cl  0  0  0  0  0  0  0  0  0  0  0  0
  186.9810  178.3950  138.7100 N   0  0  0  0  0  2  0  0  0  0  0  0
  186.5580  178.5770  140.0620 C   0  0  0  0  0  0  0  0  0  0  0  0
  189.2080  177.7800  139.5640 C   0  0  0  0  0  0  0  0  0  0  0  0
  188.9650  177.4400  143.3190 C   0  0  0  0  0  0  0  0  0  0  0  0
  187.8130  177.4140  145.8750 C   0  0  0  0  0  3  0  0  0  0  0  0
  187.7240  176.8210  143.5300 C   0  0  0  0  0  3  0  0  0  0  0  0
  187.1510  176.8060  144.8050 C   0  0  0  0  0  3  0  0  0  0  0  0
  189.0450  178.0390  145.6710 C   0  0  0  0  0  3  0  0  0  0  0  0
  189.6190  178.0530  144.3960 C   0  0  0  0  0  3  0  0  0  0  0  0
  184.8820  179.0830  140.4130 S   0  0  0  0  0  0  0  0  0  0  0  0
  185.2040  179.1600  142.2060 C   0  0  0  0  0  2  0  0  0  0  0  0
  184.0620  178.5670  143.0240 C   0  0  2  0  0  3  0  0  0  0  0  0
  182.8320  178.7880  142.4000 O   0  0  0  0  0  1  0  0  0  0  0  0
  184.0540  179.0850  144.4280 C   0  0  0  0  0  0  0  0  0  0  0  0
  185.2340  179.5490  144.9940 O   0  0  0  0  0  0  0  0  0  0  0  0
  182.9830  179.1390  145.0870 O   0  0  0  0  0  1  0  0  0  0  0  0
  1 13  1  0  0  0  0
  2  7  1  0  0  0  0
  2  1  1  0  0  0  0
  3  8  1  0  0  0  0
  4 12  1  0  0  0  0
  4  3  1  0  0  0  0
  5  6  1  1  0  0  0
  5 10  1  0  0  0  0
  5 12  1  0  0  0  0
  8  1  2  0  0  0  0
  8  9  1  0  0  0  0
 10 11  1  0  0  0  0
 11 19  1  0  0  0  0
 11  7  2  0  0  0  0
 12  2  2  0  0  0  0
 13 15  2  0  0  0  0
 13 18  1  0  0  0  0
 15 16  1  0  0  0  0
 16 14  2  0  0  0  0
 17 14  1  0  0  0  0
 18 17  2  0  0  0  0
 19 20  1  0  0  0  0
 20 21  1  0  0  0  0
 21 22  1  6  0  0  0
 21 23  1  0  0  0  0
 23 24  2  0  0  0  0
 23 25  1  0  0  0  0
M  END
>  <MODEL>
7

>  <REMARK>
 VINA RESULT:      -7.6      2.183      5.801
  Name = 
  5 active torsions:
  status: ('A' for Active; 'I' for Inactive)
    1  A    between atoms: C_1  and  C_5
    2  A    between atoms: C_2  and  C_21
    3  A    between atoms: S_6  and  C_15
    4  A    between atoms: S_6  and  C_23
    5  A    between atoms: C_15  and  C_21
                            x       y       z     vdW  Elec       q    Type
                         _______ _______ _______ _____ _____    ______ ____

>  <TORSDO>
F 5

$$$$
=
 OpenBabel10272400483D

 25 27  0  0  1  0  0  0  0  0999 V2000
  184.5810  178.5300  142.9580 C   0  0  0  0  0  0  0  0  0  0  0  0
  185.2890  178.4790  141.6520 C   0  0  0  0  0  0  0  0  0  0  0  0
  182.4460  178.7110  141.7110 C   0  0  0  0  0  2  0  0  0  0  0  0
  183.2490  179.0410  140.5780 O   0  0  0  0  0  0  0  0  0  0  0  0
  185.2980  178.7400  139.1760 C   0  0  2  0  0  3  0  0  0  0  0  0
  184.8200  177.5490  138.3670 C   0  0  0  0  0  1  0  0  0  0  0  0
  186.7050  178.2400  141.6160 N   0  0  0  0  0  0  0  0  0  0  0  0
  183.2420  178.7050  142.9860 C   0  0  0  0  0  0  0  0  0  0  0  0
  182.3250  178.7210  144.4890 Cl  0  0  0  0  0  0  0  0  0  0  0  0
  186.7530  178.6890  139.2970 N   0  0  0  0  0  2  0  0  0  0  0  0
  187.3950  178.3330  140.5230 C   0  0  0  0  0  0  0  0  0  0  0  0
  184.6140  178.7460  140.5190 C   0  0  0  0  0  0  0  0  0  0  0  0
  185.3670  178.4170  144.2070 C   0  0  0  0  0  0  0  0  0  0  0  0
  186.8190  178.1830  146.5940 C   0  0  0  0  0  3  0  0  0  0  0  0
  186.3260  177.4040  144.3550 C   0  0  0  0  0  3  0  0  0  0  0  0
  187.0520  177.2900  145.5440 C   0  0  0  0  0  3  0  0  0  0  0  0
  185.8590  179.1890  146.4560 C   0  0  0  0  0  3  0  0  0  0  0  0
  185.1340  179.3050  145.2660 C   0  0  0  0  0  3  0  0  0  0  0  0
  189.1600  178.0630  140.5600 S   0  0  0  0  0  0  0  0  0  0  0  0
  189.0440  177.0330  142.0590 C   0  0  0  0  0  2  0  0  0  0  0  0
  190.4140  176.5890  142.5630 C   0  0  2  0  0  3  0  0  0  0  0  0
  190.4230  175.2210  142.8470 O   0  0  0  0  0  1  0  0  0  0  0  0
  190.8570  177.3870  143.7480 C   0  0  0  0  0  0  0  0  0  0  0  0
  191.6550  178.5080  143.5600 O   0  0  0  0  0  0  0  0  0  0  0  0
  190.4850  177.0740  144.9100 O   0  0  0  0  0  1  0  0  0  0  0  0
  1  8  2  0  0  0  0
  1 13  1  0  0  0  0
  2  1  1  0  0  0  0
  3  8  1  0  0  0  0
  4  3  1  0  0  0  0
  5  6  1  6  0  0  0
  5 10  1  0  0  0  0
  5 12  1  0  0  0  0
  7  2  1  0  0  0  0
  8  9  1  0  0  0  0
 10 11  1  0  0  0  0
 11 19  1  0  0  0  0
 11  7  2  0  0  0  0
 12  4  1  0  0  0  0
 12  2  2  0  0  0  0
 13 15  2  0  0  0  0
 13 18  1  0  0  0  0
 15 16  1  0  0  0  0
 16 14  2  0  0  0  0
 17 14  1  0  0  0  0
 18 17  2  0  0  0  0
 19 20  1  0  0  0  0
 20 21  1  0  0  0  0
 21 22  1  1  0  0  0
 21 23  1  0  0  0  0
 23 25  1  0  0  0  0
 24 23  2  0  0  0  0
M  END
>  <MODEL>
8

>  <REMARK>
 VINA RESULT:      -7.6      2.956      5.024
  Name = 
  5 active torsions:
  status: ('A' for Active; 'I' for Inactive)
    1  A    between atoms: C_1  and  C_5
    2  A    between atoms: C_2  and  C_21
    3  A    between atoms: S_6  and  C_15
    4  A    between atoms: S_6  and  C_23
    5  A    between atoms: C_15  and  C_21
                            x       y       z     vdW  Elec       q    Type
                         _______ _______ _______ _____ _____    ______ ____

>  <TORSDO>
F 5

$$$$
=
 OpenBabel10272400483D

 25 27  0  0  1  0  0  0  0  0999 V2000
  188.6300  177.4650  145.1930 C   0  0  0  0  0  0  0  0  0  0  0  0
  189.0690  177.4020  143.7740 C   0  0  0  0  0  0  0  0  0  0  0  0
  190.9030  176.7320  145.8550 C   0  0  0  0  0  2  0  0  0  0  0  0
  191.0680  176.3420  144.4920 O   0  0  0  0  0  0  0  0  0  0  0  0
  190.7250  176.7200  142.0440 C   0  0  2  0  0  3  0  0  0  0  0  0
  191.8920  177.6600  141.8150 C   0  0  0  0  0  1  0  0  0  0  0  0
  188.1900  177.8540  142.7320 N   0  0  0  0  0  0  0  0  0  0  0  0
  189.4770  177.0860  146.1740 C   0  0  0  0  0  0  0  0  0  0  0  0
  189.0500  177.1840  147.8790 Cl  0  0  0  0  0  0  0  0  0  0  0  0
  189.6650  177.0240  141.0850 N   0  0  0  0  0  2  0  0  0  0  0  0
  188.4610  177.6850  141.4760 C   0  0  0  0  0  0  0  0  0  0  0  0
  190.2530  176.8370  143.4700 C   0  0  0  0  0  0  0  0  0  0  0  0
  187.2540  177.9180  145.4990 C   0  0  0  0  0  0  0  0  0  0  0  0
  184.6380  178.7320  146.0910 C   0  0  0  0  0  3  0  0  0  0  0  0
  186.9800  178.6090  146.6890 C   0  0  0  0  0  3  0  0  0  0  0  0
  185.6760  179.0170  146.9820 C   0  0  0  0  0  3  0  0  0  0  0  0
  184.9020  178.0370  144.9080 C   0  0  0  0  0  3  0  0  0  0  0  0
  186.2070  177.6300  144.6140 C   0  0  0  0  0  3  0  0  0  0  0  0
  187.3010  178.2360  140.2350 S   0  0  0  0  0  0  0  0  0  0  0  0
  186.2550  179.0660  141.4760 C   0  0  0  0  0  2  0  0  0  0  0  0
  184.7690  178.9410  141.1580 C   0  0  2  0  0  3  0  0  0  0  0  0
  184.2540  177.7350  141.6400 O   0  0  0  0  0  1  0  0  0  0  0  0
  184.4980  179.0940  139.6940 C   0  0  0  0  0  0  0  0  0  0  0  0
  184.5700  180.3530  139.1120 O   0  0  0  0  0  1  0  0  0  0  0  0
  184.2420  178.0900  138.9790 O   0  0  0  0  0  0  0  0  0  0  0  0
  1 13  1  0  0  0  0
  1  8  2  0  0  0  0
  2  1  1  0  0  0  0
  3  8  1  0  0  0  0
  4  3  1  0  0  0  0
  5  6  1  1  0  0  0
  5 12  1  0  0  0  0
  7  2  1  0  0  0  0
  8  9  1  0  0  0  0
 10 11  1  0  0  0  0
 10  5  1  0  0  0  0
 11  7  2  0  0  0  0
 12  2  2  0  0  0  0
 12  4  1  0  0  0  0
 13 15  1  0  0  0  0
 14 16  1  0  0  0  0
 15 16  2  0  0  0  0
 17 14  2  0  0  0  0
 18 17  1  0  0  0  0
 18 13  2  0  0  0  0
 19 11  1  0  0  0  0
 19 20  1  0  0  0  0
 21 20  1  0  0  0  0
 21 22  1  6  0  0  0
 23 21  1  0  0  0  0
 24 23  1  0  0  0  0
 25 23  2  0  0  0  0
M  END
>  <MODEL>
9

>  <REMARK>
 VINA RESULT:      -7.6      2.411      4.796
  Name = 
  5 active torsions:
  status: ('A' for Active; 'I' for Inactive)
    1  A    between atoms: C_1  and  C_5
    2  A    between atoms: C_2  and  C_21
    3  A    between atoms: S_6  and  C_15
    4  A    between atoms: S_6  and  C_23
    5  A    between atoms: C_15  and  C_21
                            x       y       z     vdW  Elec       q    Type
                         _______ _______ _______ _____ _____    ______ ____

>  <TORSDO>
F 5

$$$$
