=
 OpenBabel10272413463D

 30 32  0  0  1  0  0  0  0  0999 V2000
  190.1140  176.5480  139.2360 C   0  0  1  0  0  3  0  0  0  0  0  0
  188.1740  176.1660  137.5620 C   0  0  2  0  0  3  0  0  0  0  0  0
  190.5510  175.2850  138.8000 O   0  0  0  0  0  0  0  0  0  0  0  0
  191.3840  176.4780  135.3170 C   0  0  0  0  0  2  0  0  0  0  0  0
  190.5420  176.5230  136.5830 C   0  0  2  0  0  3  0  0  0  0  0  0
  192.8370  175.3430  137.4120 S   0  0  0  0  0  0  0  0  0  0  0  0
  191.0270  175.3480  137.4640 C   0  0  1  0  0  3  0  0  0  0  0  0
  189.0190  176.5400  136.3140 C   0  0  2  0  0  3  0  0  0  0  0  0
  192.6750  175.8490  135.7080 C   0  0  0  0  0  0  0  0  0  0  0  0
  193.5410  175.6050  134.8850 O   0  0  0  0  0  0  0  0  0  0  0  0
  188.6270  176.7740  138.9090 C   0  0  2  0  0  3  0  0  0  0  0  0
  191.6280  177.2140  141.1890 C   0  0  0  0  0  0  0  0  0  0  0  0
  191.8220  177.3470  142.5680 C   0  0  0  0  0  3  0  0  0  0  0  0
  192.9470  177.6700  140.1200 Cl  0  0  0  0  0  0  0  0  0  0  0  0
  189.3850  176.3800  141.6040 C   0  0  0  0  0  3  0  0  0  0  0  0
  188.6030  176.1800  143.8450 F   0  0  0  0  0  0  0  0  0  0  0  0
  190.3960  176.7240  140.6990 C   0  0  0  0  0  0  0  0  0  0  0  0
  190.8050  177.0000  143.4610 C   0  0  0  0  0  3  0  0  0  0  0  0
  189.5880  176.5170  142.9790 C   0  0  0  0  0  0  0  0  0  0  0  0
  186.0990  174.6160  136.3380 O   0  0  0  0  0  0  0  0  0  0  0  0
  186.9610  174.0080  137.0260 C   0  0  0  0  0  0  0  0  0  0  0  0
  186.8800  172.5310  137.1670 C   0  0  0  0  0  1  0  0  0  0  0  0
  188.0110  174.7220  137.6770 N   0  0  0  0  0  2  0  0  0  0  0  0
  189.0530  179.0830  136.5380 C   0  0  0  0  0  1  0  0  0  0  0  0
  188.5480  177.8930  135.7290 C   0  0  2  0  0  3  0  0  0  0  0  0
  187.0300  177.9970  135.6090 C   0  0  0  0  0  2  0  0  0  0  0  0
  186.6620  178.4680  134.3470 O   0  0  0  0  0  1  0  0  0  0  0  0
  188.2850  178.2580  138.9890 C   0  0  0  0  0  2  0  0  0  0  0  0
  185.9670  178.8130  138.8480 O   0  0  0  0  0  1  0  0  0  0  0  0
  186.9830  178.4730  139.7410 C   0  0  0  0  0  2  0  0  0  0  0  0
  1 17  1  1  0  0  0
  2 23  1  1  0  0  0
  2 11  1  0  0  0  0
  3  1  1  0  0  0  0
  4  9  1  0  0  0  0
  5  4  1  6  0  0  0
  5  7  1  0  0  0  0
  7  6  1  1  0  0  0
  7  3  1  0  0  0  0
  8 25  1  1  0  0  0
  8  5  1  0  0  0  0
  8  2  1  0  0  0  0
  9  6  1  0  0  0  0
 10  9  2  0  0  0  0
 11 28  1  6  0  0  0
 11  1  1  0  0  0  0
 12 13  1  0  0  0  0
 13 18  2  0  0  0  0
 14 12  1  0  0  0  0
 15 19  2  0  0  0  0
 17 12  2  0  0  0  0
 17 15  1  0  0  0  0
 19 18  1  0  0  0  0
 19 16  1  0  0  0  0
 20 21  2  0  0  0  0
 21 22  1  0  0  0  0
 21 23  1  0  0  0  0
 25 24  1  1  0  0  0
 26 25  1  0  0  0  0
 27 26  1  0  0  0  0
 28 30  1  0  0  0  0
 29 30  1  0  0  0  0
M  END
>  <MODEL>
1

>  <REMARK>
 VINA RESULT:      -5.3      0.000      0.000
  Name = 
  6 active torsions:
  status: ('A' for Active; 'I' for Inactive)
    1  A    between atoms: C_1  and  C_22
    2  A    between atoms: C_4  and  N_25
    3  A    between atoms: C_7  and  C_30
    4  A    between atoms: C_10  and  C_23
    5  A    between atoms: C_10  and  C_26
    6  A    between atoms: C_13  and  C_30
                            x       y       z     vdW  Elec       q    Type
                         _______ _______ _______ _____ _____    ______ ____

>  <TORSDO>
F 6

$$$$
=
 OpenBabel10272413463D

 30 32  0  0  1  0  0  0  0  0999 V2000
  183.2950  175.2810  137.1470 C   0  0  1  0  0  3  0  0  0  0  0  0
  182.3070  177.5530  137.9010 C   0  0  2  0  0  3  0  0  0  0  0  0
  183.6700  175.9880  135.9900 O   0  0  0  0  0  0  0  0  0  0  0  0
  186.1920  178.1400  137.7940 C   0  0  0  0  0  2  0  0  0  0  0  0
  184.8830  177.3660  137.7430 C   0  0  2  0  0  3  0  0  0  0  0  0
  186.3120  176.2930  135.7060 S   0  0  0  0  0  0  0  0  0  0  0  0
  184.7080  176.9120  136.2760 C   0  0  1  0  0  3  0  0  0  0  0  0
  183.6790  178.1450  138.3240 C   0  0  2  0  0  3  0  0  0  0  0  0
  187.0360  177.5860  136.7010 C   0  0  0  0  0  0  0  0  0  0  0  0
  188.1290  178.0570  136.4370 O   0  0  0  0  0  0  0  0  0  0  0  0
  182.1850  176.0130  137.9200 C   0  0  2  0  0  3  0  0  0  0  0  0
  183.7080  172.7560  137.0930 C   0  0  0  0  0  0  0  0  0  0  0  0
  183.2760  171.4750  136.7330 C   0  0  0  0  0  3  0  0  0  0  0  0
  185.2580  172.9070  137.9090 Cl  0  0  0  0  0  0  0  0  0  0  0  0
  181.6750  173.6870  136.1480 C   0  0  0  0  0  3  0  0  0  0  0  0
  180.0640  172.2330  135.1640 F   0  0  0  0  0  0  0  0  0  0  0  0
  182.9000  173.8760  136.7980 C   0  0  0  0  0  0  0  0  0  0  0  0
  182.0510  171.2990  136.0850 C   0  0  0  0  0  3  0  0  0  0  0  0
  181.2520  172.4040  135.7930 C   0  0  0  0  0  0  0  0  0  0  0  0
  180.7780  179.9460  137.5170 O   0  0  0  0  0  0  0  0  0  0  0  0
  181.1260  179.2980  136.4940 C   0  0  0  0  0  0  0  0  0  0  0  0
  180.7480  179.7950  135.1460 C   0  0  0  0  0  1  0  0  0  0  0  0
  181.8740  178.0880  136.6160 N   0  0  0  0  0  2  0  0  0  0  0  0
  182.4590  178.7840  140.4730 C   0  0  0  0  0  1  0  0  0  0  0  0
  183.7600  178.2740  139.8640 C   0  0  2  0  0  3  0  0  0  0  0  0
  184.9000  179.1760  140.3290 C   0  0  0  0  0  2  0  0  0  0  0  0
  185.0180  179.1530  141.7210 O   0  0  0  0  0  1  0  0  0  0  0  0
  182.0950  175.4840  139.3470 C   0  0  0  0  0  2  0  0  0  0  0  0
  180.0460  174.2620  139.2420 O   0  0  0  0  0  1  0  0  0  0  0  0
  180.6470  175.3910  139.7990 C   0  0  0  0  0  2  0  0  0  0  0  0
  1 17  1  6  0  0  0
  1 11  1  0  0  0  0
  2 23  1  6  0  0  0
  2 11  1  0  0  0  0
  2  8  1  0  0  0  0
  3  7  1  0  0  0  0
  3  1  1  0  0  0  0
  5  4  1  6  0  0  0
  5  8  1  0  0  0  0
  6  9  1  0  0  0  0
  7  6  1  1  0  0  0
  7  5  1  0  0  0  0
  8 25  1  1  0  0  0
  9  4  1  0  0  0  0
 10  9  2  0  0  0  0
 11 28  1  1  0  0  0
 12 14  1  0  0  0  0
 13 12  2  0  0  0  0
 15 17  2  0  0  0  0
 16 19  1  0  0  0  0
 17 12  1  0  0  0  0
 18 13  1  0  0  0  0
 19 18  2  0  0  0  0
 19 15  1  0  0  0  0
 21 23  1  0  0  0  0
 21 20  2  0  0  0  0
 22 21  1  0  0  0  0
 25 26  1  0  0  0  0
 25 24  1  6  0  0  0
 26 27  1  0  0  0  0
 28 30  1  0  0  0  0
 29 30  1  0  0  0  0
M  END
>  <MODEL>
2

>  <REMARK>
 VINA RESULT:      -5.2      5.408      8.221
  Name = 
  6 active torsions:
  status: ('A' for Active; 'I' for Inactive)
    1  A    between atoms: C_1  and  C_22
    2  A    between atoms: C_4  and  N_25
    3  A    between atoms: C_7  and  C_30
    4  A    between atoms: C_10  and  C_23
    5  A    between atoms: C_10  and  C_26
    6  A    between atoms: C_13  and  C_30
                            x       y       z     vdW  Elec       q    Type
                         _______ _______ _______ _____ _____    ______ ____

>  <TORSDO>
F 6

$$$$
=
 OpenBabel10272413463D

 30 32  0  0  1  0  0  0  0  0999 V2000
  183.3400  176.9930  138.4010 C   0  0  1  0  0  3  0  0  0  0  0  0
  182.5400  178.9550  139.8920 C   0  0  2  0  0  3  0  0  0  0  0  0
  184.0440  177.9930  137.7070 O   0  0  0  0  0  0  0  0  0  0  0  0
  186.4030  178.6960  140.5690 C   0  0  0  0  0  2  0  0  0  0  0  0
  185.0400  178.2990  140.0230 C   0  0  2  0  0  3  0  0  0  0  0  0
  186.7030  177.8150  137.9390 S   0  0  0  0  0  0  0  0  0  0  0  0
  185.1170  178.4920  138.4910 C   0  0  1  0  0  3  0  0  0  0  0  0
  183.8610  179.0320  140.7060 C   0  0  2  0  0  3  0  0  0  0  0  0
  187.3730  178.4390  139.4710 C   0  0  0  0  0  0  0  0  0  0  0  0
  188.5520  178.7320  139.5790 O   0  0  0  0  0  0  0  0  0  0  0  0
  182.2040  177.5890  139.2510 C   0  0  2  0  0  3  0  0  0  0  0  0
  181.9280  176.2370  136.4050 C   0  0  0  0  0  0  0  0  0  0  0  0
  181.4980  175.2110  135.5570 C   0  0  0  0  0  3  0  0  0  0  0  0
  181.3090  177.8590  136.1230 Cl  0  0  0  0  0  0  0  0  0  0  0  0
  183.2920  174.6370  137.6190 C   0  0  0  0  0  3  0  0  0  0  0  0
  183.3060  172.3530  136.9420 F   0  0  0  0  0  0  0  0  0  0  0  0
  182.8360  175.9490  137.4490 C   0  0  0  0  0  0  0  0  0  0  0  0
  181.9610  173.9060  135.7370 C   0  0  0  0  0  3  0  0  0  0  0  0
  182.8580  173.6190  136.7670 C   0  0  0  0  0  0  0  0  0  0  0  0
  180.4010  180.8420  139.6260 O   0  0  0  0  0  0  0  0  0  0  0  0
  181.3760  180.9400  138.8340 C   0  0  0  0  0  0  0  0  0  0  0  0
  181.3880  182.0200  137.8140 C   0  0  0  0  0  1  0  0  0  0  0  0
  182.4660  180.0210  138.9010 N   0  0  0  0  0  2  0  0  0  0  0  0
  182.2450  178.8960  142.6780 C   0  0  0  0  0  1  0  0  0  0  0  0
  183.6320  178.5380  142.1550 C   0  0  2  0  0  3  0  0  0  0  0  0
  184.6730  179.0680  143.1370 C   0  0  0  0  0  2  0  0  0  0  0  0
  185.2430  178.0240  143.8690 O   0  0  0  0  0  1  0  0  0  0  0  0
  181.7420  176.5840  140.3010 C   0  0  0  0  0  2  0  0  0  0  0  0
  180.2330  174.8830  139.5720 O   0  0  0  0  0  1  0  0  0  0  0  0
  180.2940  176.1860  140.0680 C   0  0  0  0  0  2  0  0  0  0  0  0
  1 17  1  6  0  0  0
  1 11  1  0  0  0  0
  2 23  1  6  0  0  0
  2  8  1  0  0  0  0
  3  1  1  0  0  0  0
  5  4  1  1  0  0  0
  5  8  1  0  0  0  0
  6  7  1  0  0  0  0
  6  9  1  0  0  0  0
  7  3  1  6  0  0  0
  7  5  1  0  0  0  0
  8 25  1  1  0  0  0
  9 10  2  0  0  0  0
  9  4  1  0  0  0  0
 11  2  1  0  0  0  0
 11 28  1  1  0  0  0
 12 17  1  0  0  0  0
 13 18  1  0  0  0  0
 13 12  2  0  0  0  0
 14 12  1  0  0  0  0
 17 15  2  0  0  0  0
 18 19  2  0  0  0  0
 19 16  1  0  0  0  0
 19 15  1  0  0  0  0
 21 23  1  0  0  0  0
 21 20  2  0  0  0  0
 22 21  1  0  0  0  0
 25 24  1  1  0  0  0
 25 26  1  0  0  0  0
 26 27  1  0  0  0  0
 29 30  1  0  0  0  0
 30 28  1  0  0  0  0
M  END
>  <MODEL>
3

>  <REMARK>
 VINA RESULT:      -5.2      5.548      8.597
  Name = 
  6 active torsions:
  status: ('A' for Active; 'I' for Inactive)
    1  A    between atoms: C_1  and  C_22
    2  A    between atoms: C_4  and  N_25
    3  A    between atoms: C_7  and  C_30
    4  A    between atoms: C_10  and  C_23
    5  A    between atoms: C_10  and  C_26
    6  A    between atoms: C_13  and  C_30
                            x       y       z     vdW  Elec       q    Type
                         _______ _______ _______ _____ _____    ______ ____

>  <TORSDO>
F 6

$$$$
=
 OpenBabel10272413463D

 30 32  0  0  1  0  0  0  0  0999 V2000
  185.1590  178.2830  138.7460 C   0  0  1  0  0  3  0  0  0  0  0  0
  182.6190  178.7150  138.4770 C   0  0  2  0  0  3  0  0  0  0  0  0
  185.1450  179.4900  139.4690 O   0  0  0  0  0  0  0  0  0  0  0  0
  183.1220  178.0720  142.3220 C   0  0  0  0  0  2  0  0  0  0  0  0
  183.4890  178.1480  140.8480 C   0  0  2  0  0  3  0  0  0  0  0  0
  185.6590  179.2060  142.0780 S   0  0  0  0  0  0  0  0  0  0  0  0
  184.4780  179.3280  140.7110 C   0  0  1  0  0  3  0  0  0  0  0  0
  182.2630  178.2220  139.9070 C   0  0  2  0  0  3  0  0  0  0  0  0
  184.2860  178.6280  143.0620 C   0  0  0  0  0  0  0  0  0  0  0  0
  184.2640  178.7720  144.2720 O   0  0  0  0  0  0  0  0  0  0  0  0
  183.9130  178.1440  137.8540 C   0  0  2  0  0  3  0  0  0  0  0  0
  187.6950  177.9880  138.5600 C   0  0  0  0  0  0  0  0  0  0  0  0
  188.8360  177.8850  137.7580 C   0  0  0  0  0  3  0  0  0  0  0  0
  187.8970  177.8950  140.3040 Cl  0  0  0  0  0  0  0  0  0  0  0  0
  186.3360  178.2250  136.5610 C   0  0  0  0  0  3  0  0  0  0  0  0
  187.3800  178.1860  134.4200 F   0  0  0  0  0  0  0  0  0  0  0  0
  186.4290  178.1600  137.9560 C   0  0  0  0  0  0  0  0  0  0  0  0
  188.7310  177.9520  136.3670 C   0  0  0  0  0  3  0  0  0  0  0  0
  187.4820  178.1210  135.7690 C   0  0  0  0  0  0  0  0  0  0  0  0
  180.3350  180.3410  137.8890 O   0  0  0  0  0  0  0  0  0  0  0  0
  181.4290  180.9220  138.1200 C   0  0  0  0  0  0  0  0  0  0  0  0
  181.4930  182.4060  138.0900 C   0  0  0  0  0  1  0  0  0  0  0  0
  182.6090  180.1700  138.4020 N   0  0  0  0  0  2  0  0  0  0  0  0
  182.4380  175.6840  139.6940 C   0  0  0  0  0  1  0  0  0  0  0  0
  181.5000  176.8770  139.8400 C   0  0  2  0  0  3  0  0  0  0  0  0
  180.4730  176.8280  138.7120 C   0  0  0  0  0  2  0  0  0  0  0  0
  180.3820  175.5410  138.1770 O   0  0  0  0  0  1  0  0  0  0  0  0
  183.7270  176.6930  137.4240 C   0  0  0  0  0  2  0  0  0  0  0  0
  182.7990  175.2830  135.7360 O   0  0  0  0  0  1  0  0  0  0  0  0
  183.0600  176.6140  136.0610 C   0  0  0  0  0  2  0  0  0  0  0  0
  1 17  1  6  0  0  0
  1  3  1  0  0  0  0
  2 23  1  1  0  0  0
  2  8  1  0  0  0  0
  4  9  1  0  0  0  0
  5  4  1  1  0  0  0
  6  9  1  0  0  0  0
  7  3  1  6  0  0  0
  7  5  1  0  0  0  0
  7  6  1  0  0  0  0
  8 25  1  6  0  0  0
  8  5  1  0  0  0  0
  9 10  2  0  0  0  0
 11 28  1  1  0  0  0
 11  2  1  0  0  0  0
 11  1  1  0  0  0  0
 12 14  1  0  0  0  0
 13 12  2  0  0  0  0
 15 17  2  0  0  0  0
 16 19  1  0  0  0  0
 17 12  1  0  0  0  0
 18 13  1  0  0  0  0
 19 18  2  0  0  0  0
 19 15  1  0  0  0  0
 20 21  2  0  0  0  0
 21 23  1  0  0  0  0
 22 21  1  0  0  0  0
 25 24  1  6  0  0  0
 26 25  1  0  0  0  0
 27 26  1  0  0  0  0
 29 30  1  0  0  0  0
 30 28  1  0  0  0  0
M  END
>  <MODEL>
4

>  <REMARK>
 VINA RESULT:      -5.0      4.980      7.942
  Name = 
  6 active torsions:
  status: ('A' for Active; 'I' for Inactive)
    1  A    between atoms: C_1  and  C_22
    2  A    between atoms: C_4  and  N_25
    3  A    between atoms: C_7  and  C_30
    4  A    between atoms: C_10  and  C_23
    5  A    between atoms: C_10  and  C_26
    6  A    between atoms: C_13  and  C_30
                            x       y       z     vdW  Elec       q    Type
                         _______ _______ _______ _____ _____    ______ ____

>  <TORSDO>
F 6

$$$$
=
 OpenBabel10272413463D

 30 32  0  0  1  0  0  0  0  0999 V2000
  183.0460  177.8950  140.6400 C   0  0  1  0  0  3  0  0  0  0  0  0
  183.0980  178.8050  138.2150 C   0  0  2  0  0  3  0  0  0  0  0  0
  181.6510  177.9060  140.4630 O   0  0  0  0  0  0  0  0  0  0  0  0
  181.6840  175.1530  137.8810 C   0  0  0  0  0  2  0  0  0  0  0  0
  182.3090  176.3640  138.5570 C   0  0  2  0  0  3  0  0  0  0  0  0
  180.5400  175.4730  140.4060 S   0  0  0  0  0  0  0  0  0  0  0  0
  181.2490  176.9000  139.5460 C   0  0  1  0  0  3  0  0  0  0  0  0
  182.8520  177.4170  137.5620 C   0  0  2  0  0  3  0  0  0  0  0  0
  180.7040  174.6020  138.8570 C   0  0  0  0  0  0  0  0  0  0  0  0
  179.9820  173.6620  138.5740 O   0  0  0  0  0  0  0  0  0  0  0  0
  183.7510  178.8020  139.6150 C   0  0  2  0  0  3  0  0  0  0  0  0
  182.4680  178.8230  142.9530 C   0  0  0  0  0  0  0  0  0  0  0  0
  182.8710  179.1470  144.2530 C   0  0  0  0  0  3  0  0  0  0  0  0
  180.7950  179.1290  142.5040 Cl  0  0  0  0  0  0  0  0  0  0  0  0
  184.7170  178.0450  142.4700 C   0  0  0  0  0  3  0  0  0  0  0  0
  186.3870  178.1550  144.1660 F   0  0  0  0  0  0  0  0  0  0  0  0
  183.4000  178.2650  142.0500 C   0  0  0  0  0  0  0  0  0  0  0  0
  184.1880  178.9230  144.6600 C   0  0  0  0  0  3  0  0  0  0  0  0
  185.1090  178.3720  143.7700 C   0  0  0  0  0  0  0  0  0  0  0  0
  182.9730  181.6320  138.6570 O   0  0  0  0  0  0  0  0  0  0  0  0
  181.8950  181.0240  138.4250 C   0  0  0  0  0  0  0  0  0  0  0  0
  180.6180  181.7820  138.3780 C   0  0  0  0  0  1  0  0  0  0  0  0
  181.8850  179.6120  138.2130 N   0  0  0  0  0  2  0  0  0  0  0  0
  183.9520  176.8630  135.3250 C   0  0  0  0  0  1  0  0  0  0  0  0
  184.1300  176.9260  136.8380 C   0  0  2  0  0  3  0  0  0  0  0  0
  184.6070  175.5620  137.3290 C   0  0  0  0  0  2  0  0  0  0  0  0
  185.9980  175.4620  137.2440 O   0  0  0  0  0  1  0  0  0  0  0  0
  185.2340  178.4570  139.5330 C   0  0  0  0  0  2  0  0  0  0  0  0
  187.2290  178.7810  138.2630 O   0  0  0  0  0  1  0  0  0  0  0  0
  185.8750  179.1090  138.3200 C   0  0  0  0  0  2  0  0  0  0  0  0
  1 17  1  1  0  0  0
  2 23  1  1  0  0  0
  2 11  1  0  0  0  0
  3  1  1  0  0  0  0
  4  9  1  0  0  0  0
  5  4  1  6  0  0  0
  5  7  1  0  0  0  0
  7  6  1  1  0  0  0
  7  3  1  0  0  0  0
  8 25  1  1  0  0  0
  8  2  1  0  0  0  0
  8  5  1  0  0  0  0
  9  6  1  0  0  0  0
 10  9  2  0  0  0  0
 11 28  1  6  0  0  0
 11  1  1  0  0  0  0
 12 13  1  0  0  0  0
 13 18  2  0  0  0  0
 14 12  1  0  0  0  0
 15 19  2  0  0  0  0
 17 15  1  0  0  0  0
 17 12  2  0  0  0  0
 19 16  1  0  0  0  0
 19 18  1  0  0  0  0
 21 20  2  0  0  0  0
 22 21  1  0  0  0  0
 23 21  1  0  0  0  0
 25 24  1  6  0  0  0
 25 26  1  0  0  0  0
 27 26  1  0  0  0  0
 29 30  1  0  0  0  0
 30 28  1  0  0  0  0
M  END
>  <MODEL>
5

>  <REMARK>
 VINA RESULT:      -4.4      5.841      8.083
  Name = 
  6 active torsions:
  status: ('A' for Active; 'I' for Inactive)
    1  A    between atoms: C_1  and  C_22
    2  A    between atoms: C_4  and  N_25
    3  A    between atoms: C_7  and  C_30
    4  A    between atoms: C_10  and  C_23
    5  A    between atoms: C_10  and  C_26
    6  A    between atoms: C_13  and  C_30
                            x       y       z     vdW  Elec       q    Type
                         _______ _______ _______ _____ _____    ______ ____

>  <TORSDO>
F 6

$$$$
=
 OpenBabel10272413463D

 30 32  0  0  1  0  0  0  0  0999 V2000
  190.1050  175.9250  138.0660 C   0  0  1  0  0  3  0  0  0  0  0  0
  187.8820  175.6360  136.7680 C   0  0  2  0  0  3  0  0  0  0  0  0
  190.0660  174.5220  138.1650 O   0  0  0  0  0  0  0  0  0  0  0  0
  190.6040  173.9780  134.4690 C   0  0  0  0  0  2  0  0  0  0  0  0
  190.0440  174.7730  135.6380 C   0  0  2  0  0  3  0  0  0  0  0  0
  191.9910  173.2780  136.7870 S   0  0  0  0  0  0  0  0  0  0  0  0
  190.3020  173.9200  136.9020 C   0  0  1  0  0  3  0  0  0  0  0  0
  188.5720  175.2080  135.4440 C   0  0  2  0  0  3  0  0  0  0  0  0
  191.6970  173.1390  135.0320 C   0  0  0  0  0  0  0  0  0  0  0  0
  192.2960  172.3280  134.3470 O   0  0  0  0  0  0  0  0  0  0  0  0
  188.7190  176.5050  137.7320 C   0  0  2  0  0  3  0  0  0  0  0  0
  192.0540  176.7680  139.4940 C   0  0  0  0  0  0  0  0  0  0  0  0
  192.5130  177.3250  140.6920 C   0  0  0  0  0  3  0  0  0  0  0  0
  193.2370  176.3980  138.2460 Cl  0  0  0  0  0  0  0  0  0  0  0  0
  189.7840  176.8410  140.3510 C   0  0  0  0  0  3  0  0  0  0  0  0
  189.3810  177.7010  142.5360 F   0  0  0  0  0  0  0  0  0  0  0  0
  190.6740  176.5230  139.3190 C   0  0  0  0  0  0  0  0  0  0  0  0
  191.6150  177.6380  141.7150 C   0  0  0  0  0  3  0  0  0  0  0  0
  190.2510  177.3970  141.5440 C   0  0  0  0  0  0  0  0  0  0  0  0
  185.7050  174.0200  135.8420 O   0  0  0  0  0  0  0  0  0  0  0  0
  186.2420  173.7130  136.9390 C   0  0  0  0  0  0  0  0  0  0  0  0
  185.7440  172.5360  137.6970 C   0  0  0  0  0  1  0  0  0  0  0  0
  187.3200  174.4870  137.4660 N   0  0  0  0  0  2  0  0  0  0  0  0
  189.5460  177.3570  134.4700 C   0  0  0  0  0  1  0  0  0  0  0  0
  188.4320  176.3210  134.3770 C   0  0  2  0  0  3  0  0  0  0  0  0
  187.0890  177.0440  134.4420 C   0  0  0  0  0  2  0  0  0  0  0  0
  187.2640  178.4270  134.3490 O   0  0  0  0  0  1  0  0  0  0  0  0
  188.8530  177.9330  137.2150 C   0  0  0  0  0  2  0  0  0  0  0  0
  187.4410  178.6580  138.9990 O   0  0  0  0  0  1  0  0  0  0  0  0
  187.6540  178.7720  137.6250 C   0  0  0  0  0  2  0  0  0  0  0  0
  1  3  1  0  0  0  0
  1 17  1  1  0  0  0
  2 23  1  1  0  0  0
  2 11  1  0  0  0  0
  4  9  1  0  0  0  0
  5  4  1  6  0  0  0
  5  7  1  0  0  0  0
  7  6  1  1  0  0  0
  7  3  1  0  0  0  0
  8 25  1  6  0  0  0
  8  5  1  0  0  0  0
  8  2  1  0  0  0  0
  9  6  1  0  0  0  0
 10  9  2  0  0  0  0
 11 28  1  6  0  0  0
 11  1  1  0  0  0  0
 12 13  1  0  0  0  0
 13 18  2  0  0  0  0
 14 12  1  0  0  0  0
 15 19  2  0  0  0  0
 17 12  2  0  0  0  0
 17 15  1  0  0  0  0
 19 18  1  0  0  0  0
 19 16  1  0  0  0  0
 20 21  2  0  0  0  0
 21 23  1  0  0  0  0
 21 22  1  0  0  0  0
 25 26  1  0  0  0  0
 25 24  1  1  0  0  0
 27 26  1  0  0  0  0
 28 30  1  0  0  0  0
 30 29  1  0  0  0  0
M  END
>  <MODEL>
6

>  <REMARK>
 VINA RESULT:      -4.4      1.680      1.886
  Name = 
  6 active torsions:
  status: ('A' for Active; 'I' for Inactive)
    1  A    between atoms: C_1  and  C_22
    2  A    between atoms: C_4  and  N_25
    3  A    between atoms: C_7  and  C_30
    4  A    between atoms: C_10  and  C_23
    5  A    between atoms: C_10  and  C_26
    6  A    between atoms: C_13  and  C_30
                            x       y       z     vdW  Elec       q    Type
                         _______ _______ _______ _____ _____    ______ ____

>  <TORSDO>
F 6

$$$$
=
 OpenBabel10272413463D

 30 32  0  0  1  0  0  0  0  0999 V2000
  185.5470  176.8740  137.2930 C   0  0  1  0  0  3  0  0  0  0  0  0
  183.2500  176.3820  136.2000 C   0  0  2  0  0  3  0  0  0  0  0  0
  185.0200  178.1630  137.4870 O   0  0  0  0  0  0  0  0  0  0  0  0
  182.4370  177.0220  139.9910 C   0  0  0  0  0  2  0  0  0  0  0  0
  183.2920  176.8000  138.7530 C   0  0  2  0  0  3  0  0  0  0  0  0
  184.5940  178.7910  140.0520 S   0  0  0  0  0  0  0  0  0  0  0  0
  183.9950  178.1480  138.4690 C   0  0  1  0  0  3  0  0  0  0  0  0
  182.5070  176.2170  137.5540 C   0  0  2  0  0  3  0  0  0  0  0  0
  183.1080  178.1030  140.7630 C   0  0  0  0  0  0  0  0  0  0  0  0
  182.6170  178.5600  141.7810 O   0  0  0  0  0  0  0  0  0  0  0  0
  184.7700  176.1040  136.2090 C   0  0  2  0  0  3  0  0  0  0  0  0
  187.5140  177.4400  135.7560 C   0  0  0  0  0  0  0  0  0  0  0  0
  188.8940  177.4750  135.5350 C   0  0  0  0  0  3  0  0  0  0  0  0
  186.4560  178.0190  134.4770 Cl  0  0  0  0  0  0  0  0  0  0  0  0
  187.9090  176.5020  137.9610 C   0  0  0  0  0  3  0  0  0  0  0  0
  190.1440  176.1080  138.6850 F   0  0  0  0  0  0  0  0  0  0  0  0
  187.0130  176.9480  136.9820 C   0  0  0  0  0  0  0  0  0  0  0  0
  189.7790  177.0270  136.5190 C   0  0  0  0  0  3  0  0  0  0  0  0
  189.2860  176.5420  137.7310 C   0  0  0  0  0  0  0  0  0  0  0  0
  180.8660  177.0710  134.7700 O   0  0  0  0  0  0  0  0  0  0  0  0
  181.7470  177.9600  134.9090 C   0  0  0  0  0  0  0  0  0  0  0  0
  181.5190  179.3160  134.3460 C   0  0  0  0  0  1  0  0  0  0  0  0
  182.9670  177.6770  135.5960 N   0  0  0  0  0  2  0  0  0  0  0  0
  181.8570  173.9980  136.4720 C   0  0  0  0  0  1  0  0  0  0  0  0
  182.1180  174.7360  137.7800 C   0  0  2  0  0  3  0  0  0  0  0  0
  180.8990  174.5700  138.6830 C   0  0  0  0  0  2  0  0  0  0  0  0
  180.2660  173.3480  138.4450 O   0  0  0  0  0  1  0  0  0  0  0  0
  185.0590  174.6110  136.3090 C   0  0  0  0  0  2  0  0  0  0  0  0
  187.0560  173.8350  135.2540 O   0  0  0  0  0  1  0  0  0  0  0  0
  185.7040  174.0980  135.0320 C   0  0  0  0  0  2  0  0  0  0  0  0
  1 17  1  6  0  0  0
  1  3  1  0  0  0  0
  2 23  1  1  0  0  0
  2 11  1  0  0  0  0
  2  8  1  0  0  0  0
  4  9  1  0  0  0  0
  5  4  1  1  0  0  0
  6  9  1  0  0  0  0
  7  3  1  6  0  0  0
  7  5  1  0  0  0  0
  7  6  1  0  0  0  0
  8 25  1  1  0  0  0
  8  5  1  0  0  0  0
  9 10  2  0  0  0  0
 11 28  1  1  0  0  0
 11  1  1  0  0  0  0
 12 17  1  0  0  0  0
 13 12  2  0  0  0  0
 13 18  1  0  0  0  0
 14 12  1  0  0  0  0
 17 15  2  0  0  0  0
 18 19  2  0  0  0  0
 19 15  1  0  0  0  0
 19 16  1  0  0  0  0
 20 21  2  0  0  0  0
 21 23  1  0  0  0  0
 22 21  1  0  0  0  0
 25 24  1  6  0  0  0
 25 26  1  0  0  0  0
 27 26  1  0  0  0  0
 30 29  1  0  0  0  0
 30 28  1  0  0  0  0
M  END
>  <MODEL>
7

>  <REMARK>
 VINA RESULT:      -4.3      4.558      7.481
  Name = 
  6 active torsions:
  status: ('A' for Active; 'I' for Inactive)
    1  A    between atoms: C_1  and  C_22
    2  A    between atoms: C_4  and  N_25
    3  A    between atoms: C_7  and  C_30
    4  A    between atoms: C_10  and  C_23
    5  A    between atoms: C_10  and  C_26
    6  A    between atoms: C_13  and  C_30
                            x       y       z     vdW  Elec       q    Type
                         _______ _______ _______ _____ _____    ______ ____

>  <TORSDO>
F 6

$$$$
=
 OpenBabel10272413463D

 30 32  0  0  1  0  0  0  0  0999 V2000
  191.2180  174.3080  136.6310 C   0  0  1  0  0  3  0  0  0  0  0  0
  190.7530  176.5920  137.7610 C   0  0  2  0  0  3  0  0  0  0  0  0
  190.4460  173.7890  137.6870 O   0  0  0  0  0  0  0  0  0  0  0  0
  187.2400  175.3770  136.4850 C   0  0  0  0  0  2  0  0  0  0  0  0
  188.7510  175.3760  136.6610 C   0  0  2  0  0  3  0  0  0  0  0  0
  188.1010  172.7580  136.9190 S   0  0  0  0  0  0  0  0  0  0  0  0
  189.0810  174.1480  137.5400 C   0  0  1  0  0  3  0  0  0  0  0  0
  189.3140  176.7170  137.1910 C   0  0  2  0  0  3  0  0  0  0  0  0
  186.8160  173.9550  136.6010 C   0  0  0  0  0  0  0  0  0  0  0  0
  185.6390  173.6370  136.5770 O   0  0  0  0  0  0  0  0  0  0  0  0
  191.7410  175.7190  136.9560 C   0  0  2  0  0  3  0  0  0  0  0  0
  192.2130  172.3740  135.2830 C   0  0  0  0  0  0  0  0  0  0  0  0
  193.2940  171.5270  135.0150 C   0  0  0  0  0  3  0  0  0  0  0  0
  190.7400  172.1580  134.3470 Cl  0  0  0  0  0  0  0  0  0  0  0  0
  193.5330  173.4870  136.9910 C   0  0  0  0  0  3  0  0  0  0  0  0
  195.7630  172.7620  137.4090 F   0  0  0  0  0  0  0  0  0  0  0  0
  192.3320  173.3660  136.2830 C   0  0  0  0  0  0  0  0  0  0  0  0
  194.4870  171.6570  135.7300 C   0  0  0  0  0  3  0  0  0  0  0  0
  194.6060  172.6370  136.7160 C   0  0  0  0  0  0  0  0  0  0  0  0
  189.7860  178.1810  139.9410 O   0  0  0  0  0  0  0  0  0  0  0  0
  190.2210  177.0270  140.1990 C   0  0  0  0  0  0  0  0  0  0  0  0
  190.2070  176.5340  141.6010 C   0  0  0  0  0  1  0  0  0  0  0  0
  190.7330  176.1910  139.1620 N   0  0  0  0  0  2  0  0  0  0  0  0
  188.3650  178.9990  136.5510 C   0  0  0  0  0  1  0  0  0  0  0  0
  189.2510  177.8350  136.1220 C   0  0  2  0  0  3  0  0  0  0  0  0
  188.7710  177.3340  134.7620 C   0  0  0  0  0  2  0  0  0  0  0  0
  187.6370  178.0360  134.3460 O   0  0  0  0  0  1  0  0  0  0  0  0
  192.1910  176.4240  135.6820 C   0  0  0  0  0  2  0  0  0  0  0  0
  194.2720  177.2000  136.5580 O   0  0  0  0  0  1  0  0  0  0  0  0
  193.7060  176.4060  135.5600 C   0  0  0  0  0  2  0  0  0  0  0  0
  1 17  1  1  0  0  0
  1 11  1  0  0  0  0
  1  3  1  0  0  0  0
  2 23  1  1  0  0  0
  4  9  1  0  0  0  0
  5  4  1  1  0  0  0
  5  8  1  0  0  0  0
  5  7  1  0  0  0  0
  7  6  1  6  0  0  0
  7  3  1  0  0  0  0
  8 25  1  6  0  0  0
  8  2  1  0  0  0  0
  9  6  1  0  0  0  0
 10  9  2  0  0  0  0
 11 28  1  6  0  0  0
 11  2  1  0  0  0  0
 12 17  1  0  0  0  0
 13 12  2  0  0  0  0
 13 18  1  0  0  0  0
 14 12  1  0  0  0  0
 17 15  2  0  0  0  0
 18 19  2  0  0  0  0
 19 15  1  0  0  0  0
 19 16  1  0  0  0  0
 20 21  2  0  0  0  0
 21 22  1  0  0  0  0
 23 21  1  0  0  0  0
 25 24  1  1  0  0  0
 26 25  1  0  0  0  0
 27 26  1  0  0  0  0
 30 28  1  0  0  0  0
 30 29  1  0  0  0  0
M  END
>  <MODEL>
8

>  <REMARK>
 VINA RESULT:      -4.3      3.356      6.057
  Name = 
  6 active torsions:
  status: ('A' for Active; 'I' for Inactive)
    1  A    between atoms: C_1  and  C_22
    2  A    between atoms: C_4  and  N_25
    3  A    between atoms: C_7  and  C_30
    4  A    between atoms: C_10  and  C_23
    5  A    between atoms: C_10  and  C_26
    6  A    between atoms: C_13  and  C_30
                            x       y       z     vdW  Elec       q    Type
                         _______ _______ _______ _____ _____    ______ ____

>  <TORSDO>
F 6

$$$$
=
 OpenBabel10272413463D

 30 32  0  0  1  0  0  0  0  0999 V2000
  194.0680  174.0990  137.1840 C   0  0  1  0  0  3  0  0  0  0  0  0
  195.5670  172.4130  135.9090 C   0  0  2  0  0  3  0  0  0  0  0  0
  194.5040  173.4050  138.3270 O   0  0  0  0  0  0  0  0  0  0  0  0
  198.0750  174.5860  138.0160 C   0  0  0  0  0  2  0  0  0  0  0  0
  196.7460  174.1620  137.4090 C   0  0  2  0  0  3  0  0  0  0  0  0
  196.0750  174.8440  139.9440 S   0  0  0  0  0  0  0  0  0  0  0  0
  195.8750  173.6640  138.5850 C   0  0  1  0  0  3  0  0  0  0  0  0
  196.8900  173.1550  136.2430 C   0  0  2  0  0  3  0  0  0  0  0  0
  197.7730  174.9900  139.4150 C   0  0  0  0  0  0  0  0  0  0  0  0
  198.6570  175.3130  140.1910 O   0  0  0  0  0  0  0  0  0  0  0  0
  194.2800  173.2680  135.9050 C   0  0  2  0  0  3  0  0  0  0  0  0
  192.2670  175.7550  137.9330 C   0  0  0  0  0  0  0  0  0  0  0  0
  190.9120  176.0840  138.0510 C   0  0  0  0  0  3  0  0  0  0  0  0
  193.4540  176.9030  138.5350 Cl  0  0  0  0  0  0  0  0  0  0  0  0
  191.6440  173.6560  136.8820 C   0  0  0  0  0  3  0  0  0  0  0  0
  189.3400  173.1440  136.5550 F   0  0  0  0  0  0  0  0  0  0  0  0
  192.6390  174.5260  137.3420 C   0  0  0  0  0  0  0  0  0  0  0  0
  189.9290  175.2070  137.5890 C   0  0  0  0  0  3  0  0  0  0  0  0
  190.2950  173.9940  137.0040 C   0  0  0  0  0  0  0  0  0  0  0  0
  194.2620  169.9870  135.1250 O   0  0  0  0  0  0  0  0  0  0  0  0
  194.7510  170.0450  136.2850 C   0  0  0  0  0  0  0  0  0  0  0  0
  194.6450  168.8700  137.1870 C   0  0  0  0  0  1  0  0  0  0  0  0
  195.3980  171.2310  136.7440 N   0  0  0  0  0  2  0  0  0  0  0  0
  198.7090  173.0940  134.4530 C   0  0  0  0  0  1  0  0  0  0  0  0
  197.4730  173.8190  134.9720 C   0  0  2  0  0  3  0  0  0  0  0  0
  197.8220  175.2910  135.1730 C   0  0  0  0  0  2  0  0  0  0  0  0
  199.1880  175.5090  134.9800 O   0  0  0  0  0  1  0  0  0  0  0  0
  194.2140  174.1640  134.6740 C   0  0  0  0  0  2  0  0  0  0  0  0
  193.3750  176.3780  134.3650 O   0  0  0  0  0  1  0  0  0  0  0  0
  194.3210  175.6290  135.0640 C   0  0  0  0  0  2  0  0  0  0  0  0
  1 17  1  1  0  0  0
  1  3  1  0  0  0  0
  2  8  1  0  0  0  0
  2 23  1  1  0  0  0
  4  9  1  0  0  0  0
  5  4  1  1  0  0  0
  5  7  1  0  0  0  0
  7  3  1  6  0  0  0
  7  6  1  0  0  0  0
  8 25  1  6  0  0  0
  8  5  1  0  0  0  0
  9  6  1  0  0  0  0
  9 10  2  0  0  0  0
 11 28  1  6  0  0  0
 11  2  1  0  0  0  0
 11  1  1  0  0  0  0
 12 13  1  0  0  0  0
 12 14  1  0  0  0  0
 15 19  2  0  0  0  0
 15 17  1  0  0  0  0
 16 19  1  0  0  0  0
 17 12  2  0  0  0  0
 18 13  2  0  0  0  0
 19 18  1  0  0  0  0
 20 21  2  0  0  0  0
 21 23  1  0  0  0  0
 21 22  1  0  0  0  0
 25 24  1  1  0  0  0
 25 26  1  0  0  0  0
 27 26  1  0  0  0  0
 28 30  1  0  0  0  0
 29 30  1  0  0  0  0
M  END
>  <MODEL>
9

>  <REMARK>
 VINA RESULT:      -4.2      4.791      7.716
  Name = 
  6 active torsions:
  status: ('A' for Active; 'I' for Inactive)
    1  A    between atoms: C_1  and  C_22
    2  A    between atoms: C_4  and  N_25
    3  A    between atoms: C_7  and  C_30
    4  A    between atoms: C_10  and  C_23
    5  A    between atoms: C_10  and  C_26
    6  A    between atoms: C_13  and  C_30
                            x       y       z     vdW  Elec       q    Type
                         _______ _______ _______ _____ _____    ______ ____

>  <TORSDO>
F 6

$$$$
