=
 OpenBabel10272400213D

 31 35  0  0  1  0  0  0  0  0999 V2000
  185.1920  178.7600  144.4490 C   0  0  0  0  0  3  0  0  0  0  0  0
  187.4680  177.9360  143.9710 C   0  0  0  0  0  0  0  0  0  0  0  0
  187.8750  178.0620  145.4400 C   0  0  1  0  0  3  0  0  0  0  0  0
  186.8720  178.0320  147.7060 C   0  0  0  0  0  2  0  0  0  0  0  0
  186.1620  178.2910  143.5450 C   0  0  0  0  0  0  0  0  0  0  0  0
  183.5760  178.9740  142.6630 C   0  0  0  0  0  3  0  0  0  0  0  0
  186.9290  177.3050  146.3680 C   0  0  0  0  0  2  0  0  0  0  0  0
  188.0670  177.4770  141.6320 C   0  0  0  0  0  0  0  0  0  0  0  0
  182.9870  179.5400  144.9000 F   0  0  0  0  0  0  0  0  0  0  0  0
  190.2560  178.0490  144.6310 C   0  0  0  0  0  2  0  0  0  0  0  0
  187.9130  177.5470  148.7230 C   0  0  0  0  0  2  0  0  0  0  0  0
  186.7580  177.7770  141.2450 C   0  0  0  0  0  3  0  0  0  0  0  0
  188.4340  177.5880  142.9870 C   0  0  0  0  0  0  0  0  0  0  0  0
  183.9090  179.0970  144.0130 C   0  0  0  0  0  0  0  0  0  0  0  0
  189.2950  177.1830  148.1680 C   0  0  0  0  0  2  0  0  0  0  0  0
  185.8160  178.1910  142.1780 C   0  0  0  0  0  0  0  0  0  0  0  0
  184.5280  178.5250  141.7460 C   0  0  0  0  0  3  0  0  0  0  0  0
  189.8620  177.3000  143.3710 C   0  0  0  0  0  2  0  0  0  0  0  0
  189.3140  177.6140  145.7320 C   0  0  1  0  0  3  0  0  0  0  0  0
  189.7910  178.1270  147.0820 C   0  0  0  0  0  2  0  0  0  0  0  0
  188.9320  178.8960  139.2010 O   0  0  0  0  0  0  0  0  0  0  0  0
  189.4570  177.7870  139.4850 C   0  0  0  0  0  0  0  0  0  0  0  0
  189.0500  177.0720  140.6630 N   0  0  0  0  0  2  0  0  0  0  0  0
  192.4100  176.0860  136.8710 C   0  0  0  0  0  0  0  0  0  0  0  0
  190.1330  176.7530  137.3310 C   0  0  0  0  0  3  0  0  0  0  0  0
  192.2770  177.5170  140.2600 O   0  0  0  0  0  1  0  0  0  0  0  0
  193.3750  175.5190  135.9930 N   0  0  0  0  0  1  0  0  0  0  0  0
  191.0790  176.1970  136.4670 C   0  0  0  0  0  3  0  0  0  0  0  0
  191.8520  177.0880  139.0080 C   0  0  0  0  0  0  0  0  0  0  0  0
  190.5000  177.2050  138.6080 C   0  0  0  0  0  0  0  0  0  0  0  0
  192.7940  176.5300  138.1370 C   0  0  0  0  0  3  0  0  0  0  0  0
  2  3  1  0  0  0  0
  3 19  1  0  0  0  0
  3  7  1  1  0  0  0
  4 11  1  0  0  0  0
  5  2  1  0  0  0  0
  5  1  2  0  0  0  0
  6 14  2  0  0  0  0
  7  4  1  0  0  0  0
  8 13  1  0  0  0  0
 12  8  2  0  0  0  0
 12 16  1  0  0  0  0
 13 18  1  0  0  0  0
 13  2  2  0  0  0  0
 14  1  1  0  0  0  0
 14  9  1  0  0  0  0
 15 11  1  0  0  0  0
 16  5  1  0  0  0  0
 17 16  2  0  0  0  0
 17  6  1  0  0  0  0
 18 10  1  0  0  0  0
 19 10  1  6  0  0  0
 19 20  1  0  0  0  0
 20 15  1  0  0  0  0
 21 22  2  0  0  0  0
 22 23  1  0  0  0  0
 23  8  1  0  0  0  0
 24 31  1  0  0  0  0
 25 30  2  0  0  0  0
 27 24  1  0  0  0  0
 28 24  2  0  0  0  0
 28 25  1  0  0  0  0
 29 26  1  0  0  0  0
 30 29  1  0  0  0  0
 30 22  1  0  0  0  0
 31 29  2  0  0  0  0
M  END
>  <MODEL>
1

>  <REMARK>
 VINA RESULT:     -10.1      0.000      0.000
  Name = 
  2 active torsions:
  status: ('A' for Active; 'I' for Inactive)
    1  A    between atoms: C_9  and  C_22
    2  A    between atoms: C_15  and  N_23
                            x       y       z     vdW  Elec       q    Type
                         _______ _______ _______ _____ _____    ______ ____

>  <TORSDO>
F 2

$$$$
=
 OpenBabel10272400213D

 31 35  0  0  1  0  0  0  0  0999 V2000
  186.5100  178.6580  142.8670 C   0  0  0  0  0  3  0  0  0  0  0  0
  188.8010  177.9070  142.3470 C   0  0  0  0  0  0  0  0  0  0  0  0
  189.1730  177.8550  143.8290 C   0  0  1  0  0  3  0  0  0  0  0  0
  188.1190  177.5470  146.0500 C   0  0  0  0  0  2  0  0  0  0  0  0
  187.5020  178.3070  141.9360 C   0  0  0  0  0  0  0  0  0  0  0  0
  184.9340  179.0830  141.0830 C   0  0  0  0  0  3  0  0  0  0  0  0
  188.2100  176.9880  144.6370 C   0  0  0  0  0  2  0  0  0  0  0  0
  189.4560  177.7360  139.9840 C   0  0  0  0  0  0  0  0  0  0  0  0
  184.2900  179.3710  143.3570 F   0  0  0  0  0  0  0  0  0  0  0  0
  191.5720  177.9480  143.0810 C   0  0  0  0  0  2  0  0  0  0  0  0
  189.1380  176.9460  147.0250 C   0  0  0  0  0  2  0  0  0  0  0  0
  188.1550  178.0770  139.6050 C   0  0  0  0  0  3  0  0  0  0  0  0
  189.7910  177.6830  141.3500 C   0  0  0  0  0  0  0  0  0  0  0  0
  185.2350  179.0420  142.4450 C   0  0  0  0  0  0  0  0  0  0  0  0
  190.5350  176.6560  146.4630 C   0  0  0  0  0  2  0  0  0  0  0  0
  187.1890  178.3710  140.5590 C   0  0  0  0  0  0  0  0  0  0  0  0
  185.9100  178.7510  140.1410 C   0  0  0  0  0  3  0  0  0  0  0  0
  191.2120  177.3560  141.7310 C   0  0  0  0  0  2  0  0  0  0  0  0
  190.6080  177.3800  144.0980 C   0  0  1  0  0  3  0  0  0  0  0  0
  191.0510  177.7270  145.5120 C   0  0  0  0  0  2  0  0  0  0  0  0
  189.9090  175.2390  138.4900 O   0  0  0  0  0  0  0  0  0  0  0  0
  190.6610  176.2270  138.2780 C   0  0  0  0  0  0  0  0  0  0  0  0
  190.4640  177.4550  138.9960 N   0  0  0  0  0  2  0  0  0  0  0  0
  193.7730  175.9300  135.3330 C   0  0  0  0  0  0  0  0  0  0  0  0
  191.4520  175.7310  135.9770 C   0  0  0  0  0  3  0  0  0  0  0  0
  193.4670  176.8440  138.8860 O   0  0  0  0  0  1  0  0  0  0  0  0
  194.7920  175.8260  134.3460 N   0  0  0  0  0  1  0  0  0  0  0  0
  192.4500  175.6290  135.0060 C   0  0  0  0  0  3  0  0  0  0  0  0
  193.1020  176.4390  137.6070 C   0  0  0  0  0  0  0  0  0  0  0  0
  191.7580  176.1350  137.2860 C   0  0  0  0  0  0  0  0  0  0  0  0
  194.0960  176.3340  136.6300 C   0  0  0  0  0  3  0  0  0  0  0  0
  2  3  1  0  0  0  0
  3 19  1  0  0  0  0
  3  7  1  1  0  0  0
  4 11  1  0  0  0  0
  5  2  1  0  0  0  0
  5  1  2  0  0  0  0
  6 14  2  0  0  0  0
  7  4  1  0  0  0  0
  8 13  1  0  0  0  0
 12  8  2  0  0  0  0
 12 16  1  0  0  0  0
 13 18  1  0  0  0  0
 13  2  2  0  0  0  0
 14  1  1  0  0  0  0
 14  9  1  0  0  0  0
 15 11  1  0  0  0  0
 16  5  1  0  0  0  0
 17 16  2  0  0  0  0
 17  6  1  0  0  0  0
 18 10  1  0  0  0  0
 19 10  1  6  0  0  0
 19 20  1  0  0  0  0
 20 15  1  0  0  0  0
 22 21  2  0  0  0  0
 22 23  1  0  0  0  0
 23  8  1  0  0  0  0
 24 31  1  0  0  0  0
 25 30  2  0  0  0  0
 27 24  1  0  0  0  0
 28 24  2  0  0  0  0
 28 25  1  0  0  0  0
 29 26  1  0  0  0  0
 30 29  1  0  0  0  0
 30 22  1  0  0  0  0
 31 29  2  0  0  0  0
M  END
>  <MODEL>
2

>  <REMARK>
 VINA RESULT:     -10.0      1.575      2.188
  Name = 
  2 active torsions:
  status: ('A' for Active; 'I' for Inactive)
    1  A    between atoms: C_9  and  C_22
    2  A    between atoms: C_15  and  N_23
                            x       y       z     vdW  Elec       q    Type
                         _______ _______ _______ _____ _____    ______ ____

>  <TORSDO>
F 2

$$$$
=
 OpenBabel10272400213D

 31 35  0  0  1  0  0  0  0  0999 V2000
  186.7910  178.0630  145.4800 C   0  0  0  0  0  3  0  0  0  0  0  0
  186.7710  178.0910  143.0130 C   0  0  0  0  0  0  0  0  0  0  0  0
  188.2630  177.7590  142.9480 C   0  0  1  0  0  3  0  0  0  0  0  0
  190.0230  176.6280  144.2760 C   0  0  0  0  0  2  0  0  0  0  0  0
  186.1110  178.2320  144.2610 C   0  0  0  0  0  0  0  0  0  0  0  0
  184.7620  178.5090  146.7180 C   0  0  0  0  0  3  0  0  0  0  0  0
  188.6070  176.4940  143.7320 C   0  0  0  0  0  2  0  0  0  0  0  0
  184.6800  178.7080  141.8770 C   0  0  0  0  0  0  0  0  0  0  0  0
  186.7940  178.0260  147.8610 F   0  0  0  0  0  0  0  0  0  0  0  0
  188.2130  178.6590  140.6010 C   0  0  0  0  0  2  0  0  0  0  0  0
  191.1050  176.0820  143.3360 C   0  0  0  0  0  2  0  0  0  0  0  0
  184.0380  178.7860  143.1160 C   0  0  0  0  0  3  0  0  0  0  0  0
  186.0520  178.3950  141.8240 C   0  0  0  0  0  0  0  0  0  0  0  0
  186.1230  178.1990  146.6980 C   0  0  0  0  0  0  0  0  0  0  0  0
  190.8930  176.3180  141.8360 C   0  0  0  0  0  2  0  0  0  0  0  0
  184.7360  178.5650  144.2960 C   0  0  0  0  0  0  0  0  0  0  0  0
  184.0700  178.6940  145.5190 C   0  0  0  0  0  3  0  0  0  0  0  0
  186.7300  178.3600  140.4790 C   0  0  0  0  0  2  0  0  0  0  0  0
  188.8120  177.6180  141.5220 C   0  0  1  0  0  3  0  0  0  0  0  0
  190.3310  177.6940  141.5030 C   0  0  0  0  0  2  0  0  0  0  0  0
  183.0180  176.8480  140.3120 O   0  0  0  0  0  0  0  0  0  0  0  0
  183.1550  178.0350  139.9130 C   0  0  0  0  0  0  0  0  0  0  0  0
  183.9640  178.9610  140.6560 N   0  0  0  0  0  2  0  0  0  0  0  0
  181.1780  179.4380  136.3680 C   0  0  0  0  0  0  0  0  0  0  0  0
  181.7580  179.6920  138.7000 C   0  0  0  0  0  3  0  0  0  0  0  0
  183.2520  176.5670  137.3720 O   0  0  0  0  0  1  0  0  0  0  0  0
  180.5170  179.9160  135.2030 N   0  0  0  0  0  1  0  0  0  0  0  0
  181.1090  180.1640  137.5570 C   0  0  0  0  0  3  0  0  0  0  0  0
  182.5480  177.7630  137.4610 C   0  0  0  0  0  0  0  0  0  0  0  0
  182.4840  178.4910  138.6730 C   0  0  0  0  0  0  0  0  0  0  0  0
  181.8950  178.2410  136.3220 C   0  0  0  0  0  3  0  0  0  0  0  0
  1 14  1  0  0  0  0
  2  5  1  0  0  0  0
  3  2  1  0  0  0  0
  3  7  1  1  0  0  0
  5 16  1  0  0  0  0
  5  1  2  0  0  0  0
  7  4  1  0  0  0  0
  8 12  2  0  0  0  0
 11  4  1  0  0  0  0
 12 16  1  0  0  0  0
 13  8  1  0  0  0  0
 13  2  2  0  0  0  0
 14  6  2  0  0  0  0
 14  9  1  0  0  0  0
 15 11  1  0  0  0  0
 16 17  2  0  0  0  0
 17  6  1  0  0  0  0
 18 10  1  0  0  0  0
 18 13  1  0  0  0  0
 19 10  1  6  0  0  0
 19  3  1  0  0  0  0
 20 19  1  0  0  0  0
 20 15  1  0  0  0  0
 22 21  2  0  0  0  0
 22 23  1  0  0  0  0
 23  8  1  0  0  0  0
 24 28  1  0  0  0  0
 26 29  1  0  0  0  0
 27 24  1  0  0  0  0
 28 25  2  0  0  0  0
 29 30  2  0  0  0  0
 30 25  1  0  0  0  0
 30 22  1  0  0  0  0
 31 24  2  0  0  0  0
 31 29  1  0  0  0  0
M  END
>  <MODEL>
3

>  <REMARK>
 VINA RESULT:     -10.0      3.866      6.553
  Name = 
  2 active torsions:
  status: ('A' for Active; 'I' for Inactive)
    1  A    between atoms: C_9  and  C_22
    2  A    between atoms: C_15  and  N_23
                            x       y       z     vdW  Elec       q    Type
                         _______ _______ _______ _____ _____    ______ ____

>  <TORSDO>
F 2

$$$$
=
 OpenBabel10272400213D

 31 35  0  0  1  0  0  0  0  0999 V2000
  189.0520  176.9240  142.9510 C   0  0  0  0  0  3  0  0  0  0  0  0
  186.8720  178.0790  142.9060 C   0  0  0  0  0  0  0  0  0  0  0  0
  186.6920  177.9010  144.4140 C   0  0  1  0  0  3  0  0  0  0  0  0
  188.0380  177.6290  146.4770 C   0  0  0  0  0  2  0  0  0  0  0  0
  188.0280  177.5840  142.2480 C   0  0  0  0  0  0  0  0  0  0  0  0
  190.3130  176.6260  140.9090 C   0  0  0  0  0  3  0  0  0  0  0  0
  187.8740  178.4530  145.2070 C   0  0  0  0  0  2  0  0  0  0  0  0
  185.9800  178.7870  140.7280 C   0  0  0  0  0  0  0  0  0  0  0  0
  191.1630  175.8230  142.9830 F   0  0  0  0  0  0  0  0  0  0  0  0
  184.2390  178.2950  144.0200 C   0  0  0  0  0  2  0  0  0  0  0  0
  187.2550  178.1730  147.6780 C   0  0  0  0  0  2  0  0  0  0  0  0
  187.1520  178.3420  140.1110 C   0  0  0  0  0  3  0  0  0  0  0  0
  185.8230  178.6270  142.1180 C   0  0  0  0  0  0  0  0  0  0  0  0
  190.1860  176.4500  142.2880 C   0  0  0  0  0  0  0  0  0  0  0  0
  185.8700  178.7600  147.3830 C   0  0  0  0  0  2  0  0  0  0  0  0
  188.1620  177.7380  140.8490 C   0  0  0  0  0  0  0  0  0  0  0  0
  189.3010  177.2660  140.1900 C   0  0  0  0  0  3  0  0  0  0  0  0
  184.5320  179.0750  142.7520 C   0  0  0  0  0  2  0  0  0  0  0  0
  185.3990  178.5170  144.9670 C   0  0  1  0  0  3  0  0  0  0  0  0
  185.0740  177.9740  146.3510 C   0  0  0  0  0  2  0  0  0  0  0  0
  183.5770  177.5110  139.6020 O   0  0  0  0  0  0  0  0  0  0  0  0
  183.7580  178.7450  139.4250 C   0  0  0  0  0  0  0  0  0  0  0  0
  184.9240  179.3910  139.9600 N   0  0  0  0  0  2  0  0  0  0  0  0
  180.9200  181.1450  137.2720 C   0  0  0  0  0  0  0  0  0  0  0  0
  182.5730  180.8890  139.0160 C   0  0  0  0  0  3  0  0  0  0  0  0
  182.1720  177.6840  137.1930 O   0  0  0  0  0  1  0  0  0  0  0  0
  179.9840  181.9530  136.5700 N   0  0  0  0  0  1  0  0  0  0  0  0
  181.6560  181.6850  138.3280 C   0  0  0  0  0  3  0  0  0  0  0  0
  182.0210  179.0070  137.5900 C   0  0  0  0  0  0  0  0  0  0  0  0
  182.7710  179.5450  138.6620 C   0  0  0  0  0  0  0  0  0  0  0  0
  181.1030  179.8100  136.9060 C   0  0  0  0  0  3  0  0  0  0  0  0
  2  3  1  0  0  0  0
  3 19  1  0  0  0  0
  3  7  1  1  0  0  0
  4 11  1  0  0  0  0
  5  2  1  0  0  0  0
  5  1  2  0  0  0  0
  6 14  2  0  0  0  0
  7  4  1  0  0  0  0
  8 13  1  0  0  0  0
 12  8  2  0  0  0  0
 12 16  1  0  0  0  0
 13 18  1  0  0  0  0
 13  2  2  0  0  0  0
 14  1  1  0  0  0  0
 14  9  1  0  0  0  0
 15 11  1  0  0  0  0
 16  5  1  0  0  0  0
 17 16  2  0  0  0  0
 17  6  1  0  0  0  0
 18 10  1  0  0  0  0
 19 10  1  6  0  0  0
 19 20  1  0  0  0  0
 20 15  1  0  0  0  0
 22 21  2  0  0  0  0
 22 23  1  0  0  0  0
 23  8  1  0  0  0  0
 24 28  1  0  0  0  0
 26 29  1  0  0  0  0
 27 24  1  0  0  0  0
 28 25  2  0  0  0  0
 29 30  2  0  0  0  0
 30 25  1  0  0  0  0
 30 22  1  0  0  0  0
 31 24  2  0  0  0  0
 31 29  1  0  0  0  0
M  END
>  <MODEL>
4

>  <REMARK>
 VINA RESULT:     -10.0      4.026      6.943
  Name = 
  2 active torsions:
  status: ('A' for Active; 'I' for Inactive)
    1  A    between atoms: C_9  and  C_22
    2  A    between atoms: C_15  and  N_23
                            x       y       z     vdW  Elec       q    Type
                         _______ _______ _______ _____ _____    ______ ____

>  <TORSDO>
F 2

$$$$
=
 OpenBabel10272400213D

 31 35  0  0  1  0  0  0  0  0999 V2000
  186.5420  178.6040  141.7610 C   0  0  0  0  0  3  0  0  0  0  0  0
  188.8760  177.8080  141.6850 C   0  0  0  0  0  0  0  0  0  0  0  0
  189.0130  177.9130  143.2040 C   0  0  1  0  0  3  0  0  0  0  0  0
  187.6230  177.8380  145.2540 C   0  0  0  0  0  2  0  0  0  0  0  0
  187.6620  178.1590  141.0380 C   0  0  0  0  0  0  0  0  0  0  0  0
  185.2680  178.8350  139.7180 C   0  0  0  0  0  3  0  0  0  0  0  0
  187.9250  177.1330  143.9380 C   0  0  0  0  0  2  0  0  0  0  0  0
  189.8870  177.3910  139.4830 C   0  0  0  0  0  0  0  0  0  0  0  0
  184.2840  179.3590  141.8220 F   0  0  0  0  0  0  0  0  0  0  0  0
  191.5000  177.9330  142.8330 C   0  0  0  0  0  2  0  0  0  0  0  0
  188.4700  177.3450  146.4330 C   0  0  0  0  0  2  0  0  0  0  0  0
  188.6650  177.6870  138.8730 C   0  0  0  0  0  3  0  0  0  0  0  0
  190.0050  177.4830  140.8830 C   0  0  0  0  0  0  0  0  0  0  0  0
  185.3540  178.9380  141.1080 C   0  0  0  0  0  0  0  0  0  0  0  0
  189.9330  177.0010  146.1280 C   0  0  0  0  0  2  0  0  0  0  0  0
  187.5670  178.0780  139.6290 C   0  0  0  0  0  0  0  0  0  0  0  0
  186.3730  178.4080  138.9800 C   0  0  0  0  0  3  0  0  0  0  0  0
  191.3450  177.2010  141.5130 C   0  0  0  0  0  2  0  0  0  0  0  0
  190.3820  177.4720  143.7410 C   0  0  1  0  0  3  0  0  0  0  0  0
  190.6050  177.9670  145.1620 C   0  0  0  0  0  2  0  0  0  0  0  0
  190.4350  174.8080  138.1800 O   0  0  0  0  0  0  0  0  0  0  0  0
  191.2730  175.7420  138.0700 C   0  0  0  0  0  0  0  0  0  0  0  0
  191.0320  177.0110  138.6990 N   0  0  0  0  0  2  0  0  0  0  0  0
  194.9300  175.1440  135.8980 C   0  0  0  0  0  0  0  0  0  0  0  0
  193.6850  175.1600  137.9690 C   0  0  0  0  0  3  0  0  0  0  0  0
  191.4540  176.1080  135.1620 O   0  0  0  0  0  1  0  0  0  0  0  0
  196.1490  174.9420  135.1940 N   0  0  0  0  0  1  0  0  0  0  0  0
  194.8830  174.9600  137.2800 C   0  0  0  0  0  3  0  0  0  0  0  0
  192.5760  175.7280  135.8890 C   0  0  0  0  0  0  0  0  0  0  0  0
  192.5180  175.5440  137.2910 C   0  0  0  0  0  0  0  0  0  0  0  0
  193.7790  175.5270  135.2060 C   0  0  0  0  0  3  0  0  0  0  0  0
  2  3  1  0  0  0  0
  3 19  1  0  0  0  0
  3  7  1  1  0  0  0
  4 11  1  0  0  0  0
  5  2  1  0  0  0  0
  5  1  2  0  0  0  0
  6 14  2  0  0  0  0
  7  4  1  0  0  0  0
  8 13  1  0  0  0  0
 12  8  2  0  0  0  0
 12 16  1  0  0  0  0
 13 18  1  0  0  0  0
 13  2  2  0  0  0  0
 14  1  1  0  0  0  0
 14  9  1  0  0  0  0
 15 11  1  0  0  0  0
 16  5  1  0  0  0  0
 17 16  2  0  0  0  0
 17  6  1  0  0  0  0
 18 10  1  0  0  0  0
 19 10  1  6  0  0  0
 19 20  1  0  0  0  0
 20 15  1  0  0  0  0
 22 21  2  0  0  0  0
 22 23  1  0  0  0  0
 23  8  1  0  0  0  0
 24 28  1  0  0  0  0
 26 29  1  0  0  0  0
 27 24  1  0  0  0  0
 28 25  2  0  0  0  0
 29 30  2  0  0  0  0
 30 25  1  0  0  0  0
 30 22  1  0  0  0  0
 31 29  1  0  0  0  0
 31 24  2  0  0  0  0
M  END
>  <MODEL>
5

>  <REMARK>
 VINA RESULT:      -9.8      2.080      3.106
  Name = 
  2 active torsions:
  status: ('A' for Active; 'I' for Inactive)
    1  A    between atoms: C_9  and  C_22
    2  A    between atoms: C_15  and  N_23
                            x       y       z     vdW  Elec       q    Type
                         _______ _______ _______ _____ _____    ______ ____

>  <TORSDO>
F 2

$$$$
=
 OpenBabel10272400213D

 31 35  0  0  1  0  0  0  0  0999 V2000
  186.6060  178.4700  137.3670 C   0  0  0  0  0  3  0  0  0  0  0  0
  186.3850  178.3110  139.8190 C   0  0  0  0  0  0  0  0  0  0  0  0
  184.8760  178.5550  139.7480 C   0  0  1  0  0  3  0  0  0  0  0  0
  182.9690  178.2620  138.1940 C   0  0  0  0  0  2  0  0  0  0  0  0
  187.1740  178.2850  138.6400 C   0  0  0  0  0  0  0  0  0  0  0  0
  188.7720  178.2140  136.3220 C   0  0  0  0  0  3  0  0  0  0  0  0
  184.1750  177.5710  138.8150 C   0  0  0  0  0  2  0  0  0  0  0  0
  188.4300  178.0210  141.1510 C   0  0  0  0  0  0  0  0  0  0  0  0
  186.8310  178.6070  135.0000 F   0  0  0  0  0  0  0  0  0  0  0  0
  185.0130  179.2010  142.1740 C   0  0  0  0  0  2  0  0  0  0  0  0
  181.6730  178.0930  138.9960 C   0  0  0  0  0  2  0  0  0  0  0  0
  189.1780  177.9420  139.9740 C   0  0  0  0  0  3  0  0  0  0  0  0
  187.0410  178.2390  141.0790 C   0  0  0  0  0  0  0  0  0  0  0  0
  187.3970  178.4330  136.2170 C   0  0  0  0  0  0  0  0  0  0  0  0
  181.8040  178.1250  140.5230 C   0  0  0  0  0  2  0  0  0  0  0  0
  188.5710  178.0820  138.7320 C   0  0  0  0  0  0  0  0  0  0  0  0
  189.3580  178.0410  137.5770 C   0  0  0  0  0  3  0  0  0  0  0  0
  186.2640  178.3630  142.3640 C   0  0  0  0  0  2  0  0  0  0  0  0
  184.1730  178.5280  141.1110 C   0  0  1  0  0  3  0  0  0  0  0  0
  182.7920  179.1630  141.0360 C   0  0  0  0  0  2  0  0  0  0  0  0
  188.4470  175.7060  142.9710 O   0  0  0  0  0  0  0  0  0  0  0  0
  189.0580  176.7550  143.3060 C   0  0  0  0  0  0  0  0  0  0  0  0
  189.0620  177.9000  142.4380 N   0  0  0  0  0  2  0  0  0  0  0  0
  191.2340  176.9180  147.0050 C   0  0  0  0  0  0  0  0  0  0  0  0
  191.1350  176.4590  144.6340 C   0  0  0  0  0  3  0  0  0  0  0  0
  187.8170  177.6110  145.8250 O   0  0  0  0  0  1  0  0  0  0  0  0
  191.9690  176.9660  148.2210 N   0  0  0  0  0  1  0  0  0  0  0  0
  191.8590  176.5060  145.8270 C   0  0  0  0  0  3  0  0  0  0  0  0
  189.1560  177.2400  145.7970 C   0  0  0  0  0  0  0  0  0  0  0  0
  189.7800  176.8220  144.5980 C   0  0  0  0  0  0  0  0  0  0  0  0
  189.8870  177.2830  146.9880 C   0  0  0  0  0  3  0  0  0  0  0  0
  1  5  1  0  0  0  0
  2 13  1  0  0  0  0
  3  7  1  6  0  0  0
  3  2  1  0  0  0  0
  3 19  1  0  0  0  0
  4  7  1  0  0  0  0
  4 11  1  0  0  0  0
  5 16  1  0  0  0  0
  5  2  2  0  0  0  0
  6 17  2  0  0  0  0
  8 23  1  0  0  0  0
  9 14  1  0  0  0  0
 10 18  1  0  0  0  0
 11 15  1  0  0  0  0
 12  8  1  0  0  0  0
 13  8  2  0  0  0  0
 13 18  1  0  0  0  0
 14  6  1  0  0  0  0
 14  1  2  0  0  0  0
 15 20  1  0  0  0  0
 16 12  2  0  0  0  0
 17 16  1  0  0  0  0
 19 20  1  6  0  0  0
 19 10  1  0  0  0  0
 21 22  2  0  0  0  0
 22 30  1  0  0  0  0
 23 22  1  0  0  0  0
 24 27  1  0  0  0  0
 25 28  1  0  0  0  0
 28 24  2  0  0  0  0
 29 26  1  0  0  0  0
 29 31  2  0  0  0  0
 30 25  2  0  0  0  0
 30 29  1  0  0  0  0
 31 24  1  0  0  0  0
M  END
>  <MODEL>
6

>  <REMARK>
 VINA RESULT:      -9.6      3.468      7.504
  Name = 
  2 active torsions:
  status: ('A' for Active; 'I' for Inactive)
    1  A    between atoms: C_9  and  C_22
    2  A    between atoms: C_15  and  N_23
                            x       y       z     vdW  Elec       q    Type
                         _______ _______ _______ _____ _____    ______ ____

>  <TORSDO>
F 2

$$$$
=
 OpenBabel10272400213D

 31 35  0  0  1  0  0  0  0  0999 V2000
  186.7540  178.3520  145.9080 C   0  0  0  0  0  3  0  0  0  0  0  0
  188.4510  177.6060  144.2790 C   0  0  0  0  0  0  0  0  0  0  0  0
  189.5160  177.4870  145.3700 C   0  0  1  0  0  3  0  0  0  0  0  0
  189.7130  177.0900  147.8080 C   0  0  0  0  0  2  0  0  0  0  0  0
  187.1340  178.0330  144.5920 C   0  0  0  0  0  0  0  0  0  0  0  0
  184.5080  178.8660  145.1750 C   0  0  0  0  0  3  0  0  0  0  0  0
  189.0650  176.5930  146.5220 C   0  0  0  0  0  2  0  0  0  0  0  0
  187.8240  177.5340  141.9040 C   0  0  0  0  0  0  0  0  0  0  0  0
  185.1040  179.0590  147.4720 F   0  0  0  0  0  0  0  0  0  0  0  0
  191.2150  177.5940  143.5190 C   0  0  0  0  0  2  0  0  0  0  0  0
  191.0670  176.4390  148.1160 C   0  0  0  0  0  2  0  0  0  0  0  0
  186.5190  177.9010  142.2430 C   0  0  0  0  0  3  0  0  0  0  0  0
  188.7990  177.4190  142.9130 C   0  0  0  0  0  0  0  0  0  0  0  0
  185.4520  178.7630  146.1980 C   0  0  0  0  0  0  0  0  0  0  0  0
  191.9830  176.1640  146.9170 C   0  0  0  0  0  2  0  0  0  0  0  0
  186.1720  178.1610  143.5630 C   0  0  0  0  0  0  0  0  0  0  0  0
  184.8680  178.5680  143.8590 C   0  0  0  0  0  3  0  0  0  0  0  0
  190.2080  177.0640  142.5150 C   0  0  0  0  0  2  0  0  0  0  0  0
  190.8770  176.9890  144.8640 C   0  0  1  0  0  3  0  0  0  0  0  0
  191.9810  177.2710  145.8720 C   0  0  0  0  0  2  0  0  0  0  0  0
  188.9000  179.4350  139.9290 O   0  0  0  0  0  0  0  0  0  0  0  0
  188.7170  178.2350  139.5910 C   0  0  0  0  0  0  0  0  0  0  0  0
  188.1900  177.2880  140.5340 N   0  0  0  0  0  2  0  0  0  0  0  0
  189.7440  176.8820  135.6460 C   0  0  0  0  0  0  0  0  0  0  0  0
  190.1860  176.9940  138.0190 C   0  0  0  0  0  3  0  0  0  0  0  0
  187.1030  178.9000  137.2300 O   0  0  0  0  0  1  0  0  0  0  0  0
  190.0980  176.4260  134.3460 N   0  0  0  0  0  1  0  0  0  0  0  0
  190.5360  176.5450  136.7440 C   0  0  0  0  0  3  0  0  0  0  0  0
  188.2460  178.1200  137.0970 C   0  0  0  0  0  0  0  0  0  0  0  0
  189.0430  177.7850  138.2170 C   0  0  0  0  0  0  0  0  0  0  0  0
  188.6030  177.6670  135.8240 C   0  0  0  0  0  3  0  0  0  0  0  0
  1 14  1  0  0  0  0
  2  5  1  0  0  0  0
  2  3  1  0  0  0  0
  3  7  1  1  0  0  0
  4 11  1  0  0  0  0
  5  1  2  0  0  0  0
  6 14  2  0  0  0  0
  7  4  1  0  0  0  0
  8 12  2  0  0  0  0
  8 13  1  0  0  0  0
 12 16  1  0  0  0  0
 13  2  2  0  0  0  0
 14  9  1  0  0  0  0
 15 11  1  0  0  0  0
 16 17  2  0  0  0  0
 16  5  1  0  0  0  0
 17  6  1  0  0  0  0
 18 13  1  0  0  0  0
 18 10  1  0  0  0  0
 19 10  1  6  0  0  0
 19  3  1  0  0  0  0
 19 20  1  0  0  0  0
 20 15  1  0  0  0  0
 22 21  2  0  0  0  0
 22 23  1  0  0  0  0
 23  8  1  0  0  0  0
 24 31  2  0  0  0  0
 24 28  1  0  0  0  0
 25 30  1  0  0  0  0
 27 24  1  0  0  0  0
 28 25  2  0  0  0  0
 29 26  1  0  0  0  0
 29 30  2  0  0  0  0
 30 22  1  0  0  0  0
 31 29  1  0  0  0  0
M  END
>  <MODEL>
7

>  <REMARK>
 VINA RESULT:      -9.6      1.665      2.562
  Name = 
  2 active torsions:
  status: ('A' for Active; 'I' for Inactive)
    1  A    between atoms: C_9  and  C_22
    2  A    between atoms: C_15  and  N_23
                            x       y       z     vdW  Elec       q    Type
                         _______ _______ _______ _____ _____    ______ ____

>  <TORSDO>
F 2

$$$$
=
 OpenBabel10272400213D

 31 35  0  0  1  0  0  0  0  0999 V2000
  186.5290  178.3320  137.1180 C   0  0  0  0  0  3  0  0  0  0  0  0
  185.5980  178.2310  139.4010 C   0  0  0  0  0  0  0  0  0  0  0  0
  184.1640  178.2380  138.8690 C   0  0  1  0  0  3  0  0  0  0  0  0
  182.8760  177.5990  136.8510 C   0  0  0  0  0  2  0  0  0  0  0  0
  186.7040  178.2830  138.5130 C   0  0  0  0  0  0  0  0  0  0  0  0
  188.9240  178.3730  136.7820 C   0  0  0  0  0  3  0  0  0  0  0  0
  183.9190  177.1240  137.8540 C   0  0  0  0  0  2  0  0  0  0  0  0
  187.1630  178.3060  141.2950 C   0  0  0  0  0  0  0  0  0  0  0  0
  187.4410  178.4160  134.9200 F   0  0  0  0  0  0  0  0  0  0  0  0
  183.4700  178.9860  141.1680 C   0  0  0  0  0  2  0  0  0  0  0  0
  181.4330  177.2630  137.2470 C   0  0  0  0  0  2  0  0  0  0  0  0
  188.2360  178.3000  140.4010 C   0  0  0  0  0  3  0  0  0  0  0  0
  185.8450  178.3060  140.8000 C   0  0  0  0  0  0  0  0  0  0  0  0
  187.6290  178.3750  136.2600 C   0  0  0  0  0  0  0  0  0  0  0  0
  181.0890  177.3700  138.7370 C   0  0  0  0  0  2  0  0  0  0  0  0
  188.0210  178.3000  139.0280 C   0  0  0  0  0  0  0  0  0  0  0  0
  189.1190  178.3380  138.1640 C   0  0  0  0  0  3  0  0  0  0  0  0
  184.7060  178.3570  141.7840 C   0  0  0  0  0  2  0  0  0  0  0  0
  183.0900  178.1530  139.9620 C   0  0  1  0  0  3  0  0  0  0  0  0
  181.7260  178.5660  139.4320 C   0  0  0  0  0  2  0  0  0  0  0  0
  187.8560  176.0670  143.0780 O   0  0  0  0  0  0  0  0  0  0  0  0
  187.7270  177.2220  143.5640 C   0  0  0  0  0  0  0  0  0  0  0  0
  187.3850  178.3310  142.7160 N   0  0  0  0  0  2  0  0  0  0  0  0
  188.2020  177.9130  147.7760 C   0  0  0  0  0  0  0  0  0  0  0  0
  186.8280  177.8610  145.7890 C   0  0  0  0  0  3  0  0  0  0  0  0
  190.2990  176.8710  144.9360 O   0  0  0  0  0  1  0  0  0  0  0  0
  188.3420  178.1460  149.1720 N   0  0  0  0  0  1  0  0  0  0  0  0
  186.9630  178.0900  147.1590 C   0  0  0  0  0  3  0  0  0  0  0  0
  189.1760  177.2740  145.6490 C   0  0  0  0  0  0  0  0  0  0  0  0
  187.9240  177.4520  145.0140 C   0  0  0  0  0  0  0  0  0  0  0  0
  189.3040  177.5060  147.0220 C   0  0  0  0  0  3  0  0  0  0  0  0
  1  5  1  0  0  0  0
  2 13  1  0  0  0  0
  3  7  1  6  0  0  0
  3  2  1  0  0  0  0
  3 19  1  0  0  0  0
  4 11  1  0  0  0  0
  4  7  1  0  0  0  0
  5 16  1  0  0  0  0
  5  2  2  0  0  0  0
  6 17  2  0  0  0  0
  8 23  1  0  0  0  0
  9 14  1  0  0  0  0
 10 18  1  0  0  0  0
 11 15  1  0  0  0  0
 12  8  1  0  0  0  0
 13  8  2  0  0  0  0
 13 18  1  0  0  0  0
 14  6  1  0  0  0  0
 14  1  2  0  0  0  0
 15 20  1  0  0  0  0
 16 12  2  0  0  0  0
 17 16  1  0  0  0  0
 19 20  1  6  0  0  0
 19 10  1  0  0  0  0
 21 22  2  0  0  0  0
 22 30  1  0  0  0  0
 23 22  1  0  0  0  0
 24 27  1  0  0  0  0
 25 28  2  0  0  0  0
 26 29  1  0  0  0  0
 28 24  1  0  0  0  0
 29 31  1  0  0  0  0
 30 29  2  0  0  0  0
 30 25  1  0  0  0  0
 31 24  2  0  0  0  0
M  END
>  <MODEL>
8

>  <REMARK>
 VINA RESULT:      -9.2      3.749      8.332
  Name = 
  2 active torsions:
  status: ('A' for Active; 'I' for Inactive)
    1  A    between atoms: C_9  and  C_22
    2  A    between atoms: C_15  and  N_23
                            x       y       z     vdW  Elec       q    Type
                         _______ _______ _______ _____ _____    ______ ____

>  <TORSDO>
F 2

$$$$
=
 OpenBabel10272400213D

 31 35  0  0  1  0  0  0  0  0999 V2000
  187.8330  177.7220  136.8060 C   0  0  0  0  0  3  0  0  0  0  0  0
  186.6590  177.9880  138.9600 C   0  0  0  0  0  0  0  0  0  0  0  0
  185.3180  178.2060  138.2580 C   0  0  1  0  0  3  0  0  0  0  0  0
  184.1570  177.6360  136.1440 C   0  0  0  0  0  2  0  0  0  0  0  0
  187.8440  177.7630  138.2120 C   0  0  0  0  0  0  0  0  0  0  0  0
  190.2140  177.3030  136.7630 C   0  0  0  0  0  3  0  0  0  0  0  0
  184.9780  177.0700  137.2960 C   0  0  0  0  0  2  0  0  0  0  0  0
  187.9960  177.9460  141.0220 C   0  0  0  0  0  0  0  0  0  0  0  0
  188.9750  177.4490  134.7340 F   0  0  0  0  0  0  0  0  0  0  0  0
  184.5330  179.2630  140.4010 C   0  0  0  0  0  2  0  0  0  0  0  0
  182.6420  177.5990  136.3820 C   0  0  0  0  0  2  0  0  0  0  0  0
  189.1390  177.6700  140.2670 C   0  0  0  0  0  3  0  0  0  0  0  0
  186.7630  178.1390  140.3700 C   0  0  0  0  0  0  0  0  0  0  0  0
  189.0070  177.4920  136.0870 C   0  0  0  0  0  0  0  0  0  0  0  0
  182.1670  177.8960  137.8090 C   0  0  0  0  0  2  0  0  0  0  0  0
  189.0770  177.5890  138.8820 C   0  0  0  0  0  0  0  0  0  0  0  0
  190.2500  177.3540  138.1570 C   0  0  0  0  0  3  0  0  0  0  0  0
  185.5550  178.4790  141.2030 C   0  0  0  0  0  2  0  0  0  0  0  0
  184.1360  178.4100  139.2150 C   0  0  1  0  0  3  0  0  0  0  0  0
  182.9380  179.0140  138.4970 C   0  0  0  0  0  2  0  0  0  0  0  0
  188.1950  175.7850  143.0120 O   0  0  0  0  0  0  0  0  0  0  0  0
  188.1660  176.9810  143.4050 C   0  0  0  0  0  0  0  0  0  0  0  0
  188.0650  178.0540  142.4550 N   0  0  0  0  0  2  0  0  0  0  0  0
  188.2630  177.9150  147.5960 C   0  0  0  0  0  0  0  0  0  0  0  0
  187.0550  177.6650  145.5180 C   0  0  0  0  0  3  0  0  0  0  0  0
  190.6410  176.8840  144.9820 O   0  0  0  0  0  1  0  0  0  0  0  0
  188.2780  178.2270  148.9830 N   0  0  0  0  0  1  0  0  0  0  0  0
  187.0670  177.9720  146.8800 C   0  0  0  0  0  3  0  0  0  0  0  0
  189.4410  177.2410  145.5860 C   0  0  0  0  0  0  0  0  0  0  0  0
  188.2340  177.2970  144.8510 C   0  0  0  0  0  0  0  0  0  0  0  0
  189.4460  177.5500  146.9500 C   0  0  0  0  0  3  0  0  0  0  0  0
  1  5  1  0  0  0  0
  2 13  1  0  0  0  0
  3  7  1  1  0  0  0
  3  2  1  0  0  0  0
  3 19  1  0  0  0  0
  4 11  1  0  0  0  0
  4  7  1  0  0  0  0
  5 16  1  0  0  0  0
  5  2  2  0  0  0  0
  6 17  2  0  0  0  0
  8 23  1  0  0  0  0
  9 14  1  0  0  0  0
 10 18  1  0  0  0  0
 11 15  1  0  0  0  0
 12  8  1  0  0  0  0
 13  8  2  0  0  0  0
 13 18  1  0  0  0  0
 14  6  1  0  0  0  0
 14  1  2  0  0  0  0
 15 20  1  0  0  0  0
 16 12  2  0  0  0  0
 17 16  1  0  0  0  0
 19 20  1  6  0  0  0
 19 10  1  0  0  0  0
 21 22  2  0  0  0  0
 22 30  1  0  0  0  0
 23 22  1  0  0  0  0
 24 27  1  0  0  0  0
 25 28  1  0  0  0  0
 26 29  1  0  0  0  0
 28 24  2  0  0  0  0
 29 31  2  0  0  0  0
 30 25  2  0  0  0  0
 30 29  1  0  0  0  0
 31 24  1  0  0  0  0
M  END
>  <MODEL>
9

>  <REMARK>
 VINA RESULT:      -9.2      3.764      8.458
  Name = 
  2 active torsions:
  status: ('A' for Active; 'I' for Inactive)
    1  A    between atoms: C_9  and  C_22
    2  A    between atoms: C_15  and  N_23
                            x       y       z     vdW  Elec       q    Type
                         _______ _______ _______ _____ _____    ______ ____

>  <TORSDO>
F 2

$$$$
