=
 OpenBabel10272401043D

 27 31  0  0  1  0  0  0  0  0999 V2000
  188.9730  178.7640  140.6900 C   0  0  0  0  0  2  0  0  0  0  0  0
  186.5030  178.3970  140.5030 C   0  0  0  0  0  0  0  0  0  0  0  0
  187.3080  177.7510  142.7750 N   0  0  0  0  0  2  0  0  0  0  0  0
  182.6800  179.0890  141.9970 C   0  0  0  0  0  3  0  0  0  0  0  0
  181.0420  179.2290  143.8770 C   0  0  0  0  0  1  0  0  0  0  0  0
  185.4540  178.7420  139.7040 N   0  0  0  0  0  0  0  0  0  0  0  0
  184.7220  178.3580  143.7690 C   0  0  0  0  0  3  0  0  0  0  0  0
  189.0950  176.8850  144.8190 C   0  0  0  0  0  2  0  0  0  0  0  0
  183.4310  178.6030  144.2480 C   0  0  0  0  0  3  0  0  0  0  0  0
  190.3470  177.7520  144.8170 C   0  0  0  0  0  2  0  0  0  0  0  0
  185.0020  178.4820  142.4000 C   0  0  0  0  0  0  0  0  0  0  0  0
  187.8180  178.2950  139.9270 N   0  0  0  0  0  0  0  0  0  0  0  0
  182.4120  178.9690  143.3640 C   0  0  0  0  0  0  0  0  0  0  0  0
  183.9690  178.8480  141.5150 C   0  0  0  0  0  0  0  0  0  0  0  0
  189.5160  177.6600  141.5860 C   0  0  1  0  0  3  0  0  0  0  0  0
  186.2820  178.2250  141.8880 C   0  0  0  0  0  0  0  0  0  0  0  0
  188.9470  176.0640  143.5370 C   0  0  0  0  0  2  0  0  0  0  0  0
  184.2310  178.9530  140.1890 N   0  0  0  0  0  0  0  0  0  0  0  0
  190.3090  178.8070  143.7210 C   0  0  0  0  0  2  0  0  0  0  0  0
  190.7080  178.1710  142.4000 C   0  0  0  0  0  2  0  0  0  0  0  0
  188.4210  176.8980  142.3630 C   0  0  1  0  0  3  0  0  0  0  0  0
  189.0820  177.2330  136.0570 C   0  0  0  0  0  2  0  0  0  0  0  0
  187.9560  178.0650  138.4910 C   0  0  2  0  0  3  0  0  0  0  0  0
  187.7840  176.5830  138.1520 C   0  0  0  0  0  2  0  0  0  0  0  0
  187.9920  176.3340  136.6560 C   0  0  0  0  0  2  0  0  0  0  0  0
  189.9990  177.7020  137.0930 N   0  0  0  0  0  2  0  0  0  0  0  0
  189.2860  178.6400  137.9660 C   0  0  0  0  0  2  0  0  0  0  0  0
  2 16  1  0  0  0  0
  4 13  2  0  0  0  0
  6 18  1  0  0  0  0
  6  2  2  0  0  0  0
  7  9  2  0  0  0  0
 10  8  1  0  0  0  0
 11  7  1  0  0  0  0
 12  2  1  0  0  0  0
 12  1  1  0  0  0  0
 13  5  1  0  0  0  0
 13  9  1  0  0  0  0
 14  4  1  0  0  0  0
 14 11  1  0  0  0  0
 15  1  1  1  0  0  0
 15 21  1  0  0  0  0
 15 20  1  0  0  0  0
 16 11  2  0  0  0  0
 16  3  1  0  0  0  0
 17  8  1  0  0  0  0
 18 14  2  0  0  0  0
 19 10  1  0  0  0  0
 20 19  1  0  0  0  0
 21  3  1  0  0  0  0
 21 17  1  1  0  0  0
 22 25  1  0  0  0  0
 22 26  1  0  0  0  0
 23 27  1  1  0  0  0
 23 12  1  0  0  0  0
 24 23  1  0  0  0  0
 25 24  1  0  0  0  0
 26 27  1  0  0  0  0
M  END
>  <MODEL>
1

>  <REMARK>
 VINA RESULT:      -8.5      0.000      0.000
  Name = 
  1 active torsions:
  status: ('A' for Active; 'I' for Inactive)
    1  A    between atoms: C_9  and  N_15
                            x       y       z     vdW  Elec       q    Type
                         _______ _______ _______ _____ _____    ______ ____

>  <TORSDO>
F 1

$$$$
=
 OpenBabel10272401043D

 27 31  0  0  1  0  0  0  0  0999 V2000
  189.3860  176.7920  140.8150 C   0  0  0  0  0  2  0  0  0  0  0  0
  187.4370  178.0460  141.7630 C   0  0  0  0  0  0  0  0  0  0  0  0
  187.5230  178.3190  139.2840 N   0  0  0  0  0  2  0  0  0  0  0  0
  183.3410  178.7900  141.7550 C   0  0  0  0  0  3  0  0  0  0  0  0
  181.1870  179.2380  140.5750 C   0  0  0  0  0  1  0  0  0  0  0  0
  186.7030  178.1220  142.9090 N   0  0  0  0  0  0  0  0  0  0  0  0
  184.7120  178.6940  139.3150 C   0  0  0  0  0  3  0  0  0  0  0  0
  188.6180  178.4370  136.6560 C   0  0  0  0  0  2  0  0  0  0  0  0
  183.3350  178.9350  139.3370 C   0  0  0  0  0  3  0  0  0  0  0  0
  189.4110  177.1700  136.3660 C   0  0  0  0  0  2  0  0  0  0  0  0
  185.4130  178.4940  140.5140 C   0  0  0  0  0  0  0  0  0  0  0  0
  188.8220  177.6640  141.8440 N   0  0  0  0  0  0  0  0  0  0  0  0
  182.6500  178.9820  140.5550 C   0  0  0  0  0  0  0  0  0  0  0  0
  184.7170  178.5460  141.7370 C   0  0  0  0  0  0  0  0  0  0  0  0
  189.9030  177.6060  139.6370 C   0  0  1  0  0  3  0  0  0  0  0  0
  186.7970  178.2680  140.5230 C   0  0  0  0  0  0  0  0  0  0  0  0
  189.2370  179.2720  137.7790 C   0  0  0  0  0  2  0  0  0  0  0  0
  185.3930  178.3700  142.8990 N   0  0  0  0  0  0  0  0  0  0  0  0
  189.4220  176.2190  137.5530 C   0  0  0  0  0  2  0  0  0  0  0  0
  190.4670  176.6810  138.5550 C   0  0  0  0  0  2  0  0  0  0  0  0
  188.9280  178.7070  139.1700 C   0  0  1  0  0  3  0  0  0  0  0  0
  191.5330  177.5410  145.0590 C   0  0  0  0  0  2  0  0  0  0  0  0
  189.5440  177.8460  143.1010 C   0  0  2  0  0  3  0  0  0  0  0  0
  190.8170  178.6690  142.8890 C   0  0  0  0  0  2  0  0  0  0  0  0
  191.6060  178.8060  144.1930 C   0  0  0  0  0  2  0  0  0  0  0  0
  191.2080  176.3710  144.2470 N   0  0  0  0  0  2  0  0  0  0  0  0
  189.8240  176.4900  143.7770 C   0  0  0  0  0  2  0  0  0  0  0  0
  1 12  1  0  0  0  0
  2 12  1  0  0  0  0
  2  6  1  0  0  0  0
  3 16  1  0  0  0  0
  7  9  2  0  0  0  0
  7 11  1  0  0  0  0
  8 17  1  0  0  0  0
  9 13  1  0  0  0  0
 10  8  1  0  0  0  0
 10 19  1  0  0  0  0
 11 16  1  0  0  0  0
 11 14  2  0  0  0  0
 13  5  1  0  0  0  0
 13  4  2  0  0  0  0
 14  4  1  0  0  0  0
 14 18  1  0  0  0  0
 15 20  1  6  0  0  0
 15  1  1  0  0  0  0
 16  2  2  0  0  0  0
 18  6  2  0  0  0  0
 19 20  1  0  0  0  0
 21 17  1  6  0  0  0
 21  3  1  0  0  0  0
 21 15  1  0  0  0  0
 23 12  1  6  0  0  0
 23 27  1  0  0  0  0
 24 23  1  0  0  0  0
 24 25  1  0  0  0  0
 25 22  1  0  0  0  0
 26 22  1  0  0  0  0
 27 26  1  0  0  0  0
M  END
>  <MODEL>
2

>  <REMARK>
 VINA RESULT:      -8.0      1.650      5.083
  Name = 
  1 active torsions:
  status: ('A' for Active; 'I' for Inactive)
    1  A    between atoms: C_9  and  N_15
                            x       y       z     vdW  Elec       q    Type
                         _______ _______ _______ _____ _____    ______ ____

>  <TORSDO>
F 1

$$$$
=
 OpenBabel10272401043D

 27 31  0  0  1  0  0  0  0  0999 V2000
  187.2630  177.4250  143.6800 C   0  0  0  0  0  2  0  0  0  0  0  0
  186.9920  178.3480  141.3690 C   0  0  0  0  0  0  0  0  0  0  0  0
  189.4100  178.0380  141.9040 N   0  0  0  0  0  2  0  0  0  0  0  0
  187.7990  178.0370  137.2970 C   0  0  0  0  0  3  0  0  0  0  0  0
  189.3570  177.6480  135.3840 C   0  0  0  0  0  1  0  0  0  0  0  0
  186.0320  178.5110  140.4160 N   0  0  0  0  0  0  0  0  0  0  0  0
  189.8920  177.7060  139.1280 C   0  0  0  0  0  3  0  0  0  0  0  0
  191.7800  177.7970  143.4660 C   0  0  0  0  0  2  0  0  0  0  0  0
  190.1370  177.5990  137.7560 C   0  0  0  0  0  3  0  0  0  0  0  0
  191.5900  176.7330  144.5390 C   0  0  0  0  0  2  0  0  0  0  0  0
  188.5970  177.9750  139.5960 C   0  0  0  0  0  0  0  0  0  0  0  0
  186.6090  178.3490  142.7560 N   0  0  0  0  0  0  0  0  0  0  0  0
  189.0920  177.7620  136.8420 C   0  0  0  0  0  0  0  0  0  0  0  0
  187.5500  178.1420  138.6680 C   0  0  0  0  0  0  0  0  0  0  0  0
  188.5330  178.0380  144.2540 C   0  0  1  0  0  3  0  0  0  0  0  0
  188.3250  178.1050  140.9650 C   0  0  0  0  0  0  0  0  0  0  0  0
  190.8560  179.0000  143.6630 C   0  0  0  0  0  2  0  0  0  0  0  0
  186.3000  178.4180  139.1130 N   0  0  0  0  0  0  0  0  0  0  0  0
  190.1970  176.1220  144.4960 C   0  0  0  0  0  2  0  0  0  0  0  0
  189.2220  177.0510  145.2010 C   0  0  0  0  0  2  0  0  0  0  0  0
  189.4230  178.7220  143.1960 C   0  0  1  0  0  3  0  0  0  0  0  0
  182.6340  179.3160  143.7400 C   0  0  0  0  0  2  0  0  0  0  0  0
  185.3620  178.9960  143.1550 C   0  0  2  0  0  3  0  0  0  0  0  0
  184.9220  178.5320  144.5450 C   0  0  0  0  0  2  0  0  0  0  0  0
  183.5830  179.1630  144.9370 C   0  0  0  0  0  2  0  0  0  0  0  0
  182.9850  178.3810  142.6730 N   0  0  0  0  0  2  0  0  0  0  0  0
  184.2670  178.7890  142.0900 C   0  0  0  0  0  2  0  0  0  0  0  0
  2 12  1  0  0  0  0
  3 21  1  0  0  0  0
  4 14  1  0  0  0  0
  5 13  1  0  0  0  0
  6  2  2  0  0  0  0
  7 11  1  0  0  0  0
  8 17  1  0  0  0  0
  8 10  1  0  0  0  0
  9  7  2  0  0  0  0
 11 16  2  0  0  0  0
 12 23  1  0  0  0  0
 12  1  1  0  0  0  0
 13  4  2  0  0  0  0
 13  9  1  0  0  0  0
 14 18  2  0  0  0  0
 14 11  1  0  0  0  0
 15  1  1  6  0  0  0
 15 20  1  0  0  0  0
 16  2  1  0  0  0  0
 16  3  1  0  0  0  0
 18  6  1  0  0  0  0
 19 10  1  0  0  0  0
 19 20  1  0  0  0  0
 21 17  1  1  0  0  0
 21 15  1  0  0  0  0
 22 25  1  0  0  0  0
 23 27  1  6  0  0  0
 23 24  1  0  0  0  0
 24 25  1  0  0  0  0
 26 22  1  0  0  0  0
 27 26  1  0  0  0  0
M  END
>  <MODEL>
3

>  <REMARK>
 VINA RESULT:      -7.7      1.475      5.980
  Name = 
  1 active torsions:
  status: ('A' for Active; 'I' for Inactive)
    1  A    between atoms: C_9  and  N_15
                            x       y       z     vdW  Elec       q    Type
                         _______ _______ _______ _____ _____    ______ ____

>  <TORSDO>
F 1

$$$$
=
 OpenBabel10272401043D

 27 31  0  0  1  0  0  0  0  0999 V2000
  191.3140  177.7780  140.3730 C   0  0  0  0  0  2  0  0  0  0  0  0
  189.1530  177.5240  139.1340 C   0  0  0  0  0  0  0  0  0  0  0  0
  188.7470  177.5410  141.5960 N   0  0  0  0  0  2  0  0  0  0  0  0
  185.2760  178.8680  138.4320 C   0  0  0  0  0  3  0  0  0  0  0  0
  183.0450  179.6650  139.2210 C   0  0  0  0  0  1  0  0  0  0  0  0
  188.6460  177.6780  137.8780 N   0  0  0  0  0  0  0  0  0  0  0  0
  186.1580  178.5760  141.0740 C   0  0  0  0  0  3  0  0  0  0  0  0
  189.2600  177.2200  144.3800 C   0  0  0  0  0  2  0  0  0  0  0  0
  184.8630  179.0330  140.8130 C   0  0  0  0  0  3  0  0  0  0  0  0
  190.5300  177.9670  144.7650 C   0  0  0  0  0  2  0  0  0  0  0  0
  187.0250  178.2670  140.0150 C   0  0  0  0  0  0  0  0  0  0  0  0
  190.5400  177.1740  139.2900 N   0  0  0  0  0  0  0  0  0  0  0  0
  184.4230  179.1800  139.4940 C   0  0  0  0  0  0  0  0  0  0  0  0
  186.5730  178.4130  138.6890 C   0  0  0  0  0  0  0  0  0  0  0  0
  191.1880  176.9620  141.6510 C   0  0  1  0  0  3  0  0  0  0  0  0
  188.3230  177.7900  140.2460 C   0  0  0  0  0  0  0  0  0  0  0  0
  189.5290  176.0630  143.4160 C   0  0  0  0  0  2  0  0  0  0  0  0
  187.4000  178.1000  137.6620 N   0  0  0  0  0  0  0  0  0  0  0  0
  191.1780  178.6450  143.5670 C   0  0  0  0  0  2  0  0  0  0  0  0
  191.9810  177.6180  142.7850 C   0  0  0  0  0  2  0  0  0  0  0  0
  189.7400  176.5370  141.9740 C   0  0  1  0  0  3  0  0  0  0  0  0
  193.0740  174.8570  136.8580 C   0  0  0  0  0  2  0  0  0  0  0  0
  191.2420  176.5160  138.1910 C   0  0  2  0  0  3  0  0  0  0  0  0
  190.8540  175.0380  138.0960 C   0  0  0  0  0  2  0  0  0  0  0  0
  191.6360  174.3350  136.9840 C   0  0  0  0  0  2  0  0  0  0  0  0
  193.5160  175.4760  138.1060 N   0  0  0  0  0  2  0  0  0  0  0  0
  192.7650  176.7190  138.3090 C   0  0  0  0  0  2  0  0  0  0  0  0
  2 12  1  0  0  0  0
  2 16  1  0  0  0  0
  3 21  1  0  0  0  0
  4 14  1  0  0  0  0
  4 13  2  0  0  0  0
  5 13  1  0  0  0  0
  6  2  2  0  0  0  0
  8 10  1  0  0  0  0
  9  7  2  0  0  0  0
 11 16  2  0  0  0  0
 11  7  1  0  0  0  0
 12  1  1  0  0  0  0
 13  9  1  0  0  0  0
 14 11  1  0  0  0  0
 15  1  1  6  0  0  0
 15 21  1  0  0  0  0
 15 20  1  0  0  0  0
 16  3  1  0  0  0  0
 17  8  1  0  0  0  0
 18  6  1  0  0  0  0
 18 14  2  0  0  0  0
 19 10  1  0  0  0  0
 20 19  1  0  0  0  0
 21 17  1  1  0  0  0
 22 25  1  0  0  0  0
 22 26  1  0  0  0  0
 23 24  1  1  0  0  0
 23 27  1  0  0  0  0
 23 12  1  0  0  0  0
 25 24  1  0  0  0  0
 26 27  1  0  0  0  0
M  END
>  <MODEL>
4

>  <REMARK>
 VINA RESULT:      -7.7      2.329      3.267
  Name = 
  1 active torsions:
  status: ('A' for Active; 'I' for Inactive)
    1  A    between atoms: C_9  and  N_15
                            x       y       z     vdW  Elec       q    Type
                         _______ _______ _______ _____ _____    ______ ____

>  <TORSDO>
F 1

$$$$
=
 OpenBabel10272401043D

 27 31  0  0  1  0  0  0  0  0999 V2000
  189.0770  177.3520  136.1320 C   0  0  0  0  0  2  0  0  0  0  0  0
  188.2180  177.5370  138.4760 C   0  0  0  0  0  0  0  0  0  0  0  0
  190.2230  176.0540  138.4000 N   0  0  0  0  0  2  0  0  0  0  0  0
  188.9570  178.4170  142.4770 C   0  0  0  0  0  3  0  0  0  0  0  0
  190.3400  178.2490  144.5500 C   0  0  0  0  0  1  0  0  0  0  0  0
  187.3820  178.3120  139.2240 N   0  0  0  0  0  0  0  0  0  0  0  0
  190.7580  176.7830  141.0880 C   0  0  0  0  0  3  0  0  0  0  0  0
  192.1640  174.2550  137.3430 C   0  0  0  0  0  2  0  0  0  0  0  0
  190.9890  177.0990  142.4300 C   0  0  0  0  0  3  0  0  0  0  0  0
  192.7570  174.8250  136.0610 C   0  0  0  0  0  2  0  0  0  0  0  0
  189.6260  177.2870  140.4280 C   0  0  0  0  0  0  0  0  0  0  0  0
  187.9560  177.3810  137.0700 N   0  0  0  0  0  0  0  0  0  0  0  0
  190.0910  177.9160  143.1240 C   0  0  0  0  0  0  0  0  0  0  0  0
  188.7240  178.1060  141.1350 C   0  0  0  0  0  0  0  0  0  0  0  0
  189.6120  175.9370  135.9690 C   0  0  1  0  0  3  0  0  0  0  0  0
  189.3600  176.9730  139.0880 C   0  0  0  0  0  0  0  0  0  0  0  0
  190.6740  173.9350  137.2090 C   0  0  0  0  0  2  0  0  0  0  0  0
  187.6210  178.5820  140.5070 N   0  0  0  0  0  0  0  0  0  0  0  0
  192.1370  176.1630  135.6910 C   0  0  0  0  0  2  0  0  0  0  0  0
  190.8020  175.9240  135.0040 C   0  0  0  0  0  2  0  0  0  0  0  0
  189.7940  175.1860  137.3040 C   0  0  1  0  0  3  0  0  0  0  0  0
  184.2990  177.2870  134.9910 C   0  0  0  0  0  2  0  0  0  0  0  0
  186.6050  177.6050  136.5620 C   0  0  2  0  0  3  0  0  0  0  0  0
  185.6650  176.4730  136.9830 C   0  0  0  0  0  2  0  0  0  0  0  0
  184.2650  176.6760  136.3980 C   0  0  0  0  0  2  0  0  0  0  0  0
  185.5880  177.0420  134.3470 N   0  0  0  0  0  2  0  0  0  0  0  0
  186.6180  177.8240  135.0370 C   0  0  0  0  0  2  0  0  0  0  0  0
  1 12  1  0  0  0  0
  2 16  2  0  0  0  0
  2  6  1  0  0  0  0
  3 16  1  0  0  0  0
  4 13  1  0  0  0  0
  6 18  2  0  0  0  0
  7  9  1  0  0  0  0
  9 13  2  0  0  0  0
 10  8  1  0  0  0  0
 11  7  2  0  0  0  0
 11 14  1  0  0  0  0
 12  2  1  0  0  0  0
 13  5  1  0  0  0  0
 14  4  2  0  0  0  0
 15 20  1  1  0  0  0
 15  1  1  0  0  0  0
 15 21  1  0  0  0  0
 16 11  1  0  0  0  0
 17  8  1  0  0  0  0
 18 14  1  0  0  0  0
 19 10  1  0  0  0  0
 20 19  1  0  0  0  0
 21 17  1  6  0  0  0
 21  3  1  0  0  0  0
 22 25  1  0  0  0  0
 23 27  1  6  0  0  0
 23 24  1  0  0  0  0
 23 12  1  0  0  0  0
 25 24  1  0  0  0  0
 26 22  1  0  0  0  0
 26 27  1  0  0  0  0
M  END
>  <MODEL>
5

>  <REMARK>
 VINA RESULT:      -7.1      3.330      5.949
  Name = 
  1 active torsions:
  status: ('A' for Active; 'I' for Inactive)
    1  A    between atoms: C_9  and  N_15
                            x       y       z     vdW  Elec       q    Type
                         _______ _______ _______ _____ _____    ______ ____

>  <TORSDO>
F 1

$$$$
=
 OpenBabel10272401043D

 27 31  0  0  1  0  0  0  0  0999 V2000
  189.7040  176.4490  141.5880 C   0  0  0  0  0  2  0  0  0  0  0  0
  188.0590  177.6640  143.0330 C   0  0  0  0  0  0  0  0  0  0  0  0
  187.6080  178.1280  140.6220 N   0  0  0  0  0  2  0  0  0  0  0  0
  184.0920  178.4900  143.9870 C   0  0  0  0  0  3  0  0  0  0  0  0
  181.7480  179.0730  143.3490 C   0  0  0  0  0  1  0  0  0  0  0  0
  187.5970  177.6660  144.3150 N   0  0  0  0  0  0  0  0  0  0  0  0
  184.8880  178.5570  141.3030 C   0  0  0  0  0  3  0  0  0  0  0  0
  188.1030  178.4290  137.8330 C   0  0  0  0  0  2  0  0  0  0  0  0
  183.5590  178.8230  141.6470 C   0  0  0  0  0  3  0  0  0  0  0  0
  188.7650  177.1730  137.2830 C   0  0  0  0  0  2  0  0  0  0  0  0
  185.8280  178.2500  142.2980 C   0  0  0  0  0  0  0  0  0  0  0  0
  189.4120  177.2490  142.7760 N   0  0  0  0  0  0  0  0  0  0  0  0
  183.1610  178.7890  142.9870 C   0  0  0  0  0  0  0  0  0  0  0  0
  185.4200  178.2200  143.6460 C   0  0  0  0  0  0  0  0  0  0  0  0
  189.9790  177.3420  140.3870 C   0  0  1  0  0  3  0  0  0  0  0  0
  187.1710  177.9950  141.9840 C   0  0  0  0  0  0  0  0  0  0  0  0
  188.9830  179.1610  138.8470 C   0  0  0  0  0  2  0  0  0  0  0  0
  186.3270  177.9400  144.6130 N   0  0  0  0  0  0  0  0  0  0  0  0
  189.0010  176.1320  138.3670 C   0  0  0  0  0  2  0  0  0  0  0  0
  190.2570  176.4930  139.1430 C   0  0  0  0  0  2  0  0  0  0  0  0
  188.9670  178.4950  140.2270 C   0  0  1  0  0  3  0  0  0  0  0  0
  191.5470  176.9960  146.3940 C   0  0  0  0  0  2  0  0  0  0  0  0
  190.4000  177.3180  143.8510 C   0  0  2  0  0  3  0  0  0  0  0  0
  190.9940  175.9380  144.1420 C   0  0  0  0  0  2  0  0  0  0  0  0
  191.9820  176.0010  145.3090 C   0  0  0  0  0  2  0  0  0  0  0  0
  190.1070  177.2370  146.3340 N   0  0  0  0  0  2  0  0  0  0  0  0
  189.8010  177.9800  145.1080 C   0  0  0  0  0  2  0  0  0  0  0  0
  1 12  1  0  0  0  0
  2  6  1  0  0  0  0
  3 16  1  0  0  0  0
  6 18  2  0  0  0  0
  7  9  2  0  0  0  0
  7 11  1  0  0  0  0
  8 17  1  0  0  0  0
  9 13  1  0  0  0  0
 10  8  1  0  0  0  0
 10 19  1  0  0  0  0
 11 14  2  0  0  0  0
 12  2  1  0  0  0  0
 13  5  1  0  0  0  0
 13  4  2  0  0  0  0
 14  4  1  0  0  0  0
 14 18  1  0  0  0  0
 15 20  1  6  0  0  0
 15  1  1  0  0  0  0
 16 11  1  0  0  0  0
 16  2  2  0  0  0  0
 19 20  1  0  0  0  0
 21 17  1  6  0  0  0
 21 15  1  0  0  0  0
 21  3  1  0  0  0  0
 23 12  1  6  0  0  0
 23 24  1  0  0  0  0
 23 27  1  0  0  0  0
 24 25  1  0  0  0  0
 25 22  1  0  0  0  0
 26 22  1  0  0  0  0
 27 26  1  0  0  0  0
M  END
>  <MODEL>
6

>  <REMARK>
 VINA RESULT:      -7.0      1.614      5.239
  Name = 
  1 active torsions:
  status: ('A' for Active; 'I' for Inactive)
    1  A    between atoms: C_9  and  N_15
                            x       y       z     vdW  Elec       q    Type
                         _______ _______ _______ _____ _____    ______ ____

>  <TORSDO>
F 1

$$$$
=
 OpenBabel10272401043D

 27 31  0  0  1  0  0  0  0  0999 V2000
  185.2090  177.5160  138.3710 C   0  0  0  0  0  2  0  0  0  0  0  0
  186.2790  178.2480  140.5120 C   0  0  0  0  0  0  0  0  0  0  0  0
  183.8880  178.9580  140.4490 N   0  0  0  0  0  2  0  0  0  0  0  0
  186.2390  178.3000  144.6750 C   0  0  0  0  0  3  0  0  0  0  0  0
  185.0680  178.5860  146.8620 C   0  0  0  0  0  1  0  0  0  0  0  0
  187.3920  178.0030  141.2600 N   0  0  0  0  0  0  0  0  0  0  0  0
  183.8720  178.8550  143.2830 C   0  0  0  0  0  3  0  0  0  0  0  0
  181.3630  179.7100  139.3640 C   0  0  0  0  0  2  0  0  0  0  0  0
  183.8820  178.8600  144.6820 C   0  0  0  0  0  3  0  0  0  0  0  0
  180.8920  178.6600  138.3660 C   0  0  0  0  0  2  0  0  0  0  0  0
  185.0460  178.5680  142.5700 C   0  0  0  0  0  0  0  0  0  0  0  0
  186.3480  178.0910  139.0840 N   0  0  0  0  0  0  0  0  0  0  0  0
  185.0620  178.5810  145.3760 C   0  0  0  0  0  0  0  0  0  0  0  0
  186.2320  178.2920  143.2770 C   0  0  0  0  0  0  0  0  0  0  0  0
  184.2070  178.5960  137.9870 C   0  0  1  0  0  3  0  0  0  0  0  0
  185.0710  178.5740  141.1680 C   0  0  0  0  0  0  0  0  0  0  0  0
  182.6340  180.4270  138.9060 C   0  0  0  0  0  2  0  0  0  0  0  0
  187.3730  178.0300  142.5930 N   0  0  0  0  0  0  0  0  0  0  0  0
  181.9000  177.5320  138.2060 C   0  0  0  0  0  2  0  0  0  0  0  0
  183.0070  177.9780  137.2640 C   0  0  0  0  0  2  0  0  0  0  0  0
  183.8960  179.5860  139.1290 C   0  0  1  0  0  3  0  0  0  0  0  0
  189.7500  177.5140  136.6760 C   0  0  0  0  0  2  0  0  0  0  0  0
  187.6440  178.1680  138.4150 C   0  0  2  0  0  3  0  0  0  0  0  0
  187.4910  178.6560  136.9720 C   0  0  0  0  0  2  0  0  0  0  0  0
  188.8420  178.6770  136.2530 C   0  0  0  0  0  2  0  0  0  0  0  0
  188.9640  176.4100  137.2210 N   0  0  0  0  0  2  0  0  0  0  0  0
  188.3930  176.8240  138.5060 C   0  0  0  0  0  2  0  0  0  0  0  0
  1 12  1  0  0  0  0
  2 16  2  0  0  0  0
  2  6  1  0  0  0  0
  3 16  1  0  0  0  0
  4 13  1  0  0  0  0
  6 18  2  0  0  0  0
  7  9  1  0  0  0  0
  9 13  2  0  0  0  0
 10  8  1  0  0  0  0
 11 14  1  0  0  0  0
 11  7  2  0  0  0  0
 12  2  1  0  0  0  0
 13  5  1  0  0  0  0
 14  4  2  0  0  0  0
 15 20  1  1  0  0  0
 15  1  1  0  0  0  0
 15 21  1  0  0  0  0
 16 11  1  0  0  0  0
 17  8  1  0  0  0  0
 18 14  1  0  0  0  0
 19 10  1  0  0  0  0
 20 19  1  0  0  0  0
 21 17  1  6  0  0  0
 21  3  1  0  0  0  0
 22 26  1  0  0  0  0
 23 24  1  6  0  0  0
 23 27  1  0  0  0  0
 23 12  1  0  0  0  0
 25 22  1  0  0  0  0
 25 24  1  0  0  0  0
 26 27  1  0  0  0  0
M  END
>  <MODEL>
7

>  <REMARK>
 VINA RESULT:      -6.9      2.261      5.214
  Name = 
  1 active torsions:
  status: ('A' for Active; 'I' for Inactive)
    1  A    between atoms: C_9  and  N_15
                            x       y       z     vdW  Elec       q    Type
                         _______ _______ _______ _____ _____    ______ ____

>  <TORSDO>
F 1

$$$$
=
 OpenBabel10272401043D

 27 31  0  0  1  0  0  0  0  0999 V2000
  183.6650  179.5120  141.3840 C   0  0  0  0  0  2  0  0  0  0  0  0
  185.9050  178.6710  140.6450 C   0  0  0  0  0  0  0  0  0  0  0  0
  184.1090  177.7890  139.1530 N   0  0  0  0  0  2  0  0  0  0  0  0
  188.7160  178.2360  137.6060 C   0  0  0  0  0  3  0  0  0  0  0  0
  189.3520  177.6620  135.2600 C   0  0  0  0  0  1  0  0  0  0  0  0
  187.2300  178.9310  140.8280 N   0  0  0  0  0  0  0  0  0  0  0  0
  186.0330  177.6300  137.0750 C   0  0  0  0  0  3  0  0  0  0  0  0
  181.5180  176.9490  138.3160 C   0  0  0  0  0  2  0  0  0  0  0  0
  186.9950  177.4990  136.0680 C   0  0  0  0  0  3  0  0  0  0  0  0
  180.5000  178.0470  138.5960 C   0  0  0  0  0  2  0  0  0  0  0  0
  186.4060  178.0710  138.3540 C   0  0  0  0  0  0  0  0  0  0  0  0
  184.9810  178.9630  141.7080 N   0  0  0  0  0  0  0  0  0  0  0  0
  188.3330  177.8030  136.3330 C   0  0  0  0  0  0  0  0  0  0  0  0
  187.7570  178.3710  138.6140 C   0  0  0  0  0  0  0  0  0  0  0  0
  182.6640  178.3990  141.1110 C   0  0  1  0  0  3  0  0  0  0  0  0
  185.4670  178.1950  139.3880 C   0  0  0  0  0  0  0  0  0  0  0  0
  182.1300  176.3760  139.5960 C   0  0  0  0  0  2  0  0  0  0  0  0
  188.1250  178.7810  139.8520 N   0  0  0  0  0  0  0  0  0  0  0  0
  181.1350  179.2580  139.2610 C   0  0  0  0  0  2  0  0  0  0  0  0
  181.2980  178.9860  140.7470 C   0  0  0  0  0  2  0  0  0  0  0  0
  183.2090  177.2870  140.1900 C   0  0  1  0  0  3  0  0  0  0  0  0
  185.5240  178.7770  145.8770 C   0  0  0  0  0  2  0  0  0  0  0  0
  185.4710  179.0460  143.0820 C   0  0  2  0  0  3  0  0  0  0  0  0
  185.8680  177.6660  143.6090 C   0  0  0  0  0  2  0  0  0  0  0  0
  186.3220  177.7450  145.0690 C   0  0  0  0  0  2  0  0  0  0  0  0
  184.2280  179.0390  145.2530 N   0  0  0  0  0  2  0  0  0  0  0  0
  184.4450  179.7520  143.9910 C   0  0  0  0  0  2  0  0  0  0  0  0
  1 12  1  0  0  0  0
  2  6  1  0  0  0  0
  2 12  1  0  0  0  0
  3 16  1  0  0  0  0
  3 21  1  0  0  0  0
  4 14  1  0  0  0  0
  5 13  1  0  0  0  0
  7 11  1  0  0  0  0
  8 10  1  0  0  0  0
  8 17  1  0  0  0  0
  9 13  1  0  0  0  0
  9  7  2  0  0  0  0
 10 19  1  0  0  0  0
 11 14  2  0  0  0  0
 11 16  1  0  0  0  0
 13  4  2  0  0  0  0
 14 18  1  0  0  0  0
 15 20  1  6  0  0  0
 15  1  1  0  0  0  0
 16  2  2  0  0  0  0
 18  6  2  0  0  0  0
 19 20  1  0  0  0  0
 21 17  1  6  0  0  0
 21 15  1  0  0  0  0
 23 12  1  6  0  0  0
 23 24  1  0  0  0  0
 23 27  1  0  0  0  0
 24 25  1  0  0  0  0
 25 22  1  0  0  0  0
 26 22  1  0  0  0  0
 27 26  1  0  0  0  0
M  END
>  <MODEL>
8

>  <REMARK>
 VINA RESULT:      -6.6      2.439      7.540
  Name = 
  1 active torsions:
  status: ('A' for Active; 'I' for Inactive)
    1  A    between atoms: C_9  and  N_15
                            x       y       z     vdW  Elec       q    Type
                         _______ _______ _______ _____ _____    ______ ____

>  <TORSDO>
F 1

$$$$
=
 OpenBabel10272401043D

 27 31  0  0  1  0  0  0  0  0999 V2000
  188.8080  178.3200  138.9870 C   0  0  0  0  0  2  0  0  0  0  0  0
  190.9530  177.0300  138.9350 C   0  0  0  0  0  0  0  0  0  0  0  0
  189.5060  176.3900  137.0050 N   0  0  0  0  0  2  0  0  0  0  0  0
  194.3550  175.8670  136.8370 C   0  0  0  0  0  3  0  0  0  0  0  0
  195.4930  175.0190  134.7820 C   0  0  0  0  0  1  0  0  0  0  0  0
  192.1990  177.0540  139.4870 N   0  0  0  0  0  0  0  0  0  0  0  0
  191.8620  175.7300  135.5700 C   0  0  0  0  0  3  0  0  0  0  0  0
  187.1380  175.9830  135.4740 C   0  0  0  0  0  2  0  0  0  0  0  0
  193.0200  175.3520  134.8830 C   0  0  0  0  0  3  0  0  0  0  0  0
  186.3190  177.2670  135.4320 C   0  0  0  0  0  2  0  0  0  0  0  0
  191.9430  176.1850  136.8950 C   0  0  0  0  0  0  0  0  0  0  0  0
  189.8460  177.5630  139.6840 N   0  0  0  0  0  0  0  0  0  0  0  0
  194.2650  175.4220  135.5150 C   0  0  0  0  0  0  0  0  0  0  0  0
  193.2000  176.2490  137.5260 C   0  0  0  0  0  0  0  0  0  0  0  0
  187.7230  177.3940  138.4570 C   0  0  1  0  0  3  0  0  0  0  0  0
  190.7970  176.5540  137.6130 C   0  0  0  0  0  0  0  0  0  0  0  0
  187.2440  175.4010  136.8850 C   0  0  0  0  0  2  0  0  0  0  0  0
  193.2830  176.6720  138.8110 N   0  0  0  0  0  0  0  0  0  0  0  0
  186.9700  178.3850  136.2310 C   0  0  0  0  0  2  0  0  0  0  0  0
  186.6560  178.1960  137.7060 C   0  0  0  0  0  2  0  0  0  0  0  0
  188.2730  176.1380  137.7490 C   0  0  1  0  0  3  0  0  0  0  0  0
  189.1990  177.4590  143.8400 C   0  0  0  0  0  2  0  0  0  0  0  0
  189.9410  177.6530  141.1390 C   0  0  2  0  0  3  0  0  0  0  0  0
  190.0810  176.2650  141.7680 C   0  0  0  0  0  2  0  0  0  0  0  0
  190.1170  176.3560  143.2960 C   0  0  0  0  0  2  0  0  0  0  0  0
  188.1480  177.7850  142.8790 N   0  0  0  0  0  2  0  0  0  0  0  0
  188.7550  178.4480  141.7200 C   0  0  0  0  0  2  0  0  0  0  0  0
  1 12  1  0  0  0  0
  2  6  1  0  0  0  0
  2 12  1  0  0  0  0
  3 16  1  0  0  0  0
  3 21  1  0  0  0  0
  4 14  1  0  0  0  0
  5 13  1  0  0  0  0
  7 11  1  0  0  0  0
  8 17  1  0  0  0  0
  9 13  1  0  0  0  0
  9  7  2  0  0  0  0
 10  8  1  0  0  0  0
 10 19  1  0  0  0  0
 11 14  2  0  0  0  0
 11 16  1  0  0  0  0
 13  4  2  0  0  0  0
 14 18  1  0  0  0  0
 15 20  1  6  0  0  0
 15  1  1  0  0  0  0
 16  2  2  0  0  0  0
 18  6  2  0  0  0  0
 19 20  1  0  0  0  0
 21 17  1  6  0  0  0
 21 15  1  0  0  0  0
 23 12  1  6  0  0  0
 23 27  1  0  0  0  0
 23 24  1  0  0  0  0
 24 25  1  0  0  0  0
 25 22  1  0  0  0  0
 26 22  1  0  0  0  0
 27 26  1  0  0  0  0
M  END
>  <MODEL>
9

>  <REMARK>
 VINA RESULT:      -6.5      3.447      8.671
  Name = 
  1 active torsions:
  status: ('A' for Active; 'I' for Inactive)
    1  A    between atoms: C_9  and  N_15
                            x       y       z     vdW  Elec       q    Type
                         _______ _______ _______ _____ _____    ______ ____

>  <TORSDO>
F 1

$$$$
