=
 OpenBabel10272402103D

 32 37  0  0  1  0  0  0  0  0999 V2000
  189.0590  177.6500  137.6820 C   0  0  0  0  0  0  0  0  0  0  0  0
  188.7130  177.0440  136.3120 C   0  0  1  0  0  3  0  0  0  0  0  0
  187.9540  178.4610  138.3280 C   0  0  0  0  0  2  0  0  0  0  0  0
  192.6850  176.3360  137.1090 C   0  0  0  0  0  2  0  0  0  0  0  0
  192.7110  175.0890  134.4450 C   0  0  0  0  0  3  0  0  0  0  0  0
  191.8240  175.1090  136.8470 C   0  0  2  0  0  3  0  0  0  0  0  0
  189.4580  173.5140  136.0840 C   0  0  2  0  0  3  0  0  0  0  0  0
  191.5220  174.9620  135.3420 C   0  0  2  0  0  0  0  0  0  0  0  0
  190.0090  176.8290  135.5390 C   0  0  0  0  0  2  0  0  0  0  0  0
  190.3900  174.0340  134.9630 C   0  0  2  0  0  3  0  0  0  0  0  0
  187.9710  175.8740  136.4610 O   0  0  0  0  0  1  0  0  0  0  0  0
  190.2650  175.5680  134.6880 C   0  0  2  0  0  3  0  0  0  0  0  0
  190.0260  175.5630  138.5310 N   0  0  0  0  0  0  0  0  0  0  0  0
  193.8220  175.7030  134.8880 C   0  0  0  0  0  3  0  0  0  0  0  0
  190.1660  177.0110  138.5720 C   0  0  2  0  0  3  0  0  0  0  0  0
  190.0440  173.5760  137.3830 O   0  0  0  0  0  0  0  0  0  0  0  0
  193.9960  176.1990  136.3170 C   0  0  0  0  0  2  0  0  0  0  0  0
  189.1170  179.1620  137.6420 C   0  0  0  0  0  2  0  0  0  0  0  0
  190.6530  174.7640  137.7210 C   0  0  0  0  0  0  0  0  0  0  0  0
  191.5910  177.6780  142.1190 C   0  0  0  0  0  2  0  0  0  0  0  0
  189.0750  177.5570  142.2650 C   0  0  0  0  0  2  0  0  0  0  0  0
  190.2090  177.5230  140.0230 C   0  0  1  0  0  3  0  0  0  0  0  0
  190.4050  177.1650  142.9340 C   0  0  2  0  0  3  0  0  0  0  0  0
  189.0230  177.0030  140.8470 C   0  0  0  0  0  2  0  0  0  0  0  0
  191.5350  177.1410  140.6910 C   0  0  1  0  0  3  0  0  0  0  0  0
  192.5950  177.6670  139.9750 F   0  0  0  0  0  0  0  0  0  0  0  0
  189.2460  177.4360  145.0420 C   0  0  0  0  0  1  0  0  0  0  0  0
  191.5000  176.7660  145.0060 C   0  0  0  0  0  1  0  0  0  0  0  0
  190.5130  177.5980  144.3350 N   0  0  0  0  0  0  0  0  0  0  0  0
  189.0310  172.0930  135.7740 C   0  0  0  0  0  2  0  0  0  0  0  0
  186.7590  172.5050  136.6620 C   0  0  0  0  0  1  0  0  0  0  0  0
  187.5500  172.0490  135.4530 C   0  0  0  0  0  2  0  0  0  0  0  0
  1  3  1  0  0  0  0
  1 15  1  0  0  0  0
  2 11  1  1  0  0  0
  2  1  1  0  0  0  0
  5 14  2  0  0  0  0
  6  4  1  6  0  0  0
  6 19  1  0  0  0  0
  7 30  1  6  0  0  0
  7 16  1  0  0  0  0
  8  5  1  6  0  0  0
  8  6  1  0  0  0  0
  9  2  1  0  0  0  0
 10  8  1  0  0  0  0
 10  7  1  0  0  0  0
 12 10  1  0  0  0  0
 12  8  1  0  0  0  0
 12  9  1  0  0  0  0
 13 15  1  0  0  0  0
 14 17  1  0  0  0  0
 15 22  1  0  0  0  0
 16 19  1  0  0  0  0
 17  4  1  0  0  0  0
 18  1  1  0  0  0  0
 18  3  1  0  0  0  0
 19 13  2  0  0  0  0
 20 23  1  0  0  0  0
 21 23  1  0  0  0  0
 22 25  1  0  0  0  0
 22 24  1  0  0  0  0
 23 29  1  0  0  0  0
 24 21  1  0  0  0  0
 25 20  1  0  0  0  0
 26 25  1  0  0  0  0
 29 28  1  0  0  0  0
 29 27  1  0  0  0  0
 32 30  1  0  0  0  0
 32 31  1  0  0  0  0
M  END
>  <MODEL>
1

>  <REMARK>
 VINA RESULT:      -6.7      0.000      0.000
  Name = 
  4 active torsions:
  status: ('A' for Active; 'I' for Inactive)
    1  A    between atoms: C_11  and  C_12
    2  A    between atoms: C_11  and  C_31
    3  A    between atoms: C_16  and  C_27
    4  A    between atoms: C_19  and  N_26
                            x       y       z     vdW  Elec       q    Type
                         _______ _______ _______ _____ _____    ______ ____

>  <TORSDO>
F 4

$$$$
=
 OpenBabel10272402103D

 32 37  0  0  1  0  0  0  0  0999 V2000
  188.3590  177.7580  136.6900 C   0  0  0  0  0  0  0  0  0  0  0  0
  187.6790  177.2110  135.4240 C   0  0  1  0  0  3  0  0  0  0  0  0
  188.0650  179.2110  137.0070 C   0  0  0  0  0  2  0  0  0  0  0  0
  190.2340  174.3450  136.9000 C   0  0  0  0  0  2  0  0  0  0  0  0
  189.3940  172.7850  134.5510 C   0  0  0  0  0  3  0  0  0  0  0  0
  188.7760  173.9340  136.7540 C   0  0  2  0  0  3  0  0  0  0  0  0
  185.9310  174.0960  135.9780 C   0  0  2  0  0  3  0  0  0  0  0  0
  188.4260  173.6630  135.2770 C   0  0  2  0  0  0  0  0  0  0  0  0
  188.5060  176.0430  134.8990 C   0  0  0  0  0  2  0  0  0  0  0  0
  186.9570  173.6160  134.9240 C   0  0  2  0  0  3  0  0  0  0  0  0
  186.3550  176.8630  135.6850 O   0  0  0  0  0  1  0  0  0  0  0  0
  187.8610  174.7550  134.3470 C   0  0  2  0  0  3  0  0  0  0  0  0
  187.7400  175.8130  138.0480 N   0  0  0  0  0  0  0  0  0  0  0  0
  190.6430  172.6300  135.0240 C   0  0  0  0  0  3  0  0  0  0  0  0
  188.7940  176.7940  137.8330 C   0  0  2  0  0  3  0  0  0  0  0  0
  186.4360  174.0740  137.3110 O   0  0  0  0  0  0  0  0  0  0  0  0
  191.1220  173.2200  136.3420 C   0  0  0  0  0  2  0  0  0  0  0  0
  189.3920  178.8190  136.3730 C   0  0  0  0  0  2  0  0  0  0  0  0
  187.6790  174.6360  137.5020 C   0  0  0  0  0  0  0  0  0  0  0  0
  190.6730  177.3780  141.1780 C   0  0  0  0  0  2  0  0  0  0  0  0
  188.3830  178.4280  141.3390 C   0  0  0  0  0  2  0  0  0  0  0  0
  189.1850  177.4840  139.1520 C   0  0  1  0  0  3  0  0  0  0  0  0
  189.4580  177.6090  142.0760 C   0  0  2  0  0  3  0  0  0  0  0  0
  187.9690  177.7100  140.0610 C   0  0  0  0  0  2  0  0  0  0  0  0
  190.2610  176.6760  139.8870 C   0  0  1  0  0  3  0  0  0  0  0  0
  191.3770  176.5320  139.0820 F   0  0  0  0  0  0  0  0  0  0  0  0
  189.5770  177.2900  144.4730 C   0  0  0  0  0  1  0  0  0  0  0  0
  191.3060  178.4120  143.3380 C   0  0  0  0  0  1  0  0  0  0  0  0
  189.8680  178.1920  143.3620 N   0  0  0  0  0  0  0  0  0  0  0  0
  184.6730  173.2540  135.8850 C   0  0  0  0  0  2  0  0  0  0  0  0
  183.2830  171.5440  137.0100 C   0  0  0  0  0  1  0  0  0  0  0  0
  184.5930  172.3020  137.0630 C   0  0  0  0  0  2  0  0  0  0  0  0
  1  3  1  0  0  0  0
  1 15  1  0  0  0  0
  2 11  1  1  0  0  0
  2  1  1  0  0  0  0
  5 14  2  0  0  0  0
  6  4  1  6  0  0  0
  6 19  1  0  0  0  0
  7 30  1  1  0  0  0
  7 16  1  0  0  0  0
  8  5  1  6  0  0  0
  8  6  1  0  0  0  0
  9  2  1  0  0  0  0
 10  8  1  0  0  0  0
 10  7  1  0  0  0  0
 12  9  1  0  0  0  0
 12 10  1  0  0  0  0
 12  8  1  0  0  0  0
 14 17  1  0  0  0  0
 15 13  1  0  0  0  0
 15 22  1  0  0  0  0
 16 19  1  0  0  0  0
 17  4  1  0  0  0  0
 18  1  1  0  0  0  0
 18  3  1  0  0  0  0
 19 13  2  0  0  0  0
 20 23  1  0  0  0  0
 21 23  1  0  0  0  0
 22 25  1  0  0  0  0
 22 24  1  0  0  0  0
 23 29  1  0  0  0  0
 24 21  1  0  0  0  0
 25 20  1  0  0  0  0
 26 25  1  0  0  0  0
 28 29  1  0  0  0  0
 29 27  1  0  0  0  0
 30 32  1  0  0  0  0
 31 32  1  0  0  0  0
M  END
>  <MODEL>
2

>  <REMARK>
 VINA RESULT:      -5.6      1.992      2.680
  Name = 
  4 active torsions:
  status: ('A' for Active; 'I' for Inactive)
    1  A    between atoms: C_11  and  C_12
    2  A    between atoms: C_11  and  C_31
    3  A    between atoms: C_16  and  C_27
    4  A    between atoms: C_19  and  N_26
                            x       y       z     vdW  Elec       q    Type
                         _______ _______ _______ _____ _____    ______ ____

>  <TORSDO>
F 4

$$$$
=
 OpenBabel10272402103D

 32 37  0  0  1  0  0  0  0  0999 V2000
  191.2830  173.8540  135.5160 C   0  0  0  0  0  0  0  0  0  0  0  0
  192.3250  172.8610  134.9770 C   0  0  1  0  0  3  0  0  0  0  0  0
  189.8550  173.3450  135.5400 C   0  0  0  0  0  2  0  0  0  0  0  0
  194.1610  176.4820  135.6320 C   0  0  0  0  0  2  0  0  0  0  0  0
  196.5550  175.1480  134.5590 C   0  0  0  0  0  3  0  0  0  0  0  0
  194.7490  175.2880  136.3700 C   0  0  2  0  0  3  0  0  0  0  0  0
  195.1860  172.4740  137.1530 C   0  0  2  0  0  3  0  0  0  0  0  0
  195.5780  174.4070  135.4150 C   0  0  2  0  0  0  0  0  0  0  0  0
  193.5100  173.6520  134.4340 C   0  0  0  0  0  2  0  0  0  0  0  0
  195.9070  173.0100  135.8930 C   0  0  2  0  0  3  0  0  0  0  0  0
  192.6910  171.9450  135.9620 O   0  0  0  0  0  1  0  0  0  0  0  0
  194.9710  173.2100  134.6570 C   0  0  2  0  0  3  0  0  0  0  0  0
  192.6470  174.4670  137.4590 N   0  0  0  0  0  0  0  0  0  0  0  0
  196.3920  176.4660  134.3460 C   0  0  0  0  0  3  0  0  0  0  0  0
  191.7080  174.9990  136.4820 C   0  0  2  0  0  3  0  0  0  0  0  0
  194.6620  173.5050  137.9880 O   0  0  0  0  0  0  0  0  0  0  0  0
  195.3110  177.3000  135.0200 C   0  0  0  0  0  2  0  0  0  0  0  0
  190.3090  174.3010  134.4450 C   0  0  0  0  0  2  0  0  0  0  0  0
  193.9420  174.4950  137.3570 C   0  0  0  0  0  0  0  0  0  0  0  0
  189.1810  177.8440  137.2450 C   0  0  0  0  0  2  0  0  0  0  0  0
  189.5620  176.5090  139.3530 C   0  0  0  0  0  2  0  0  0  0  0  0
  190.5450  175.7310  137.1750 C   0  0  1  0  0  3  0  0  0  0  0  0
  189.3820  177.9180  138.7580 C   0  0  2  0  0  3  0  0  0  0  0  0
  190.7470  175.8150  138.6940 C   0  0  0  0  0  2  0  0  0  0  0  0
  190.3570  177.1320  136.5810 C   0  0  1  0  0  3  0  0  0  0  0  0
  190.1130  177.0410  135.2220 F   0  0  0  0  0  0  0  0  0  0  0  0
  186.9930  178.2860  138.8860 C   0  0  0  0  0  1  0  0  0  0  0  0
  188.3220  178.4430  140.8210 C   0  0  0  0  0  1  0  0  0  0  0  0
  188.3020  178.6920  139.3870 N   0  0  0  0  0  0  0  0  0  0  0  0
  196.1310  171.5930  137.9460 C   0  0  0  0  0  2  0  0  0  0  0  0
  194.7410  169.5830  137.5660 C   0  0  0  0  0  1  0  0  0  0  0  0
  196.1210  170.1820  137.3910 C   0  0  0  0  0  2  0  0  0  0  0  0
  1  3  1  0  0  0  0
  1 15  1  0  0  0  0
  2  1  1  0  0  0  0
  2 11  1  1  0  0  0
  6  4  1  6  0  0  0
  6 19  1  0  0  0  0
  7 30  1  1  0  0  0
  7 16  1  0  0  0  0
  8  5  1  6  0  0  0
  8 10  1  0  0  0  0
  8  6  1  0  0  0  0
  9 12  1  0  0  0  0
  9  2  1  0  0  0  0
 10  7  1  0  0  0  0
 12  8  1  0  0  0  0
 12 10  1  0  0  0  0
 14  5  2  0  0  0  0
 14 17  1  0  0  0  0
 15 22  1  0  0  0  0
 15 13  1  0  0  0  0
 17  4  1  0  0  0  0
 18  1  1  0  0  0  0
 18  3  1  0  0  0  0
 19 13  2  0  0  0  0
 19 16  1  0  0  0  0
 20 23  1  0  0  0  0
 22 24  1  0  0  0  0
 23 21  1  0  0  0  0
 23 29  1  0  0  0  0
 24 21  1  0  0  0  0
 25 22  1  0  0  0  0
 25 20  1  0  0  0  0
 26 25  1  0  0  0  0
 27 29  1  0  0  0  0
 29 28  1  0  0  0  0
 32 31  1  0  0  0  0
 32 30  1  0  0  0  0
M  END
>  <MODEL>
3

>  <REMARK>
 VINA RESULT:      -5.3      2.975      5.110
  Name = 
  4 active torsions:
  status: ('A' for Active; 'I' for Inactive)
    1  A    between atoms: C_11  and  C_12
    2  A    between atoms: C_11  and  C_31
    3  A    between atoms: C_16  and  C_27
    4  A    between atoms: C_19  and  N_26
                            x       y       z     vdW  Elec       q    Type
                         _______ _______ _______ _____ _____    ______ ____

>  <TORSDO>
F 4

$$$$
=
 OpenBabel10272402103D

 32 37  0  0  1  0  0  0  0  0999 V2000
  194.3460  174.7650  135.6370 C   0  0  0  0  0  0  0  0  0  0  0  0
  193.6860  176.1530  135.6680 C   0  0  1  0  0  3  0  0  0  0  0  0
  195.8620  174.7690  135.6370 C   0  0  0  0  0  2  0  0  0  0  0  0
  190.7570  173.3050  135.1910 C   0  0  0  0  0  2  0  0  0  0  0  0
  188.9290  175.6070  135.0610 C   0  0  0  0  0  3  0  0  0  0  0  0
  190.6150  174.2190  136.4000 C   0  0  2  0  0  3  0  0  0  0  0  0
  191.1560  176.4730  138.2300 C   0  0  2  0  0  3  0  0  0  0  0  0
  190.1110  175.6130  135.9770 C   0  0  2  0  0  0  0  0  0  0  0  0
  192.2960  176.0410  135.0520 C   0  0  0  0  0  2  0  0  0  0  0  0
  190.2760  176.7300  136.9840 C   0  0  2  0  0  3  0  0  0  0  0  0
  193.6630  176.6620  136.9660 O   0  0  0  0  0  1  0  0  0  0  0  0
  191.0700  176.7720  135.6370 C   0  0  2  0  0  3  0  0  0  0  0  0
  192.8880  173.8650  137.3910 N   0  0  0  0  0  0  0  0  0  0  0  0
  188.6390  174.5020  134.3500 C   0  0  0  0  0  3  0  0  0  0  0  0
  193.5800  173.5140  136.1590 C   0  0  2  0  0  3  0  0  0  0  0  0
  191.3190  175.0890  138.5330 O   0  0  0  0  0  0  0  0  0  0  0  0
  189.3910  173.1870  134.4970 C   0  0  0  0  0  2  0  0  0  0  0  0
  195.0960  174.5160  134.3460 C   0  0  0  0  0  2  0  0  0  0  0  0
  191.6570  174.2690  137.4800 C   0  0  0  0  0  0  0  0  0  0  0  0
  194.6090  169.7790  135.9290 C   0  0  0  0  0  2  0  0  0  0  0  0
  195.6900  170.7950  137.9710 C   0  0  0  0  0  2  0  0  0  0  0  0
  194.4430  172.2540  136.3490 C   0  0  1  0  0  3  0  0  0  0  0  0
  194.9720  169.5600  137.3980 C   0  0  2  0  0  3  0  0  0  0  0  0
  194.8040  172.0260  137.8230 C   0  0  0  0  0  2  0  0  0  0  0  0
  193.7360  171.0220  135.7720 C   0  0  1  0  0  3  0  0  0  0  0  0
  193.4720  171.2140  134.4280 F   0  0  0  0  0  0  0  0  0  0  0  0
  196.9890  168.3450  136.8330 C   0  0  0  0  0  1  0  0  0  0  0  0
  196.0370  168.1340  138.9740 C   0  0  0  0  0  1  0  0  0  0  0  0
  195.7250  168.3080  137.5630 N   0  0  0  0  0  0  0  0  0  0  0  0
  190.5720  177.2010  139.4250 C   0  0  0  0  0  2  0  0  0  0  0  0
  188.4480  178.2290  140.1680 C   0  0  0  0  0  1  0  0  0  0  0  0
  189.3890  178.0470  138.9960 C   0  0  0  0  0  2  0  0  0  0  0  0
  1  3  1  0  0  0  0
  1  2  1  0  0  0  0
  1 15  1  0  0  0  0
  2 11  1  1  0  0  0
  6  4  1  6  0  0  0
  6 19  1  0  0  0  0
  7 16  1  0  0  0  0
  7 30  1  1  0  0  0
  8  5  1  6  0  0  0
  8  6  1  0  0  0  0
  8 10  1  0  0  0  0
  9 12  1  0  0  0  0
  9  2  1  0  0  0  0
 10  7  1  0  0  0  0
 12  8  1  0  0  0  0
 12 10  1  0  0  0  0
 13 19  2  0  0  0  0
 14 17  1  0  0  0  0
 14  5  2  0  0  0  0
 15 22  1  0  0  0  0
 15 13  1  0  0  0  0
 17  4  1  0  0  0  0
 18  1  1  0  0  0  0
 18  3  1  0  0  0  0
 19 16  1  0  0  0  0
 20 23  1  0  0  0  0
 22 24  1  0  0  0  0
 23 29  1  0  0  0  0
 23 21  1  0  0  0  0
 24 21  1  0  0  0  0
 25 20  1  0  0  0  0
 25 22  1  0  0  0  0
 26 25  1  0  0  0  0
 27 29  1  0  0  0  0
 29 28  1  0  0  0  0
 32 30  1  0  0  0  0
 32 31  1  0  0  0  0
M  END
>  <MODEL>
4

>  <REMARK>
 VINA RESULT:      -5.2      4.118      7.227
  Name = 
  4 active torsions:
  status: ('A' for Active; 'I' for Inactive)
    1  A    between atoms: C_11  and  C_12
    2  A    between atoms: C_11  and  C_31
    3  A    between atoms: C_16  and  C_27
    4  A    between atoms: C_19  and  N_26
                            x       y       z     vdW  Elec       q    Type
                         _______ _______ _______ _____ _____    ______ ____

>  <TORSDO>
F 4

$$$$
=
 OpenBabel10272402103D

 32 37  0  0  1  0  0  0  0  0999 V2000
  182.5510  176.6040  136.3550 C   0  0  0  0  0  0  0  0  0  0  0  0
  182.4360  175.5120  135.2800 C   0  0  1  0  0  3  0  0  0  0  0  0
  181.2890  177.4070  136.6010 C   0  0  0  0  0  2  0  0  0  0  0  0
  186.3550  175.7580  136.5030 C   0  0  0  0  0  2  0  0  0  0  0  0
  186.8270  173.6780  134.4770 C   0  0  0  0  0  3  0  0  0  0  0  0
  185.6890  174.3980  136.6540 C   0  0  2  0  0  3  0  0  0  0  0  0
  183.6390  172.2880  136.3880 C   0  0  2  0  0  3  0  0  0  0  0  0
  185.5730  173.6890  135.2900 C   0  0  2  0  0  0  0  0  0  0  0  0
  183.8250  175.2450  134.7120 C   0  0  0  0  0  2  0  0  0  0  0  0
  184.6150  172.5220  135.2100 C   0  0  2  0  0  3  0  0  0  0  0  0
  181.8350  174.3660  135.8010 O   0  0  0  0  0  1  0  0  0  0  0  0
  184.3280  173.8230  134.3910 C   0  0  2  0  0  3  0  0  0  0  0  0
  183.6750  175.1250  137.9560 N   0  0  0  0  0  0  0  0  0  0  0  0
  187.7970  174.5740  134.7300 C   0  0  0  0  0  3  0  0  0  0  0  0
  183.6260  176.4990  137.4770 C   0  0  2  0  0  3  0  0  0  0  0  0
  184.0680  172.8910  137.6070 O   0  0  0  0  0  0  0  0  0  0  0  0
  187.7500  175.5590  135.8900 C   0  0  0  0  0  2  0  0  0  0  0  0
  182.4230  177.9970  135.7740 C   0  0  0  0  0  2  0  0  0  0  0  0
  184.4820  174.2020  137.5270 C   0  0  0  0  0  0  0  0  0  0  0  0
  184.6160  179.0680  140.2120 C   0  0  0  0  0  2  0  0  0  0  0  0
  182.5390  177.8460  140.9600 C   0  0  0  0  0  2  0  0  0  0  0  0
  183.4470  177.4860  138.6450 C   0  0  1  0  0  3  0  0  0  0  0  0
  183.9000  178.4180  141.3950 C   0  0  2  0  0  3  0  0  0  0  0  0
  182.7350  176.8350  139.8390 C   0  0  0  0  0  2  0  0  0  0  0  0
  184.7990  178.0640  139.0770 C   0  0  1  0  0  3  0  0  0  0  0  0
  185.4040  178.7030  138.0100 F   0  0  0  0  0  0  0  0  0  0  0  0
  182.7450  178.9800  143.4470 C   0  0  0  0  0  1  0  0  0  0  0  0
  185.0680  179.3060  143.2660 C   0  0  0  0  0  1  0  0  0  0  0  0
  183.8150  179.3530  142.5270 N   0  0  0  0  0  0  0  0  0  0  0  0
  183.4310  170.8000  136.5900 C   0  0  0  0  0  2  0  0  0  0  0  0
  183.0510  168.7910  135.1960 C   0  0  0  0  0  1  0  0  0  0  0  0
  182.6250  170.2240  135.4420 C   0  0  0  0  0  2  0  0  0  0  0  0
  1  3  1  0  0  0  0
  1 15  1  0  0  0  0
  2 11  1  1  0  0  0
  2  1  1  0  0  0  0
  5 14  2  0  0  0  0
  6  4  1  6  0  0  0
  6 19  1  0  0  0  0
  7 30  1  1  0  0  0
  7 16  1  0  0  0  0
  8  5  1  6  0  0  0
  8  6  1  0  0  0  0
  9  2  1  0  0  0  0
 10  8  1  0  0  0  0
 10  7  1  0  0  0  0
 12  9  1  0  0  0  0
 12 10  1  0  0  0  0
 12  8  1  0  0  0  0
 14 17  1  0  0  0  0
 15 13  1  0  0  0  0
 15 22  1  0  0  0  0
 17  4  1  0  0  0  0
 18  1  1  0  0  0  0
 18  3  1  0  0  0  0
 19 16  1  0  0  0  0
 19 13  2  0  0  0  0
 20 23  1  0  0  0  0
 21 23  1  0  0  0  0
 22 25  1  0  0  0  0
 22 24  1  0  0  0  0
 23 29  1  0  0  0  0
 24 21  1  0  0  0  0
 25 20  1  0  0  0  0
 26 25  1  0  0  0  0
 29 28  1  0  0  0  0
 29 27  1  0  0  0  0
 31 32  1  0  0  0  0
 32 30  1  0  0  0  0
M  END
>  <MODEL>
5

>  <REMARK>
 VINA RESULT:      -5.2      4.837      6.485
  Name = 
  4 active torsions:
  status: ('A' for Active; 'I' for Inactive)
    1  A    between atoms: C_11  and  C_12
    2  A    between atoms: C_11  and  C_31
    3  A    between atoms: C_16  and  C_27
    4  A    between atoms: C_19  and  N_26
                            x       y       z     vdW  Elec       q    Type
                         _______ _______ _______ _____ _____    ______ ____

>  <TORSDO>
F 4

$$$$
=
 OpenBabel10272402103D

 32 37  0  0  1  0  0  0  0  0999 V2000
  186.8010  176.9590  135.3030 C   0  0  0  0  0  0  0  0  0  0  0  0
  185.5030  176.5850  134.5700 C   0  0  1  0  0  3  0  0  0  0  0  0
  187.2750  178.3840  135.0950 C   0  0  0  0  0  2  0  0  0  0  0  0
  187.0490  173.2060  136.3340 C   0  0  0  0  0  2  0  0  0  0  0  0
  184.7650  171.8420  135.0750 C   0  0  0  0  0  3  0  0  0  0  0  0
  185.6310  173.5860  136.7380 C   0  0  2  0  0  3  0  0  0  0  0  0
  183.0510  175.0230  136.7170 C   0  0  2  0  0  3  0  0  0  0  0  0
  184.6280  173.2260  135.6250 C   0  0  2  0  0  0  0  0  0  0  0  0
  185.4920  175.0770  134.3460 C   0  0  0  0  0  2  0  0  0  0  0  0
  183.2620  173.8690  135.7070 C   0  0  2  0  0  3  0  0  0  0  0  0
  184.3880  177.0360  135.2760 O   0  0  0  0  0  1  0  0  0  0  0  0
  184.2200  174.2240  134.5230 C   0  0  2  0  0  3  0  0  0  0  0  0
  186.0740  175.9570  137.4200 N   0  0  0  0  0  0  0  0  0  0  0  0
  185.9200  171.1710  135.2340 C   0  0  0  0  0  3  0  0  0  0  0  0
  187.2410  176.1810  136.5780 C   0  0  2  0  0  3  0  0  0  0  0  0
  184.0060  175.0300  137.7760 O   0  0  0  0  0  0  0  0  0  0  0  0
  187.0930  171.6960  136.0490 C   0  0  0  0  0  2  0  0  0  0  0  0
  187.9400  177.2380  134.3460 C   0  0  0  0  0  2  0  0  0  0  0  0
  185.3260  174.8950  137.4090 C   0  0  0  0  0  0  0  0  0  0  0  0
  190.6160  176.4600  138.4730 C   0  0  0  0  0  2  0  0  0  0  0  0
  189.0170  178.1750  139.4060 C   0  0  0  0  0  2  0  0  0  0  0  0
  188.3830  176.8340  137.3780 C   0  0  1  0  0  3  0  0  0  0  0  0
  190.1010  177.1350  139.7430 C   0  0  2  0  0  3  0  0  0  0  0  0
  187.8710  177.5060  138.6590 C   0  0  0  0  0  2  0  0  0  0  0  0
  189.4680  175.8040  137.7100 C   0  0  1  0  0  3  0  0  0  0  0  0
  189.9670  175.2500  136.5440 F   0  0  0  0  0  0  0  0  0  0  0  0
  191.2080  177.1610  141.8960 C   0  0  0  0  0  1  0  0  0  0  0  0
  192.4690  177.2660  139.9130 C   0  0  0  0  0  1  0  0  0  0  0  0
  191.2180  177.6780  140.5310 N   0  0  0  0  0  0  0  0  0  0  0  0
  181.6460  174.9530  137.2850 C   0  0  0  0  0  2  0  0  0  0  0  0
  180.8700  175.3260  139.6030 C   0  0  0  0  0  1  0  0  0  0  0  0
  181.4730  175.9850  138.3810 C   0  0  0  0  0  2  0  0  0  0  0  0
  1 15  1  0  0  0  0
  2 11  1  1  0  0  0
  2  1  1  0  0  0  0
  3  1  1  0  0  0  0
  5 14  2  0  0  0  0
  6  4  1  6  0  0  0
  6 19  1  0  0  0  0
  7 30  1  1  0  0  0
  7 16  1  0  0  0  0
  8  5  1  6  0  0  0
  8 10  1  0  0  0  0
  8  6  1  0  0  0  0
  9 12  1  0  0  0  0
  9  2  1  0  0  0  0
 10  7  1  0  0  0  0
 12  8  1  0  0  0  0
 12 10  1  0  0  0  0
 14 17  1  0  0  0  0
 15 22  1  0  0  0  0
 15 13  1  0  0  0  0
 17  4  1  0  0  0  0
 18  3  1  0  0  0  0
 18  1  1  0  0  0  0
 19 13  2  0  0  0  0
 19 16  1  0  0  0  0
 20 23  1  0  0  0  0
 21 23  1  0  0  0  0
 22 25  1  0  0  0  0
 22 24  1  0  0  0  0
 23 29  1  0  0  0  0
 24 21  1  0  0  0  0
 25 20  1  0  0  0  0
 26 25  1  0  0  0  0
 28 29  1  0  0  0  0
 29 27  1  0  0  0  0
 30 32  1  0  0  0  0
 32 31  1  0  0  0  0
M  END
>  <MODEL>
6

>  <REMARK>
 VINA RESULT:      -5.2      3.279      5.607
  Name = 
  4 active torsions:
  status: ('A' for Active; 'I' for Inactive)
    1  A    between atoms: C_11  and  C_12
    2  A    between atoms: C_11  and  C_31
    3  A    between atoms: C_16  and  C_27
    4  A    between atoms: C_19  and  N_26
                            x       y       z     vdW  Elec       q    Type
                         _______ _______ _______ _____ _____    ______ ____

>  <TORSDO>
F 4

$$$$
=
 OpenBabel10272402103D

 32 37  0  0  1  0  0  0  0  0999 V2000
  185.1840  177.9680  138.2880 C   0  0  0  0  0  0  0  0  0  0  0  0
  184.7010  179.1090  139.1980 C   0  0  1  0  0  3  0  0  0  0  0  0
  186.6090  177.5090  138.5270 C   0  0  0  0  0  2  0  0  0  0  0  0
  181.8050  178.3440  136.3790 C   0  0  0  0  0  2  0  0  0  0  0  0
  180.3720  180.5770  137.6500 C   0  0  0  0  0  3  0  0  0  0  0  0
  181.3730  178.2280  137.8340 C   0  0  2  0  0  3  0  0  0  0  0  0
  181.5230  178.4220  140.7770 C   0  0  2  0  0  3  0  0  0  0  0  0
  181.1850  179.6220  138.4640 C   0  0  2  0  0  0  0  0  0  0  0  0
  183.5840  179.8580  138.4800 C   0  0  0  0  0  2  0  0  0  0  0  0
  181.1290  179.6840  139.9740 C   0  0  2  0  0  3  0  0  0  0  0  0
  184.3100  178.6170  140.4430 O   0  0  0  0  0  1  0  0  0  0  0  0
  182.3180  180.3530  139.2100 C   0  0  2  0  0  3  0  0  0  0  0  0
  183.1490  176.6410  138.6120 N   0  0  0  0  0  0  0  0  0  0  0  0
  180.2150  180.3680  136.3310 C   0  0  0  0  0  3  0  0  0  0  0  0
  184.1630  176.9940  137.6290 C   0  0  2  0  0  3  0  0  0  0  0  0
  181.4310  177.2170  140.0200 O   0  0  0  0  0  0  0  0  0  0  0  0
  180.7340  179.1340  135.6080 C   0  0  0  0  0  2  0  0  0  0  0  0
  186.2840  178.4130  137.3460 C   0  0  0  0  0  2  0  0  0  0  0  0
  182.0060  177.2370  138.7690 C   0  0  0  0  0  0  0  0  0  0  0  0
  185.0660  174.4240  134.8660 C   0  0  0  0  0  2  0  0  0  0  0  0
  185.0030  173.2350  137.0920 C   0  0  0  0  0  2  0  0  0  0  0  0
  184.7800  175.7360  136.9930 C   0  0  1  0  0  3  0  0  0  0  0  0
  184.6370  173.1530  135.5990 C   0  0  2  0  0  3  0  0  0  0  0  0
  184.3460  174.4570  137.7210 C   0  0  0  0  0  2  0  0  0  0  0  0
  184.4250  175.6540  135.5040 C   0  0  1  0  0  3  0  0  0  0  0  0
  184.8770  176.7840  134.8460 F   0  0  0  0  0  0  0  0  0  0  0  0
  186.4740  171.5820  135.4610 C   0  0  0  0  0  1  0  0  0  0  0  0
  184.2610  170.8490  135.1510 C   0  0  0  0  0  1  0  0  0  0  0  0
  185.1710  171.9610  134.9230 N   0  0  0  0  0  0  0  0  0  0  0  0
  180.6620  178.3210  142.0210 C   0  0  0  0  0  2  0  0  0  0  0  0
  182.5780  178.7920  143.5130 C   0  0  0  0  0  1  0  0  0  0  0  0
  181.1920  179.2430  143.1010 C   0  0  0  0  0  2  0  0  0  0  0  0
  1  3  1  0  0  0  0
  1  2  1  0  0  0  0
  2 11  1  1  0  0  0
  6  4  1  6  0  0  0
  6  8  1  0  0  0  0
  6 19  1  0  0  0  0
  7 30  1  1  0  0  0
  8  5  1  6  0  0  0
  8 12  1  0  0  0  0
  8 10  1  0  0  0  0
  9  2  1  0  0  0  0
  9 12  1  0  0  0  0
 10  7  1  0  0  0  0
 12 10  1  0  0  0  0
 13 19  2  0  0  0  0
 14  5  2  0  0  0  0
 15  1  1  0  0  0  0
 15 13  1  0  0  0  0
 16  7  1  0  0  0  0
 17 14  1  0  0  0  0
 17  4  1  0  0  0  0
 18  1  1  0  0  0  0
 18  3  1  0  0  0  0
 19 16  1  0  0  0  0
 20 25  1  0  0  0  0
 20 23  1  0  0  0  0
 21 24  1  0  0  0  0
 22 15  1  0  0  0  0
 22 24  1  0  0  0  0
 23 21  1  0  0  0  0
 25 22  1  0  0  0  0
 26 25  1  0  0  0  0
 29 28  1  0  0  0  0
 29 27  1  0  0  0  0
 29 23  1  0  0  0  0
 30 32  1  0  0  0  0
 32 31  1  0  0  0  0
M  END
>  <MODEL>
7

>  <REMARK>
 VINA RESULT:      -5.1      5.832      9.884
  Name = 
  4 active torsions:
  status: ('A' for Active; 'I' for Inactive)
    1  A    between atoms: C_11  and  C_12
    2  A    between atoms: C_11  and  C_31
    3  A    between atoms: C_16  and  C_27
    4  A    between atoms: C_19  and  N_26
                            x       y       z     vdW  Elec       q    Type
                         _______ _______ _______ _____ _____    ______ ____

>  <TORSDO>
F 4

$$$$
=
 OpenBabel10272402103D

 32 37  0  0  1  0  0  0  0  0999 V2000
  187.3900  177.3990  135.4230 C   0  0  0  0  0  0  0  0  0  0  0  0
  188.8260  177.1650  134.9270 C   0  0  1  0  0  3  0  0  0  0  0  0
  186.3860  177.7650  134.3480 C   0  0  0  0  0  2  0  0  0  0  0  0
  188.8020  177.0110  139.0370 C   0  0  0  0  0  2  0  0  0  0  0  0
  191.7060  176.6220  138.7620 C   0  0  0  0  0  3  0  0  0  0  0  0
  189.3290  175.7760  138.3220 C   0  0  2  0  0  3  0  0  0  0  0  0
  190.2530  174.0590  136.1030 C   0  0  2  0  0  3  0  0  0  0  0  0
  190.7520  176.0190  137.7810 C   0  0  2  0  0  0  0  0  0  0  0  0
  189.7850  177.4300  136.0820 C   0  0  0  0  0  2  0  0  0  0  0  0
  191.2590  175.0470  136.7400 C   0  0  2  0  0  3  0  0  0  0  0  0
  188.9630  175.8840  134.3930 O   0  0  0  0  0  1  0  0  0  0  0  0
  191.0170  176.5430  136.3550 C   0  0  2  0  0  3  0  0  0  0  0  0
  187.3750  175.3750  136.8060 N   0  0  0  0  0  0  0  0  0  0  0  0
  191.2340  177.2770  139.8380 C   0  0  0  0  0  3  0  0  0  0  0  0
  186.8950  176.7480  136.7480 C   0  0  2  0  0  3  0  0  0  0  0  0
  189.0860  173.8490  136.8960 O   0  0  0  0  0  0  0  0  0  0  0  0
  189.7560  177.3580  140.1920 C   0  0  0  0  0  2  0  0  0  0  0  0
  186.9560  178.8410  135.2620 C   0  0  0  0  0  2  0  0  0  0  0  0
  188.4680  174.9780  137.3840 C   0  0  0  0  0  0  0  0  0  0  0  0
  183.5430  177.7040  138.4540 C   0  0  0  0  0  2  0  0  0  0  0  0
  183.2390  175.5140  137.2370 C   0  0  0  0  0  2  0  0  0  0  0  0
  185.3750  176.8130  136.9770 C   0  0  1  0  0  3  0  0  0  0  0  0
  182.9220  176.3090  138.5160 C   0  0  2  0  0  3  0  0  0  0  0  0
  184.7470  175.4140  137.0480 C   0  0  0  0  0  2  0  0  0  0  0  0
  185.0530  177.6110  138.2460 C   0  0  1  0  0  3  0  0  0  0  0  0
  185.5690  178.8900  138.1450 F   0  0  0  0  0  0  0  0  0  0  0  0
  180.9310  175.0860  139.1480 C   0  0  0  0  0  1  0  0  0  0  0  0
  181.3030  177.2560  139.9770 C   0  0  0  0  0  1  0  0  0  0  0  0
  181.4850  176.3950  138.8180 N   0  0  0  0  0  0  0  0  0  0  0  0
  190.9410  172.7350  135.8300 C   0  0  0  0  0  2  0  0  0  0  0  0
  193.1010  171.5310  135.8070 C   0  0  0  0  0  1  0  0  0  0  0  0
  192.4390  172.8760  136.0170 C   0  0  0  0  0  2  0  0  0  0  0  0
  1 15  1  0  0  0  0
  2 11  1  1  0  0  0
  2  1  1  0  0  0  0
  2  9  1  0  0  0  0
  3 18  1  0  0  0  0
  3  1  1  0  0  0  0
  4 17  1  0  0  0  0
  5 14  2  0  0  0  0
  6  4  1  6  0  0  0
  7 30  1  1  0  0  0
  7 10  1  0  0  0  0
  7 16  1  0  0  0  0
  8  6  1  0  0  0  0
  8  5  1  1  0  0  0
  9 12  1  0  0  0  0
 10  8  1  0  0  0  0
 12 10  1  0  0  0  0
 12  8  1  0  0  0  0
 13 19  2  0  0  0  0
 14 17  1  0  0  0  0
 15 13  1  0  0  0  0
 15 22  1  0  0  0  0
 16 19  1  0  0  0  0
 18  1  1  0  0  0  0
 19  6  1  0  0  0  0
 20 23  1  0  0  0  0
 21 23  1  0  0  0  0
 22 24  1  0  0  0  0
 22 25  1  0  0  0  0
 23 29  1  0  0  0  0
 24 21  1  0  0  0  0
 25 20  1  0  0  0  0
 26 25  1  0  0  0  0
 29 27  1  0  0  0  0
 29 28  1  0  0  0  0
 30 32  1  0  0  0  0
 31 32  1  0  0  0  0
M  END
>  <MODEL>
8

>  <REMARK>
 VINA RESULT:      -5.0      3.583      5.655
  Name = 
  4 active torsions:
  status: ('A' for Active; 'I' for Inactive)
    1  A    between atoms: C_11  and  C_12
    2  A    between atoms: C_11  and  C_31
    3  A    between atoms: C_16  and  C_27
    4  A    between atoms: C_19  and  N_26
                            x       y       z     vdW  Elec       q    Type
                         _______ _______ _______ _____ _____    ______ ____

>  <TORSDO>
F 4

$$$$
=
 OpenBabel10272402103D

 32 37  0  0  1  0  0  0  0  0999 V2000
  185.1340  176.8790  137.1990 C   0  0  0  0  0  0  0  0  0  0  0  0
  185.3440  178.1760  137.9960 C   0  0  1  0  0  3  0  0  0  0  0  0
  186.4020  176.1950  136.7270 C   0  0  0  0  0  2  0  0  0  0  0  0
  181.3170  177.6640  137.3390 C   0  0  0  0  0  2  0  0  0  0  0  0
  181.0450  180.2400  138.7340 C   0  0  0  0  0  3  0  0  0  0  0  0
  181.7510  177.7790  138.7930 C   0  0  2  0  0  3  0  0  0  0  0  0
  183.5170  178.2460  141.1140 C   0  0  2  0  0  3  0  0  0  0  0  0
  182.0760  179.2420  139.1550 C   0  0  2  0  0  0  0  0  0  0  0  0
  184.0950  179.0380  137.8540 C   0  0  0  0  0  2  0  0  0  0  0  0
  182.8680  179.4690  140.4220 C   0  0  2  0  0  3  0  0  0  0  0  0
  185.6600  177.8950  139.3250 O   0  0  0  0  0  1  0  0  0  0  0  0
  183.4970  179.8280  139.0360 C   0  0  2  0  0  3  0  0  0  0  0  0
  183.4990  175.9840  138.7920 N   0  0  0  0  0  0  0  0  0  0  0  0
  180.1670  179.9270  137.7640 C   0  0  0  0  0  3  0  0  0  0  0  0
  183.8310  176.0440  137.3760 C   0  0  2  0  0  3  0  0  0  0  0  0
  182.9080  177.0060  140.7600 O   0  0  0  0  0  0  0  0  0  0  0  0
  180.0800  178.5510  137.1200 C   0  0  0  0  0  2  0  0  0  0  0  0
  185.5680  177.0160  135.7540 C   0  0  0  0  0  2  0  0  0  0  0  0
  182.6960  176.7920  139.4160 C   0  0  0  0  0  0  0  0  0  0  0  0
  182.5210  172.8300  135.6410 C   0  0  0  0  0  2  0  0  0  0  0  0
  184.5080  172.2260  137.0750 C   0  0  0  0  0  2  0  0  0  0  0  0
  183.8710  174.6360  136.7560 C   0  0  1  0  0  3  0  0  0  0  0  0
  183.1030  171.8030  136.6120 C   0  0  2  0  0  3  0  0  0  0  0  0
  184.4470  173.6000  137.7310 C   0  0  0  0  0  2  0  0  0  0  0  0
  182.4740  174.2130  136.2860 C   0  0  1  0  0  3  0  0  0  0  0  0
  181.9910  175.1200  135.3610 F   0  0  0  0  0  0  0  0  0  0  0  0
  182.0680  170.3720  134.9550 C   0  0  0  0  0  1  0  0  0  0  0  0
  184.3550  170.1430  135.4580 C   0  0  0  0  0  1  0  0  0  0  0  0
  183.0530  170.4530  136.0290 N   0  0  0  0  0  0  0  0  0  0  0  0
  183.4800  178.4320  142.6180 C   0  0  0  0  0  2  0  0  0  0  0  0
  184.8530  178.8250  144.6380 C   0  0  0  0  0  1  0  0  0  0  0  0
  184.8400  178.8720  143.1250 C   0  0  0  0  0  2  0  0  0  0  0  0
  1 15  1  0  0  0  0
  1  2  1  0  0  0  0
  2 11  1  1  0  0  0
  3  1  1  0  0  0  0
  6  4  1  6  0  0  0
  6  8  1  0  0  0  0
  6 19  1  0  0  0  0
  7 30  1  1  0  0  0
  8  5  1  6  0  0  0
  8 10  1  0  0  0  0
  9  2  1  0  0  0  0
  9 12  1  0  0  0  0
 10  7  1  0  0  0  0
 12  8  1  0  0  0  0
 12 10  1  0  0  0  0
 13 19  2  0  0  0  0
 14  5  2  0  0  0  0
 15 13  1  0  0  0  0
 16  7  1  0  0  0  0
 17  4  1  0  0  0  0
 17 14  1  0  0  0  0
 18  3  1  0  0  0  0
 18  1  1  0  0  0  0
 19 16  1  0  0  0  0
 20 25  1  0  0  0  0
 20 23  1  0  0  0  0
 21 24  1  0  0  0  0
 22 15  1  0  0  0  0
 22 24  1  0  0  0  0
 23 21  1  0  0  0  0
 25 22  1  0  0  0  0
 26 25  1  0  0  0  0
 27 29  1  0  0  0  0
 28 29  1  0  0  0  0
 29 23  1  0  0  0  0
 30 32  1  0  0  0  0
 32 31  1  0  0  0  0
M  END
>  <MODEL>
9

>  <REMARK>
 VINA RESULT:      -4.9      5.715      9.994
  Name = 
  4 active torsions:
  status: ('A' for Active; 'I' for Inactive)
    1  A    between atoms: C_11  and  C_12
    2  A    between atoms: C_11  and  C_31
    3  A    between atoms: C_16  and  C_27
    4  A    between atoms: C_19  and  N_26
                            x       y       z     vdW  Elec       q    Type
                         _______ _______ _______ _____ _____    ______ ____

>  <TORSDO>
F 4

$$$$
