=
 OpenBabel10272401493D

 28 30  0  0  1  0  0  0  0  0999 V2000
  190.0060  177.7960  145.0900 C   0  0  1  0  0  3  0  0  0  0  0  0
  192.4280  175.5530  146.6790 C   0  0  0  0  0  3  0  0  0  0  0  0
  190.9500  177.0240  145.9550 C   0  0  0  0  0  0  0  0  0  0  0  0
  192.1680  176.4670  147.8040 N   0  0  0  0  0  0  0  0  0  0  0  0
  191.6110  176.0020  145.5580 N   0  0  0  0  0  0  0  0  0  0  0  0
  191.2320  177.3710  147.2860 N   0  0  0  0  0  2  0  0  0  0  0  0
  190.6900  178.3550  143.8400 C   0  0  1  0  0  3  0  0  0  0  0  0
  191.9330  179.1710  144.1630 C   0  0  0  0  0  1  0  0  0  0  0  0
  191.0330  177.2660  142.9370 N   0  0  0  0  0  2  0  0  0  0  0  0
  190.0780  177.2790  141.8360 C   0  0  1  0  0  3  0  0  0  0  0  0
  189.3300  178.4410  141.8890 F   0  0  0  0  0  0  0  0  0  0  0  0
  192.0820  177.4750  140.4600 C   0  0  0  0  0  2  0  0  0  0  0  0
  190.7800  177.1900  140.5140 C   0  0  0  0  0  0  0  0  0  0  0  0
  190.0550  176.6620  139.3070 C   0  0  1  0  0  3  0  0  0  0  0  0
  189.7390  177.7770  138.3250 C   0  0  0  0  0  1  0  0  0  0  0  0
  190.8410  175.6330  138.6480 N   0  0  0  0  0  1  0  0  0  0  0  0
  188.7360  177.0060  144.7820 C   0  0  0  0  0  2  0  0  0  0  0  0
  186.0560  177.4620  143.7230 C   0  0  0  0  0  3  0  0  0  0  0  0
  185.2500  178.0690  146.0740 C   0  0  2  0  0  3  0  0  0  0  0  0
  187.6160  177.4900  145.6440 C   0  0  0  0  0  0  0  0  0  0  0  0
  184.0190  178.7880  144.0510 C   0  0  0  0  0  0  0  0  0  0  0  0
  186.3810  177.6770  145.1480 C   0  0  0  0  0  0  0  0  0  0  0  0
  186.9650  178.5250  147.7710 C   0  0  0  0  0  3  0  0  0  0  0  0
  184.1990  178.8850  145.3750 C   0  0  0  0  0  3  0  0  0  0  0  0
  185.7130  178.7080  147.3510 C   0  0  0  0  0  3  0  0  0  0  0  0
  182.7370  179.6990  143.2860 Cl  0  0  0  0  0  0  0  0  0  0  0  0
  184.9340  177.9790  143.2150 C   0  0  0  0  0  3  0  0  0  0  0  0
  187.8880  177.8280  146.9780 O   0  0  0  0  0  0  0  0  0  0  0  0
  1 17  1  6  0  0  0
  1  3  1  0  0  0  0
  2  4  2  0  0  0  0
  3  6  1  0  0  0  0
  5  3  2  0  0  0  0
  5  2  1  0  0  0  0
  6  4  1  0  0  0  0
  7  8  1  1  0  0  0
  7  1  1  0  0  0  0
  9  7  1  0  0  0  0
 10 11  1  6  0  0  0
 10  9  1  0  0  0  0
 12 13  2  0  0  0  0
 13 10  1  0  0  0  0
 14 15  1  6  0  0  0
 14 13  1  0  0  0  0
 16 14  1  0  0  0  0
 17 20  1  0  0  0  0
 18 22  1  0  0  0  0
 19 24  1  6  0  0  0
 19 25  1  0  0  0  0
 20 28  1  0  0  0  0
 21 24  2  0  0  0  0
 22 20  2  0  0  0  0
 22 19  1  0  0  0  0
 25 23  2  0  0  0  0
 26 21  1  0  0  0  0
 27 18  2  0  0  0  0
 27 21  1  0  0  0  0
 28 23  1  0  0  0  0
M  END
>  <MODEL>
1

>  <REMARK>
 VINA RESULT:      -8.4      0.000      0.000
  Name = 
  8 active torsions:
  status: ('A' for Active; 'I' for Inactive)
    1  A    between atoms: C_1  and  N_2
    2  A    between atoms: C_1  and  C_27
    3  A    between atoms: N_2  and  C_3
    4  A    between atoms: C_3  and  C_11
    5  A    between atoms: C_6  and  C_11
    6  A    between atoms: C_10  and  C_17
    7  A    between atoms: C_16  and  C_27
    8  A    between atoms: C_17  and  C_27
                            x       y       z     vdW  Elec       q    Type
                         _______ _______ _______ _____ _____    ______ ____

>  <TORSDO>
F 8

$$$$
=
 OpenBabel10272401493D

 28 30  0  0  1  0  0  0  0  0999 V2000
  187.2060  178.3300  142.4020 C   0  0  1  0  0  3  0  0  0  0  0  0
  189.2890  178.3210  139.3880 C   0  0  0  0  0  3  0  0  0  0  0  0
  188.1280  178.0860  141.2510 C   0  0  0  0  0  0  0  0  0  0  0  0
  189.6870  177.0260  139.9630 N   0  0  0  0  0  0  0  0  0  0  0  0
  188.3040  178.9100  140.2870 N   0  0  0  0  0  0  0  0  0  0  0  0
  188.9250  176.9350  141.1340 N   0  0  0  0  0  2  0  0  0  0  0  0
  185.8410  178.8550  141.9500 C   0  0  1  0  0  3  0  0  0  0  0  0
  185.6660  178.8190  140.4390 C   0  0  0  0  0  1  0  0  0  0  0  0
  184.7820  178.0880  142.5900 N   0  0  0  0  0  2  0  0  0  0  0  0
  183.5050  178.6020  142.1110 C   0  0  1  0  0  3  0  0  0  0  0  0
  182.9650  177.7160  141.1970 F   0  0  0  0  0  0  0  0  0  0  0  0
  183.0370  179.0310  144.4660 C   0  0  0  0  0  2  0  0  0  0  0  0
  182.5460  178.8020  143.2470 C   0  0  0  0  0  0  0  0  0  0  0  0
  181.0670  178.8730  142.9840 C   0  0  1  0  0  3  0  0  0  0  0  0
  180.2770  178.2590  144.1280 C   0  0  0  0  0  1  0  0  0  0  0  0
  180.6500  180.2490  142.7810 N   0  0  0  0  0  1  0  0  0  0  0  0
  187.1120  177.1190  143.3270 C   0  0  0  0  0  2  0  0  0  0  0  0
  189.7470  176.9660  144.5680 C   0  0  0  0  0  3  0  0  0  0  0  0
  188.7880  178.0170  146.6940 C   0  0  2  0  0  3  0  0  0  0  0  0
  187.3480  177.5410  144.7410 C   0  0  0  0  0  0  0  0  0  0  0  0
  190.8860  176.7050  146.7240 C   0  0  0  0  0  0  0  0  0  0  0  0
  188.5710  177.4850  145.2940 C   0  0  0  0  0  0  0  0  0  0  0  0
  186.3440  178.0890  146.9120 C   0  0  0  0  0  3  0  0  0  0  0  0
  189.9010  177.3030  147.4070 C   0  0  0  0  0  3  0  0  0  0  0  0
  187.5330  178.0830  147.5130 C   0  0  0  0  0  3  0  0  0  0  0  0
  192.2020  175.9480  147.5930 Cl  0  0  0  0  0  0  0  0  0  0  0  0
  190.8420  176.6120  145.2480 C   0  0  0  0  0  3  0  0  0  0  0  0
  186.2480  177.9290  145.5210 O   0  0  0  0  0  0  0  0  0  0  0  0
  1 17  1  6  0  0  0
  2  4  2  0  0  0  0
  2  5  1  0  0  0  0
  3  1  1  0  0  0  0
  4  6  1  0  0  0  0
  5  3  2  0  0  0  0
  6  3  1  0  0  0  0
  7  8  1  6  0  0  0
  7  1  1  0  0  0  0
  7  9  1  0  0  0  0
 10 11  1  6  0  0  0
 10  9  1  0  0  0  0
 10 13  1  0  0  0  0
 13 12  2  0  0  0  0
 14 13  1  0  0  0  0
 14 15  1  1  0  0  0
 16 14  1  0  0  0  0
 17 20  1  0  0  0  0
 18 27  2  0  0  0  0
 18 22  1  0  0  0  0
 19 24  1  1  0  0  0
 19 25  1  0  0  0  0
 20 22  2  0  0  0  0
 20 28  1  0  0  0  0
 21 24  2  0  0  0  0
 21 26  1  0  0  0  0
 22 19  1  0  0  0  0
 23 25  2  0  0  0  0
 27 21  1  0  0  0  0
 28 23  1  0  0  0  0
M  END
>  <MODEL>
2

>  <REMARK>
 VINA RESULT:      -8.2      3.883      6.904
  Name = 
  8 active torsions:
  status: ('A' for Active; 'I' for Inactive)
    1  A    between atoms: C_1  and  N_2
    2  A    between atoms: C_1  and  C_27
    3  A    between atoms: N_2  and  C_3
    4  A    between atoms: C_3  and  C_11
    5  A    between atoms: C_6  and  C_11
    6  A    between atoms: C_10  and  C_17
    7  A    between atoms: C_16  and  C_27
    8  A    between atoms: C_17  and  C_27
                            x       y       z     vdW  Elec       q    Type
                         _______ _______ _______ _____ _____    ______ ____

>  <TORSDO>
F 8

$$$$
=
 OpenBabel10272401493D

 28 30  0  0  1  0  0  0  0  0999 V2000
  188.7080  177.2410  141.4480 C   0  0  1  0  0  3  0  0  0  0  0  0
  191.4550  176.6290  139.1030 C   0  0  0  0  0  3  0  0  0  0  0  0
  189.9780  177.1120  140.6720 C   0  0  0  0  0  0  0  0  0  0  0  0
  192.1800  177.3890  140.1350 N   0  0  0  0  0  0  0  0  0  0  0  0
  190.0680  176.5180  139.5410 N   0  0  0  0  0  0  0  0  0  0  0  0
  191.1980  177.6670  141.0930 N   0  0  0  0  0  2  0  0  0  0  0  0
  188.8300  176.6660  142.8610 C   0  0  1  0  0  3  0  0  0  0  0  0
  189.9630  175.6580  142.9920 C   0  0  0  0  0  1  0  0  0  0  0  0
  189.0160  177.7460  143.8190 N   0  0  0  0  0  2  0  0  0  0  0  0
  187.9440  177.6620  144.8030 C   0  0  1  0  0  3  0  0  0  0  0  0
  187.0970  176.6210  144.4720 F   0  0  0  0  0  0  0  0  0  0  0  0
  189.8070  177.2500  146.3220 C   0  0  0  0  0  2  0  0  0  0  0  0
  188.4950  177.4470  146.1810 C   0  0  0  0  0  0  0  0  0  0  0  0
  187.6010  177.5840  147.3820 C   0  0  1  0  0  3  0  0  0  0  0  0
  188.3660  178.1330  148.5750 C   0  0  0  0  0  1  0  0  0  0  0  0
  186.4710  178.4450  147.0830 N   0  0  0  0  0  1  0  0  0  0  0  0
  188.1630  178.6670  141.4210 C   0  0  0  0  0  2  0  0  0  0  0  0
  185.5870  179.2140  142.6760 C   0  0  0  0  0  3  0  0  0  0  0  0
  184.4670  179.1200  140.3770 C   0  0  2  0  0  3  0  0  0  0  0  0
  186.8920  178.7110  140.6360 C   0  0  0  0  0  0  0  0  0  0  0  0
  183.1780  178.8020  142.4660 C   0  0  0  0  0  0  0  0  0  0  0  0
  185.7150  178.9840  141.2230 C   0  0  0  0  0  0  0  0  0  0  0  0
  185.7620  178.1490  138.5320 C   0  0  0  0  0  3  0  0  0  0  0  0
  183.2260  178.7290  141.1290 C   0  0  0  0  0  3  0  0  0  0  0  0
  184.5670  178.4370  139.0450 C   0  0  0  0  0  3  0  0  0  0  0  0
  181.6910  178.4090  143.2980 Cl  0  0  0  0  0  0  0  0  0  0  0  0
  184.3840  179.1390  143.2540 C   0  0  0  0  0  3  0  0  0  0  0  0
  186.9310  178.3820  139.2730 O   0  0  0  0  0  0  0  0  0  0  0  0
  1 17  1  1  0  0  0
  1  7  1  0  0  0  0
  2  5  1  0  0  0  0
  2  4  2  0  0  0  0
  3  6  1  0  0  0  0
  3  1  1  0  0  0  0
  4  6  1  0  0  0  0
  5  3  2  0  0  0  0
  7  8  1  6  0  0  0
  7  9  1  0  0  0  0
  9 10  1  0  0  0  0
 10 11  1  6  0  0  0
 10 13  1  0  0  0  0
 13 12  2  0  0  0  0
 13 14  1  0  0  0  0
 14 15  1  1  0  0  0
 16 14  1  0  0  0  0
 18 27  2  0  0  0  0
 19 25  1  6  0  0  0
 19 24  1  0  0  0  0
 19 22  1  0  0  0  0
 20 22  2  0  0  0  0
 20 17  1  0  0  0  0
 21 27  1  0  0  0  0
 21 26  1  0  0  0  0
 22 18  1  0  0  0  0
 23 25  2  0  0  0  0
 23 28  1  0  0  0  0
 24 21  2  0  0  0  0
 28 20  1  0  0  0  0
M  END
>  <MODEL>
3

>  <REMARK>
 VINA RESULT:      -8.1      2.798      5.962
  Name = 
  8 active torsions:
  status: ('A' for Active; 'I' for Inactive)
    1  A    between atoms: C_1  and  N_2
    2  A    between atoms: C_1  and  C_27
    3  A    between atoms: N_2  and  C_3
    4  A    between atoms: C_3  and  C_11
    5  A    between atoms: C_6  and  C_11
    6  A    between atoms: C_10  and  C_17
    7  A    between atoms: C_16  and  C_27
    8  A    between atoms: C_17  and  C_27
                            x       y       z     vdW  Elec       q    Type
                         _______ _______ _______ _____ _____    ______ ____

>  <TORSDO>
F 8

$$$$
=
 OpenBabel10272401493D

 28 30  0  0  1  0  0  0  0  0999 V2000
  187.8080  178.4790  141.3280 C   0  0  1  0  0  3  0  0  0  0  0  0
  189.2070  178.5700  137.9430 C   0  0  0  0  0  3  0  0  0  0  0  0
  188.3630  178.2530  139.9580 C   0  0  0  0  0  0  0  0  0  0  0  0
  189.1520  177.1130  138.1450 N   0  0  0  0  0  0  0  0  0  0  0  0
  188.6900  179.1950  139.1550 N   0  0  0  0  0  0  0  0  0  0  0  0
  188.6140  176.9760  139.4310 N   0  0  0  0  0  2  0  0  0  0  0  0
  186.4450  179.1750  141.2950 C   0  0  1  0  0  3  0  0  0  0  0  0
  185.5940  178.7480  140.1070 C   0  0  0  0  0  1  0  0  0  0  0  0
  185.7290  178.9160  142.5350 N   0  0  0  0  0  2  0  0  0  0  0  0
  184.3410  178.6260  142.1980 C   0  0  1  0  0  3  0  0  0  0  0  0
  184.2260  177.3010  141.8190 F   0  0  0  0  0  0  0  0  0  0  0  0
  183.9660  178.9330  144.5890 C   0  0  0  0  0  2  0  0  0  0  0  0
  183.4370  178.8970  143.3640 C   0  0  0  0  0  0  0  0  0  0  0  0
  181.9930  179.2490  143.1360 C   0  0  1  0  0  3  0  0  0  0  0  0
  181.5480  178.8590  141.7370 C   0  0  0  0  0  1  0  0  0  0  0  0
  181.1470  178.5990  144.1210 N   0  0  0  0  0  1  0  0  0  0  0  0
  187.8140  177.2020  142.1650 C   0  0  0  0  0  2  0  0  0  0  0  0
  187.4010  177.0750  145.0500 C   0  0  0  0  0  3  0  0  0  0  0  0
  189.9360  177.0870  145.3960 C   0  0  2  0  0  3  0  0  0  0  0  0
  188.9540  177.2340  143.1310 C   0  0  0  0  0  0  0  0  0  0  0  0
  188.3740  177.7420  147.2010 C   0  0  0  0  0  0  0  0  0  0  0  0
  188.7510  177.1540  144.4570 C   0  0  0  0  0  0  0  0  0  0  0  0
  191.3310  177.7280  143.4810 C   0  0  0  0  0  3  0  0  0  0  0  0
  189.6300  177.6850  146.7400 C   0  0  0  0  0  3  0  0  0  0  0  0
  191.2030  177.6280  144.8040 C   0  0  0  0  0  3  0  0  0  0  0  0
  188.0700  178.3780  148.8010 Cl  0  0  0  0  0  0  0  0  0  0  0  0
  187.2320  177.3410  146.3490 C   0  0  0  0  0  3  0  0  0  0  0  0
  190.2510  177.4300  142.6360 O   0  0  0  0  0  0  0  0  0  0  0  0
  1 17  1  6  0  0  0
  2  4  2  0  0  0  0
  2  5  1  0  0  0  0
  3  1  1  0  0  0  0
  4  6  1  0  0  0  0
  5  3  2  0  0  0  0
  6  3  1  0  0  0  0
  7  8  1  6  0  0  0
  7  1  1  0  0  0  0
  7  9  1  0  0  0  0
 10 11  1  1  0  0  0
 10  9  1  0  0  0  0
 10 13  1  0  0  0  0
 13 12  2  0  0  0  0
 14 15  1  6  0  0  0
 14 13  1  0  0  0  0
 14 16  1  0  0  0  0
 17 20  1  0  0  0  0
 18 27  2  0  0  0  0
 19 25  1  6  0  0  0
 19 24  1  0  0  0  0
 20 22  2  0  0  0  0
 21 26  1  0  0  0  0
 22 18  1  0  0  0  0
 22 19  1  0  0  0  0
 23 25  2  0  0  0  0
 24 21  2  0  0  0  0
 27 21  1  0  0  0  0
 28 20  1  0  0  0  0
 28 23  1  0  0  0  0
M  END
>  <MODEL>
4

>  <REMARK>
 VINA RESULT:      -7.9      3.671      6.823
  Name = 
  8 active torsions:
  status: ('A' for Active; 'I' for Inactive)
    1  A    between atoms: C_1  and  N_2
    2  A    between atoms: C_1  and  C_27
    3  A    between atoms: N_2  and  C_3
    4  A    between atoms: C_3  and  C_11
    5  A    between atoms: C_6  and  C_11
    6  A    between atoms: C_10  and  C_17
    7  A    between atoms: C_16  and  C_27
    8  A    between atoms: C_17  and  C_27
                            x       y       z     vdW  Elec       q    Type
                         _______ _______ _______ _____ _____    ______ ____

>  <TORSDO>
F 8

$$$$
=
 OpenBabel10272401493D

 28 30  0  0  1  0  0  0  0  0999 V2000
  184.4940  178.3280  141.0810 C   0  0  1  0  0  3  0  0  0  0  0  0
  181.3480  178.9700  142.8460 C   0  0  0  0  0  3  0  0  0  0  0  0
  183.0990  178.4580  141.6020 C   0  0  0  0  0  0  0  0  0  0  0  0
  180.8220  178.2920  141.6490 N   0  0  0  0  0  0  0  0  0  0  0  0
  182.7990  179.0270  142.7090 N   0  0  0  0  0  0  0  0  0  0  0  0
  181.9710  177.9960  140.9050 N   0  0  0  0  0  2  0  0  0  0  0  0
  184.5810  178.6080  139.5790 C   0  0  1  0  0  3  0  0  0  0  0  0
  183.7780  179.8310  139.1600 C   0  0  0  0  0  1  0  0  0  0  0  0
  185.9730  178.7720  139.1880 N   0  0  0  0  0  2  0  0  0  0  0  0
  186.2590  177.8090  138.1330 C   0  0  1  0  0  3  0  0  0  0  0  0
  185.9050  178.3470  136.9100 F   0  0  0  0  0  0  0  0  0  0  0  0
  188.0660  176.2490  137.6320 C   0  0  0  0  0  2  0  0  0  0  0  0
  187.7120  177.4390  138.1200 C   0  0  0  0  0  0  0  0  0  0  0  0
  188.7520  178.4460  138.5270 C   0  0  1  0  0  3  0  0  0  0  0  0
  190.0570  177.7660  138.9030 C   0  0  0  0  0  1  0  0  0  0  0  0
  188.9840  179.4010  137.4580 N   0  0  0  0  0  1  0  0  0  0  0  0
  185.4900  179.1400  141.9060 C   0  0  0  0  0  2  0  0  0  0  0  0
  185.5680  178.6090  144.7730 C   0  0  0  0  0  3  0  0  0  0  0  0
  187.4960  176.9700  144.4000 C   0  0  2  0  0  3  0  0  0  0  0  0
  186.5060  178.2290  142.5160 C   0  0  0  0  0  0  0  0  0  0  0  0
  187.0690  177.9930  146.6130 C   0  0  0  0  0  0  0  0  0  0  0  0
  186.5170  177.9770  143.8360 C   0  0  0  0  0  0  0  0  0  0  0  0
  188.6360  177.0470  142.2270 C   0  0  0  0  0  3  0  0  0  0  0  0
  187.8810  177.2850  145.8180 C   0  0  0  0  0  3  0  0  0  0  0  0
  188.6890  176.7340  143.5220 C   0  0  0  0  0  3  0  0  0  0  0  0
  187.5210  178.2740  148.2780 Cl  0  0  0  0  0  0  0  0  0  0  0  0
  185.8280  178.6020  146.0840 C   0  0  0  0  0  3  0  0  0  0  0  0
  187.5090  177.6930  141.6960 O   0  0  0  0  0  0  0  0  0  0  0  0
  1  3  1  0  0  0  0
  1 17  1  1  0  0  0
  3  5  2  0  0  0  0
  4  2  2  0  0  0  0
  5  2  1  0  0  0  0
  6  3  1  0  0  0  0
  6  4  1  0  0  0  0
  7  8  1  1  0  0  0
  7  1  1  0  0  0  0
  9  7  1  0  0  0  0
 10 11  1  6  0  0  0
 10  9  1  0  0  0  0
 12 13  2  0  0  0  0
 13 10  1  0  0  0  0
 13 14  1  0  0  0  0
 14 15  1  6  0  0  0
 16 14  1  0  0  0  0
 17 20  1  0  0  0  0
 18 27  2  0  0  0  0
 19 25  1  6  0  0  0
 19 24  1  0  0  0  0
 20 22  2  0  0  0  0
 21 26  1  0  0  0  0
 22 19  1  0  0  0  0
 22 18  1  0  0  0  0
 23 25  2  0  0  0  0
 24 21  2  0  0  0  0
 27 21  1  0  0  0  0
 28 23  1  0  0  0  0
 28 20  1  0  0  0  0
M  END
>  <MODEL>
5

>  <REMARK>
 VINA RESULT:      -7.9      4.464      6.607
  Name = 
  8 active torsions:
  status: ('A' for Active; 'I' for Inactive)
    1  A    between atoms: C_1  and  N_2
    2  A    between atoms: C_1  and  C_27
    3  A    between atoms: N_2  and  C_3
    4  A    between atoms: C_3  and  C_11
    5  A    between atoms: C_6  and  C_11
    6  A    between atoms: C_10  and  C_17
    7  A    between atoms: C_16  and  C_27
    8  A    between atoms: C_17  and  C_27
                            x       y       z     vdW  Elec       q    Type
                         _______ _______ _______ _____ _____    ______ ____

>  <TORSDO>
F 8

$$$$
=
 OpenBabel10272401493D

 28 30  0  0  1  0  0  0  0  0999 V2000
  189.5950  177.6360  139.7620 C   0  0  1  0  0  3  0  0  0  0  0  0
  192.2760  175.7760  138.0960 C   0  0  0  0  0  3  0  0  0  0  0  0
  190.4990  176.7060  139.0180 C   0  0  0  0  0  0  0  0  0  0  0  0
  191.1570  174.8480  137.8660 N   0  0  0  0  0  0  0  0  0  0  0  0
  191.7500  176.9150  138.8390 N   0  0  0  0  0  0  0  0  0  0  0  0
  190.0670  175.4870  138.4710 N   0  0  0  0  0  2  0  0  0  0  0  0
  188.6570  178.4040  138.8280 C   0  0  1  0  0  3  0  0  0  0  0  0
  189.3570  178.9090  137.5750 C   0  0  0  0  0  1  0  0  0  0  0  0
  187.5290  177.5620  138.4600 N   0  0  0  0  0  2  0  0  0  0  0  0
  186.5140  178.4120  137.8520 C   0  0  1  0  0  3  0  0  0  0  0  0
  186.5450  178.2570  136.4790 F   0  0  0  0  0  0  0  0  0  0  0  0
  184.4940  177.0450  137.8180 C   0  0  0  0  0  2  0  0  0  0  0  0
  185.1470  178.0710  138.3680 C   0  0  0  0  0  0  0  0  0  0  0  0
  184.5890  178.7890  139.5650 C   0  0  1  0  0  3  0  0  0  0  0  0
  185.5800  178.7880  140.7160 C   0  0  0  0  0  1  0  0  0  0  0  0
  184.2350  180.1550  139.2210 N   0  0  0  0  0  1  0  0  0  0  0  0
  188.8670  176.9330  140.9050 C   0  0  0  0  0  2  0  0  0  0  0  0
  187.4960  176.8670  143.4790 C   0  0  0  0  0  3  0  0  0  0  0  0
  189.7270  177.2830  144.6590 C   0  0  2  0  0  3  0  0  0  0  0  0
  189.5850  177.1810  142.1920 C   0  0  0  0  0  0  0  0  0  0  0  0
  187.5640  177.7670  145.7600 C   0  0  0  0  0  0  0  0  0  0  0  0
  188.9450  177.1280  143.3730 C   0  0  0  0  0  0  0  0  0  0  0  0
  191.6070  178.0480  143.2780 C   0  0  0  0  0  3  0  0  0  0  0  0
  188.8980  177.8840  145.7590 C   0  0  0  0  0  3  0  0  0  0  0  0
  191.0400  177.9860  144.4830 C   0  0  0  0  0  3  0  0  0  0  0  0
  186.6420  178.4180  147.0960 Cl  0  0  0  0  0  0  0  0  0  0  0  0
  186.8520  177.1600  144.6130 C   0  0  0  0  0  3  0  0  0  0  0  0
  190.9370  177.5520  142.1490 O   0  0  0  0  0  0  0  0  0  0  0  0
  1 17  1  1  0  0  0
  2  5  1  0  0  0  0
  3  1  1  0  0  0  0
  4  2  2  0  0  0  0
  4  6  1  0  0  0  0
  5  3  2  0  0  0  0
  6  3  1  0  0  0  0
  7  8  1  6  0  0  0
  7  1  1  0  0  0  0
  9  7  1  0  0  0  0
 10 11  1  6  0  0  0
 10 13  1  0  0  0  0
 10  9  1  0  0  0  0
 12 13  2  0  0  0  0
 13 14  1  0  0  0  0
 14 15  1  1  0  0  0
 16 14  1  0  0  0  0
 17 20  1  0  0  0  0
 18 27  2  0  0  0  0
 19 25  1  6  0  0  0
 19 24  1  0  0  0  0
 20 22  2  0  0  0  0
 21 26  1  0  0  0  0
 22 18  1  0  0  0  0
 22 19  1  0  0  0  0
 23 25  2  0  0  0  0
 24 21  2  0  0  0  0
 27 21  1  0  0  0  0
 28 20  1  0  0  0  0
 28 23  1  0  0  0  0
M  END
>  <MODEL>
6

>  <REMARK>
 VINA RESULT:      -7.8      3.758      6.096
  Name = 
  8 active torsions:
  status: ('A' for Active; 'I' for Inactive)
    1  A    between atoms: C_1  and  N_2
    2  A    between atoms: C_1  and  C_27
    3  A    between atoms: N_2  and  C_3
    4  A    between atoms: C_3  and  C_11
    5  A    between atoms: C_6  and  C_11
    6  A    between atoms: C_10  and  C_17
    7  A    between atoms: C_16  and  C_27
    8  A    between atoms: C_17  and  C_27
                            x       y       z     vdW  Elec       q    Type
                         _______ _______ _______ _____ _____    ______ ____

>  <TORSDO>
F 8

$$$$
=
 OpenBabel10272401493D

 28 30  0  0  1  0  0  0  0  0999 V2000
  188.6260  177.5720  141.9780 C   0  0  1  0  0  3  0  0  0  0  0  0
  191.9190  177.2890  140.3970 C   0  0  0  0  0  3  0  0  0  0  0  0
  189.8520  177.2830  141.1720 C   0  0  0  0  0  0  0  0  0  0  0  0
  191.1860  176.2780  139.6160 N   0  0  0  0  0  0  0  0  0  0  0  0
  190.9820  177.8570  141.3580 N   0  0  0  0  0  0  0  0  0  0  0  0
  189.8930  176.3200  140.1510 N   0  0  0  0  0  2  0  0  0  0  0  0
  187.4340  177.9610  141.1010 C   0  0  1  0  0  3  0  0  0  0  0  0
  186.4130  178.8140  141.8390 C   0  0  0  0  0  1  0  0  0  0  0  0
  187.9020  178.6650  139.9160 N   0  0  0  0  0  2  0  0  0  0  0  0
  187.2800  178.0470  138.7520 C   0  0  1  0  0  3  0  0  0  0  0  0
  186.1060  178.7120  138.4500 F   0  0  0  0  0  0  0  0  0  0  0  0
  188.9810  179.1500  137.3970 C   0  0  0  0  0  2  0  0  0  0  0  0
  188.1990  178.0820  137.5680 C   0  0  0  0  0  0  0  0  0  0  0  0
  188.3250  176.8810  136.6720 C   0  0  1  0  0  3  0  0  0  0  0  0
  186.9680  176.4400  136.1520 C   0  0  0  0  0  1  0  0  0  0  0  0
  189.2100  177.1670  135.5560 N   0  0  0  0  0  1  0  0  0  0  0  0
  188.3110  176.4480  142.9620 C   0  0  0  0  0  2  0  0  0  0  0  0
  190.6960  176.4840  144.6420 C   0  0  0  0  0  3  0  0  0  0  0  0
  189.3620  177.6610  146.4800 C   0  0  2  0  0  3  0  0  0  0  0  0
  188.2900  176.9860  144.3560 C   0  0  0  0  0  0  0  0  0  0  0  0
  191.4510  176.4300  146.9740 C   0  0  0  0  0  0  0  0  0  0  0  0
  189.4010  177.0150  145.1120 C   0  0  0  0  0  0  0  0  0  0  0  0
  186.9160  177.6640  146.2720 C   0  0  0  0  0  3  0  0  0  0  0  0
  190.3510  177.0430  147.4290 C   0  0  0  0  0  3  0  0  0  0  0  0
  187.9830  177.7450  147.0660 C   0  0  0  0  0  3  0  0  0  0  0  0
  192.6130  175.7880  148.1130 Cl  0  0  0  0  0  0  0  0  0  0  0  0
  191.6640  176.2220  145.5250 C   0  0  0  0  0  3  0  0  0  0  0  0
  187.0650  177.3940  144.9030 O   0  0  0  0  0  0  0  0  0  0  0  0
  1 17  1  6  0  0  0
  2  5  1  0  0  0  0
  3  5  2  0  0  0  0
  3  1  1  0  0  0  0
  4  6  1  0  0  0  0
  4  2  2  0  0  0  0
  6  3  1  0  0  0  0
  7  8  1  1  0  0  0
  7  1  1  0  0  0  0
  9  7  1  0  0  0  0
 10 11  1  6  0  0  0
 10  9  1  0  0  0  0
 12 13  2  0  0  0  0
 13 10  1  0  0  0  0
 14 15  1  6  0  0  0
 14 13  1  0  0  0  0
 16 14  1  0  0  0  0
 17 20  1  0  0  0  0
 18 22  1  0  0  0  0
 18 27  2  0  0  0  0
 19 25  1  1  0  0  0
 19 24  1  0  0  0  0
 20 28  1  0  0  0  0
 20 22  2  0  0  0  0
 21 24  2  0  0  0  0
 21 26  1  0  0  0  0
 22 19  1  0  0  0  0
 23 25  2  0  0  0  0
 27 21  1  0  0  0  0
 28 23  1  0  0  0  0
M  END
>  <MODEL>
7

>  <REMARK>
 VINA RESULT:      -7.8      3.475      5.309
  Name = 
  8 active torsions:
  status: ('A' for Active; 'I' for Inactive)
    1  A    between atoms: C_1  and  N_2
    2  A    between atoms: C_1  and  C_27
    3  A    between atoms: N_2  and  C_3
    4  A    between atoms: C_3  and  C_11
    5  A    between atoms: C_6  and  C_11
    6  A    between atoms: C_10  and  C_17
    7  A    between atoms: C_16  and  C_27
    8  A    between atoms: C_17  and  C_27
                            x       y       z     vdW  Elec       q    Type
                         _______ _______ _______ _____ _____    ______ ____

>  <TORSDO>
F 8

$$$$
=
 OpenBabel10272401493D

 28 30  0  0  1  0  0  0  0  0999 V2000
  189.2110  177.4950  139.7450 C   0  0  1  0  0  3  0  0  0  0  0  0
  186.8220  177.9850  137.0120 C   0  0  0  0  0  3  0  0  0  0  0  0
  188.3750  177.9140  138.5790 C   0  0  0  0  0  0  0  0  0  0  0  0
  187.6110  179.2200  136.8690 N   0  0  0  0  0  0  0  0  0  0  0  0
  187.3870  177.2360  138.1270 N   0  0  0  0  0  0  0  0  0  0  0  0
  188.5710  179.1180  137.8840 N   0  0  0  0  0  2  0  0  0  0  0  0
  190.6290  177.0970  139.3290 C   0  0  1  0  0  3  0  0  0  0  0  0
  191.6570  177.3480  140.4240 C   0  0  0  0  0  1  0  0  0  0  0  0
  190.6540  175.6960  138.9390 N   0  0  0  0  0  2  0  0  0  0  0  0
  190.9660  175.6310  137.5170 C   0  0  1  0  0  3  0  0  0  0  0  0
  191.0570  176.9130  137.0080 F   0  0  0  0  0  0  0  0  0  0  0  0
  192.2510  173.8390  136.4760 C   0  0  0  0  0  2  0  0  0  0  0  0
  192.2560  174.9020  137.2820 C   0  0  0  0  0  0  0  0  0  0  0  0
  193.5430  175.4430  137.8400 C   0  0  1  0  0  3  0  0  0  0  0  0
  194.5580  174.3330  138.0520 C   0  0  0  0  0  1  0  0  0  0  0  0
  194.0970  176.4550  136.9560 N   0  0  0  0  0  1  0  0  0  0  0  0
  189.1790  178.5270  140.8710 C   0  0  0  0  0  2  0  0  0  0  0  0
  186.3480  178.7970  141.5210 C   0  0  0  0  0  3  0  0  0  0  0  0
  186.6960  177.3140  143.5760 C   0  0  2  0  0  3  0  0  0  0  0  0
  188.5860  177.9170  142.1000 C   0  0  0  0  0  0  0  0  0  0  0  0
  184.7630  178.8480  143.3920 C   0  0  0  0  0  0  0  0  0  0  0  0
  187.2760  178.0320  142.3770 C   0  0  0  0  0  0  0  0  0  0  0  0
  189.0070  176.9140  144.2990 C   0  0  0  0  0  3  0  0  0  0  0  0
  185.5090  178.0350  144.1500 C   0  0  0  0  0  3  0  0  0  0  0  0
  187.7150  176.9690  144.6210 C   0  0  0  0  0  3  0  0  0  0  0  0
  183.3470  179.6110  144.0790 Cl  0  0  0  0  0  0  0  0  0  0  0  0
  185.1580  179.1680  142.0020 C   0  0  0  0  0  3  0  0  0  0  0  0
  189.4380  177.2800  143.0150 O   0  0  0  0  0  0  0  0  0  0  0  0
  1 17  1  1  0  0  0
  2  5  1  0  0  0  0
  3  1  1  0  0  0  0
  4  2  2  0  0  0  0
  4  6  1  0  0  0  0
  5  3  2  0  0  0  0
  6  3  1  0  0  0  0
  7  1  1  0  0  0  0
  7  8  1  1  0  0  0
  9  7  1  0  0  0  0
 10 11  1  1  0  0  0
 10  9  1  0  0  0  0
 12 13  2  0  0  0  0
 13 10  1  0  0  0  0
 13 14  1  0  0  0  0
 14 15  1  6  0  0  0
 16 14  1  0  0  0  0
 17 20  1  0  0  0  0
 18 27  2  0  0  0  0
 18 22  1  0  0  0  0
 19 24  1  1  0  0  0
 19 25  1  0  0  0  0
 20 22  2  0  0  0  0
 20 28  1  0  0  0  0
 21 26  1  0  0  0  0
 21 24  2  0  0  0  0
 22 19  1  0  0  0  0
 23 25  2  0  0  0  0
 27 21  1  0  0  0  0
 28 23  1  0  0  0  0
M  END
>  <MODEL>
8

>  <REMARK>
 VINA RESULT:      -7.6      3.569      5.608
  Name = 
  8 active torsions:
  status: ('A' for Active; 'I' for Inactive)
    1  A    between atoms: C_1  and  N_2
    2  A    between atoms: C_1  and  C_27
    3  A    between atoms: N_2  and  C_3
    4  A    between atoms: C_3  and  C_11
    5  A    between atoms: C_6  and  C_11
    6  A    between atoms: C_10  and  C_17
    7  A    between atoms: C_16  and  C_27
    8  A    between atoms: C_17  and  C_27
                            x       y       z     vdW  Elec       q    Type
                         _______ _______ _______ _____ _____    ______ ____

>  <TORSDO>
F 8

$$$$
=
 OpenBabel10272401493D

 28 30  0  0  1  0  0  0  0  0999 V2000
  188.2830  177.6650  140.7270 C   0  0  1  0  0  3  0  0  0  0  0  0
  189.0890  178.5810  137.2730 C   0  0  0  0  0  3  0  0  0  0  0  0
  188.5730  177.7830  139.2650 C   0  0  0  0  0  0  0  0  0  0  0  0
  188.9310  177.1260  137.1080 N   0  0  0  0  0  0  0  0  0  0  0  0
  188.8470  178.8870  138.6780 N   0  0  0  0  0  0  0  0  0  0  0  0
  188.6090  176.6810  138.3960 N   0  0  0  0  0  2  0  0  0  0  0  0
  189.4890  177.1550  141.5190 C   0  0  1  0  0  3  0  0  0  0  0  0
  190.7970  177.2900  140.7520 C   0  0  0  0  0  1  0  0  0  0  0  0
  189.5820  177.8640  142.7860 N   0  0  0  0  0  2  0  0  0  0  0  0
  189.1990  176.9400  143.8460 C   0  0  1  0  0  3  0  0  0  0  0  0
  189.3080  175.6410  143.3850 F   0  0  0  0  0  0  0  0  0  0  0  0
  191.3770  176.9030  144.9430 C   0  0  0  0  0  2  0  0  0  0  0  0
  190.0650  177.1200  145.0570 C   0  0  0  0  0  0  0  0  0  0  0  0
  189.4800  177.6630  146.3310 C   0  0  1  0  0  3  0  0  0  0  0  0
  187.9620  177.6640  146.2810 C   0  0  0  0  0  1  0  0  0  0  0  0
  189.9340  176.8870  147.4720 N   0  0  0  0  0  1  0  0  0  0  0  0
  187.6850  178.9490  141.2970 C   0  0  0  0  0  2  0  0  0  0  0  0
  185.2350  178.8380  139.7180 C   0  0  0  0  0  3  0  0  0  0  0  0
  183.9290  178.1930  141.8210 C   0  0  2  0  0  3  0  0  0  0  0  0
  186.3560  178.6590  141.9160 C   0  0  0  0  0  0  0  0  0  0  0  0
  182.8070  179.1650  139.8400 C   0  0  0  0  0  0  0  0  0  0  0  0
  185.2370  178.5900  141.1730 C   0  0  0  0  0  0  0  0  0  0  0  0
  185.0430  178.5190  143.9830 C   0  0  0  0  0  3  0  0  0  0  0  0
  182.7440  178.8050  141.1290 C   0  0  0  0  0  3  0  0  0  0  0  0
  183.9010  178.4130  143.3040 C   0  0  0  0  0  3  0  0  0  0  0  0
  181.3840  179.8060  139.0520 Cl  0  0  0  0  0  0  0  0  0  0  0  0
  184.0820  179.0960  139.0920 C   0  0  0  0  0  3  0  0  0  0  0  0
  186.2740  178.5330  143.3100 O   0  0  0  0  0  0  0  0  0  0  0  0
  1 17  1  1  0  0  0
  1  7  1  0  0  0  0
  2  5  1  0  0  0  0
  3  1  1  0  0  0  0
  4  2  2  0  0  0  0
  4  6  1  0  0  0  0
  5  3  2  0  0  0  0
  6  3  1  0  0  0  0
  7  8  1  6  0  0  0
  7  9  1  0  0  0  0
  9 10  1  0  0  0  0
 10 11  1  6  0  0  0
 10 13  1  0  0  0  0
 12 13  2  0  0  0  0
 13 14  1  0  0  0  0
 14 15  1  6  0  0  0
 14 16  1  0  0  0  0
 17 20  1  0  0  0  0
 18 22  1  0  0  0  0
 19 24  1  6  0  0  0
 19 25  1  0  0  0  0
 20 28  1  0  0  0  0
 21 24  2  0  0  0  0
 22 19  1  0  0  0  0
 22 20  2  0  0  0  0
 25 23  2  0  0  0  0
 26 21  1  0  0  0  0
 27 18  2  0  0  0  0
 27 21  1  0  0  0  0
 28 23  1  0  0  0  0
M  END
>  <MODEL>
9

>  <REMARK>
 VINA RESULT:      -7.5      2.507      5.860
  Name = 
  8 active torsions:
  status: ('A' for Active; 'I' for Inactive)
    1  A    between atoms: C_1  and  N_2
    2  A    between atoms: C_1  and  C_27
    3  A    between atoms: N_2  and  C_3
    4  A    between atoms: C_3  and  C_11
    5  A    between atoms: C_6  and  C_11
    6  A    between atoms: C_10  and  C_17
    7  A    between atoms: C_16  and  C_27
    8  A    between atoms: C_17  and  C_27
                            x       y       z     vdW  Elec       q    Type
                         _______ _______ _______ _____ _____    ______ ____

>  <TORSDO>
F 8

$$$$
