=
 OpenBabel10272413443D

 30 33  0  0  1  0  0  0  0  0999 V2000
  192.6850  174.3390  136.6460 C   0  0  2  0  0  3  0  0  0  0  0  0
  194.8660  175.3490  135.9710 C   0  0  2  0  0  3  0  0  0  0  0  0
  193.1340  172.9900  137.2340 C   0  0  0  0  0  2  0  0  0  0  0  0
  196.2660  172.1010  135.3330 N   0  0  0  0  0  0  0  0  0  0  0  0
  197.1340  174.4410  137.0550 C   0  0  1  0  0  3  0  0  0  0  0  0
  195.3810  172.7950  136.1000 C   0  0  0  0  0  0  0  0  0  0  0  0
  193.8020  170.9780  135.8920 C   0  0  0  0  0  3  0  0  0  0  0  0
  194.1180  172.2470  136.3810 C   0  0  0  0  0  0  0  0  0  0  0  0
  195.7040  174.1920  136.5620 C   0  0  2  0  0  0  0  0  0  0  0  0
  197.5110  175.7790  136.9280 O   0  0  0  0  0  1  0  0  0  0  0  0
  195.9710  170.8650  134.8460 C   0  0  0  0  0  3  0  0  0  0  0  0
  194.7320  170.2800  135.1190 C   0  0  0  0  0  3  0  0  0  0  0  0
  193.5230  174.8760  135.5480 N   0  0  0  0  0  0  0  0  0  0  0  0
  196.0730  173.1230  138.7180 O   0  0  0  0  0  1  0  0  0  0  0  0
  195.9970  174.3510  138.0570 C   0  0  1  0  0  3  0  0  0  0  0  0
  190.9450  175.4920  138.0830 C   0  0  0  0  0  0  0  0  0  0  0  0
  190.5930  176.4190  139.0690 C   0  0  0  0  0  3  0  0  0  0  0  0
  189.6710  174.5360  137.3390 Cl  0  0  0  0  0  0  0  0  0  0  0  0
  193.2720  176.1200  138.3440 C   0  0  0  0  0  3  0  0  0  0  0  0
  193.8680  177.7940  139.9300 F   0  0  0  0  0  0  0  0  0  0  0  0
  192.2950  175.3390  137.7100 C   0  0  0  0  0  0  0  0  0  0  0  0
  191.5740  177.1940  139.6900 C   0  0  0  0  0  3  0  0  0  0  0  0
  192.9150  177.0440  139.3280 C   0  0  0  0  0  0  0  0  0  0  0  0
  192.7730  175.9480  134.8910 C   0  0  0  0  0  2  0  0  0  0  0  0
  190.4810  176.1050  134.3660 O   0  0  0  0  0  0  0  0  0  0  0  0
  191.4890  175.4170  134.3460 C   0  0  0  0  0  3  0  0  0  0  0  0
  195.6330  175.9150  134.7670 C   0  0  0  0  0  2  0  0  0  0  0  0
  195.1150  178.0530  135.8480 O   0  0  0  0  0  0  0  0  0  0  0  0
  195.8410  177.3460  134.9180 N   0  0  0  0  0  0  0  0  0  0  0  0
  196.8060  177.8900  134.3460 O   0  0  0  0  0  0  0  0  0  0  0  0
  1  3  1  0  0  0  0
  1 21  1  1  0  0  0
  2 27  1  6  0  0  0
  2  9  1  0  0  0  0
  4  6  1  0  0  0  0
  5 10  1  6  0  0  0
  5 15  1  0  0  0  0
  6  8  2  0  0  0  0
  7  8  1  0  0  0  0
  8  3  1  0  0  0  0
  9  6  1  6  0  0  0
  9  5  1  0  0  0  0
  9 15  1  0  0  0  0
 11 12  1  0  0  0  0
 11  4  2  0  0  0  0
 12  7  2  0  0  0  0
 13  2  1  0  0  0  0
 13  1  1  0  0  0  0
 15 14  1  1  0  0  0
 16 17  1  0  0  0  0
 17 22  2  0  0  0  0
 18 16  1  0  0  0  0
 19 23  2  0  0  0  0
 21 16  2  0  0  0  0
 21 19  1  0  0  0  0
 23 22  1  0  0  0  0
 23 20  1  0  0  0  0
 24 13  1  0  0  0  0
 26 25  2  0  0  0  0
 26 24  1  0  0  0  0
 27 29  1  0  0  0  0
 29 28  2  0  0  0  0
 30 29  2  0  0  0  0
M  END
>  <MODEL>
1

>  <REMARK>
 VINA RESULT:      -4.2      0.000      0.000
  Name = 
  5 active torsions:
  status: ('A' for Active; 'I' for Inactive)
    1  A    between atoms: C_1  and  C_22
    2  A    between atoms: C_4  and  C_25
    3  A    between atoms: C_10  and  N_23
    4  A    between atoms: C_10  and  C_26
    5  A    between atoms: N_11  and  C_25
                            x       y       z     vdW  Elec       q    Type
                         _______ _______ _______ _____ _____    ______ ____

>  <TORSDO>
F 5

$$$$
=
 OpenBabel10272413443D

 30 33  0  0  1  0  0  0  0  0999 V2000
  183.8380  177.6450  137.9460 C   0  0  2  0  0  3  0  0  0  0  0  0
  184.1030  175.3880  136.9110 C   0  0  2  0  0  3  0  0  0  0  0  0
  185.1220  178.3540  137.4810 C   0  0  0  0  0  2  0  0  0  0  0  0
  187.6820  175.6060  137.1530 N   0  0  0  0  0  0  0  0  0  0  0  0
  185.7790  175.0670  134.8550 C   0  0  1  0  0  3  0  0  0  0  0  0
  186.5370  176.3230  136.9860 C   0  0  0  0  0  0  0  0  0  0  0  0
  187.4010  178.0180  138.4740 C   0  0  0  0  0  3  0  0  0  0  0  0
  186.3700  177.5440  137.6620 C   0  0  0  0  0  0  0  0  0  0  0  0
  185.4030  175.7680  136.1640 C   0  0  2  0  0  0  0  0  0  0  0  0
  184.8180  174.1350  134.4590 O   0  0  0  0  0  1  0  0  0  0  0  0
  188.6940  176.0540  137.9440 C   0  0  0  0  0  3  0  0  0  0  0  0
  188.5720  177.2710  138.6190 C   0  0  0  0  0  3  0  0  0  0  0  0
  183.9490  176.1820  138.1570 N   0  0  0  0  0  0  0  0  0  0  0  0
  186.1470  177.3840  134.5030 O   0  0  0  0  0  1  0  0  0  0  0  0
  185.1560  176.4510  134.8160 C   0  0  1  0  0  3  0  0  0  0  0  0
  181.9400  179.2770  137.5600 C   0  0  0  0  0  0  0  0  0  0  0  0
  180.8060  179.6890  136.8520 C   0  0  0  0  0  3  0  0  0  0  0  0
  182.4910  180.2640  138.9060 Cl  0  0  0  0  0  0  0  0  0  0  0  0
  182.1350  177.3540  136.0980 C   0  0  0  0  0  3  0  0  0  0  0  0
  180.5530  177.0400  134.3470 F   0  0  0  0  0  0  0  0  0  0  0  0
  182.6130  178.0970  137.1870 C   0  0  0  0  0  0  0  0  0  0  0  0
  180.3380  178.9380  135.7720 C   0  0  0  0  0  3  0  0  0  0  0  0
  181.0040  177.7690  135.3940 C   0  0  0  0  0  0  0  0  0  0  0  0
  182.7750  175.7450  138.9150 C   0  0  0  0  0  2  0  0  0  0  0  0
  181.4370  177.0510  140.3480 O   0  0  0  0  0  0  0  0  0  0  0  0
  182.5570  176.6440  140.0860 C   0  0  0  0  0  3  0  0  0  0  0  0
  184.1730  173.8900  137.2400 C   0  0  0  0  0  2  0  0  0  0  0  0
  182.0210  173.8560  136.0670 O   0  0  0  0  0  0  0  0  0  0  0  0
  182.9250  173.2300  136.8930 N   0  0  0  0  0  0  0  0  0  0  0  0
  182.7640  172.0280  137.1840 O   0  0  0  0  0  0  0  0  0  0  0  0
  1 21  1  6  0  0  0
  1 13  1  0  0  0  0
  2 27  1  1  0  0  0
  2 13  1  0  0  0  0
  3  8  1  0  0  0  0
  3  1  1  0  0  0  0
  4 11  1  0  0  0  0
  5 10  1  6  0  0  0
  5  9  1  0  0  0  0
  6  4  2  0  0  0  0
  6  8  1  0  0  0  0
  7 12  1  0  0  0  0
  8  7  2  0  0  0  0
  9  2  1  0  0  0  0
  9  6  1  1  0  0  0
 11 12  2  0  0  0  0
 13 24  1  0  0  0  0
 15 14  1  1  0  0  0
 15  5  1  0  0  0  0
 15  9  1  0  0  0  0
 16 18  1  0  0  0  0
 17 16  2  0  0  0  0
 19 21  2  0  0  0  0
 20 23  1  0  0  0  0
 21 16  1  0  0  0  0
 22 17  1  0  0  0  0
 23 22  2  0  0  0  0
 23 19  1  0  0  0  0
 24 26  1  0  0  0  0
 26 25  2  0  0  0  0
 28 29  2  0  0  0  0
 29 30  2  0  0  0  0
 29 27  1  0  0  0  0
M  END
>  <MODEL>
2

>  <REMARK>
 VINA RESULT:      -3.7      8.060     11.227
  Name = 
  5 active torsions:
  status: ('A' for Active; 'I' for Inactive)
    1  A    between atoms: C_1  and  C_22
    2  A    between atoms: C_4  and  C_25
    3  A    between atoms: C_10  and  N_23
    4  A    between atoms: C_10  and  C_26
    5  A    between atoms: N_11  and  C_25
                            x       y       z     vdW  Elec       q    Type
                         _______ _______ _______ _____ _____    ______ ____

>  <TORSDO>
F 5

$$$$
=
 OpenBabel10272413443D

 30 33  0  0  1  0  0  0  0  0999 V2000
  183.9410  179.0340  139.5590 C   0  0  2  0  0  3  0  0  0  0  0  0
  182.7880  176.8540  139.1660 C   0  0  2  0  0  3  0  0  0  0  0  0
  182.7580  180.0170  139.5610 C   0  0  0  0  0  2  0  0  0  0  0  0
  180.2100  178.4680  137.2530 N   0  0  0  0  0  0  0  0  0  0  0  0
  180.1730  176.6340  139.6670 C   0  0  1  0  0  3  0  0  0  0  0  0
  181.0850  178.6220  138.2850 C   0  0  0  0  0  0  0  0  0  0  0  0
  181.5740  180.8590  137.5150 C   0  0  0  0  0  3  0  0  0  0  0  0
  181.7990  179.8240  138.4240 C   0  0  0  0  0  0  0  0  0  0  0  0
  181.3730  177.4740  139.2170 C   0  0  2  0  0  0  0  0  0  0  0  0
  180.5420  175.3380  140.0290 O   0  0  0  0  0  1  0  0  0  0  0  0
  179.9830  179.4670  136.3570 C   0  0  0  0  0  3  0  0  0  0  0  0
  180.6610  180.6830  136.4730 C   0  0  0  0  0  3  0  0  0  0  0  0
  183.7900  177.8420  138.6910 N   0  0  0  0  0  0  0  0  0  0  0  0
  179.9820  178.7220  140.7780 O   0  0  0  0  0  1  0  0  0  0  0  0
  180.8150  177.6090  140.6370 C   0  0  1  0  0  3  0  0  0  0  0  0
  185.8580  178.6090  141.1610 C   0  0  0  0  0  0  0  0  0  0  0  0
  186.3430  178.3550  142.4470 C   0  0  0  0  0  3  0  0  0  0  0  0
  187.0120  178.7360  139.8410 Cl  0  0  0  0  0  0  0  0  0  0  0  0
  183.5990  178.6580  142.0380 C   0  0  0  0  0  3  0  0  0  0  0  0
  183.2320  178.3070  144.3640 F   0  0  0  0  0  0  0  0  0  0  0  0
  184.4740  178.7590  140.9460 C   0  0  0  0  0  0  0  0  0  0  0  0
  185.4610  178.2520  143.5250 C   0  0  0  0  0  3  0  0  0  0  0  0
  184.0880  178.4040  143.3200 C   0  0  0  0  0  0  0  0  0  0  0  0
  185.1080  177.2230  138.5410 C   0  0  0  0  0  2  0  0  0  0  0  0
  186.4090  176.7970  136.6230 O   0  0  0  0  0  0  0  0  0  0  0  0
  185.7010  177.5910  137.2220 C   0  0  0  0  0  3  0  0  0  0  0  0
  182.7380  175.6500  138.2160 C   0  0  0  0  0  2  0  0  0  0  0  0
  182.8380  176.7900  136.0480 O   0  0  0  0  0  0  0  0  0  0  0  0
  182.1340  176.0220  136.9470 N   0  0  0  0  0  0  0  0  0  0  0  0
  181.0640  175.4870  136.5960 O   0  0  0  0  0  0  0  0  0  0  0  0
  1  3  1  0  0  0  0
  1 21  1  1  0  0  0
  2 27  1  6  0  0  0
  2  9  1  0  0  0  0
  4  6  1  0  0  0  0
  5 10  1  1  0  0  0
  5 15  1  0  0  0  0
  6  8  2  0  0  0  0
  7  8  1  0  0  0  0
  8  3  1  0  0  0  0
  9  6  1  6  0  0  0
  9  5  1  0  0  0  0
  9 15  1  0  0  0  0
 11 12  1  0  0  0  0
 11  4  2  0  0  0  0
 12  7  2  0  0  0  0
 13  2  1  0  0  0  0
 13  1  1  0  0  0  0
 15 14  1  6  0  0  0
 16 17  1  0  0  0  0
 17 22  2  0  0  0  0
 18 16  1  0  0  0  0
 19 23  2  0  0  0  0
 21 16  2  0  0  0  0
 21 19  1  0  0  0  0
 23 22  1  0  0  0  0
 23 20  1  0  0  0  0
 24 13  1  0  0  0  0
 25 26  2  0  0  0  0
 26 24  1  0  0  0  0
 28 29  2  0  0  0  0
 29 27  1  0  0  0  0
 30 29  2  0  0  0  0
M  END
>  <MODEL>
3

>  <REMARK>
 VINA RESULT:      -3.5      9.631     12.994
  Name = 
  5 active torsions:
  status: ('A' for Active; 'I' for Inactive)
    1  A    between atoms: C_1  and  C_22
    2  A    between atoms: C_4  and  C_25
    3  A    between atoms: C_10  and  N_23
    4  A    between atoms: C_10  and  C_26
    5  A    between atoms: N_11  and  C_25
                            x       y       z     vdW  Elec       q    Type
                         _______ _______ _______ _____ _____    ______ ____

>  <TORSDO>
F 5

$$$$
=
 OpenBabel10272413443D

 30 33  0  0  1  0  0  0  0  0999 V2000
  184.9200  179.1630  139.3760 C   0  0  2  0  0  3  0  0  0  0  0  0
  184.9250  177.0120  138.1060 C   0  0  2  0  0  3  0  0  0  0  0  0
  183.4130  179.4070  139.5700 C   0  0  0  0  0  2  0  0  0  0  0  0
  181.7810  177.8200  136.5640 N   0  0  0  0  0  0  0  0  0  0  0  0
  182.7650  175.4400  138.1640 C   0  0  1  0  0  3  0  0  0  0  0  0
  182.5370  177.9720  137.6870 C   0  0  0  0  0  0  0  0  0  0  0  0
  181.8530  180.2870  137.8120 C   0  0  0  0  0  3  0  0  0  0  0  0
  182.5980  179.2230  138.3250 C   0  0  0  0  0  0  0  0  0  0  0  0
  183.3910  176.8380  138.1900 C   0  0  2  0  0  0  0  0  0  0  0  0
  183.7280  174.4310  138.0960 O   0  0  0  0  0  1  0  0  0  0  0  0
  181.0530  178.8490  136.0510 C   0  0  0  0  0  3  0  0  0  0  0  0
  181.0750  180.1020  136.6680 C   0  0  0  0  0  3  0  0  0  0  0  0
  185.3040  178.4480  138.1350 N   0  0  0  0  0  0  0  0  0  0  0  0
  181.6690  176.6310  139.8980 O   0  0  0  0  0  1  0  0  0  0  0  0
  182.9210  176.1700  139.4850 C   0  0  1  0  0  3  0  0  0  0  0  0
  184.8570  178.4860  141.8170 C   0  0  0  0  0  0  0  0  0  0  0  0
  185.4940  178.0390  142.9780 C   0  0  0  0  0  3  0  0  0  0  0  0
  183.1270  178.7880  141.8740 Cl  0  0  0  0  0  0  0  0  0  0  0  0
  186.9770  178.4130  140.6440 C   0  0  0  0  0  3  0  0  0  0  0  0
  188.9390  177.7160  141.8000 F   0  0  0  0  0  0  0  0  0  0  0  0
  185.6010  178.6800  140.6360 C   0  0  0  0  0  0  0  0  0  0  0  0
  186.8670  177.7800  142.9740 C   0  0  0  0  0  3  0  0  0  0  0  0
  187.6090  177.9670  141.8060 C   0  0  0  0  0  0  0  0  0  0  0  0
  186.7470  178.6130  137.9470 C   0  0  0  0  0  2  0  0  0  0  0  0
  187.9950  178.4480  135.9560 O   0  0  0  0  0  0  0  0  0  0  0  0
  187.0430  178.9570  136.5260 C   0  0  0  0  0  3  0  0  0  0  0  0
  185.3990  176.3640  136.7980 C   0  0  0  0  0  2  0  0  0  0  0  0
  186.3590  174.1400  136.4190 O   0  0  0  0  0  0  0  0  0  0  0  0
  186.4110  175.3540  137.0630 N   0  0  0  0  0  0  0  0  0  0  0  0
  187.4260  175.6590  137.7210 O   0  0  0  0  0  0  0  0  0  0  0  0
  1  3  1  0  0  0  0
  1 21  1  1  0  0  0
  2 27  1  6  0  0  0
  2 13  1  0  0  0  0
  2  9  1  0  0  0  0
  4  6  1  0  0  0  0
  5 10  1  1  0  0  0
  5  9  1  0  0  0  0
  5 15  1  0  0  0  0
  6  8  2  0  0  0  0
  7  8  1  0  0  0  0
  8  3  1  0  0  0  0
  9  6  1  6  0  0  0
  9 15  1  0  0  0  0
 11  4  2  0  0  0  0
 11 12  1  0  0  0  0
 12  7  2  0  0  0  0
 13  1  1  0  0  0  0
 15 14  1  6  0  0  0
 16 18  1  0  0  0  0
 16 17  1  0  0  0  0
 19 23  2  0  0  0  0
 20 23  1  0  0  0  0
 21 19  1  0  0  0  0
 21 16  2  0  0  0  0
 22 17  2  0  0  0  0
 23 22  1  0  0  0  0
 24 13  1  0  0  0  0
 25 26  2  0  0  0  0
 26 24  1  0  0  0  0
 27 29  1  0  0  0  0
 28 29  2  0  0  0  0
 29 30  2  0  0  0  0
M  END
>  <MODEL>
4

>  <REMARK>
 VINA RESULT:      -3.4      8.459     11.134
  Name = 
  5 active torsions:
  status: ('A' for Active; 'I' for Inactive)
    1  A    between atoms: C_1  and  C_22
    2  A    between atoms: C_4  and  C_25
    3  A    between atoms: C_10  and  N_23
    4  A    between atoms: C_10  and  C_26
    5  A    between atoms: N_11  and  C_25
                            x       y       z     vdW  Elec       q    Type
                         _______ _______ _______ _____ _____    ______ ____

>  <TORSDO>
F 5

$$$$
=
 OpenBabel10272413443D

 30 33  0  0  1  0  0  0  0  0999 V2000
  183.3640  176.8610  136.6320 C   0  0  2  0  0  3  0  0  0  0  0  0
  183.0930  176.7350  139.1110 C   0  0  2  0  0  3  0  0  0  0  0  0
  183.2450  178.3740  136.3810 C   0  0  0  0  0  2  0  0  0  0  0  0
  180.9630  179.6300  139.1070 N   0  0  0  0  0  0  0  0  0  0  0  0
  183.5060  178.9180  140.5970 C   0  0  1  0  0  3  0  0  0  0  0  0
  182.0140  179.0260  138.4860 C   0  0  0  0  0  0  0  0  0  0  0  0
  181.0960  179.6690  136.3460 C   0  0  0  0  0  3  0  0  0  0  0  0
  182.0890  179.0220  137.0830 C   0  0  0  0  0  0  0  0  0  0  0  0
  183.0410  178.2710  139.2880 C   0  0  2  0  0  0  0  0  0  0  0  0
  183.9800  177.9770  141.5120 O   0  0  0  0  0  1  0  0  0  0  0  0
  179.9860  180.2620  138.4020 C   0  0  0  0  0  3  0  0  0  0  0  0
  180.0360  180.2930  137.0060 C   0  0  0  0  0  3  0  0  0  0  0  0
  182.5830  176.3320  137.7760 N   0  0  0  0  0  0  0  0  0  0  0  0
  184.4470  180.2070  138.8410 O   0  0  0  0  0  1  0  0  0  0  0  0
  184.4240  178.9220  139.3870 C   0  0  1  0  0  3  0  0  0  0  0  0
  185.1450  175.4090  135.5640 C   0  0  0  0  0  0  0  0  0  0  0  0
  186.4650  174.9550  135.4820 C   0  0  0  0  0  3  0  0  0  0  0  0
  183.9660  174.7660  134.4300 Cl  0  0  0  0  0  0  0  0  0  0  0  0
  185.7720  176.8500  137.4090 C   0  0  0  0  0  3  0  0  0  0  0  0
  188.0270  176.8700  138.1740 F   0  0  0  0  0  0  0  0  0  0  0  0
  184.7880  176.3630  136.5370 C   0  0  0  0  0  0  0  0  0  0  0  0
  187.4350  175.4450  136.3590 C   0  0  0  0  0  3  0  0  0  0  0  0
  187.0880  176.3940  137.3240 C   0  0  0  0  0  0  0  0  0  0  0  0
  182.5330  174.8740  137.6520 C   0  0  0  0  0  2  0  0  0  0  0  0
  180.5600  173.6210  137.3590 O   0  0  0  0  0  0  0  0  0  0  0  0
  181.3110  174.4650  136.8990 C   0  0  0  0  0  3  0  0  0  0  0  0
  182.2360  176.1070  140.2190 C   0  0  0  0  0  2  0  0  0  0  0  0
  180.0010  176.3110  139.2330 O   0  0  0  0  0  0  0  0  0  0  0  0
  180.8960  176.6710  140.2130 N   0  0  0  0  0  0  0  0  0  0  0  0
  180.5010  177.3250  141.1990 O   0  0  0  0  0  0  0  0  0  0  0  0
  1 21  1  1  0  0  0
  1 13  1  0  0  0  0
  2  9  1  0  0  0  0
  2 27  1  1  0  0  0
  3  1  1  0  0  0  0
  3  8  1  0  0  0  0
  5 10  1  1  0  0  0
  6  4  1  0  0  0  0
  7 12  2  0  0  0  0
  7  8  1  0  0  0  0
  8  6  2  0  0  0  0
  9  6  1  6  0  0  0
  9 15  1  0  0  0  0
  9  5  1  0  0  0  0
 11  4  2  0  0  0  0
 12 11  1  0  0  0  0
 13  2  1  0  0  0  0
 15 14  1  6  0  0  0
 15  5  1  0  0  0  0
 16 21  1  0  0  0  0
 17 16  2  0  0  0  0
 17 22  1  0  0  0  0
 18 16  1  0  0  0  0
 21 19  2  0  0  0  0
 22 23  2  0  0  0  0
 23 19  1  0  0  0  0
 23 20  1  0  0  0  0
 24 13  1  0  0  0  0
 26 25  2  0  0  0  0
 26 24  1  0  0  0  0
 28 29  2  0  0  0  0
 29 27  1  0  0  0  0
 29 30  2  0  0  0  0
M  END
>  <MODEL>
5

>  <REMARK>
 VINA RESULT:      -3.2      8.984     12.619
  Name = 
  5 active torsions:
  status: ('A' for Active; 'I' for Inactive)
    1  A    between atoms: C_1  and  C_22
    2  A    between atoms: C_4  and  C_25
    3  A    between atoms: C_10  and  N_23
    4  A    between atoms: C_10  and  C_26
    5  A    between atoms: N_11  and  C_25
                            x       y       z     vdW  Elec       q    Type
                         _______ _______ _______ _____ _____    ______ ____

>  <TORSDO>
F 5

$$$$
=
 OpenBabel10272413443D

 30 33  0  0  1  0  0  0  0  0999 V2000
  184.6700  176.5030  137.0890 C   0  0  2  0  0  3  0  0  0  0  0  0
  182.5080  175.9910  135.9500 C   0  0  2  0  0  3  0  0  0  0  0  0
  184.1870  177.0510  138.4430 C   0  0  0  0  0  2  0  0  0  0  0  0
  180.8560  178.6560  137.7050 N   0  0  0  0  0  0  0  0  0  0  0  0
  180.2870  175.6930  137.4050 C   0  0  1  0  0  3  0  0  0  0  0  0
  181.8450  177.7230  137.7830 C   0  0  0  0  0  0  0  0  0  0  0  0
  183.2820  179.3590  138.8300 C   0  0  0  0  0  3  0  0  0  0  0  0
  183.0900  178.0670  138.3370 C   0  0  0  0  0  0  0  0  0  0  0  0
  181.6510  176.3550  137.1840 C   0  0  2  0  0  0  0  0  0  0  0  0
  179.9860  174.7580  136.4130 O   0  0  0  0  0  1  0  0  0  0  0  0
  181.0300  179.9200  138.1790 C   0  0  0  0  0  3  0  0  0  0  0  0
  182.2480  180.2940  138.7520 C   0  0  0  0  0  3  0  0  0  0  0  0
  183.7780  176.7600  135.9330 N   0  0  0  0  0  0  0  0  0  0  0  0
  181.3970  175.6520  139.5010 O   0  0  0  0  0  1  0  0  0  0  0  0
  181.4950  175.2040  138.1820 C   0  0  1  0  0  3  0  0  0  0  0  0
  186.6000  174.8670  137.2210 C   0  0  0  0  0  0  0  0  0  0  0  0
  187.0920  173.5620  137.3130 C   0  0  0  0  0  3  0  0  0  0  0  0
  187.7520  176.1940  137.1550 Cl  0  0  0  0  0  0  0  0  0  0  0  0
  184.3370  174.0010  137.2540 C   0  0  0  0  0  3  0  0  0  0  0  0
  183.9780  171.6520  137.4070 F   0  0  0  0  0  0  0  0  0  0  0  0
  185.2100  175.0960  137.1870 C   0  0  0  0  0  0  0  0  0  0  0  0
  186.2120  172.4790  137.3750 C   0  0  0  0  0  3  0  0  0  0  0  0
  184.8330  172.6990  137.3460 C   0  0  0  0  0  0  0  0  0  0  0  0
  184.5370  176.4930  134.7090 C   0  0  0  0  0  2  0  0  0  0  0  0
  186.5700  177.6800  134.6130 O   0  0  0  0  0  0  0  0  0  0  0  0
  185.3760  177.6760  134.3580 C   0  0  0  0  0  3  0  0  0  0  0  0
  181.6800  176.3050  134.6960 C   0  0  0  0  0  2  0  0  0  0  0  0
  182.0760  178.7130  134.4640 O   0  0  0  0  0  0  0  0  0  0  0  0
  181.2070  177.6790  134.7240 N   0  0  0  0  0  0  0  0  0  0  0  0
  179.9830  177.9060  134.7920 O   0  0  0  0  0  0  0  0  0  0  0  0
  1 21  1  1  0  0  0
  1  3  1  0  0  0  0
  2 27  1  6  0  0  0
  2  9  1  0  0  0  0
  4  6  2  0  0  0  0
  4 11  1  0  0  0  0
  5 10  1  6  0  0  0
  5 15  1  0  0  0  0
  6  8  1  0  0  0  0
  8  3  1  0  0  0  0
  8  7  2  0  0  0  0
  9  5  1  0  0  0  0
  9  6  1  1  0  0  0
  9 15  1  0  0  0  0
 11 12  2  0  0  0  0
 12  7  1  0  0  0  0
 13  2  1  0  0  0  0
 13  1  1  0  0  0  0
 15 14  1  1  0  0  0
 16 17  1  0  0  0  0
 17 22  2  0  0  0  0
 18 16  1  0  0  0  0
 19 23  2  0  0  0  0
 21 16  2  0  0  0  0
 21 19  1  0  0  0  0
 23 22  1  0  0  0  0
 23 20  1  0  0  0  0
 24 13  1  0  0  0  0
 26 25  2  0  0  0  0
 26 24  1  0  0  0  0
 27 29  1  0  0  0  0
 28 29  2  0  0  0  0
 29 30  2  0  0  0  0
M  END
>  <MODEL>
6

>  <REMARK>
 VINA RESULT:      -3.2      8.626     12.309
  Name = 
  5 active torsions:
  status: ('A' for Active; 'I' for Inactive)
    1  A    between atoms: C_1  and  C_22
    2  A    between atoms: C_4  and  C_25
    3  A    between atoms: C_10  and  N_23
    4  A    between atoms: C_10  and  C_26
    5  A    between atoms: N_11  and  C_25
                            x       y       z     vdW  Elec       q    Type
                         _______ _______ _______ _____ _____    ______ ____

>  <TORSDO>
F 5

$$$$
=
 OpenBabel10272413443D

 30 33  0  0  1  0  0  0  0  0999 V2000
  183.7920  177.6690  137.0020 C   0  0  2  0  0  3  0  0  0  0  0  0
  181.7960  176.3260  137.6690 C   0  0  2  0  0  3  0  0  0  0  0  0
  183.9030  178.6660  138.1700 C   0  0  0  0  0  2  0  0  0  0  0  0
  180.3600  179.1500  139.3670 N   0  0  0  0  0  0  0  0  0  0  0  0
  181.0060  176.3130  140.2220 C   0  0  1  0  0  3  0  0  0  0  0  0
  181.5280  178.5420  139.0180 C   0  0  0  0  0  0  0  0  0  0  0  0
  182.4680  180.7010  138.4750 C   0  0  0  0  0  3  0  0  0  0  0  0
  182.6040  179.3140  138.5470 C   0  0  0  0  0  0  0  0  0  0  0  0
  181.6400  177.0400  139.0320 C   0  0  2  0  0  0  0  0  0  0  0  0
  180.6550  174.9980  139.9120 O   0  0  0  0  0  1  0  0  0  0  0  0
  180.2120  180.5010  139.2990 C   0  0  0  0  0  3  0  0  0  0  0  0
  181.2650  181.3020  138.8520 C   0  0  0  0  0  3  0  0  0  0  0  0
  182.4200  177.2220  136.6630 N   0  0  0  0  0  0  0  0  0  0  0  0
  182.9380  177.4070  141.0590 O   0  0  0  0  0  1  0  0  0  0  0  0
  182.5150  176.4450  140.1380 C   0  0  1  0  0  3  0  0  0  0  0  0
  186.1980  176.8800  136.9160 C   0  0  0  0  0  0  0  0  0  0  0  0
  187.1530  175.8600  136.9780 C   0  0  0  0  0  3  0  0  0  0  0  0
  186.7480  178.5280  136.6490 Cl  0  0  0  0  0  0  0  0  0  0  0  0
  184.4490  175.2430  137.2890 C   0  0  0  0  0  3  0  0  0  0  0  0
  185.0230  172.9480  137.5630 F   0  0  0  0  0  0  0  0  0  0  0  0
  184.8310  176.5740  137.0680 C   0  0  0  0  0  0  0  0  0  0  0  0
  186.7600  174.5380  137.1950 C   0  0  0  0  0  3  0  0  0  0  0  0
  185.4060  174.2290  137.3510 C   0  0  0  0  0  0  0  0  0  0  0  0
  182.4680  176.5800  135.3470 C   0  0  0  0  0  2  0  0  0  0  0  0
  181.3920  178.5470  134.6220 O   0  0  0  0  0  0  0  0  0  0  0  0
  181.7330  177.4080  134.3460 C   0  0  0  0  0  3  0  0  0  0  0  0
  180.3980  175.8960  137.2030 C   0  0  0  0  0  2  0  0  0  0  0  0
  180.0710  174.3280  135.3480 O   0  0  0  0  0  0  0  0  0  0  0  0
  180.4300  174.5500  136.6570 N   0  0  0  0  0  0  0  0  0  0  0  0
  180.9640  173.6340  137.3120 O   0  0  0  0  0  0  0  0  0  0  0  0
  1 21  1  1  0  0  0
  1  3  1  0  0  0  0
  2 27  1  6  0  0  0
  2  9  1  0  0  0  0
  3  8  1  0  0  0  0
  5 10  1  6  0  0  0
  6  4  2  0  0  0  0
  7  8  2  0  0  0  0
  7 12  1  0  0  0  0
  8  6  1  0  0  0  0
  9  6  1  6  0  0  0
  9 15  1  0  0  0  0
  9  5  1  0  0  0  0
 11  4  1  0  0  0  0
 12 11  2  0  0  0  0
 13  1  1  0  0  0  0
 13  2  1  0  0  0  0
 15  5  1  0  0  0  0
 15 14  1  1  0  0  0
 16 17  2  0  0  0  0
 16 21  1  0  0  0  0
 17 22  1  0  0  0  0
 18 16  1  0  0  0  0
 19 23  1  0  0  0  0
 21 19  2  0  0  0  0
 22 23  2  0  0  0  0
 23 20  1  0  0  0  0
 24 13  1  0  0  0  0
 26 25  2  0  0  0  0
 26 24  1  0  0  0  0
 28 29  2  0  0  0  0
 29 27  1  0  0  0  0
 29 30  2  0  0  0  0
M  END
>  <MODEL>
7

>  <REMARK>
 VINA RESULT:      -3.1      9.469     12.965
  Name = 
  5 active torsions:
  status: ('A' for Active; 'I' for Inactive)
    1  A    between atoms: C_1  and  C_22
    2  A    between atoms: C_4  and  C_25
    3  A    between atoms: C_10  and  N_23
    4  A    between atoms: C_10  and  C_26
    5  A    between atoms: N_11  and  C_25
                            x       y       z     vdW  Elec       q    Type
                         _______ _______ _______ _____ _____    ______ ____

>  <TORSDO>
F 5

$$$$
=
 OpenBabel10272413443D

 30 33  0  0  1  0  0  0  0  0999 V2000
  189.0350  176.0980  138.7580 C   0  0  2  0  0  3  0  0  0  0  0  0
  188.9030  177.7170  136.8610 C   0  0  2  0  0  3  0  0  0  0  0  0
  189.1070  174.7520  138.0160 C   0  0  0  0  0  2  0  0  0  0  0  0
  187.1910  175.3080  134.8170 N   0  0  0  0  0  0  0  0  0  0  0  0
  189.7000  176.9640  134.4250 C   0  0  1  0  0  3  0  0  0  0  0  0
  188.1090  175.4660  135.8100 C   0  0  0  0  0  0  0  0  0  0  0  0
  187.1570  173.5720  136.9690 C   0  0  0  0  0  3  0  0  0  0  0  0
  188.0970  174.6030  136.9190 C   0  0  0  0  0  0  0  0  0  0  0  0
  189.0720  176.6240  135.7800 C   0  0  2  0  0  0  0  0  0  0  0  0
  190.0970  178.2990  134.3460 O   0  0  0  0  0  1  0  0  0  0  0  0
  186.2670  174.3090  134.8530 C   0  0  0  0  0  3  0  0  0  0  0  0
  186.2350  173.4210  135.9310 C   0  0  0  0  0  3  0  0  0  0  0  0
  188.2620  177.1680  138.0830 N   0  0  0  0  0  0  0  0  0  0  0  0
  190.6980  174.9310  135.1350 O   0  0  0  0  0  1  0  0  0  0  0  0
  190.5330  176.2720  135.4890 C   0  0  1  0  0  3  0  0  0  0  0  0
  190.4790  176.9090  140.6760 C   0  0  0  0  0  0  0  0  0  0  0  0
  191.7180  177.3030  141.1930 C   0  0  0  0  0  3  0  0  0  0  0  0
  189.0870  176.9050  141.7490 Cl  0  0  0  0  0  0  0  0  0  0  0  0
  191.5150  176.5370  138.5160 C   0  0  0  0  0  3  0  0  0  0  0  0
  193.8460  176.9400  138.2440 F   0  0  0  0  0  0  0  0  0  0  0  0
  190.3690  176.5250  139.3250 C   0  0  0  0  0  0  0  0  0  0  0  0
  192.8500  177.3140  140.3760 C   0  0  0  0  0  3  0  0  0  0  0  0
  192.7490  176.9310  139.0360 C   0  0  0  0  0  0  0  0  0  0  0  0
  188.0060  178.2260  139.0620 C   0  0  0  0  0  2  0  0  0  0  0  0
  185.8320  178.9600  139.5980 O   0  0  0  0  0  0  0  0  0  0  0  0
  186.6490  178.0550  139.6590 C   0  0  0  0  0  3  0  0  0  0  0  0
  188.0380  178.8360  136.2650 C   0  0  0  0  0  2  0  0  0  0  0  0
  185.8180  177.8150  136.4510 O   0  0  0  0  0  0  0  0  0  0  0  0
  186.8370  178.2880  135.6570 N   0  0  0  0  0  0  0  0  0  0  0  0
  186.6510  178.4250  134.4320 O   0  0  0  0  0  0  0  0  0  0  0  0
  1 21  1  6  0  0  0
  2 27  1  6  0  0  0
  2 13  1  0  0  0  0
  3  1  1  0  0  0  0
  4 11  2  0  0  0  0
  4  6  1  0  0  0  0
  5 10  1  1  0  0  0
  5 15  1  0  0  0  0
  5  9  1  0  0  0  0
  6  8  2  0  0  0  0
  8  7  1  0  0  0  0
  8  3  1  0  0  0  0
  9  6  1  1  0  0  0
  9  2  1  0  0  0  0
 11 12  1  0  0  0  0
 12  7  2  0  0  0  0
 13  1  1  0  0  0  0
 13 24  1  0  0  0  0
 15 14  1  6  0  0  0
 15  9  1  0  0  0  0
 16 17  1  0  0  0  0
 16 18  1  0  0  0  0
 19 23  2  0  0  0  0
 19 21  1  0  0  0  0
 20 23  1  0  0  0  0
 21 16  2  0  0  0  0
 22 17  2  0  0  0  0
 23 22  1  0  0  0  0
 24 26  1  0  0  0  0
 25 26  2  0  0  0  0
 29 27  1  0  0  0  0
 29 28  2  0  0  0  0
 30 29  2  0  0  0  0
M  END
>  <MODEL>
8

>  <REMARK>
 VINA RESULT:      -2.9      5.062      6.808
  Name = 
  5 active torsions:
  status: ('A' for Active; 'I' for Inactive)
    1  A    between atoms: C_1  and  C_22
    2  A    between atoms: C_4  and  C_25
    3  A    between atoms: C_10  and  N_23
    4  A    between atoms: C_10  and  C_26
    5  A    between atoms: N_11  and  C_25
                            x       y       z     vdW  Elec       q    Type
                         _______ _______ _______ _____ _____    ______ ____

>  <TORSDO>
F 5

$$$$
=
 OpenBabel10272413443D

 30 33  0  0  1  0  0  0  0  0999 V2000
  194.2160  174.1810  135.3330 C   0  0  2  0  0  3  0  0  0  0  0  0
  195.0360  173.0010  137.3750 C   0  0  2  0  0  3  0  0  0  0  0  0
  195.3720  173.9390  134.3470 C   0  0  0  0  0  2  0  0  0  0  0  0
  198.4530  173.7000  136.5070 N   0  0  0  0  0  0  0  0  0  0  0  0
  196.9480  171.1480  137.1510 C   0  0  1  0  0  3  0  0  0  0  0  0
  197.2100  173.4530  136.0070 C   0  0  0  0  0  0  0  0  0  0  0  0
  197.5560  175.1740  134.3460 C   0  0  0  0  0  3  0  0  0  0  0  0
  196.7320  174.2040  134.9200 C   0  0  0  0  0  0  0  0  0  0  0  0
  196.3030  172.4550  136.6780 C   0  0  2  0  0  0  0  0  0  0  0  0
  196.2410  170.5600  138.2020 O   0  0  0  0  0  1  0  0  0  0  0  0
  199.2660  174.6450  135.9610 C   0  0  0  0  0  3  0  0  0  0  0  0
  198.8310  175.3990  134.8680 C   0  0  0  0  0  3  0  0  0  0  0  0
  194.5960  174.2800  136.7620 N   0  0  0  0  0  0  0  0  0  0  0  0
  196.8760  171.0390  134.7820 O   0  0  0  0  0  1  0  0  0  0  0  0
  196.0670  171.1480  135.9150 C   0  0  1  0  0  3  0  0  0  0  0  0
  191.7960  173.9030  134.6340 C   0  0  0  0  0  0  0  0  0  0  0  0
  190.6850  173.0960  134.3680 C   0  0  0  0  0  3  0  0  0  0  0  0
  191.6340  175.6430  134.4410 Cl  0  0  0  0  0  0  0  0  0  0  0  0
  193.0870  171.9230  135.1720 C   0  0  0  0  0  3  0  0  0  0  0  0
  192.0630  169.7770  135.0350 F   0  0  0  0  0  0  0  0  0  0  0  0
  193.0100  173.3170  135.0440 C   0  0  0  0  0  0  0  0  0  0  0  0
  190.7730  171.7090  134.5030 C   0  0  0  0  0  3  0  0  0  0  0  0
  191.9760  171.1220  134.9050 C   0  0  0  0  0  0  0  0  0  0  0  0
  193.4620  174.8490  137.4930 C   0  0  0  0  0  2  0  0  0  0  0  0
  194.3540  176.9070  136.7710 O   0  0  0  0  0  0  0  0  0  0  0  0
  193.4220  176.3290  137.3060 C   0  0  0  0  0  3  0  0  0  0  0  0
  195.3710  173.2100  138.8580 C   0  0  0  0  0  2  0  0  0  0  0  0
  195.1180  175.4090  139.9110 O   0  0  0  0  0  0  0  0  0  0  0  0
  195.8360  174.5680  139.0930 N   0  0  0  0  0  0  0  0  0  0  0  0
  196.9750  174.9010  138.7130 O   0  0  0  0  0  0  0  0  0  0  0  0
  1 21  1  1  0  0  0
  1 13  1  0  0  0  0
  2 27  1  1  0  0  0
  3  8  1  0  0  0  0
  3  1  1  0  0  0  0
  5 10  1  1  0  0  0
  6  4  1  0  0  0  0
  7 12  2  0  0  0  0
  7  8  1  0  0  0  0
  8  6  2  0  0  0  0
  9  6  1  6  0  0  0
  9  5  1  0  0  0  0
  9  2  1  0  0  0  0
 11  4  2  0  0  0  0
 12 11  1  0  0  0  0
 13  2  1  0  0  0  0
 13 24  1  0  0  0  0
 15 14  1  6  0  0  0
 15  9  1  0  0  0  0
 15  5  1  0  0  0  0
 16 21  1  0  0  0  0
 17 22  1  0  0  0  0
 17 16  2  0  0  0  0
 18 16  1  0  0  0  0
 21 19  2  0  0  0  0
 22 23  2  0  0  0  0
 23 20  1  0  0  0  0
 23 19  1  0  0  0  0
 25 26  2  0  0  0  0
 26 24  1  0  0  0  0
 27 29  1  0  0  0  0
 29 28  2  0  0  0  0
 30 29  2  0  0  0  0
M  END
>  <MODEL>
9

>  <REMARK>
 VINA RESULT:      -2.9      2.904      4.787
  Name = 
  5 active torsions:
  status: ('A' for Active; 'I' for Inactive)
    1  A    between atoms: C_1  and  C_22
    2  A    between atoms: C_4  and  C_25
    3  A    between atoms: C_10  and  N_23
    4  A    between atoms: C_10  and  C_26
    5  A    between atoms: N_11  and  C_25
                            x       y       z     vdW  Elec       q    Type
                         _______ _______ _______ _____ _____    ______ ____

>  <TORSDO>
F 5

$$$$
