=
 OpenBabel10272400163D

 31 37  0  0  1  0  0  0  0  0999 V2000
  186.0810  178.9460  140.9340 C   0  0  0  0  0  0  0  0  0  0  0  0
  189.2120  176.7830  141.0950 C   0  0  1  0  0  3  0  0  0  0  0  0
  189.2460  176.8670  142.6060 C   0  0  0  0  0  0  0  0  0  0  0  0
  187.3430  176.8830  144.1830 C   0  0  0  0  0  3  0  0  0  0  0  0
  188.2620  177.7880  140.4600 C   0  0  2  0  0  0  0  0  0  0  0  0
  185.5240  178.3860  139.6700 C   0  0  0  0  0  2  0  0  0  0  0  0
  188.2400  176.0410  143.3410 C   0  0  0  0  0  2  0  0  0  0  0  0
  190.4330  178.0250  139.3160 C   0  0  1  0  0  3  0  0  0  0  0  0
  185.3170  179.5930  141.7490 N   0  0  0  0  0  2  0  0  0  0  0  0
  191.3200  178.2170  142.4900 C   0  0  0  0  0  2  0  0  0  0  0  0
  187.7910  177.6160  145.1990 C   0  0  0  0  0  3  0  0  0  0  0  0
  188.9710  178.5390  139.3600 C   0  0  1  0  0  3  0  0  0  0  0  0
  190.5820  177.0160  140.4470 C   0  0  2  0  0  0  0  0  0  0  0  0
  190.8640  176.5700  139.0230 C   0  0  1  0  0  3  0  0  0  0  0  0
  187.4270  178.6450  141.3020 N   0  0  0  0  0  2  0  0  0  0  0  0
  189.2110  177.7600  145.5670 C   0  0  0  0  0  3  0  0  0  0  0  0
  187.8350  177.5730  139.0100 C   0  0  2  0  0  3  0  0  0  0  0  0
  186.6090  178.3930  138.6000 C   0  0  0  0  0  2  0  0  0  0  0  0
  191.7790  177.3400  141.3300 C   0  0  0  0  0  2  0  0  0  0  0  0
  190.2110  177.5560  143.2590 C   0  0  0  0  0  0  0  0  0  0  0  0
  190.2550  177.7250  144.7270 C   0  0  0  0  0  3  0  0  0  0  0  0
  189.8120  175.6330  138.4380 C   0  0  0  0  0  2  0  0  0  0  0  0
  191.7190  175.1940  136.8640 C   0  0  0  0  0  2  0  0  0  0  0  0
  190.9480  173.1920  135.6170 C   0  0  0  0  0  1  0  0  0  0  0  0
  191.0040  173.8550  136.9830 C   0  0  2  0  0  3  0  0  0  0  0  0
  190.2180  175.1630  137.0480 C   0  0  1  0  0  0  0  0  0  0  0  0
  189.4710  175.6870  135.8170 C   0  0  2  0  0  3  0  0  0  0  0  0
  189.8480  177.0040  135.5480 O   0  0  0  0  0  1  0  0  0  0  0  0
  187.9670  175.6100  136.0250 C   0  0  0  0  0  2  0  0  0  0  0  0
  187.5580  174.2760  136.0450 O   0  0  0  0  0  0  0  0  0  0  0  0
  186.5670  174.2300  137.0240 C   0  0  0  0  0  1  0  0  0  0  0  0
  1 15  1  0  0  0  0
  1  9  2  0  0  0  0
  2  3  1  1  0  0  0
  3 20  2  0  0  0  0
  3  7  1  0  0  0  0
  4 11  2  0  0  0  0
  5  2  1  0  0  0  0
  5 15  1  1  0  0  0
  6  1  1  0  0  0  0
  7  4  1  0  0  0  0
  8 12  1  0  0  0  0
  8 13  1  0  0  0  0
 10 20  1  0  0  0  0
 11 16  1  0  0  0  0
 12  5  1  0  0  0  0
 13  2  1  0  0  0  0
 13 19  1  0  0  0  0
 14  8  1  0  0  0  0
 14 13  1  0  0  0  0
 17 12  1  0  0  0  0
 17  5  1  0  0  0  0
 18 17  1  0  0  0  0
 18  6  1  0  0  0  0
 19 10  1  0  0  0  0
 20 21  1  0  0  0  0
 21 16  2  0  0  0  0
 22 14  1  0  0  0  0
 23 25  1  0  0  0  0
 23 26  1  0  0  0  0
 24 25  1  0  0  0  0
 25 26  1  0  0  0  0
 26 22  1  0  0  0  0
 27 29  1  0  0  0  0
 27 26  1  0  0  0  0
 28 27  1  0  0  0  0
 29 30  1  0  0  0  0
 30 31  1  0  0  0  0
M  END
>  <MODEL>
1

>  <REMARK>
 VINA RESULT:      -7.4      0.000      0.000
  Name = 
  5 active torsions:
  status: ('A' for Active; 'I' for Inactive)
    1  A    between atoms: O_1  and  C_8
    2  A    between atoms: C_8  and  C_19
    3  A    between atoms: C_9  and  C_22
    4  A    between atoms: C_9  and  C_23
    5  A    between atoms: C_19  and  C_22
                            x       y       z     vdW  Elec       q    Type
                         _______ _______ _______ _____ _____    ______ ____

>  <TORSDO>
F 5

$$$$
=
 OpenBabel10272400163D

 31 37  0  0  1  0  0  0  0  0999 V2000
  186.0770  178.9350  140.9680 C   0  0  0  0  0  0  0  0  0  0  0  0
  189.2280  176.7980  141.0830 C   0  0  1  0  0  3  0  0  0  0  0  0
  189.2700  176.8630  142.5950 C   0  0  0  0  0  0  0  0  0  0  0  0
  187.3760  176.8430  144.1830 C   0  0  0  0  0  3  0  0  0  0  0  0
  188.2660  177.8020  140.4670 C   0  0  2  0  0  0  0  0  0  0  0  0
  185.5170  178.3860  139.7010 C   0  0  0  0  0  2  0  0  0  0  0  0
  188.2760  176.0200  143.3260 C   0  0  0  0  0  2  0  0  0  0  0  0
  190.4270  178.0720  139.3120 C   0  0  1  0  0  3  0  0  0  0  0  0
  185.3130  179.5650  141.7960 N   0  0  0  0  0  2  0  0  0  0  0  0
  191.3320  178.2320  142.4830 C   0  0  0  0  0  2  0  0  0  0  0  0
  187.8240  177.5670  145.2060 C   0  0  0  0  0  3  0  0  0  0  0  0
  188.9610  178.5730  139.3720 C   0  0  1  0  0  3  0  0  0  0  0  0
  190.5920  177.0500  140.4300 C   0  0  2  0  0  0  0  0  0  0  0  0
  190.8690  176.6250  138.9990 C   0  0  1  0  0  3  0  0  0  0  0  0
  187.4280  178.6410  141.3240 N   0  0  0  0  0  2  0  0  0  0  0  0
  189.2460  177.7180  145.5670 C   0  0  0  0  0  3  0  0  0  0  0  0
  187.8310  177.6010  139.0160 C   0  0  2  0  0  3  0  0  0  0  0  0
  186.5960  178.4160  138.6240 C   0  0  0  0  0  2  0  0  0  0  0  0
  191.7910  177.3740  141.3100 C   0  0  0  0  0  2  0  0  0  0  0  0
  190.2330  177.5520  143.2500 C   0  0  0  0  0  0  0  0  0  0  0  0
  190.2840  177.7030  144.7210 C   0  0  0  0  0  3  0  0  0  0  0  0
  189.8210  175.6860  138.4080 C   0  0  0  0  0  2  0  0  0  0  0  0
  188.7760  175.4670  136.1360 C   0  0  0  0  0  2  0  0  0  0  0  0
  190.4400  176.5690  134.6600 C   0  0  0  0  0  1  0  0  0  0  0  0
  189.7350  176.6420  136.0050 C   0  0  2  0  0  3  0  0  0  0  0  0
  190.0670  175.4670  136.9220 C   0  0  1  0  0  0  0  0  0  0  0  0
  191.0280  174.3650  136.4620 C   0  0  2  0  0  3  0  0  0  0  0  0
  190.4190  173.1140  136.5810 O   0  0  0  0  0  1  0  0  0  0  0  0
  192.3130  174.3960  137.2720 C   0  0  0  0  0  2  0  0  0  0  0  0
  193.3980  174.6490  136.4330 O   0  0  0  0  0  0  0  0  0  0  0  0
  193.7010  175.9920  136.6480 C   0  0  0  0  0  1  0  0  0  0  0  0
  1 15  1  0  0  0  0
  1  9  2  0  0  0  0
  2  3  1  1  0  0  0
  3 20  2  0  0  0  0
  3  7  1  0  0  0  0
  4 11  2  0  0  0  0
  5  2  1  0  0  0  0
  5 15  1  1  0  0  0
  6  1  1  0  0  0  0
  7  4  1  0  0  0  0
  8 12  1  0  0  0  0
  8 13  1  0  0  0  0
 10 20  1  0  0  0  0
 11 16  1  0  0  0  0
 12  5  1  0  0  0  0
 13  2  1  0  0  0  0
 13 19  1  0  0  0  0
 14  8  1  0  0  0  0
 14 13  1  0  0  0  0
 17 12  1  0  0  0  0
 17  5  1  0  0  0  0
 18 17  1  0  0  0  0
 18  6  1  0  0  0  0
 19 10  1  0  0  0  0
 20 21  1  0  0  0  0
 21 16  2  0  0  0  0
 22 14  1  0  0  0  0
 23 26  1  0  0  0  0
 24 25  1  0  0  0  0
 25 23  1  0  0  0  0
 25 26  1  0  0  0  0
 26 22  1  0  0  0  0
 27 28  1  0  0  0  0
 27 26  1  0  0  0  0
 27 29  1  0  0  0  0
 30 31  1  0  0  0  0
 30 29  1  0  0  0  0
M  END
>  <MODEL>
2

>  <REMARK>
 VINA RESULT:      -7.0      1.135      2.299
  Name = 
  5 active torsions:
  status: ('A' for Active; 'I' for Inactive)
    1  A    between atoms: O_1  and  C_8
    2  A    between atoms: C_8  and  C_19
    3  A    between atoms: C_9  and  C_22
    4  A    between atoms: C_9  and  C_23
    5  A    between atoms: C_19  and  C_22
                            x       y       z     vdW  Elec       q    Type
                         _______ _______ _______ _____ _____    ______ ____

>  <TORSDO>
F 5

$$$$
=
 OpenBabel10272400163D

 31 37  0  0  1  0  0  0  0  0999 V2000
  185.5500  178.9500  146.0760 C   0  0  0  0  0  0  0  0  0  0  0  0
  186.2650  177.6460  142.5700 C   0  0  1  0  0  3  0  0  0  0  0  0
  187.7110  177.3690  142.9200 C   0  0  0  0  0  0  0  0  0  0  0  0
  188.6380  176.5380  145.0550 C   0  0  0  0  0  3  0  0  0  0  0  0
  185.5540  178.5110  143.6000 C   0  0  2  0  0  0  0  0  0  0  0  0
  184.1030  178.5930  146.1240 C   0  0  0  0  0  2  0  0  0  0  0  0
  187.9710  176.1700  143.7740 C   0  0  0  0  0  2  0  0  0  0  0  0
  185.1540  179.5400  141.3960 C   0  0  1  0  0  3  0  0  0  0  0  0
  186.1990  179.1750  147.1690 N   0  0  0  0  0  2  0  0  0  0  0  0
  188.4350  179.1720  141.3830 C   0  0  0  0  0  2  0  0  0  0  0  0
  189.8480  177.0910  145.1020 C   0  0  0  0  0  3  0  0  0  0  0  0
  184.8510  179.6550  142.9120 C   0  0  1  0  0  3  0  0  0  0  0  0
  186.0960  178.3560  141.2210 C   0  0  2  0  0  0  0  0  0  0  0  0
  184.7650  178.3500  140.4910 C   0  0  1  0  0  3  0  0  0  0  0  0
  186.2420  178.9080  144.8290 N   0  0  0  0  0  2  0  0  0  0  0  0
  190.6360  177.4840  143.9200 C   0  0  0  0  0  3  0  0  0  0  0  0
  184.0270  178.5540  143.5880 C   0  0  2  0  0  3  0  0  0  0  0  0
  183.4160  179.1240  144.8710 C   0  0  0  0  0  2  0  0  0  0  0  0
  187.3330  178.7400  140.4220 C   0  0  0  0  0  2  0  0  0  0  0  0
  188.7230  178.0940  142.3900 C   0  0  0  0  0  0  0  0  0  0  0  0
  190.1470  177.9090  142.7470 C   0  0  0  0  0  3  0  0  0  0  0  0
  183.7500  177.3540  141.0430 C   0  0  0  0  0  2  0  0  0  0  0  0
  183.0840  176.9660  138.6530 C   0  0  0  0  0  2  0  0  0  0  0  0
  181.0990  175.4920  138.8720 C   0  0  0  0  0  1  0  0  0  0  0  0
  182.4880  175.7890  139.4130 C   0  0  2  0  0  3  0  0  0  0  0  0
  182.5940  177.1640  140.0690 C   0  0  1  0  0  0  0  0  0  0  0  0
  181.3780  178.0920  140.1400 C   0  0  2  0  0  3  0  0  0  0  0  0
  181.6590  179.3040  139.5070 O   0  0  0  0  0  1  0  0  0  0  0  0
  180.9720  178.3420  141.5830 C   0  0  0  0  0  2  0  0  0  0  0  0
  181.1060  179.6970  141.8870 O   0  0  0  0  0  0  0  0  0  0  0  0
  180.2510  179.8990  142.9690 C   0  0  0  0  0  1  0  0  0  0  0  0
  1  6  1  0  0  0  0
  1  9  2  0  0  0  0
  2  3  1  1  0  0  0
  2  5  1  0  0  0  0
  3  7  1  0  0  0  0
  4 11  2  0  0  0  0
  5 15  1  1  0  0  0
  7  4  1  0  0  0  0
  8 12  1  0  0  0  0
 10 20  1  0  0  0  0
 12 17  1  0  0  0  0
 12  5  1  0  0  0  0
 13  8  1  0  0  0  0
 13  2  1  0  0  0  0
 14 22  1  0  0  0  0
 14 13  1  0  0  0  0
 14  8  1  0  0  0  0
 15  1  1  0  0  0  0
 16 11  1  0  0  0  0
 17  5  1  0  0  0  0
 17 18  1  0  0  0  0
 18  6  1  0  0  0  0
 19 13  1  0  0  0  0
 19 10  1  0  0  0  0
 20 21  1  0  0  0  0
 20  3  2  0  0  0  0
 21 16  2  0  0  0  0
 23 25  1  0  0  0  0
 23 26  1  0  0  0  0
 24 25  1  0  0  0  0
 25 26  1  0  0  0  0
 26 27  1  0  0  0  0
 26 22  1  0  0  0  0
 27 29  1  0  0  0  0
 28 27  1  0  0  0  0
 29 30  1  0  0  0  0
 30 31  1  0  0  0  0
M  END
>  <MODEL>
3

>  <REMARK>
 VINA RESULT:      -6.5      4.208      6.445
  Name = 
  5 active torsions:
  status: ('A' for Active; 'I' for Inactive)
    1  A    between atoms: O_1  and  C_8
    2  A    between atoms: C_8  and  C_19
    3  A    between atoms: C_9  and  C_22
    4  A    between atoms: C_9  and  C_23
    5  A    between atoms: C_19  and  C_22
                            x       y       z     vdW  Elec       q    Type
                         _______ _______ _______ _____ _____    ______ ____

>  <TORSDO>
F 5

$$$$
=
 OpenBabel10272400163D

 31 37  0  0  1  0  0  0  0  0999 V2000
  191.2240  174.7430  136.1220 C   0  0  0  0  0  0  0  0  0  0  0  0
  188.3130  176.1530  138.1320 C   0  0  1  0  0  3  0  0  0  0  0  0
  187.3120  175.6700  137.1040 C   0  0  0  0  0  0  0  0  0  0  0  0
  187.3600  173.5830  135.7810 C   0  0  0  0  0  3  0  0  0  0  0  0
  189.7500  176.1050  137.6360 C   0  0  2  0  0  0  0  0  0  0  0  0
  192.1450  174.4900  137.2660 C   0  0  0  0  0  2  0  0  0  0  0  0
  187.0220  174.2040  137.0930 C   0  0  0  0  0  2  0  0  0  0  0  0
  189.3710  178.3700  138.5340 C   0  0  1  0  0  3  0  0  0  0  0  0
  191.4130  174.1450  134.9930 N   0  0  0  0  0  2  0  0  0  0  0  0
  186.8030  178.0160  136.4900 C   0  0  0  0  0  2  0  0  0  0  0  0
  186.7490  173.9220  134.6480 C   0  0  0  0  0  3  0  0  0  0  0  0
  190.4240  177.4310  137.8910 C   0  0  1  0  0  3  0  0  0  0  0  0
  188.0610  177.5950  138.5880 C   0  0  2  0  0  0  0  0  0  0  0  0
  188.6550  178.1250  139.8810 C   0  0  1  0  0  3  0  0  0  0  0  0
  190.0580  175.5410  136.3230 N   0  0  0  0  0  2  0  0  0  0  0  0
  185.7420  174.9920  134.5260 C   0  0  0  0  0  3  0  0  0  0  0  0
  190.8780  176.1880  138.6630 C   0  0  2  0  0  3  0  0  0  0  0  0
  192.2410  175.7500  138.1180 C   0  0  0  0  0  2  0  0  0  0  0  0
  186.9190  178.3850  137.9650 C   0  0  0  0  0  2  0  0  0  0  0  0
  186.6260  176.5330  136.3180 C   0  0  0  0  0  0  0  0  0  0  0  0
  185.6870  176.1150  135.2550 C   0  0  0  0  0  3  0  0  0  0  0  0
  189.2320  177.0490  140.7950 C   0  0  0  0  0  2  0  0  0  0  0  0
  187.8160  178.3330  142.4230 C   0  0  0  0  0  2  0  0  0  0  0  0
  187.7130  176.8080  144.3790 C   0  0  0  0  0  1  0  0  0  0  0  0
  187.6820  176.8810  142.8610 C   0  0  2  0  0  3  0  0  0  0  0  0
  188.9890  177.3930  142.2580 C   0  0  1  0  0  0  0  0  0  0  0  0
  190.1690  177.7730  143.1580 C   0  0  2  0  0  3  0  0  0  0  0  0
  190.4050  179.1470  143.0890 O   0  0  0  0  0  1  0  0  0  0  0  0
  191.4210  177.0100  142.7590 C   0  0  0  0  0  2  0  0  0  0  0  0
  191.5920  175.9070  143.5960 O   0  0  0  0  0  0  0  0  0  0  0  0
  191.5790  176.4410  144.8840 C   0  0  0  0  0  1  0  0  0  0  0  0
  1 15  1  0  0  0  0
  1  6  1  0  0  0  0
  2  3  1  6  0  0  0
  2 13  1  0  0  0  0
  4  7  1  0  0  0  0
  5 15  1  6  0  0  0
  5 12  1  0  0  0  0
  5  2  1  0  0  0  0
  5 17  1  0  0  0  0
  6 18  1  0  0  0  0
  7  3  1  0  0  0  0
  8 13  1  0  0  0  0
  8 14  1  0  0  0  0
  9  1  2  0  0  0  0
 10 19  1  0  0  0  0
 11  4  2  0  0  0  0
 12  8  1  0  0  0  0
 12 17  1  0  0  0  0
 13 14  1  0  0  0  0
 14 22  1  0  0  0  0
 16 11  1  0  0  0  0
 16 21  2  0  0  0  0
 18 17  1  0  0  0  0
 19 13  1  0  0  0  0
 20 10  1  0  0  0  0
 20  3  2  0  0  0  0
 21 20  1  0  0  0  0
 22 26  1  0  0  0  0
 23 25  1  0  0  0  0
 25 24  1  0  0  0  0
 26 23  1  0  0  0  0
 26 25  1  0  0  0  0
 26 27  1  0  0  0  0
 28 27  1  0  0  0  0
 29 27  1  0  0  0  0
 29 30  1  0  0  0  0
 30 31  1  0  0  0  0
M  END
>  <MODEL>
4

>  <REMARK>
 VINA RESULT:      -6.4      3.124      7.364
  Name = 
  5 active torsions:
  status: ('A' for Active; 'I' for Inactive)
    1  A    between atoms: O_1  and  C_8
    2  A    between atoms: C_8  and  C_19
    3  A    between atoms: C_9  and  C_22
    4  A    between atoms: C_9  and  C_23
    5  A    between atoms: C_19  and  C_22
                            x       y       z     vdW  Elec       q    Type
                         _______ _______ _______ _____ _____    ______ ____

>  <TORSDO>
F 5

$$$$
=
 OpenBabel10272400163D

 31 37  0  0  1  0  0  0  0  0999 V2000
  186.4150  178.6210  138.6470 C   0  0  0  0  0  0  0  0  0  0  0  0
  184.2970  177.7020  141.6760 C   0  0  1  0  0  3  0  0  0  0  0  0
  183.0590  177.5460  140.8180 C   0  0  0  0  0  0  0  0  0  0  0  0
  182.8870  176.6370  138.5270 C   0  0  0  0  0  3  0  0  0  0  0  0
  185.4420  178.3970  140.9540 C   0  0  2  0  0  0  0  0  0  0  0  0
  187.7190  178.1140  139.1610 C   0  0  0  0  0  2  0  0  0  0  0  0
  182.9820  176.3120  139.9780 C   0  0  0  0  0  2  0  0  0  0  0  0
  185.1280  179.5640  143.1030 C   0  0  1  0  0  3  0  0  0  0  0  0
  186.2490  178.8170  137.3820 N   0  0  0  0  0  2  0  0  0  0  0  0
  182.0560  179.5390  141.8960 C   0  0  0  0  0  2  0  0  0  0  0  0
  181.8610  177.3050  138.0060 C   0  0  0  0  0  3  0  0  0  0  0  0
  185.9820  179.5170  141.8090 C   0  0  1  0  0  3  0  0  0  0  0  0
  184.0450  178.5030  142.9590 C   0  0  2  0  0  0  0  0  0  0  0  0
  185.0010  178.4220  144.1360 C   0  0  1  0  0  3  0  0  0  0  0  0
  185.3120  178.7570  139.5420 N   0  0  0  0  0  2  0  0  0  0  0  0
  180.7490  177.8770  138.7880 C   0  0  0  0  0  3  0  0  0  0  0  0
  186.8480  178.2830  141.5390 C   0  0  2  0  0  3  0  0  0  0  0  0
  187.9570  178.6760  140.5580 C   0  0  0  0  0  2  0  0  0  0  0  0
  182.6610  179.0790  143.2180 C   0  0  0  0  0  2  0  0  0  0  0  0
  182.0250  178.4150  140.8980 C   0  0  0  0  0  0  0  0  0  0  0  0
  180.8220  178.3480  140.0400 C   0  0  0  0  0  3  0  0  0  0  0  0
  186.0120  177.2830  144.0470 C   0  0  0  0  0  2  0  0  0  0  0  0
  186.9120  178.7050  145.9110 C   0  0  0  0  0  2  0  0  0  0  0  0
  187.8570  177.0230  147.4740 C   0  0  0  0  0  1  0  0  0  0  0  0
  186.6970  177.3370  146.5430 C   0  0  2  0  0  3  0  0  0  0  0  0
  187.1170  177.4590  145.0800 C   0  0  1  0  0  0  0  0  0  0  0  0
  188.5810  177.2680  144.6690 C   0  0  2  0  0  3  0  0  0  0  0  0
  189.1210  178.4790  144.2330 O   0  0  0  0  0  1  0  0  0  0  0  0
  188.7030  176.2210  143.5750 C   0  0  0  0  0  2  0  0  0  0  0  0
  189.8050  176.5030  142.7680 O   0  0  0  0  0  0  0  0  0  0  0  0
  190.8530  175.7880  143.3450 C   0  0  0  0  0  1  0  0  0  0  0  0
  1  6  1  0  0  0  0
  1 15  1  0  0  0  0
  2  3  1  6  0  0  0
  2 13  1  0  0  0  0
  3 20  2  0  0  0  0
  4  7  1  0  0  0  0
  5 15  1  6  0  0  0
  5 17  1  0  0  0  0
  5  2  1  0  0  0  0
  5 12  1  0  0  0  0
  6 18  1  0  0  0  0
  7  3  1  0  0  0  0
  8 14  1  0  0  0  0
  9  1  2  0  0  0  0
 10 19  1  0  0  0  0
 11  4  2  0  0  0  0
 11 16  1  0  0  0  0
 12  8  1  0  0  0  0
 13  8  1  0  0  0  0
 13 19  1  0  0  0  0
 13 14  1  0  0  0  0
 16 21  2  0  0  0  0
 17 12  1  0  0  0  0
 18 17  1  0  0  0  0
 20 10  1  0  0  0  0
 21 20  1  0  0  0  0
 22 14  1  0  0  0  0
 22 26  1  0  0  0  0
 23 25  1  0  0  0  0
 25 24  1  0  0  0  0
 26 23  1  0  0  0  0
 26 25  1  0  0  0  0
 27 26  1  0  0  0  0
 28 27  1  0  0  0  0
 29 27  1  0  0  0  0
 30 31  1  0  0  0  0
 30 29  1  0  0  0  0
M  END
>  <MODEL>
5

>  <REMARK>
 VINA RESULT:      -6.1      3.525      7.679
  Name = 
  5 active torsions:
  status: ('A' for Active; 'I' for Inactive)
    1  A    between atoms: O_1  and  C_8
    2  A    between atoms: C_8  and  C_19
    3  A    between atoms: C_9  and  C_22
    4  A    between atoms: C_9  and  C_23
    5  A    between atoms: C_19  and  C_22
                            x       y       z     vdW  Elec       q    Type
                         _______ _______ _______ _____ _____    ______ ____

>  <TORSDO>
F 5

$$$$
=
 OpenBabel10272400163D

 31 37  0  0  1  0  0  0  0  0999 V2000
  190.7440  177.3760  139.8580 C   0  0  0  0  0  0  0  0  0  0  0  0
  188.2360  176.3980  137.1640 C   0  0  1  0  0  3  0  0  0  0  0  0
  189.2810  175.5940  136.4210 C   0  0  0  0  0  0  0  0  0  0  0  0
  191.1030  174.2110  137.3580 C   0  0  0  0  0  3  0  0  0  0  0  0
  188.8270  177.3050  138.2330 C   0  0  2  0  0  0  0  0  0  0  0  0
  189.7720  177.5370  140.9770 C   0  0  0  0  0  2  0  0  0  0  0  0
  189.6540  174.2740  137.0160 C   0  0  0  0  0  2  0  0  0  0  0  0
  187.3450  178.7000  136.8410 C   0  0  1  0  0  3  0  0  0  0  0  0
  191.9990  177.2120  140.1080 N   0  0  0  0  0  2  0  0  0  0  0  0
  189.2240  177.2280  134.5600 C   0  0  0  0  0  2  0  0  0  0  0  0
  192.0620  174.3010  136.4400 C   0  0  0  0  0  3  0  0  0  0  0  0
  188.2830  178.7040  138.0750 C   0  0  1  0  0  3  0  0  0  0  0  0
  187.4030  177.2990  136.2450 C   0  0  2  0  0  0  0  0  0  0  0  0
  186.0610  177.8530  136.6920 C   0  0  1  0  0  3  0  0  0  0  0  0
  190.2600  177.2690  138.5200 N   0  0  0  0  0  2  0  0  0  0  0  0
  191.8290  174.5560  135.0070 C   0  0  0  0  0  3  0  0  0  0  0  0
  187.8960  177.8730  139.3030 C   0  0  2  0  0  3  0  0  0  0  0  0
  188.6300  178.4380  140.5220 C   0  0  0  0  0  2  0  0  0  0  0  0
  187.7160  177.3390  134.7560 C   0  0  0  0  0  2  0  0  0  0  0  0
  189.7640  175.9910  135.2200 C   0  0  0  0  0  0  0  0  0  0  0  0
  190.8310  175.2800  134.4830 C   0  0  0  0  0  3  0  0  0  0  0  0
  185.5030  177.2020  137.9540 C   0  0  0  0  0  2  0  0  0  0  0  0
  183.3010  177.9450  137.0030 C   0  0  0  0  0  2  0  0  0  0  0  0
  181.6740  177.1310  138.6910 C   0  0  0  0  0  1  0  0  0  0  0  0
  182.9470  176.7940  137.9330 C   0  0  2  0  0  3  0  0  0  0  0  0
  184.1080  177.7290  138.2630 C   0  0  1  0  0  0  0  0  0  0  0  0
  183.9300  178.8700  139.2700 C   0  0  2  0  0  3  0  0  0  0  0  0
  184.5920  180.0150  138.8240 O   0  0  0  0  0  1  0  0  0  0  0  0
  184.4530  178.4680  140.6390 C   0  0  0  0  0  2  0  0  0  0  0  0
  185.2540  179.4850  141.1590 O   0  0  0  0  0  0  0  0  0  0  0  0
  185.3470  179.1950  142.5190 C   0  0  0  0  0  1  0  0  0  0  0  0
  1  9  2  0  0  0  0
  1  6  1  0  0  0  0
  2  3  1  6  0  0  0
  2  5  1  0  0  0  0
  3  7  1  0  0  0  0
  5 15  1  1  0  0  0
  5 17  1  0  0  0  0
  7  4  1  0  0  0  0
  8 12  1  0  0  0  0
 10 19  1  0  0  0  0
 10 20  1  0  0  0  0
 11  4  2  0  0  0  0
 12  5  1  0  0  0  0
 12 17  1  0  0  0  0
 13 14  1  0  0  0  0
 13  8  1  0  0  0  0
 13  2  1  0  0  0  0
 14  8  1  0  0  0  0
 14 22  1  0  0  0  0
 15  1  1  0  0  0  0
 16 11  1  0  0  0  0
 17 18  1  0  0  0  0
 18  6  1  0  0  0  0
 19 13  1  0  0  0  0
 20  3  2  0  0  0  0
 21 16  2  0  0  0  0
 21 20  1  0  0  0  0
 22 26  1  0  0  0  0
 23 25  1  0  0  0  0
 23 26  1  0  0  0  0
 25 26  1  0  0  0  0
 25 24  1  0  0  0  0
 26 27  1  0  0  0  0
 27 29  1  0  0  0  0
 28 27  1  0  0  0  0
 29 30  1  0  0  0  0
 30 31  1  0  0  0  0
M  END
>  <MODEL>
6

>  <REMARK>
 VINA RESULT:      -6.1      2.995      6.966
  Name = 
  5 active torsions:
  status: ('A' for Active; 'I' for Inactive)
    1  A    between atoms: O_1  and  C_8
    2  A    between atoms: C_8  and  C_19
    3  A    between atoms: C_9  and  C_22
    4  A    between atoms: C_9  and  C_23
    5  A    between atoms: C_19  and  C_22
                            x       y       z     vdW  Elec       q    Type
                         _______ _______ _______ _____ _____    ______ ____

>  <TORSDO>
F 5

$$$$
=
 OpenBabel10272400163D

 31 37  0  0  1  0  0  0  0  0999 V2000
  191.7150  175.8020  136.3280 C   0  0  0  0  0  0  0  0  0  0  0  0
  188.5880  176.3960  138.4180 C   0  0  1  0  0  3  0  0  0  0  0  0
  187.6890  175.9900  137.2690 C   0  0  0  0  0  0  0  0  0  0  0  0
  188.0630  174.2210  135.5840 C   0  0  0  0  0  3  0  0  0  0  0  0
  190.0290  176.6380  137.9940 C   0  0  2  0  0  0  0  0  0  0  0  0
  192.6360  175.4600  137.4490 C   0  0  0  0  0  2  0  0  0  0  0  0
  187.6100  174.5270  136.9710 C   0  0  0  0  0  2  0  0  0  0  0  0
  189.3130  178.6160  139.2790 C   0  0  1  0  0  3  0  0  0  0  0  0
  192.0130  175.4630  135.1180 N   0  0  0  0  0  2  0  0  0  0  0  0
  186.8680  178.3190  137.0800 C   0  0  0  0  0  2  0  0  0  0  0  0
  187.4360  174.6850  134.5050 C   0  0  0  0  0  3  0  0  0  0  0  0
  190.5030  177.9680  138.5250 C   0  0  1  0  0  3  0  0  0  0  0  0
  188.1240  177.6770  139.1220 C   0  0  2  0  0  0  0  0  0  0  0  0
  188.6070  178.0240  140.5190 C   0  0  1  0  0  3  0  0  0  0  0  0
  190.4440  176.3820  136.6150 N   0  0  0  0  0  2  0  0  0  0  0  0
  186.2910  175.6140  134.5360 C   0  0  0  0  0  3  0  0  0  0  0  0
  191.1100  176.6730  139.0730 C   0  0  2  0  0  3  0  0  0  0  0  0
  192.5330  176.5350  138.5250 C   0  0  0  0  0  2  0  0  0  0  0  0
  186.8970  178.4110  138.6010 C   0  0  0  0  0  2  0  0  0  0  0  0
  186.9070  176.8870  136.6260 C   0  0  0  0  0  0  0  0  0  0  0  0
  186.0620  176.5580  135.4580 C   0  0  0  0  0  3  0  0  0  0  0  0
  189.3090  176.8800  141.2440 C   0  0  0  0  0  2  0  0  0  0  0  0
  191.0650  176.5770  143.0130 C   0  0  0  0  0  2  0  0  0  0  0  0
  191.4030  178.8900  143.8490 C   0  0  0  0  0  1  0  0  0  0  0  0
  191.1770  178.0400  142.6090 C   0  0  2  0  0  3  0  0  0  0  0  0
  189.8230  177.3350  142.6030 C   0  0  1  0  0  0  0  0  0  0  0  0
  188.8430  177.5160  143.7670 C   0  0  2  0  0  3  0  0  0  0  0  0
  189.3450  176.9090  144.9190 O   0  0  0  0  0  1  0  0  0  0  0  0
  187.4820  176.9330  143.4230 C   0  0  0  0  0  2  0  0  0  0  0  0
  186.5510  177.9600  143.2640 O   0  0  0  0  0  0  0  0  0  0  0  0
  185.9060  178.0400  144.4970 C   0  0  0  0  0  1  0  0  0  0  0  0
  1 15  1  0  0  0  0
  1  6  1  0  0  0  0
  2  3  1  6  0  0  0
  2 13  1  0  0  0  0
  4  7  1  0  0  0  0
  5 15  1  6  0  0  0
  5  2  1  0  0  0  0
  5 12  1  0  0  0  0
  5 17  1  0  0  0  0
  6 18  1  0  0  0  0
  7  3  1  0  0  0  0
  8 14  1  0  0  0  0
  9  1  2  0  0  0  0
 10 19  1  0  0  0  0
 11 16  1  0  0  0  0
 11  4  2  0  0  0  0
 12 17  1  0  0  0  0
 12  8  1  0  0  0  0
 13  8  1  0  0  0  0
 13 14  1  0  0  0  0
 14 22  1  0  0  0  0
 16 21  2  0  0  0  0
 18 17  1  0  0  0  0
 19 13  1  0  0  0  0
 20 10  1  0  0  0  0
 20  3  2  0  0  0  0
 21 20  1  0  0  0  0
 22 26  1  0  0  0  0
 25 23  1  0  0  0  0
 25 24  1  0  0  0  0
 26 25  1  0  0  0  0
 26 23  1  0  0  0  0
 26 27  1  0  0  0  0
 27 28  1  0  0  0  0
 29 27  1  0  0  0  0
 30 29  1  0  0  0  0
 30 31  1  0  0  0  0
M  END
>  <MODEL>
7

>  <REMARK>
 VINA RESULT:      -5.9      3.134      7.185
  Name = 
  5 active torsions:
  status: ('A' for Active; 'I' for Inactive)
    1  A    between atoms: O_1  and  C_8
    2  A    between atoms: C_8  and  C_19
    3  A    between atoms: C_9  and  C_22
    4  A    between atoms: C_9  and  C_23
    5  A    between atoms: C_19  and  C_22
                            x       y       z     vdW  Elec       q    Type
                         _______ _______ _______ _____ _____    ______ ____

>  <TORSDO>
F 5

$$$$
=
 OpenBabel10272400163D

 31 37  0  0  1  0  0  0  0  0999 V2000
  185.4630  178.9770  145.9910 C   0  0  0  0  0  0  0  0  0  0  0  0
  186.2270  177.6580  142.5000 C   0  0  1  0  0  3  0  0  0  0  0  0
  187.6650  177.3700  142.8760 C   0  0  0  0  0  0  0  0  0  0  0  0
  188.5490  176.5380  145.0290 C   0  0  0  0  0  3  0  0  0  0  0  0
  185.5060  178.5310  143.5170 C   0  0  2  0  0  0  0  0  0  0  0  0
  184.0130  178.6310  146.0150 C   0  0  0  0  0  2  0  0  0  0  0  0
  187.9010  176.1720  143.7370 C   0  0  0  0  0  2  0  0  0  0  0  0
  185.1510  179.5570  141.3040 C   0  0  1  0  0  3  0  0  0  0  0  0
  186.0950  179.1990  147.0940 N   0  0  0  0  0  2  0  0  0  0  0  0
  188.4290  179.1630  141.3460 C   0  0  0  0  0  2  0  0  0  0  0  0
  189.7620  177.0820  145.0940 C   0  0  0  0  0  3  0  0  0  0  0  0
  184.8230  179.6780  142.8140 C   0  0  1  0  0  3  0  0  0  0  0  0
  186.0870  178.3650  141.1470 C   0  0  2  0  0  0  0  0  0  0  0  0
  184.7680  178.3680  140.3940 C   0  0  1  0  0  3  0  0  0  0  0  0
  186.1750  178.9260  144.7550 N   0  0  0  0  0  2  0  0  0  0  0  0
  190.5730  177.4660  143.9240 C   0  0  0  0  0  3  0  0  0  0  0  0
  183.9790  178.5850  143.4780 C   0  0  2  0  0  3  0  0  0  0  0  0
  183.3510  179.1640  144.7500 C   0  0  0  0  0  2  0  0  0  0  0  0
  187.3390  178.7370  140.3680 C   0  0  0  0  0  2  0  0  0  0  0  0
  188.6910  178.0860  142.3610 C   0  0  0  0  0  0  0  0  0  0  0  0
  190.1070  177.8910  142.7430 C   0  0  0  0  0  3  0  0  0  0  0  0
  183.7360  177.3810  140.9320 C   0  0  0  0  0  2  0  0  0  0  0  0
  181.3100  178.0060  141.1000 C   0  0  0  0  0  2  0  0  0  0  0  0
  180.8700  179.0850  138.9080 C   0  0  0  0  0  1  0  0  0  0  0  0
  181.8740  178.9420  140.0410 C   0  0  2  0  0  3  0  0  0  0  0  0
  182.4140  177.5210  140.1890 C   0  0  1  0  0  0  0  0  0  0  0  0
  181.9450  176.4060  139.2490 C   0  0  2  0  0  3  0  0  0  0  0  0
  181.2680  175.4210  139.9710 O   0  0  0  0  0  1  0  0  0  0  0  0
  183.1220  175.7910  138.5100 C   0  0  0  0  0  2  0  0  0  0  0  0
  183.5220  176.6320  137.4710 O   0  0  0  0  0  0  0  0  0  0  0  0
  184.8060  176.1980  137.1460 C   0  0  0  0  0  1  0  0  0  0  0  0
  1  6  1  0  0  0  0
  1  9  2  0  0  0  0
  2  3  1  1  0  0  0
  2  5  1  0  0  0  0
  3  7  1  0  0  0  0
  4 11  2  0  0  0  0
  5 15  1  1  0  0  0
  7  4  1  0  0  0  0
  8 12  1  0  0  0  0
 10 20  1  0  0  0  0
 12 17  1  0  0  0  0
 12  5  1  0  0  0  0
 13  8  1  0  0  0  0
 13  2  1  0  0  0  0
 14 22  1  0  0  0  0
 14 13  1  0  0  0  0
 14  8  1  0  0  0  0
 15  1  1  0  0  0  0
 16 11  1  0  0  0  0
 17  5  1  0  0  0  0
 17 18  1  0  0  0  0
 18  6  1  0  0  0  0
 19 13  1  0  0  0  0
 19 10  1  0  0  0  0
 20 21  1  0  0  0  0
 20  3  2  0  0  0  0
 21 16  2  0  0  0  0
 24 25  1  0  0  0  0
 25 26  1  0  0  0  0
 25 23  1  0  0  0  0
 26 22  1  0  0  0  0
 26 23  1  0  0  0  0
 27 28  1  0  0  0  0
 27 26  1  0  0  0  0
 29 27  1  0  0  0  0
 30 29  1  0  0  0  0
 31 30  1  0  0  0  0
M  END
>  <MODEL>
8

>  <REMARK>
 VINA RESULT:      -5.9      3.520      6.110
  Name = 
  5 active torsions:
  status: ('A' for Active; 'I' for Inactive)
    1  A    between atoms: O_1  and  C_8
    2  A    between atoms: C_8  and  C_19
    3  A    between atoms: C_9  and  C_22
    4  A    between atoms: C_9  and  C_23
    5  A    between atoms: C_19  and  C_22
                            x       y       z     vdW  Elec       q    Type
                         _______ _______ _______ _____ _____    ______ ____

>  <TORSDO>
F 5

$$$$
=
 OpenBabel10272400163D

 31 37  0  0  1  0  0  0  0  0999 V2000
  190.8400  177.3900  139.8560 C   0  0  0  0  0  0  0  0  0  0  0  0
  188.6190  176.3340  136.9480 C   0  0  1  0  0  3  0  0  0  0  0  0
  189.7650  175.6040  136.2800 C   0  0  0  0  0  0  0  0  0  0  0  0
  191.5780  174.3020  137.3430 C   0  0  0  0  0  3  0  0  0  0  0  0
  189.0690  177.2490  138.0770 C   0  0  2  0  0  0  0  0  0  0  0  0
  189.7730  177.4740  140.8940 C   0  0  0  0  0  2  0  0  0  0  0  0
  190.1600  174.2940  136.8830 C   0  0  0  0  0  2  0  0  0  0  0  0
  187.6300  178.5910  136.5910 C   0  0  1  0  0  3  0  0  0  0  0  0
  192.0780  177.2890  140.2060 N   0  0  0  0  0  2  0  0  0  0  0  0
  189.7690  177.2720  134.4490 C   0  0  0  0  0  2  0  0  0  0  0  0
  192.6020  174.4630  136.5080 C   0  0  0  0  0  3  0  0  0  0  0  0
  188.4630  178.6200  137.8980 C   0  0  1  0  0  3  0  0  0  0  0  0
  187.8150  177.2080  135.9780 C   0  0  2  0  0  0  0  0  0  0  0  0
  186.4120  177.6790  136.3220 C   0  0  1  0  0  3  0  0  0  0  0  0
  190.4740  177.2850  138.4810 N   0  0  0  0  0  2  0  0  0  0  0  0
  192.4730  174.7360  135.0650 C   0  0  0  0  0  3  0  0  0  0  0  0
  188.0230  177.7430  139.0750 C   0  0  2  0  0  3  0  0  0  0  0  0
  188.6230  178.3210  140.3600 C   0  0  0  0  0  2  0  0  0  0  0  0
  188.2460  177.2960  134.5210 C   0  0  0  0  0  2  0  0  0  0  0  0
  190.3210  176.0520  135.1310 C   0  0  0  0  0  0  0  0  0  0  0  0
  191.4820  175.4150  134.4730 C   0  0  0  0  0  3  0  0  0  0  0  0
  185.7900  176.9720  137.5230 C   0  0  0  0  0  2  0  0  0  0  0  0
  184.9240  175.4440  135.7270 C   0  0  0  0  0  2  0  0  0  0  0  0
  183.7690  173.6730  137.0270 C   0  0  0  0  0  1  0  0  0  0  0  0
  184.9940  174.5710  136.9720 C   0  0  2  0  0  3  0  0  0  0  0  0
  184.6550  176.0560  137.0830 C   0  0  1  0  0  0  0  0  0  0  0  0
  183.2020  176.5170  137.2350 C   0  0  2  0  0  3  0  0  0  0  0  0
  182.8350  177.3200  136.1540 O   0  0  0  0  0  1  0  0  0  0  0  0
  183.0090  177.2780  138.5360 C   0  0  0  0  0  2  0  0  0  0  0  0
  182.8830  176.3810  139.5970 O   0  0  0  0  0  0  0  0  0  0  0  0
  181.6280  175.8020  139.4180 C   0  0  0  0  0  1  0  0  0  0  0  0
  1  9  2  0  0  0  0
  1  6  1  0  0  0  0
  2  3  1  6  0  0  0
  2  5  1  0  0  0  0
  3  7  1  0  0  0  0
  5 15  1  1  0  0  0
  5 17  1  0  0  0  0
  7  4  1  0  0  0  0
  8 12  1  0  0  0  0
 10 19  1  0  0  0  0
 10 20  1  0  0  0  0
 11  4  2  0  0  0  0
 12  5  1  0  0  0  0
 12 17  1  0  0  0  0
 13 14  1  0  0  0  0
 13  8  1  0  0  0  0
 13  2  1  0  0  0  0
 14  8  1  0  0  0  0
 14 22  1  0  0  0  0
 15  1  1  0  0  0  0
 16 11  1  0  0  0  0
 17 18  1  0  0  0  0
 18  6  1  0  0  0  0
 19 13  1  0  0  0  0
 20  3  2  0  0  0  0
 21 16  2  0  0  0  0
 21 20  1  0  0  0  0
 23 25  1  0  0  0  0
 23 26  1  0  0  0  0
 25 24  1  0  0  0  0
 25 26  1  0  0  0  0
 26 27  1  0  0  0  0
 26 22  1  0  0  0  0
 27 29  1  0  0  0  0
 28 27  1  0  0  0  0
 29 30  1  0  0  0  0
 31 30  1  0  0  0  0
M  END
>  <MODEL>
9

>  <REMARK>
 VINA RESULT:      -5.6      3.025      6.519
  Name = 
  5 active torsions:
  status: ('A' for Active; 'I' for Inactive)
    1  A    between atoms: O_1  and  C_8
    2  A    between atoms: C_8  and  C_19
    3  A    between atoms: C_9  and  C_22
    4  A    between atoms: C_9  and  C_23
    5  A    between atoms: C_19  and  C_22
                            x       y       z     vdW  Elec       q    Type
                         _______ _______ _______ _____ _____    ______ ____

>  <TORSDO>
F 5

$$$$
