=
 OpenBabel10272402043D

 32 39  0  0  1  0  0  0  0  0999 V2000
  186.7110  178.2600  139.8620 C   0  0  0  0  0  0  0  0  0  0  0  0
  187.3020  178.4300  142.2760 C   0  0  1  0  0  3  0  0  0  0  0  0
  185.7970  178.4130  138.8110 C   0  0  0  0  0  3  0  0  0  0  0  0
  186.2920  178.5150  141.1750 C   0  0  0  0  0  0  0  0  0  0  0  0
  186.6780  177.8980  143.5520 C   0  0  1  0  0  3  0  0  0  0  0  0
  191.4190  176.1630  144.0010 C   0  0  0  0  0  2  0  0  0  0  0  0
  188.4670  177.5400  141.8610 C   0  0  1  0  0  3  0  0  0  0  0  0
  189.8710  177.4090  145.5360 C   0  0  0  0  0  2  0  0  0  0  0  0
  188.9390  177.5620  144.3680 C   0  0  0  0  0  0  0  0  0  0  0  0
  184.9630  178.8720  141.4550 C   0  0  0  0  0  0  0  0  0  0  0  0
  187.6830  177.7830  144.5960 N   0  0  0  0  0  0  0  0  0  0  0  0
  184.4540  178.9380  142.8750 C   0  0  0  0  0  2  0  0  0  0  0  0
  184.0620  179.0170  140.3950 C   0  0  0  0  0  3  0  0  0  0  0  0
  188.9820  178.0390  140.6470 O   0  0  0  0  0  0  0  0  0  0  0  0
  188.0560  177.7420  139.6880 N   0  0  0  0  0  0  0  0  0  0  0  0
  189.5270  177.5780  142.9590 C   0  0  1  0  0  3  0  0  0  0  0  0
  185.5470  178.8530  143.9610 C   0  0  1  0  0  3  0  0  0  0  0  0
  184.4810  178.8050  139.0770 C   0  0  0  0  0  3  0  0  0  0  0  0
  191.3190  177.2530  145.0710 C   0  0  0  0  0  2  0  0  0  0  0  0
  190.5480  176.4490  142.7650 C   0  0  0  0  0  2  0  0  0  0  0  0
  188.6100  178.1200  136.2220 C   0  0  2  0  0  0  0  0  0  0  0  0
  190.6550  175.6300  136.7180 C   0  0  0  0  0  2  0  0  0  0  0  0
  187.1070  178.2380  136.0790 C   0  0  0  0  0  1  0  0  0  0  0  0
  190.4360  176.7320  137.7490 C   0  0  0  0  0  0  0  0  0  0  0  0
  188.4740  176.7800  138.6500 C   0  0  2  0  0  3  0  0  0  0  0  0
  189.3900  178.0380  135.0680 O   0  0  0  0  0  1  0  0  0  0  0  0
  189.8240  176.0640  138.9750 C   0  0  0  0  0  2  0  0  0  0  0  0
  189.1540  177.4010  137.4300 C   0  0  2  0  0  0  0  0  0  0  0  0
  189.2430  178.9240  137.3460 C   0  0  0  0  0  2  0  0  0  0  0  0
  191.7700  176.5830  137.0310 C   0  0  0  0  0  2  0  0  0  0  0  0
  184.9170  178.4130  145.2740 C   0  0  0  0  0  2  0  0  0  0  0  0
  183.7690  179.1630  145.5270 O   0  0  0  0  0  1  0  0  0  0  0  0
  1  4  1  0  0  0  0
  2  4  1  6  0  0  0
  2  5  1  0  0  0  0
  3 18  1  0  0  0  0
  3  1  2  0  0  0  0
  4 10  2  0  0  0  0
  5 17  1  0  0  0  0
  5 11  1  1  0  0  0
  6 19  1  0  0  0  0
  7 14  1  6  0  0  0
  7  2  1  0  0  0  0
  7 16  1  0  0  0  0
  9 11  2  0  0  0  0
  9  8  1  0  0  0  0
 10 12  1  0  0  0  0
 12 17  1  0  0  0  0
 13 10  1  0  0  0  0
 15  1  1  0  0  0  0
 15 14  1  0  0  0  0
 16 20  1  1  0  0  0
 16  9  1  0  0  0  0
 17 31  1  1  0  0  0
 18 13  2  0  0  0  0
 19  8  1  0  0  0  0
 20  6  1  0  0  0  0
 21 23  1  6  0  0  0
 21 29  1  0  0  0  0
 21 28  1  0  0  0  0
 22 30  1  0  0  0  0
 22 24  1  0  0  0  0
 24 27  1  0  0  0  0
 25 27  1  1  0  0  0
 25 15  1  0  0  0  0
 26 21  1  0  0  0  0
 28 29  1  1  0  0  0
 28 24  1  0  0  0  0
 28 25  1  0  0  0  0
 30 24  1  0  0  0  0
 31 32  1  0  0  0  0
M  END
>  <MODEL>
1

>  <REMARK>
 VINA RESULT:      -9.6      0.000      0.000
  Name = 
  2 active torsions:
  status: ('A' for Active; 'I' for Inactive)
    1  A    between atoms: C_13  and  C_29
    2  A    between atoms: C_16  and  N_27
                            x       y       z     vdW  Elec       q    Type
                         _______ _______ _______ _____ _____    ______ ____

>  <TORSDO>
F 2

$$$$
=
 OpenBabel10272402043D

 32 39  0  0  1  0  0  0  0  0999 V2000
  189.7200  177.2470  143.0920 C   0  0  0  0  0  0  0  0  0  0  0  0
  187.7850  177.3500  144.6570 C   0  0  1  0  0  3  0  0  0  0  0  0
  191.0780  177.0160  142.8380 C   0  0  0  0  0  3  0  0  0  0  0  0
  189.2510  177.1870  144.4120 C   0  0  0  0  0  0  0  0  0  0  0  0
  187.5250  178.0760  145.9640 C   0  0  1  0  0  3  0  0  0  0  0  0
  183.5290  179.5630  143.2210 C   0  0  0  0  0  2  0  0  0  0  0  0
  187.1340  178.1070  143.5070 C   0  0  1  0  0  3  0  0  0  0  0  0
  183.7970  178.6190  145.5320 C   0  0  0  0  0  2  0  0  0  0  0  0
  185.2420  178.3750  145.1970 C   0  0  0  0  0  0  0  0  0  0  0  0
  190.1300  176.9500  145.4820 C   0  0  0  0  0  0  0  0  0  0  0  0
  186.0960  178.2620  146.1630 N   0  0  0  0  0  0  0  0  0  0  0  0
  189.6740  177.0960  146.9140 C   0  0  0  0  0  2  0  0  0  0  0  0
  191.4840  176.7260  145.2120 C   0  0  0  0  0  3  0  0  0  0  0  0
  187.4430  177.4270  142.3110 O   0  0  0  0  0  0  0  0  0  0  0  0
  188.7690  177.6560  142.0730 N   0  0  0  0  0  0  0  0  0  0  0  0
  185.6250  178.1450  143.7370 C   0  0  1  0  0  3  0  0  0  0  0  0
  188.1500  177.2510  147.0980 C   0  0  1  0  0  3  0  0  0  0  0  0
  191.9530  176.7420  143.8940 C   0  0  0  0  0  3  0  0  0  0  0  0
  182.9310  178.6270  144.2720 C   0  0  0  0  0  2  0  0  0  0  0  0
  184.9620  179.1760  142.8140 C   0  0  0  0  0  2  0  0  0  0  0  0
  190.9360  177.0320  139.3570 C   0  0  2  0  0  0  0  0  0  0  0  0
  188.8300  178.9700  137.7950 C   0  0  0  0  0  2  0  0  0  0  0  0
  192.0790  177.2770  140.3210 C   0  0  0  0  0  1  0  0  0  0  0  0
  188.3970  177.9900  138.8810 C   0  0  0  0  0  0  0  0  0  0  0  0
  189.0910  178.4500  140.8730 C   0  0  2  0  0  3  0  0  0  0  0  0
  191.2230  176.8820  138.0000 O   0  0  0  0  0  1  0  0  0  0  0  0
  187.8360  178.8290  140.0240 C   0  0  0  0  0  2  0  0  0  0  0  0
  189.5950  177.6400  139.6790 C   0  0  2  0  0  0  0  0  0  0  0  0
  189.8140  176.1390  139.8600 C   0  0  0  0  0  2  0  0  0  0  0  0
  187.9840  177.7860  137.4300 C   0  0  0  0  0  2  0  0  0  0  0  0
  187.8700  177.8920  148.4490 C   0  0  0  0  0  2  0  0  0  0  0  0
  189.0390  178.4550  148.9610 O   0  0  0  0  0  1  0  0  0  0  0  0
  1  4  1  0  0  0  0
  2  4  1  6  0  0  0
  2  5  1  0  0  0  0
  3  1  2  0  0  0  0
  3 18  1  0  0  0  0
  4 10  2  0  0  0  0
  5 11  1  1  0  0  0
  5 17  1  0  0  0  0
  6 19  1  0  0  0  0
  7 14  1  6  0  0  0
  7 16  1  0  0  0  0
  7  2  1  0  0  0  0
  9  8  1  0  0  0  0
  9 11  2  0  0  0  0
 10 12  1  0  0  0  0
 12 17  1  0  0  0  0
 13 10  1  0  0  0  0
 15 14  1  0  0  0  0
 15  1  1  0  0  0  0
 16 20  1  6  0  0  0
 16  9  1  0  0  0  0
 17 31  1  1  0  0  0
 18 13  2  0  0  0  0
 19  8  1  0  0  0  0
 20  6  1  0  0  0  0
 21 28  1  0  0  0  0
 21 29  1  0  0  0  0
 21 23  1  1  0  0  0
 22 24  1  0  0  0  0
 24 28  1  0  0  0  0
 24 27  1  0  0  0  0
 25 27  1  6  0  0  0
 25 15  1  0  0  0  0
 26 21  1  0  0  0  0
 28 29  1  1  0  0  0
 28 25  1  0  0  0  0
 30 22  1  0  0  0  0
 30 24  1  0  0  0  0
 31 32  1  0  0  0  0
M  END
>  <MODEL>
2

>  <REMARK>
 VINA RESULT:      -9.6      2.008      5.213
  Name = 
  2 active torsions:
  status: ('A' for Active; 'I' for Inactive)
    1  A    between atoms: C_13  and  C_29
    2  A    between atoms: C_16  and  N_27
                            x       y       z     vdW  Elec       q    Type
                         _______ _______ _______ _____ _____    ______ ____

>  <TORSDO>
F 2

$$$$
=
 OpenBabel10272402043D

 32 39  0  0  1  0  0  0  0  0999 V2000
  187.1160  177.9820  145.3400 C   0  0  0  0  0  0  0  0  0  0  0  0
  189.5070  177.7150  144.6950 C   0  0  1  0  0  3  0  0  0  0  0  0
  186.1090  178.0450  146.3120 C   0  0  0  0  0  3  0  0  0  0  0  0
  188.4300  177.6930  145.7330 C   0  0  0  0  0  0  0  0  0  0  0  0
  190.5620  176.6620  144.9780 C   0  0  1  0  0  3  0  0  0  0  0  0
  190.7210  176.8530  139.9150 C   0  0  0  0  0  2  0  0  0  0  0  0
  188.9150  177.4940  143.3090 C   0  0  1  0  0  3  0  0  0  0  0  0
  192.4700  176.9390  141.7130 C   0  0  0  0  0  2  0  0  0  0  0  0
  191.3500  177.0250  142.7110 C   0  0  0  0  0  0  0  0  0  0  0  0
  188.7400  177.4170  147.0740 C   0  0  0  0  0  0  0  0  0  0  0  0
  191.5770  176.6710  143.9360 N   0  0  0  0  0  0  0  0  0  0  0  0
  190.1010  176.8970  147.4710 C   0  0  0  0  0  2  0  0  0  0  0  0
  187.7230  177.4790  148.0330 C   0  0  0  0  0  3  0  0  0  0  0  0
  187.9070  178.4590  143.1090 O   0  0  0  0  0  0  0  0  0  0  0  0
  186.8640  178.0940  143.9140 N   0  0  0  0  0  0  0  0  0  0  0  0
  190.0260  177.6440  142.2720 C   0  0  1  0  0  3  0  0  0  0  0  0
  191.1680  176.9560  146.3580 C   0  0  1  0  0  3  0  0  0  0  0  0
  186.4160  177.8080  147.6560 C   0  0  0  0  0  3  0  0  0  0  0  0
  192.0420  177.4880  140.3530 C   0  0  0  0  0  2  0  0  0  0  0  0
  189.5740  177.0970  140.9120 C   0  0  0  0  0  2  0  0  0  0  0  0
  183.5810  179.3850  144.0430 C   0  0  2  0  0  0  0  0  0  0  0  0
  183.4430  178.1510  141.0290 C   0  0  0  0  0  2  0  0  0  0  0  0
  183.4900  178.7870  145.4330 C   0  0  0  0  0  1  0  0  0  0  0  0
  184.7090  178.7760  141.6040 C   0  0  0  0  0  0  0  0  0  0  0  0
  185.6220  177.6870  143.2300 C   0  0  2  0  0  3  0  0  0  0  0  0
  182.4300  179.9250  143.4680 O   0  0  0  0  0  1  0  0  0  0  0  0
  185.7490  177.6640  141.6730 C   0  0  0  0  0  2  0  0  0  0  0  0
  184.5760  178.7910  143.0790 C   0  0  2  0  0  0  0  0  0  0  0  0
  184.8550  180.1480  143.7230 C   0  0  0  0  0  2  0  0  0  0  0  0
  183.9580  179.4390  140.4580 C   0  0  0  0  0  2  0  0  0  0  0  0
  192.2830  175.9710  146.6790 C   0  0  0  0  0  2  0  0  0  0  0  0
  192.7290  176.1650  147.9860 O   0  0  0  0  0  1  0  0  0  0  0  0
  1  4  2  0  0  0  0
  1  3  1  0  0  0  0
  2  5  1  0  0  0  0
  2  4  1  1  0  0  0
  3 18  2  0  0  0  0
  4 10  1  0  0  0  0
  5 11  1  6  0  0  0
  5 17  1  0  0  0  0
  6 19  1  0  0  0  0
  6 20  1  0  0  0  0
  7 14  1  6  0  0  0
  7  2  1  0  0  0  0
  8  9  1  0  0  0  0
  9 11  2  0  0  0  0
 10 12  1  0  0  0  0
 10 13  2  0  0  0  0
 14 15  1  0  0  0  0
 15  1  1  0  0  0  0
 16 20  1  6  0  0  0
 16  9  1  0  0  0  0
 16  7  1  0  0  0  0
 17 31  1  1  0  0  0
 17 12  1  0  0  0  0
 18 13  1  0  0  0  0
 19  8  1  0  0  0  0
 21 23  1  1  0  0  0
 22 24  1  0  0  0  0
 24 27  1  0  0  0  0
 24 28  1  0  0  0  0
 25 27  1  6  0  0  0
 25 15  1  0  0  0  0
 26 21  1  0  0  0  0
 28 25  1  0  0  0  0
 28 29  1  1  0  0  0
 28 21  1  0  0  0  0
 29 21  1  0  0  0  0
 30 22  1  0  0  0  0
 30 24  1  0  0  0  0
 31 32  1  0  0  0  0
M  END
>  <MODEL>
3

>  <REMARK>
 VINA RESULT:      -9.4      2.740      6.649
  Name = 
  2 active torsions:
  status: ('A' for Active; 'I' for Inactive)
    1  A    between atoms: C_13  and  C_29
    2  A    between atoms: C_16  and  N_27
                            x       y       z     vdW  Elec       q    Type
                         _______ _______ _______ _____ _____    ______ ____

>  <TORSDO>
F 2

$$$$
=
 OpenBabel10272402043D

 32 39  0  0  1  0  0  0  0  0999 V2000
  189.5870  177.6220  141.6000 C   0  0  0  0  0  0  0  0  0  0  0  0
  187.8580  178.4320  140.0010 C   0  0  1  0  0  3  0  0  0  0  0  0
  190.8880  177.1810  141.8790 C   0  0  0  0  0  3  0  0  0  0  0  0
  189.2220  177.8800  140.2720 C   0  0  0  0  0  0  0  0  0  0  0  0
  187.3020  177.9000  138.6930 C   0  0  1  0  0  3  0  0  0  0  0  0
  183.0430  178.5290  141.3680 C   0  0  0  0  0  2  0  0  0  0  0  0
  186.9090  178.0900  141.1420 C   0  0  1  0  0  3  0  0  0  0  0  0
  183.7600  179.2010  139.0580 C   0  0  0  0  0  2  0  0  0  0  0  0
  185.1420  178.7330  139.4190 C   0  0  0  0  0  0  0  0  0  0  0  0
  190.1220  177.6570  139.2180 C   0  0  0  0  0  0  0  0  0  0  0  0
  185.9610  178.4130  138.4680 N   0  0  0  0  0  0  0  0  0  0  0  0
  189.6730  177.7270  137.7780 C   0  0  0  0  0  2  0  0  0  0  0  0
  191.4160  177.2130  139.5120 C   0  0  0  0  0  3  0  0  0  0  0  0
  187.4880  178.5560  142.3410 O   0  0  0  0  0  0  0  0  0  0  0  0
  188.5420  177.7270  142.6040 N   0  0  0  0  0  0  0  0  0  0  0  0
  185.5670  178.7720  140.8850 C   0  0  1  0  0  3  0  0  0  0  0  0
  188.2600  178.3130  137.5670 C   0  0  1  0  0  3  0  0  0  0  0  0
  191.8020  176.9920  140.8380 C   0  0  0  0  0  3  0  0  0  0  0  0
  182.9770  179.6230  140.3020 C   0  0  0  0  0  2  0  0  0  0  0  0
  184.4810  178.1920  141.8000 C   0  0  0  0  0  2  0  0  0  0  0  0
  190.6790  177.3220  145.3840 C   0  0  2  0  0  0  0  0  0  0  0  0
  187.8770  176.5930  146.8820 C   0  0  0  0  0  2  0  0  0  0  0  0
  191.6070  176.5660  144.4560 C   0  0  0  0  0  1  0  0  0  0  0  0
  187.9720  177.6460  145.7830 C   0  0  0  0  0  0  0  0  0  0  0  0
  188.4300  176.8910  143.8130 C   0  0  2  0  0  3  0  0  0  0  0  0
  190.9660  177.3430  146.7490 O   0  0  0  0  0  1  0  0  0  0  0  0
  187.1190  177.1430  144.6240 C   0  0  0  0  0  2  0  0  0  0  0  0
  189.2170  177.3950  145.0220 C   0  0  2  0  0  0  0  0  0  0  0  0
  190.1080  178.6240  144.8470 C   0  0  0  0  0  2  0  0  0  0  0  0
  187.6600  178.0380  147.2210 C   0  0  0  0  0  2  0  0  0  0  0  0
  187.7290  177.8660  136.2140 C   0  0  0  0  0  2  0  0  0  0  0  0
  187.7350  176.4730  136.1350 O   0  0  0  0  0  1  0  0  0  0  0  0
  1  3  1  0  0  0  0
  1 15  1  0  0  0  0
  2  4  1  1  0  0  0
  2  7  1  0  0  0  0
  4  1  2  0  0  0  0
  5 11  1  6  0  0  0
  5  2  1  0  0  0  0
  6 20  1  0  0  0  0
  7 14  1  1  0  0  0
  8  9  1  0  0  0  0
  8 19  1  0  0  0  0
  9 16  1  0  0  0  0
 10 13  2  0  0  0  0
 10  4  1  0  0  0  0
 11  9  2  0  0  0  0
 12 10  1  0  0  0  0
 13 18  1  0  0  0  0
 14 15  1  0  0  0  0
 16  7  1  0  0  0  0
 16 20  1  1  0  0  0
 17 31  1  6  0  0  0
 17 12  1  0  0  0  0
 17  5  1  0  0  0  0
 18  3  2  0  0  0  0
 19  6  1  0  0  0  0
 21 23  1  6  0  0  0
 21 26  1  0  0  0  0
 22 30  1  0  0  0  0
 24 22  1  0  0  0  0
 24 30  1  0  0  0  0
 25 15  1  6  0  0  0
 25 27  1  0  0  0  0
 25 28  1  0  0  0  0
 27 24  1  0  0  0  0
 28 29  1  6  0  0  0
 28 21  1  0  0  0  0
 28 24  1  0  0  0  0
 29 21  1  0  0  0  0
 32 31  1  0  0  0  0
M  END
>  <MODEL>
4

>  <REMARK>
 VINA RESULT:      -9.0      1.932      7.452
  Name = 
  2 active torsions:
  status: ('A' for Active; 'I' for Inactive)
    1  A    between atoms: C_13  and  C_29
    2  A    between atoms: C_16  and  N_27
                            x       y       z     vdW  Elec       q    Type
                         _______ _______ _______ _____ _____    ______ ____

>  <TORSDO>
F 2

$$$$
=
 OpenBabel10272402043D

 32 39  0  0  1  0  0  0  0  0999 V2000
  188.4670  177.8210  141.6500 C   0  0  0  0  0  0  0  0  0  0  0  0
  186.1750  178.5920  141.0550 C   0  0  1  0  0  3  0  0  0  0  0  0
  189.7640  177.4350  141.2840 C   0  0  0  0  0  3  0  0  0  0  0  0
  187.5270  178.0990  140.6480 C   0  0  0  0  0  0  0  0  0  0  0  0
  185.0980  178.0710  140.1210 C   0  0  1  0  0  3  0  0  0  0  0  0
  182.5190  178.4190  144.4710 C   0  0  0  0  0  2  0  0  0  0  0  0
  185.8640  178.1730  142.4860 C   0  0  1  0  0  3  0  0  0  0  0  0
  182.0790  179.1900  142.1230 C   0  0  0  0  0  2  0  0  0  0  0  0
  183.4860  178.7790  141.7910 C   0  0  0  0  0  0  0  0  0  0  0  0
  187.8520  177.9490  139.2900 C   0  0  0  0  0  0  0  0  0  0  0  0
  183.7880  178.5250  140.5580 N   0  0  0  0  0  0  0  0  0  0  0  0
  186.7910  178.0380  138.2190 C   0  0  0  0  0  2  0  0  0  0  0  0
  189.1490  177.5600  138.9400 C   0  0  0  0  0  3  0  0  0  0  0  0
  186.9130  178.6320  143.3090 O   0  0  0  0  0  0  0  0  0  0  0  0
  187.9940  177.8480  143.0230 N   0  0  0  0  0  0  0  0  0  0  0  0
  184.5340  178.7960  142.9010 C   0  0  1  0  0  3  0  0  0  0  0  0
  185.4220  178.5620  138.7030 C   0  0  1  0  0  3  0  0  0  0  0  0
  190.1060  177.3200  139.9330 C   0  0  0  0  0  3  0  0  0  0  0  0
  181.9400  179.5380  143.6050 C   0  0  0  0  0  2  0  0  0  0  0  0
  184.0050  178.1400  144.1830 C   0  0  0  0  0  2  0  0  0  0  0  0
  191.1340  177.5870  144.6170 C   0  0  2  0  0  0  0  0  0  0  0  0
  189.2990  176.5410  147.1000 C   0  0  0  0  0  2  0  0  0  0  0  0
  191.6380  176.9530  143.3370 C   0  0  0  0  0  1  0  0  0  0  0  0
  188.8350  177.6270  146.1350 C   0  0  0  0  0  0  0  0  0  0  0  0
  188.4740  176.9730  144.1100 C   0  0  2  0  0  3  0  0  0  0  0  0
  191.9700  177.6010  145.7340 O   0  0  0  0  0  1  0  0  0  0  0  0
  187.6150  177.0710  145.4110 C   0  0  0  0  0  2  0  0  0  0  0  0
  189.6560  177.5220  144.9070 C   0  0  2  0  0  0  0  0  0  0  0  0
  190.2870  178.8390  144.4570 C   0  0  0  0  0  2  0  0  0  0  0  0
  189.1320  177.9480  147.5930 C   0  0  0  0  0  2  0  0  0  0  0  0
  184.3440  178.1270  137.7220 C   0  0  0  0  0  2  0  0  0  0  0  0
  184.3600  176.7400  137.5780 O   0  0  0  0  0  1  0  0  0  0  0  0
  1 15  1  0  0  0  0
  2  4  1  6  0  0  0
  2  7  1  0  0  0  0
  3  1  1  0  0  0  0
  4  1  2  0  0  0  0
  5 11  1  1  0  0  0
  5  2  1  0  0  0  0
  7 16  1  0  0  0  0
  7 14  1  1  0  0  0
  8 19  1  0  0  0  0
  9  8  1  0  0  0  0
  9 16  1  0  0  0  0
 10  4  1  0  0  0  0
 11  9  2  0  0  0  0
 12 17  1  0  0  0  0
 12 10  1  0  0  0  0
 13 10  2  0  0  0  0
 13 18  1  0  0  0  0
 15 14  1  0  0  0  0
 16 20  1  1  0  0  0
 17 31  1  6  0  0  0
 17  5  1  0  0  0  0
 18  3  2  0  0  0  0
 19  6  1  0  0  0  0
 20  6  1  0  0  0  0
 21 23  1  6  0  0  0
 21 28  1  0  0  0  0
 21 26  1  0  0  0  0
 22 30  1  0  0  0  0
 24 22  1  0  0  0  0
 24 30  1  0  0  0  0
 25 15  1  6  0  0  0
 25 28  1  0  0  0  0
 25 27  1  0  0  0  0
 27 24  1  0  0  0  0
 28 29  1  6  0  0  0
 28 24  1  0  0  0  0
 29 21  1  0  0  0  0
 32 31  1  0  0  0  0
M  END
>  <MODEL>
5

>  <REMARK>
 VINA RESULT:      -8.9      2.246      6.850
  Name = 
  2 active torsions:
  status: ('A' for Active; 'I' for Inactive)
    1  A    between atoms: C_13  and  C_29
    2  A    between atoms: C_16  and  N_27
                            x       y       z     vdW  Elec       q    Type
                         _______ _______ _______ _____ _____    ______ ____

>  <TORSDO>
F 2

$$$$
=
 OpenBabel10272402043D

 32 39  0  0  1  0  0  0  0  0999 V2000
  183.6740  178.7880  142.2810 C   0  0  0  0  0  0  0  0  0  0  0  0
  186.1510  178.6840  142.0370 C   0  0  1  0  0  3  0  0  0  0  0  0
  182.5230  178.8550  143.0780 C   0  0  0  0  0  3  0  0  0  0  0  0
  184.9270  178.6670  142.8980 C   0  0  0  0  0  0  0  0  0  0  0  0
  187.2260  177.7720  142.5960 C   0  0  1  0  0  3  0  0  0  0  0  0
  188.1740  177.4520  137.6270 C   0  0  0  0  0  2  0  0  0  0  0  0
  185.8060  178.2660  140.6130 C   0  0  1  0  0  3  0  0  0  0  0  0
  189.6020  177.8900  139.6440 C   0  0  0  0  0  2  0  0  0  0  0  0
  188.3340  177.9720  140.4460 C   0  0  0  0  0  0  0  0  0  0  0  0
  185.0400  178.5620  144.2930 C   0  0  0  0  0  0  0  0  0  0  0  0
  188.3900  177.7700  141.7240 N   0  0  0  0  0  0  0  0  0  0  0  0
  186.3570  178.2190  144.9470 C   0  0  0  0  0  2  0  0  0  0  0  0
  183.8820  178.6260  145.0750 C   0  0  0  0  0  3  0  0  0  0  0  0
  184.7700  179.1050  140.1540 O   0  0  0  0  0  0  0  0  0  0  0  0
  183.6450  178.7280  140.8300 N   0  0  0  0  0  0  0  0  0  0  0  0
  187.0530  178.4130  139.7440 C   0  0  1  0  0  3  0  0  0  0  0  0
  187.5800  178.2630  144.0070 C   0  0  1  0  0  3  0  0  0  0  0  0
  182.6300  178.7880  144.4710 C   0  0  0  0  0  3  0  0  0  0  0  0
  189.3550  178.2520  138.1800 C   0  0  0  0  0  2  0  0  0  0  0  0
  186.8680  177.6880  138.4050 C   0  0  0  0  0  2  0  0  0  0  0  0
  181.0270  180.1970  138.9730 C   0  0  2  0  0  0  0  0  0  0  0  0
  181.3010  177.4510  137.2370 C   0  0  0  0  0  2  0  0  0  0  0  0
  180.3900  180.5450  140.3030 C   0  0  0  0  0  1  0  0  0  0  0  0
  182.5020  178.1520  137.8630 C   0  0  0  0  0  0  0  0  0  0  0  0
  182.5630  178.1350  140.0210 C   0  0  2  0  0  3  0  0  0  0  0  0
  180.3010  180.4180  137.8020 O   0  0  0  0  0  1  0  0  0  0  0  0
  183.0800  177.1870  138.8920 C   0  0  0  0  0  2  0  0  0  0  0  0
  181.9990  179.0460  138.9310 C   0  0  2  0  0  0  0  0  0  0  0  0
  182.5140  180.4810  138.8460 C   0  0  0  0  0  2  0  0  0  0  0  0
  182.3290  178.0920  136.3520 C   0  0  0  0  0  2  0  0  0  0  0  0
  188.7020  177.4280  144.6040 C   0  0  0  0  0  2  0  0  0  0  0  0
  189.7500  178.2550  145.0080 O   0  0  0  0  0  1  0  0  0  0  0  0
  1  4  2  0  0  0  0
  1  3  1  0  0  0  0
  2  5  1  0  0  0  0
  2  4  1  1  0  0  0
  3 18  2  0  0  0  0
  4 10  1  0  0  0  0
  5 11  1  6  0  0  0
  5 17  1  0  0  0  0
  6 19  1  0  0  0  0
  6 20  1  0  0  0  0
  7 14  1  6  0  0  0
  7  2  1  0  0  0  0
  8  9  1  0  0  0  0
  9 11  2  0  0  0  0
 10 12  1  0  0  0  0
 10 13  2  0  0  0  0
 14 15  1  0  0  0  0
 15  1  1  0  0  0  0
 16 20  1  6  0  0  0
 16  9  1  0  0  0  0
 16  7  1  0  0  0  0
 17 31  1  1  0  0  0
 17 12  1  0  0  0  0
 18 13  1  0  0  0  0
 19  8  1  0  0  0  0
 21 23  1  1  0  0  0
 22 24  1  0  0  0  0
 24 27  1  0  0  0  0
 24 28  1  0  0  0  0
 25 27  1  6  0  0  0
 25 15  1  0  0  0  0
 26 21  1  0  0  0  0
 28 29  1  6  0  0  0
 28 21  1  0  0  0  0
 28 25  1  0  0  0  0
 29 21  1  0  0  0  0
 30 22  1  0  0  0  0
 30 24  1  0  0  0  0
 31 32  1  0  0  0  0
M  END
>  <MODEL>
6

>  <REMARK>
 VINA RESULT:      -8.8      2.787      5.914
  Name = 
  2 active torsions:
  status: ('A' for Active; 'I' for Inactive)
    1  A    between atoms: C_13  and  C_29
    2  A    between atoms: C_16  and  N_27
                            x       y       z     vdW  Elec       q    Type
                         _______ _______ _______ _____ _____    ______ ____

>  <TORSDO>
F 2

$$$$
=
 OpenBabel10272402043D

 32 39  0  0  1  0  0  0  0  0999 V2000
  189.0070  177.6520  142.6730 C   0  0  0  0  0  0  0  0  0  0  0  0
  186.6950  177.6640  143.5990 C   0  0  1  0  0  3  0  0  0  0  0  0
  190.3950  177.5680  142.8450 C   0  0  0  0  0  3  0  0  0  0  0  0
  188.1770  177.6620  143.8020 C   0  0  0  0  0  0  0  0  0  0  0  0
  185.9960  178.4750  144.6740 C   0  0  1  0  0  3  0  0  0  0  0  0
  182.8720  179.1840  140.7450 C   0  0  0  0  0  2  0  0  0  0  0  0
  186.3470  178.2210  142.2240 C   0  0  1  0  0  3  0  0  0  0  0  0
  182.5300  178.5080  143.1380 C   0  0  0  0  0  2  0  0  0  0  0  0
  184.0250  178.4130  143.2600 C   0  0  0  0  0  0  0  0  0  0  0  0
  188.7180  177.6390  145.0980 C   0  0  0  0  0  0  0  0  0  0  0  0
  184.5620  178.5010  144.4350 N   0  0  0  0  0  0  0  0  0  0  0  0
  187.8480  177.8650  146.3110 C   0  0  0  0  0  2  0  0  0  0  0  0
  190.1060  177.5600  145.2540 C   0  0  0  0  0  3  0  0  0  0  0  0
  187.0570  177.4730  141.2620 O   0  0  0  0  0  0  0  0  0  0  0  0
  188.3670  177.8400  141.3830 N   0  0  0  0  0  0  0  0  0  0  0  0
  184.8410  178.0930  142.0100 C   0  0  1  0  0  3  0  0  0  0  0  0
  186.3290  177.8470  146.0350 C   0  0  1  0  0  3  0  0  0  0  0  0
  190.9400  177.5080  144.1320 C   0  0  0  0  0  3  0  0  0  0  0  0
  182.0780  178.2860  141.6950 C   0  0  0  0  0  2  0  0  0  0  0  0
  184.3910  178.9400  140.8130 C   0  0  0  0  0  2  0  0  0  0  0  0
  191.0310  177.0030  139.2220 C   0  0  2  0  0  0  0  0  0  0  0  0
  189.3570  178.8730  137.1420 C   0  0  0  0  0  2  0  0  0  0  0  0
  191.9560  177.2880  140.3870 C   0  0  0  0  0  1  0  0  0  0  0  0
  188.6770  177.9740  138.1690 C   0  0  0  0  0  0  0  0  0  0  0  0
  188.9570  178.5490  140.2320 C   0  0  2  0  0  3  0  0  0  0  0  0
  191.5880  176.7600  137.9660 O   0  0  0  0  0  1  0  0  0  0  0  0
  187.9180  178.8950  139.1170 C   0  0  0  0  0  2  0  0  0  0  0  0
  189.6720  177.6550  139.2190 C   0  0  2  0  0  0  0  0  0  0  0  0
  189.8010  176.1650  139.5310 C   0  0  0  0  0  2  0  0  0  0  0  0
  188.5680  177.6840  136.6790 C   0  0  0  0  0  2  0  0  0  0  0  0
  185.6060  178.5750  147.1570 C   0  0  0  0  0  2  0  0  0  0  0  0
  185.9820  179.9180  147.1750 O   0  0  0  0  0  1  0  0  0  0  0  0
  1  3  2  0  0  0  0
  1  4  1  0  0  0  0
  2  4  1  1  0  0  0
  2  5  1  0  0  0  0
  3 18  1  0  0  0  0
  4 10  2  0  0  0  0
  5 11  1  6  0  0  0
  5 17  1  0  0  0  0
  6 20  1  0  0  0  0
  6 19  1  0  0  0  0
  7 14  1  6  0  0  0
  7  2  1  0  0  0  0
  8  9  1  0  0  0  0
  9 11  2  0  0  0  0
 10 13  1  0  0  0  0
 10 12  1  0  0  0  0
 14 15  1  0  0  0  0
 15  1  1  0  0  0  0
 16 20  1  6  0  0  0
 16  7  1  0  0  0  0
 16  9  1  0  0  0  0
 17 12  1  0  0  0  0
 17 31  1  1  0  0  0
 18 13  2  0  0  0  0
 19  8  1  0  0  0  0
 21 29  1  0  0  0  0
 21 23  1  1  0  0  0
 22 24  1  0  0  0  0
 24 27  1  0  0  0  0
 24 28  1  0  0  0  0
 25 27  1  6  0  0  0
 25 15  1  0  0  0  0
 26 21  1  0  0  0  0
 28 21  1  0  0  0  0
 28 29  1  1  0  0  0
 28 25  1  0  0  0  0
 30 22  1  0  0  0  0
 30 24  1  0  0  0  0
 31 32  1  0  0  0  0
M  END
>  <MODEL>
7

>  <REMARK>
 VINA RESULT:      -8.8      1.704      4.932
  Name = 
  2 active torsions:
  status: ('A' for Active; 'I' for Inactive)
    1  A    between atoms: C_13  and  C_29
    2  A    between atoms: C_16  and  N_27
                            x       y       z     vdW  Elec       q    Type
                         _______ _______ _______ _____ _____    ______ ____

>  <TORSDO>
F 2

$$$$
=
 OpenBabel10272402043D

 32 39  0  0  1  0  0  0  0  0999 V2000
  187.2780  178.0680  140.4700 C   0  0  0  0  0  0  0  0  0  0  0  0
  189.3130  177.2020  141.6150 C   0  0  1  0  0  3  0  0  0  0  0  0
  186.5900  178.4350  139.3060 C   0  0  0  0  0  3  0  0  0  0  0  0
  188.6200  177.6730  140.3760 C   0  0  0  0  0  0  0  0  0  0  0  0
  190.7760  177.6070  141.6120 C   0  0  1  0  0  3  0  0  0  0  0  0
  189.7700  177.6630  146.5800 C   0  0  0  0  0  2  0  0  0  0  0  0
  188.6260  177.7600  142.8550 C   0  0  1  0  0  3  0  0  0  0  0  0
  191.5950  176.6490  145.1870 C   0  0  0  0  0  2  0  0  0  0  0  0
  190.8050  177.0470  143.9730 C   0  0  0  0  0  0  0  0  0  0  0  0
  189.2940  177.6890  139.1450 C   0  0  0  0  0  0  0  0  0  0  0  0
  191.4210  177.1780  142.8420 N   0  0  0  0  0  0  0  0  0  0  0  0
  190.7870  177.4730  139.0690 C   0  0  0  0  0  2  0  0  0  0  0  0
  188.5950  178.0620  137.9920 C   0  0  0  0  0  3  0  0  0  0  0  0
  187.2630  177.4050  142.7910 O   0  0  0  0  0  0  0  0  0  0  0  0
  186.7140  178.1740  141.8040 N   0  0  0  0  0  0  0  0  0  0  0  0
  189.2870  177.1600  144.0940 C   0  0  1  0  0  3  0  0  0  0  0  0
  191.4390  176.9790  140.3780 C   0  0  1  0  0  3  0  0  0  0  0  0
  187.2440  178.4170  138.0700 C   0  0  0  0  0  3  0  0  0  0  0  0
  190.6850  176.4520  146.3990 C   0  0  0  0  0  2  0  0  0  0  0  0
  188.8800  177.9360  145.3530 C   0  0  0  0  0  2  0  0  0  0  0  0
  183.3360  178.6300  140.8840 C   0  0  2  0  0  0  0  0  0  0  0  0
  183.1480  179.9160  143.8740 C   0  0  0  0  0  2  0  0  0  0  0  0
  183.8530  179.1310  139.5510 C   0  0  0  0  0  1  0  0  0  0  0  0
  184.0480  178.7300  143.5440 C   0  0  0  0  0  0  0  0  0  0  0  0
  185.7060  179.1630  142.2300 C   0  0  2  0  0  3  0  0  0  0  0  0
  181.9730  178.7420  141.1600 O   0  0  0  0  0  1  0  0  0  0  0  0
  185.4810  179.1940  143.7750 C   0  0  0  0  0  2  0  0  0  0  0  0
  184.2530  178.7120  142.0770 C   0  0  2  0  0  0  0  0  0  0  0  0
  183.9780  177.3610  141.4190 C   0  0  0  0  0  2  0  0  0  0  0  0
  182.8390  178.5670  144.4540 C   0  0  0  0  0  2  0  0  0  0  0  0
  192.9270  177.2930  140.3460 C   0  0  0  0  0  2  0  0  0  0  0  0
  193.4690  176.9130  139.1190 O   0  0  0  0  0  1  0  0  0  0  0  0
  1 15  1  0  0  0  0
  2  4  1  6  0  0  0
  2  7  1  0  0  0  0
  3  1  2  0  0  0  0
  4  1  1  0  0  0  0
  5  2  1  0  0  0  0
  5 11  1  1  0  0  0
  7 14  1  6  0  0  0
  7 16  1  0  0  0  0
  8 19  1  0  0  0  0
  9 16  1  0  0  0  0
  9  8  1  0  0  0  0
 10  4  2  0  0  0  0
 11  9  2  0  0  0  0
 12 10  1  0  0  0  0
 12 17  1  0  0  0  0
 13 18  2  0  0  0  0
 13 10  1  0  0  0  0
 15 14  1  0  0  0  0
 16 20  1  1  0  0  0
 17 31  1  6  0  0  0
 17  5  1  0  0  0  0
 18  3  1  0  0  0  0
 19  6  1  0  0  0  0
 20  6  1  0  0  0  0
 21 23  1  6  0  0  0
 21 26  1  0  0  0  0
 21 29  1  0  0  0  0
 21 28  1  0  0  0  0
 22 30  1  0  0  0  0
 24 27  1  0  0  0  0
 24 22  1  0  0  0  0
 24 30  1  0  0  0  0
 25 15  1  1  0  0  0
 25 27  1  0  0  0  0
 28 29  1  6  0  0  0
 28 25  1  0  0  0  0
 28 24  1  0  0  0  0
 32 31  1  0  0  0  0
M  END
>  <MODEL>
8

>  <REMARK>
 VINA RESULT:      -8.7      2.048      6.081
  Name = 
  2 active torsions:
  status: ('A' for Active; 'I' for Inactive)
    1  A    between atoms: C_13  and  C_29
    2  A    between atoms: C_16  and  N_27
                            x       y       z     vdW  Elec       q    Type
                         _______ _______ _______ _____ _____    ______ ____

>  <TORSDO>
F 2

$$$$
=
 OpenBabel10272402043D

 32 39  0  0  1  0  0  0  0  0999 V2000
  188.1480  177.9530  143.2530 C   0  0  0  0  0  0  0  0  0  0  0  0
  189.2380  178.1760  141.0240 C   0  0  1  0  0  3  0  0  0  0  0  0
  188.2180  177.7250  144.6340 C   0  0  0  0  0  3  0  0  0  0  0  0
  189.3130  177.8460  142.4810 C   0  0  0  0  0  0  0  0  0  0  0  0
  190.1660  177.2920  140.2130 C   0  0  1  0  0  3  0  0  0  0  0  0
  186.4500  178.1150  136.8660 C   0  0  0  0  0  2  0  0  0  0  0  0
  187.8080  178.0260  140.5180 C   0  0  1  0  0  3  0  0  0  0  0  0
  188.9520  178.2800  136.7600 C   0  0  0  0  0  2  0  0  0  0  0  0
  188.9670  178.0540  138.2460 C   0  0  0  0  0  0  0  0  0  0  0  0
  190.5340  177.4670  143.0630 C   0  0  0  0  0  0  0  0  0  0  0  0
  190.0470  177.5990  138.7970 N   0  0  0  0  0  0  0  0  0  0  0  0
  191.7380  177.1440  142.2110 C   0  0  0  0  0  2  0  0  0  0  0  0
  190.5880  177.2400  144.4420 C   0  0  0  0  0  3  0  0  0  0  0  0
  186.9750  178.8220  141.3300 O   0  0  0  0  0  0  0  0  0  0  0  0
  186.9050  178.1910  142.5400 N   0  0  0  0  0  0  0  0  0  0  0  0
  187.7530  178.4870  139.0630 C   0  0  1  0  0  3  0  0  0  0  0  0
  191.5980  177.5160  140.7200 C   0  0  1  0  0  3  0  0  0  0  0  0
  189.4380  177.3850  145.2270 C   0  0  0  0  0  3  0  0  0  0  0  0
  187.6330  178.9080  136.3100 C   0  0  0  0  0  2  0  0  0  0  0  0
  186.4430  178.0380  138.4030 C   0  0  0  0  0  2  0  0  0  0  0  0
  184.8810  178.7740  145.3730 C   0  0  2  0  0  0  0  0  0  0  0  0
  182.4930  178.0380  143.2780 C   0  0  0  0  0  2  0  0  0  0  0  0
  185.8860  177.9550  146.1560 C   0  0  0  0  0  1  0  0  0  0  0  0
  183.7480  178.7990  142.8610 C   0  0  0  0  0  0  0  0  0  0  0  0
  185.5830  177.6630  142.9270 C   0  0  2  0  0  3  0  0  0  0  0  0
  183.6970  179.1630  146.0000 O   0  0  0  0  0  1  0  0  0  0  0  0
  184.4760  177.9160  141.8540 C   0  0  0  0  0  2  0  0  0  0  0  0
  184.7890  178.5500  143.8850 C   0  0  2  0  0  0  0  0  0  0  0  0
  185.4550  179.8140  144.4250 C   0  0  0  0  0  2  0  0  0  0  0  0
  182.3850  179.4770  142.8680 C   0  0  0  0  0  2  0  0  0  0  0  0
  192.5930  176.7050  139.9050 C   0  0  0  0  0  2  0  0  0  0  0  0
  193.8560  177.2930  139.9710 O   0  0  0  0  0  1  0  0  0  0  0  0
  1  3  1  0  0  0  0
  2  4  1  1  0  0  0
  3 18  2  0  0  0  0
  4 10  1  0  0  0  0
  4  1  2  0  0  0  0
  5 11  1  6  0  0  0
  5 17  1  0  0  0  0
  5  2  1  0  0  0  0
  6 20  1  0  0  0  0
  7  2  1  0  0  0  0
  7 14  1  1  0  0  0
  8  9  1  0  0  0  0
  9 11  2  0  0  0  0
  9 16  1  0  0  0  0
 10 13  2  0  0  0  0
 12 10  1  0  0  0  0
 13 18  1  0  0  0  0
 14 15  1  0  0  0  0
 15 25  1  0  0  0  0
 15  1  1  0  0  0  0
 16 20  1  6  0  0  0
 16  7  1  0  0  0  0
 17 31  1  6  0  0  0
 17 12  1  0  0  0  0
 19  8  1  0  0  0  0
 19  6  1  0  0  0  0
 21 26  1  0  0  0  0
 21 23  1  1  0  0  0
 24 30  1  0  0  0  0
 24 22  1  0  0  0  0
 24 28  1  0  0  0  0
 25 27  1  6  0  0  0
 25 28  1  0  0  0  0
 27 24  1  0  0  0  0
 28 29  1  6  0  0  0
 28 21  1  0  0  0  0
 29 21  1  0  0  0  0
 30 22  1  0  0  0  0
 31 32  1  0  0  0  0
M  END
>  <MODEL>
9

>  <REMARK>
 VINA RESULT:      -8.6      1.917      7.629
  Name = 
  2 active torsions:
  status: ('A' for Active; 'I' for Inactive)
    1  A    between atoms: C_13  and  C_29
    2  A    between atoms: C_16  and  N_27
                            x       y       z     vdW  Elec       q    Type
                         _______ _______ _______ _____ _____    ______ ____

>  <TORSDO>
F 2

$$$$
