=
 OpenBabel10272400523D

 25 28  0  0  0  0  0  0  0  0999 V2000
  186.9840  178.0690  142.7570 N   0  0  0  0  0  0  0  0  0  0  0  0
  188.1770  177.6090  142.2780 C   0  0  0  0  0  0  0  0  0  0  0  0
  186.2710  178.8110  140.6210 C   0  0  0  0  0  3  0  0  0  0  0  0
  186.4470  178.0850  143.9890 C   0  0  0  0  0  0  0  0  0  0  0  0
  190.4430  176.9280  143.0730 C   0  0  0  0  0  0  0  0  0  0  0  0
  184.9040  178.3830  146.2670 C   0  0  0  0  0  3  0  0  0  0  0  0
  187.4410  178.3430  140.1070 N   0  0  0  0  0  0  0  0  0  0  0  0
  185.2160  178.6850  143.9120 C   0  0  0  0  0  0  0  0  0  0  0  0
  184.4100  178.8520  145.0350 C   0  0  0  0  0  3  0  0  0  0  0  0
  189.5980  177.2060  140.1770 C   0  0  0  0  0  0  0  0  0  0  0  0
  189.4400  176.7240  138.8470 N   0  0  0  0  0  1  0  0  0  0  0  0
  189.1160  176.9200  143.1930 C   0  0  0  0  0  3  0  0  0  0  0  0
  186.1740  177.7670  146.3460 C   0  0  0  0  0  3  0  0  0  0  0  0
  186.0520  178.6630  141.9810 C   0  0  0  0  0  0  0  0  0  0  0  0
  184.9390  179.0610  142.6460 N   0  0  0  0  0  0  0  0  0  0  0  0
  190.7880  177.1970  140.7000 N   0  0  0  0  0  0  0  0  0  0  0  0
  186.9660  177.6110  145.1940 C   0  0  0  0  0  3  0  0  0  0  0  0
  191.1170  177.7280  142.0140 C   0  0  0  0  0  2  0  0  0  0  0  0
  188.4090  177.7540  140.8780 C   0  0  0  0  0  0  0  0  0  0  0  0
  191.2700  176.1430  144.0350 C   0  0  0  0  0  2  0  0  0  0  0  0
  190.6400  177.9420  145.5500 C   0  0  0  0  0  2  0  0  0  0  0  0
  191.2840  176.7930  145.3830 C   0  0  0  0  0  0  0  0  0  0  0  0
  191.9490  176.1410  146.5240 C   0  0  0  0  0  0  0  0  0  0  0  0
  192.0480  176.7930  147.7480 O   0  0  0  0  0  1  0  0  0  0  0  0
  192.4380  174.9870  146.3990 O   0  0  0  0  0  0  0  0  0  0  0  0
  1  4  1  0  0  0  0
  2  1  1  0  0  0  0
  2 12  1  0  0  0  0
  3 14  1  0  0  0  0
  4 17  1  0  0  0  0
  5 12  2  0  0  0  0
  5 20  1  0  0  0  0
  6 13  1  0  0  0  0
  7  3  2  0  0  0  0
  7 19  1  0  0  0  0
  8  4  2  0  0  0  0
  8  9  1  0  0  0  0
  9  6  2  0  0  0  0
 10 16  2  0  0  0  0
 10 19  1  0  0  0  0
 11 10  1  0  0  0  0
 14 15  2  0  0  0  0
 14  1  1  0  0  0  0
 15  8  1  0  0  0  0
 16 18  1  0  0  0  0
 17 13  2  0  0  0  0
 18  5  1  0  0  0  0
 19  2  2  0  0  0  0
 20 22  1  0  0  0  0
 22 21  2  0  0  0  0
 22 23  1  0  0  0  0
 23 24  1  0  0  0  0
 25 23  2  0  0  0  0
M  END
>  <MODEL>
1

>  <REMARK>
 VINA RESULT:      -9.5      0.000      0.000
  Name = 
  3 active torsions:
  status: ('A' for Active; 'I' for Inactive)
    1  A    between atoms: C_2  and  C_25
    2  A    between atoms: C_6  and  C_15
    3  A    between atoms: C_15  and  C_25
                            x       y       z     vdW  Elec       q    Type
                         _______ _______ _______ _____ _____    ______ ____

>  <TORSDO>
F 3

$$$$
=
 OpenBabel10272400523D

 25 28  0  0  0  0  0  0  0  0999 V2000
  187.1030  177.8650  145.0130 N   0  0  0  0  0  0  0  0  0  0  0  0
  188.3000  177.5160  144.4560 C   0  0  0  0  0  0  0  0  0  0  0  0
  187.8700  177.4610  147.2200 C   0  0  0  0  0  3  0  0  0  0  0  0
  185.9400  178.2750  144.4790 C   0  0  0  0  0  0  0  0  0  0  0  0
  189.2890  176.8580  142.2620 C   0  0  0  0  0  0  0  0  0  0  0  0
  183.3660  179.1280  143.9230 C   0  0  0  0  0  3  0  0  0  0  0  0
  189.0820  177.1280  146.6990 N   0  0  0  0  0  0  0  0  0  0  0  0
  185.0470  178.4790  145.5000 C   0  0  0  0  0  0  0  0  0  0  0  0
  183.7450  178.9080  145.2610 C   0  0  0  0  0  3  0  0  0  0  0  0
  190.7320  176.8360  144.9250 C   0  0  0  0  0  0  0  0  0  0  0  0
  191.8010  177.1930  145.7950 N   0  0  0  0  0  1  0  0  0  0  0  0
  188.4870  177.6310  142.9910 C   0  0  0  0  0  3  0  0  0  0  0  0
  184.2860  178.9150  142.8710 C   0  0  0  0  0  3  0  0  0  0  0  0
  186.8670  177.8370  146.3420 C   0  0  0  0  0  0  0  0  0  0  0  0
  185.6110  178.2080  146.6960 N   0  0  0  0  0  0  0  0  0  0  0  0
  191.0160  176.2160  143.8190 N   0  0  0  0  0  0  0  0  0  0  0  0
  185.5960  178.4810  143.1420 C   0  0  0  0  0  3  0  0  0  0  0  0
  190.0300  175.7200  142.8720 C   0  0  0  0  0  2  0  0  0  0  0  0
  189.3400  177.1320  145.3530 C   0  0  0  0  0  0  0  0  0  0  0  0
  189.4270  177.1200  140.7990 C   0  0  0  0  0  2  0  0  0  0  0  0
  191.7540  177.7480  141.1480 C   0  0  0  0  0  2  0  0  0  0  0  0
  190.8660  177.1160  140.3890 C   0  0  0  0  0  0  0  0  0  0  0  0
  191.3050  176.3720  139.1960 C   0  0  0  0  0  0  0  0  0  0  0  0
  192.5390  176.6390  138.6140 O   0  0  0  0  0  0  0  0  0  0  0  0
  190.5630  175.4880  138.6910 O   0  0  0  0  0  1  0  0  0  0  0  0
  1 14  1  0  0  0  0
  2  1  1  0  0  0  0
  2 19  2  0  0  0  0
  4  1  1  0  0  0  0
  4  8  1  0  0  0  0
  5 18  1  0  0  0  0
  5 12  2  0  0  0  0
  6  9  1  0  0  0  0
  7  3  2  0  0  0  0
  8 15  1  0  0  0  0
  9  8  2  0  0  0  0
 10 19  1  0  0  0  0
 10 11  1  0  0  0  0
 12  2  1  0  0  0  0
 13 17  1  0  0  0  0
 13  6  2  0  0  0  0
 14 15  2  0  0  0  0
 14  3  1  0  0  0  0
 16 10  2  0  0  0  0
 17  4  2  0  0  0  0
 18 16  1  0  0  0  0
 19  7  1  0  0  0  0
 20  5  1  0  0  0  0
 22 20  1  0  0  0  0
 22 21  2  0  0  0  0
 23 22  1  0  0  0  0
 24 23  2  0  0  0  0
 25 23  1  0  0  0  0
M  END
>  <MODEL>
2

>  <REMARK>
 VINA RESULT:      -9.4      3.185      4.733
  Name = 
  3 active torsions:
  status: ('A' for Active; 'I' for Inactive)
    1  A    between atoms: C_2  and  C_25
    2  A    between atoms: C_6  and  C_15
    3  A    between atoms: C_15  and  C_25
                            x       y       z     vdW  Elec       q    Type
                         _______ _______ _______ _____ _____    ______ ____

>  <TORSDO>
F 3

$$$$
=
 OpenBabel10272400523D

 25 28  0  0  0  0  0  0  0  0999 V2000
  186.3200  178.2170  145.1080 N   0  0  0  0  0  0  0  0  0  0  0  0
  186.2970  178.0800  143.7500 C   0  0  0  0  0  0  0  0  0  0  0  0
  184.1160  179.0880  145.1840 C   0  0  0  0  0  3  0  0  0  0  0  0
  187.2610  177.9500  146.0310 C   0  0  0  0  0  0  0  0  0  0  0  0
  187.8420  177.7730  141.8150 C   0  0  0  0  0  0  0  0  0  0  0  0
  188.8110  177.6050  148.2980 C   0  0  0  0  0  3  0  0  0  0  0  0
  184.0520  178.9450  143.8330 N   0  0  0  0  0  0  0  0  0  0  0  0
  186.7630  178.2900  147.2620 C   0  0  0  0  0  0  0  0  0  0  0  0
  187.5110  178.1310  148.4260 C   0  0  0  0  0  3  0  0  0  0  0  0
  184.8600  178.2740  141.6310 C   0  0  0  0  0  0  0  0  0  0  0  0
  183.5430  177.9600  141.1900 N   0  0  0  0  0  1  0  0  0  0  0  0
  187.4570  177.4780  143.0550 C   0  0  0  0  0  3  0  0  0  0  0  0
  189.3240  177.2570  147.0280 C   0  0  0  0  0  3  0  0  0  0  0  0
  185.2860  178.7100  145.8230 C   0  0  0  0  0  0  0  0  0  0  0  0
  185.5080  178.7760  147.1600 N   0  0  0  0  0  0  0  0  0  0  0  0
  185.7880  178.4340  140.7350 N   0  0  0  0  0  0  0  0  0  0  0  0
  188.5450  177.4290  145.8690 C   0  0  0  0  0  3  0  0  0  0  0  0
  187.1560  178.8330  141.0260 C   0  0  0  0  0  2  0  0  0  0  0  0
  185.0950  178.4640  143.0850 C   0  0  0  0  0  0  0  0  0  0  0  0
  188.9990  177.0460  141.2140 C   0  0  0  0  0  2  0  0  0  0  0  0
  190.0280  175.6640  142.9340 C   0  0  0  0  0  2  0  0  0  0  0  0
  190.0610  176.7940  142.2370 C   0  0  0  0  0  0  0  0  0  0  0  0
  191.1630  177.7520  142.4290 C   0  0  0  0  0  0  0  0  0  0  0  0
  191.1340  178.6570  143.4840 O   0  0  0  0  0  1  0  0  0  0  0  0
  192.1400  177.7620  141.6340 O   0  0  0  0  0  0  0  0  0  0  0  0
  1 14  1  0  0  0  0
  1  4  1  0  0  0  0
  2  1  1  0  0  0  0
  3 14  1  0  0  0  0
  4  8  1  0  0  0  0
  5 12  2  0  0  0  0
  6  9  1  0  0  0  0
  7  3  2  0  0  0  0
  8  9  2  0  0  0  0
 10 19  1  0  0  0  0
 11 10  1  0  0  0  0
 12  2  1  0  0  0  0
 13  6  2  0  0  0  0
 14 15  2  0  0  0  0
 15  8  1  0  0  0  0
 16 18  1  0  0  0  0
 16 10  2  0  0  0  0
 17  4  2  0  0  0  0
 17 13  1  0  0  0  0
 18  5  1  0  0  0  0
 19  2  2  0  0  0  0
 19  7  1  0  0  0  0
 20  5  1  0  0  0  0
 20 22  1  0  0  0  0
 22 23  1  0  0  0  0
 22 21  2  0  0  0  0
 23 24  1  0  0  0  0
 25 23  2  0  0  0  0
M  END
>  <MODEL>
3

>  <REMARK>
 VINA RESULT:      -9.4      2.349      4.120
  Name = 
  3 active torsions:
  status: ('A' for Active; 'I' for Inactive)
    1  A    between atoms: C_2  and  C_25
    2  A    between atoms: C_6  and  C_15
    3  A    between atoms: C_15  and  C_25
                            x       y       z     vdW  Elec       q    Type
                         _______ _______ _______ _____ _____    ______ ____

>  <TORSDO>
F 3

$$$$
=
 OpenBabel10272400523D

 25 28  0  0  0  0  0  0  0  0999 V2000
  187.0650  178.0980  142.0930 N   0  0  0  0  0  0  0  0  0  0  0  0
  187.9900  177.6830  143.0070 C   0  0  0  0  0  0  0  0  0  0  0  0
  188.6800  178.3160  140.3710 C   0  0  0  0  0  3  0  0  0  0  0  0
  185.7380  178.3020  142.1730 C   0  0  0  0  0  0  0  0  0  0  0  0
  188.2860  177.4250  145.4720 C   0  0  0  0  0  0  0  0  0  0  0  0
  183.0590  178.8810  141.7910 C   0  0  0  0  0  3  0  0  0  0  0  0
  189.6240  177.8840  141.2510 N   0  0  0  0  0  0  0  0  0  0  0  0
  185.2970  178.7370  140.9500 C   0  0  0  0  0  0  0  0  0  0  0  0
  183.9570  179.0380  140.7180 C   0  0  0  0  0  3  0  0  0  0  0  0
  190.4430  177.0240  143.3830 C   0  0  0  0  0  0  0  0  0  0  0  0
  191.4660  176.2710  142.7400 N   0  0  0  0  0  1  0  0  0  0  0  0
  187.5520  177.2980  144.3690 C   0  0  0  0  0  3  0  0  0  0  0  0
  183.5160  178.4350  143.0520 C   0  0  0  0  0  3  0  0  0  0  0  0
  187.3730  178.4200  140.8190 C   0  0  0  0  0  0  0  0  0  0  0  0
  186.3160  178.8200  140.0690 N   0  0  0  0  0  0  0  0  0  0  0  0
  190.5510  177.2490  144.6580 N   0  0  0  0  0  0  0  0  0  0  0  0
  184.8750  178.1380  143.2570 C   0  0  0  0  0  3  0  0  0  0  0  0
  189.6300  178.0650  145.4340 C   0  0  0  0  0  2  0  0  0  0  0  0
  189.3370  177.5700  142.5540 C   0  0  0  0  0  0  0  0  0  0  0  0
  187.7420  176.9420  146.7750 C   0  0  0  0  0  2  0  0  0  0  0  0
  188.0960  178.4770  148.6310 C   0  0  0  0  0  2  0  0  0  0  0  0
  187.3120  178.0900  147.6320 C   0  0  0  0  0  0  0  0  0  0  0  0
  186.0680  178.8230  147.3390 C   0  0  0  0  0  0  0  0  0  0  0  0
  184.9850  178.1690  146.7620 O   0  0  0  0  0  0  0  0  0  0  0  0
  185.9770  180.0500  147.6040 O   0  0  0  0  0  1  0  0  0  0  0  0
  1  4  1  0  0  0  0
  1  2  1  0  0  0  0
  2 12  1  0  0  0  0
  3 14  1  0  0  0  0
  3  7  2  0  0  0  0
  4 17  1  0  0  0  0
  5 20  1  0  0  0  0
  6 13  1  0  0  0  0
  7 19  1  0  0  0  0
  8  4  2  0  0  0  0
  9  8  1  0  0  0  0
  9  6  2  0  0  0  0
 10 16  2  0  0  0  0
 11 10  1  0  0  0  0
 12  5  2  0  0  0  0
 13 17  2  0  0  0  0
 14  1  1  0  0  0  0
 15 14  2  0  0  0  0
 15  8  1  0  0  0  0
 16 18  1  0  0  0  0
 18  5  1  0  0  0  0
 19  2  2  0  0  0  0
 19 10  1  0  0  0  0
 20 22  1  0  0  0  0
 22 21  2  0  0  0  0
 23 25  1  0  0  0  0
 23 22  1  0  0  0  0
 24 23  2  0  0  0  0
M  END
>  <MODEL>
4

>  <REMARK>
 VINA RESULT:      -9.3      2.618      4.045
  Name = 
  3 active torsions:
  status: ('A' for Active; 'I' for Inactive)
    1  A    between atoms: C_2  and  C_25
    2  A    between atoms: C_6  and  C_15
    3  A    between atoms: C_15  and  C_25
                            x       y       z     vdW  Elec       q    Type
                         _______ _______ _______ _____ _____    ______ ____

>  <TORSDO>
F 3

$$$$
=
 OpenBabel10272400523D

 25 28  0  0  0  0  0  0  0  0999 V2000
  189.6960  177.3280  143.6500 N   0  0  0  0  0  0  0  0  0  0  0  0
  188.7280  177.3800  144.6100 C   0  0  0  0  0  0  0  0  0  0  0  0
  191.4410  177.1310  145.2430 C   0  0  0  0  0  3  0  0  0  0  0  0
  189.6460  177.3770  142.3080 C   0  0  0  0  0  0  0  0  0  0  0  0
  186.3400  178.0430  144.9090 C   0  0  0  0  0  0  0  0  0  0  0  0
  190.1130  177.4400  139.5800 C   0  0  0  0  0  3  0  0  0  0  0  0
  190.4990  177.1590  146.2250 N   0  0  0  0  0  0  0  0  0  0  0  0
  190.9280  177.2950  141.8270 C   0  0  0  0  0  0  0  0  0  0  0  0
  191.2030  177.3230  140.4620 C   0  0  0  0  0  3  0  0  0  0  0  0
  188.2320  177.2120  147.1250 C   0  0  0  0  0  0  0  0  0  0  0  0
  188.6070  176.4180  148.2450 N   0  0  0  0  0  1  0  0  0  0  0  0
  187.3030  177.4450  144.2110 C   0  0  0  0  0  3  0  0  0  0  0  0
  188.7920  177.5260  140.0770 C   0  0  0  0  0  3  0  0  0  0  0  0
  191.0130  177.2180  143.9290 C   0  0  0  0  0  0  0  0  0  0  0  0
  191.8180  177.1930  142.8370 N   0  0  0  0  0  0  0  0  0  0  0  0
  187.1200  177.8810  147.1870 N   0  0  0  0  0  0  0  0  0  0  0  0
  188.5440  177.4950  141.4610 C   0  0  0  0  0  3  0  0  0  0  0  0
  186.6460  178.7940  146.1580 C   0  0  0  0  0  2  0  0  0  0  0  0
  189.1590  177.2870  145.9670 C   0  0  0  0  0  0  0  0  0  0  0  0
  184.9330  177.9830  144.4180 C   0  0  0  0  0  2  0  0  0  0  0  0
  184.4120  180.2860  143.8270 C   0  0  0  0  0  2  0  0  0  0  0  0
  184.6730  179.0550  143.4060 C   0  0  0  0  0  0  0  0  0  0  0  0
  184.7680  178.7660  141.9650 C   0  0  0  0  0  0  0  0  0  0  0  0
  185.5810  179.5390  141.1440 O   0  0  0  0  0  0  0  0  0  0  0  0
  184.1070  177.8180  141.4640 O   0  0  0  0  0  1  0  0  0  0  0  0
  1 14  1  0  0  0  0
  1  2  1  0  0  0  0
  2 19  2  0  0  0  0
  3  7  2  0  0  0  0
  4  1  1  0  0  0  0
  5 18  1  0  0  0  0
  6 13  2  0  0  0  0
  6  9  1  0  0  0  0
  8  4  1  0  0  0  0
  8 15  1  0  0  0  0
  9  8  2  0  0  0  0
 10 16  2  0  0  0  0
 10 11  1  0  0  0  0
 12  2  1  0  0  0  0
 12  5  2  0  0  0  0
 13 17  1  0  0  0  0
 14  3  1  0  0  0  0
 15 14  2  0  0  0  0
 17  4  2  0  0  0  0
 18 16  1  0  0  0  0
 19  7  1  0  0  0  0
 19 10  1  0  0  0  0
 20  5  1  0  0  0  0
 22 21  2  0  0  0  0
 22 20  1  0  0  0  0
 23 22  1  0  0  0  0
 24 23  2  0  0  0  0
 25 23  1  0  0  0  0
M  END
>  <MODEL>
5

>  <REMARK>
 VINA RESULT:      -8.8      3.558      6.800
  Name = 
  3 active torsions:
  status: ('A' for Active; 'I' for Inactive)
    1  A    between atoms: C_2  and  C_25
    2  A    between atoms: C_6  and  C_15
    3  A    between atoms: C_15  and  C_25
                            x       y       z     vdW  Elec       q    Type
                         _______ _______ _______ _____ _____    ______ ____

>  <TORSDO>
F 3

$$$$
=
 OpenBabel10272400523D

 25 28  0  0  0  0  0  0  0  0999 V2000
  188.2530  177.5150  142.5620 N   0  0  0  0  0  0  0  0  0  0  0  0
  188.7600  177.5370  141.2950 C   0  0  0  0  0  0  0  0  0  0  0  0
  190.2120  176.5290  143.4640 C   0  0  0  0  0  3  0  0  0  0  0  0
  187.0750  177.9100  143.0750 C   0  0  0  0  0  0  0  0  0  0  0  0
  188.0180  177.7710  138.9240 C   0  0  0  0  0  0  0  0  0  0  0  0
  184.8650  178.5290  144.6230 C   0  0  0  0  0  3  0  0  0  0  0  0
  190.7550  176.5550  142.2160 N   0  0  0  0  0  0  0  0  0  0  0  0
  187.0820  177.6450  144.4210 C   0  0  0  0  0  0  0  0  0  0  0  0
  185.9900  177.9420  145.2330 C   0  0  0  0  0  3  0  0  0  0  0  0
  190.8250  177.0870  139.8360 C   0  0  0  0  0  0  0  0  0  0  0  0
  192.2340  177.2880  139.8730 N   0  0  0  0  0  1  0  0  0  0  0  0
  187.9690  178.1450  140.2010 C   0  0  0  0  0  3  0  0  0  0  0  0
  184.8580  178.7990  143.2360 C   0  0  0  0  0  3  0  0  0  0  0  0
  188.9280  177.0250  143.6240 C   0  0  0  0  0  0  0  0  0  0  0  0
  188.2500  177.0820  144.7970 N   0  0  0  0  0  0  0  0  0  0  0  0
  190.2570  176.9060  138.6810 N   0  0  0  0  0  0  0  0  0  0  0  0
  185.9750  178.4890  142.4400 C   0  0  0  0  0  3  0  0  0  0  0  0
  188.8460  176.6110  138.4910 C   0  0  0  0  0  2  0  0  0  0  0  0
  190.0820  177.0310  141.1210 C   0  0  0  0  0  0  0  0  0  0  0  0
  187.2080  178.5100  137.9120 C   0  0  0  0  0  2  0  0  0  0  0  0
  185.4510  177.0500  137.0700 C   0  0  0  0  0  2  0  0  0  0  0  0
  185.7920  178.0250  137.9030 C   0  0  0  0  0  0  0  0  0  0  0  0
  184.8040  178.5760  138.8460 C   0  0  0  0  0  0  0  0  0  0  0  0
  184.8570  179.9130  139.2200 O   0  0  0  0  0  0  0  0  0  0  0  0
  183.9040  177.8360  139.3250 O   0  0  0  0  0  1  0  0  0  0  0  0
  1  4  1  0  0  0  0
  1 14  1  0  0  0  0
  2  1  1  0  0  0  0
  3 14  1  0  0  0  0
  4  8  1  0  0  0  0
  5 12  2  0  0  0  0
  6  9  1  0  0  0  0
  7  3  2  0  0  0  0
  8 15  1  0  0  0  0
  8  9  2  0  0  0  0
 10 11  1  0  0  0  0
 10 19  1  0  0  0  0
 12  2  1  0  0  0  0
 13  6  2  0  0  0  0
 14 15  2  0  0  0  0
 16 10  2  0  0  0  0
 17  4  2  0  0  0  0
 17 13  1  0  0  0  0
 18 16  1  0  0  0  0
 18  5  1  0  0  0  0
 19  2  2  0  0  0  0
 19  7  1  0  0  0  0
 20  5  1  0  0  0  0
 21 22  2  0  0  0  0
 22 20  1  0  0  0  0
 22 23  1  0  0  0  0
 23 24  2  0  0  0  0
 23 25  1  0  0  0  0
M  END
>  <MODEL>
6

>  <REMARK>
 VINA RESULT:      -8.7      3.655      5.723
  Name = 
  3 active torsions:
  status: ('A' for Active; 'I' for Inactive)
    1  A    between atoms: C_2  and  C_25
    2  A    between atoms: C_6  and  C_15
    3  A    between atoms: C_15  and  C_25
                            x       y       z     vdW  Elec       q    Type
                         _______ _______ _______ _____ _____    ______ ____

>  <TORSDO>
F 3

$$$$
=
 OpenBabel10272400523D

 25 28  0  0  0  0  0  0  0  0999 V2000
  187.1280  178.3050  140.5520 N   0  0  0  0  0  0  0  0  0  0  0  0
  186.9470  178.3590  141.9040 C   0  0  0  0  0  0  0  0  0  0  0  0
  184.8660  178.8570  140.1020 C   0  0  0  0  0  3  0  0  0  0  0  0
  188.2010  178.0320  139.7900 C   0  0  0  0  0  0  0  0  0  0  0  0
  188.0350  177.6260  144.0270 C   0  0  0  0  0  0  0  0  0  0  0  0
  190.0480  177.5450  137.7880 C   0  0  0  0  0  3  0  0  0  0  0  0
  184.6570  178.9400  141.4440 N   0  0  0  0  0  0  0  0  0  0  0  0
  187.8230  178.1030  138.4740 C   0  0  0  0  0  0  0  0  0  0  0  0
  188.7220  177.8650  137.4380 C   0  0  0  0  0  3  0  0  0  0  0  0
  185.3020  178.9130  143.7970 C   0  0  0  0  0  0  0  0  0  0  0  0
  184.3300  179.9010  144.1240 N   0  0  0  0  0  1  0  0  0  0  0  0
  188.1040  178.1520  142.8060 C   0  0  0  0  0  3  0  0  0  0  0  0
  190.4370  177.4710  139.1440 C   0  0  0  0  0  3  0  0  0  0  0  0
  186.1380  178.5300  139.6620 C   0  0  0  0  0  0  0  0  0  0  0  0
  186.5150  178.4190  138.3630 N   0  0  0  0  0  0  0  0  0  0  0  0
  185.8100  178.2040  144.7600 N   0  0  0  0  0  0  0  0  0  0  0  0
  189.5060  177.7160  140.1700 C   0  0  0  0  0  3  0  0  0  0  0  0
  186.7500  177.1100  144.5740 C   0  0  0  0  0  2  0  0  0  0  0  0
  185.6410  178.6980  142.3670 C   0  0  0  0  0  0  0  0  0  0  0  0
  189.2740  177.5280  144.8530 C   0  0  0  0  0  2  0  0  0  0  0  0
  191.2220  178.3890  143.6730 C   0  0  0  0  0  2  0  0  0  0  0  0
  190.4800  177.3340  143.9880 C   0  0  0  0  0  0  0  0  0  0  0  0
  190.8750  175.9880  143.5420 C   0  0  0  0  0  0  0  0  0  0  0  0
  192.0020  175.3720  144.0740 O   0  0  0  0  0  1  0  0  0  0  0  0
  190.1970  175.3840  142.6700 O   0  0  0  0  0  0  0  0  0  0  0  0
  1  2  1  0  0  0  0
  2 19  2  0  0  0  0
  2 12  1  0  0  0  0
  3  7  2  0  0  0  0
  4 17  1  0  0  0  0
  4  1  1  0  0  0  0
  5 18  1  0  0  0  0
  5 20  1  0  0  0  0
  6 13  1  0  0  0  0
  7 19  1  0  0  0  0
  8  4  2  0  0  0  0
  9  6  2  0  0  0  0
  9  8  1  0  0  0  0
 10 11  1  0  0  0  0
 10 16  2  0  0  0  0
 12  5  2  0  0  0  0
 13 17  2  0  0  0  0
 14  3  1  0  0  0  0
 14  1  1  0  0  0  0
 15  8  1  0  0  0  0
 15 14  2  0  0  0  0
 18 16  1  0  0  0  0
 19 10  1  0  0  0  0
 21 22  2  0  0  0  0
 22 20  1  0  0  0  0
 23 22  1  0  0  0  0
 23 24  1  0  0  0  0
 25 23  2  0  0  0  0
M  END
>  <MODEL>
7

>  <REMARK>
 VINA RESULT:      -8.6      1.942      5.009
  Name = 
  3 active torsions:
  status: ('A' for Active; 'I' for Inactive)
    1  A    between atoms: C_2  and  C_25
    2  A    between atoms: C_6  and  C_15
    3  A    between atoms: C_15  and  C_25
                            x       y       z     vdW  Elec       q    Type
                         _______ _______ _______ _____ _____    ______ ____

>  <TORSDO>
F 3

$$$$
=
 OpenBabel10272400523D

 25 28  0  0  0  0  0  0  0  0999 V2000
  186.7520  178.1740  142.5770 N   0  0  0  0  0  0  0  0  0  0  0  0
  186.6150  178.4520  141.2480 C   0  0  0  0  0  0  0  0  0  0  0  0
  188.9440  177.3130  142.2990 C   0  0  0  0  0  3  0  0  0  0  0  0
  185.9290  178.3360  143.6280 C   0  0  0  0  0  0  0  0  0  0  0  0
  184.8530  178.9520  139.5530 C   0  0  0  0  0  0  0  0  0  0  0  0
  184.6610  178.4320  146.0860 C   0  0  0  0  0  3  0  0  0  0  0  0
  188.8480  177.5980  140.9720 N   0  0  0  0  0  0  0  0  0  0  0  0
  186.5670  177.8720  144.7490 C   0  0  0  0  0  0  0  0  0  0  0  0
  185.9640  177.9030  146.0030 C   0  0  0  0  0  3  0  0  0  0  0  0
  187.7890  178.4920  138.9640 C   0  0  0  0  0  0  0  0  0  0  0  0
  189.0460  178.8580  138.4060 N   0  0  0  0  0  1  0  0  0  0  0  0
  185.3840  179.1180  140.7620 C   0  0  0  0  0  3  0  0  0  0  0  0
  184.0040  178.9080  144.9300 C   0  0  0  0  0  3  0  0  0  0  0  0
  187.8610  177.6150  143.1080 C   0  0  0  0  0  0  0  0  0  0  0  0
  187.7990  177.4080  144.4470 N   0  0  0  0  0  0  0  0  0  0  0  0
  186.7590  178.4200  138.1730 N   0  0  0  0  0  0  0  0  0  0  0  0
  184.6380  178.8640  143.6750 C   0  0  0  0  0  3  0  0  0  0  0  0
  185.4330  177.9840  138.5810 C   0  0  0  0  0  2  0  0  0  0  0  0
  187.7270  178.1480  140.4080 C   0  0  0  0  0  0  0  0  0  0  0  0
  183.6380  179.7310  139.1730 C   0  0  0  0  0  2  0  0  0  0  0  0
  181.8210  178.8090  137.8390 C   0  0  0  0  0  2  0  0  0  0  0  0
  182.4560  178.8280  139.0050 C   0  0  0  0  0  0  0  0  0  0  0  0
  182.0370  177.9280  140.0930 C   0  0  0  0  0  0  0  0  0  0  0  0
  181.6960  178.4410  141.3390 O   0  0  0  0  0  1  0  0  0  0  0  0
  181.9900  176.6840  139.9040 O   0  0  0  0  0  0  0  0  0  0  0  0
  1 14  1  0  0  0  0
  1  4  1  0  0  0  0
  2  1  1  0  0  0  0
  3 14  1  0  0  0  0
  4 17  2  0  0  0  0
  4  8  1  0  0  0  0
  5 12  2  0  0  0  0
  7  3  2  0  0  0  0
  8  9  2  0  0  0  0
  9  6  1  0  0  0  0
 10 19  1  0  0  0  0
 11 10  1  0  0  0  0
 12  2  1  0  0  0  0
 13  6  2  0  0  0  0
 14 15  2  0  0  0  0
 15  8  1  0  0  0  0
 16 18  1  0  0  0  0
 16 10  2  0  0  0  0
 17 13  1  0  0  0  0
 18  5  1  0  0  0  0
 19  7  1  0  0  0  0
 19  2  2  0  0  0  0
 20  5  1  0  0  0  0
 21 22  2  0  0  0  0
 22 20  1  0  0  0  0
 22 23  1  0  0  0  0
 23 24  1  0  0  0  0
 25 23  2  0  0  0  0
M  END
>  <MODEL>
8

>  <REMARK>
 VINA RESULT:      -8.5      4.070      6.391
  Name = 
  3 active torsions:
  status: ('A' for Active; 'I' for Inactive)
    1  A    between atoms: C_2  and  C_25
    2  A    between atoms: C_6  and  C_15
    3  A    between atoms: C_15  and  C_25
                            x       y       z     vdW  Elec       q    Type
                         _______ _______ _______ _____ _____    ______ ____

>  <TORSDO>
F 3

$$$$
=
 OpenBabel10272400523D

 25 28  0  0  0  0  0  0  0  0999 V2000
  189.1960  177.4230  143.6860 N   0  0  0  0  0  0  0  0  0  0  0  0
  189.5110  177.5040  142.3600 C   0  0  0  0  0  0  0  0  0  0  0  0
  191.3850  176.7450  144.2930 C   0  0  0  0  0  3  0  0  0  0  0  0
  188.0570  177.6470  144.3630 C   0  0  0  0  0  0  0  0  0  0  0  0
  188.4160  177.5990  140.1200 C   0  0  0  0  0  0  0  0  0  0  0  0
  186.0200  177.9540  146.2130 C   0  0  0  0  0  3  0  0  0  0  0  0
  191.7380  176.8360  142.9820 N   0  0  0  0  0  0  0  0  0  0  0  0
  188.2920  177.4020  145.6920 C   0  0  0  0  0  0  0  0  0  0  0  0
  187.2940  177.5460  146.6530 C   0  0  0  0  0  3  0  0  0  0  0  0
  191.3930  177.3440  140.6210 C   0  0  0  0  0  0  0  0  0  0  0  0
  192.7490  177.7500  140.4610 N   0  0  0  0  0  1  0  0  0  0  0  0
  188.4930  177.9770  141.3940 C   0  0  0  0  0  3  0  0  0  0  0  0
  185.7790  178.2040  144.8430 C   0  0  0  0  0  3  0  0  0  0  0  0
  190.0790  177.0490  144.6370 C   0  0  0  0  0  0  0  0  0  0  0  0
  189.5710  177.0210  145.8950 N   0  0  0  0  0  0  0  0  0  0  0  0
  190.7020  177.0690  139.5560 N   0  0  0  0  0  0  0  0  0  0  0  0
  186.8060  178.0510  143.8940 C   0  0  0  0  0  3  0  0  0  0  0  0
  189.3360  176.5680  139.5640 C   0  0  0  0  0  2  0  0  0  0  0  0
  190.8550  177.1960  141.9970 C   0  0  0  0  0  0  0  0  0  0  0  0
  187.3720  178.2000  139.2390 C   0  0  0  0  0  2  0  0  0  0  0  0
  186.8720  176.9030  137.2400 C   0  0  0  0  0  2  0  0  0  0  0  0
  187.6150  177.8470  137.8050 C   0  0  0  0  0  0  0  0  0  0  0  0
  188.6190  178.5750  137.0120 C   0  0  0  0  0  0  0  0  0  0  0  0
  189.0430  179.8400  137.4030 O   0  0  0  0  0  1  0  0  0  0  0  0
  189.1000  178.0590  135.9680 O   0  0  0  0  0  0  0  0  0  0  0  0
  1  4  1  0  0  0  0
  1 14  1  0  0  0  0
  2  1  1  0  0  0  0
  3 14  1  0  0  0  0
  4  8  1  0  0  0  0
  5 12  2  0  0  0  0
  6  9  1  0  0  0  0
  7  3  2  0  0  0  0
  8 15  1  0  0  0  0
  8  9  2  0  0  0  0
 10 19  1  0  0  0  0
 11 10  1  0  0  0  0
 12  2  1  0  0  0  0
 13  6  2  0  0  0  0
 14 15  2  0  0  0  0
 16 18  1  0  0  0  0
 16 10  2  0  0  0  0
 17  4  2  0  0  0  0
 17 13  1  0  0  0  0
 18  5  1  0  0  0  0
 19  2  2  0  0  0  0
 19  7  1  0  0  0  0
 20  5  1  0  0  0  0
 21 22  2  0  0  0  0
 22 20  1  0  0  0  0
 23 24  1  0  0  0  0
 23 22  1  0  0  0  0
 25 23  2  0  0  0  0
M  END
>  <MODEL>
9

>  <REMARK>
 VINA RESULT:      -8.5      3.673      5.640
  Name = 
  3 active torsions:
  status: ('A' for Active; 'I' for Inactive)
    1  A    between atoms: C_2  and  C_25
    2  A    between atoms: C_6  and  C_15
    3  A    between atoms: C_15  and  C_25
                            x       y       z     vdW  Elec       q    Type
                         _______ _______ _______ _____ _____    ______ ____

>  <TORSDO>
F 3

$$$$
