=
 OpenBabel10272414483D

 37 41  0  0  1  0  0  0  0  0999 V2000
  186.7630  177.4580  137.7190 C   0  0  1  0  0  0  0  0  0  0  0  0
  184.9470  175.0710  135.8150 C   0  0  0  0  0  0  0  0  0  0  0  0
  187.9060  173.3270  136.4150 C   0  0  0  0  0  2  0  0  0  0  0  0
  186.5830  178.0370  139.1000 N   0  0  0  0  0  0  0  0  0  0  0  0
  191.1680  176.4900  136.9560 C   0  0  0  0  0  2  0  0  0  0  0  0
  185.4700  172.6230  135.2400 C   0  0  0  0  0  2  0  0  0  0  0  0
  189.6070  176.8060  135.0150 C   0  0  0  0  0  1  0  0  0  0  0  0
  188.8990  177.7470  139.4880 C   0  0  1  0  0  3  0  0  0  0  0  0
  187.3630  174.3660  135.4430 C   0  0  0  0  0  2  0  0  0  0  0  0
  191.2640  174.0980  136.4270 C   0  0  0  0  0  0  0  0  0  0  0  0
  186.2710  171.5890  134.4340 C   0  0  0  0  0  2  0  0  0  0  0  0
  187.7780  178.7670  139.5180 C   0  0  2  0  0  3  0  0  0  0  0  0
  185.4150  177.3680  136.9640 C   0  0  0  0  0  2  0  0  0  0  0  0
  184.7710  174.6260  137.2700 C   0  0  0  0  0  1  0  0  0  0  0  0
  189.9750  172.3720  135.3490 C   0  0  0  0  0  2  0  0  0  0  0  0
  187.7870  171.8190  134.3460 C   0  0  0  0  0  2  0  0  0  0  0  0
  185.4780  176.5200  135.6880 C   0  0  0  0  0  2  0  0  0  0  0  0
  189.7320  178.4170  138.4260 C   0  0  0  0  0  2  0  0  0  0  0  0
  189.7120  176.7830  136.5380 C   0  0  2  0  0  3  0  0  0  0  0  0
  188.5030  172.1210  135.6740 C   0  0  2  0  0  3  0  0  0  0  0  0
  187.7710  178.2850  136.8310 C   0  0  0  0  0  2  0  0  0  0  0  0
  185.8940  174.1030  135.0640 C   0  0  2  0  0  3  0  0  0  0  0  0
  191.7830  175.2940  136.2890 C   0  0  0  0  0  0  0  0  0  0  0  0
  183.5810  175.0350  135.1540 C   0  0  0  0  0  1  0  0  0  0  0  0
  189.2320  178.0750  137.0680 N   0  0  1  0  0  0  0  0  0  0  0  0
  188.4660  178.3820  140.7990 C   0  0  0  0  0  2  0  0  0  0  0  0
  187.2460  176.1550  137.8680 O   0  0  0  0  0  1  0  0  0  0  0  0
  190.7490  172.9020  136.5120 C   0  0  0  0  0  3  0  0  0  0  0  0
  193.9290  174.2910  135.4880 C   0  0  0  0  0  2  0  0  0  0  0  0
  193.0020  175.5090  135.4450 C   0  0  2  0  0  3  0  0  0  0  0  0
  193.7500  176.7770  135.8620 C   0  0  0  0  0  2  0  0  0  0  0  0
  195.6890  178.1710  135.4060 N   0  0  0  0  0  1  0  0  0  0  0  0
  195.8920  175.7760  135.0370 C   0  0  0  0  0  2  0  0  0  0  0  0
  194.9690  176.9890  134.9690 C   0  0  1  0  0  3  0  0  0  0  0  0
  195.1450  174.5210  134.5950 C   0  0  0  0  0  2  0  0  0  0  0  0
  185.2490  179.3830  140.6130 N   0  0  0  0  0  1  0  0  0  0  0  0
  185.4400  178.9580  139.2320 C   0  0  0  0  0  2  0  0  0  0  0  0
  1 27  1  1  0  0  0
  1  4  1  0  0  0  0
  2 14  1  0  0  0  0
  4 37  1  0  0  0  0
  4 12  1  0  0  0  0
  8 18  1  6  0  0  0
  8 12  1  0  0  0  0
  8 26  1  0  0  0  0
  9  3  1  0  0  0  0
 10 28  2  0  0  0  0
 11  6  1  0  0  0  0
 12 26  1  1  0  0  0
 13  1  1  0  0  0  0
 15 20  1  0  0  0  0
 15 28  1  0  0  0  0
 16 11  1  0  0  0  0
 17  2  1  0  0  0  0
 17 13  1  0  0  0  0
 19  7  1  6  0  0  0
 19  5  1  0  0  0  0
 19 25  1  0  0  0  0
 20 16  1  6  0  0  0
 20  3  1  0  0  0  0
 21  1  1  0  0  0  0
 22  6  1  1  0  0  0
 22  9  1  0  0  0  0
 22  2  1  0  0  0  0
 23 10  2  0  0  0  0
 23  5  1  0  0  0  0
 24  2  1  0  0  0  0
 25 21  1  1  0  0  0
 25 18  1  0  0  0  0
 30 29  1  0  0  0  0
 30 31  1  0  0  0  0
 30 23  1  1  0  0  0
 34 33  1  0  0  0  0
 34 32  1  1  0  0  0
 34 31  1  0  0  0  0
 35 33  1  0  0  0  0
 35 29  1  0  0  0  0
 37 36  1  0  0  0  0
M  END
>  <MODEL>
1

>  <REMARK>
 VINA RESULT:      -5.6      0.000      0.000
  Name = 
  2 active torsions:
  status: ('A' for Active; 'I' for Inactive)
    1  A    between atoms: N_5  and  C_23
    2  A    between atoms: C_6  and  C_31
                            x       y       z     vdW  Elec       q    Type
                         _______ _______ _______ _____ _____    ______ ____

>  <TORSDO>
F 2

$$$$
=
 OpenBabel10272414483D

 37 41  0  0  1  0  0  0  0  0999 V2000
  184.0570  178.5570  141.1040 C   0  0  1  0  0  0  0  0  0  0  0  0
  181.3850  177.6960  138.9280 C   0  0  0  0  0  0  0  0  0  0  0  0
  183.7890  175.3550  137.9840 C   0  0  0  0  0  2  0  0  0  0  0  0
  184.2520  178.4610  142.5970 N   0  0  0  0  0  0  0  0  0  0  0  0
  187.8510  177.2470  138.9120 C   0  0  0  0  0  2  0  0  0  0  0  0
  181.1080  175.7350  137.2910 C   0  0  0  0  0  2  0  0  0  0  0  0
  186.1740  178.7030  137.7400 C   0  0  0  0  0  1  0  0  0  0  0  0
  186.4240  177.5990  142.2250 C   0  0  1  0  0  3  0  0  0  0  0  0
  183.4240  176.8040  137.6950 C   0  0  0  0  0  2  0  0  0  0  0  0
  187.1920  175.3930  137.4480 C   0  0  0  0  0  0  0  0  0  0  0  0
  181.4600  175.0580  135.9590 C   0  0  0  0  0  2  0  0  0  0  0  0
  185.6510  178.6800  142.9550 C   0  0  2  0  0  3  0  0  0  0  0  0
  182.6420  179.0770  140.7530 C   0  0  0  0  0  2  0  0  0  0  0  0
  181.3060  176.6740  140.0670 C   0  0  0  0  0  1  0  0  0  0  0  0
  185.3280  174.6290  136.1300 C   0  0  0  0  0  2  0  0  0  0  0  0
  182.9490  175.0160  135.5860 C   0  0  0  0  0  2  0  0  0  0  0  0
  182.2760  178.9140  139.2720 C   0  0  0  0  0  2  0  0  0  0  0  0
  187.2460  178.5130  141.3540 C   0  0  0  0  0  2  0  0  0  0  0  0
  186.4900  177.9640  139.0380 C   0  0  2  0  0  3  0  0  0  0  0  0
  183.9080  174.5360  136.6900 C   0  0  2  0  0  3  0  0  0  0  0  0
  185.1150  179.4950  140.4050 C   0  0  0  0  0  2  0  0  0  0  0  0
  181.9000  177.0230  137.6330 C   0  0  2  0  0  3  0  0  0  0  0  0
  188.0000  176.3990  137.6820 C   0  0  0  0  0  0  0  0  0  0  0  0
  179.9820  178.2220  138.6840 C   0  0  0  0  0  1  0  0  0  0  0  0
  186.4760  178.9320  140.1530 N   0  0  1  0  0  0  0  0  0  0  0  0
  186.3830  177.6290  143.7430 C   0  0  0  0  0  2  0  0  0  0  0  0
  184.1710  177.2670  140.5800 O   0  0  0  0  0  1  0  0  0  0  0  0
  186.3810  174.4120  137.1670 C   0  0  0  0  0  3  0  0  0  0  0  0
  188.5420  176.9430  135.3020 C   0  0  0  0  0  2  0  0  0  0  0  0
  189.0930  176.7470  136.7170 C   0  0  2  0  0  3  0  0  0  0  0  0
  190.2000  175.6900  136.7280 C   0  0  0  0  0  2  0  0  0  0  0  0
  192.3320  175.0490  135.7520 N   0  0  0  0  0  1  0  0  0  0  0  0
  190.7530  176.2550  134.3520 C   0  0  0  0  0  2  0  0  0  0  0  0
  191.3130  176.0810  135.7600 C   0  0  1  0  0  3  0  0  0  0  0  0
  189.6680  177.3280  134.3460 C   0  0  0  0  0  2  0  0  0  0  0  0
  182.7250  178.7460  144.4600 N   0  0  0  0  0  1  0  0  0  0  0  0
  183.4450  179.4120  143.3810 C   0  0  0  0  0  2  0  0  0  0  0  0
  1 27  1  6  0  0  0
  1  4  1  0  0  0  0
  2 17  1  0  0  0  0
  2 14  1  0  0  0  0
  4 12  1  0  0  0  0
  4 37  1  0  0  0  0
  5 19  1  0  0  0  0
  8 18  1  1  0  0  0
  8 12  1  0  0  0  0
  8 26  1  0  0  0  0
  9  3  1  0  0  0  0
 10 23  2  0  0  0  0
 11  6  1  0  0  0  0
 12 26  1  1  0  0  0
 13  1  1  0  0  0  0
 15 20  1  0  0  0  0
 15 28  1  0  0  0  0
 16 11  1  0  0  0  0
 17 13  1  0  0  0  0
 19  7  1  6  0  0  0
 19 25  1  0  0  0  0
 20 16  1  6  0  0  0
 20  3  1  0  0  0  0
 21  1  1  0  0  0  0
 22  6  1  1  0  0  0
 22  9  1  0  0  0  0
 22  2  1  0  0  0  0
 23  5  1  0  0  0  0
 24  2  1  0  0  0  0
 25 21  1  1  0  0  0
 25 18  1  0  0  0  0
 28 10  2  0  0  0  0
 29 30  1  0  0  0  0
 30 31  1  0  0  0  0
 30 23  1  1  0  0  0
 33 34  1  0  0  0  0
 34 32  1  6  0  0  0
 34 31  1  0  0  0  0
 35 33  1  0  0  0  0
 35 29  1  0  0  0  0
 37 36  1  0  0  0  0
M  END
>  <MODEL>
2

>  <REMARK>
 VINA RESULT:      -5.5      2.771      4.837
  Name = 
  2 active torsions:
  status: ('A' for Active; 'I' for Inactive)
    1  A    between atoms: N_5  and  C_23
    2  A    between atoms: C_6  and  C_31
                            x       y       z     vdW  Elec       q    Type
                         _______ _______ _______ _____ _____    ______ ____

>  <TORSDO>
F 2

$$$$
=
 OpenBabel10272414483D

 37 41  0  0  1  0  0  0  0  0999 V2000
  186.2470  178.3970  141.4360 C   0  0  1  0  0  0  0  0  0  0  0  0
  183.6570  178.6100  139.0140 C   0  0  0  0  0  0  0  0  0  0  0  0
  185.5810  176.0160  137.7010 C   0  0  0  0  0  2  0  0  0  0  0  0
  186.2830  177.9680  142.8810 N   0  0  0  0  0  0  0  0  0  0  0  0
  189.8530  176.7160  139.1810 C   0  0  0  0  0  2  0  0  0  0  0  0
  183.1150  177.1240  136.9900 C   0  0  0  0  0  2  0  0  0  0  0  0
  188.6360  178.7160  138.2720 C   0  0  0  0  0  1  0  0  0  0  0  0
  188.2460  176.7250  142.4290 C   0  0  1  0  0  3  0  0  0  0  0  0
  185.5600  177.5380  137.7090 C   0  0  0  0  0  2  0  0  0  0  0  0
  188.9480  175.3860  137.3320 C   0  0  0  0  0  0  0  0  0  0  0  0
  183.4310  176.6600  135.5600 C   0  0  0  0  0  2  0  0  0  0  0  0
  187.6600  177.7890  143.3370 C   0  0  2  0  0  3  0  0  0  0  0  0
  185.0120  179.2830  141.1410 C   0  0  0  0  0  2  0  0  0  0  0  0
  183.2610  177.4290  139.9070 C   0  0  0  0  0  1  0  0  0  0  0  0
  187.0870  175.3390  135.8030 C   0  0  0  0  0  2  0  0  0  0  0  0
  184.9040  176.3550  135.2520 C   0  0  0  0  0  2  0  0  0  0  0  0
  184.7530  179.5020  139.6450 C   0  0  0  0  0  2  0  0  0  0  0  0
  189.3180  177.5820  141.8070 C   0  0  0  0  0  2  0  0  0  0  0  0
  188.6720  177.6850  139.3970 C   0  0  2  0  0  3  0  0  0  0  0  0
  185.6370  175.4620  136.2690 C   0  0  2  0  0  3  0  0  0  0  0  0
  187.5380  179.1890  140.9960 C   0  0  0  0  0  2  0  0  0  0  0  0
  184.1300  178.1050  137.6290 C   0  0  2  0  0  3  0  0  0  0  0  0
  189.9270  176.1160  137.8070 C   0  0  0  0  0  0  0  0  0  0  0  0
  182.4260  179.4780  138.8270 C   0  0  0  0  0  1  0  0  0  0  0  0
  188.7650  178.3920  140.6900 N   0  0  1  0  0  0  0  0  0  0  0  0
  188.0780  176.4660  143.9170 C   0  0  0  0  0  2  0  0  0  0  0  0
  186.1290  177.2440  140.6560 O   0  0  0  0  0  1  0  0  0  0  0  0
  187.9730  174.6890  136.8150 C   0  0  0  0  0  3  0  0  0  0  0  0
  190.9870  175.8620  135.5560 C   0  0  0  0  0  2  0  0  0  0  0  0
  191.1510  176.3890  136.9850 C   0  0  2  0  0  3  0  0  0  0  0  0
  192.4030  175.8030  137.6420 C   0  0  0  0  0  2  0  0  0  0  0  0
  194.8060  175.5210  137.4160 N   0  0  0  0  0  1  0  0  0  0  0  0
  193.4680  175.5730  135.3870 C   0  0  0  0  0  2  0  0  0  0  0  0
  193.6360  176.1190  136.8010 C   0  0  1  0  0  3  0  0  0  0  0  0
  192.2310  176.1810  134.7320 C   0  0  0  0  0  2  0  0  0  0  0  0
  185.3380  178.2720  145.0940 N   0  0  0  0  0  1  0  0  0  0  0  0
  185.6320  178.9050  143.8140 C   0  0  0  0  0  2  0  0  0  0  0  0
  1 27  1  6  0  0  0
  1  4  1  0  0  0  0
  2 17  1  0  0  0  0
  2 14  1  0  0  0  0
  3  9  1  0  0  0  0
  4 12  1  0  0  0  0
  4 37  1  0  0  0  0
  5 19  1  0  0  0  0
  8 18  1  1  0  0  0
  8 12  1  0  0  0  0
  8 26  1  0  0  0  0
 10 23  2  0  0  0  0
 11  6  1  0  0  0  0
 12 26  1  1  0  0  0
 13  1  1  0  0  0  0
 15 20  1  0  0  0  0
 15 28  1  0  0  0  0
 16 11  1  0  0  0  0
 17 13  1  0  0  0  0
 19  7  1  6  0  0  0
 19 25  1  0  0  0  0
 20 16  1  6  0  0  0
 20  3  1  0  0  0  0
 21  1  1  0  0  0  0
 22  6  1  1  0  0  0
 22  9  1  0  0  0  0
 22  2  1  0  0  0  0
 23  5  1  0  0  0  0
 24  2  1  0  0  0  0
 25 21  1  1  0  0  0
 25 18  1  0  0  0  0
 28 10  2  0  0  0  0
 29 30  1  0  0  0  0
 30 31  1  0  0  0  0
 30 23  1  1  0  0  0
 33 34  1  0  0  0  0
 34 32  1  1  0  0  0
 34 31  1  0  0  0  0
 35 33  1  0  0  0  0
 35 29  1  0  0  0  0
 37 36  1  0  0  0  0
M  END
>  <MODEL>
3

>  <REMARK>
 VINA RESULT:      -5.3      2.168      4.002
  Name = 
  2 active torsions:
  status: ('A' for Active; 'I' for Inactive)
    1  A    between atoms: N_5  and  C_23
    2  A    between atoms: C_6  and  C_31
                            x       y       z     vdW  Elec       q    Type
                         _______ _______ _______ _____ _____    ______ ____

>  <TORSDO>
F 2

$$$$
=
 OpenBabel10272414483D

 37 41  0  0  1  0  0  0  0  0999 V2000
  183.2410  173.0510  135.7470 C   0  0  1  0  0  0  0  0  0  0  0  0
  186.6470  174.0490  135.5940 C   0  0  0  0  0  0  0  0  0  0  0  0
  185.3390  176.4810  137.7220 C   0  0  0  0  0  2  0  0  0  0  0  0
  182.5350  171.8580  136.3410 N   0  0  0  0  0  0  0  0  0  0  0  0
  180.9130  176.8860  136.6330 C   0  0  0  0  0  2  0  0  0  0  0  0
  187.9320  175.8630  136.8820 C   0  0  0  0  0  2  0  0  0  0  0  0
  182.5400  176.8300  134.7220 C   0  0  0  0  0  1  0  0  0  0  0  0
  180.9010  173.3130  137.2400 C   0  0  1  0  0  3  0  0  0  0  0  0
  185.4570  176.2060  136.2290 C   0  0  0  0  0  2  0  0  0  0  0  0
  182.4550  178.3630  137.8390 C   0  0  0  0  0  0  0  0  0  0  0  0
  188.2550  177.3450  137.1200 C   0  0  0  0  0  2  0  0  0  0  0  0
  181.0910  172.0760  136.3850 C   0  0  2  0  0  3  0  0  0  0  0  0
  184.5350  172.6310  135.0080 C   0  0  0  0  0  2  0  0  0  0  0  0
  186.5220  173.2870  136.9180 C   0  0  0  0  0  1  0  0  0  0  0  0
  184.7940  178.9260  137.9510 C   0  0  0  0  0  2  0  0  0  0  0  0
  187.0570  178.3040  137.1820 C   0  0  0  0  0  2  0  0  0  0  0  0
  185.4480  173.8090  134.6450 C   0  0  0  0  0  2  0  0  0  0  0  0
  180.2790  174.1800  136.1760 C   0  0  0  0  0  2  0  0  0  0  0  0
  181.9370  176.0220  135.8680 C   0  0  2  0  0  3  0  0  0  0  0  0
  185.8890  177.8680  138.0840 C   0  0  2  0  0  3  0  0  0  0  0  0
  182.3380  173.8610  134.7380 C   0  0  0  0  0  2  0  0  0  0  0  0
  186.8070  175.5660  135.8570 C   0  0  2  0  0  3  0  0  0  0  0  0
  181.4180  178.2390  137.0460 C   0  0  0  0  0  0  0  0  0  0  0  0
  187.8880  173.5380  134.8850 C   0  0  0  0  0  1  0  0  0  0  0  0
  181.3260  174.7960  135.3180 N   0  0  1  0  0  0  0  0  0  0  0  0
  180.3690  171.9660  137.6990 C   0  0  0  0  0  2  0  0  0  0  0  0
  183.6150  173.8880  136.8010 O   0  0  0  0  0  1  0  0  0  0  0  0
  183.5070  178.5200  138.5930 C   0  0  0  0  0  3  0  0  0  0  0  0
  181.0240  179.6600  135.0270 C   0  0  0  0  0  2  0  0  0  0  0  0
  180.7120  179.4470  136.5110 C   0  0  2  0  0  3  0  0  0  0  0  0
  181.0560  180.6970  137.3250 C   0  0  0  0  0  2  0  0  0  0  0  0
  180.6710  183.0880  137.5340 N   0  0  0  0  0  1  0  0  0  0  0  0
  180.6360  182.1170  135.3050 C   0  0  0  0  0  2  0  0  0  0  0  0
  180.3020  181.9060  136.7790 C   0  0  1  0  0  3  0  0  0  0  0  0
  180.2670  180.8760  134.4990 C   0  0  0  0  0  2  0  0  0  0  0  0
  181.6480  170.2610  134.7450 N   0  0  0  0  0  1  0  0  0  0  0  0
  182.7650  170.5920  135.6220 C   0  0  0  0  0  2  0  0  0  0  0  0
  1  4  1  0  0  0  0
  1 27  1  1  0  0  0
  2 22  1  0  0  0  0
  2 14  1  0  0  0  0
  3 20  1  0  0  0  0
  4 12  1  0  0  0  0
  5 23  1  0  0  0  0
  6 11  1  0  0  0  0
  8 18  1  6  0  0  0
  8 26  1  0  0  0  0
  9  3  1  0  0  0  0
 10 28  2  0  0  0  0
 11 16  1  0  0  0  0
 12  8  1  0  0  0  0
 12 26  1  1  0  0  0
 13  1  1  0  0  0  0
 15 20  1  0  0  0  0
 15 28  1  0  0  0  0
 17 13  1  0  0  0  0
 17  2  1  0  0  0  0
 19  7  1  6  0  0  0
 19  5  1  0  0  0  0
 20 16  1  6  0  0  0
 21  1  1  0  0  0  0
 22  9  1  1  0  0  0
 22  6  1  0  0  0  0
 23 10  2  0  0  0  0
 24  2  1  0  0  0  0
 25 21  1  1  0  0  0
 25 19  1  0  0  0  0
 25 18  1  0  0  0  0
 29 30  1  0  0  0  0
 30 23  1  1  0  0  0
 30 31  1  0  0  0  0
 33 34  1  0  0  0  0
 34 31  1  0  0  0  0
 34 32  1  1  0  0  0
 35 29  1  0  0  0  0
 35 33  1  0  0  0  0
 36 37  1  0  0  0  0
 37  4  1  0  0  0  0
M  END
>  <MODEL>
4

>  <REMARK>
 VINA RESULT:      -5.3      4.645      9.457
  Name = 
  2 active torsions:
  status: ('A' for Active; 'I' for Inactive)
    1  A    between atoms: N_5  and  C_23
    2  A    between atoms: C_6  and  C_31
                            x       y       z     vdW  Elec       q    Type
                         _______ _______ _______ _____ _____    ______ ____

>  <TORSDO>
F 2

$$$$
=
 OpenBabel10272414483D

 37 41  0  0  1  0  0  0  0  0999 V2000
  182.1980  176.8170  137.8050 C   0  0  1  0  0  0  0  0  0  0  0  0
  181.2060  174.0550  135.8040 C   0  0  0  0  0  0  0  0  0  0  0  0
  184.3590  173.0090  136.8610 C   0  0  0  0  0  2  0  0  0  0  0  0
  181.7130  177.3710  139.1220 N   0  0  0  0  0  0  0  0  0  0  0  0
  186.7690  176.8160  137.6600 C   0  0  0  0  0  2  0  0  0  0  0  0
  182.3110  171.7670  135.4200 C   0  0  0  0  0  2  0  0  0  0  0  0
  185.4540  176.7450  135.5220 C   0  0  0  0  0  1  0  0  0  0  0  0
  183.9630  177.5990  139.8170 C   0  0  1  0  0  3  0  0  0  0  0  0
  183.7450  173.8850  135.7780 C   0  0  0  0  0  2  0  0  0  0  0  0
  187.4430  174.4920  137.2650 C   0  0  0  0  0  0  0  0  0  0  0  0
  183.4160  170.9170  134.7750 C   0  0  0  0  0  2  0  0  0  0  0  0
  182.6570  178.3510  139.6530 C   0  0  2  0  0  3  0  0  0  0  0  0
  181.0140  176.4210  136.8900 C   0  0  0  0  0  2  0  0  0  0  0  0
  180.9340  173.6100  137.2440 C   0  0  0  0  0  1  0  0  0  0  0  0
  186.7100  172.5060  136.1170 C   0  0  0  0  0  2  0  0  0  0  0  0
  184.8450  171.4700  134.8700 C   0  0  0  0  0  2  0  0  0  0  0  0
  181.4280  175.5810  135.6750 C   0  0  0  0  0  2  0  0  0  0  0  0
  184.7700  178.4130  138.8380 C   0  0  0  0  0  2  0  0  0  0  0  0
  185.3540  176.7760  137.0450 C   0  0  2  0  0  3  0  0  0  0  0  0
  185.2940  171.9470  136.2630 C   0  0  2  0  0  3  0  0  0  0  0  0
  183.1170  177.8250  137.0140 C   0  0  0  0  0  2  0  0  0  0  0  0
  182.4300  173.3010  135.2280 C   0  0  2  0  0  3  0  0  0  0  0  0
  187.7090  175.7690  137.1360 C   0  0  0  0  0  0  0  0  0  0  0  0
  179.9820  173.7090  134.9760 C   0  0  0  0  0  1  0  0  0  0  0  0
  184.5430  177.9430  137.4460 N   0  0  1  0  0  0  0  0  0  0  0  0
  183.2310  178.1500  141.0280 C   0  0  0  0  0  2  0  0  0  0  0  0
  182.9220  175.6540  138.0780 O   0  0  0  0  0  1  0  0  0  0  0  0
  187.1870  173.2150  137.3420 C   0  0  0  0  0  3  0  0  0  0  0  0
  189.0970  175.5780  135.0650 C   0  0  0  0  0  2  0  0  0  0  0  0
  188.9570  176.2270  136.4450 C   0  0  2  0  0  3  0  0  0  0  0  0
  190.1970  175.9580  137.3010 C   0  0  0  0  0  2  0  0  0  0  0  0
  192.6170  176.1590  137.3950 N   0  0  0  0  0  1  0  0  0  0  0  0
  191.5860  175.7910  135.2240 C   0  0  0  0  0  2  0  0  0  0  0  0
  191.4490  176.4600  136.5890 C   0  0  1  0  0  3  0  0  0  0  0  0
  190.3570  176.0860  134.3690 C   0  0  0  0  0  2  0  0  0  0  0  0
  180.5120  179.4750  139.0000 N   0  0  0  0  0  1  0  0  0  0  0  0
  180.3930  178.0230  139.0610 C   0  0  0  0  0  2  0  0  0  0  0  0
  1 27  1  1  0  0  0
  1  4  1  0  0  0  0
  2 14  1  0  0  0  0
  4 12  1  0  0  0  0
  8 18  1  6  0  0  0
  8 26  1  0  0  0  0
  9  3  1  0  0  0  0
 10 28  2  0  0  0  0
 11 16  1  0  0  0  0
 11  6  1  0  0  0  0
 12  8  1  0  0  0  0
 12 26  1  1  0  0  0
 13  1  1  0  0  0  0
 15 20  1  0  0  0  0
 15 28  1  0  0  0  0
 17  2  1  0  0  0  0
 17 13  1  0  0  0  0
 19  7  1  6  0  0  0
 19 25  1  0  0  0  0
 19  5  1  0  0  0  0
 20 16  1  6  0  0  0
 20  3  1  0  0  0  0
 21  1  1  0  0  0  0
 22  6  1  1  0  0  0
 22  9  1  0  0  0  0
 22  2  1  0  0  0  0
 23 10  2  0  0  0  0
 23  5  1  0  0  0  0
 24  2  1  0  0  0  0
 25 21  1  1  0  0  0
 25 18  1  0  0  0  0
 29 30  1  0  0  0  0
 30 23  1  1  0  0  0
 30 31  1  0  0  0  0
 33 34  1  0  0  0  0
 34 31  1  0  0  0  0
 34 32  1  1  0  0  0
 35 29  1  0  0  0  0
 35 33  1  0  0  0  0
 36 37  1  0  0  0  0
 37  4  1  0  0  0  0
M  END
>  <MODEL>
5

>  <REMARK>
 VINA RESULT:      -5.3      2.604      4.268
  Name = 
  2 active torsions:
  status: ('A' for Active; 'I' for Inactive)
    1  A    between atoms: N_5  and  C_23
    2  A    between atoms: C_6  and  C_31
                            x       y       z     vdW  Elec       q    Type
                         _______ _______ _______ _____ _____    ______ ____

>  <TORSDO>
F 2

$$$$
=
 OpenBabel10272414483D

 37 41  0  0  1  0  0  0  0  0999 V2000
  185.5250  173.0180  135.2850 C   0  0  1  0  0  0  0  0  0  0  0  0
  188.5620  174.8590  135.3530 C   0  0  0  0  0  0  0  0  0  0  0  0
  186.6710  176.6140  137.6970 C   0  0  0  0  0  2  0  0  0  0  0  0
  185.1470  171.6240  135.7190 N   0  0  0  0  0  0  0  0  0  0  0  0
  182.2910  176.0060  136.5220 C   0  0  0  0  0  2  0  0  0  0  0  0
  189.3380  176.7770  136.8760 C   0  0  0  0  0  2  0  0  0  0  0  0
  183.8830  176.5880  134.6680 C   0  0  0  0  0  1  0  0  0  0  0  0
  183.1930  172.5020  136.7230 C   0  0  1  0  0  3  0  0  0  0  0  0
  186.8590  176.5540  136.1880 C   0  0  0  0  0  2  0  0  0  0  0  0
  183.4020  177.6750  137.9330 C   0  0  0  0  0  0  0  0  0  0  0  0
  189.2700  178.2550  137.2890 C   0  0  0  0  0  2  0  0  0  0  0  0
  183.6950  171.4610  135.7410 C   0  0  2  0  0  3  0  0  0  0  0  0
  186.8840  173.0290  134.5450 C   0  0  0  0  0  2  0  0  0  0  0  0
  188.6340  173.9420  136.5790 C   0  0  0  0  0  1  0  0  0  0  0  0
  185.5180  178.7970  138.1820 C   0  0  0  0  0  2  0  0  0  0  0  0
  187.8670  178.8640  137.4190 C   0  0  0  0  0  2  0  0  0  0  0  0
  187.4660  174.4350  134.3460 C   0  0  0  0  0  2  0  0  0  0  0  0
  182.3720  173.3000  135.7440 C   0  0  0  0  0  2  0  0  0  0  0  0
  183.5040  175.5260  135.6970 C   0  0  2  0  0  3  0  0  0  0  0  0
  186.8470  178.0440  138.2300 C   0  0  2  0  0  3  0  0  0  0  0  0
  184.4470  173.6840  134.3460 C   0  0  0  0  0  2  0  0  0  0  0  0
  188.3290  176.3260  135.7890 C   0  0  2  0  0  3  0  0  0  0  0  0
  182.4330  177.3850  137.0990 C   0  0  0  0  0  0  0  0  0  0  0  0
  189.8940  174.7660  134.6310 C   0  0  0  0  0  1  0  0  0  0  0  0
  183.2280  174.2570  134.9940 N   0  0  1  0  0  0  0  0  0  0  0  0
  183.0230  171.0200  137.0120 C   0  0  0  0  0  2  0  0  0  0  0  0
  185.6710  173.7940  136.4380 O   0  0  0  0  0  1  0  0  0  0  0  0
  184.3770  178.0060  138.7340 C   0  0  0  0  0  3  0  0  0  0  0  0
  181.5520  178.7300  135.1830 C   0  0  0  0  0  2  0  0  0  0  0  0
  181.4420  178.4280  136.6810 C   0  0  2  0  0  3  0  0  0  0  0  0
  181.6000  179.7070  137.5070 C   0  0  0  0  0  2  0  0  0  0  0  0
  180.7520  181.9600  137.8450 N   0  0  0  0  0  1  0  0  0  0  0  0
  180.6950  181.0450  135.5930 C   0  0  0  0  0  2  0  0  0  0  0  0
  180.5610  180.7410  137.0820 C   0  0  1  0  0  3  0  0  0  0  0  0
  180.5110  179.7690  134.7770 C   0  0  0  0  0  2  0  0  0  0  0  0
  184.6430  169.6770  134.3630 N   0  0  0  0  0  1  0  0  0  0  0  0
  185.6940  170.5500  134.8710 C   0  0  0  0  0  2  0  0  0  0  0  0
  1  4  1  0  0  0  0
  1 27  1  1  0  0  0
  2 22  1  0  0  0  0
  2 14  1  0  0  0  0
  3 20  1  0  0  0  0
  4 12  1  0  0  0  0
  5 23  1  0  0  0  0
  6 11  1  0  0  0  0
  8 18  1  6  0  0  0
  8 26  1  0  0  0  0
  9  3  1  0  0  0  0
 10 28  2  0  0  0  0
 11 16  1  0  0  0  0
 12  8  1  0  0  0  0
 12 26  1  1  0  0  0
 13  1  1  0  0  0  0
 15 20  1  0  0  0  0
 15 28  1  0  0  0  0
 17 13  1  0  0  0  0
 17  2  1  0  0  0  0
 19  7  1  6  0  0  0
 19  5  1  0  0  0  0
 20 16  1  6  0  0  0
 21  1  1  0  0  0  0
 22  9  1  1  0  0  0
 22  6  1  0  0  0  0
 23 10  2  0  0  0  0
 24  2  1  0  0  0  0
 25 21  1  1  0  0  0
 25 19  1  0  0  0  0
 25 18  1  0  0  0  0
 29 30  1  0  0  0  0
 30 23  1  1  0  0  0
 30 31  1  0  0  0  0
 33 34  1  0  0  0  0
 34 31  1  0  0  0  0
 34 32  1  1  0  0  0
 35 29  1  0  0  0  0
 35 33  1  0  0  0  0
 36 37  1  0  0  0  0
 37  4  1  0  0  0  0
M  END
>  <MODEL>
6

>  <REMARK>
 VINA RESULT:      -5.2      3.733      8.993
  Name = 
  2 active torsions:
  status: ('A' for Active; 'I' for Inactive)
    1  A    between atoms: N_5  and  C_23
    2  A    between atoms: C_6  and  C_31
                            x       y       z     vdW  Elec       q    Type
                         _______ _______ _______ _____ _____    ______ ____

>  <TORSDO>
F 2

$$$$
=
 OpenBabel10272414483D

 37 41  0  0  1  0  0  0  0  0999 V2000
  184.4790  177.3600  137.2350 C   0  0  1  0  0  0  0  0  0  0  0  0
  182.7290  174.8940  135.3700 C   0  0  0  0  0  0  0  0  0  0  0  0
  185.4230  173.0330  136.5650 C   0  0  0  0  0  2  0  0  0  0  0  0
  184.1700  178.1130  138.5050 N   0  0  0  0  0  0  0  0  0  0  0  0
  188.8450  176.0020  137.2060 C   0  0  0  0  0  2  0  0  0  0  0  0
  183.1100  172.3640  135.1460 C   0  0  0  0  0  2  0  0  0  0  0  0
  187.5840  176.1900  135.0430 C   0  0  0  0  0  1  0  0  0  0  0  0
  186.3820  177.7100  139.2430 C   0  0  1  0  0  3  0  0  0  0  0  0
  185.1030  173.9820  135.4190 C   0  0  0  0  0  2  0  0  0  0  0  0
  188.8050  173.5620  136.9610 C   0  0  0  0  0  0  0  0  0  0  0  0
  183.9190  171.1870  134.5780 C   0  0  0  0  0  2  0  0  0  0  0  0
  185.3580  178.8020  139.0030 C   0  0  2  0  0  3  0  0  0  0  0  0
  183.2370  177.2750  136.3140 C   0  0  0  0  0  2  0  0  0  0  0  0
  182.3270  174.6400  136.8260 C   0  0  0  0  0  1  0  0  0  0  0  0
  187.5250  171.8140  135.9100 C   0  0  0  0  0  2  0  0  0  0  0  0
  185.4470  171.2980  134.6780 C   0  0  0  0  0  2  0  0  0  0  0  0
  183.3940  176.2760  135.1600 C   0  0  0  0  0  2  0  0  0  0  0  0
  187.4000  178.1870  138.2400 C   0  0  0  0  0  2  0  0  0  0  0  0
  187.4870  176.3430  136.5580 C   0  0  2  0  0  3  0  0  0  0  0  0
  186.0070  171.7070  136.0520 C   0  0  2  0  0  3  0  0  0  0  0  0
  185.6610  178.0010  136.4110 C   0  0  0  0  0  2  0  0  0  0  0  0
  183.6790  173.7790  134.8700 C   0  0  2  0  0  3  0  0  0  0  0  0
  189.4380  174.6940  136.7660 C   0  0  0  0  0  0  0  0  0  0  0  0
  181.4630  174.8740  134.5320 C   0  0  0  0  0  1  0  0  0  0  0  0
  187.0550  177.7200  136.8720 N   0  0  1  0  0  0  0  0  0  0  0  0
  185.8370  178.5260  140.4020 C   0  0  0  0  0  2  0  0  0  0  0  0
  184.8240  176.0540  137.5920 O   0  0  0  0  0  1  0  0  0  0  0  0
  188.1820  172.4250  137.1040 C   0  0  0  0  0  3  0  0  0  0  0  0
  191.3700  173.3140  135.9810 C   0  0  0  0  0  2  0  0  0  0  0  0
  190.7710  174.7200  136.0820 C   0  0  2  0  0  3  0  0  0  0  0  0
  191.7380  175.6750  136.7860 C   0  0  0  0  0  2  0  0  0  0  0  0
  193.9930  176.5820  136.7570 N   0  0  0  0  0  1  0  0  0  0  0  0
  193.6700  174.3020  135.9770 C   0  0  0  0  0  2  0  0  0  0  0  0
  193.0760  175.7050  136.0530 C   0  0  1  0  0  3  0  0  0  0  0  0
  192.7090  173.3640  135.2520 C   0  0  0  0  0  2  0  0  0  0  0  0
  183.5170  180.4150  138.9010 N   0  0  0  0  0  1  0  0  0  0  0  0
  183.1020  179.1200  138.3740 C   0  0  0  0  0  2  0  0  0  0  0  0
  1 27  1  1  0  0  0
  1  4  1  0  0  0  0
  2 14  1  0  0  0  0
  4 12  1  0  0  0  0
  8 18  1  6  0  0  0
  8 26  1  0  0  0  0
  9  3  1  0  0  0  0
 10 28  2  0  0  0  0
 11 16  1  0  0  0  0
 11  6  1  0  0  0  0
 12  8  1  0  0  0  0
 12 26  1  1  0  0  0
 13  1  1  0  0  0  0
 15 20  1  0  0  0  0
 15 28  1  0  0  0  0
 17  2  1  0  0  0  0
 17 13  1  0  0  0  0
 19  7  1  6  0  0  0
 19 25  1  0  0  0  0
 19  5  1  0  0  0  0
 20 16  1  6  0  0  0
 20  3  1  0  0  0  0
 21  1  1  0  0  0  0
 22  6  1  1  0  0  0
 22  2  1  0  0  0  0
 22  9  1  0  0  0  0
 23 10  2  0  0  0  0
 23  5  1  0  0  0  0
 24  2  1  0  0  0  0
 25 21  1  1  0  0  0
 25 18  1  0  0  0  0
 29 30  1  0  0  0  0
 30 23  1  1  0  0  0
 30 31  1  0  0  0  0
 33 34  1  0  0  0  0
 34 32  1  1  0  0  0
 34 31  1  0  0  0  0
 35 33  1  0  0  0  0
 35 29  1  0  0  0  0
 37  4  1  0  0  0  0
 37 36  1  0  0  0  0
M  END
>  <MODEL>
7

>  <REMARK>
 VINA RESULT:      -5.0      1.699      2.455
  Name = 
  2 active torsions:
  status: ('A' for Active; 'I' for Inactive)
    1  A    between atoms: N_5  and  C_23
    2  A    between atoms: C_6  and  C_31
                            x       y       z     vdW  Elec       q    Type
                         _______ _______ _______ _____ _____    ______ ____

>  <TORSDO>
F 2

$$$$
=
 OpenBabel10272414483D

 37 41  0  0  1  0  0  0  0  0999 V2000
  196.1990  173.6300  135.9840 C   0  0  1  0  0  0  0  0  0  0  0  0
  195.0390  170.2790  135.7830 C   0  0  0  0  0  0  0  0  0  0  0  0
  192.3030  172.0050  134.4840 C   0  0  0  0  0  2  0  0  0  0  0  0
  197.2840  174.3970  135.2700 N   0  0  0  0  0  0  0  0  0  0  0  0
  192.4210  176.1800  136.3530 C   0  0  0  0  0  2  0  0  0  0  0  0
  192.9160  169.2890  134.7270 C   0  0  0  0  0  2  0  0  0  0  0  0
  192.7720  174.2410  137.9100 C   0  0  0  0  0  1  0  0  0  0  0  0
  195.7800  176.2030  134.9940 C   0  0  1  0  0  3  0  0  0  0  0  0
  192.8770  171.6190  135.8400 C   0  0  0  0  0  2  0  0  0  0  0  0
  190.6280  174.9140  135.2600 C   0  0  0  0  0  0  0  0  0  0  0  0
  191.3990  169.0530  134.7670 C   0  0  0  0  0  2  0  0  0  0  0  0
  197.1550  175.8310  135.5150 C   0  0  2  0  0  3  0  0  0  0  0  0
  196.6810  172.2160  136.3890 C   0  0  0  0  0  2  0  0  0  0  0  0
  195.5110  170.6140  134.3650 C   0  0  0  0  0  1  0  0  0  0  0  0
  189.9040  172.6480  134.8870 C   0  0  0  0  0  2  0  0  0  0  0  0
  190.5280  170.2680  135.1160 C   0  0  0  0  0  2  0  0  0  0  0  0
  195.5480  171.2850  136.8430 C   0  0  0  0  0  2  0  0  0  0  0  0
  195.1970  176.6500  136.3090 C   0  0  0  0  0  2  0  0  0  0  0  0
  193.3580  175.0140  136.7310 C   0  0  2  0  0  3  0  0  0  0  0  0
  190.8380  171.5650  134.3470 C   0  0  2  0  0  3  0  0  0  0  0  0
  195.6780  174.3630  137.2800 C   0  0  0  0  0  2  0  0  0  0  0  0
  193.4930  170.2070  135.8350 C   0  0  2  0  0  3  0  0  0  0  0  0
  190.9820  175.7920  136.1670 C   0  0  0  0  0  0  0  0  0  0  0  0
  195.6060  168.9190  136.1480 C   0  0  0  0  0  1  0  0  0  0  0  0
  194.7090  175.4870  137.0950 N   0  0  1  0  0  0  0  0  0  0  0  0
  197.0320  176.7700  134.3460 C   0  0  0  0  0  2  0  0  0  0  0  0
  195.1370  173.4700  135.0900 O   0  0  0  0  0  1  0  0  0  0  0  0
  190.2480  174.0160  134.3940 C   0  0  0  0  0  3  0  0  0  0  0  0
  189.4290  177.7290  136.4600 C   0  0  0  0  0  2  0  0  0  0  0  0
  189.9610  176.4260  137.0620 C   0  0  2  0  0  3  0  0  0  0  0  0
  190.5240  176.6640  138.4660 C   0  0  0  0  0  2  0  0  0  0  0  0
  190.0200  177.5400  140.6760 N   0  0  0  0  0  1  0  0  0  0  0  0
  188.9490  178.5890  138.7620 C   0  0  0  0  0  2  0  0  0  0  0  0
  189.4570  177.2820  139.3640 C   0  0  1  0  0  3  0  0  0  0  0  0
  188.3680  178.3370  137.3740 C   0  0  0  0  0  2  0  0  0  0  0  0
  199.2980  175.0360  136.4600 N   0  0  0  0  0  1  0  0  0  0  0  0
  198.6550  174.0100  135.6470 C   0  0  0  0  0  2  0  0  0  0  0  0
  1 27  1  6  0  0  0
  1 13  1  0  0  0  0
  1 21  1  0  0  0  0
  2 22  1  0  0  0  0
  2 24  1  0  0  0  0
  2 17  1  0  0  0  0
  3  9  1  0  0  0  0
  4 12  1  0  0  0  0
  4 37  1  0  0  0  0
  4  1  1  0  0  0  0
  5 19  1  0  0  0  0
  6 11  1  0  0  0  0
  8 26  1  6  0  0  0
  8 12  1  0  0  0  0
  8 18  1  0  0  0  0
 10 23  2  0  0  0  0
 11 16  1  0  0  0  0
 12 26  1  6  0  0  0
 13 17  1  0  0  0  0
 14  2  1  0  0  0  0
 19 25  1  0  0  0  0
 19  7  1  1  0  0  0
 20  3  1  1  0  0  0
 20 15  1  0  0  0  0
 20 16  1  0  0  0  0
 22  6  1  6  0  0  0
 22  9  1  0  0  0  0
 23  5  1  0  0  0  0
 25 18  1  6  0  0  0
 25 21  1  0  0  0  0
 28 15  1  0  0  0  0
 28 10  2  0  0  0  0
 29 30  1  0  0  0  0
 29 35  1  0  0  0  0
 30 23  1  6  0  0  0
 30 31  1  0  0  0  0
 31 34  1  0  0  0  0
 33 34  1  0  0  0  0
 34 32  1  1  0  0  0
 35 33  1  0  0  0  0
 37 36  1  0  0  0  0
M  END
>  <MODEL>
8

>  <REMARK>
 VINA RESULT:      -4.8      3.211      8.341
  Name = 
  2 active torsions:
  status: ('A' for Active; 'I' for Inactive)
    1  A    between atoms: N_5  and  C_23
    2  A    between atoms: C_6  and  C_31
                            x       y       z     vdW  Elec       q    Type
                         _______ _______ _______ _____ _____    ______ ____

>  <TORSDO>
F 2

$$$$
=
 OpenBabel10272414483D

 37 41  0  0  1  0  0  0  0  0999 V2000
  185.0740  178.0470  138.3350 C   0  0  1  0  0  0  0  0  0  0  0  0
  188.2990  178.1860  136.8520 C   0  0  0  0  0  0  0  0  0  0  0  0
  188.9840  176.3900  139.7600 C   0  0  0  0  0  2  0  0  0  0  0  0
  183.7890  177.3500  137.9620 N   0  0  0  0  0  0  0  0  0  0  0  0
  185.8420  177.6750  142.8280 C   0  0  0  0  0  2  0  0  0  0  0  0
  190.5110  177.0620  137.5180 C   0  0  0  0  0  2  0  0  0  0  0  0
  186.9540  179.5090  141.5210 C   0  0  0  0  0  1  0  0  0  0  0  0
  183.5370  176.6770  140.2160 C   0  0  1  0  0  3  0  0  0  0  0  0
  188.8280  177.8370  139.3160 C   0  0  0  0  0  2  0  0  0  0  0  0
  188.0260  176.5860  143.0640 C   0  0  0  0  0  0  0  0  0  0  0  0
  191.7310  176.9780  138.4470 C   0  0  0  0  0  2  0  0  0  0  0  0
  182.8380  177.3830  139.0700 C   0  0  2  0  0  3  0  0  0  0  0  0
  185.7480  178.6880  137.0980 C   0  0  0  0  0  2  0  0  0  0  0  0
  187.7680  176.7910  136.5040 C   0  0  0  0  0  1  0  0  0  0  0  0
  190.1710  176.4520  141.9780 C   0  0  0  0  0  2  0  0  0  0  0  0
  191.4480  177.0660  139.9540 C   0  0  0  0  0  2  0  0  0  0  0  0
  187.1910  179.1450  137.3510 C   0  0  0  0  0  2  0  0  0  0  0  0
  183.5810  177.8530  141.1580 C   0  0  0  0  0  2  0  0  0  0  0  0
  186.0230  178.3020  141.4300 C   0  0  2  0  0  3  0  0  0  0  0  0
  190.3200  176.1630  140.4840 C   0  0  2  0  0  3  0  0  0  0  0  0
  184.8710  179.1700  139.4240 C   0  0  0  0  0  2  0  0  0  0  0  0
  189.4190  178.0870  137.9160 C   0  0  2  0  0  3  0  0  0  0  0  0
  187.1230  177.3970  143.5600 C   0  0  0  0  0  0  0  0  0  0  0  0
  188.8760  178.7890  135.5840 C   0  0  0  0  0  1  0  0  0  0  0  0
  184.7370  178.7350  140.8480 N   0  0  1  0  0  0  0  0  0  0  0  0
  182.2780  176.0910  139.5990 C   0  0  0  0  0  2  0  0  0  0  0  0
  185.9490  177.0790  138.8340 O   0  0  0  0  0  1  0  0  0  0  0  0
  188.9600  175.8160  142.5780 C   0  0  0  0  0  3  0  0  0  0  0  0
  188.5140  177.4540  145.6380 C   0  0  0  0  0  2  0  0  0  0  0  0
  187.3490  178.0870  144.8710 C   0  0  2  0  0  3  0  0  0  0  0  0
  186.0760  178.0940  145.7210 C   0  0  0  0  0  2  0  0  0  0  0  0
  185.1220  178.7890  147.8460 N   0  0  0  0  0  1  0  0  0  0  0  0
  187.4740  178.1760  147.7980 C   0  0  0  0  0  2  0  0  0  0  0  0
  186.3250  178.8280  147.0360 C   0  0  1  0  0  3  0  0  0  0  0  0
  188.7440  178.1960  146.9520 C   0  0  0  0  0  2  0  0  0  0  0  0
  181.9360  178.6950  137.1630 N   0  0  0  0  0  1  0  0  0  0  0  0
  183.1080  177.9150  136.7840 C   0  0  0  0  0  2  0  0  0  0  0  0
  1 27  1  1  0  0  0
  1 21  1  0  0  0  0
  2 17  1  0  0  0  0
  2 22  1  0  0  0  0
  4  1  1  0  0  0  0
  4 12  1  0  0  0  0
  5 23  1  0  0  0  0
  6 11  1  0  0  0  0
  8 26  1  1  0  0  0
  8 18  1  0  0  0  0
  9  3  1  0  0  0  0
 10 23  2  0  0  0  0
 11 16  1  0  0  0  0
 12 26  1  6  0  0  0
 12  8  1  0  0  0  0
 13 17  1  0  0  0  0
 13  1  1  0  0  0  0
 14  2  1  0  0  0  0
 15 28  1  0  0  0  0
 16 20  1  0  0  0  0
 19  7  1  1  0  0  0
 19  5  1  0  0  0  0
 20  3  1  6  0  0  0
 20 15  1  0  0  0  0
 22  6  1  6  0  0  0
 22  9  1  0  0  0  0
 24  2  1  0  0  0  0
 25 21  1  6  0  0  0
 25 18  1  0  0  0  0
 25 19  1  0  0  0  0
 28 10  2  0  0  0  0
 29 35  1  0  0  0  0
 30 23  1  6  0  0  0
 30 29  1  0  0  0  0
 30 31  1  0  0  0  0
 31 34  1  0  0  0  0
 34 33  1  0  0  0  0
 34 32  1  1  0  0  0
 35 33  1  0  0  0  0
 37 36  1  0  0  0  0
 37  4  1  0  0  0  0
M  END
>  <MODEL>
9

>  <REMARK>
 VINA RESULT:      -4.6      3.972      8.131
  Name = 
  2 active torsions:
  status: ('A' for Active; 'I' for Inactive)
    1  A    between atoms: N_5  and  C_23
    2  A    between atoms: C_6  and  C_31
                            x       y       z     vdW  Elec       q    Type
                         _______ _______ _______ _____ _____    ______ ____

>  <TORSDO>
F 2

$$$$
