=
 OpenBabel10272413543D

 30 32  0  0  1  0  0  0  0  0999 V2000
  187.3090  177.7800  142.6890 C   0  0  0  0  0  2  0  0  0  0  0  0
  184.9530  178.2170  141.9730 C   0  0  2  0  0  3  0  0  0  0  0  0
  186.2140  178.5500  146.7840 N   0  0  0  0  0  2  0  0  0  0  0  0
  188.2120  177.2240  143.7990 C   0  0  2  0  0  3  0  0  0  0  0  0
  187.1160  178.3560  147.9140 C   0  0  0  0  0  2  0  0  0  0  0  0
  184.5910  179.5700  142.1270 O   0  0  0  0  0  0  0  0  0  0  0  0
  183.8390  177.4040  141.8280 F   0  0  0  0  0  0  0  0  0  0  0  0
  186.5980  178.2160  145.4410 C   0  0  0  0  0  0  0  0  0  0  0  0
  183.8090  179.6610  143.2880 C   0  0  0  0  0  2  0  0  0  0  0  0
  185.8540  177.7160  143.1100 C   0  0  2  0  0  3  0  0  0  0  0  0
  187.7870  177.6150  145.2050 C   0  0  0  0  0  0  0  0  0  0  0  0
  187.9650  177.1180  147.6730 C   0  0  0  0  0  2  0  0  0  0  0  0
  188.7130  177.2850  146.3530 C   0  0  0  0  0  2  0  0  0  0  0  0
  184.6980  179.5430  144.5170 C   0  0  0  0  0  2  0  0  0  0  0  0
  185.6840  178.4690  144.3610 N   0  0  0  0  0  0  0  0  0  0  0  0
  189.6990  177.5320  143.5370 C   0  0  2  0  0  3  0  0  0  0  0  0
  189.9790  178.1100  142.2730 O   0  0  0  0  0  0  0  0  0  0  0  0
  192.1090  177.6020  141.2950 C   0  0  0  0  0  1  0  0  0  0  0  0
  190.6590  177.1820  141.4660 C   0  0  2  0  0  3  0  0  0  0  0  0
  190.2210  176.1010  139.4240 O   0  0  0  0  0  0  0  0  0  0  0  0
  189.9900  177.0680  140.1300 C   0  0  0  0  0  0  0  0  0  0  0  0
  189.0710  178.1460  139.6380 C   0  0  0  0  0  2  0  0  0  0  0  0
  188.0670  178.9540  137.6290 O   0  0  0  0  0  1  0  0  0  0  0  0
  189.2130  178.3450  138.1390 C   0  0  0  0  0  2  0  0  0  0  0  0
  190.6540  176.4090  143.9550 C   0  0  0  0  0  2  0  0  0  0  0  0
  191.6860  176.9210  144.9480 C   0  0  0  0  0  2  0  0  0  0  0  0
  191.9620  175.9340  145.9370 O   0  0  0  0  0  0  0  0  0  0  0  0
  191.6260  177.3350  147.7460 O   0  0  0  0  0  0  0  0  0  0  0  0
  192.0630  176.2420  147.2950 C   0  0  0  0  0  0  0  0  0  0  0  0
  192.6890  175.2640  148.2210 C   0  0  0  0  0  1  0  0  0  0  0  0
  1  4  1  0  0  0  0
  2  7  1  1  0  0  0
  2  6  1  0  0  0  0
  2 10  1  0  0  0  0
  3  5  1  0  0  0  0
  4 16  1  6  0  0  0
  4 11  1  0  0  0  0
  6  9  1  0  0  0  0
  8  3  1  0  0  0  0
  9 14  1  0  0  0  0
 10  1  1  6  0  0  0
 10 15  1  0  0  0  0
 11  8  2  0  0  0  0
 11 13  1  0  0  0  0
 12  5  1  0  0  0  0
 13 12  1  0  0  0  0
 15 14  1  0  0  0  0
 15  8  1  0  0  0  0
 16 25  1  6  0  0  0
 17 16  1  0  0  0  0
 19 18  1  6  0  0  0
 19 17  1  0  0  0  0
 20 21  2  0  0  0  0
 21 19  1  0  0  0  0
 22 21  1  0  0  0  0
 23 24  1  0  0  0  0
 24 22  1  0  0  0  0
 25 26  1  0  0  0  0
 26 27  1  0  0  0  0
 27 29  1  0  0  0  0
 29 28  2  0  0  0  0
 29 30  1  0  0  0  0
M  END
>  <MODEL>
1

>  <REMARK>
 VINA RESULT:      -7.5      0.000      0.000
  Name = 
  10 active torsions:
  status: ('A' for Active; 'I' for Inactive)
    1  A    between atoms: C_4  and  C_27
    2  A    between atoms: C_5  and  C_12
    3  A    between atoms: C_5  and  C_21
    4  A    between atoms: O_7  and  C_15
    5  A    between atoms: O_7  and  C_16
    6  A    between atoms: C_8  and  C_12
    7  A    between atoms: C_8  and  O_13
    8  A    between atoms: O_13  and  C_27
    9  A    between atoms: C_16  and  C_30
   10  A    between atoms: C_27  and  C_30
                            x       y       z     vdW  Elec       q    Type
                         _______ _______ _______ _____ _____    ______ ____

>  <TORSDO>
F 10

$$$$
=
 OpenBabel10272413543D

 30 32  0  0  1  0  0  0  0  0999 V2000
  187.1130  178.5140  139.8390 C   0  0  0  0  0  2  0  0  0  0  0  0
  188.5280  178.4680  137.7770 C   0  0  2  0  0  3  0  0  0  0  0  0
  190.1970  176.4320  142.0100 N   0  0  0  0  0  2  0  0  0  0  0  0
  187.1120  178.6080  141.3710 C   0  0  2  0  0  3  0  0  0  0  0  0
  190.1470  176.1790  143.4460 C   0  0  0  0  0  2  0  0  0  0  0  0
  188.6810  177.1640  137.2650 O   0  0  0  0  0  0  0  0  0  0  0  0
  189.4790  179.3340  137.2590 F   0  0  0  0  0  0  0  0  0  0  0  0
  189.1790  177.1910  141.3380 C   0  0  0  0  0  0  0  0  0  0  0  0
  189.9560  176.7160  137.6400 C   0  0  0  0  0  2  0  0  0  0  0  0
  188.5350  178.5010  139.3120 C   0  0  2  0  0  3  0  0  0  0  0  0
  188.1890  177.7770  142.0500 C   0  0  0  0  0  0  0  0  0  0  0  0
  189.5340  177.3810  144.1480 C   0  0  0  0  0  2  0  0  0  0  0  0
  188.1530  177.6440  143.5540 C   0  0  0  0  0  2  0  0  0  0  0  0
  189.9600  176.3590  139.1190 C   0  0  0  0  0  2  0  0  0  0  0  0
  189.2580  177.3710  139.9140 N   0  0  0  0  0  0  0  0  0  0  0  0
  185.7140  178.3370  141.9610 C   0  0  2  0  0  3  0  0  0  0  0  0
  184.7530  177.8580  141.0350 O   0  0  0  0  0  0  0  0  0  0  0  0
  182.4030  178.3130  141.1690 C   0  0  0  0  0  1  0  0  0  0  0  0
  183.7790  178.8450  140.8070 C   0  0  2  0  0  3  0  0  0  0  0  0
  184.3120  180.3530  139.0820 O   0  0  0  0  0  0  0  0  0  0  0  0
  183.8080  179.2800  139.3730 C   0  0  0  0  0  0  0  0  0  0  0  0
  183.1940  178.4320  138.3000 C   0  0  0  0  0  2  0  0  0  0  0  0
  185.0380  177.6360  137.0100 O   0  0  0  0  0  1  0  0  0  0  0  0
  184.0870  177.2520  137.9560 C   0  0  0  0  0  2  0  0  0  0  0  0
  185.2070  179.4360  142.9000 C   0  0  0  0  0  2  0  0  0  0  0  0
  184.7100  178.8400  144.2080 C   0  0  0  0  0  2  0  0  0  0  0  0
  185.4990  179.3010  145.3010 O   0  0  0  0  0  0  0  0  0  0  0  0
  184.5610  178.3750  147.2010 O   0  0  0  0  0  0  0  0  0  0  0  0
  185.5880  178.6030  146.5060 C   0  0  0  0  0  0  0  0  0  0  0  0
  186.9110  178.1160  146.9730 C   0  0  0  0  0  1  0  0  0  0  0  0
  1  4  1  0  0  0  0
  2  7  1  6  0  0  0
  2 10  1  0  0  0  0
  3  5  1  0  0  0  0
  4 16  1  1  0  0  0
  4 11  1  0  0  0  0
  5 12  1  0  0  0  0
  6  9  1  0  0  0  0
  6  2  1  0  0  0  0
  8  3  1  0  0  0  0
  8 11  2  0  0  0  0
  9 14  1  0  0  0  0
 10  1  1  1  0  0  0
 10 15  1  0  0  0  0
 11 13  1  0  0  0  0
 13 12  1  0  0  0  0
 14 15  1  0  0  0  0
 15  8  1  0  0  0  0
 16 25  1  6  0  0  0
 17 16  1  0  0  0  0
 19 17  1  0  0  0  0
 19 18  1  6  0  0  0
 20 21  2  0  0  0  0
 21 19  1  0  0  0  0
 22 21  1  0  0  0  0
 23 24  1  0  0  0  0
 24 22  1  0  0  0  0
 25 26  1  0  0  0  0
 26 27  1  0  0  0  0
 27 29  1  0  0  0  0
 29 30  1  0  0  0  0
 29 28  2  0  0  0  0
M  END
>  <MODEL>
2

>  <REMARK>
 VINA RESULT:      -7.2      3.470      6.167
  Name = 
  10 active torsions:
  status: ('A' for Active; 'I' for Inactive)
    1  A    between atoms: C_4  and  C_27
    2  A    between atoms: C_5  and  C_12
    3  A    between atoms: C_5  and  C_21
    4  A    between atoms: O_7  and  C_15
    5  A    between atoms: O_7  and  C_16
    6  A    between atoms: C_8  and  C_12
    7  A    between atoms: C_8  and  O_13
    8  A    between atoms: O_13  and  C_27
    9  A    between atoms: C_16  and  C_30
   10  A    between atoms: C_27  and  C_30
                            x       y       z     vdW  Elec       q    Type
                         _______ _______ _______ _____ _____    ______ ____

>  <TORSDO>
F 10

$$$$
=
 OpenBabel10272413543D

 30 32  0  0  1  0  0  0  0  0999 V2000
  187.9180  178.0410  139.8430 C   0  0  0  0  0  2  0  0  0  0  0  0
  188.9510  178.0290  137.5650 C   0  0  2  0  0  3  0  0  0  0  0  0
  191.7780  177.2920  141.6040 N   0  0  0  0  0  2  0  0  0  0  0  0
  188.1220  178.3930  141.3230 C   0  0  2  0  0  3  0  0  0  0  0  0
  192.0250  177.2870  143.0420 C   0  0  0  0  0  2  0  0  0  0  0  0
  189.4090  176.7490  137.1940 O   0  0  0  0  0  0  0  0  0  0  0  0
  189.5060  179.0200  136.7710 F   0  0  0  0  0  0  0  0  0  0  0  0
  190.4890  177.6140  141.0580 C   0  0  0  0  0  0  0  0  0  0  0  0
  190.8000  176.7410  137.3640 C   0  0  0  0  0  2  0  0  0  0  0  0
  189.1800  178.3270  139.0530 C   0  0  2  0  0  3  0  0  0  0  0  0
  189.4890  178.0190  141.8730 C   0  0  0  0  0  0  0  0  0  0  0  0
  191.1930  178.3760  143.6990 C   0  0  0  0  0  2  0  0  0  0  0  0
  189.7230  178.1440  143.3610 C   0  0  0  0  0  2  0  0  0  0  0  0
  191.1370  176.6590  138.8460 C   0  0  0  0  0  2  0  0  0  0  0  0
  190.2930  177.5610  139.6350 N   0  0  0  0  0  0  0  0  0  0  0  0
  186.9770  177.8550  142.2030 C   0  0  2  0  0  3  0  0  0  0  0  0
  185.9820  178.8060  142.5420 O   0  0  0  0  0  0  0  0  0  0  0  0
  184.6680  179.0690  140.5540 C   0  0  0  0  0  1  0  0  0  0  0  0
  184.7620  178.4540  141.9390 C   0  0  2  0  0  3  0  0  0  0  0  0
  182.4720  178.7220  142.4020 O   0  0  0  0  0  0  0  0  0  0  0  0
  183.6140  178.9070  142.7890 C   0  0  0  0  0  0  0  0  0  0  0  0
  183.8530  179.6160  144.0880 C   0  0  0  0  0  2  0  0  0  0  0  0
  184.1860  178.9600  146.3580 O   0  0  0  0  0  1  0  0  0  0  0  0
  183.3400  178.7990  145.2610 C   0  0  0  0  0  2  0  0  0  0  0  0
  187.4420  176.9720  143.3660 C   0  0  0  0  0  2  0  0  0  0  0  0
  186.6290  177.2600  144.6190 C   0  0  0  0  0  2  0  0  0  0  0  0
  187.3290  178.1580  145.4750 O   0  0  0  0  0  0  0  0  0  0  0  0
  187.0840  178.0150  147.7700 O   0  0  0  0  0  0  0  0  0  0  0  0
  187.7790  177.7870  146.7430 C   0  0  0  0  0  0  0  0  0  0  0  0
  189.0920  177.1080  146.8830 C   0  0  0  0  0  1  0  0  0  0  0  0
  1  4  1  0  0  0  0
  2  7  1  6  0  0  0
  2 10  1  0  0  0  0
  3  5  1  0  0  0  0
  4 11  1  0  0  0  0
  4 16  1  1  0  0  0
  5 12  1  0  0  0  0
  6  9  1  0  0  0  0
  6  2  1  0  0  0  0
  8  3  1  0  0  0  0
  8 11  2  0  0  0  0
  9 14  1  0  0  0  0
 10 15  1  0  0  0  0
 10  1  1  1  0  0  0
 11 13  1  0  0  0  0
 13 12  1  0  0  0  0
 14 15  1  0  0  0  0
 15  8  1  0  0  0  0
 16 17  1  0  0  0  0
 16 25  1  1  0  0  0
 19 18  1  6  0  0  0
 19 17  1  0  0  0  0
 19 21  1  0  0  0  0
 20 21  2  0  0  0  0
 21 22  1  0  0  0  0
 22 24  1  0  0  0  0
 24 23  1  0  0  0  0
 25 26  1  0  0  0  0
 26 27  1  0  0  0  0
 27 29  1  0  0  0  0
 29 30  1  0  0  0  0
 29 28  2  0  0  0  0
M  END
>  <MODEL>
3

>  <REMARK>
 VINA RESULT:      -7.1      3.148      6.342
  Name = 
  10 active torsions:
  status: ('A' for Active; 'I' for Inactive)
    1  A    between atoms: C_4  and  C_27
    2  A    between atoms: C_5  and  C_12
    3  A    between atoms: C_5  and  C_21
    4  A    between atoms: O_7  and  C_15
    5  A    between atoms: O_7  and  C_16
    6  A    between atoms: C_8  and  C_12
    7  A    between atoms: C_8  and  O_13
    8  A    between atoms: O_13  and  C_27
    9  A    between atoms: C_16  and  C_30
   10  A    between atoms: C_27  and  C_30
                            x       y       z     vdW  Elec       q    Type
                         _______ _______ _______ _____ _____    ______ ____

>  <TORSDO>
F 10

$$$$
=
 OpenBabel10272413543D

 30 32  0  0  1  0  0  0  0  0999 V2000
  188.1620  177.9500  139.6060 C   0  0  0  0  0  2  0  0  0  0  0  0
  187.1220  178.1480  137.3400 C   0  0  2  0  0  3  0  0  0  0  0  0
  191.8130  176.5300  137.8130 N   0  0  0  0  0  2  0  0  0  0  0  0
  189.4610  178.0620  140.4170 C   0  0  2  0  0  3  0  0  0  0  0  0
  193.0440  176.2920  138.5600 C   0  0  0  0  0  2  0  0  0  0  0  0
  186.9060  176.8910  136.7410 O   0  0  0  0  0  0  0  0  0  0  0  0
  187.0640  179.1750  136.4100 F   0  0  0  0  0  0  0  0  0  0  0  0
  190.6380  177.0700  138.4390 C   0  0  0  0  0  0  0  0  0  0  0  0
  187.9230  176.7030  135.7940 C   0  0  0  0  0  2  0  0  0  0  0  0
  188.4330  178.2030  138.1360 C   0  0  2  0  0  3  0  0  0  0  0  0
  190.6790  177.4640  139.7330 C   0  0  0  0  0  0  0  0  0  0  0  0
  193.1990  177.3630  139.6280 C   0  0  0  0  0  2  0  0  0  0  0  0
  191.9620  177.3470  140.5230 C   0  0  0  0  0  2  0  0  0  0  0  0
  189.2290  176.3730  136.5010 C   0  0  0  0  0  2  0  0  0  0  0  0
  189.4410  177.2420  137.6630 N   0  0  0  0  0  0  0  0  0  0  0  0
  189.2870  177.5360  141.8540 C   0  0  2  0  0  3  0  0  0  0  0  0
  187.9910  177.0520  142.1650 O   0  0  0  0  0  0  0  0  0  0  0  0
  187.1770  176.9700  144.4180 C   0  0  0  0  0  1  0  0  0  0  0  0
  187.4270  177.8290  143.1920 C   0  0  2  0  0  3  0  0  0  0  0  0
  186.1580  179.1810  141.7450 O   0  0  0  0  0  0  0  0  0  0  0  0
  186.1480  178.4540  142.7250 C   0  0  0  0  0  0  0  0  0  0  0  0
  184.8660  178.2270  143.4680 C   0  0  0  0  0  2  0  0  0  0  0  0
  184.2870  179.0630  145.6280 O   0  0  0  0  0  1  0  0  0  0  0  0
  184.4930  179.4420  144.3010 C   0  0  0  0  0  2  0  0  0  0  0  0
  189.9120  178.4310  142.9290 C   0  0  0  0  0  2  0  0  0  0  0  0
  190.9420  177.6600  143.7410 C   0  0  0  0  0  2  0  0  0  0  0  0
  190.7990  177.9420  145.1290 O   0  0  0  0  0  0  0  0  0  0  0  0
  191.9060  176.1600  146.1020 O   0  0  0  0  0  0  0  0  0  0  0  0
  190.9300  176.9580  146.1110 C   0  0  0  0  0  0  0  0  0  0  0  0
  189.9090  176.8550  147.1840 C   0  0  0  0  0  1  0  0  0  0  0  0
  1  4  1  0  0  0  0
  2  7  1  6  0  0  0
  2 10  1  0  0  0  0
  3  8  1  0  0  0  0
  3  5  1  0  0  0  0
  4 16  1  1  0  0  0
  5 12  1  0  0  0  0
  6  2  1  0  0  0  0
  8 11  2  0  0  0  0
  9 14  1  0  0  0  0
  9  6  1  0  0  0  0
 10  1  1  1  0  0  0
 11  4  1  0  0  0  0
 11 13  1  0  0  0  0
 12 13  1  0  0  0  0
 14 15  1  0  0  0  0
 15 10  1  0  0  0  0
 15  8  1  0  0  0  0
 16 17  1  0  0  0  0
 16 25  1  1  0  0  0
 17 19  1  0  0  0  0
 19 18  1  1  0  0  0
 20 21  2  0  0  0  0
 21 19  1  0  0  0  0
 21 22  1  0  0  0  0
 22 24  1  0  0  0  0
 24 23  1  0  0  0  0
 25 26  1  0  0  0  0
 26 27  1  0  0  0  0
 27 29  1  0  0  0  0
 28 29  2  0  0  0  0
 29 30  1  0  0  0  0
M  END
>  <MODEL>
4

>  <REMARK>
 VINA RESULT:      -7.0      3.063      6.336
  Name = 
  10 active torsions:
  status: ('A' for Active; 'I' for Inactive)
    1  A    between atoms: C_4  and  C_27
    2  A    between atoms: C_5  and  C_12
    3  A    between atoms: C_5  and  C_21
    4  A    between atoms: O_7  and  C_15
    5  A    between atoms: O_7  and  C_16
    6  A    between atoms: C_8  and  C_12
    7  A    between atoms: C_8  and  O_13
    8  A    between atoms: O_13  and  C_27
    9  A    between atoms: C_16  and  C_30
   10  A    between atoms: C_27  and  C_30
                            x       y       z     vdW  Elec       q    Type
                         _______ _______ _______ _____ _____    ______ ____

>  <TORSDO>
F 10

$$$$
=
 OpenBabel10272413543D

 30 32  0  0  1  0  0  0  0  0999 V2000
  189.3000  177.2430  140.6060 C   0  0  0  0  0  2  0  0  0  0  0  0
  189.9270  176.6180  138.2670 C   0  0  2  0  0  3  0  0  0  0  0  0
  185.5970  178.9140  139.1740 N   0  0  0  0  0  2  0  0  0  0  0  0
  188.1470  177.4140  141.6040 C   0  0  2  0  0  3  0  0  0  0  0  0
  184.5400  179.4120  140.0490 C   0  0  0  0  0  2  0  0  0  0  0  0
  190.1870  177.7470  137.4650 O   0  0  0  0  0  0  0  0  0  0  0  0
  189.7130  175.4840  137.4990 F   0  0  0  0  0  0  0  0  0  0  0  0
  186.7870  178.3010  139.6950 C   0  0  0  0  0  0  0  0  0  0  0  0
  189.0590  177.9520  136.6590 C   0  0  0  0  0  2  0  0  0  0  0  0
  188.7660  176.8460  139.2440 C   0  0  2  0  0  3  0  0  0  0  0  0
  186.9110  178.0840  141.0240 C   0  0  0  0  0  0  0  0  0  0  0  0
  184.4380  178.5160  141.2730 C   0  0  0  0  0  2  0  0  0  0  0  0
  185.7970  178.4750  141.9670 C   0  0  0  0  0  2  0  0  0  0  0  0
  187.9330  178.5460  137.4920 C   0  0  0  0  0  2  0  0  0  0  0  0
  187.8130  177.8680  138.7870 N   0  0  0  0  0  0  0  0  0  0  0  0
  188.6130  178.0890  142.9090 C   0  0  2  0  0  3  0  0  0  0  0  0
  189.9030  178.6760  142.8550 O   0  0  0  0  0  0  0  0  0  0  0  0
  191.4190  179.6050  144.4620 C   0  0  0  0  0  1  0  0  0  0  0  0
  190.6020  178.3960  144.0420 C   0  0  2  0  0  3  0  0  0  0  0  0
  191.9530  176.9730  142.7460 O   0  0  0  0  0  0  0  0  0  0  0  0
  191.4920  177.2060  143.8520 C   0  0  0  0  0  0  0  0  0  0  0  0
  191.7910  176.2800  144.9920 C   0  0  0  0  0  2  0  0  0  0  0  0
  192.1070  176.4880  147.3480 O   0  0  0  0  0  1  0  0  0  0  0  0
  191.2520  176.8310  146.3010 C   0  0  0  0  0  2  0  0  0  0  0  0
  188.3330  177.2700  144.1730 C   0  0  0  0  0  2  0  0  0  0  0  0
  187.6310  178.1210  145.2220 C   0  0  0  0  0  2  0  0  0  0  0  0
  186.2450  177.8010  145.2800 O   0  0  0  0  0  0  0  0  0  0  0  0
  185.5510  179.3030  146.8960 O   0  0  0  0  0  0  0  0  0  0  0  0
  185.3000  178.6640  145.8380 C   0  0  0  0  0  0  0  0  0  0  0  0
  183.9840  178.8370  145.1720 C   0  0  0  0  0  1  0  0  0  0  0  0
  1  4  1  0  0  0  0
  2  7  1  6  0  0  0
  2 10  1  0  0  0  0
  3  8  1  0  0  0  0
  3  5  1  0  0  0  0
  4 16  1  1  0  0  0
  5 12  1  0  0  0  0
  6  2  1  0  0  0  0
  8 11  2  0  0  0  0
  9  6  1  0  0  0  0
  9 14  1  0  0  0  0
 10  1  1  1  0  0  0
 11  4  1  0  0  0  0
 11 13  1  0  0  0  0
 12 13  1  0  0  0  0
 14 15  1  0  0  0  0
 15 10  1  0  0  0  0
 15  8  1  0  0  0  0
 16 25  1  1  0  0  0
 17 16  1  0  0  0  0
 17 19  1  0  0  0  0
 19 18  1  6  0  0  0
 20 21  2  0  0  0  0
 21 19  1  0  0  0  0
 21 22  1  0  0  0  0
 22 24  1  0  0  0  0
 24 23  1  0  0  0  0
 25 26  1  0  0  0  0
 26 27  1  0  0  0  0
 27 29  1  0  0  0  0
 29 28  2  0  0  0  0
 30 29  1  0  0  0  0
M  END
>  <MODEL>
5

>  <REMARK>
 VINA RESULT:      -6.9      2.784      6.236
  Name = 
  10 active torsions:
  status: ('A' for Active; 'I' for Inactive)
    1  A    between atoms: C_4  and  C_27
    2  A    between atoms: C_5  and  C_12
    3  A    between atoms: C_5  and  C_21
    4  A    between atoms: O_7  and  C_15
    5  A    between atoms: O_7  and  C_16
    6  A    between atoms: C_8  and  C_12
    7  A    between atoms: C_8  and  O_13
    8  A    between atoms: O_13  and  C_27
    9  A    between atoms: C_16  and  C_30
   10  A    between atoms: C_27  and  C_30
                            x       y       z     vdW  Elec       q    Type
                         _______ _______ _______ _____ _____    ______ ____

>  <TORSDO>
F 10

$$$$
=
 OpenBabel10272413543D

 30 32  0  0  1  0  0  0  0  0999 V2000
  190.0700  177.8200  141.2490 C   0  0  0  0  0  2  0  0  0  0  0  0
  191.3970  177.7020  143.3660 C   0  0  2  0  0  3  0  0  0  0  0  0
  186.4230  177.9730  143.5370 N   0  0  0  0  0  2  0  0  0  0  0  0
  188.8130  178.3840  140.5740 C   0  0  2  0  0  3  0  0  0  0  0  0
  185.1060  178.1910  142.9480 C   0  0  0  0  0  2  0  0  0  0  0  0
  191.2060  176.4840  144.0480 O   0  0  0  0  0  0  0  0  0  0  0  0
  191.9550  178.6670  144.1900 F   0  0  0  0  0  0  0  0  0  0  0  0
  187.6210  177.9980  142.7440 C   0  0  0  0  0  0  0  0  0  0  0  0
  190.3260  176.7370  145.1100 C   0  0  0  0  0  2  0  0  0  0  0  0
  190.1080  178.2180  142.7110 C   0  0  2  0  0  3  0  0  0  0  0  0
  187.5600  178.3230  141.4330 C   0  0  0  0  0  0  0  0  0  0  0  0
  185.2220  179.1940  141.8120 C   0  0  0  0  0  2  0  0  0  0  0  0
  186.2340  178.6710  140.7960 C   0  0  0  0  0  2  0  0  0  0  0  0
  188.9100  176.9000  144.5770 C   0  0  0  0  0  2  0  0  0  0  0  0
  188.8870  177.7340  143.3720 N   0  0  0  0  0  0  0  0  0  0  0  0
  188.5870  177.7710  139.1780 C   0  0  2  0  0  3  0  0  0  0  0  0
  188.9280  176.4000  139.0610 O   0  0  0  0  0  0  0  0  0  0  0  0
  188.7120  175.2050  136.9940 C   0  0  0  0  0  1  0  0  0  0  0  0
  189.5470  176.1680  137.8200 C   0  0  2  0  0  3  0  0  0  0  0  0
  191.1010  174.4120  138.0000 O   0  0  0  0  0  0  0  0  0  0  0  0
  190.9260  175.6200  138.0230 C   0  0  0  0  0  0  0  0  0  0  0  0
  192.0840  176.5330  138.2910 C   0  0  0  0  0  2  0  0  0  0  0  0
  194.3370  175.7710  138.4870 O   0  0  0  0  0  1  0  0  0  0  0  0
  193.3320  176.0630  137.5650 C   0  0  0  0  0  2  0  0  0  0  0  0
  189.0690  178.6530  138.0210 C   0  0  0  0  0  2  0  0  0  0  0  0
  187.9900  178.7830  136.9570 C   0  0  0  0  0  2  0  0  0  0  0  0
  186.6970  178.6250  137.5330 O   0  0  0  0  0  0  0  0  0  0  0  0
  184.9070  177.1890  137.8240 O   0  0  0  0  0  0  0  0  0  0  0  0
  185.7750  177.6890  137.0590 C   0  0  0  0  0  0  0  0  0  0  0  0
  185.8150  177.2830  135.6310 C   0  0  0  0  0  1  0  0  0  0  0  0
  2  6  1  0  0  0  0
  2  7  1  1  0  0  0
  4 16  1  6  0  0  0
  4  1  1  0  0  0  0
  4 11  1  0  0  0  0
  5  3  1  0  0  0  0
  6  9  1  0  0  0  0
  8 15  1  0  0  0  0
  8  3  1  0  0  0  0
 10  1  1  6  0  0  0
 10  2  1  0  0  0  0
 10 15  1  0  0  0  0
 11  8  2  0  0  0  0
 12  5  1  0  0  0  0
 13 11  1  0  0  0  0
 13 12  1  0  0  0  0
 14  9  1  0  0  0  0
 15 14  1  0  0  0  0
 16 25  1  6  0  0  0
 17 16  1  0  0  0  0
 19 18  1  6  0  0  0
 19 21  1  0  0  0  0
 19 17  1  0  0  0  0
 20 21  2  0  0  0  0
 21 22  1  0  0  0  0
 24 22  1  0  0  0  0
 24 23  1  0  0  0  0
 26 27  1  0  0  0  0
 26 25  1  0  0  0  0
 29 27  1  0  0  0  0
 29 28  2  0  0  0  0
 30 29  1  0  0  0  0
M  END
>  <MODEL>
6

>  <REMARK>
 VINA RESULT:      -6.9      2.786      6.751
  Name = 
  10 active torsions:
  status: ('A' for Active; 'I' for Inactive)
    1  A    between atoms: C_4  and  C_27
    2  A    between atoms: C_5  and  C_12
    3  A    between atoms: C_5  and  C_21
    4  A    between atoms: O_7  and  C_15
    5  A    between atoms: O_7  and  C_16
    6  A    between atoms: C_8  and  C_12
    7  A    between atoms: C_8  and  O_13
    8  A    between atoms: O_13  and  C_27
    9  A    between atoms: C_16  and  C_30
   10  A    between atoms: C_27  and  C_30
                            x       y       z     vdW  Elec       q    Type
                         _______ _______ _______ _____ _____    ______ ____

>  <TORSDO>
F 10

$$$$
=
 OpenBabel10272413543D

 30 32  0  0  1  0  0  0  0  0999 V2000
  187.4710  178.2170  142.1930 C   0  0  0  0  0  2  0  0  0  0  0  0
  185.2750  179.0090  143.0900 C   0  0  2  0  0  3  0  0  0  0  0  0
  185.9110  178.4180  138.1820 N   0  0  0  0  0  2  0  0  0  0  0  0
  188.4690  178.3040  141.0290 C   0  0  2  0  0  3  0  0  0  0  0  0
  186.7190  178.1990  136.9860 C   0  0  0  0  0  2  0  0  0  0  0  0
  184.2540  178.0530  142.9230 O   0  0  0  0  0  0  0  0  0  0  0  0
  184.7580  180.2680  143.3550 F   0  0  0  0  0  0  0  0  0  0  0  0
  186.4870  178.4090  139.4980 C   0  0  0  0  0  0  0  0  0  0  0  0
  183.4770  178.4620  141.8300 C   0  0  0  0  0  2  0  0  0  0  0  0
  186.2420  179.0530  141.8980 C   0  0  2  0  0  3  0  0  0  0  0  0
  187.8260  178.2910  139.6510 C   0  0  0  0  0  0  0  0  0  0  0  0
  188.1000  178.7990  137.1950 C   0  0  0  0  0  2  0  0  0  0  0  0
  188.7230  178.1760  138.4410 C   0  0  0  0  0  2  0  0  0  0  0  0
  184.2280  178.1920  140.5350 C   0  0  0  0  0  2  0  0  0  0  0  0
  185.6360  178.5880  140.6420 N   0  0  0  0  0  0  0  0  0  0  0  0
  189.5900  177.2550  141.1550 C   0  0  2  0  0  3  0  0  0  0  0  0
  189.6070  176.5370  142.3770 O   0  0  0  0  0  0  0  0  0  0  0  0
  191.4640  175.8450  143.7270 C   0  0  0  0  0  1  0  0  0  0  0  0
  190.6500  177.0100  143.1930 C   0  0  2  0  0  3  0  0  0  0  0  0
  190.4760  178.9680  144.4830 O   0  0  0  0  0  0  0  0  0  0  0  0
  190.0950  177.8200  144.3250 C   0  0  0  0  0  0  0  0  0  0  0  0
  189.1090  177.2250  145.2840 C   0  0  0  0  0  2  0  0  0  0  0  0
  188.6570  177.0940  147.6240 O   0  0  0  0  0  1  0  0  0  0  0  0
  189.6880  177.1470  146.6860 C   0  0  0  0  0  2  0  0  0  0  0  0
  190.9620  177.7440  140.6800 C   0  0  0  0  0  2  0  0  0  0  0  0
  191.6790  176.6560  139.8940 C   0  0  0  0  0  2  0  0  0  0  0  0
  190.7390  175.7990  139.2530 O   0  0  0  0  0  0  0  0  0  0  0  0
  190.5490  174.1340  137.6600 O   0  0  0  0  0  0  0  0  0  0  0  0
  190.9440  175.2910  137.9690 C   0  0  0  0  0  0  0  0  0  0  0  0
  191.6290  176.1270  136.9520 C   0  0  0  0  0  1  0  0  0  0  0  0
  2  7  1  6  0  0  0
  3  8  1  0  0  0  0
  4 16  1  6  0  0  0
  4  1  1  0  0  0  0
  5 12  1  0  0  0  0
  5  3  1  0  0  0  0
  6  2  1  0  0  0  0
  8 11  2  0  0  0  0
  8 15  1  0  0  0  0
  9  6  1  0  0  0  0
 10  1  1  1  0  0  0
 10  2  1  0  0  0  0
 11  4  1  0  0  0  0
 12 13  1  0  0  0  0
 13 11  1  0  0  0  0
 14 15  1  0  0  0  0
 14  9  1  0  0  0  0
 15 10  1  0  0  0  0
 16 25  1  1  0  0  0
 16 17  1  0  0  0  0
 17 19  1  0  0  0  0
 19 18  1  1  0  0  0
 19 21  1  0  0  0  0
 21 20  2  0  0  0  0
 21 22  1  0  0  0  0
 22 24  1  0  0  0  0
 24 23  1  0  0  0  0
 26 25  1  0  0  0  0
 27 26  1  0  0  0  0
 28 29  2  0  0  0  0
 29 27  1  0  0  0  0
 30 29  1  0  0  0  0
M  END
>  <MODEL>
7

>  <REMARK>
 VINA RESULT:      -6.8      2.451      6.326
  Name = 
  10 active torsions:
  status: ('A' for Active; 'I' for Inactive)
    1  A    between atoms: C_4  and  C_27
    2  A    between atoms: C_5  and  C_12
    3  A    between atoms: C_5  and  C_21
    4  A    between atoms: O_7  and  C_15
    5  A    between atoms: O_7  and  C_16
    6  A    between atoms: C_8  and  C_12
    7  A    between atoms: C_8  and  O_13
    8  A    between atoms: O_13  and  C_27
    9  A    between atoms: C_16  and  C_30
   10  A    between atoms: C_27  and  C_30
                            x       y       z     vdW  Elec       q    Type
                         _______ _______ _______ _____ _____    ______ ____

>  <TORSDO>
F 10

$$$$
=
 OpenBabel10272413543D

 30 32  0  0  1  0  0  0  0  0999 V2000
  187.3430  178.0160  144.1500 C   0  0  0  0  0  2  0  0  0  0  0  0
  185.5780  178.3150  145.8960 C   0  0  2  0  0  3  0  0  0  0  0  0
  190.2460  177.1760  147.2200 N   0  0  0  0  0  2  0  0  0  0  0  0
  188.6180  177.2570  143.7560 C   0  0  2  0  0  3  0  0  0  0  0  0
  191.6130  176.7450  146.9470 C   0  0  0  0  0  2  0  0  0  0  0  0
  185.7940  179.4650  146.6810 O   0  0  0  0  0  0  0  0  0  0  0  0
  184.6850  177.4430  146.5010 F   0  0  0  0  0  0  0  0  0  0  0  0
  189.2900  177.3790  146.1670 C   0  0  0  0  0  0  0  0  0  0  0  0
  186.3340  179.0380  147.9030 C   0  0  0  0  0  2  0  0  0  0  0  0
  186.8850  177.5960  145.5330 C   0  0  2  0  0  3  0  0  0  0  0  0
  189.6150  177.0780  144.8890 C   0  0  0  0  0  0  0  0  0  0  0  0
  191.6150  175.8040  145.7530 C   0  0  0  0  0  2  0  0  0  0  0  0
  190.9810  176.5190  144.5630 C   0  0  0  0  0  2  0  0  0  0  0  0
  187.7910  178.6420  147.7100 C   0  0  0  0  0  2  0  0  0  0  0  0
  187.9700  177.8450  146.4930 N   0  0  0  0  0  0  0  0  0  0  0  0
  189.2740  177.8530  142.4960 C   0  0  2  0  0  3  0  0  0  0  0  0
  188.4960  178.8220  141.8130 O   0  0  0  0  0  0  0  0  0  0  0  0
  188.6360  178.4960  139.4420 C   0  0  0  0  0  1  0  0  0  0  0  0
  187.8520  178.2270  140.7150 C   0  0  2  0  0  3  0  0  0  0  0  0
  185.9240  178.7830  139.4880 O   0  0  0  0  0  0  0  0  0  0  0  0
  186.4550  178.7530  140.5860 C   0  0  0  0  0  0  0  0  0  0  0  0
  185.7170  179.2750  141.7820 C   0  0  0  0  0  2  0  0  0  0  0  0
  184.0480  178.0460  142.9650 O   0  0  0  0  0  1  0  0  0  0  0  0
  184.2820  178.7780  141.8010 C   0  0  0  0  0  2  0  0  0  0  0  0
  189.9460  176.8160  141.5890 C   0  0  0  0  0  2  0  0  0  0  0  0
  191.3320  177.2850  141.1700 C   0  0  0  0  0  2  0  0  0  0  0  0
  191.5790  176.9570  139.8060 O   0  0  0  0  0  0  0  0  0  0  0  0
  193.8640  177.2830  139.9490 O   0  0  0  0  0  0  0  0  0  0  0  0
  192.8650  176.9350  139.2640 C   0  0  0  0  0  0  0  0  0  0  0  0
  193.0590  176.4900  137.8600 C   0  0  0  0  0  1  0  0  0  0  0  0
  2  7  1  1  0  0  0
  2  6  1  0  0  0  0
  4 16  1  6  0  0  0
  4  1  1  0  0  0  0
  4 11  1  0  0  0  0
  5  3  1  0  0  0  0
  6  9  1  0  0  0  0
  8 15  1  0  0  0  0
  8  3  1  0  0  0  0
 10  1  1  6  0  0  0
 10  2  1  0  0  0  0
 10 15  1  0  0  0  0
 11  8  2  0  0  0  0
 12  5  1  0  0  0  0
 13 11  1  0  0  0  0
 13 12  1  0  0  0  0
 14  9  1  0  0  0  0
 15 14  1  0  0  0  0
 16 25  1  6  0  0  0
 17 16  1  0  0  0  0
 19 18  1  6  0  0  0
 19 17  1  0  0  0  0
 20 21  2  0  0  0  0
 21 19  1  0  0  0  0
 21 22  1  0  0  0  0
 22 24  1  0  0  0  0
 24 23  1  0  0  0  0
 26 25  1  0  0  0  0
 27 26  1  0  0  0  0
 29 27  1  0  0  0  0
 29 28  2  0  0  0  0
 30 29  1  0  0  0  0
M  END
>  <MODEL>
8

>  <REMARK>
 VINA RESULT:      -6.8      2.332      4.769
  Name = 
  10 active torsions:
  status: ('A' for Active; 'I' for Inactive)
    1  A    between atoms: C_4  and  C_27
    2  A    between atoms: C_5  and  C_12
    3  A    between atoms: C_5  and  C_21
    4  A    between atoms: O_7  and  C_15
    5  A    between atoms: O_7  and  C_16
    6  A    between atoms: C_8  and  C_12
    7  A    between atoms: C_8  and  O_13
    8  A    between atoms: O_13  and  C_27
    9  A    between atoms: C_16  and  C_30
   10  A    between atoms: C_27  and  C_30
                            x       y       z     vdW  Elec       q    Type
                         _______ _______ _______ _____ _____    ______ ____

>  <TORSDO>
F 10

$$$$
=
 OpenBabel10272413543D

 30 32  0  0  1  0  0  0  0  0999 V2000
  187.9950  177.9780  140.1700 C   0  0  0  0  0  2  0  0  0  0  0  0
  186.8160  178.0390  137.9650 C   0  0  2  0  0  3  0  0  0  0  0  0
  191.5010  176.3630  138.2560 N   0  0  0  0  0  2  0  0  0  0  0  0
  189.3440  178.1190  140.8880 C   0  0  2  0  0  3  0  0  0  0  0  0
  192.7730  176.1520  138.9400 C   0  0  0  0  0  2  0  0  0  0  0  0
  186.5420  176.7480  137.4700 O   0  0  0  0  0  0  0  0  0  0  0  0
  186.7150  179.0000  136.9700 F   0  0  0  0  0  0  0  0  0  0  0  0
  190.3770  176.9680  138.9160 C   0  0  0  0  0  0  0  0  0  0  0  0
  187.4940  176.4740  136.4770 C   0  0  0  0  0  2  0  0  0  0  0  0
  188.1760  178.1220  138.6710 C   0  0  2  0  0  3  0  0  0  0  0  0
  190.5070  177.4500  140.1730 C   0  0  0  0  0  0  0  0  0  0  0  0
  193.0120  177.2910  139.9180 C   0  0  0  0  0  2  0  0  0  0  0  0
  191.8360  177.3630  140.8870 C   0  0  0  0  0  2  0  0  0  0  0  0
  188.8370  176.1680  137.1230 C   0  0  0  0  0  2  0  0  0  0  0  0
  189.1360  177.1110  138.2050 N   0  0  0  0  0  0  0  0  0  0  0  0
  189.2540  177.6980  142.3670 C   0  0  2  0  0  3  0  0  0  0  0  0
  190.4980  177.5970  143.0400 O   0  0  0  0  0  0  0  0  0  0  0  0
  191.6730  179.3370  144.1970 C   0  0  0  0  0  1  0  0  0  0  0  0
  190.4800  178.3980  144.1950 C   0  0  2  0  0  3  0  0  0  0  0  0
  189.6010  177.6550  146.2460 O   0  0  0  0  0  0  0  0  0  0  0  0
  190.4930  177.5380  145.4220 C   0  0  0  0  0  0  0  0  0  0  0  0
  191.6060  176.5640  145.6660 C   0  0  0  0  0  2  0  0  0  0  0  0
  192.3520  176.9110  147.9060 O   0  0  0  0  0  1  0  0  0  0  0  0
  191.5930  176.0640  147.1000 C   0  0  0  0  0  2  0  0  0  0  0  0
  188.2870  176.5390  142.6310 C   0  0  0  0  0  2  0  0  0  0  0  0
  187.2760  176.9150  143.7040 C   0  0  0  0  0  2  0  0  0  0  0  0
  186.2020  177.6620  143.1420 O   0  0  0  0  0  0  0  0  0  0  0  0
  184.8570  179.5360  143.3020 O   0  0  0  0  0  0  0  0  0  0  0  0
  185.4780  178.6020  143.8770 C   0  0  0  0  0  0  0  0  0  0  0  0
  185.4330  178.4950  145.3580 C   0  0  0  0  0  1  0  0  0  0  0  0
  1  4  1  0  0  0  0
  2  7  1  6  0  0  0
  2 10  1  0  0  0  0
  3  8  1  0  0  0  0
  3  5  1  0  0  0  0
  4 16  1  1  0  0  0
  5 12  1  0  0  0  0
  6  2  1  0  0  0  0
  8 11  2  0  0  0  0
  9 14  1  0  0  0  0
  9  6  1  0  0  0  0
 10  1  1  1  0  0  0
 11 13  1  0  0  0  0
 11  4  1  0  0  0  0
 12 13  1  0  0  0  0
 14 15  1  0  0  0  0
 15 10  1  0  0  0  0
 15  8  1  0  0  0  0
 16 25  1  6  0  0  0
 16 17  1  0  0  0  0
 17 19  1  0  0  0  0
 19 18  1  1  0  0  0
 19 21  1  0  0  0  0
 21 22  1  0  0  0  0
 21 20  2  0  0  0  0
 22 24  1  0  0  0  0
 24 23  1  0  0  0  0
 25 26  1  0  0  0  0
 27 26  1  0  0  0  0
 27 29  1  0  0  0  0
 28 29  2  0  0  0  0
 29 30  1  0  0  0  0
M  END
>  <MODEL>
9

>  <REMARK>
 VINA RESULT:      -6.7      2.942      6.867
  Name = 
  10 active torsions:
  status: ('A' for Active; 'I' for Inactive)
    1  A    between atoms: C_4  and  C_27
    2  A    between atoms: C_5  and  C_12
    3  A    between atoms: C_5  and  C_21
    4  A    between atoms: O_7  and  C_15
    5  A    between atoms: O_7  and  C_16
    6  A    between atoms: C_8  and  C_12
    7  A    between atoms: C_8  and  O_13
    8  A    between atoms: O_13  and  C_27
    9  A    between atoms: C_16  and  C_30
   10  A    between atoms: C_27  and  C_30
                            x       y       z     vdW  Elec       q    Type
                         _______ _______ _______ _____ _____    ______ ____

>  <TORSDO>
F 10

$$$$
