=
 OpenBabel10262423573D

 34 38  0  0  0  0  0  0  0  0999 V2000
  181.9660  178.9080  143.1320 C   0  0  0  0  0  0  0  0  0  0  0  0
  182.4080  178.8370  140.7510 C   0  0  0  0  0  3  0  0  0  0  0  0
  184.2740  178.6000  142.3730 C   0  0  0  0  0  0  0  0  0  0  0  0
  186.6150  178.3330  141.7580 C   0  0  0  0  0  0  0  0  0  0  0  0
  180.1460  179.1410  141.5490 C   0  0  0  0  0  3  0  0  0  0  0  0
  180.5600  179.0730  139.0900 C   0  0  0  0  0  1  0  0  0  0  0  0
  184.9730  178.5470  140.0190 O   0  0  0  0  0  1  0  0  0  0  0  0
  182.8950  178.7800  142.0700 C   0  0  0  0  0  0  0  0  0  0  0  0
  180.6060  179.0880  142.8660 C   0  0  0  0  0  3  0  0  0  0  0  0
  184.6680  178.5400  143.7400 C   0  0  0  0  0  0  0  0  0  0  0  0
  182.3880  178.8630  144.4180 N   0  0  0  0  0  0  0  0  0  0  0  0
  181.0470  179.0150  140.4930 C   0  0  0  0  0  0  0  0  0  0  0  0
  186.9490  178.2820  143.0700 N   0  0  0  0  0  0  0  0  0  0  0  0
  186.0350  178.3650  144.0720 C   0  0  0  0  0  0  0  0  0  0  0  0
  185.2780  178.4920  141.3770 C   0  0  0  0  0  0  0  0  0  0  0  0
  183.6930  178.6880  144.7340 C   0  0  0  0  0  3  0  0  0  0  0  0
  188.0650  177.2610  147.0730 C   0  0  0  0  0  0  0  0  0  0  0  0
  187.4820  178.0010  148.1050 C   0  0  0  0  0  3  0  0  0  0  0  0
  186.5400  178.2760  145.4690 C   0  0  0  0  0  0  0  0  0  0  0  0
  186.4260  178.8710  147.8280 C   0  0  0  0  0  3  0  0  0  0  0  0
  187.5920  177.3940  145.7650 C   0  0  0  0  0  3  0  0  0  0  0  0
  185.9550  179.0030  146.5180 C   0  0  0  0  0  3  0  0  0  0  0  0
  189.0860  176.4120  147.3420 F   0  0  0  0  0  0  0  0  0  0  0  0
  187.6950  178.2540  140.7340 C   0  0  0  0  0  2  0  0  0  0  0  0
  188.9810  178.5070  141.3580 N   0  0  0  0  0  2  0  0  0  0  0  0
  189.7250  177.2630  141.2970 C   0  0  0  0  0  2  0  0  0  0  0  0
  191.1640  177.5160  141.7040 C   0  0  0  0  0  2  0  0  0  0  0  0
  191.0850  179.4690  143.9430 C   0  0  0  0  0  1  0  0  0  0  0  0
  191.3800  177.0920  143.1210 C   0  0  0  0  0  0  0  0  0  0  0  0
  191.3310  178.0170  144.1830 C   0  0  0  0  0  0  0  0  0  0  0  0
  191.7550  176.2240  145.7600 C   0  0  0  0  0  3  0  0  0  0  0  0
  191.7970  175.3050  144.7090 C   0  0  0  0  0  3  0  0  0  0  0  0
  191.6080  175.7380  143.3930 C   0  0  0  0  0  3  0  0  0  0  0  0
  191.5220  177.5770  145.4970 C   0  0  0  0  0  3  0  0  0  0  0  0
  1 11  1  0  0  0  0
  2  8  1  0  0  0  0
  3 10  1  0  0  0  0
  4 13  2  0  0  0  0
  5  9  2  0  0  0  0
  6 12  1  0  0  0  0
  7 15  1  0  0  0  0
  8  3  1  0  0  0  0
  8  1  2  0  0  0  0
  9  1  1  0  0  0  0
 10 14  2  0  0  0  0
 10 16  1  0  0  0  0
 11 16  2  0  0  0  0
 12  2  2  0  0  0  0
 12  5  1  0  0  0  0
 13 14  1  0  0  0  0
 14 19  1  0  0  0  0
 15  4  1  0  0  0  0
 15  3  2  0  0  0  0
 17 23  1  0  0  0  0
 17 18  1  0  0  0  0
 19 21  1  0  0  0  0
 19 22  2  0  0  0  0
 20 18  2  0  0  0  0
 21 17  2  0  0  0  0
 22 20  1  0  0  0  0
 24 25  1  0  0  0  0
 24  4  1  0  0  0  0
 26 25  1  0  0  0  0
 26 27  1  0  0  0  0
 27 29  1  0  0  0  0
 28 30  1  0  0  0  0
 29 33  2  0  0  0  0
 29 30  1  0  0  0  0
 30 34  2  0  0  0  0
 32 31  2  0  0  0  0
 33 32  1  0  0  0  0
 34 31  1  0  0  0  0
M  END
>  <MODEL>
1

>  <REMARK>
 VINA RESULT:      -9.9      0.000      0.000
  Name = 
  6 active torsions:
  status: ('A' for Active; 'I' for Inactive)
    1  A    between atoms: C_3  and  C_13
    2  A    between atoms: C_3  and  C_17
    3  A    between atoms: C_5  and  C_18
    4  A    between atoms: C_12  and  C_28
    5  A    between atoms: C_17  and  N_29
    6  A    between atoms: C_18  and  N_29
                            x       y       z     vdW  Elec       q    Type
                         _______ _______ _______ _____ _____    ______ ____

>  <TORSDO>
F 6

$$$$
=
 OpenBabel10262423573D

 34 38  0  0  0  0  0  0  0  0999 V2000
  187.6660  177.3610  146.2910 C   0  0  0  0  0  0  0  0  0  0  0  0
  189.7940  177.2500  145.1390 C   0  0  0  0  0  3  0  0  0  0  0  0
  187.7150  177.7490  143.8740 C   0  0  0  0  0  0  0  0  0  0  0  0
  187.6140  178.1110  141.4680 C   0  0  0  0  0  0  0  0  0  0  0  0
  189.6940  176.8730  147.5250 C   0  0  0  0  0  3  0  0  0  0  0  0
  191.9040  176.7500  146.3750 C   0  0  0  0  0  1  0  0  0  0  0  0
  189.7380  177.6380  142.4850 O   0  0  0  0  0  1  0  0  0  0  0  0
  188.4030  177.4550  145.0850 C   0  0  0  0  0  0  0  0  0  0  0  0
  188.3120  177.0710  147.4970 C   0  0  0  0  0  3  0  0  0  0  0  0
  186.3080  177.9550  143.9240 C   0  0  0  0  0  0  0  0  0  0  0  0
  186.3240  177.5460  146.2890 N   0  0  0  0  0  0  0  0  0  0  0  0
  190.4330  176.9620  146.3460 C   0  0  0  0  0  0  0  0  0  0  0  0
  186.2760  178.2980  141.5570 N   0  0  0  0  0  0  0  0  0  0  0  0
  185.5950  178.2460  142.7330 C   0  0  0  0  0  0  0  0  0  0  0  0
  188.3640  177.8330  142.6160 C   0  0  0  0  0  0  0  0  0  0  0  0
  185.6470  177.8330  145.1530 C   0  0  0  0  0  3  0  0  0  0  0  0
  182.0780  178.6290  141.3800 C   0  0  0  0  0  0  0  0  0  0  0  0
  181.3720  179.0220  142.5180 C   0  0  0  0  0  3  0  0  0  0  0  0
  184.1290  178.4900  142.6870 C   0  0  0  0  0  0  0  0  0  0  0  0
  182.0360  179.1590  143.7390 C   0  0  0  0  0  3  0  0  0  0  0  0
  183.4500  178.3710  141.4630 C   0  0  0  0  0  3  0  0  0  0  0  0
  183.4080  178.9000  143.8200 C   0  0  0  0  0  3  0  0  0  0  0  0
  181.4360  178.5020  140.1940 F   0  0  0  0  0  0  0  0  0  0  0  0
  188.2640  178.1690  140.1280 C   0  0  0  0  0  2  0  0  0  0  0  0
  187.2540  178.3500  139.1020 N   0  0  0  0  0  2  0  0  0  0  0  0
  187.8180  177.8400  137.8670 C   0  0  0  0  0  2  0  0  0  0  0  0
  186.7160  177.6760  136.8380 C   0  0  0  0  0  2  0  0  0  0  0  0
  183.8430  177.7310  137.5970 C   0  0  0  0  0  1  0  0  0  0  0  0
  185.9500  176.4200  137.0990 C   0  0  0  0  0  0  0  0  0  0  0  0
  184.5860  176.4460  137.4470 C   0  0  0  0  0  0  0  0  0  0  0  0
  184.5650  174.0230  137.5360 C   0  0  0  0  0  3  0  0  0  0  0  0
  185.9160  173.9950  137.1840 C   0  0  0  0  0  3  0  0  0  0  0  0
  186.6060  175.1900  136.9640 C   0  0  0  0  0  3  0  0  0  0  0  0
  183.9010  175.2460  137.6660 C   0  0  0  0  0  3  0  0  0  0  0  0
  1  9  2  0  0  0  0
  2 12  1  0  0  0  0
  3 10  1  0  0  0  0
  3  8  1  0  0  0  0
  4 13  2  0  0  0  0
  4 15  1  0  0  0  0
  7 15  1  0  0  0  0
  8  2  2  0  0  0  0
  8  1  1  0  0  0  0
  9  5  1  0  0  0  0
 10 16  1  0  0  0  0
 11  1  1  0  0  0  0
 12  6  1  0  0  0  0
 12  5  2  0  0  0  0
 13 14  1  0  0  0  0
 14 10  2  0  0  0  0
 15  3  2  0  0  0  0
 16 11  2  0  0  0  0
 17 21  2  0  0  0  0
 17 18  1  0  0  0  0
 18 20  2  0  0  0  0
 19 14  1  0  0  0  0
 19 22  2  0  0  0  0
 20 22  1  0  0  0  0
 21 19  1  0  0  0  0
 23 17  1  0  0  0  0
 24  4  1  0  0  0  0
 25 24  1  0  0  0  0
 26 25  1  0  0  0  0
 27 29  1  0  0  0  0
 27 26  1  0  0  0  0
 29 30  1  0  0  0  0
 30 28  1  0  0  0  0
 30 34  2  0  0  0  0
 31 34  1  0  0  0  0
 32 31  2  0  0  0  0
 33 29  2  0  0  0  0
 33 32  1  0  0  0  0
M  END
>  <MODEL>
2

>  <REMARK>
 VINA RESULT:      -9.7      3.380      7.414
  Name = 
  6 active torsions:
  status: ('A' for Active; 'I' for Inactive)
    1  A    between atoms: C_3  and  C_13
    2  A    between atoms: C_3  and  C_17
    3  A    between atoms: C_5  and  C_18
    4  A    between atoms: C_12  and  C_28
    5  A    between atoms: C_17  and  N_29
    6  A    between atoms: C_18  and  N_29
                            x       y       z     vdW  Elec       q    Type
                         _______ _______ _______ _____ _____    ______ ____

>  <TORSDO>
F 6

$$$$
=
 OpenBabel10262423573D

 34 38  0  0  0  0  0  0  0  0999 V2000
  187.5940  177.3370  146.3320 C   0  0  0  0  0  0  0  0  0  0  0  0
  189.7290  177.2630  145.1910 C   0  0  0  0  0  3  0  0  0  0  0  0
  187.6580  177.7910  143.9270 C   0  0  0  0  0  0  0  0  0  0  0  0
  187.5720  178.2170  141.5310 C   0  0  0  0  0  0  0  0  0  0  0  0
  189.6150  176.8200  147.5660 C   0  0  0  0  0  3  0  0  0  0  0  0
  191.8330  176.7340  146.4270 C   0  0  0  0  0  1  0  0  0  0  0  0
  189.6900  177.7230  142.5490 O   0  0  0  0  0  1  0  0  0  0  0  0
  188.3380  177.4650  145.1340 C   0  0  0  0  0  0  0  0  0  0  0  0
  188.2330  177.0160  147.5340 C   0  0  0  0  0  3  0  0  0  0  0  0
  186.2500  177.9920  143.9720 C   0  0  0  0  0  0  0  0  0  0  0  0
  186.2520  177.5190  146.3260 N   0  0  0  0  0  0  0  0  0  0  0  0
  190.3620  176.9430  146.3950 C   0  0  0  0  0  0  0  0  0  0  0  0
  186.2330  178.3990  141.6160 N   0  0  0  0  0  0  0  0  0  0  0  0
  185.5450  178.3140  142.7850 C   0  0  0  0  0  0  0  0  0  0  0  0
  188.3150  177.9110  142.6760 C   0  0  0  0  0  0  0  0  0  0  0  0
  185.5810  177.8350  145.1930 C   0  0  0  0  0  3  0  0  0  0  0  0
  182.0290  178.6820  141.4260 C   0  0  0  0  0  0  0  0  0  0  0  0
  181.3200  179.0820  142.5610 C   0  0  0  0  0  3  0  0  0  0  0  0
  184.0780  178.5550  142.7360 C   0  0  0  0  0  0  0  0  0  0  0  0
  181.9830  179.2280  143.7810 C   0  0  0  0  0  3  0  0  0  0  0  0
  183.4000  178.4270  141.5120 C   0  0  0  0  0  3  0  0  0  0  0  0
  183.3550  178.9710  143.8660 C   0  0  0  0  0  3  0  0  0  0  0  0
  181.3880  178.5470  140.2400 F   0  0  0  0  0  0  0  0  0  0  0  0
  188.2310  178.3130  140.1970 C   0  0  0  0  0  2  0  0  0  0  0  0
  187.2220  178.3590  139.1550 N   0  0  0  0  0  2  0  0  0  0  0  0
  187.8800  177.9760  137.9210 C   0  0  0  0  0  2  0  0  0  0  0  0
  189.3570  178.3040  138.0140 C   0  0  0  0  0  2  0  0  0  0  0  0
  191.5610  177.0060  139.5280 C   0  0  0  0  0  1  0  0  0  0  0  0
  190.1690  177.1980  137.4220 C   0  0  0  0  0  0  0  0  0  0  0  0
  191.2060  176.5760  138.1440 C   0  0  0  0  0  0  0  0  0  0  0  0
  191.6270  175.1030  136.2640 C   0  0  0  0  0  3  0  0  0  0  0  0
  190.5950  175.7150  135.5490 C   0  0  0  0  0  3  0  0  0  0  0  0
  189.8670  176.7590  136.1270 C   0  0  0  0  0  3  0  0  0  0  0  0
  191.9310  175.5320  137.5590 C   0  0  0  0  0  3  0  0  0  0  0  0
  1  9  2  0  0  0  0
  2 12  1  0  0  0  0
  3 10  1  0  0  0  0
  3  8  1  0  0  0  0
  4 13  2  0  0  0  0
  4 15  1  0  0  0  0
  7 15  1  0  0  0  0
  8  2  2  0  0  0  0
  8  1  1  0  0  0  0
  9  5  1  0  0  0  0
 10 16  1  0  0  0  0
 11  1  1  0  0  0  0
 12  6  1  0  0  0  0
 12  5  2  0  0  0  0
 13 14  1  0  0  0  0
 14 10  2  0  0  0  0
 15  3  2  0  0  0  0
 16 11  2  0  0  0  0
 17 21  2  0  0  0  0
 17 18  1  0  0  0  0
 18 20  2  0  0  0  0
 19 14  1  0  0  0  0
 19 22  2  0  0  0  0
 20 22  1  0  0  0  0
 21 19  1  0  0  0  0
 23 17  1  0  0  0  0
 24  4  1  0  0  0  0
 25 24  1  0  0  0  0
 26 27  1  0  0  0  0
 26 25  1  0  0  0  0
 29 27  1  0  0  0  0
 29 30  1  0  0  0  0
 30 28  1  0  0  0  0
 31 34  1  0  0  0  0
 32 33  1  0  0  0  0
 32 31  2  0  0  0  0
 33 29  2  0  0  0  0
 34 30  2  0  0  0  0
M  END
>  <MODEL>
3

>  <REMARK>
 VINA RESULT:      -9.6      3.261      6.801
  Name = 
  6 active torsions:
  status: ('A' for Active; 'I' for Inactive)
    1  A    between atoms: C_3  and  C_13
    2  A    between atoms: C_3  and  C_17
    3  A    between atoms: C_5  and  C_18
    4  A    between atoms: C_12  and  C_28
    5  A    between atoms: C_17  and  N_29
    6  A    between atoms: C_18  and  N_29
                            x       y       z     vdW  Elec       q    Type
                         _______ _______ _______ _____ _____    ______ ____

>  <TORSDO>
F 6

$$$$
=
 OpenBabel10262423573D

 34 38  0  0  0  0  0  0  0  0999 V2000
  186.4880  177.8720  144.9050 C   0  0  0  0  0  0  0  0  0  0  0  0
  188.8730  177.6560  144.5440 C   0  0  0  0  0  3  0  0  0  0  0  0
  187.3560  178.0890  142.6250 C   0  0  0  0  0  0  0  0  0  0  0  0
  188.0790  178.2820  140.3080 C   0  0  0  0  0  0  0  0  0  0  0  0
  187.9680  177.4480  146.7760 C   0  0  0  0  0  3  0  0  0  0  0  0
  190.4300  177.2200  146.4460 C   0  0  0  0  0  1  0  0  0  0  0  0
  189.7220  177.8580  142.0070 O   0  0  0  0  0  1  0  0  0  0  0  0
  187.5890  177.8730  144.0130 C   0  0  0  0  0  0  0  0  0  0  0  0
  186.6830  177.6600  146.2730 C   0  0  0  0  0  3  0  0  0  0  0  0
  186.0210  178.3140  142.1860 C   0  0  0  0  0  0  0  0  0  0  0  0
  185.2320  178.0720  144.4400 N   0  0  0  0  0  0  0  0  0  0  0  0
  189.0620  177.4470  145.9120 C   0  0  0  0  0  0  0  0  0  0  0  0
  186.7950  178.4910  139.9300 N   0  0  0  0  0  0  0  0  0  0  0  0
  185.7590  178.5290  140.8090 C   0  0  0  0  0  0  0  0  0  0  0  0
  188.3920  178.0770  141.6560 C   0  0  0  0  0  0  0  0  0  0  0  0
  184.9840  178.2860  143.1260 C   0  0  0  0  0  3  0  0  0  0  0  0
  182.0770  178.0970  140.0370 C   0  0  0  0  0  0  0  0  0  0  0  0
  181.8340  179.1690  139.1760 C   0  0  0  0  0  3  0  0  0  0  0  0
  184.4020  178.7860  140.2570 C   0  0  0  0  0  0  0  0  0  0  0  0
  182.8690  180.0470  138.8460 C   0  0  0  0  0  3  0  0  0  0  0  0
  183.3550  177.9030  140.5690 C   0  0  0  0  0  3  0  0  0  0  0  0
  184.1460  179.8520  139.3800 C   0  0  0  0  0  3  0  0  0  0  0  0
  181.0750  177.2420  140.3530 F   0  0  0  0  0  0  0  0  0  0  0  0
  189.1420  178.2390  139.2640 C   0  0  0  0  0  2  0  0  0  0  0  0
  188.8130  179.1620  138.1920 N   0  0  0  0  0  2  0  0  0  0  0  0
  188.8010  178.3880  136.9660 C   0  0  0  0  0  2  0  0  0  0  0  0
  187.3670  178.1550  136.5300 C   0  0  0  0  0  2  0  0  0  0  0  0
  184.5420  177.2860  136.8350 C   0  0  0  0  0  1  0  0  0  0  0  0
  187.0040  176.7150  136.6990 C   0  0  0  0  0  0  0  0  0  0  0  0
  185.6640  176.3030  136.8320 C   0  0  0  0  0  0  0  0  0  0  0  0
  186.3920  173.9940  136.9740 C   0  0  0  0  0  3  0  0  0  0  0  0
  187.7200  174.4010  136.8350 C   0  0  0  0  0  3  0  0  0  0  0  0
  188.0260  175.7580  136.6960 C   0  0  0  0  0  3  0  0  0  0  0  0
  185.3660  174.9440  136.9710 C   0  0  0  0  0  3  0  0  0  0  0  0
  1  9  2  0  0  0  0
  2 12  1  0  0  0  0
  3  8  1  0  0  0  0
  4 15  1  0  0  0  0
  8  2  2  0  0  0  0
  8  1  1  0  0  0  0
  9  5  1  0  0  0  0
 10  3  1  0  0  0  0
 10 16  1  0  0  0  0
 11  1  1  0  0  0  0
 12  6  1  0  0  0  0
 12  5  2  0  0  0  0
 13  4  2  0  0  0  0
 13 14  1  0  0  0  0
 14 10  2  0  0  0  0
 15  7  1  0  0  0  0
 15  3  2  0  0  0  0
 16 11  2  0  0  0  0
 17 23  1  0  0  0  0
 17 21  1  0  0  0  0
 18 17  2  0  0  0  0
 19 21  2  0  0  0  0
 19 14  1  0  0  0  0
 20 18  1  0  0  0  0
 20 22  2  0  0  0  0
 22 19  1  0  0  0  0
 24  4  1  0  0  0  0
 25 24  1  0  0  0  0
 26 25  1  0  0  0  0
 27 29  1  0  0  0  0
 27 26  1  0  0  0  0
 29 30  1  0  0  0  0
 30 28  1  0  0  0  0
 30 34  2  0  0  0  0
 32 31  2  0  0  0  0
 33 29  2  0  0  0  0
 33 32  1  0  0  0  0
 34 31  1  0  0  0  0
M  END
>  <MODEL>
4

>  <REMARK>
 VINA RESULT:      -9.6      3.501      7.319
  Name = 
  6 active torsions:
  status: ('A' for Active; 'I' for Inactive)
    1  A    between atoms: C_3  and  C_13
    2  A    between atoms: C_3  and  C_17
    3  A    between atoms: C_5  and  C_18
    4  A    between atoms: C_12  and  C_28
    5  A    between atoms: C_17  and  N_29
    6  A    between atoms: C_18  and  N_29
                            x       y       z     vdW  Elec       q    Type
                         _______ _______ _______ _____ _____    ______ ____

>  <TORSDO>
F 6

$$$$
=
 OpenBabel10262423573D

 34 38  0  0  0  0  0  0  0  0999 V2000
  185.2470  178.2930  143.6560 C   0  0  0  0  0  0  0  0  0  0  0  0
  185.3280  178.4750  141.2410 C   0  0  0  0  0  3  0  0  0  0  0  0
  187.3870  177.9340  142.5210 C   0  0  0  0  0  0  0  0  0  0  0  0
  189.5840  177.5980  141.5260 C   0  0  0  0  0  0  0  0  0  0  0  0
  183.2390  178.8220  142.4070 C   0  0  0  0  0  3  0  0  0  0  0  0
  183.2810  179.0190  139.9210 C   0  0  0  0  0  1  0  0  0  0  0  0
  187.7270  178.1170  140.0950 O   0  0  0  0  0  1  0  0  0  0  0  0
  185.9970  178.2330  142.4550 C   0  0  0  0  0  0  0  0  0  0  0  0
  183.8810  178.5860  143.6240 C   0  0  0  0  0  3  0  0  0  0  0  0
  187.9710  177.6890  143.7950 C   0  0  0  0  0  0  0  0  0  0  0  0
  185.8480  178.0710  144.8490 N   0  0  0  0  0  0  0  0  0  0  0  0
  183.9630  178.7670  141.2170 C   0  0  0  0  0  0  0  0  0  0  0  0
  190.1020  177.3730  142.7570 N   0  0  0  0  0  0  0  0  0  0  0  0
  189.3540  177.3920  143.8920 C   0  0  0  0  0  0  0  0  0  0  0  0
  188.2230  177.8830  141.3760 C   0  0  0  0  0  0  0  0  0  0  0  0
  187.1670  177.7790  144.9390 C   0  0  0  0  0  3  0  0  0  0  0  0
  190.1560  177.3780  147.5940 C   0  0  0  0  0  0  0  0  0  0  0  0
  191.3640  176.6790  147.6250 C   0  0  0  0  0  3  0  0  0  0  0  0
  190.0500  177.1090  145.1760 C   0  0  0  0  0  0  0  0  0  0  0  0
  191.9240  176.2000  146.4390 C   0  0  0  0  0  3  0  0  0  0  0  0
  189.5070  177.5970  146.3750 C   0  0  0  0  0  3  0  0  0  0  0  0
  191.2730  176.4190  145.2220 C   0  0  0  0  0  3  0  0  0  0  0  0
  189.6150  177.8480  148.7440 F   0  0  0  0  0  0  0  0  0  0  0  0
  190.4930  177.5740  140.3440 C   0  0  0  0  0  2  0  0  0  0  0  0
  190.5270  176.2360  139.7810 N   0  0  0  0  0  2  0  0  0  0  0  0
  191.0430  176.3660  138.4320 C   0  0  0  0  0  2  0  0  0  0  0  0
  190.0900  175.6970  137.4600 C   0  0  0  0  0  2  0  0  0  0  0  0
  187.3000  174.7130  137.1770 C   0  0  0  0  0  1  0  0  0  0  0  0
  188.9630  176.6200  137.1250 C   0  0  0  0  0  0  0  0  0  0  0  0
  187.6400  176.1540  137.0020 C   0  0  0  0  0  0  0  0  0  0  0  0
  186.8930  178.4140  136.5320 C   0  0  0  0  0  3  0  0  0  0  0  0
  188.2040  178.8770  136.6610 C   0  0  0  0  0  3  0  0  0  0  0  0
  189.2360  177.9830  136.9580 C   0  0  0  0  0  3  0  0  0  0  0  0
  186.6120  177.0550  136.7040 C   0  0  0  0  0  3  0  0  0  0  0  0
  1 11  1  0  0  0  0
  2  8  1  0  0  0  0
  3 10  1  0  0  0  0
  4 13  2  0  0  0  0
  5  9  2  0  0  0  0
  6 12  1  0  0  0  0
  7 15  1  0  0  0  0
  8  3  1  0  0  0  0
  8  1  2  0  0  0  0
  9  1  1  0  0  0  0
 10 14  2  0  0  0  0
 10 16  1  0  0  0  0
 11 16  2  0  0  0  0
 12  2  2  0  0  0  0
 12  5  1  0  0  0  0
 13 14  1  0  0  0  0
 14 19  1  0  0  0  0
 15  4  1  0  0  0  0
 15  3  2  0  0  0  0
 17 18  1  0  0  0  0
 17 23  1  0  0  0  0
 19 22  2  0  0  0  0
 19 21  1  0  0  0  0
 20 18  2  0  0  0  0
 21 17  2  0  0  0  0
 22 20  1  0  0  0  0
 24  4  1  0  0  0  0
 25 24  1  0  0  0  0
 26 25  1  0  0  0  0
 27 26  1  0  0  0  0
 29 27  1  0  0  0  0
 30 29  1  0  0  0  0
 30 28  1  0  0  0  0
 31 32  2  0  0  0  0
 31 34  1  0  0  0  0
 32 33  1  0  0  0  0
 33 29  2  0  0  0  0
 34 30  2  0  0  0  0
M  END
>  <MODEL>
5

>  <REMARK>
 VINA RESULT:      -9.5      2.569      5.113
  Name = 
  6 active torsions:
  status: ('A' for Active; 'I' for Inactive)
    1  A    between atoms: C_3  and  C_13
    2  A    between atoms: C_3  and  C_17
    3  A    between atoms: C_5  and  C_18
    4  A    between atoms: C_12  and  C_28
    5  A    between atoms: C_17  and  N_29
    6  A    between atoms: C_18  and  N_29
                            x       y       z     vdW  Elec       q    Type
                         _______ _______ _______ _____ _____    ______ ____

>  <TORSDO>
F 6

$$$$
=
 OpenBabel10262423573D

 34 38  0  0  0  0  0  0  0  0999 V2000
  190.3390  177.0480  145.0160 C   0  0  0  0  0  0  0  0  0  0  0  0
  188.2740  177.6360  146.1390 C   0  0  0  0  0  3  0  0  0  0  0  0
  188.4050  177.6950  143.6600 C   0  0  0  0  0  0  0  0  0  0  0  0
  186.5780  178.3590  142.1950 C   0  0  0  0  0  0  0  0  0  0  0  0
  190.2110  176.9930  147.4350 C   0  0  0  0  0  3  0  0  0  0  0  0
  188.1040  177.5910  148.6290 C   0  0  0  0  0  1  0  0  0  0  0  0
  186.2290  178.3800  144.5700 O   0  0  0  0  0  1  0  0  0  0  0  0
  188.9870  177.4650  144.9380 C   0  0  0  0  0  0  0  0  0  0  0  0
  190.9390  176.8170  146.2570 C   0  0  0  0  0  3  0  0  0  0  0  0
  189.2030  177.4800  142.5010 C   0  0  0  0  0  0  0  0  0  0  0  0
  191.0660  176.8740  143.8880 N   0  0  0  0  0  0  0  0  0  0  0  0
  188.8800  177.4020  147.3760 C   0  0  0  0  0  0  0  0  0  0  0  0
  187.3700  178.1450  141.1170 N   0  0  0  0  0  0  0  0  0  0  0  0
  188.6520  177.7030  141.2140 C   0  0  0  0  0  0  0  0  0  0  0  0
  187.0700  178.1410  143.4850 C   0  0  0  0  0  0  0  0  0  0  0  0
  190.5360  177.0790  142.6590 C   0  0  0  0  0  3  0  0  0  0  0  0
  189.7070  178.0320  137.5910 C   0  0  0  0  0  0  0  0  0  0  0  0
  190.7240  177.0790  137.4990 C   0  0  0  0  0  3  0  0  0  0  0  0
  189.4010  177.4930  139.9460 C   0  0  0  0  0  0  0  0  0  0  0  0
  191.0780  176.3270  138.6200 C   0  0  0  0  0  3  0  0  0  0  0  0
  189.0460  178.2320  138.8060 C   0  0  0  0  0  3  0  0  0  0  0  0
  190.4160  176.5290  139.8350 C   0  0  0  0  0  3  0  0  0  0  0  0
  189.3580  178.7580  136.5020 F   0  0  0  0  0  0  0  0  0  0  0  0
  185.1910  178.8640  141.9830 C   0  0  0  0  0  2  0  0  0  0  0  0
  185.1060  179.5370  140.6990 N   0  0  0  0  0  2  0  0  0  0  0  0
  184.0600  178.8690  139.9480 C   0  0  0  0  0  2  0  0  0  0  0  0
  184.4770  178.7530  138.4950 C   0  0  0  0  0  2  0  0  0  0  0  0
  186.2090  177.6020  136.3720 C   0  0  0  0  0  1  0  0  0  0  0  0
  184.3050  177.3470  138.0200 C   0  0  0  0  0  0  0  0  0  0  0  0
  185.1330  176.7990  137.0220 C   0  0  0  0  0  0  0  0  0  0  0  0
  183.9510  174.6890  137.2040 C   0  0  0  0  0  3  0  0  0  0  0  0
  183.1330  175.2290  138.1980 C   0  0  0  0  0  3  0  0  0  0  0  0
  183.3110  176.5540  138.6060 C   0  0  0  0  0  3  0  0  0  0  0  0
  184.9500  175.4720  136.6180 C   0  0  0  0  0  3  0  0  0  0  0  0
  1  9  2  0  0  0  0
  2 12  1  0  0  0  0
  3  8  1  0  0  0  0
  4 15  2  0  0  0  0
  8  1  1  0  0  0  0
  8  2  2  0  0  0  0
  9  5  1  0  0  0  0
 10 16  1  0  0  0  0
 10  3  2  0  0  0  0
 11  1  1  0  0  0  0
 12  5  2  0  0  0  0
 12  6  1  0  0  0  0
 13 14  2  0  0  0  0
 13  4  1  0  0  0  0
 14 10  1  0  0  0  0
 15  3  1  0  0  0  0
 15  7  1  0  0  0  0
 16 11  2  0  0  0  0
 17 21  1  0  0  0  0
 18 17  2  0  0  0  0
 18 20  1  0  0  0  0
 19 14  1  0  0  0  0
 20 22  2  0  0  0  0
 21 19  2  0  0  0  0
 22 19  1  0  0  0  0
 23 17  1  0  0  0  0
 24  4  1  0  0  0  0
 25 24  1  0  0  0  0
 26 25  1  0  0  0  0
 27 26  1  0  0  0  0
 28 30  1  0  0  0  0
 29 27  1  0  0  0  0
 29 33  1  0  0  0  0
 30 29  2  0  0  0  0
 31 32  1  0  0  0  0
 32 33  2  0  0  0  0
 34 30  1  0  0  0  0
 34 31  2  0  0  0  0
M  END
>  <MODEL>
6

>  <REMARK>
 VINA RESULT:      -9.5      3.474      8.397
  Name = 
  6 active torsions:
  status: ('A' for Active; 'I' for Inactive)
    1  A    between atoms: C_3  and  C_13
    2  A    between atoms: C_3  and  C_17
    3  A    between atoms: C_5  and  C_18
    4  A    between atoms: C_12  and  C_28
    5  A    between atoms: C_17  and  N_29
    6  A    between atoms: C_18  and  N_29
                            x       y       z     vdW  Elec       q    Type
                         _______ _______ _______ _____ _____    ______ ____

>  <TORSDO>
F 6

$$$$
=
 OpenBabel10262423573D

 34 38  0  0  0  0  0  0  0  0999 V2000
  186.6770  178.1930  137.4090 C   0  0  0  0  0  0  0  0  0  0  0  0
  189.0230  177.5980  137.3060 C   0  0  0  0  0  3  0  0  0  0  0  0
  187.9120  177.9150  139.5050 C   0  0  0  0  0  0  0  0  0  0  0  0
  189.0280  177.7140  141.6590 C   0  0  0  0  0  0  0  0  0  0  0  0
  187.7610  177.8850  135.2640 C   0  0  0  0  0  3  0  0  0  0  0  0
  190.1750  177.2720  135.1160 C   0  0  0  0  0  1  0  0  0  0  0  0
  190.3020  177.3670  139.6530 O   0  0  0  0  0  1  0  0  0  0  0  0
  187.8880  177.8980  138.0820 C   0  0  0  0  0  0  0  0  0  0  0  0
  186.6220  178.1860  136.0120 C   0  0  0  0  0  3  0  0  0  0  0  0
  186.7080  178.2150  140.2020 C   0  0  0  0  0  0  0  0  0  0  0  0
  185.5590  178.4910  138.1120 N   0  0  0  0  0  0  0  0  0  0  0  0
  188.9610  177.5910  135.9110 C   0  0  0  0  0  0  0  0  0  0  0  0
  187.8630  178.0050  142.2860 N   0  0  0  0  0  0  0  0  0  0  0  0
  186.7020  178.2430  141.6200 C   0  0  0  0  0  0  0  0  0  0  0  0
  189.0840  177.6620  140.2630 C   0  0  0  0  0  0  0  0  0  0  0  0
  185.5530  178.5100  139.4660 C   0  0  0  0  0  3  0  0  0  0  0  0
  184.5030  178.9610  144.6190 C   0  0  0  0  0  0  0  0  0  0  0  0
  183.2310  178.9970  144.0430 C   0  0  0  0  0  3  0  0  0  0  0  0
  185.4920  178.5320  142.4350 C   0  0  0  0  0  0  0  0  0  0  0  0
  183.0820  178.7950  142.6690 C   0  0  0  0  0  3  0  0  0  0  0  0
  185.6250  178.7230  143.8200 C   0  0  0  0  0  3  0  0  0  0  0  0
  184.2060  178.5590  141.8720 C   0  0  0  0  0  3  0  0  0  0  0  0
  184.6480  179.1510  145.9520 F   0  0  0  0  0  0  0  0  0  0  0  0
  190.2530  177.4880  142.4800 C   0  0  0  0  0  2  0  0  0  0  0  0
  190.5120  178.6560  143.3030 N   0  0  0  0  0  2  0  0  0  0  0  0
  191.2060  178.1850  144.4860 C   0  0  0  0  0  2  0  0  0  0  0  0
  190.5200  176.9390  145.0110 C   0  0  0  0  0  2  0  0  0  0  0  0
  191.4520  176.9120  147.8330 C   0  0  0  0  0  1  0  0  0  0  0  0
  189.6070  177.2900  146.1410 C   0  0  0  0  0  0  0  0  0  0  0  0
  190.0530  177.2880  147.4770 C   0  0  0  0  0  0  0  0  0  0  0  0
  187.8520  177.9970  148.2080 C   0  0  0  0  0  3  0  0  0  0  0  0
  187.4110  178.0060  146.8840 C   0  0  0  0  0  3  0  0  0  0  0  0
  188.2870  177.6550  145.8530 C   0  0  0  0  0  3  0  0  0  0  0  0
  189.1710  177.6400  148.5040 C   0  0  0  0  0  3  0  0  0  0  0  0
  1  8  2  0  0  0  0
  1 11  1  0  0  0  0
  2  8  1  0  0  0  0
  3 10  2  0  0  0  0
  3 15  1  0  0  0  0
  4 13  1  0  0  0  0
  4 24  1  0  0  0  0
  5 12  1  0  0  0  0
  5  9  2  0  0  0  0
  6 12  1  0  0  0  0
  7 15  1  0  0  0  0
  8  3  1  0  0  0  0
  9  1  1  0  0  0  0
 10 14  1  0  0  0  0
 11 16  2  0  0  0  0
 12  2  2  0  0  0  0
 14 13  2  0  0  0  0
 14 19  1  0  0  0  0
 15  4  2  0  0  0  0
 16 10  1  0  0  0  0
 17 23  1  0  0  0  0
 18 17  1  0  0  0  0
 19 21  1  0  0  0  0
 20 18  2  0  0  0  0
 21 17  2  0  0  0  0
 22 19  2  0  0  0  0
 22 20  1  0  0  0  0
 24 25  1  0  0  0  0
 25 26  1  0  0  0  0
 26 27  1  0  0  0  0
 27 29  1  0  0  0  0
 29 30  1  0  0  0  0
 30 28  1  0  0  0  0
 30 34  2  0  0  0  0
 31 34  1  0  0  0  0
 32 31  2  0  0  0  0
 33 29  2  0  0  0  0
 33 32  1  0  0  0  0
M  END
>  <MODEL>
7

>  <REMARK>
 VINA RESULT:      -9.4      2.831      5.591
  Name = 
  6 active torsions:
  status: ('A' for Active; 'I' for Inactive)
    1  A    between atoms: C_3  and  C_13
    2  A    between atoms: C_3  and  C_17
    3  A    between atoms: C_5  and  C_18
    4  A    between atoms: C_12  and  C_28
    5  A    between atoms: C_17  and  N_29
    6  A    between atoms: C_18  and  N_29
                            x       y       z     vdW  Elec       q    Type
                         _______ _______ _______ _____ _____    ______ ____

>  <TORSDO>
F 6

$$$$
=
 OpenBabel10262423573D

 34 38  0  0  0  0  0  0  0  0999 V2000
  184.1040  178.5580  144.4030 C   0  0  0  0  0  0  0  0  0  0  0  0
  183.9350  178.7240  141.9920 C   0  0  0  0  0  3  0  0  0  0  0  0
  186.1340  178.2860  143.0600 C   0  0  0  0  0  0  0  0  0  0  0  0
  188.2320  178.0380  141.8510 C   0  0  0  0  0  0  0  0  0  0  0  0
  181.9590  178.9870  143.3600 C   0  0  0  0  0  3  0  0  0  0  0  0
  181.7430  179.1640  140.8820 C   0  0  0  0  0  1  0  0  0  0  0  0
  186.2200  178.4610  140.6110 O   0  0  0  0  0  1  0  0  0  0  0  0
  184.7320  178.5220  143.1330 C   0  0  0  0  0  0  0  0  0  0  0  0
  182.7300  178.7910  144.5080 C   0  0  0  0  0  3  0  0  0  0  0  0
  186.8530  178.0780  144.2700 C   0  0  0  0  0  0  0  0  0  0  0  0
  184.8310  178.3740  145.5300 N   0  0  0  0  0  0  0  0  0  0  0  0
  182.5620  178.9540  142.1040 C   0  0  0  0  0  0  0  0  0  0  0  0
  188.8810  177.8470  143.0240 N   0  0  0  0  0  0  0  0  0  0  0  0
  188.2510  177.8430  144.2290 C   0  0  0  0  0  0  0  0  0  0  0  0
  186.8520  178.2610  141.8370 C   0  0  0  0  0  0  0  0  0  0  0  0
  186.1640  178.1420  145.4890 C   0  0  0  0  0  3  0  0  0  0  0  0
  191.1350  176.7250  146.4140 C   0  0  0  0  0  0  0  0  0  0  0  0
  190.6690  177.0420  147.6920 C   0  0  0  0  0  3  0  0  0  0  0  0
  189.0840  177.6020  145.4370 C   0  0  0  0  0  0  0  0  0  0  0  0
  189.4120  177.6300  147.8500 C   0  0  0  0  0  3  0  0  0  0  0  0
  190.3440  176.9980  145.2950 C   0  0  0  0  0  3  0  0  0  0  0  0
  188.6230  177.9030  146.7290 C   0  0  0  0  0  3  0  0  0  0  0  0
  192.3510  176.1490  146.2600 F   0  0  0  0  0  0  0  0  0  0  0  0
  189.0180  178.0440  140.5840 C   0  0  0  0  0  2  0  0  0  0  0  0
  189.8220  176.8370  140.5010 N   0  0  0  0  0  2  0  0  0  0  0  0
  190.8060  177.0630  139.4600 C   0  0  0  0  0  2  0  0  0  0  0  0
  190.0990  177.2920  138.1380 C   0  0  0  0  0  2  0  0  0  0  0  0
  187.2290  176.9620  137.4390 C   0  0  0  0  0  1  0  0  0  0  0  0
  189.5650  176.0010  137.6090 C   0  0  0  0  0  0  0  0  0  0  0  0
  188.2070  175.8490  137.2670 C   0  0  0  0  0  0  0  0  0  0  0  0
  188.6390  173.5620  136.5840 C   0  0  0  0  0  3  0  0  0  0  0  0
  189.9860  173.7140  136.9160 C   0  0  0  0  0  3  0  0  0  0  0  0
  190.4490  174.9300  137.4260 C   0  0  0  0  0  3  0  0  0  0  0  0
  187.7510  174.6280  136.7580 C   0  0  0  0  0  3  0  0  0  0  0  0
  1  9  1  0  0  0  0
  1 11  1  0  0  0  0
  2 12  2  0  0  0  0
  2  8  1  0  0  0  0
  3  8  1  0  0  0  0
  3 10  1  0  0  0  0
  4 13  2  0  0  0  0
  5  9  2  0  0  0  0
  6 12  1  0  0  0  0
  7 15  1  0  0  0  0
  8  1  2  0  0  0  0
 10 16  1  0  0  0  0
 12  5  1  0  0  0  0
 13 14  1  0  0  0  0
 14 10  2  0  0  0  0
 14 19  1  0  0  0  0
 15  4  1  0  0  0  0
 15  3  2  0  0  0  0
 16 11  2  0  0  0  0
 17 18  1  0  0  0  0
 18 20  2  0  0  0  0
 19 22  2  0  0  0  0
 21 19  1  0  0  0  0
 21 17  2  0  0  0  0
 22 20  1  0  0  0  0
 23 17  1  0  0  0  0
 24  4  1  0  0  0  0
 25 24  1  0  0  0  0
 26 25  1  0  0  0  0
 27 26  1  0  0  0  0
 29 27  1  0  0  0  0
 30 28  1  0  0  0  0
 30 29  2  0  0  0  0
 31 34  2  0  0  0  0
 31 32  1  0  0  0  0
 32 33  2  0  0  0  0
 33 29  1  0  0  0  0
 34 30  1  0  0  0  0
M  END
>  <MODEL>
8

>  <REMARK>
 VINA RESULT:      -9.4      2.620      4.321
  Name = 
  6 active torsions:
  status: ('A' for Active; 'I' for Inactive)
    1  A    between atoms: C_3  and  C_13
    2  A    between atoms: C_3  and  C_17
    3  A    between atoms: C_5  and  C_18
    4  A    between atoms: C_12  and  C_28
    5  A    between atoms: C_17  and  N_29
    6  A    between atoms: C_18  and  N_29
                            x       y       z     vdW  Elec       q    Type
                         _______ _______ _______ _____ _____    ______ ____

>  <TORSDO>
F 6

$$$$
=
 OpenBabel10262423573D

 34 38  0  0  0  0  0  0  0  0999 V2000
  187.4410  177.6660  146.5700 C   0  0  0  0  0  0  0  0  0  0  0  0
  189.6980  177.2850  145.7790 C   0  0  0  0  0  3  0  0  0  0  0  0
  187.8660  177.7140  144.1590 C   0  0  0  0  0  0  0  0  0  0  0  0
  188.1390  177.7450  141.7400 C   0  0  0  0  0  0  0  0  0  0  0  0
  189.2290  177.2460  148.1510 C   0  0  0  0  0  3  0  0  0  0  0  0
  191.5670  176.8490  147.3770 C   0  0  0  0  0  1  0  0  0  0  0  0
  190.0540  177.3060  143.1200 O   0  0  0  0  0  1  0  0  0  0  0  0
  188.3480  177.5540  145.4880 C   0  0  0  0  0  0  0  0  0  0  0  0
  187.8840  177.5120  147.8870 C   0  0  0  0  0  3  0  0  0  0  0  0
  186.4850  177.9990  143.9660 C   0  0  0  0  0  0  0  0  0  0  0  0
  186.1310  177.9200  146.3390 N   0  0  0  0  0  0  0  0  0  0  0  0
  190.1350  177.1330  147.0970 C   0  0  0  0  0  0  0  0  0  0  0  0
  186.8190  178.0140  141.5980 N   0  0  0  0  0  0  0  0  0  0  0  0
  185.9750  178.1600  142.6530 C   0  0  0  0  0  0  0  0  0  0  0  0
  188.6940  177.5890  143.0140 C   0  0  0  0  0  0  0  0  0  0  0  0
  185.6460  178.0830  145.0850 C   0  0  0  0  0  3  0  0  0  0  0  0
  182.2900  178.8770  143.1610 C   0  0  0  0  0  0  0  0  0  0  0  0
  181.8320  178.9790  141.8460 C   0  0  0  0  0  3  0  0  0  0  0  0
  184.5520  178.4730  142.3530 C   0  0  0  0  0  0  0  0  0  0  0  0
  182.7230  178.8210  140.7820 C   0  0  0  0  0  3  0  0  0  0  0  0
  183.6410  178.6190  143.4120 C   0  0  0  0  0  3  0  0  0  0  0  0
  184.0730  178.5640  141.0350 C   0  0  0  0  0  3  0  0  0  0  0  0
  181.4250  179.0240  144.1930 F   0  0  0  0  0  0  0  0  0  0  0  0
  188.9790  177.5830  140.5180 C   0  0  0  0  0  2  0  0  0  0  0  0
  188.6240  178.5990  139.5430 N   0  0  0  0  0  2  0  0  0  0  0  0
  188.7590  177.9860  138.2350 C   0  0  0  0  0  2  0  0  0  0  0  0
  188.0060  178.8130  137.2110 C   0  0  0  0  0  2  0  0  0  0  0  0
  187.5870  177.6170  134.5220 C   0  0  0  0  0  1  0  0  0  0  0  0
  186.7250  178.1370  136.8450 C   0  0  0  0  0  0  0  0  0  0  0  0
  186.5310  177.5610  135.5740 C   0  0  0  0  0  0  0  0  0  0  0  0
  184.3090  176.8510  136.2390 C   0  0  0  0  0  3  0  0  0  0  0  0
  184.5030  177.4150  137.5000 C   0  0  0  0  0  3  0  0  0  0  0  0
  185.7080  178.0560  137.8040 C   0  0  0  0  0  3  0  0  0  0  0  0
  185.3220  176.9220  135.2770 C   0  0  0  0  0  3  0  0  0  0  0  0
  1  9  2  0  0  0  0
  2 12  1  0  0  0  0
  3  8  1  0  0  0  0
  4 15  1  0  0  0  0
  8  2  2  0  0  0  0
  8  1  1  0  0  0  0
  9  5  1  0  0  0  0
 10  3  1  0  0  0  0
 10 16  1  0  0  0  0
 11  1  1  0  0  0  0
 12  6  1  0  0  0  0
 12  5  2  0  0  0  0
 13  4  2  0  0  0  0
 13 14  1  0  0  0  0
 14 10  2  0  0  0  0
 15  7  1  0  0  0  0
 15  3  2  0  0  0  0
 16 11  2  0  0  0  0
 17 21  1  0  0  0  0
 17 23  1  0  0  0  0
 18 17  2  0  0  0  0
 19 14  1  0  0  0  0
 19 21  2  0  0  0  0
 20 22  2  0  0  0  0
 20 18  1  0  0  0  0
 22 19  1  0  0  0  0
 24  4  1  0  0  0  0
 25 24  1  0  0  0  0
 26 25  1  0  0  0  0
 27 26  1  0  0  0  0
 28 30  1  0  0  0  0
 29 27  1  0  0  0  0
 29 33  1  0  0  0  0
 30 29  2  0  0  0  0
 31 32  1  0  0  0  0
 32 33  2  0  0  0  0
 34 30  1  0  0  0  0
 34 31  2  0  0  0  0
M  END
>  <MODEL>
9

>  <REMARK>
 VINA RESULT:      -9.4      3.248      7.514
  Name = 
  6 active torsions:
  status: ('A' for Active; 'I' for Inactive)
    1  A    between atoms: C_3  and  C_13
    2  A    between atoms: C_3  and  C_17
    3  A    between atoms: C_5  and  C_18
    4  A    between atoms: C_12  and  C_28
    5  A    between atoms: C_17  and  N_29
    6  A    between atoms: C_18  and  N_29
                            x       y       z     vdW  Elec       q    Type
                         _______ _______ _______ _____ _____    ______ ____

>  <TORSDO>
F 6

$$$$
