=
 OpenBabel10272415223D

 34 37  0  0  1  0  0  0  0  0999 V2000
  189.6880  176.8460  144.6540 C   0  0  0  0  0  0  0  0  0  0  0  0
  188.2850  177.3270  147.0850 C   0  0  0  0  0  3  0  0  0  0  0  0
  191.6590  176.7650  146.2410 C   0  0  0  0  0  3  0  0  0  0  0  0
  191.7170  176.9090  147.5900 N   0  0  0  0  0  0  0  0  0  0  0  0
  189.6610  177.1360  147.0480 C   0  0  0  0  0  0  0  0  0  0  0  0
  190.3350  176.9140  145.8860 C   0  0  0  0  0  0  0  0  0  0  0  0
  190.5110  177.1280  148.0390 O   0  0  0  0  0  0  0  0  0  0  0  0
  187.5910  177.2990  145.8610 C   0  0  0  0  0  0  0  0  0  0  0  0
  187.5930  177.1200  143.4370 O   0  0  0  0  0  1  0  0  0  0  0  0
  188.2870  177.0770  144.6420 C   0  0  0  0  0  0  0  0  0  0  0  0
  186.1110  177.4960  145.8640 C   0  0  0  0  0  2  0  0  0  0  0  0
  185.7620  178.9680  145.6700 C   0  0  2  0  0  3  0  0  0  0  0  0
  185.4650  179.5490  146.8910 F   0  0  0  0  0  0  0  0  0  0  0  0
  184.5840  179.1300  144.7170 C   0  0  0  0  0  0  0  0  0  0  0  0
  183.4010  179.1750  145.4330 F   0  0  0  0  0  0  0  0  0  0  0  0
  184.5430  178.0520  143.8530 F   0  0  0  0  0  0  0  0  0  0  0  0
  184.7190  180.2940  143.9800 F   0  0  0  0  0  0  0  0  0  0  0  0
  190.4440  176.6060  143.4600 N   0  0  0  0  0  2  0  0  0  0  0  0
  191.0790  177.6190  142.6750 C   0  0  0  0  0  0  0  0  0  0  0  0
  191.2180  179.1180  143.3190 S   0  0  0  0  0  0  0  0  0  0  0  0
  191.5680  177.3010  141.3600 N   0  0  0  0  0  2  0  0  0  0  0  0
  190.8860  176.6830  137.7480 C   0  0  0  0  0  3  0  0  0  0  0  0
  189.5400  177.7050  139.9820 C   0  0  0  0  0  3  0  0  0  0  0  0
  187.6060  177.5430  136.2510 C   0  0  0  0  0  0  0  0  0  0  0  0
  188.9260  177.0830  136.3820 C   0  0  0  0  0  3  0  0  0  0  0  0
  189.5720  177.1360  137.6190 C   0  0  0  0  0  0  0  0  0  0  0  0
  187.5820  178.1110  138.6170 C   0  0  0  0  0  3  0  0  0  0  0  0
  188.8950  177.6520  138.7450 C   0  0  0  0  0  0  0  0  0  0  0  0
  186.9410  178.0550  137.3750 C   0  0  0  0  0  3  0  0  0  0  0  0
  190.8570  177.2370  140.1160 C   0  0  0  0  0  0  0  0  0  0  0  0
  191.5250  176.7380  138.9900 C   0  0  0  0  0  3  0  0  0  0  0  0
  186.9260  177.4870  134.9460 C   0  0  0  0  0  0  0  0  0  0  0  0
  186.6150  176.2320  134.3460 N   0  0  0  0  0  1  0  0  0  0  0  0
  186.6110  178.5490  134.3460 O   0  0  0  0  0  0  0  0  0  0  0  0
  1  6  1  0  0  0  0
  3  4  2  0  0  0  0
  4  7  1  0  0  0  0
  5  2  1  0  0  0  0
  5  7  1  0  0  0  0
  6  3  1  0  0  0  0
  6  5  2  0  0  0  0
  8 11  1  0  0  0  0
  8  2  2  0  0  0  0
  9 10  1  0  0  0  0
 10  1  2  0  0  0  0
 10  8  1  0  0  0  0
 12 11  1  0  0  0  0
 12 13  1  1  0  0  0
 14 15  1  0  0  0  0
 14 12  1  0  0  0  0
 16 14  1  0  0  0  0
 17 14  1  0  0  0  0
 18  1  1  0  0  0  0
 19 20  2  0  0  0  0
 19 18  1  0  0  0  0
 21 19  1  0  0  0  0
 22 31  1  0  0  0  0
 23 30  1  0  0  0  0
 24 25  2  0  0  0  0
 24 29  1  0  0  0  0
 25 26  1  0  0  0  0
 26 22  2  0  0  0  0
 26 28  1  0  0  0  0
 27 28  1  0  0  0  0
 28 23  2  0  0  0  0
 29 27  2  0  0  0  0
 30 21  1  0  0  0  0
 31 30  2  0  0  0  0
 32 24  1  0  0  0  0
 33 32  1  0  0  0  0
 34 32  2  0  0  0  0
M  END
>  <MODEL>
1

>  <REMARK>
 VINA RESULT:      -9.2      0.000      0.000
  Name = 
  8 active torsions:
  status: ('A' for Active; 'I' for Inactive)
    1  A    between atoms: C_1  and  N_9
    2  A    between atoms: C_2  and  C_23
    3  A    between atoms: C_2  and  C_32
    4  A    between atoms: C_3  and  C_23
    5  A    between atoms: C_7  and  C_11
    6  A    between atoms: C_8  and  N_9
    7  A    between atoms: C_8  and  N_18
    8  A    between atoms: N_18  and  C_30
                            x       y       z     vdW  Elec       q    Type
                         _______ _______ _______ _____ _____    ______ ____

>  <TORSDO>
F 8

$$$$
=
 OpenBabel10272415223D

 34 37  0  0  1  0  0  0  0  0999 V2000
  186.0010  177.7300  143.4850 C   0  0  0  0  0  0  0  0  0  0  0  0
  186.8630  177.9800  146.1880 C   0  0  0  0  0  3  0  0  0  0  0  0
  183.9380  178.8540  144.4300 C   0  0  0  0  0  3  0  0  0  0  0  0
  183.6580  179.2790  145.6880 N   0  0  0  0  0  0  0  0  0  0  0  0
  185.6170  178.4250  145.7620 C   0  0  0  0  0  0  0  0  0  0  0  0
  185.2000  178.3000  144.4730 C   0  0  0  0  0  0  0  0  0  0  0  0
  184.6790  179.0090  146.4570 O   0  0  0  0  0  0  0  0  0  0  0  0
  187.6960  177.3670  145.2320 C   0  0  0  0  0  0  0  0  0  0  0  0
  188.0750  176.5560  142.9730 O   0  0  0  0  0  1  0  0  0  0  0  0
  187.2650  177.2240  143.8860 C   0  0  0  0  0  0  0  0  0  0  0  0
  189.0430  176.8800  145.6530 C   0  0  0  0  0  2  0  0  0  0  0  0
  190.1070  177.9400  145.3890 C   0  0  2  0  0  3  0  0  0  0  0  0
  189.6280  178.8770  144.4900 F   0  0  0  0  0  0  0  0  0  0  0  0
  191.3860  177.3090  144.8500 C   0  0  0  0  0  0  0  0  0  0  0  0
  191.0730  176.2680  143.9940 F   0  0  0  0  0  0  0  0  0  0  0  0
  192.1310  176.8140  145.9040 F   0  0  0  0  0  0  0  0  0  0  0  0
  192.1360  178.2530  144.1700 F   0  0  0  0  0  0  0  0  0  0  0  0
  185.5150  177.6240  142.1410 N   0  0  0  0  0  2  0  0  0  0  0  0
  185.7730  178.5700  141.1000 C   0  0  0  0  0  0  0  0  0  0  0  0
  184.4970  179.1520  140.2530 S   0  0  0  0  0  0  0  0  0  0  0  0
  187.1250  178.9790  140.8260 N   0  0  0  0  0  2  0  0  0  0  0  0
  188.5720  177.4490  137.7510 C   0  0  0  0  0  3  0  0  0  0  0  0
  189.4050  178.1190  140.3400 C   0  0  0  0  0  3  0  0  0  0  0  0
  192.1010  176.3200  137.6600 C   0  0  0  0  0  0  0  0  0  0  0  0
  190.7830  176.5900  137.2600 C   0  0  0  0  0  3  0  0  0  0  0  0
  189.8840  177.1860  138.1480 C   0  0  0  0  0  0  0  0  0  0  0  0
  191.6140  177.2550  139.8530 C   0  0  0  0  0  3  0  0  0  0  0  0
  190.3030  177.5220  139.4530 C   0  0  0  0  0  0  0  0  0  0  0  0
  192.5090  176.6570  138.9590 C   0  0  0  0  0  3  0  0  0  0  0  0
  188.0890  178.3960  139.9390 C   0  0  0  0  0  0  0  0  0  0  0  0
  187.6790  178.0480  138.6450 C   0  0  0  0  0  3  0  0  0  0  0  0
  193.0480  175.6910  136.7240 C   0  0  0  0  0  0  0  0  0  0  0  0
  194.3970  176.1430  136.6490 N   0  0  0  0  0  1  0  0  0  0  0  0
  192.6740  174.7460  135.9790 O   0  0  0  0  0  0  0  0  0  0  0  0
  1 10  2  0  0  0  0
  1  6  1  0  0  0  0
  3  6  1  0  0  0  0
  3  4  2  0  0  0  0
  4  7  1  0  0  0  0
  5  2  1  0  0  0  0
  5  7  1  0  0  0  0
  6  5  2  0  0  0  0
  8 11  1  0  0  0  0
  8  2  2  0  0  0  0
  9 10  1  0  0  0  0
 10  8  1  0  0  0  0
 12 13  1  6  0  0  0
 12 11  1  0  0  0  0
 14 12  1  0  0  0  0
 14 16  1  0  0  0  0
 15 14  1  0  0  0  0
 17 14  1  0  0  0  0
 18  1  1  0  0  0  0
 19 18  1  0  0  0  0
 20 19  2  0  0  0  0
 21 19  1  0  0  0  0
 22 26  2  0  0  0  0
 22 31  1  0  0  0  0
 24 29  1  0  0  0  0
 25 24  2  0  0  0  0
 25 26  1  0  0  0  0
 26 28  1  0  0  0  0
 28 27  1  0  0  0  0
 28 23  2  0  0  0  0
 29 27  2  0  0  0  0
 30 23  1  0  0  0  0
 30 21  1  0  0  0  0
 31 30  2  0  0  0  0
 32 24  1  0  0  0  0
 33 32  1  0  0  0  0
 34 32  2  0  0  0  0
M  END
>  <MODEL>
2

>  <REMARK>
 VINA RESULT:      -9.1      3.781      5.325
  Name = 
  8 active torsions:
  status: ('A' for Active; 'I' for Inactive)
    1  A    between atoms: C_1  and  N_9
    2  A    between atoms: C_2  and  C_23
    3  A    between atoms: C_2  and  C_32
    4  A    between atoms: C_3  and  C_23
    5  A    between atoms: C_7  and  C_11
    6  A    between atoms: C_8  and  N_9
    7  A    between atoms: C_8  and  N_18
    8  A    between atoms: N_18  and  C_30
                            x       y       z     vdW  Elec       q    Type
                         _______ _______ _______ _____ _____    ______ ____

>  <TORSDO>
F 8

$$$$
=
 OpenBabel10272415223D

 34 37  0  0  1  0  0  0  0  0999 V2000
  187.2950  177.4420  144.3940 C   0  0  0  0  0  0  0  0  0  0  0  0
  188.5130  177.9480  146.9180 C   0  0  0  0  0  3  0  0  0  0  0  0
  185.2480  178.2660  145.6350 C   0  0  0  0  0  3  0  0  0  0  0  0
  185.1010  178.6980  146.9140 N   0  0  0  0  0  0  0  0  0  0  0  0
  187.1610  178.1700  146.6890 C   0  0  0  0  0  0  0  0  0  0  0  0
  186.5740  177.9220  145.4860 C   0  0  0  0  0  0  0  0  0  0  0  0
  186.2590  178.6280  147.5140 O   0  0  0  0  0  0  0  0  0  0  0  0
  189.2770  177.4320  145.8530 C   0  0  0  0  0  0  0  0  0  0  0  0
  189.4290  176.5900  143.5790 O   0  0  0  0  0  1  0  0  0  0  0  0
  188.6720  177.1610  144.5970 C   0  0  0  0  0  0  0  0  0  0  0  0
  190.7350  177.1850  146.0620 C   0  0  0  0  0  2  0  0  0  0  0  0
  190.9990  176.6750  147.4750 C   0  0  2  0  0  3  0  0  0  0  0  0
  191.4560  177.7090  148.2740 F   0  0  0  0  0  0  0  0  0  0  0  0
  192.0140  175.5380  147.4650 C   0  0  0  0  0  0  0  0  0  0  0  0
  191.4520  174.4010  148.0180 F   0  0  0  0  0  0  0  0  0  0  0  0
  193.1160  175.9020  148.2150 F   0  0  0  0  0  0  0  0  0  0  0  0
  192.4180  175.2670  146.1700 F   0  0  0  0  0  0  0  0  0  0  0  0
  186.6300  177.1990  143.1470 N   0  0  0  0  0  2  0  0  0  0  0  0
  186.2510  178.2120  142.2110 C   0  0  0  0  0  0  0  0  0  0  0  0
  184.6570  178.5470  142.0430 S   0  0  0  0  0  0  0  0  0  0  0  0
  187.2630  178.8970  141.4510 N   0  0  0  0  0  2  0  0  0  0  0  0
  188.5340  177.5570  138.2130 C   0  0  0  0  0  3  0  0  0  0  0  0
  189.5160  178.0900  140.7820 C   0  0  0  0  0  3  0  0  0  0  0  0
  192.0610  176.4750  137.8490 C   0  0  0  0  0  0  0  0  0  0  0  0
  190.7180  176.7510  137.5440 C   0  0  0  0  0  3  0  0  0  0  0  0
  189.8700  177.2870  138.5160 C   0  0  0  0  0  0  0  0  0  0  0  0
  191.6990  177.2800  140.1160 C   0  0  0  0  0  3  0  0  0  0  0  0
  190.3640  177.5540  139.8110 C   0  0  0  0  0  0  0  0  0  0  0  0
  192.5430  176.7430  139.1390 C   0  0  0  0  0  3  0  0  0  0  0  0
  188.1760  178.3750  140.4760 C   0  0  0  0  0  0  0  0  0  0  0  0
  187.6920  178.0940  139.1920 C   0  0  0  0  0  3  0  0  0  0  0  0
  192.9540  175.9100  136.8240 C   0  0  0  0  0  0  0  0  0  0  0  0
  194.1520  176.5890  136.4560 N   0  0  0  0  0  1  0  0  0  0  0  0
  192.6680  174.8190  136.2610 O   0  0  0  0  0  0  0  0  0  0  0  0
  1 10  2  0  0  0  0
  1  6  1  0  0  0  0
  3  4  2  0  0  0  0
  4  7  1  0  0  0  0
  5  2  1  0  0  0  0
  5  7  1  0  0  0  0
  6  3  1  0  0  0  0
  6  5  2  0  0  0  0
  8 11  1  0  0  0  0
  8  2  2  0  0  0  0
  9 10  1  0  0  0  0
 10  8  1  0  0  0  0
 11 12  1  0  0  0  0
 12 13  1  1  0  0  0
 14 12  1  0  0  0  0
 14 15  1  0  0  0  0
 14 16  1  0  0  0  0
 17 14  1  0  0  0  0
 18  1  1  0  0  0  0
 19 18  1  0  0  0  0
 20 19  2  0  0  0  0
 21 19  1  0  0  0  0
 22 26  2  0  0  0  0
 22 31  1  0  0  0  0
 24 29  1  0  0  0  0
 25 24  2  0  0  0  0
 25 26  1  0  0  0  0
 26 28  1  0  0  0  0
 28 27  1  0  0  0  0
 28 23  2  0  0  0  0
 29 27  2  0  0  0  0
 30 23  1  0  0  0  0
 30 21  1  0  0  0  0
 31 30  2  0  0  0  0
 32 24  1  0  0  0  0
 33 32  1  0  0  0  0
 34 32  2  0  0  0  0
M  END
>  <MODEL>
3

>  <REMARK>
 VINA RESULT:      -9.1      4.068      5.388
  Name = 
  8 active torsions:
  status: ('A' for Active; 'I' for Inactive)
    1  A    between atoms: C_1  and  N_9
    2  A    between atoms: C_2  and  C_23
    3  A    between atoms: C_2  and  C_32
    4  A    between atoms: C_3  and  C_23
    5  A    between atoms: C_7  and  C_11
    6  A    between atoms: C_8  and  N_9
    7  A    between atoms: C_8  and  N_18
    8  A    between atoms: N_18  and  C_30
                            x       y       z     vdW  Elec       q    Type
                         _______ _______ _______ _____ _____    ______ ____

>  <TORSDO>
F 8

$$$$
=
 OpenBabel10272415223D

 34 37  0  0  1  0  0  0  0  0999 V2000
  185.8460  178.4760  139.3710 C   0  0  0  0  0  0  0  0  0  0  0  0
  188.1810  177.3810  138.1650 C   0  0  0  0  0  3  0  0  0  0  0  0
  184.7830  177.5790  137.2550 C   0  0  0  0  0  3  0  0  0  0  0  0
  185.3260  176.9120  136.2050 N   0  0  0  0  0  0  0  0  0  0  0  0
  186.9320  177.3140  137.5590 C   0  0  0  0  0  0  0  0  0  0  0  0
  185.8150  177.8430  138.1300 C   0  0  0  0  0  0  0  0  0  0  0  0
  186.6070  176.7700  136.4180 O   0  0  0  0  0  0  0  0  0  0  0  0
  188.2680  178.0400  139.4060 C   0  0  0  0  0  0  0  0  0  0  0  0
  187.2280  179.3070  141.2000 O   0  0  0  0  0  1  0  0  0  0  0  0
  187.1090  178.6030  140.0060 C   0  0  0  0  0  0  0  0  0  0  0  0
  189.5930  178.1260  140.0880 C   0  0  0  0  0  2  0  0  0  0  0  0
  189.8220  176.9100  140.9790 C   0  0  2  0  0  3  0  0  0  0  0  0
  188.6210  176.4890  141.5230 F   0  0  0  0  0  0  0  0  0  0  0  0
  190.8140  177.2280  142.0920 C   0  0  0  0  0  0  0  0  0  0  0  0
  190.4320  178.3840  142.7480 F   0  0  0  0  0  0  0  0  0  0  0  0
  192.0700  177.4170  141.5460 F   0  0  0  0  0  0  0  0  0  0  0  0
  190.8680  176.1830  142.9980 F   0  0  0  0  0  0  0  0  0  0  0  0
  184.6400  179.0140  139.9310 N   0  0  0  0  0  2  0  0  0  0  0  0
  183.6890  178.2690  140.6960 C   0  0  0  0  0  0  0  0  0  0  0  0
  182.9210  177.0200  139.9660 S   0  0  0  0  0  0  0  0  0  0  0  0
  183.4330  178.6320  142.0650 N   0  0  0  0  0  2  0  0  0  0  0  0
  184.6510  178.9770  145.5710 C   0  0  0  0  0  3  0  0  0  0  0  0
  185.5510  177.9070  143.1440 C   0  0  0  0  0  3  0  0  0  0  0  0
  187.9800  177.6880  146.5710 C   0  0  0  0  0  0  0  0  0  0  0  0
  186.7150  178.2940  146.6390 C   0  0  0  0  0  3  0  0  0  0  0  0
  185.9060  178.3700  145.5030 C   0  0  0  0  0  0  0  0  0  0  0  0
  187.6180  177.2290  144.2080 C   0  0  0  0  0  3  0  0  0  0  0  0
  186.3600  177.8320  144.2790 C   0  0  0  0  0  0  0  0  0  0  0  0
  188.4230  177.1570  145.3500 C   0  0  0  0  0  3  0  0  0  0  0  0
  184.2840  178.5060  143.2130 C   0  0  0  0  0  0  0  0  0  0  0  0
  183.8470  179.0470  144.4290 C   0  0  0  0  0  3  0  0  0  0  0  0
  188.8320  177.6090  147.7690 C   0  0  0  0  0  0  0  0  0  0  0  0
  188.3230  177.9880  149.0440 N   0  0  0  0  0  1  0  0  0  0  0  0
  190.0220  177.2040  147.6780 O   0  0  0  0  0  0  0  0  0  0  0  0
  1 18  1  0  0  0  0
  1 10  1  0  0  0  0
  2  8  1  0  0  0  0
  3  6  1  0  0  0  0
  4  7  1  0  0  0  0
  4  3  2  0  0  0  0
  5  6  1  0  0  0  0
  5  2  2  0  0  0  0
  6  1  2  0  0  0  0
  7  5  1  0  0  0  0
  8 10  2  0  0  0  0
  8 11  1  0  0  0  0
 10  9  1  0  0  0  0
 11 12  1  0  0  0  0
 12 13  1  1  0  0  0
 12 14  1  0  0  0  0
 14 15  1  0  0  0  0
 14 17  1  0  0  0  0
 16 14  1  0  0  0  0
 18 19  1  0  0  0  0
 19 21  1  0  0  0  0
 20 19  2  0  0  0  0
 21 30  1  0  0  0  0
 23 30  2  0  0  0  0
 23 28  1  0  0  0  0
 24 25  1  0  0  0  0
 24 32  1  0  0  0  0
 26 22  1  0  0  0  0
 26 25  2  0  0  0  0
 27 28  2  0  0  0  0
 27 29  1  0  0  0  0
 28 26  1  0  0  0  0
 29 24  2  0  0  0  0
 30 31  1  0  0  0  0
 31 22  2  0  0  0  0
 32 33  1  0  0  0  0
 34 32  2  0  0  0  0
M  END
>  <MODEL>
4

>  <REMARK>
 VINA RESULT:      -9.1      3.596      8.991
  Name = 
  8 active torsions:
  status: ('A' for Active; 'I' for Inactive)
    1  A    between atoms: C_1  and  N_9
    2  A    between atoms: C_2  and  C_23
    3  A    between atoms: C_2  and  C_32
    4  A    between atoms: C_3  and  C_23
    5  A    between atoms: C_7  and  C_11
    6  A    between atoms: C_8  and  N_9
    7  A    between atoms: C_8  and  N_18
    8  A    between atoms: N_18  and  C_30
                            x       y       z     vdW  Elec       q    Type
                         _______ _______ _______ _____ _____    ______ ____

>  <TORSDO>
F 8

$$$$
=
 OpenBabel10272415223D

 34 37  0  0  1  0  0  0  0  0999 V2000
  184.7090  177.8210  138.5300 C   0  0  0  0  0  0  0  0  0  0  0  0
  182.3540  177.1470  139.9830 C   0  0  0  0  0  3  0  0  0  0  0  0
  184.0990  175.7030  137.2850 C   0  0  0  0  0  3  0  0  0  0  0  0
  183.0570  174.8480  137.4480 N   0  0  0  0  0  0  0  0  0  0  0  0
  182.8260  176.3690  138.9330 C   0  0  0  0  0  0  0  0  0  0  0  0
  183.9550  176.6850  138.2420 C   0  0  0  0  0  0  0  0  0  0  0  0
  182.3180  175.2730  138.4370 O   0  0  0  0  0  0  0  0  0  0  0  0
  183.1000  178.2890  140.3330 C   0  0  0  0  0  0  0  0  0  0  0  0
  185.0430  179.7150  140.0280 O   0  0  0  0  0  1  0  0  0  0  0  0
  184.2850  178.6210  139.6240 C   0  0  0  0  0  0  0  0  0  0  0  0
  182.6190  179.1510  141.4540 C   0  0  0  0  0  2  0  0  0  0  0  0
  182.7640  178.4290  142.7900 C   0  0  2  0  0  3  0  0  0  0  0  0
  181.8390  178.9180  143.6950 F   0  0  0  0  0  0  0  0  0  0  0  0
  184.1730  178.5900  143.3480 C   0  0  0  0  0  0  0  0  0  0  0  0
  184.6590  179.8490  143.0450 F   0  0  0  0  0  0  0  0  0  0  0  0
  185.0020  177.6410  142.7790 F   0  0  0  0  0  0  0  0  0  0  0  0
  184.1670  178.4190  144.7210 F   0  0  0  0  0  0  0  0  0  0  0  0
  185.8900  178.1100  137.7700 N   0  0  0  0  0  2  0  0  0  0  0  0
  187.2100  177.6800  138.1130 C   0  0  0  0  0  0  0  0  0  0  0  0
  187.7390  176.2550  137.5040 S   0  0  0  0  0  0  0  0  0  0  0  0
  188.0250  178.4960  138.9740 N   0  0  0  0  0  2  0  0  0  0  0  0
  190.5780  177.3400  141.4320 C   0  0  0  0  0  3  0  0  0  0  0  0
  187.9270  178.2480  141.4440 C   0  0  0  0  0  3  0  0  0  0  0  0
  189.7980  177.1640  145.0520 C   0  0  0  0  0  0  0  0  0  0  0  0
  190.4990  177.0750  143.8390 C   0  0  0  0  0  3  0  0  0  0  0  0
  189.8810  177.4330  142.6380 C   0  0  0  0  0  0  0  0  0  0  0  0
  187.8450  177.9770  143.8490 C   0  0  0  0  0  3  0  0  0  0  0  0
  188.5450  177.8890  142.6440 C   0  0  0  0  0  0  0  0  0  0  0  0
  188.4700  177.6170  145.0480 C   0  0  0  0  0  3  0  0  0  0  0  0
  188.6300  178.1670  140.2320 C   0  0  0  0  0  0  0  0  0  0  0  0
  189.9520  177.7020  140.2350 C   0  0  0  0  0  3  0  0  0  0  0  0
  190.4500  176.7860  146.3170 C   0  0  0  0  0  0  0  0  0  0  0  0
  191.8700  176.6980  146.3990 N   0  0  0  0  0  1  0  0  0  0  0  0
  189.7580  176.5360  147.3400 O   0  0  0  0  0  0  0  0  0  0  0  0
  1 10  1  0  0  0  0
  2  8  1  0  0  0  0
  3  4  2  0  0  0  0
  3  6  1  0  0  0  0
  4  7  1  0  0  0  0
  5  2  2  0  0  0  0
  6  1  2  0  0  0  0
  6  5  1  0  0  0  0
  7  5  1  0  0  0  0
  8 11  1  0  0  0  0
 10  9  1  0  0  0  0
 10  8  2  0  0  0  0
 11 12  1  0  0  0  0
 12 14  1  0  0  0  0
 12 13  1  1  0  0  0
 14 17  1  0  0  0  0
 15 14  1  0  0  0  0
 16 14  1  0  0  0  0
 18 19  1  0  0  0  0
 18  1  1  0  0  0  0
 19 21  1  0  0  0  0
 20 19  2  0  0  0  0
 21 30  1  0  0  0  0
 22 26  1  0  0  0  0
 23 28  1  0  0  0  0
 24 32  1  0  0  0  0
 25 24  2  0  0  0  0
 26 28  2  0  0  0  0
 26 25  1  0  0  0  0
 27 29  2  0  0  0  0
 28 27  1  0  0  0  0
 29 24  1  0  0  0  0
 30 31  1  0  0  0  0
 30 23  2  0  0  0  0
 31 22  2  0  0  0  0
 32 33  1  0  0  0  0
 32 34  2  0  0  0  0
M  END
>  <MODEL>
5

>  <REMARK>
 VINA RESULT:      -8.9      3.238      7.707
  Name = 
  8 active torsions:
  status: ('A' for Active; 'I' for Inactive)
    1  A    between atoms: C_1  and  N_9
    2  A    between atoms: C_2  and  C_23
    3  A    between atoms: C_2  and  C_32
    4  A    between atoms: C_3  and  C_23
    5  A    between atoms: C_7  and  C_11
    6  A    between atoms: C_8  and  N_9
    7  A    between atoms: C_8  and  N_18
    8  A    between atoms: N_18  and  C_30
                            x       y       z     vdW  Elec       q    Type
                         _______ _______ _______ _____ _____    ______ ____

>  <TORSDO>
F 8

$$$$
=
 OpenBabel10272415223D

 34 37  0  0  1  0  0  0  0  0999 V2000
  185.1070  178.5670  139.7450 C   0  0  0  0  0  0  0  0  0  0  0  0
  183.1420  178.0520  141.7400 C   0  0  0  0  0  3  0  0  0  0  0  0
  183.5950  177.0520  138.3930 C   0  0  0  0  0  3  0  0  0  0  0  0
  182.4350  176.4310  138.7270 N   0  0  0  0  0  0  0  0  0  0  0  0
  183.0660  177.5050  140.4650 C   0  0  0  0  0  0  0  0  0  0  0  0
  184.0070  177.7440  139.5120 C   0  0  0  0  0  0  0  0  0  0  0  0
  182.1470  176.7220  139.9670 O   0  0  0  0  0  0  0  0  0  0  0  0
  184.2530  178.8660  142.0340 C   0  0  0  0  0  0  0  0  0  0  0  0
  186.3690  179.8650  141.3780 O   0  0  0  0  0  1  0  0  0  0  0  0
  185.2460  179.1130  141.0480 C   0  0  0  0  0  0  0  0  0  0  0  0
  184.3660  179.4740  143.3930 C   0  0  0  0  0  2  0  0  0  0  0  0
  184.0030  178.4570  144.4700 C   0  0  2  0  0  3  0  0  0  0  0  0
  182.7760  178.7750  145.0270 F   0  0  0  0  0  0  0  0  0  0  0  0
  185.0700  178.4090  145.5580 C   0  0  0  0  0  0  0  0  0  0  0  0
  184.4770  178.2130  146.7920 F   0  0  0  0  0  0  0  0  0  0  0  0
  185.7580  179.6080  145.5770 F   0  0  0  0  0  0  0  0  0  0  0  0
  185.9620  177.3800  145.3080 F   0  0  0  0  0  0  0  0  0  0  0  0
  186.0700  178.7880  138.7050 N   0  0  0  0  0  2  0  0  0  0  0  0
  187.2720  178.0350  138.5290 C   0  0  0  0  0  0  0  0  0  0  0  0
  187.1790  176.6140  137.7200 S   0  0  0  0  0  0  0  0  0  0  0  0
  188.5120  178.5340  139.0610 N   0  0  0  0  0  2  0  0  0  0  0  0
  191.1950  177.1090  141.2210 C   0  0  0  0  0  3  0  0  0  0  0  0
  188.6690  178.2810  141.5280 C   0  0  0  0  0  3  0  0  0  0  0  0
  190.8150  176.9890  144.9070 C   0  0  0  0  0  0  0  0  0  0  0  0
  191.3620  176.8380  143.6230 C   0  0  0  0  0  3  0  0  0  0  0  0
  190.6520  177.2640  142.4980 C   0  0  0  0  0  0  0  0  0  0  0  0
  188.8320  178.0050  143.9280 C   0  0  0  0  0  3  0  0  0  0  0  0
  189.3780  177.8530  142.6520 C   0  0  0  0  0  0  0  0  0  0  0  0
  189.5480  177.5740  145.0500 C   0  0  0  0  0  3  0  0  0  0  0  0
  189.2190  178.1380  140.2440 C   0  0  0  0  0  0  0  0  0  0  0  0
  190.4780  177.5410  140.1010 C   0  0  0  0  0  3  0  0  0  0  0  0
  191.5640  176.5380  146.0920 C   0  0  0  0  0  0  0  0  0  0  0  0
  192.3250  175.3350  146.0500 N   0  0  0  0  0  1  0  0  0  0  0  0
  191.5380  177.2140  147.1550 O   0  0  0  0  0  0  0  0  0  0  0  0
  1 10  1  0  0  0  0
  2  8  1  0  0  0  0
  3  4  2  0  0  0  0
  3  6  1  0  0  0  0
  4  7  1  0  0  0  0
  5  2  2  0  0  0  0
  6  1  2  0  0  0  0
  6  5  1  0  0  0  0
  7  5  1  0  0  0  0
  8 11  1  0  0  0  0
 10  9  1  0  0  0  0
 10  8  2  0  0  0  0
 11 12  1  0  0  0  0
 12 13  1  1  0  0  0
 12 14  1  0  0  0  0
 14 16  1  0  0  0  0
 14 15  1  0  0  0  0
 17 14  1  0  0  0  0
 18  1  1  0  0  0  0
 19 18  1  0  0  0  0
 19 21  1  0  0  0  0
 20 19  2  0  0  0  0
 21 30  1  0  0  0  0
 22 26  1  0  0  0  0
 23 28  1  0  0  0  0
 24 29  1  0  0  0  0
 24 32  1  0  0  0  0
 25 24  2  0  0  0  0
 26 28  2  0  0  0  0
 26 25  1  0  0  0  0
 27 29  2  0  0  0  0
 28 27  1  0  0  0  0
 30 23  2  0  0  0  0
 31 30  1  0  0  0  0
 31 22  2  0  0  0  0
 32 34  2  0  0  0  0
 33 32  1  0  0  0  0
M  END
>  <MODEL>
6

>  <REMARK>
 VINA RESULT:      -8.9      3.026      7.232
  Name = 
  8 active torsions:
  status: ('A' for Active; 'I' for Inactive)
    1  A    between atoms: C_1  and  N_9
    2  A    between atoms: C_2  and  C_23
    3  A    between atoms: C_2  and  C_32
    4  A    between atoms: C_3  and  C_23
    5  A    between atoms: C_7  and  C_11
    6  A    between atoms: C_8  and  N_9
    7  A    between atoms: C_8  and  N_18
    8  A    between atoms: N_18  and  C_30
                            x       y       z     vdW  Elec       q    Type
                         _______ _______ _______ _____ _____    ______ ____

>  <TORSDO>
F 8

$$$$
=
 OpenBabel10272415223D

 34 37  0  0  1  0  0  0  0  0999 V2000
  183.1090  178.0010  138.6150 C   0  0  0  0  0  0  0  0  0  0  0  0
  185.2290  176.6560  137.2730 C   0  0  0  0  0  3  0  0  0  0  0  0
  181.8570  175.9020  137.9560 C   0  0  0  0  0  3  0  0  0  0  0  0
  182.2700  174.7980  137.2830 N   0  0  0  0  0  0  0  0  0  0  0  0
  183.9600  176.1040  137.3940 C   0  0  0  0  0  0  0  0  0  0  0  0
  182.9420  176.7490  138.0280 C   0  0  0  0  0  0  0  0  0  0  0  0
  183.5270  174.9500  136.9630 O   0  0  0  0  0  0  0  0  0  0  0  0
  185.4380  177.9350  137.8220 C   0  0  0  0  0  0  0  0  0  0  0  0
  184.5880  179.9090  138.9560 O   0  0  0  0  0  1  0  0  0  0  0  0
  184.3800  178.6190  138.4790 C   0  0  0  0  0  0  0  0  0  0  0  0
  186.7920  178.5570  137.7150 C   0  0  0  0  0  2  0  0  0  0  0  0
  187.7710  177.8850  138.6710 C   0  0  2  0  0  3  0  0  0  0  0  0
  187.6280  178.4120  139.9430 F   0  0  0  0  0  0  0  0  0  0  0  0
  189.2080  178.0600  138.1940 C   0  0  0  0  0  0  0  0  0  0  0  0
  189.5730  176.9920  137.3940 F   0  0  0  0  0  0  0  0  0  0  0  0
  190.0510  178.1080  139.2890 F   0  0  0  0  0  0  0  0  0  0  0  0
  189.3340  179.2360  137.4760 F   0  0  0  0  0  0  0  0  0  0  0  0
  182.0050  178.6360  139.2750 N   0  0  0  0  0  2  0  0  0  0  0  0
  181.6320  178.4200  140.6380 C   0  0  0  0  0  0  0  0  0  0  0  0
  180.4970  177.2820  140.9550 S   0  0  0  0  0  0  0  0  0  0  0  0
  182.2500  179.1980  141.6790 N   0  0  0  0  0  2  0  0  0  0  0  0
  185.6630  178.0370  142.6290 C   0  0  0  0  0  3  0  0  0  0  0  0
  183.3590  179.0040  143.8950 C   0  0  0  0  0  3  0  0  0  0  0  0
  186.7320  177.9540  146.1770 C   0  0  0  0  0  0  0  0  0  0  0  0
  186.7570  177.8240  144.7790 C   0  0  0  0  0  3  0  0  0  0  0  0
  185.6380  178.1710  144.0180 C   0  0  0  0  0  0  0  0  0  0  0  0
  184.4490  178.7860  146.0460 C   0  0  0  0  0  3  0  0  0  0  0  0
  184.4760  178.6560  144.6560 C   0  0  0  0  0  0  0  0  0  0  0  0
  185.5720  178.4370  146.8030 C   0  0  0  0  0  3  0  0  0  0  0  0
  183.3860  178.8820  142.4970 C   0  0  0  0  0  0  0  0  0  0  0  0
  184.5390  178.3880  141.8740 C   0  0  0  0  0  3  0  0  0  0  0  0
  187.9110  177.5880  146.9790 C   0  0  0  0  0  0  0  0  0  0  0  0
  187.8890  177.7180  148.3980 N   0  0  0  0  0  1  0  0  0  0  0  0
  188.9540  177.1560  146.4180 O   0  0  0  0  0  0  0  0  0  0  0  0
  1 18  1  0  0  0  0
  2  5  2  0  0  0  0
  2  8  1  0  0  0  0
  3  6  1  0  0  0  0
  4  3  2  0  0  0  0
  5  6  1  0  0  0  0
  6  1  2  0  0  0  0
  7  4  1  0  0  0  0
  7  5  1  0  0  0  0
  8 10  2  0  0  0  0
 10  1  1  0  0  0  0
 10  9  1  0  0  0  0
 11  8  1  0  0  0  0
 11 12  1  0  0  0  0
 12 13  1  1  0  0  0
 14 12  1  0  0  0  0
 14 16  1  0  0  0  0
 15 14  1  0  0  0  0
 17 14  1  0  0  0  0
 18 19  1  0  0  0  0
 19 20  2  0  0  0  0
 19 21  1  0  0  0  0
 21 30  1  0  0  0  0
 22 26  1  0  0  0  0
 23 28  1  0  0  0  0
 24 29  1  0  0  0  0
 24 32  1  0  0  0  0
 25 24  2  0  0  0  0
 26 28  2  0  0  0  0
 26 25  1  0  0  0  0
 27 29  2  0  0  0  0
 28 27  1  0  0  0  0
 30 23  2  0  0  0  0
 31 30  1  0  0  0  0
 31 22  2  0  0  0  0
 32 33  1  0  0  0  0
 34 32  2  0  0  0  0
M  END
>  <MODEL>
7

>  <REMARK>
 VINA RESULT:      -8.7      4.606      9.667
  Name = 
  8 active torsions:
  status: ('A' for Active; 'I' for Inactive)
    1  A    between atoms: C_1  and  N_9
    2  A    between atoms: C_2  and  C_23
    3  A    between atoms: C_2  and  C_32
    4  A    between atoms: C_3  and  C_23
    5  A    between atoms: C_7  and  C_11
    6  A    between atoms: C_8  and  N_9
    7  A    between atoms: C_8  and  N_18
    8  A    between atoms: N_18  and  C_30
                            x       y       z     vdW  Elec       q    Type
                         _______ _______ _______ _____ _____    ______ ____

>  <TORSDO>
F 8

$$$$
=
 OpenBabel10272415223D

 34 37  0  0  1  0  0  0  0  0999 V2000
  189.6140  176.8600  138.0240 C   0  0  0  0  0  0  0  0  0  0  0  0
  187.1550  175.9340  136.9290 C   0  0  0  0  0  3  0  0  0  0  0  0
  190.3530  174.5270  137.3770 C   0  0  0  0  0  3  0  0  0  0  0  0
  189.6720  173.5140  136.7820 N   0  0  0  0  0  0  0  0  0  0  0  0
  188.2910  175.1360  136.9790 C   0  0  0  0  0  0  0  0  0  0  0  0
  189.4660  175.5740  137.5090 C   0  0  0  0  0  0  0  0  0  0  0  0
  188.4470  173.9100  136.5570 O   0  0  0  0  0  0  0  0  0  0  0  0
  187.2460  177.2310  137.4670 C   0  0  0  0  0  0  0  0  0  0  0  0
  188.5160  178.9550  138.6170 O   0  0  0  0  0  1  0  0  0  0  0  0
  188.4650  177.6940  138.0300 C   0  0  0  0  0  0  0  0  0  0  0  0
  186.0440  178.1180  137.4260 C   0  0  0  0  0  2  0  0  0  0  0  0
  184.8350  177.4160  138.0350 C   0  0  2  0  0  3  0  0  0  0  0  0
  183.9550  177.0370  137.0360 F   0  0  0  0  0  0  0  0  0  0  0  0
  184.1270  178.3200  139.0370 C   0  0  0  0  0  0  0  0  0  0  0  0
  185.0120  179.2610  139.5310 F   0  0  0  0  0  0  0  0  0  0  0  0
  183.6550  177.5550  140.0880 F   0  0  0  0  0  0  0  0  0  0  0  0
  183.0610  178.9630  138.4330 F   0  0  0  0  0  0  0  0  0  0  0  0
  190.8740  177.2730  138.5690 N   0  0  0  0  0  2  0  0  0  0  0  0
  191.3070  177.0280  139.9100 C   0  0  0  0  0  0  0  0  0  0  0  0
  192.7430  177.6570  140.3840 S   0  0  0  0  0  0  0  0  0  0  0  0
  190.4840  176.2430  140.7930 N   0  0  0  0  0  2  0  0  0  0  0  0
  189.2700  176.7880  144.2740 C   0  0  0  0  0  3  0  0  0  0  0  0
  188.4030  177.2880  141.6580 C   0  0  0  0  0  3  0  0  0  0  0  0
  186.0010  178.4120  144.9230 C   0  0  0  0  0  0  0  0  0  0  0  0
  187.2400  177.7890  145.1390 C   0  0  0  0  0  3  0  0  0  0  0  0
  188.0400  177.4130  144.0580 C   0  0  0  0  0  0  0  0  0  0  0  0
  186.3700  178.2830  142.5210 C   0  0  0  0  0  3  0  0  0  0  0  0
  187.6030  177.6630  142.7390 C   0  0  0  0  0  0  0  0  0  0  0  0
  185.5740  178.6560  143.6090 C   0  0  0  0  0  3  0  0  0  0  0  0
  189.6450  176.6720  141.8740 C   0  0  0  0  0  0  0  0  0  0  0  0
  190.0650  176.4170  143.1860 C   0  0  0  0  0  3  0  0  0  0  0  0
  185.1580  178.8080  146.0640 C   0  0  0  0  0  0  0  0  0  0  0  0
  183.7380  178.7890  145.9530 N   0  0  0  0  0  1  0  0  0  0  0  0
  185.6860  179.1670  147.1500 O   0  0  0  0  0  0  0  0  0  0  0  0
  1 10  1  0  0  0  0
  1 18  1  0  0  0  0
  2  5  2  0  0  0  0
  2  8  1  0  0  0  0
  3  6  1  0  0  0  0
  4  3  2  0  0  0  0
  5  6  1  0  0  0  0
  6  1  2  0  0  0  0
  7  4  1  0  0  0  0
  7  5  1  0  0  0  0
  8 10  2  0  0  0  0
 10  9  1  0  0  0  0
 11  8  1  0  0  0  0
 11 12  1  0  0  0  0
 12 13  1  6  0  0  0
 12 14  1  0  0  0  0
 14 15  1  0  0  0  0
 14 16  1  0  0  0  0
 17 14  1  0  0  0  0
 18 19  1  0  0  0  0
 19 20  2  0  0  0  0
 19 21  1  0  0  0  0
 21 30  1  0  0  0  0
 23 30  2  0  0  0  0
 23 28  1  0  0  0  0
 24 25  1  0  0  0  0
 24 32  1  0  0  0  0
 26 22  1  0  0  0  0
 26 25  2  0  0  0  0
 27 28  2  0  0  0  0
 27 29  1  0  0  0  0
 28 26  1  0  0  0  0
 29 24  2  0  0  0  0
 30 31  1  0  0  0  0
 31 22  2  0  0  0  0
 32 34  2  0  0  0  0
 33 32  1  0  0  0  0
M  END
>  <MODEL>
8

>  <REMARK>
 VINA RESULT:      -8.7      3.232      7.746
  Name = 
  8 active torsions:
  status: ('A' for Active; 'I' for Inactive)
    1  A    between atoms: C_1  and  N_9
    2  A    between atoms: C_2  and  C_23
    3  A    between atoms: C_2  and  C_32
    4  A    between atoms: C_3  and  C_23
    5  A    between atoms: C_7  and  C_11
    6  A    between atoms: C_8  and  N_9
    7  A    between atoms: C_8  and  N_18
    8  A    between atoms: N_18  and  C_30
                            x       y       z     vdW  Elec       q    Type
                         _______ _______ _______ _____ _____    ______ ____

>  <TORSDO>
F 8

$$$$
=
 OpenBabel10272415223D

 34 37  0  0  1  0  0  0  0  0999 V2000
  187.5260  177.2880  145.2230 C   0  0  0  0  0  0  0  0  0  0  0  0
  190.2420  177.3180  146.0790 C   0  0  0  0  0  3  0  0  0  0  0  0
  187.1560  178.0790  147.5990 C   0  0  0  0  0  3  0  0  0  0  0  0
  188.0410  178.3270  148.5980 N   0  0  0  0  0  0  0  0  0  0  0  0
  189.1950  177.6780  146.9190 C   0  0  0  0  0  0  0  0  0  0  0  0
  187.8950  177.6570  146.5150 C   0  0  0  0  0  0  0  0  0  0  0  0
  189.2460  178.0790  148.1610 O   0  0  0  0  0  0  0  0  0  0  0  0
  189.9160  176.9070  144.7730 C   0  0  0  0  0  0  0  0  0  0  0  0
  188.2560  176.4010  143.0720 O   0  0  0  0  0  1  0  0  0  0  0  0
  188.5620  176.8730  144.3440 C   0  0  0  0  0  0  0  0  0  0  0  0
  191.0160  176.5170  143.8410 C   0  0  0  0  0  2  0  0  0  0  0  0
  191.4520  177.7080  142.9940 C   0  0  2  0  0  3  0  0  0  0  0  0
  190.7980  178.8530  143.4140 F   0  0  0  0  0  0  0  0  0  0  0  0
  191.1690  177.4600  141.5170 C   0  0  0  0  0  0  0  0  0  0  0  0
  190.1910  178.3310  141.0720 F   0  0  0  0  0  0  0  0  0  0  0  0
  190.7240  176.1630  141.3480 F   0  0  0  0  0  0  0  0  0  0  0  0
  192.3200  177.6430  140.7710 F   0  0  0  0  0  0  0  0  0  0  0  0
  186.1430  177.2860  144.8450 N   0  0  0  0  0  2  0  0  0  0  0  0
  185.4260  178.4230  144.3580 C   0  0  0  0  0  0  0  0  0  0  0  0
  184.0070  178.8070  145.0800 S   0  0  0  0  0  0  0  0  0  0  0  0
  185.9590  179.1870  143.2600 N   0  0  0  0  0  2  0  0  0  0  0  0
  184.4330  178.6590  139.9010 C   0  0  0  0  0  3  0  0  0  0  0  0
  186.9850  178.6760  141.0560 C   0  0  0  0  0  3  0  0  0  0  0  0
  186.5380  177.8870  136.9490 C   0  0  0  0  0  0  0  0  0  0  0  0
  185.4110  178.1450  137.7450 C   0  0  0  0  0  3  0  0  0  0  0  0
  185.5550  178.4070  139.1100 C   0  0  0  0  0  0  0  0  0  0  0  0
  187.9640  178.1570  138.9030 C   0  0  0  0  0  3  0  0  0  0  0  0
  186.8410  178.4140  139.6920 C   0  0  0  0  0  0  0  0  0  0  0  0
  187.8120  177.8950  137.5370 C   0  0  0  0  0  3  0  0  0  0  0  0
  185.8590  178.9430  141.8510 C   0  0  0  0  0  0  0  0  0  0  0  0
  184.5870  178.9220  141.2660 C   0  0  0  0  0  3  0  0  0  0  0  0
  186.3850  177.6110  135.5110 C   0  0  0  0  0  0  0  0  0  0  0  0
  187.5020  177.7190  134.6320 N   0  0  0  0  0  1  0  0  0  0  0  0
  185.2640  177.2760  135.0420 O   0  0  0  0  0  0  0  0  0  0  0  0
  1  6  1  0  0  0  0
  2  5  1  0  0  0  0
  3  4  2  0  0  0  0
  5  7  1  0  0  0  0
  6  5  2  0  0  0  0
  6  3  1  0  0  0  0
  7  4  1  0  0  0  0
  8  2  2  0  0  0  0
  9 10  1  0  0  0  0
 10  8  1  0  0  0  0
 10  1  2  0  0  0  0
 11  8  1  0  0  0  0
 12 13  1  1  0  0  0
 12 11  1  0  0  0  0
 14 12  1  0  0  0  0
 15 14  1  0  0  0  0
 16 14  1  0  0  0  0
 17 14  1  0  0  0  0
 18  1  1  0  0  0  0
 19 18  1  0  0  0  0
 19 20  2  0  0  0  0
 21 19  1  0  0  0  0
 22 31  1  0  0  0  0
 23 30  1  0  0  0  0
 24 29  1  0  0  0  0
 24 25  2  0  0  0  0
 25 26  1  0  0  0  0
 26 28  1  0  0  0  0
 26 22  2  0  0  0  0
 27 28  1  0  0  0  0
 28 23  2  0  0  0  0
 29 27  2  0  0  0  0
 30 21  1  0  0  0  0
 31 30  2  0  0  0  0
 32 24  1  0  0  0  0
 33 32  1  0  0  0  0
 34 32  2  0  0  0  0
M  END
>  <MODEL>
9

>  <REMARK>
 VINA RESULT:      -8.7      3.378      4.772
  Name = 
  8 active torsions:
  status: ('A' for Active; 'I' for Inactive)
    1  A    between atoms: C_1  and  N_9
    2  A    between atoms: C_2  and  C_23
    3  A    between atoms: C_2  and  C_32
    4  A    between atoms: C_3  and  C_23
    5  A    between atoms: C_7  and  C_11
    6  A    between atoms: C_8  and  N_9
    7  A    between atoms: C_8  and  N_18
    8  A    between atoms: N_18  and  C_30
                            x       y       z     vdW  Elec       q    Type
                         _______ _______ _______ _____ _____    ______ ____

>  <TORSDO>
F 8

$$$$
