=
 OpenBabel10272401143D

 27 30  0  0  1  0  0  0  0  0999 V2000
  186.9900  178.4820  142.2630 C   0  0  2  0  0  3  0  0  0  0  0  0
  187.8810  178.9020  141.0890 C   0  0  0  0  0  2  0  0  0  0  0  0
  189.2210  177.9820  142.7160 C   0  0  2  0  0  3  0  0  0  0  0  0
  188.9220  177.7480  145.3870 C   0  0  1  0  0  3  0  0  0  0  0  0
  190.2050  175.7750  142.7240 O   0  0  0  0  0  1  0  0  0  0  0  0
  188.7300  177.4950  146.8720 C   0  0  0  0  0  1  0  0  0  0  0  0
  187.8350  177.5380  143.0710 C   0  0  1  0  0  3  0  0  0  0  0  0
  189.2560  178.4160  141.3120 N   0  0  1  0  0  0  0  0  0  0  0  0
  190.0660  176.8810  144.8220 C   0  0  0  0  0  2  0  0  0  0  0  0
  186.8750  176.5040  144.9930 O   0  0  0  0  0  1  0  0  0  0  0  0
  187.5990  177.6280  144.5860 C   0  0  1  0  0  3  0  0  0  0  0  0
  190.2890  177.0440  143.3030 C   0  0  2  0  0  3  0  0  0  0  0  0
  189.2690  176.1690  138.1490 C   0  0  0  0  0  2  0  0  0  0  0  0
  190.7390  175.8120  138.4000 C   0  0  0  0  0  2  0  0  0  0  0  0
  191.4510  176.9570  138.7960 O   0  0  0  0  0  0  0  0  0  0  0  0
  189.5780  177.3060  140.3870 C   0  0  2  0  0  3  0  0  0  0  0  0
  191.1080  177.2290  140.1400 C   0  0  0  0  0  2  0  0  0  0  0  0
  188.8130  177.3320  139.0400 C   0  0  1  0  0  3  0  0  0  0  0  0
  187.8690  178.9380  137.5360 O   0  0  0  0  0  1  0  0  0  0  0  0
  188.9990  178.6570  138.3060 C   0  0  0  0  0  2  0  0  0  0  0  0
  185.6730  177.8410  141.8100 C   0  0  0  0  0  2  0  0  0  0  0  0
  182.2060  179.2420  143.9280 C   0  0  0  0  0  3  0  0  0  0  0  0
  184.4700  178.3370  142.5530 C   0  0  0  0  0  0  0  0  0  0  0  0
  183.2520  178.4840  141.8790 C   0  0  0  0  0  3  0  0  0  0  0  0
  182.1210  178.9370  142.5660 C   0  0  0  0  0  3  0  0  0  0  0  0
  183.4220  179.0980  144.6030 C   0  0  0  0  0  3  0  0  0  0  0  0
  184.5540  178.6480  143.9160 C   0  0  0  0  0  3  0  0  0  0  0  0
  1 21  1  6  0  0  0
  1  7  1  0  0  0  0
  2  8  1  0  0  0  0
  2  1  1  0  0  0  0
  3  7  1  0  0  0  0
  3 12  1  0  0  0  0
  4  6  1  0  0  0  0
  5 12  1  0  0  0  0
  7 11  1  0  0  0  0
  8  3  1  0  0  0  0
  9  4  1  0  0  0  0
 11 10  1  0  0  0  0
 11  4  1  0  0  0  0
 12  9  1  0  0  0  0
 13 14  1  0  0  0  0
 13 18  1  0  0  0  0
 14 15  1  0  0  0  0
 15 17  1  0  0  0  0
 16  8  1  0  0  0  0
 17 16  1  0  0  0  0
 18 16  1  0  0  0  0
 19 20  1  0  0  0  0
 20 18  1  0  0  0  0
 21 23  1  0  0  0  0
 22 26  1  0  0  0  0
 23 27  1  0  0  0  0
 24 23  2  0  0  0  0
 24 25  1  0  0  0  0
 25 22  2  0  0  0  0
 27 26  2  0  0  0  0
M  END
>  <MODEL>
1

>  <REMARK>
 VINA RESULT:      -8.5      0.000      0.000
  Name = 
  4 active torsions:
  status: ('A' for Active; 'I' for Inactive)
    1  A    between atoms: C_1  and  C_15
    2  A    between atoms: C_9  and  C_15
    3  A    between atoms: C_14  and  N_19
    4  A    between atoms: C_17  and  C_21
                            x       y       z     vdW  Elec       q    Type
                         _______ _______ _______ _____ _____    ______ ____

>  <TORSDO>
F 4

$$$$
=
 OpenBabel10272401143D

 27 30  0  0  1  0  0  0  0  0999 V2000
  187.5840  178.0690  142.5850 C   0  0  2  0  0  3  0  0  0  0  0  0
  186.4290  178.9070  142.0250 C   0  0  0  0  0  2  0  0  0  0  0  0
  187.8670  178.4150  140.2980 C   0  0  2  0  0  3  0  0  0  0  0  0
  190.5000  177.8300  140.2460 C   0  0  1  0  0  3  0  0  0  0  0  0
  187.5570  176.7590  138.5650 O   0  0  0  0  0  1  0  0  0  0  0  0
  191.9500  177.3810  140.1950 C   0  0  0  0  0  1  0  0  0  0  0  0
  188.2290  177.4450  141.3800 C   0  0  1  0  0  3  0  0  0  0  0  0
  186.5260  178.9620  140.5540 N   0  0  1  0  0  0  0  0  0  0  0  0
  189.7790  177.5220  138.9170 C   0  0  0  0  0  2  0  0  0  0  0  0
  190.0520  175.9440  141.7080 O   0  0  0  0  0  1  0  0  0  0  0  0
  189.7530  177.2920  141.4950 C   0  0  1  0  0  3  0  0  0  0  0  0
  188.2830  177.9020  138.9090 C   0  0  2  0  0  3  0  0  0  0  0  0
  183.1880  177.0440  140.0670 C   0  0  0  0  0  2  0  0  0  0  0  0
  183.1820  177.4200  138.5800 C   0  0  0  0  0  2  0  0  0  0  0  0
  183.5800  178.7580  138.4200 O   0  0  0  0  0  0  0  0  0  0  0  0
  185.4580  178.1520  139.9260 C   0  0  2  0  0  3  0  0  0  0  0  0
  184.9800  178.8120  138.6050 C   0  0  0  0  0  2  0  0  0  0  0  0
  184.2490  177.8380  140.8420 C   0  0  1  0  0  3  0  0  0  0  0  0
  182.8210  178.7860  142.5130 O   0  0  0  0  0  1  0  0  0  0  0  0
  183.6320  179.1070  141.4230 C   0  0  0  0  0  2  0  0  0  0  0  0
  187.1180  177.0210  143.6030 C   0  0  0  0  0  2  0  0  0  0  0  0
  188.3920  177.8490  147.6230 C   0  0  0  0  0  3  0  0  0  0  0  0
  187.5540  177.3050  145.0080 C   0  0  0  0  0  0  0  0  0  0  0  0
  188.8900  177.1030  145.3730 C   0  0  0  0  0  3  0  0  0  0  0  0
  189.3080  177.3740  146.6800 C   0  0  0  0  0  3  0  0  0  0  0  0
  187.0560  178.0500  147.2620 C   0  0  0  0  0  3  0  0  0  0  0  0
  186.6370  177.7760  145.9560 C   0  0  0  0  0  3  0  0  0  0  0  0
  1 21  1  1  0  0  0
  2  1  1  0  0  0  0
  3  8  1  0  0  0  0
  3  7  1  0  0  0  0
  4 11  1  0  0  0  0
  5 12  1  0  0  0  0
  6  4  1  0  0  0  0
  7 11  1  0  0  0  0
  7  1  1  0  0  0  0
  8  2  1  0  0  0  0
  9  4  1  0  0  0  0
 11 10  1  0  0  0  0
 12  9  1  0  0  0  0
 12  3  1  0  0  0  0
 13 18  1  0  0  0  0
 14 13  1  0  0  0  0
 15 14  1  0  0  0  0
 15 17  1  0  0  0  0
 16  8  1  0  0  0  0
 16 18  1  0  0  0  0
 17 16  1  0  0  0  0
 18 20  1  0  0  0  0
 20 19  1  0  0  0  0
 21 23  1  0  0  0  0
 23 24  2  0  0  0  0
 23 27  1  0  0  0  0
 24 25  1  0  0  0  0
 25 22  2  0  0  0  0
 26 22  1  0  0  0  0
 27 26  2  0  0  0  0
M  END
>  <MODEL>
2

>  <REMARK>
 VINA RESULT:      -8.0      2.073      5.413
  Name = 
  4 active torsions:
  status: ('A' for Active; 'I' for Inactive)
    1  A    between atoms: C_1  and  C_15
    2  A    between atoms: C_9  and  C_15
    3  A    between atoms: C_14  and  N_19
    4  A    between atoms: C_17  and  C_21
                            x       y       z     vdW  Elec       q    Type
                         _______ _______ _______ _____ _____    ______ ____

>  <TORSDO>
F 4

$$$$
=
 OpenBabel10272401143D

 27 30  0  0  1  0  0  0  0  0999 V2000
  187.6930  178.0500  142.6690 C   0  0  2  0  0  3  0  0  0  0  0  0
  186.5430  178.9210  142.1500 C   0  0  0  0  0  2  0  0  0  0  0  0
  187.9480  178.4540  140.3890 C   0  0  2  0  0  3  0  0  0  0  0  0
  190.5710  177.8330  140.2820 C   0  0  1  0  0  3  0  0  0  0  0  0
  187.5880  176.8520  138.6160 O   0  0  0  0  0  1  0  0  0  0  0  0
  192.0130  177.3650  140.1970 C   0  0  0  0  0  1  0  0  0  0  0  0
  188.3110  177.4500  141.4390 C   0  0  1  0  0  3  0  0  0  0  0  0
  186.6200  179.0140  140.6800 N   0  0  1  0  0  0  0  0  0  0  0  0
  189.8260  177.5720  138.9560 C   0  0  0  0  0  2  0  0  0  0  0  0
  190.1160  175.9140  141.6990 O   0  0  0  0  0  1  0  0  0  0  0  0
  189.8340  177.2720  141.5270 C   0  0  1  0  0  3  0  0  0  0  0  0
  188.3360  177.9740  138.9800 C   0  0  2  0  0  3  0  0  0  0  0  0
  183.2740  177.1070  140.2090 C   0  0  0  0  0  2  0  0  0  0  0  0
  183.2050  177.5750  138.7500 C   0  0  0  0  0  2  0  0  0  0  0  0
  183.5900  178.9230  138.6580 O   0  0  0  0  0  0  0  0  0  0  0  0
  185.5310  178.2380  140.0450 C   0  0  2  0  0  3  0  0  0  0  0  0
  184.9950  178.9750  138.7890 C   0  0  0  0  0  2  0  0  0  0  0  0
  184.3610  177.8580  140.9880 C   0  0  1  0  0  3  0  0  0  0  0  0
  183.0280  178.6930  142.7930 O   0  0  0  0  0  1  0  0  0  0  0  0
  183.7620  179.0840  141.6730 C   0  0  0  0  0  2  0  0  0  0  0  0
  187.2260  176.9820  143.6660 C   0  0  0  0  0  2  0  0  0  0  0  0
  187.3020  178.2510  147.7710 C   0  0  0  0  0  3  0  0  0  0  0  0
  187.2620  177.4290  145.0960 C   0  0  0  0  0  0  0  0  0  0  0  0
  186.1070  177.9580  145.6850 C   0  0  0  0  0  3  0  0  0  0  0  0
  186.1280  178.3690  147.0210 C   0  0  0  0  0  3  0  0  0  0  0  0
  188.4570  177.7250  147.1840 C   0  0  0  0  0  3  0  0  0  0  0  0
  188.4380  177.3170  145.8470 C   0  0  0  0  0  3  0  0  0  0  0  0
  1 21  1  1  0  0  0
  2  1  1  0  0  0  0
  3  8  1  0  0  0  0
  3  7  1  0  0  0  0
  4 11  1  0  0  0  0
  5 12  1  0  0  0  0
  6  4  1  0  0  0  0
  7 11  1  0  0  0  0
  7  1  1  0  0  0  0
  8  2  1  0  0  0  0
  9 12  1  0  0  0  0
  9  4  1  0  0  0  0
 11 10  1  0  0  0  0
 12  3  1  0  0  0  0
 13 18  1  0  0  0  0
 14 13  1  0  0  0  0
 15 14  1  0  0  0  0
 15 17  1  0  0  0  0
 16  8  1  0  0  0  0
 16 18  1  0  0  0  0
 17 16  1  0  0  0  0
 18 20  1  0  0  0  0
 20 19  1  0  0  0  0
 21 23  1  0  0  0  0
 23 24  2  0  0  0  0
 23 27  1  0  0  0  0
 24 25  1  0  0  0  0
 25 22  2  0  0  0  0
 26 22  1  0  0  0  0
 27 26  2  0  0  0  0
M  END
>  <MODEL>
3

>  <REMARK>
 VINA RESULT:      -7.9      2.076      5.244
  Name = 
  4 active torsions:
  status: ('A' for Active; 'I' for Inactive)
    1  A    between atoms: C_1  and  C_15
    2  A    between atoms: C_9  and  C_15
    3  A    between atoms: C_14  and  N_19
    4  A    between atoms: C_17  and  C_21
                            x       y       z     vdW  Elec       q    Type
                         _______ _______ _______ _____ _____    ______ ____

>  <TORSDO>
F 4

$$$$
=
 OpenBabel10272401143D

 27 30  0  0  1  0  0  0  0  0999 V2000
  187.5200  178.3570  141.9840 C   0  0  2  0  0  3  0  0  0  0  0  0
  187.5640  178.7890  140.5140 C   0  0  0  0  0  2  0  0  0  0  0  0
  189.6700  178.0910  141.1240 C   0  0  2  0  0  3  0  0  0  0  0  0
  190.9200  177.9870  143.5130 C   0  0  1  0  0  3  0  0  0  0  0  0
  190.7290  175.9890  140.5790 O   0  0  0  0  0  1  0  0  0  0  0  0
  191.6070  177.8030  144.8540 C   0  0  0  0  0  1  0  0  0  0  0  0
  188.7670  177.5430  142.1860 C   0  0  1  0  0  3  0  0  0  0  0  0
  188.8770  178.4450  139.9370 N   0  0  1  0  0  0  0  0  0  0  0  0
  191.6490  177.1970  142.4060 C   0  0  0  0  0  2  0  0  0  0  0  0
  189.1440  176.5380  144.3150 O   0  0  0  0  0  1  0  0  0  0  0  0
  189.3970  177.6980  143.5780 C   0  0  1  0  0  3  0  0  0  0  0  0
  190.9790  177.2910  141.0180 C   0  0  2  0  0  3  0  0  0  0  0  0
  187.3700  175.9940  137.3330 C   0  0  0  0  0  2  0  0  0  0  0  0
  188.7480  175.8340  136.6780 C   0  0  0  0  0  2  0  0  0  0  0  0
  189.3910  177.0800  136.5980 O   0  0  0  0  0  0  0  0  0  0  0  0
  188.7560  177.3170  138.9860 C   0  0  2  0  0  3  0  0  0  0  0  0
  189.8540  177.4050  137.8930 C   0  0  0  0  0  2  0  0  0  0  0  0
  187.3580  177.1560  138.3360 C   0  0  1  0  0  3  0  0  0  0  0  0
  185.6140  178.7740  138.0680 O   0  0  0  0  0  1  0  0  0  0  0  0
  186.9010  178.4380  137.6450 C   0  0  0  0  0  2  0  0  0  0  0  0
  186.2500  177.5720  142.3350 C   0  0  0  0  0  2  0  0  0  0  0  0
  184.1220  179.0900  145.7450 C   0  0  0  0  0  3  0  0  0  0  0  0
  185.5170  178.1060  143.5270 C   0  0  0  0  0  0  0  0  0  0  0  0
  184.2470  178.6710  143.3630 C   0  0  0  0  0  3  0  0  0  0  0  0
  183.5500  179.1630  144.4720 C   0  0  0  0  0  3  0  0  0  0  0  0
  185.3920  178.5280  145.9120 C   0  0  0  0  0  3  0  0  0  0  0  0
  186.0890  178.0390  144.8030 C   0  0  0  0  0  3  0  0  0  0  0  0
  1  7  1  0  0  0  0
  1 21  1  6  0  0  0
  2  1  1  0  0  0  0
  3  7  1  0  0  0  0
  4 11  1  0  0  0  0
  4  6  1  0  0  0  0
  5 12  1  0  0  0  0
  7 11  1  0  0  0  0
  8  2  1  0  0  0  0
  8  3  1  0  0  0  0
  9  4  1  0  0  0  0
 11 10  1  0  0  0  0
 12  3  1  0  0  0  0
 12  9  1  0  0  0  0
 13 18  1  0  0  0  0
 14 13  1  0  0  0  0
 15 14  1  0  0  0  0
 15 17  1  0  0  0  0
 16  8  1  0  0  0  0
 17 16  1  0  0  0  0
 18 16  1  0  0  0  0
 20 19  1  0  0  0  0
 20 18  1  0  0  0  0
 21 23  1  0  0  0  0
 22 26  1  0  0  0  0
 23 27  1  0  0  0  0
 24 23  2  0  0  0  0
 24 25  1  0  0  0  0
 25 22  2  0  0  0  0
 27 26  2  0  0  0  0
M  END
>  <MODEL>
4

>  <REMARK>
 VINA RESULT:      -7.8      1.595      2.168
  Name = 
  4 active torsions:
  status: ('A' for Active; 'I' for Inactive)
    1  A    between atoms: C_1  and  C_15
    2  A    between atoms: C_9  and  C_15
    3  A    between atoms: C_14  and  N_19
    4  A    between atoms: C_17  and  C_21
                            x       y       z     vdW  Elec       q    Type
                         _______ _______ _______ _____ _____    ______ ____

>  <TORSDO>
F 4

$$$$
=
 OpenBabel10272401143D

 27 30  0  0  1  0  0  0  0  0999 V2000
  187.3940  177.7700  141.3710 C   0  0  2  0  0  3  0  0  0  0  0  0
  187.7270  176.9110  142.5960 C   0  0  0  0  0  2  0  0  0  0  0  0
  189.4380  176.6910  141.0740 C   0  0  2  0  0  3  0  0  0  0  0  0
  189.5210  176.9760  138.3920 C   0  0  1  0  0  3  0  0  0  0  0  0
  191.6170  177.7320  141.1620 O   0  0  0  0  0  1  0  0  0  0  0  0
  189.6290  177.2450  136.9020 C   0  0  0  0  0  1  0  0  0  0  0  0
  188.6950  177.9150  140.6340 C   0  0  1  0  0  3  0  0  0  0  0  0
  189.0990  176.3830  142.4710 N   0  0  1  0  0  0  0  0  0  0  0  0
  190.9180  176.9130  139.0440 C   0  0  0  0  0  2  0  0  0  0  0  0
  188.7520  179.2620  138.6680 O   0  0  0  0  0  1  0  0  0  0  0  0
  188.5480  177.9510  139.1060 C   0  0  1  0  0  3  0  0  0  0  0  0
  190.8910  176.6940  140.5720 C   0  0  2  0  0  3  0  0  0  0  0  0
  190.3450  178.4130  145.5340 C   0  0  0  0  0  2  0  0  0  0  0  0
  191.6070  177.5440  145.6050 C   0  0  0  0  0  2  0  0  0  0  0  0
  191.2760  176.1960  145.3870 O   0  0  0  0  0  0  0  0  0  0  0  0
  190.0090  177.0490  143.4300 C   0  0  2  0  0  3  0  0  0  0  0  0
  191.0330  176.0350  144.0050 C   0  0  0  0  0  2  0  0  0  0  0  0
  189.3040  177.8150  144.5790 C   0  0  1  0  0  3  0  0  0  0  0  0
  187.6690  177.6650  146.3210 O   0  0  0  0  0  1  0  0  0  0  0  0
  188.3390  176.9180  145.3510 C   0  0  0  0  0  2  0  0  0  0  0  0
  186.7830  179.1260  141.7450 C   0  0  0  0  0  2  0  0  0  0  0  0
  182.9800  178.8120  143.7210 C   0  0  0  0  0  3  0  0  0  0  0  0
  185.4600  179.0250  142.4400 C   0  0  0  0  0  0  0  0  0  0  0  0
  184.3010  178.7840  141.6920 C   0  0  0  0  0  3  0  0  0  0  0  0
  183.0630  178.6780  142.3320 C   0  0  0  0  0  3  0  0  0  0  0  0
  184.1350  179.0550  144.4710 C   0  0  0  0  0  3  0  0  0  0  0  0
  185.3740  179.1640  143.8300 C   0  0  0  0  0  3  0  0  0  0  0  0
  1 21  1  1  0  0  0
  1  2  1  0  0  0  0
  3  8  1  0  0  0  0
  4  9  1  0  0  0  0
  4 11  1  0  0  0  0
  6  4  1  0  0  0  0
  7  3  1  0  0  0  0
  7  1  1  0  0  0  0
  8  2  1  0  0  0  0
  8 16  1  0  0  0  0
  9 12  1  0  0  0  0
 10 11  1  0  0  0  0
 11  7  1  0  0  0  0
 12  3  1  0  0  0  0
 12  5  1  0  0  0  0
 13 14  1  0  0  0  0
 15 14  1  0  0  0  0
 16 17  1  0  0  0  0
 16 18  1  0  0  0  0
 17 15  1  0  0  0  0
 18 20  1  0  0  0  0
 18 13  1  0  0  0  0
 20 19  1  0  0  0  0
 21 23  1  0  0  0  0
 22 26  1  0  0  0  0
 23 27  1  0  0  0  0
 24 25  1  0  0  0  0
 24 23  2  0  0  0  0
 25 22  2  0  0  0  0
 27 26  2  0  0  0  0
M  END
>  <MODEL>
5

>  <REMARK>
 VINA RESULT:      -7.8      1.385      4.964
  Name = 
  4 active torsions:
  status: ('A' for Active; 'I' for Inactive)
    1  A    between atoms: C_1  and  C_15
    2  A    between atoms: C_9  and  C_15
    3  A    between atoms: C_14  and  N_19
    4  A    between atoms: C_17  and  C_21
                            x       y       z     vdW  Elec       q    Type
                         _______ _______ _______ _____ _____    ______ ____

>  <TORSDO>
F 4

$$$$
=
 OpenBabel10272401143D

 27 30  0  0  1  0  0  0  0  0999 V2000
  186.5770  177.7940  142.9100 C   0  0  2  0  0  3  0  0  0  0  0  0
  186.3710  177.0970  144.2590 C   0  0  0  0  0  2  0  0  0  0  0  0
  188.5850  176.8900  143.6710 C   0  0  2  0  0  3  0  0  0  0  0  0
  189.8310  176.9130  141.2770 C   0  0  1  0  0  3  0  0  0  0  0  0
  190.4570  178.1380  144.5550 O   0  0  0  0  0  1  0  0  0  0  0  0
  190.5730  177.0410  139.9590 C   0  0  0  0  0  1  0  0  0  0  0  0
  188.0620  177.9880  142.7960 C   0  0  1  0  0  3  0  0  0  0  0  0
  187.6780  176.6920  144.8110 N   0  0  1  0  0  0  0  0  0  0  0  0
  190.7980  177.0490  142.4720 C   0  0  0  0  0  2  0  0  0  0  0  0
  188.9240  179.1310  140.8900 O   0  0  0  0  0  1  0  0  0  0  0  0
  188.6030  177.8570  141.3650 C   0  0  1  0  0  3  0  0  0  0  0  0
  190.1100  176.9820  143.8520 C   0  0  2  0  0  3  0  0  0  0  0  0
  187.3760  179.1930  147.7620 C   0  0  0  0  0  2  0  0  0  0  0  0
  188.4440  178.4130  148.5400 C   0  0  0  0  0  2  0  0  0  0  0  0
  188.2310  177.0320  148.3960 O   0  0  0  0  0  0  0  0  0  0  0  0
  188.0430  177.5340  145.9720 C   0  0  2  0  0  3  0  0  0  0  0  0
  188.6620  176.6680  147.1010 C   0  0  0  0  0  2  0  0  0  0  0  0
  186.8950  178.4110  146.5330 C   0  0  1  0  0  3  0  0  0  0  0  0
  184.5660  178.4130  147.0880 O   0  0  0  0  0  1  0  0  0  0  0  0
  185.6670  177.5780  146.8900 C   0  0  0  0  0  2  0  0  0  0  0  0
  185.8070  179.1160  142.8010 C   0  0  0  0  0  2  0  0  0  0  0  0
  181.5440  178.6580  142.5120 C   0  0  0  0  0  3  0  0  0  0  0  0
  184.3220  178.9480  142.6950 C   0  0  0  0  0  0  0  0  0  0  0  0
  183.5170  179.1890  143.8140 C   0  0  0  0  0  3  0  0  0  0  0  0
  182.1290  179.0430  143.7220 C   0  0  0  0  0  3  0  0  0  0  0  0
  182.3480  178.4140  141.3930 C   0  0  0  0  0  3  0  0  0  0  0  0
  183.7350  178.5560  141.4860 C   0  0  0  0  0  3  0  0  0  0  0  0
  1 21  1  1  0  0  0
  1  2  1  0  0  0  0
  2  8  1  0  0  0  0
  3 12  1  0  0  0  0
  3  8  1  0  0  0  0
  4 11  1  0  0  0  0
  4  9  1  0  0  0  0
  6  4  1  0  0  0  0
  7  1  1  0  0  0  0
  7  3  1  0  0  0  0
  8 16  1  0  0  0  0
  9 12  1  0  0  0  0
 10 11  1  0  0  0  0
 11  7  1  0  0  0  0
 12  5  1  0  0  0  0
 13 14  1  0  0  0  0
 15 14  1  0  0  0  0
 16 18  1  0  0  0  0
 16 17  1  0  0  0  0
 17 15  1  0  0  0  0
 18 20  1  0  0  0  0
 18 13  1  0  0  0  0
 20 19  1  0  0  0  0
 22 25  1  0  0  0  0
 23 21  1  0  0  0  0
 23 24  1  0  0  0  0
 25 24  2  0  0  0  0
 26 27  1  0  0  0  0
 26 22  2  0  0  0  0
 27 23  2  0  0  0  0
M  END
>  <MODEL>
6

>  <REMARK>
 VINA RESULT:      -7.8      1.979      5.618
  Name = 
  4 active torsions:
  status: ('A' for Active; 'I' for Inactive)
    1  A    between atoms: C_1  and  C_15
    2  A    between atoms: C_9  and  C_15
    3  A    between atoms: C_14  and  N_19
    4  A    between atoms: C_17  and  C_21
                            x       y       z     vdW  Elec       q    Type
                         _______ _______ _______ _____ _____    ______ ____

>  <TORSDO>
F 4

$$$$
=
 OpenBabel10272401143D

 27 30  0  0  1  0  0  0  0  0999 V2000
  187.7550  178.0670  142.2630 C   0  0  2  0  0  3  0  0  0  0  0  0
  186.7140  178.8470  141.4510 C   0  0  0  0  0  2  0  0  0  0  0  0
  188.4240  178.2380  140.0370 C   0  0  2  0  0  3  0  0  0  0  0  0
  191.0260  177.6800  140.4800 C   0  0  1  0  0  3  0  0  0  0  0  0
  188.4100  176.4490  138.4120 O   0  0  0  0  0  1  0  0  0  0  0  0
  192.4620  177.2460  140.7110 C   0  0  0  0  0  1  0  0  0  0  0  0
  188.5950  177.3590  141.2380 C   0  0  1  0  0  3  0  0  0  0  0  0
  187.0600  178.7880  140.0180 N   0  0  1  0  0  0  0  0  0  0  0  0
  190.5410  177.2620  139.0760 C   0  0  0  0  0  2  0  0  0  0  0  0
  190.3320  175.9090  141.9880 O   0  0  0  0  0  1  0  0  0  0  0  0
  190.0760  177.2330  141.6220 C   0  0  1  0  0  3  0  0  0  0  0  0
  189.0690  177.6230  138.7840 C   0  0  2  0  0  3  0  0  0  0  0  0
  183.7410  177.1660  138.8330 C   0  0  0  0  0  2  0  0  0  0  0  0
  184.3220  176.9920  137.4240 C   0  0  0  0  0  2  0  0  0  0  0  0
  185.0420  178.1400  137.0540 O   0  0  0  0  0  0  0  0  0  0  0  0
  186.1130  177.9200  139.2830 C   0  0  2  0  0  3  0  0  0  0  0  0
  186.2710  178.1150  137.7520 C   0  0  0  0  0  2  0  0  0  0  0  0
  184.6280  178.0720  139.6970 C   0  0  1  0  0  3  0  0  0  0  0  0
  182.7840  179.5550  139.3370 O   0  0  0  0  0  1  0  0  0  0  0  0
  184.1550  179.5190  139.5950 C   0  0  0  0  0  2  0  0  0  0  0  0
  187.1200  177.0970  143.2670 C   0  0  0  0  0  2  0  0  0  0  0  0
  188.1440  177.9440  147.3540 C   0  0  0  0  0  3  0  0  0  0  0  0
  187.4690  177.3870  144.6950 C   0  0  0  0  0  0  0  0  0  0  0  0
  188.8000  177.2890  145.1160 C   0  0  0  0  0  3  0  0  0  0  0  0
  189.1370  177.5660  146.4450 C   0  0  0  0  0  3  0  0  0  0  0  0
  186.8130  178.0410  146.9350 C   0  0  0  0  0  3  0  0  0  0  0  0
  186.4750  177.7600  145.6080 C   0  0  0  0  0  3  0  0  0  0  0  0
  1 21  1  1  0  0  0
  2  1  1  0  0  0  0
  3  7  1  0  0  0  0
  4  6  1  0  0  0  0
  4 11  1  0  0  0  0
  5 12  1  0  0  0  0
  7 11  1  0  0  0  0
  7  1  1  0  0  0  0
  8  3  1  0  0  0  0
  8  2  1  0  0  0  0
  9  4  1  0  0  0  0
 11 10  1  0  0  0  0
 12  9  1  0  0  0  0
 12  3  1  0  0  0  0
 13 18  1  0  0  0  0
 14 13  1  0  0  0  0
 15 14  1  0  0  0  0
 15 17  1  0  0  0  0
 16 18  1  0  0  0  0
 16  8  1  0  0  0  0
 17 16  1  0  0  0  0
 19 20  1  0  0  0  0
 20 18  1  0  0  0  0
 21 23  1  0  0  0  0
 23 24  2  0  0  0  0
 23 27  1  0  0  0  0
 24 25  1  0  0  0  0
 25 22  2  0  0  0  0
 26 22  1  0  0  0  0
 27 26  2  0  0  0  0
M  END
>  <MODEL>
7

>  <REMARK>
 VINA RESULT:      -7.7      2.244      4.929
  Name = 
  4 active torsions:
  status: ('A' for Active; 'I' for Inactive)
    1  A    between atoms: C_1  and  C_15
    2  A    between atoms: C_9  and  C_15
    3  A    between atoms: C_14  and  N_19
    4  A    between atoms: C_17  and  C_21
                            x       y       z     vdW  Elec       q    Type
                         _______ _______ _______ _____ _____    ______ ____

>  <TORSDO>
F 4

$$$$
=
 OpenBabel10272401143D

 27 30  0  0  1  0  0  0  0  0999 V2000
  189.2570  177.0540  143.2910 C   0  0  2  0  0  3  0  0  0  0  0  0
  187.7500  176.7990  143.1740 C   0  0  0  0  0  2  0  0  0  0  0  0
  188.2960  176.8870  145.4070 C   0  0  2  0  0  3  0  0  0  0  0  0
  190.6000  176.4050  146.7270 C   0  0  1  0  0  3  0  0  0  0  0  0
  187.9080  178.7170  146.9370 O   0  0  0  0  0  1  0  0  0  0  0  0
  191.9070  176.2580  147.4840 C   0  0  0  0  0  1  0  0  0  0  0  0
  189.4640  177.5110  144.7070 C   0  0  1  0  0  3  0  0  0  0  0  0
  187.1310  176.8770  144.5110 N   0  0  1  0  0  0  0  0  0  0  0  0
  189.5370  177.1170  147.5900 C   0  0  0  0  0  2  0  0  0  0  0  0
  191.6580  178.1380  145.3970 O   0  0  0  0  0  1  0  0  0  0  0  0
  190.7900  177.0460  145.3270 C   0  0  1  0  0  3  0  0  0  0  0  0
  188.1920  177.3510  146.8700 C   0  0  2  0  0  3  0  0  0  0  0  0
  184.9560  179.9480  143.5630 C   0  0  0  0  0  2  0  0  0  0  0  0
  184.1720  179.8060  144.8740 C   0  0  0  0  0  2  0  0  0  0  0  0
  183.9030  178.4510  145.1290 O   0  0  0  0  0  0  0  0  0  0  0  0
  186.3120  178.1040  144.6400 C   0  0  2  0  0  3  0  0  0  0  0  0
  185.1020  177.8550  145.5800 C   0  0  0  0  0  2  0  0  0  0  0  0
  185.8370  178.7190  143.3000 C   0  0  1  0  0  3  0  0  0  0  0  0
  184.1300  178.3610  141.6600 O   0  0  0  0  0  1  0  0  0  0  0  0
  185.0810  177.7060  142.4450 C   0  0  0  0  0  2  0  0  0  0  0  0
  189.7660  178.0780  142.2690 C   0  0  0  0  0  2  0  0  0  0  0  0
  189.2070  176.8570  138.1870 C   0  0  0  0  0  3  0  0  0  0  0  0
  189.5690  177.6620  140.8430 C   0  0  0  0  0  0  0  0  0  0  0  0
  190.4630  176.7590  140.2550 C   0  0  0  0  0  3  0  0  0  0  0  0
  190.2820  176.3580  138.9280 C   0  0  0  0  0  3  0  0  0  0  0  0
  188.3140  177.7610  138.7710 C   0  0  0  0  0  3  0  0  0  0  0  0
  188.4960  178.1650  140.0970 C   0  0  0  0  0  3  0  0  0  0  0  0
  1 21  1  6  0  0  0
  1  7  1  0  0  0  0
  2  1  1  0  0  0  0
  2  8  1  0  0  0  0
  3 12  1  0  0  0  0
  4  6  1  0  0  0  0
  4  9  1  0  0  0  0
  7 11  1  0  0  0  0
  7  3  1  0  0  0  0
  8 16  1  0  0  0  0
  8  3  1  0  0  0  0
 11 10  1  0  0  0  0
 11  4  1  0  0  0  0
 12  5  1  0  0  0  0
 12  9  1  0  0  0  0
 13 14  1  0  0  0  0
 14 15  1  0  0  0  0
 15 17  1  0  0  0  0
 16 17  1  0  0  0  0
 18 13  1  0  0  0  0
 18 16  1  0  0  0  0
 19 20  1  0  0  0  0
 20 18  1  0  0  0  0
 22 26  2  0  0  0  0
 22 25  1  0  0  0  0
 23 21  1  0  0  0  0
 24 23  1  0  0  0  0
 25 24  2  0  0  0  0
 26 27  1  0  0  0  0
 27 23  2  0  0  0  0
M  END
>  <MODEL>
8

>  <REMARK>
 VINA RESULT:      -7.5      2.407      6.027
  Name = 
  4 active torsions:
  status: ('A' for Active; 'I' for Inactive)
    1  A    between atoms: C_1  and  C_15
    2  A    between atoms: C_9  and  C_15
    3  A    between atoms: C_14  and  N_19
    4  A    between atoms: C_17  and  C_21
                            x       y       z     vdW  Elec       q    Type
                         _______ _______ _______ _____ _____    ______ ____

>  <TORSDO>
F 4

$$$$
=
 OpenBabel10272401143D

 27 30  0  0  1  0  0  0  0  0999 V2000
  189.0000  177.6750  141.1960 C   0  0  2  0  0  3  0  0  0  0  0  0
  187.9000  178.7130  141.4450 C   0  0  0  0  0  2  0  0  0  0  0  0
  188.0500  178.3510  139.1780 C   0  0  2  0  0  3  0  0  0  0  0  0
  190.0750  177.5000  137.6120 C   0  0  1  0  0  3  0  0  0  0  0  0
  186.5550  177.0400  137.8050 O   0  0  0  0  0  1  0  0  0  0  0  0
  191.1540  176.9110  136.7220 C   0  0  0  0  0  1  0  0  0  0  0  0
  188.7610  177.1860  139.7960 C   0  0  1  0  0  3  0  0  0  0  0  0
  187.1890  178.9930  140.1830 N   0  0  1  0  0  0  0  0  0  0  0  0
  188.7050  177.4900  136.9010 C   0  0  0  0  0  2  0  0  0  0  0  0
  190.1640  175.4640  138.9310 O   0  0  0  0  0  1  0  0  0  0  0  0
  190.0450  176.8530  139.0220 C   0  0  1  0  0  3  0  0  0  0  0  0
  187.5430  178.0270  137.7630 C   0  0  2  0  0  3  0  0  0  0  0  0
  183.7890  177.6800  141.5150 C   0  0  0  0  0  2  0  0  0  0  0  0
  183.0940  178.1630  140.2360 C   0  0  0  0  0  2  0  0  0  0  0  0
  183.5850  179.4280  139.8700 O   0  0  0  0  0  0  0  0  0  0  0  0
  185.8260  178.4150  140.2080 C   0  0  2  0  0  3  0  0  0  0  0  0
  184.8680  179.2410  139.3080 C   0  0  0  0  0  2  0  0  0  0  0  0
  185.2170  178.2320  141.6210 C   0  0  1  0  0  3  0  0  0  0  0  0
  184.8680  179.2870  143.7410 O   0  0  0  0  0  1  0  0  0  0  0  0
  185.2170  179.5370  142.4130 C   0  0  0  0  0  2  0  0  0  0  0  0
  188.9840  176.5340  142.2210 C   0  0  0  0  0  2  0  0  0  0  0  0
  188.3500  177.8600  146.2590 C   0  0  0  0  0  3  0  0  0  0  0  0
  188.7570  176.9880  143.6310 C   0  0  0  0  0  0  0  0  0  0  0  0
  189.8280  177.4970  144.3750 C   0  0  0  0  0  3  0  0  0  0  0  0
  189.6240  177.9320  145.6890 C   0  0  0  0  0  3  0  0  0  0  0  0
  187.2790  177.3500  145.5180 C   0  0  0  0  0  3  0  0  0  0  0  0
  187.4830  176.9130  144.2060 C   0  0  0  0  0  3  0  0  0  0  0  0
  1  2  1  0  0  0  0
  1 21  1  1  0  0  0
  3  7  1  0  0  0  0
  3  8  1  0  0  0  0
  4 11  1  0  0  0  0
  6  4  1  0  0  0  0
  7  1  1  0  0  0  0
  8 16  1  0  0  0  0
  8  2  1  0  0  0  0
  9  4  1  0  0  0  0
  9 12  1  0  0  0  0
 10 11  1  0  0  0  0
 11  7  1  0  0  0  0
 12  5  1  0  0  0  0
 12  3  1  0  0  0  0
 13 18  1  0  0  0  0
 14 13  1  0  0  0  0
 15 14  1  0  0  0  0
 16 18  1  0  0  0  0
 17 15  1  0  0  0  0
 17 16  1  0  0  0  0
 18 20  1  0  0  0  0
 20 19  1  0  0  0  0
 21 23  1  0  0  0  0
 23 27  2  0  0  0  0
 23 24  1  0  0  0  0
 24 25  2  0  0  0  0
 25 22  1  0  0  0  0
 26 22  2  0  0  0  0
 27 26  1  0  0  0  0
M  END
>  <MODEL>
9

>  <REMARK>
 VINA RESULT:      -7.3      1.891      6.099
  Name = 
  4 active torsions:
  status: ('A' for Active; 'I' for Inactive)
    1  A    between atoms: C_1  and  C_15
    2  A    between atoms: C_9  and  C_15
    3  A    between atoms: C_14  and  N_19
    4  A    between atoms: C_17  and  C_21
                            x       y       z     vdW  Elec       q    Type
                         _______ _______ _______ _____ _____    ______ ____

>  <TORSDO>
F 4

$$$$
