=
 OpenBabel10272400183D

 31 34  0  0  1  0  0  0  0  0999 V2000
  187.4550  178.3730  141.8490 C   0  0  2  0  0  3  0  0  0  0  0  0
  187.3190  178.2790  140.3960 N   0  0  0  0  0  0  0  0  0  0  0  0
  188.2590  177.6490  138.2710 C   0  0  0  0  0  0  0  0  0  0  0  0
  189.4000  177.2940  137.4160 C   0  0  0  0  0  3  0  0  0  0  0  0
  188.4260  177.8570  139.5780 C   0  0  0  0  0  3  0  0  0  0  0  0
  186.0140  178.5960  138.3580 O   0  0  0  0  0  0  0  0  0  0  0  0
  189.2640  177.3340  136.0870 C   0  0  0  0  0  3  0  0  0  0  0  0
  186.1370  178.7630  139.7390 C   0  0  0  0  0  0  0  0  0  0  0  0
  187.9930  177.7560  135.4600 C   0  0  0  0  0  3  0  0  0  0  0  0
  185.2230  179.3990  140.3950 N   0  0  0  0  0  2  0  0  0  0  0  0
  186.8690  177.6840  137.6710 C   0  0  1  0  0  3  0  0  0  0  0  0
  186.8910  177.9640  136.1910 C   0  0  0  0  0  3  0  0  0  0  0  0
  191.0250  177.8620  142.8010 C   0  0  2  0  0  3  0  0  0  0  0  0
  190.6060  176.1000  143.0750 S   0  0  0  0  0  0  0  0  0  0  0  0
  191.5720  178.4650  144.0800 C   0  0  0  0  0  1  0  0  0  0  0  0
  189.8090  178.5580  142.4080 N   0  0  0  0  0  0  0  0  0  0  0  0
  188.7690  177.8100  142.2960 C   0  0  0  0  0  0  0  0  0  0  0  0
  188.9550  176.4310  142.5590 N   0  0  0  0  0  2  0  0  0  0  0  0
  186.2720  177.7140  142.5490 C   0  0  0  0  0  2  0  0  0  0  0  0
  185.4330  178.7470  143.2850 C   0  0  0  0  0  2  0  0  0  0  0  0
  184.0990  178.5210  146.6610 O   0  0  0  0  0  0  0  0  0  0  0  0
  185.3820  178.4240  144.7010 N   0  0  0  0  0  0  0  0  0  0  0  0
  184.2680  178.8900  145.4690 C   0  0  0  0  0  3  0  0  0  0  0  0
  186.3470  177.4710  145.2370 C   0  0  0  0  0  2  0  0  0  0  0  0
  188.5200  177.3780  148.0470 C   0  0  1  0  0  3  0  0  0  0  0  0
  190.3930  176.4630  146.8200 O   0  0  0  0  0  0  0  0  0  0  0  0
  189.2750  178.3580  148.9240 C   0  0  0  0  0  1  0  0  0  0  0  0
  187.2730  178.0610  147.4860 C   0  0  0  0  0  2  0  0  0  0  0  0
  188.7010  177.5560  145.6820 O   0  0  0  0  0  0  0  0  0  0  0  0
  187.4690  178.1920  145.9670 C   0  0  1  0  0  3  0  0  0  0  0  0
  189.2990  177.0890  146.8280 C   0  0  0  0  0  0  0  0  0  0  0  0
  1 17  1  0  0  0  0
  1 19  1  1  0  0  0
  2  1  1  0  0  0  0
  3  5  2  0  0  0  0
  4  3  1  0  0  0  0
  5  2  1  0  0  0  0
  6  8  1  0  0  0  0
  7  4  2  0  0  0  0
  8 10  2  0  0  0  0
  8  2  1  0  0  0  0
  9  7  1  0  0  0  0
  9 12  2  0  0  0  0
 11 12  1  6  0  0  0
 11  3  1  0  0  0  0
 11  6  1  0  0  0  0
 13 14  1  0  0  0  0
 13 15  1  1  0  0  0
 16 13  1  0  0  0  0
 17 16  2  0  0  0  0
 17 18  1  0  0  0  0
 18 14  1  0  0  0  0
 19 20  1  0  0  0  0
 20 22  1  0  0  0  0
 22 24  1  0  0  0  0
 22 23  1  0  0  0  0
 23 21  2  0  0  0  0
 25 27  1  1  0  0  0
 26 31  2  0  0  0  0
 28 25  1  0  0  0  0
 29 30  1  0  0  0  0
 29 31  1  0  0  0  0
 30 24  1  6  0  0  0
 30 28  1  0  0  0  0
 31 25  1  0  0  0  0
M  END
>  <MODEL>
1

>  <REMARK>
 VINA RESULT:      -8.5      0.000      0.000
  Name = 
  7 active torsions:
  status: ('A' for Active; 'I' for Inactive)
    1  A    between atoms: C_3  and  N_9
    2  A    between atoms: C_3  and  C_22
    3  A    between atoms: N_4  and  C_12
    4  A    between atoms: N_9  and  C_15
    5  A    between atoms: C_12  and  C_20
    6  A    between atoms: C_12  and  C_27
    7  A    between atoms: C_15  and  C_20
                            x       y       z     vdW  Elec       q    Type
                         _______ _______ _______ _____ _____    ______ ____

>  <TORSDO>
F 7

$$$$
=
 OpenBabel10272400183D

 31 34  0  0  1  0  0  0  0  0999 V2000
  188.6210  177.3540  141.3180 C   0  0  2  0  0  3  0  0  0  0  0  0
  187.4460  177.8910  142.0050 N   0  0  0  0  0  0  0  0  0  0  0  0
  186.2200  178.2170  144.0510 C   0  0  0  0  0  0  0  0  0  0  0  0
  185.9370  177.8880  145.4550 C   0  0  0  0  0  3  0  0  0  0  0  0
  187.2210  177.6210  143.4000 C   0  0  0  0  0  3  0  0  0  0  0  0
  185.3330  179.1120  141.9630 O   0  0  0  0  0  0  0  0  0  0  0  0
  184.7930  178.3010  146.0090 C   0  0  0  0  0  3  0  0  0  0  0  0
  186.4080  178.5550  141.2670 C   0  0  0  0  0  0  0  0  0  0  0  0
  183.7940  179.0600  145.2260 C   0  0  0  0  0  3  0  0  0  0  0  0
  186.4250  178.5890  139.9750 N   0  0  0  0  0  2  0  0  0  0  0  0
  185.4240  179.3110  143.3730 C   0  0  1  0  0  3  0  0  0  0  0  0
  184.0610  179.4940  143.9880 C   0  0  0  0  0  3  0  0  0  0  0  0
  191.4050  177.5980  143.7890 C   0  0  2  0  0  3  0  0  0  0  0  0
  191.4830  175.7690  143.7460 S   0  0  0  0  0  0  0  0  0  0  0  0
  191.1340  178.0680  145.2050 C   0  0  0  0  0  1  0  0  0  0  0  0
  190.3220  178.0240  142.9140 N   0  0  0  0  0  0  0  0  0  0  0  0
  189.7210  177.0700  142.2930 C   0  0  0  0  0  0  0  0  0  0  0  0
  190.1990  175.7600  142.5410 N   0  0  0  0  0  2  0  0  0  0  0  0
  189.0660  178.2860  140.1960 C   0  0  0  0  0  2  0  0  0  0  0  0
  190.2290  177.6850  139.4210 C   0  0  0  0  0  2  0  0  0  0  0  0
  188.7880  178.5790  136.2030 O   0  0  0  0  0  0  0  0  0  0  0  0
  189.8790  177.5680  138.0160 N   0  0  0  0  0  0  0  0  0  0  0  0
  189.0090  178.5490  137.4430 C   0  0  0  0  0  3  0  0  0  0  0  0
  190.5860  176.5880  137.1990 C   0  0  0  0  0  2  0  0  0  0  0  0
  193.4350  174.4780  136.9480 C   0  0  1  0  0  3  0  0  0  0  0  0
  194.9410  176.2550  136.2970 O   0  0  0  0  0  0  0  0  0  0  0  0
  194.3620  173.7170  137.8760 C   0  0  0  0  0  1  0  0  0  0  0  0
  192.0590  174.6050  137.6030 C   0  0  0  0  0  2  0  0  0  0  0  0
  192.9680  176.7680  137.3920 O   0  0  0  0  0  0  0  0  0  0  0  0
  191.8360  176.0950  137.9100 C   0  0  1  0  0  3  0  0  0  0  0  0
  193.8680  175.8840  136.8450 C   0  0  0  0  0  0  0  0  0  0  0  0
  1 19  1  6  0  0  0
  1  2  1  0  0  0  0
  1 17  1  0  0  0  0
  2  5  1  0  0  0  0
  3  4  1  0  0  0  0
  4  7  2  0  0  0  0
  5  3  2  0  0  0  0
  6 11  1  0  0  0  0
  8  6  1  0  0  0  0
  8  2  1  0  0  0  0
  9  7  1  0  0  0  0
 10  8  2  0  0  0  0
 11 12  1  1  0  0  0
 11  3  1  0  0  0  0
 12  9  2  0  0  0  0
 13 15  1  1  0  0  0
 14 13  1  0  0  0  0
 16 13  1  0  0  0  0
 17 18  1  0  0  0  0
 17 16  2  0  0  0  0
 18 14  1  0  0  0  0
 20 19  1  0  0  0  0
 21 23  2  0  0  0  0
 22 20  1  0  0  0  0
 23 22  1  0  0  0  0
 24 22  1  0  0  0  0
 25 28  1  0  0  0  0
 25 27  1  1  0  0  0
 26 31  2  0  0  0  0
 28 30  1  0  0  0  0
 29 30  1  0  0  0  0
 30 24  1  6  0  0  0
 31 25  1  0  0  0  0
 31 29  1  0  0  0  0
M  END
>  <MODEL>
2

>  <REMARK>
 VINA RESULT:      -8.1      3.199      7.647
  Name = 
  7 active torsions:
  status: ('A' for Active; 'I' for Inactive)
    1  A    between atoms: C_3  and  N_9
    2  A    between atoms: C_3  and  C_22
    3  A    between atoms: N_4  and  C_12
    4  A    between atoms: N_9  and  C_15
    5  A    between atoms: C_12  and  C_20
    6  A    between atoms: C_12  and  C_27
    7  A    between atoms: C_15  and  C_20
                            x       y       z     vdW  Elec       q    Type
                         _______ _______ _______ _____ _____    ______ ____

>  <TORSDO>
F 7

$$$$
=
 OpenBabel10272400183D

 31 34  0  0  1  0  0  0  0  0999 V2000
  190.2010  176.9970  138.5960 C   0  0  2  0  0  3  0  0  0  0  0  0
  188.8730  177.0490  137.9840 N   0  0  0  0  0  0  0  0  0  0  0  0
  186.9390  175.8870  137.1450 C   0  0  0  0  0  0  0  0  0  0  0  0
  186.2710  174.6710  136.6590 C   0  0  0  0  0  3  0  0  0  0  0  0
  188.1990  175.8430  137.5810 C   0  0  0  0  0  3  0  0  0  0  0  0
  186.9890  178.3240  137.0990 O   0  0  0  0  0  0  0  0  0  0  0  0
  185.1130  174.7760  136.0010 C   0  0  0  0  0  3  0  0  0  0  0  0
  188.2840  178.3080  137.6200 C   0  0  0  0  0  0  0  0  0  0  0  0
  184.5040  176.0960  135.7280 C   0  0  0  0  0  3  0  0  0  0  0  0
  188.9560  179.4090  137.7090 N   0  0  0  0  0  2  0  0  0  0  0  0
  186.1520  177.1770  137.2350 C   0  0  1  0  0  3  0  0  0  0  0  0
  185.0050  177.2170  136.2590 C   0  0  0  0  0  3  0  0  0  0  0  0
  192.5020  175.6150  136.0060 C   0  0  2  0  0  3  0  0  0  0  0  0
  192.5210  174.0650  136.9790 S   0  0  0  0  0  0  0  0  0  0  0  0
  193.9130  176.1530  135.8680 C   0  0  0  0  0  1  0  0  0  0  0  0
  191.6730  176.5810  136.7130 N   0  0  0  0  0  0  0  0  0  0  0  0
  191.1230  176.1380  137.7870 C   0  0  0  0  0  0  0  0  0  0  0  0
  191.3910  174.7870  138.1200 N   0  0  0  0  0  2  0  0  0  0  0  0
  190.1120  176.5470  140.0500 C   0  0  0  0  0  2  0  0  0  0  0  0
  190.1830  177.7390  140.9920 C   0  0  0  0  0  2  0  0  0  0  0  0
  186.7250  178.4180  141.8960 O   0  0  0  0  0  0  0  0  0  0  0  0
  188.9840  177.7930  141.8110 N   0  0  0  0  0  0  0  0  0  0  0  0
  187.8310  178.4630  141.2940 C   0  0  0  0  0  3  0  0  0  0  0  0
  188.9330  176.9910  143.0290 C   0  0  0  0  0  2  0  0  0  0  0  0
  189.3640  176.9770  146.5560 C   0  0  1  0  0  3  0  0  0  0  0  0
  191.7810  176.9420  146.4600 O   0  0  0  0  0  0  0  0  0  0  0  0
  189.1930  177.9350  147.7200 C   0  0  0  0  0  1  0  0  0  0  0  0
  188.3850  177.3540  145.4440 C   0  0  0  0  0  2  0  0  0  0  0  0
  190.5720  177.6860  144.6340 O   0  0  0  0  0  0  0  0  0  0  0  0
  189.2190  177.8490  144.2520 C   0  0  1  0  0  3  0  0  0  0  0  0
  190.6740  177.1940  145.9140 C   0  0  0  0  0  0  0  0  0  0  0  0
  1 19  1  1  0  0  0
  2  1  1  0  0  0  0
  3 11  1  0  0  0  0
  3  5  2  0  0  0  0
  4  3  1  0  0  0  0
  5  2  1  0  0  0  0
  6 11  1  0  0  0  0
  6  8  1  0  0  0  0
  7  4  2  0  0  0  0
  8 10  2  0  0  0  0
  8  2  1  0  0  0  0
  9  7  1  0  0  0  0
  9 12  2  0  0  0  0
 11 12  1  6  0  0  0
 13 15  1  1  0  0  0
 13 16  1  0  0  0  0
 13 14  1  0  0  0  0
 14 18  1  0  0  0  0
 16 17  2  0  0  0  0
 17 18  1  0  0  0  0
 17  1  1  0  0  0  0
 19 20  1  0  0  0  0
 20 22  1  0  0  0  0
 22 24  1  0  0  0  0
 23 22  1  0  0  0  0
 23 21  2  0  0  0  0
 25 27  1  1  0  0  0
 28 25  1  0  0  0  0
 29 31  1  0  0  0  0
 30 24  1  6  0  0  0
 30 29  1  0  0  0  0
 30 28  1  0  0  0  0
 31 26  2  0  0  0  0
 31 25  1  0  0  0  0
M  END
>  <MODEL>
3

>  <REMARK>
 VINA RESULT:      -8.1      2.912      4.335
  Name = 
  7 active torsions:
  status: ('A' for Active; 'I' for Inactive)
    1  A    between atoms: C_3  and  N_9
    2  A    between atoms: C_3  and  C_22
    3  A    between atoms: N_4  and  C_12
    4  A    between atoms: N_9  and  C_15
    5  A    between atoms: C_12  and  C_20
    6  A    between atoms: C_12  and  C_27
    7  A    between atoms: C_15  and  C_20
                            x       y       z     vdW  Elec       q    Type
                         _______ _______ _______ _____ _____    ______ ____

>  <TORSDO>
F 7

$$$$
=
 OpenBabel10272400183D

 31 34  0  0  1  0  0  0  0  0999 V2000
  188.5150  177.8210  142.8770 C   0  0  2  0  0  3  0  0  0  0  0  0
  188.6300  177.7560  141.4200 N   0  0  0  0  0  0  0  0  0  0  0  0
  189.8360  177.0100  139.4750 C   0  0  0  0  0  0  0  0  0  0  0  0
  191.0510  176.4990  138.8240 C   0  0  0  0  0  3  0  0  0  0  0  0
  189.7940  177.1840  140.7980 C   0  0  0  0  0  3  0  0  0  0  0  0
  187.7690  178.2720  139.1960 O   0  0  0  0  0  0  0  0  0  0  0  0
  191.1620  176.5680  137.4940 C   0  0  0  0  0  3  0  0  0  0  0  0
  187.6650  178.4100  140.5810 C   0  0  0  0  0  0  0  0  0  0  0  0
  190.0960  177.1740  136.6670 C   0  0  0  0  0  3  0  0  0  0  0  0
  186.7470  179.1680  141.0860 N   0  0  0  0  0  2  0  0  0  0  0  0
  188.5960  177.2510  138.6410 C   0  0  1  0  0  3  0  0  0  0  0  0
  188.9220  177.5340  137.1980 C   0  0  0  0  0  3  0  0  0  0  0  0
  191.5330  177.1110  144.9510 C   0  0  2  0  0  3  0  0  0  0  0  0
  191.6140  175.4830  144.1150 S   0  0  0  0  0  0  0  0  0  0  0  0
  191.4050  176.9130  146.4480 C   0  0  0  0  0  1  0  0  0  0  0  0
  190.3660  177.8190  144.4460 N   0  0  0  0  0  0  0  0  0  0  0  0
  189.7090  177.1970  143.5310 C   0  0  0  0  0  0  0  0  0  0  0  0
  190.2140  175.9320  143.1440 N   0  0  0  0  0  2  0  0  0  0  0  0
  187.2040  177.1980  143.3470 C   0  0  0  0  0  2  0  0  0  0  0  0
  187.1340  177.1620  144.8650 C   0  0  0  0  0  2  0  0  0  0  0  0
  185.6060  179.5360  147.1590 O   0  0  0  0  0  0  0  0  0  0  0  0
  186.2200  178.1860  145.3430 N   0  0  0  0  0  0  0  0  0  0  0  0
  186.2710  178.5590  146.7230 C   0  0  0  0  0  3  0  0  0  0  0  0
  185.4390  178.9370  144.3660 C   0  0  0  0  0  2  0  0  0  0  0  0
  182.0530  179.3950  143.3890 C   0  0  1  0  0  3  0  0  0  0  0  0
  182.4420  178.8510  141.0640 O   0  0  0  0  0  0  0  0  0  0  0  0
  180.7200  178.6950  143.5700 C   0  0  0  0  0  1  0  0  0  0  0  0
  182.9510  179.0890  144.5880 C   0  0  0  0  0  2  0  0  0  0  0  0
  183.9410  178.1350  142.6750 O   0  0  0  0  0  0  0  0  0  0  0  0
  184.1210  178.2360  144.0750 C   0  0  1  0  0  3  0  0  0  0  0  0
  182.7960  178.7820  142.2720 C   0  0  0  0  0  0  0  0  0  0  0  0
  1 19  1  1  0  0  0
  1 17  1  0  0  0  0
  2  1  1  0  0  0  0
  3  5  2  0  0  0  0
  4  3  1  0  0  0  0
  5  2  1  0  0  0  0
  6  8  1  0  0  0  0
  7  4  2  0  0  0  0
  8 10  2  0  0  0  0
  8  2  1  0  0  0  0
  9 12  2  0  0  0  0
  9  7  1  0  0  0  0
 11 12  1  6  0  0  0
 11  6  1  0  0  0  0
 11  3  1  0  0  0  0
 13 15  1  1  0  0  0
 14 13  1  0  0  0  0
 16 13  1  0  0  0  0
 17 16  2  0  0  0  0
 18 17  1  0  0  0  0
 18 14  1  0  0  0  0
 19 20  1  0  0  0  0
 20 22  1  0  0  0  0
 22 23  1  0  0  0  0
 23 21  2  0  0  0  0
 24 22  1  0  0  0  0
 25 27  1  1  0  0  0
 25 28  1  0  0  0  0
 26 31  2  0  0  0  0
 29 30  1  0  0  0  0
 30 24  1  6  0  0  0
 30 28  1  0  0  0  0
 31 29  1  0  0  0  0
 31 25  1  0  0  0  0
M  END
>  <MODEL>
4

>  <REMARK>
 VINA RESULT:      -8.0      2.068      4.068
  Name = 
  7 active torsions:
  status: ('A' for Active; 'I' for Inactive)
    1  A    between atoms: C_3  and  N_9
    2  A    between atoms: C_3  and  C_22
    3  A    between atoms: N_4  and  C_12
    4  A    between atoms: N_9  and  C_15
    5  A    between atoms: C_12  and  C_20
    6  A    between atoms: C_12  and  C_27
    7  A    between atoms: C_15  and  C_20
                            x       y       z     vdW  Elec       q    Type
                         _______ _______ _______ _____ _____    ______ ____

>  <TORSDO>
F 7

$$$$
=
 OpenBabel10272400183D

 31 34  0  0  1  0  0  0  0  0999 V2000
  190.3330  177.2190  138.6560 C   0  0  2  0  0  3  0  0  0  0  0  0
  189.0040  177.2050  138.0440 N   0  0  0  0  0  0  0  0  0  0  0  0
  187.0840  175.9550  137.3050 C   0  0  0  0  0  0  0  0  0  0  0  0
  186.4300  174.6960  136.9210 C   0  0  0  0  0  3  0  0  0  0  0  0
  188.3450  175.9620  137.7410 C   0  0  0  0  0  3  0  0  0  0  0  0
  187.1050  178.3810  137.0600 O   0  0  0  0  0  0  0  0  0  0  0  0
  185.2710  174.7330  136.2570 C   0  0  0  0  0  3  0  0  0  0  0  0
  188.4010  178.4230  137.5780 C   0  0  0  0  0  0  0  0  0  0  0  0
  184.6470  176.0190  135.8780 C   0  0  0  0  0  3  0  0  0  0  0  0
  189.0600  179.5350  137.5770 N   0  0  0  0  0  2  0  0  0  0  0  0
  186.2820  177.2390  137.2900 C   0  0  1  0  0  3  0  0  0  0  0  0
  185.1340  177.1860  136.3160 C   0  0  0  0  0  3  0  0  0  0  0  0
  193.4500  175.9220  137.0710 C   0  0  2  0  0  3  0  0  0  0  0  0
  192.4910  175.7740  135.5180 S   0  0  0  0  0  0  0  0  0  0  0  0
  194.0040  174.5660  137.4640 C   0  0  0  0  0  1  0  0  0  0  0  0
  192.5530  176.4080  138.1090 N   0  0  0  0  0  0  0  0  0  0  0  0
  191.3560  176.6620  137.7140 C   0  0  0  0  0  0  0  0  0  0  0  0
  191.0870  176.4440  136.3410 N   0  0  0  0  0  2  0  0  0  0  0  0
  190.3210  176.4920  139.9960 C   0  0  0  0  0  2  0  0  0  0  0  0
  189.6950  177.3590  141.0780 C   0  0  0  0  0  2  0  0  0  0  0  0
  191.6730  176.5590  144.0240 O   0  0  0  0  0  0  0  0  0  0  0  0
  190.0120  176.8200  142.3890 N   0  0  0  0  0  0  0  0  0  0  0  0
  191.3670  176.8790  142.8440 C   0  0  0  0  0  3  0  0  0  0  0  0
  188.9150  176.4340  143.2700 C   0  0  0  0  0  2  0  0  0  0  0  0
  186.4650  177.5640  145.5820 C   0  0  1  0  0  3  0  0  0  0  0  0
  187.9780  177.6120  147.4680 O   0  0  0  0  0  0  0  0  0  0  0  0
  185.6890  178.8350  145.8760 C   0  0  0  0  0  1  0  0  0  0  0  0
  186.8180  177.5220  144.0950 C   0  0  0  0  0  2  0  0  0  0  0  0
  188.8260  177.6790  145.3160 O   0  0  0  0  0  0  0  0  0  0  0  0
  188.3460  177.6480  143.9850 C   0  0  1  0  0  3  0  0  0  0  0  0
  187.7920  177.6250  146.2220 C   0  0  0  0  0  0  0  0  0  0  0  0
  1 19  1  1  0  0  0
  2  1  1  0  0  0  0
  3  5  2  0  0  0  0
  4  3  1  0  0  0  0
  5  2  1  0  0  0  0
  6 11  1  0  0  0  0
  6  8  1  0  0  0  0
  7  4  2  0  0  0  0
  8  2  1  0  0  0  0
  9  7  1  0  0  0  0
  9 12  2  0  0  0  0
 10  8  2  0  0  0  0
 11 12  1  6  0  0  0
 11  3  1  0  0  0  0
 13 15  1  1  0  0  0
 13 16  1  0  0  0  0
 14 18  1  0  0  0  0
 14 13  1  0  0  0  0
 17 16  2  0  0  0  0
 17  1  1  0  0  0  0
 18 17  1  0  0  0  0
 19 20  1  0  0  0  0
 20 22  1  0  0  0  0
 22 23  1  0  0  0  0
 22 24  1  0  0  0  0
 23 21  2  0  0  0  0
 25 27  1  6  0  0  0
 25 31  1  0  0  0  0
 28 25  1  0  0  0  0
 29 31  1  0  0  0  0
 30 24  1  6  0  0  0
 30 28  1  0  0  0  0
 30 29  1  0  0  0  0
 31 26  2  0  0  0  0
M  END
>  <MODEL>
5

>  <REMARK>
 VINA RESULT:      -8.0      3.014      4.702
  Name = 
  7 active torsions:
  status: ('A' for Active; 'I' for Inactive)
    1  A    between atoms: C_3  and  N_9
    2  A    between atoms: C_3  and  C_22
    3  A    between atoms: N_4  and  C_12
    4  A    between atoms: N_9  and  C_15
    5  A    between atoms: C_12  and  C_20
    6  A    between atoms: C_12  and  C_27
    7  A    between atoms: C_15  and  C_20
                            x       y       z     vdW  Elec       q    Type
                         _______ _______ _______ _____ _____    ______ ____

>  <TORSDO>
F 7

$$$$
=
 OpenBabel10272400183D

 31 34  0  0  1  0  0  0  0  0999 V2000
  185.1500  178.9120  140.8660 C   0  0  2  0  0  3  0  0  0  0  0  0
  183.9390  178.5850  140.1130 N   0  0  0  0  0  0  0  0  0  0  0  0
  182.2180  176.9950  139.5610 C   0  0  0  0  0  0  0  0  0  0  0  0
  181.6880  175.6250  139.5200 C   0  0  0  0  0  3  0  0  0  0  0  0
  183.3900  177.2550  140.1420 C   0  0  0  0  0  3  0  0  0  0  0  0
  182.1760  179.2120  138.5460 O   0  0  0  0  0  0  0  0  0  0  0  0
  180.6500  175.3450  138.7260 C   0  0  0  0  0  3  0  0  0  0  0  0
  183.3680  179.5330  139.1980 C   0  0  0  0  0  0  0  0  0  0  0  0
  180.0420  176.3830  137.8660 C   0  0  0  0  0  3  0  0  0  0  0  0
  183.9710  180.6440  138.9260 N   0  0  0  0  0  2  0  0  0  0  0  0
  181.3750  178.1290  139.0180 C   0  0  1  0  0  3  0  0  0  0  0  0
  180.4040  177.6680  137.9640 C   0  0  0  0  0  3  0  0  0  0  0  0
  188.6430  178.3430  139.6880 C   0  0  2  0  0  3  0  0  0  0  0  0
  187.9290  177.9300  138.0530 S   0  0  0  0  0  0  0  0  0  0  0  0
  189.4460  177.1670  140.2100 C   0  0  0  0  0  1  0  0  0  0  0  0
  187.5460  178.6330  140.5990 N   0  0  0  0  0  0  0  0  0  0  0  0
  186.3750  178.5870  140.0680 C   0  0  0  0  0  0  0  0  0  0  0  0
  186.3220  178.2730  138.6880 N   0  0  0  0  0  2  0  0  0  0  0  0
  185.1450  178.2270  142.2280 C   0  0  0  0  0  2  0  0  0  0  0  0
  184.9550  179.2410  143.3450 C   0  0  0  0  0  2  0  0  0  0  0  0
  184.6480  178.3870  146.8670 O   0  0  0  0  0  0  0  0  0  0  0  0
  185.2840  178.6350  144.6240 N   0  0  0  0  0  0  0  0  0  0  0  0
  184.5010  178.9850  145.7690 C   0  0  0  0  0  3  0  0  0  0  0  0
  186.2540  177.5450  144.6530 C   0  0  0  0  0  2  0  0  0  0  0  0
  189.5190  176.6980  145.7700 C   0  0  1  0  0  3  0  0  0  0  0  0
  190.4350  176.4610  143.5440 O   0  0  0  0  0  0  0  0  0  0  0  0
  190.7000  177.3820  146.4340 C   0  0  0  0  0  1  0  0  0  0  0  0
  188.2280  177.4050  146.1850 C   0  0  0  0  0  2  0  0  0  0  0  0
  188.5120  177.7060  143.8660 O   0  0  0  0  0  0  0  0  0  0  0  0
  187.6520  178.0760  144.9270 C   0  0  1  0  0  3  0  0  0  0  0  0
  189.5560  176.9320  144.3140 C   0  0  0  0  0  0  0  0  0  0  0  0
  1 19  1  1  0  0  0
  2  5  1  0  0  0  0
  2  1  1  0  0  0  0
  3  5  2  0  0  0  0
  4  3  1  0  0  0  0
  6 11  1  0  0  0  0
  6  8  1  0  0  0  0
  7  4  2  0  0  0  0
  8  2  1  0  0  0  0
  9 12  2  0  0  0  0
  9  7  1  0  0  0  0
 10  8  2  0  0  0  0
 11 12  1  6  0  0  0
 11  3  1  0  0  0  0
 13 15  1  1  0  0  0
 13 16  1  0  0  0  0
 14 18  1  0  0  0  0
 14 13  1  0  0  0  0
 17 16  2  0  0  0  0
 17  1  1  0  0  0  0
 18 17  1  0  0  0  0
 19 20  1  0  0  0  0
 20 22  1  0  0  0  0
 22 24  1  0  0  0  0
 22 23  1  0  0  0  0
 23 21  2  0  0  0  0
 25 28  1  0  0  0  0
 25 27  1  1  0  0  0
 26 31  2  0  0  0  0
 29 31  1  0  0  0  0
 29 30  1  0  0  0  0
 30 24  1  6  0  0  0
 30 28  1  0  0  0  0
 31 25  1  0  0  0  0
M  END
>  <MODEL>
6

>  <REMARK>
 VINA RESULT:      -8.0      3.163      4.299
  Name = 
  7 active torsions:
  status: ('A' for Active; 'I' for Inactive)
    1  A    between atoms: C_3  and  N_9
    2  A    between atoms: C_3  and  C_22
    3  A    between atoms: N_4  and  C_12
    4  A    between atoms: N_9  and  C_15
    5  A    between atoms: C_12  and  C_20
    6  A    between atoms: C_12  and  C_27
    7  A    between atoms: C_15  and  C_20
                            x       y       z     vdW  Elec       q    Type
                         _______ _______ _______ _____ _____    ______ ____

>  <TORSDO>
F 7

$$$$
=
 OpenBabel10272400183D

 31 34  0  0  1  0  0  0  0  0999 V2000
  188.7170  178.2540  141.5410 C   0  0  2  0  0  3  0  0  0  0  0  0
  189.4580  177.8270  142.7270 N   0  0  0  0  0  0  0  0  0  0  0  0
  189.4930  177.3870  145.0940 C   0  0  0  0  0  0  0  0  0  0  0  0
  188.9270  177.5250  146.4430 C   0  0  0  0  0  3  0  0  0  0  0  0
  188.8620  177.8980  144.0350 C   0  0  0  0  0  3  0  0  0  0  0  0
  191.5100  177.0200  143.7740 O   0  0  0  0  0  0  0  0  0  0  0  0
  189.6820  177.2330  147.5060 C   0  0  0  0  0  3  0  0  0  0  0  0
  190.8510  177.4870  142.6350 C   0  0  0  0  0  0  0  0  0  0  0  0
  191.0880  176.8020  147.3510 C   0  0  0  0  0  3  0  0  0  0  0  0
  191.5100  177.6640  141.5370 N   0  0  0  0  0  2  0  0  0  0  0  0
  190.7580  176.5780  144.9030 C   0  0  1  0  0  3  0  0  0  0  0  0
  191.6070  176.5380  146.1460 C   0  0  0  0  0  3  0  0  0  0  0  0
  185.2970  178.0230  143.0120 C   0  0  2  0  0  3  0  0  0  0  0  0
  184.7480  179.1630  141.6890 S   0  0  0  0  0  0  0  0  0  0  0  0
  185.0030  178.6310  144.3700 C   0  0  0  0  0  1  0  0  0  0  0  0
  186.7300  177.8170  142.8640 N   0  0  0  0  0  0  0  0  0  0  0  0
  187.2610  178.4130  141.8550 C   0  0  0  0  0  0  0  0  0  0  0  0
  186.3840  179.1670  141.0370 N   0  0  0  0  0  2  0  0  0  0  0  0
  188.9590  177.3010  140.3760 C   0  0  0  0  0  2  0  0  0  0  0  0
  188.9050  178.0410  139.0490 C   0  0  0  0  0  2  0  0  0  0  0  0
  187.6110  175.5830  136.7010 O   0  0  0  0  0  0  0  0  0  0  0  0
  188.9020  177.0890  137.9510 N   0  0  0  0  0  0  0  0  0  0  0  0
  187.7210  176.3160  137.7200 C   0  0  0  0  0  3  0  0  0  0  0  0
  190.0140  177.1070  137.0070 C   0  0  0  0  0  2  0  0  0  0  0  0
  193.4390  176.1640  136.9080 C   0  0  1  0  0  3  0  0  0  0  0  0
  193.8680  176.7340  139.2200 O   0  0  0  0  0  0  0  0  0  0  0  0
  194.2590  174.8900  136.8280 C   0  0  0  0  0  1  0  0  0  0  0  0
  192.0860  175.9370  136.2320 C   0  0  0  0  0  2  0  0  0  0  0  0
  191.6990  176.3280  138.5230 O   0  0  0  0  0  0  0  0  0  0  0  0
  191.0120  176.0050  137.3290 C   0  0  1  0  0  3  0  0  0  0  0  0
  193.0540  176.4280  138.3080 C   0  0  0  0  0  0  0  0  0  0  0  0
  1 19  1  6  0  0  0
  1 17  1  0  0  0  0
  1  2  1  0  0  0  0
  2  5  1  0  0  0  0
  3  4  1  0  0  0  0
  4  7  2  0  0  0  0
  5  3  2  0  0  0  0
  6 11  1  0  0  0  0
  8  2  1  0  0  0  0
  8  6  1  0  0  0  0
  9  7  1  0  0  0  0
 10  8  2  0  0  0  0
 11  3  1  0  0  0  0
 11 12  1  1  0  0  0
 12  9  2  0  0  0  0
 13 15  1  1  0  0  0
 14 13  1  0  0  0  0
 16 13  1  0  0  0  0
 17 16  2  0  0  0  0
 18 14  1  0  0  0  0
 18 17  1  0  0  0  0
 20 19  1  0  0  0  0
 21 23  2  0  0  0  0
 22 20  1  0  0  0  0
 23 22  1  0  0  0  0
 24 22  1  0  0  0  0
 25 27  1  1  0  0  0
 25 31  1  0  0  0  0
 28 25  1  0  0  0  0
 28 30  1  0  0  0  0
 30 24  1  6  0  0  0
 30 29  1  0  0  0  0
 31 29  1  0  0  0  0
 31 26  2  0  0  0  0
M  END
>  <MODEL>
7

>  <REMARK>
 VINA RESULT:      -7.7      3.126      8.243
  Name = 
  7 active torsions:
  status: ('A' for Active; 'I' for Inactive)
    1  A    between atoms: C_3  and  N_9
    2  A    between atoms: C_3  and  C_22
    3  A    between atoms: N_4  and  C_12
    4  A    between atoms: N_9  and  C_15
    5  A    between atoms: C_12  and  C_20
    6  A    between atoms: C_12  and  C_27
    7  A    between atoms: C_15  and  C_20
                            x       y       z     vdW  Elec       q    Type
                         _______ _______ _______ _____ _____    ______ ____

>  <TORSDO>
F 7

$$$$
=
 OpenBabel10272400183D

 31 34  0  0  1  0  0  0  0  0999 V2000
  188.5890  177.4320  141.2870 C   0  0  2  0  0  3  0  0  0  0  0  0
  187.4170  177.9380  142.0020 N   0  0  0  0  0  0  0  0  0  0  0  0
  186.2370  178.2420  144.0780 C   0  0  0  0  0  0  0  0  0  0  0  0
  186.0000  177.9150  145.4900 C   0  0  0  0  0  3  0  0  0  0  0  0
  187.2370  177.6710  143.4040 C   0  0  0  0  0  3  0  0  0  0  0  0
  185.2690  179.0970  142.0090 O   0  0  0  0  0  0  0  0  0  0  0  0
  184.8600  178.2980  146.0720 C   0  0  0  0  0  3  0  0  0  0  0  0
  186.3400  178.5670  141.2880 C   0  0  0  0  0  0  0  0  0  0  0  0
  183.8180  179.0220  145.3120 C   0  0  0  0  0  3  0  0  0  0  0  0
  186.3230  178.5930  139.9960 N   0  0  0  0  0  2  0  0  0  0  0  0
  185.3900  179.3080  143.4150 C   0  0  1  0  0  3  0  0  0  0  0  0
  184.0400  179.4540  144.0650 C   0  0  0  0  0  3  0  0  0  0  0  0
  191.4240  177.6050  143.7050 C   0  0  2  0  0  3  0  0  0  0  0  0
  191.4500  175.7740  143.6670 S   0  0  0  0  0  0  0  0  0  0  0  0
  191.1930  178.0860  145.1240 C   0  0  0  0  0  1  0  0  0  0  0  0
  190.3370  178.0580  142.8490 N   0  0  0  0  0  0  0  0  0  0  0  0
  189.6990  177.1200  142.2430 C   0  0  0  0  0  0  0  0  0  0  0  0
  190.1440  175.7970  142.4860 N   0  0  0  0  0  2  0  0  0  0  0  0
  189.0200  178.4040  140.1940 C   0  0  0  0  0  2  0  0  0  0  0  0
  190.1630  177.8270  139.3750 C   0  0  0  0  0  2  0  0  0  0  0  0
  188.6340  178.7350  136.2020 O   0  0  0  0  0  0  0  0  0  0  0  0
  189.7650  177.7100  137.9820 N   0  0  0  0  0  0  0  0  0  0  0  0
  188.8960  178.7050  137.4340 C   0  0  0  0  0  3  0  0  0  0  0  0
  190.4260  176.7130  137.1470 C   0  0  0  0  0  2  0  0  0  0  0  0
  188.8440  173.6860  136.1700 C   0  0  1  0  0  3  0  0  0  0  0  0
  190.9050  172.5650  135.5830 O   0  0  0  0  0  0  0  0  0  0  0  0
  188.1270  172.5210  136.8280 C   0  0  0  0  0  1  0  0  0  0  0  0
  188.6670  174.9370  137.0300 C   0  0  0  0  0  2  0  0  0  0  0  0
  190.9550  174.3800  137.0170 O   0  0  0  0  0  0  0  0  0  0  0  0
  190.0510  175.3070  137.5860 C   0  0  1  0  0  3  0  0  0  0  0  0
  190.3020  173.4710  136.2180 C   0  0  0  0  0  0  0  0  0  0  0  0
  1 19  1  6  0  0  0
  1  2  1  0  0  0  0
  1 17  1  0  0  0  0
  2  5  1  0  0  0  0
  3  4  1  0  0  0  0
  4  7  2  0  0  0  0
  5  3  2  0  0  0  0
  6 11  1  0  0  0  0
  8  2  1  0  0  0  0
  8  6  1  0  0  0  0
  9  7  1  0  0  0  0
 10  8  2  0  0  0  0
 11 12  1  1  0  0  0
 11  3  1  0  0  0  0
 12  9  2  0  0  0  0
 13 15  1  1  0  0  0
 14 13  1  0  0  0  0
 16 13  1  0  0  0  0
 17 18  1  0  0  0  0
 17 16  2  0  0  0  0
 18 14  1  0  0  0  0
 20 19  1  0  0  0  0
 21 23  2  0  0  0  0
 22 20  1  0  0  0  0
 23 22  1  0  0  0  0
 24 22  1  0  0  0  0
 25 31  1  0  0  0  0
 25 27  1  1  0  0  0
 25 28  1  0  0  0  0
 26 31  2  0  0  0  0
 28 30  1  0  0  0  0
 29 30  1  0  0  0  0
 30 24  1  6  0  0  0
 31 29  1  0  0  0  0
M  END
>  <MODEL>
8

>  <REMARK>
 VINA RESULT:      -7.7      2.806      7.675
  Name = 
  7 active torsions:
  status: ('A' for Active; 'I' for Inactive)
    1  A    between atoms: C_3  and  N_9
    2  A    between atoms: C_3  and  C_22
    3  A    between atoms: N_4  and  C_12
    4  A    between atoms: N_9  and  C_15
    5  A    between atoms: C_12  and  C_20
    6  A    between atoms: C_12  and  C_27
    7  A    between atoms: C_15  and  C_20
                            x       y       z     vdW  Elec       q    Type
                         _______ _______ _______ _____ _____    ______ ____

>  <TORSDO>
F 7

$$$$
=
 OpenBabel10272400183D

 31 34  0  0  1  0  0  0  0  0999 V2000
  187.7500  178.3780  139.9440 C   0  0  2  0  0  3  0  0  0  0  0  0
  186.2930  178.4130  139.8200 N   0  0  0  0  0  0  0  0  0  0  0  0
  184.3200  177.9570  138.5190 C   0  0  0  0  0  0  0  0  0  0  0  0
  183.6520  177.6610  137.2440 C   0  0  0  0  0  3  0  0  0  0  0  0
  185.6490  178.0480  138.5860 C   0  0  0  0  0  3  0  0  0  0  0  0
  184.0930  178.9250  140.7450 O   0  0  0  0  0  0  0  0  0  0  0  0
  182.3290  177.8190  137.1420 C   0  0  0  0  0  3  0  0  0  0  0  0
  185.4830  178.9690  140.8680 C   0  0  0  0  0  0  0  0  0  0  0  0
  181.5270  178.3140  138.2830 C   0  0  0  0  0  3  0  0  0  0  0  0
  186.0210  179.5590  141.8850 N   0  0  0  0  0  2  0  0  0  0  0  0
  183.4900  178.0650  139.7800 C   0  0  1  0  0  3  0  0  0  0  0  0
  182.0680  178.4720  139.4970 C   0  0  0  0  0  3  0  0  0  0  0  0
  189.4170  176.5620  137.1450 C   0  0  2  0  0  3  0  0  0  0  0  0
  189.3800  178.1400  136.2180 S   0  0  0  0  0  0  0  0  0  0  0  0
  188.6700  175.4930  136.3710 C   0  0  0  0  0  1  0  0  0  0  0  0
  188.7730  176.7800  138.4320 N   0  0  0  0  0  0  0  0  0  0  0  0
  188.3830  177.9870  138.6440 C   0  0  0  0  0  0  0  0  0  0  0  0
  188.6420  178.9220  137.6120 N   0  0  0  0  0  2  0  0  0  0  0  0
  188.1760  177.4720  141.0940 C   0  0  0  0  0  2  0  0  0  0  0  0
  189.3910  178.0390  141.8100 C   0  0  0  0  0  2  0  0  0  0  0  0
  191.6250  176.2400  144.0480 O   0  0  0  0  0  0  0  0  0  0  0  0
  189.8050  177.1370  142.8720 N   0  0  0  0  0  0  0  0  0  0  0  0
  191.2030  176.8960  143.0580 C   0  0  0  0  0  3  0  0  0  0  0  0
  188.8050  176.6820  143.8320 C   0  0  0  0  0  2  0  0  0  0  0  0
  186.6530  177.6170  146.5000 C   0  0  1  0  0  3  0  0  0  0  0  0
  188.3520  177.4050  148.2090 O   0  0  0  0  0  0  0  0  0  0  0  0
  185.9650  178.8680  147.0120 C   0  0  0  0  0  1  0  0  0  0  0  0
  186.8500  177.7320  144.9880 C   0  0  0  0  0  2  0  0  0  0  0  0
  188.9770  177.6890  145.9990 O   0  0  0  0  0  0  0  0  0  0  0  0
  188.3630  177.8240  144.7320 C   0  0  1  0  0  3  0  0  0  0  0  0
  188.0400  177.5650  146.9980 C   0  0  0  0  0  0  0  0  0  0  0  0
  1 19  1  1  0  0  0
  2  1  1  0  0  0  0
  2  8  1  0  0  0  0
  3  5  2  0  0  0  0
  3 11  1  0  0  0  0
  4  3  1  0  0  0  0
  5  2  1  0  0  0  0
  6  8  1  0  0  0  0
  7  4  2  0  0  0  0
  7  9  1  0  0  0  0
  8 10  2  0  0  0  0
  9 12  2  0  0  0  0
 11 12  1  6  0  0  0
 11  6  1  0  0  0  0
 13 15  1  6  0  0  0
 13 16  1  0  0  0  0
 14 13  1  0  0  0  0
 14 18  1  0  0  0  0
 16 17  2  0  0  0  0
 17  1  1  0  0  0  0
 18 17  1  0  0  0  0
 19 20  1  0  0  0  0
 20 22  1  0  0  0  0
 22 23  1  0  0  0  0
 22 24  1  0  0  0  0
 23 21  2  0  0  0  0
 25 31  1  0  0  0  0
 25 27  1  1  0  0  0
 28 25  1  0  0  0  0
 29 31  1  0  0  0  0
 30 24  1  6  0  0  0
 30 28  1  0  0  0  0
 30 29  1  0  0  0  0
 31 26  2  0  0  0  0
M  END
>  <MODEL>
9

>  <REMARK>
 VINA RESULT:      -7.7      2.609      4.682
  Name = 
  7 active torsions:
  status: ('A' for Active; 'I' for Inactive)
    1  A    between atoms: C_3  and  N_9
    2  A    between atoms: C_3  and  C_22
    3  A    between atoms: N_4  and  C_12
    4  A    between atoms: N_9  and  C_15
    5  A    between atoms: C_12  and  C_20
    6  A    between atoms: C_12  and  C_27
    7  A    between atoms: C_15  and  C_20
                            x       y       z     vdW  Elec       q    Type
                         _______ _______ _______ _____ _____    ______ ____

>  <TORSDO>
F 7

$$$$
