=
 OpenBabel10272400473D

 25 28  0  0  0  0  0  0  0  0999 V2000
  187.1950  177.9520  145.9380 C   0  0  0  0  0  0  0  0  0  0  0  0
  188.5080  177.4770  145.8210 C   0  0  0  0  0  0  0  0  0  0  0  0
  187.5460  178.3530  148.3210 C   0  0  0  0  0  3  0  0  0  0  0  0
  186.1870  178.1250  145.0980 C   0  0  0  0  0  0  0  0  0  0  0  0
  183.7850  178.7010  143.8290 C   0  0  0  0  0  3  0  0  0  0  0  0
  188.8710  177.8740  148.2020 C   0  0  0  0  0  3  0  0  0  0  0  0
  185.1230  178.6500  145.8220 C   0  0  0  0  0  0  0  0  0  0  0  0
  183.9080  178.9460  145.2080 C   0  0  0  0  0  3  0  0  0  0  0  0
  190.5390  176.6460  145.3460 N   0  0  0  0  0  0  0  0  0  0  0  0
  190.5810  176.9190  146.5910 N   0  0  0  0  0  0  0  0  0  0  0  0
  184.8660  178.1730  143.0950 C   0  0  0  0  0  3  0  0  0  0  0  0
  186.7370  178.3780  147.1710 C   0  0  0  0  0  0  0  0  0  0  0  0
  185.3870  178.8270  147.0800 N   0  0  0  0  0  0  0  0  0  0  0  0
  189.2480  176.9910  144.8310 C   0  0  0  0  0  0  0  0  0  0  0  0
  186.0850  177.8800  143.7280 C   0  0  0  0  0  3  0  0  0  0  0  0
  189.3110  177.4500  146.9380 C   0  0  0  0  0  0  0  0  0  0  0  0
  188.8310  176.7330  143.4220 C   0  0  0  0  0  2  0  0  0  0  0  0
  189.9870  176.1590  142.6120 C   0  0  0  0  0  2  0  0  0  0  0  0
  190.1530  176.8860  141.2830 C   0  0  0  0  0  2  0  0  0  0  0  0
  189.0250  177.8810  141.0440 C   0  0  0  0  0  2  0  0  0  0  0  0
  187.4390  178.4060  139.1250 N   0  0  0  0  0  0  0  0  0  0  0  0
  187.1860  178.5100  137.7770 O   0  0  0  0  0  0  0  0  0  0  0  0
  186.5280  178.6570  139.9400 O   0  0  0  0  0  0  0  0  0  0  0  0
  188.7400  178.0260  139.5820 C   0  0  0  0  0  0  0  0  0  0  0  0
  189.6560  177.7910  138.7500 O   0  0  0  0  0  0  0  0  0  0  0  0
  1 12  1  0  0  0  0
  2  1  1  0  0  0  0
  2 16  1  0  0  0  0
  4  7  1  0  0  0  0
  4  1  2  0  0  0  0
  5  8  2  0  0  0  0
  6  3  1  0  0  0  0
  7 13  2  0  0  0  0
  8  7  1  0  0  0  0
  9 10  2  0  0  0  0
 10 16  1  0  0  0  0
 11 15  2  0  0  0  0
 11  5  1  0  0  0  0
 12  3  2  0  0  0  0
 13 12  1  0  0  0  0
 14  9  1  0  0  0  0
 14  2  2  0  0  0  0
 15  4  1  0  0  0  0
 16  6  2  0  0  0  0
 17 14  1  0  0  0  0
 18 17  1  0  0  0  0
 19 18  1  0  0  0  0
 20 19  1  0  0  0  0
 21 24  1  0  0  0  0
 21 23  2  0  0  0  0
 22 21  2  0  0  0  0
 24 20  1  0  0  0  0
 25 24  2  0  0  0  0
M  END
>  <MODEL>
1

>  <REMARK>
 VINA RESULT:     -10.2      0.000      0.000
  Name = 
  5 active torsions:
  status: ('A' for Active; 'I' for Inactive)
    1  A    between atoms: C_6  and  C_15
    2  A    between atoms: C_6  and  C_23
    3  A    between atoms: C_15  and  C_21
    4  A    between atoms: C_16  and  C_20
    5  A    between atoms: C_16  and  C_23
                            x       y       z     vdW  Elec       q    Type
                         _______ _______ _______ _____ _____    ______ ____

>  <TORSDO>
F 5

$$$$
=
 OpenBabel10272400473D

 25 28  0  0  0  0  0  0  0  0999 V2000
  187.1120  177.9860  145.8180 C   0  0  0  0  0  0  0  0  0  0  0  0
  188.4350  177.5570  145.6450 C   0  0  0  0  0  0  0  0  0  0  0  0
  187.5030  178.2410  148.2150 C   0  0  0  0  0  3  0  0  0  0  0  0
  186.0820  178.1850  145.0110 C   0  0  0  0  0  0  0  0  0  0  0  0
  183.6390  178.7740  143.8300 C   0  0  0  0  0  3  0  0  0  0  0  0
  188.8380  177.8090  148.0390 C   0  0  0  0  0  3  0  0  0  0  0  0
  185.0200  178.6310  145.7890 C   0  0  0  0  0  0  0  0  0  0  0  0
  183.7850  178.9320  145.2200 C   0  0  0  0  0  3  0  0  0  0  0  0
  190.4770  176.8160  145.0780 N   0  0  0  0  0  0  0  0  0  0  0  0
  190.5380  177.0090  146.3360 N   0  0  0  0  0  0  0  0  0  0  0  0
  184.7180  178.3260  143.0420 C   0  0  0  0  0  3  0  0  0  0  0  0
  186.6690  178.3180  147.0860 C   0  0  0  0  0  0  0  0  0  0  0  0
  185.3060  178.7340  147.0510 N   0  0  0  0  0  0  0  0  0  0  0  0
  189.1660  177.1580  144.6110 C   0  0  0  0  0  0  0  0  0  0  0  0
  185.9580  178.0270  143.6310 C   0  0  0  0  0  3  0  0  0  0  0  0
  189.2620  177.4800  146.7420 C   0  0  0  0  0  0  0  0  0  0  0  0
  188.7270  176.9810  143.1960 C   0  0  0  0  0  2  0  0  0  0  0  0
  189.8160  176.3060  142.3710 C   0  0  0  0  0  2  0  0  0  0  0  0
  190.3910  177.2520  141.3250 C   0  0  0  0  0  2  0  0  0  0  0  0
  189.8680  176.9300  139.9310 C   0  0  0  0  0  2  0  0  0  0  0  0
  189.3030  178.4300  137.9550 N   0  0  0  0  0  0  0  0  0  0  0  0
  188.6620  179.5300  137.4350 O   0  0  0  0  0  0  0  0  0  0  0  0
  190.0000  177.7160  137.2070 O   0  0  0  0  0  0  0  0  0  0  0  0
  189.1570  178.1060  139.3420 C   0  0  0  0  0  0  0  0  0  0  0  0
  188.4370  178.8260  140.0840 O   0  0  0  0  0  0  0  0  0  0  0  0
  1 12  1  0  0  0  0
  2  1  1  0  0  0  0
  2 16  1  0  0  0  0
  4  7  1  0  0  0  0
  4  1  2  0  0  0  0
  5  8  2  0  0  0  0
  6  3  1  0  0  0  0
  7 13  2  0  0  0  0
  8  7  1  0  0  0  0
  9 10  2  0  0  0  0
 10 16  1  0  0  0  0
 11 15  2  0  0  0  0
 11  5  1  0  0  0  0
 12  3  2  0  0  0  0
 13 12  1  0  0  0  0
 14  9  1  0  0  0  0
 14  2  2  0  0  0  0
 15  4  1  0  0  0  0
 16  6  2  0  0  0  0
 17 14  1  0  0  0  0
 18 17  1  0  0  0  0
 19 18  1  0  0  0  0
 20 19  1  0  0  0  0
 21 24  1  0  0  0  0
 22 21  2  0  0  0  0
 23 21  2  0  0  0  0
 24 20  1  0  0  0  0
 24 25  2  0  0  0  0
M  END
>  <MODEL>
2

>  <REMARK>
 VINA RESULT:     -10.2      0.849      1.218
  Name = 
  5 active torsions:
  status: ('A' for Active; 'I' for Inactive)
    1  A    between atoms: C_6  and  C_15
    2  A    between atoms: C_6  and  C_23
    3  A    between atoms: C_15  and  C_21
    4  A    between atoms: C_16  and  C_20
    5  A    between atoms: C_16  and  C_23
                            x       y       z     vdW  Elec       q    Type
                         _______ _______ _______ _____ _____    ______ ____

>  <TORSDO>
F 5

$$$$
=
 OpenBabel10272400473D

 25 28  0  0  0  0  0  0  0  0999 V2000
  186.9830  177.9720  145.6460 C   0  0  0  0  0  0  0  0  0  0  0  0
  188.2880  177.5290  145.3920 C   0  0  0  0  0  0  0  0  0  0  0  0
  187.5110  178.1830  148.0210 C   0  0  0  0  0  3  0  0  0  0  0  0
  185.9120  178.1970  144.9020 C   0  0  0  0  0  0  0  0  0  0  0  0
  183.4150  178.8360  143.8700 C   0  0  0  0  0  3  0  0  0  0  0  0
  188.8280  177.7370  147.7630 C   0  0  0  0  0  3  0  0  0  0  0  0
  184.9010  178.6430  145.7450 C   0  0  0  0  0  0  0  0  0  0  0  0
  183.6400  178.9700  145.2510 C   0  0  0  0  0  3  0  0  0  0  0  0
  190.2850  176.7720  144.6990 N   0  0  0  0  0  0  0  0  0  0  0  0
  190.4190  176.9440  145.9550 N   0  0  0  0  0  0  0  0  0  0  0  0
  184.4420  178.3870  143.0150 C   0  0  0  0  0  3  0  0  0  0  0  0
  186.6160  178.2890  146.9420 C   0  0  0  0  0  0  0  0  0  0  0  0
  185.2590  178.7220  146.9900 N   0  0  0  0  0  0  0  0  0  0  0  0
  188.9540  177.1380  144.3120 C   0  0  0  0  0  0  0  0  0  0  0  0
  185.7080  178.0630  143.5280 C   0  0  0  0  0  3  0  0  0  0  0  0
  189.1740  177.4240  146.4390 C   0  0  0  0  0  0  0  0  0  0  0  0
  188.4340  176.9900  142.9220 C   0  0  0  0  0  2  0  0  0  0  0  0
  189.0530  178.0310  141.9980 C   0  0  0  0  0  2  0  0  0  0  0  0
  188.1710  178.2950  140.7840 C   0  0  0  0  0  2  0  0  0  0  0  0
  188.9950  178.4160  139.5090 C   0  0  0  0  0  2  0  0  0  0  0  0
  190.5450  176.4500  139.0520 N   0  0  0  0  0  0  0  0  0  0  0  0
  190.7820  175.2230  138.4780 O   0  0  0  0  0  0  0  0  0  0  0  0
  191.4530  177.0090  139.7010 O   0  0  0  0  0  0  0  0  0  0  0  0
  189.2620  177.0700  138.9140 C   0  0  0  0  0  0  0  0  0  0  0  0
  188.3490  176.4880  138.2710 O   0  0  0  0  0  0  0  0  0  0  0  0
  1 12  1  0  0  0  0
  2  1  1  0  0  0  0
  2 16  1  0  0  0  0
  4  1  2  0  0  0  0
  4  7  1  0  0  0  0
  5  8  2  0  0  0  0
  6  3  1  0  0  0  0
  7 13  2  0  0  0  0
  8  7  1  0  0  0  0
  9 10  2  0  0  0  0
 10 16  1  0  0  0  0
 11 15  2  0  0  0  0
 11  5  1  0  0  0  0
 12 13  1  0  0  0  0
 12  3  2  0  0  0  0
 14  9  1  0  0  0  0
 14  2  2  0  0  0  0
 15  4  1  0  0  0  0
 16  6  2  0  0  0  0
 17 14  1  0  0  0  0
 18 17  1  0  0  0  0
 19 18  1  0  0  0  0
 20 19  1  0  0  0  0
 21 23  2  0  0  0  0
 22 21  2  0  0  0  0
 24 21  1  0  0  0  0
 24 20  1  0  0  0  0
 25 24  2  0  0  0  0
M  END
>  <MODEL>
3

>  <REMARK>
 VINA RESULT:     -10.1      1.337      1.868
  Name = 
  5 active torsions:
  status: ('A' for Active; 'I' for Inactive)
    1  A    between atoms: C_6  and  C_15
    2  A    between atoms: C_6  and  C_23
    3  A    between atoms: C_15  and  C_21
    4  A    between atoms: C_16  and  C_20
    5  A    between atoms: C_16  and  C_23
                            x       y       z     vdW  Elec       q    Type
                         _______ _______ _______ _____ _____    ______ ____

>  <TORSDO>
F 5

$$$$
=
 OpenBabel10272400473D

 25 28  0  0  0  0  0  0  0  0999 V2000
  187.0370  177.9810  145.6990 C   0  0  0  0  0  0  0  0  0  0  0  0
  188.3490  177.5400  145.4810 C   0  0  0  0  0  0  0  0  0  0  0  0
  187.5090  178.2240  148.0830 C   0  0  0  0  0  3  0  0  0  0  0  0
  185.9830  178.1930  144.9270 C   0  0  0  0  0  0  0  0  0  0  0  0
  183.5090  178.8110  143.8300 C   0  0  0  0  0  3  0  0  0  0  0  0
  188.8330  177.7790  147.8610 C   0  0  0  0  0  3  0  0  0  0  0  0
  184.9520  178.6470  145.7420 C   0  0  0  0  0  0  0  0  0  0  0  0
  183.7010  178.9620  145.2140 C   0  0  0  0  0  3  0  0  0  0  0  0
  190.3640  176.7820  144.8440 N   0  0  0  0  0  0  0  0  0  0  0  0
  190.4680  176.9690  146.1000 N   0  0  0  0  0  0  0  0  0  0  0  0
  184.5570  178.3550  143.0050 C   0  0  0  0  0  3  0  0  0  0  0  0
  186.6400  178.3130  146.9820 C   0  0  0  0  0  0  0  0  0  0  0  0
  185.2800  178.7420  146.9930 N   0  0  0  0  0  0  0  0  0  0  0  0
  189.0420  177.1370  144.4220 C   0  0  0  0  0  0  0  0  0  0  0  0
  185.8120  178.0410  143.5510 C   0  0  0  0  0  3  0  0  0  0  0  0
  189.2110  177.4510  146.5490 C   0  0  0  0  0  0  0  0  0  0  0  0
  188.5550  176.9700  143.0220 C   0  0  0  0  0  2  0  0  0  0  0  0
  189.1220  178.0570  142.1170 C   0  0  0  0  0  2  0  0  0  0  0  0
  188.3470  178.1550  140.8090 C   0  0  0  0  0  2  0  0  0  0  0  0
  189.1940  177.7120  139.6220 C   0  0  0  0  0  2  0  0  0  0  0  0
  187.8990  177.5620  137.4370 N   0  0  0  0  0  0  0  0  0  0  0  0
  187.4690  178.1300  136.2610 O   0  0  0  0  0  0  0  0  0  0  0  0
  187.5820  176.3840  137.7010 O   0  0  0  0  0  0  0  0  0  0  0  0
  188.6940  178.3230  138.3510 C   0  0  0  0  0  0  0  0  0  0  0  0
  188.9960  179.5160  138.0810 O   0  0  0  0  0  0  0  0  0  0  0  0
  1 12  1  0  0  0  0
  2  1  1  0  0  0  0
  2 16  1  0  0  0  0
  4  1  2  0  0  0  0
  4  7  1  0  0  0  0
  5  8  2  0  0  0  0
  6  3  1  0  0  0  0
  7 13  2  0  0  0  0
  8  7  1  0  0  0  0
  9 10  2  0  0  0  0
 10 16  1  0  0  0  0
 11 15  2  0  0  0  0
 11  5  1  0  0  0  0
 12 13  1  0  0  0  0
 12  3  2  0  0  0  0
 14  9  1  0  0  0  0
 14  2  2  0  0  0  0
 15  4  1  0  0  0  0
 16  6  2  0  0  0  0
 17 14  1  0  0  0  0
 18 17  1  0  0  0  0
 19 18  1  0  0  0  0
 20 19  1  0  0  0  0
 21 23  2  0  0  0  0
 21 24  1  0  0  0  0
 22 21  2  0  0  0  0
 24 20  1  0  0  0  0
 25 24  2  0  0  0  0
M  END
>  <MODEL>
4

>  <REMARK>
 VINA RESULT:     -10.0      1.088      1.218
  Name = 
  5 active torsions:
  status: ('A' for Active; 'I' for Inactive)
    1  A    between atoms: C_6  and  C_15
    2  A    between atoms: C_6  and  C_23
    3  A    between atoms: C_15  and  C_21
    4  A    between atoms: C_16  and  C_20
    5  A    between atoms: C_16  and  C_23
                            x       y       z     vdW  Elec       q    Type
                         _______ _______ _______ _____ _____    ______ ____

>  <TORSDO>
F 5

$$$$
=
 OpenBabel10272400473D

 25 28  0  0  0  0  0  0  0  0999 V2000
  187.7550  177.6950  145.5210 C   0  0  0  0  0  0  0  0  0  0  0  0
  186.8110  177.8690  144.5010 C   0  0  0  0  0  0  0  0  0  0  0  0
  186.0930  178.3660  147.1800 C   0  0  0  0  0  3  0  0  0  0  0  0
  189.0210  177.3110  145.5670 C   0  0  0  0  0  0  0  0  0  0  0  0
  191.6080  176.5820  146.2620 C   0  0  0  0  0  3  0  0  0  0  0  0
  185.1410  178.5410  146.1500 C   0  0  0  0  0  3  0  0  0  0  0  0
  189.4170  177.3310  146.8990 C   0  0  0  0  0  0  0  0  0  0  0  0
  190.7100  176.9700  147.2720 C   0  0  0  0  0  3  0  0  0  0  0  0
  185.5260  178.0900  142.6720 N   0  0  0  0  0  0  0  0  0  0  0  0
  184.7660  178.4050  143.6450 N   0  0  0  0  0  0  0  0  0  0  0  0
  191.2020  176.5580  144.9120 C   0  0  0  0  0  3  0  0  0  0  0  0
  187.3880  177.9440  146.8320 C   0  0  0  0  0  0  0  0  0  0  0  0
  188.4810  177.7040  147.7160 N   0  0  0  0  0  0  0  0  0  0  0  0
  186.8210  177.7420  143.1790 C   0  0  0  0  0  0  0  0  0  0  0  0
  189.8950  176.9240  144.5520 C   0  0  0  0  0  3  0  0  0  0  0  0
  185.5390  178.2800  144.8290 C   0  0  0  0  0  0  0  0  0  0  0  0
  187.9770  177.3930  142.3040 C   0  0  0  0  0  2  0  0  0  0  0  0
  188.3320  178.5560  141.3850 C   0  0  0  0  0  2  0  0  0  0  0  0
  189.1040  178.0840  140.1590 C   0  0  0  0  0  2  0  0  0  0  0  0
  189.9540  176.8580  140.4700 C   0  0  0  0  0  2  0  0  0  0  0  0
  192.3050  177.0660  139.5200 N   0  0  0  0  0  0  0  0  0  0  0  0
  193.6330  177.3880  139.6760 O   0  0  0  0  0  0  0  0  0  0  0  0
  191.9020  176.6410  138.4180 O   0  0  0  0  0  0  0  0  0  0  0  0
  191.3960  177.2290  140.6130 C   0  0  0  0  0  0  0  0  0  0  0  0
  191.8110  177.6740  141.7160 O   0  0  0  0  0  0  0  0  0  0  0  0
  1  4  1  0  0  0  0
  1 12  1  0  0  0  0
  2 16  1  0  0  0  0
  2  1  2  0  0  0  0
  4  7  1  0  0  0  0
  5  8  1  0  0  0  0
  6  3  2  0  0  0  0
  7  8  2  0  0  0  0
  7 13  1  0  0  0  0
  9 14  2  0  0  0  0
  9 10  1  0  0  0  0
 10 16  2  0  0  0  0
 11  5  2  0  0  0  0
 12  3  1  0  0  0  0
 12 13  2  0  0  0  0
 14  2  1  0  0  0  0
 15 11  1  0  0  0  0
 15  4  2  0  0  0  0
 16  6  1  0  0  0  0
 17 14  1  0  0  0  0
 18 17  1  0  0  0  0
 19 20  1  0  0  0  0
 19 18  1  0  0  0  0
 20 24  1  0  0  0  0
 21 22  2  0  0  0  0
 21 24  1  0  0  0  0
 23 21  2  0  0  0  0
 24 25  2  0  0  0  0
M  END
>  <MODEL>
5

>  <REMARK>
 VINA RESULT:      -9.6      2.338      4.531
  Name = 
  5 active torsions:
  status: ('A' for Active; 'I' for Inactive)
    1  A    between atoms: C_6  and  C_15
    2  A    between atoms: C_6  and  C_23
    3  A    between atoms: C_15  and  C_21
    4  A    between atoms: C_16  and  C_20
    5  A    between atoms: C_16  and  C_23
                            x       y       z     vdW  Elec       q    Type
                         _______ _______ _______ _____ _____    ______ ____

>  <TORSDO>
F 5

$$$$
=
 OpenBabel10272400473D

 25 28  0  0  0  0  0  0  0  0999 V2000
  188.3450  177.5960  145.7160 C   0  0  0  0  0  0  0  0  0  0  0  0
  187.0680  178.0400  146.0810 C   0  0  0  0  0  0  0  0  0  0  0  0
  189.1150  177.9070  148.0120 C   0  0  0  0  0  3  0  0  0  0  0  0
  188.9000  177.1700  144.5920 C   0  0  0  0  0  0  0  0  0  0  0  0
  190.5590  176.2090  142.5840 C   0  0  0  0  0  3  0  0  0  0  0  0
  187.8250  178.3550  148.3800 C   0  0  0  0  0  3  0  0  0  0  0  0
  190.2260  176.8580  144.8720 C   0  0  0  0  0  0  0  0  0  0  0  0
  191.0780  176.3750  143.8800 C   0  0  0  0  0  3  0  0  0  0  0  0
  184.9510  178.7340  146.3690 N   0  0  0  0  0  0  0  0  0  0  0  0
  185.4870  178.8330  147.5210 N   0  0  0  0  0  0  0  0  0  0  0  0
  189.2140  176.5210  142.3040 C   0  0  0  0  0  3  0  0  0  0  0  0
  189.3400  177.5370  146.6750 C   0  0  0  0  0  0  0  0  0  0  0  0
  190.5580  177.0570  146.1100 N   0  0  0  0  0  0  0  0  0  0  0  0
  185.9200  178.2320  145.4400 C   0  0  0  0  0  0  0  0  0  0  0  0
  188.3670  177.0060  143.3140 C   0  0  0  0  0  3  0  0  0  0  0  0
  186.8330  178.4030  147.3870 C   0  0  0  0  0  0  0  0  0  0  0  0
  185.6490  178.0630  143.9830 C   0  0  0  0  0  2  0  0  0  0  0  0
  184.2040  178.4200  143.6560 C   0  0  0  0  0  2  0  0  0  0  0  0
  184.0380  178.7860  142.1860 C   0  0  0  0  0  2  0  0  0  0  0  0
  185.3840  179.0180  141.5110 C   0  0  0  0  0  2  0  0  0  0  0  0
  186.4620  178.5040  139.2640 N   0  0  0  0  0  0  0  0  0  0  0  0
  186.3620  178.3190  137.9060 O   0  0  0  0  0  0  0  0  0  0  0  0
  187.5780  178.4120  139.8150 O   0  0  0  0  0  0  0  0  0  0  0  0
  185.2910  178.7870  140.0370 C   0  0  0  0  0  0  0  0  0  0  0  0
  184.1680  178.8620  139.4720 O   0  0  0  0  0  0  0  0  0  0  0  0
  1  2  1  0  0  0  0
  1 12  1  0  0  0  0
  2 16  1  0  0  0  0
  3  6  1  0  0  0  0
  4  7  1  0  0  0  0
  4  1  2  0  0  0  0
  5  8  2  0  0  0  0
  7 13  2  0  0  0  0
  8  7  1  0  0  0  0
  9 10  2  0  0  0  0
 11  5  1  0  0  0  0
 11 15  2  0  0  0  0
 12  3  2  0  0  0  0
 13 12  1  0  0  0  0
 14  2  2  0  0  0  0
 14  9  1  0  0  0  0
 15  4  1  0  0  0  0
 16 10  1  0  0  0  0
 16  6  2  0  0  0  0
 17 14  1  0  0  0  0
 18 17  1  0  0  0  0
 19 18  1  0  0  0  0
 20 19  1  0  0  0  0
 21 23  2  0  0  0  0
 21 24  1  0  0  0  0
 22 21  2  0  0  0  0
 24 20  1  0  0  0  0
 25 24  2  0  0  0  0
M  END
>  <MODEL>
6

>  <REMARK>
 VINA RESULT:      -9.6      1.130      4.337
  Name = 
  5 active torsions:
  status: ('A' for Active; 'I' for Inactive)
    1  A    between atoms: C_6  and  C_15
    2  A    between atoms: C_6  and  C_23
    3  A    between atoms: C_15  and  C_21
    4  A    between atoms: C_16  and  C_20
    5  A    between atoms: C_16  and  C_23
                            x       y       z     vdW  Elec       q    Type
                         _______ _______ _______ _____ _____    ______ ____

>  <TORSDO>
F 5

$$$$
=
 OpenBabel10272400473D

 25 28  0  0  0  0  0  0  0  0999 V2000
  188.2680  177.5240  145.7070 C   0  0  0  0  0  0  0  0  0  0  0  0
  189.4210  177.0790  145.0460 C   0  0  0  0  0  0  0  0  0  0  0  0
  189.4480  177.4220  147.8420 C   0  0  0  0  0  3  0  0  0  0  0  0
  187.0490  177.8710  145.3270 C   0  0  0  0  0  0  0  0  0  0  0  0
  184.4090  178.7060  145.1230 C   0  0  0  0  0  3  0  0  0  0  0  0
  190.6110  176.9730  147.1740 C   0  0  0  0  0  3  0  0  0  0  0  0
  186.3430  178.2380  146.4670 C   0  0  0  0  0  0  0  0  0  0  0  0
  185.0170  178.6600  146.3900 C   0  0  0  0  0  3  0  0  0  0  0  0
  191.0940  176.3570  143.7340 N   0  0  0  0  0  0  0  0  0  0  0  0
  191.5830  176.3660  144.9110 N   0  0  0  0  0  0  0  0  0  0  0  0
  185.1270  178.3370  143.9680 C   0  0  0  0  0  3  0  0  0  0  0  0
  188.2980  177.6870  147.0800 C   0  0  0  0  0  0  0  0  0  0  0  0
  187.0370  178.1500  147.5600 N   0  0  0  0  0  0  0  0  0  0  0  0
  189.7350  176.8060  143.7840 C   0  0  0  0  0  0  0  0  0  0  0  0
  186.4630  177.9150  144.0620 C   0  0  0  0  0  3  0  0  0  0  0  0
  190.5550  176.8180  145.7790 C   0  0  0  0  0  0  0  0  0  0  0  0
  188.8400  176.8480  142.5910 C   0  0  0  0  0  2  0  0  0  0  0  0
  189.2320  177.9880  141.6590 C   0  0  0  0  0  2  0  0  0  0  0  0
  188.2900  178.0820  140.4650 C   0  0  0  0  0  2  0  0  0  0  0  0
  189.0570  178.2290  139.1570 C   0  0  0  0  0  2  0  0  0  0  0  0
  189.7210  175.9410  138.2630 N   0  0  0  0  0  0  0  0  0  0  0  0
  189.5040  174.8800  137.4170 O   0  0  0  0  0  0  0  0  0  0  0  0
  190.7020  175.9190  139.0340 O   0  0  0  0  0  0  0  0  0  0  0  0
  188.8210  177.0540  138.2630 C   0  0  0  0  0  0  0  0  0  0  0  0
  187.8250  177.0570  137.4910 O   0  0  0  0  0  0  0  0  0  0  0  0
  1 12  1  0  0  0  0
  2  1  1  0  0  0  0
  2 16  1  0  0  0  0
  4  1  2  0  0  0  0
  4  7  1  0  0  0  0
  5  8  2  0  0  0  0
  6  3  1  0  0  0  0
  7 13  2  0  0  0  0
  8  7  1  0  0  0  0
  9 14  1  0  0  0  0
  9 10  2  0  0  0  0
 10 16  1  0  0  0  0
 11 15  2  0  0  0  0
 11  5  1  0  0  0  0
 12 13  1  0  0  0  0
 12  3  2  0  0  0  0
 14  2  2  0  0  0  0
 15  4  1  0  0  0  0
 16  6  2  0  0  0  0
 17 14  1  0  0  0  0
 18 17  1  0  0  0  0
 19 18  1  0  0  0  0
 20 19  1  0  0  0  0
 21 23  2  0  0  0  0
 22 21  2  0  0  0  0
 24 21  1  0  0  0  0
 24 20  1  0  0  0  0
 25 24  2  0  0  0  0
M  END
>  <MODEL>
7

>  <REMARK>
 VINA RESULT:      -9.4      1.466      2.181
  Name = 
  5 active torsions:
  status: ('A' for Active; 'I' for Inactive)
    1  A    between atoms: C_6  and  C_15
    2  A    between atoms: C_6  and  C_23
    3  A    between atoms: C_15  and  C_21
    4  A    between atoms: C_16  and  C_20
    5  A    between atoms: C_16  and  C_23
                            x       y       z     vdW  Elec       q    Type
                         _______ _______ _______ _____ _____    ______ ____

>  <TORSDO>
F 5

$$$$
=
 OpenBabel10272400473D

 25 28  0  0  0  0  0  0  0  0999 V2000
  188.3020  177.5100  145.7280 C   0  0  0  0  0  0  0  0  0  0  0  0
  189.4200  177.0200  145.0410 C   0  0  0  0  0  0  0  0  0  0  0  0
  189.5450  177.4180  147.8280 C   0  0  0  0  0  3  0  0  0  0  0  0
  187.0810  177.8820  145.3780 C   0  0  0  0  0  0  0  0  0  0  0  0
  184.4590  178.7850  145.2390 C   0  0  0  0  0  3  0  0  0  0  0  0
  190.6730  176.9250  147.1330 C   0  0  0  0  0  3  0  0  0  0  0  0
  186.4210  178.2910  146.5320 C   0  0  0  0  0  0  0  0  0  0  0  0
  185.1050  178.7480  146.4870 C   0  0  0  0  0  3  0  0  0  0  0  0
  191.0320  176.2270  143.6940 N   0  0  0  0  0  0  0  0  0  0  0  0
  191.5570  176.2460  144.8550 N   0  0  0  0  0  0  0  0  0  0  0  0
  185.1300  178.3740  144.0700 C   0  0  0  0  0  3  0  0  0  0  0  0
  188.3780  177.7000  147.0960 C   0  0  0  0  0  0  0  0  0  0  0  0
  187.1460  178.2060  147.6040 N   0  0  0  0  0  0  0  0  0  0  0  0
  189.6870  176.7140  143.7760 C   0  0  0  0  0  0  0  0  0  0  0  0
  186.4570  177.9170  144.1310 C   0  0  0  0  0  3  0  0  0  0  0  0
  190.5700  176.7430  145.7450 C   0  0  0  0  0  0  0  0  0  0  0  0
  188.7570  176.7560  142.6110 C   0  0  0  0  0  2  0  0  0  0  0  0
  189.1530  177.8630  141.6420 C   0  0  0  0  0  2  0  0  0  0  0  0
  189.9970  177.3250  140.4930 C   0  0  0  0  0  2  0  0  0  0  0  0
  189.6660  178.0230  139.1800 C   0  0  0  0  0  2  0  0  0  0  0  0
  187.2730  177.6390  138.4050 N   0  0  0  0  0  0  0  0  0  0  0  0
  186.3470  176.9010  137.7070 O   0  0  0  0  0  0  0  0  0  0  0  0
  186.9030  178.6540  139.0290 O   0  0  0  0  0  0  0  0  0  0  0  0
  188.6490  177.2480  138.4030 C   0  0  0  0  0  0  0  0  0  0  0  0
  189.0130  176.2300  137.7570 O   0  0  0  0  0  0  0  0  0  0  0  0
  1 12  1  0  0  0  0
  2  1  1  0  0  0  0
  2 16  1  0  0  0  0
  4  1  2  0  0  0  0
  4  7  1  0  0  0  0
  5  8  2  0  0  0  0
  6  3  1  0  0  0  0
  7 13  2  0  0  0  0
  8  7  1  0  0  0  0
  9 14  1  0  0  0  0
  9 10  2  0  0  0  0
 10 16  1  0  0  0  0
 11 15  2  0  0  0  0
 11  5  1  0  0  0  0
 12 13  1  0  0  0  0
 12  3  2  0  0  0  0
 14  2  2  0  0  0  0
 15  4  1  0  0  0  0
 16  6  2  0  0  0  0
 17 14  1  0  0  0  0
 18 17  1  0  0  0  0
 19 18  1  0  0  0  0
 20 19  1  0  0  0  0
 21 23  2  0  0  0  0
 22 21  2  0  0  0  0
 24 21  1  0  0  0  0
 24 20  1  0  0  0  0
 25 24  2  0  0  0  0
M  END
>  <MODEL>
8

>  <REMARK>
 VINA RESULT:      -9.3      1.150      1.603
  Name = 
  5 active torsions:
  status: ('A' for Active; 'I' for Inactive)
    1  A    between atoms: C_6  and  C_15
    2  A    between atoms: C_6  and  C_23
    3  A    between atoms: C_15  and  C_21
    4  A    between atoms: C_16  and  C_20
    5  A    between atoms: C_16  and  C_23
                            x       y       z     vdW  Elec       q    Type
                         _______ _______ _______ _____ _____    ______ ____

>  <TORSDO>
F 5

$$$$
=
 OpenBabel10272400473D

 25 28  0  0  0  0  0  0  0  0999 V2000
  185.7620  178.4740  144.7180 C   0  0  0  0  0  0  0  0  0  0  0  0
  185.5820  178.5650  143.3310 C   0  0  0  0  0  0  0  0  0  0  0  0
  183.3980  178.9780  145.0630 C   0  0  0  0  0  3  0  0  0  0  0  0
  186.7880  178.2090  145.5110 C   0  0  0  0  0  0  0  0  0  0  0  0
  188.5290  177.7190  147.6180 C   0  0  0  0  0  3  0  0  0  0  0  0
  183.2170  179.0690  143.6640 C   0  0  0  0  0  3  0  0  0  0  0  0
  186.3290  178.2580  146.8220 C   0  0  0  0  0  0  0  0  0  0  0  0
  187.1830  178.0170  147.8950 C   0  0  0  0  0  3  0  0  0  0  0  0
  185.5960  178.6750  141.0880 N   0  0  0  0  0  0  0  0  0  0  0  0
  184.3880  178.9130  141.4200 N   0  0  0  0  0  0  0  0  0  0  0  0
  188.9920  177.6650  146.2880 C   0  0  0  0  0  3  0  0  0  0  0  0
  184.6800  178.6800  145.5550 C   0  0  0  0  0  0  0  0  0  0  0  0
  185.0660  178.5380  146.9210 N   0  0  0  0  0  0  0  0  0  0  0  0
  186.3730  178.4460  142.2710 C   0  0  0  0  0  0  0  0  0  0  0  0
  188.1180  177.9100  145.2160 C   0  0  0  0  0  3  0  0  0  0  0  0
  184.3310  178.8530  142.8360 C   0  0  0  0  0  0  0  0  0  0  0  0
  187.8460  178.2110  142.2510 C   0  0  0  0  0  2  0  0  0  0  0  0
  188.2430  177.3620  141.0510 C   0  0  0  0  0  2  0  0  0  0  0  0
  189.5530  177.8410  140.4370 C   0  0  0  0  0  2  0  0  0  0  0  0
  190.6900  176.8660  140.7110 C   0  0  0  0  0  2  0  0  0  0  0  0
  190.9910  176.1160  143.1240 N   0  0  0  0  0  0  0  0  0  0  0  0
  191.4890  176.3270  144.3880 O   0  0  0  0  0  0  0  0  0  0  0  0
  190.3270  175.0850  142.8910 O   0  0  0  0  0  0  0  0  0  0  0  0
  191.2470  177.0660  142.0850 C   0  0  0  0  0  0  0  0  0  0  0  0
  191.9320  178.0950  142.3280 O   0  0  0  0  0  0  0  0  0  0  0  0
  1  4  1  0  0  0  0
  1 12  1  0  0  0  0
  2  1  2  0  0  0  0
  3 12  1  0  0  0  0
  4  7  1  0  0  0  0
  5  8  1  0  0  0  0
  6  3  2  0  0  0  0
  7 13  1  0  0  0  0
  7  8  2  0  0  0  0
  9 10  1  0  0  0  0
  9 14  2  0  0  0  0
 10 16  2  0  0  0  0
 11  5  2  0  0  0  0
 12 13  2  0  0  0  0
 14  2  1  0  0  0  0
 15  4  2  0  0  0  0
 15 11  1  0  0  0  0
 16  2  1  0  0  0  0
 16  6  1  0  0  0  0
 17 14  1  0  0  0  0
 18 17  1  0  0  0  0
 19 20  1  0  0  0  0
 19 18  1  0  0  0  0
 20 24  1  0  0  0  0
 21 22  2  0  0  0  0
 23 21  2  0  0  0  0
 24 25  2  0  0  0  0
 24 21  1  0  0  0  0
M  END
>  <MODEL>
9

>  <REMARK>
 VINA RESULT:      -9.3      2.370      4.752
  Name = 
  5 active torsions:
  status: ('A' for Active; 'I' for Inactive)
    1  A    between atoms: C_6  and  C_15
    2  A    between atoms: C_6  and  C_23
    3  A    between atoms: C_15  and  C_21
    4  A    between atoms: C_16  and  C_20
    5  A    between atoms: C_16  and  C_23
                            x       y       z     vdW  Elec       q    Type
                         _______ _______ _______ _____ _____    ______ ____

>  <TORSDO>
F 5

$$$$
