=
 OpenBabel10272401013D

 27 29  0  0  1  0  0  0  0  0999 V2000
  186.2350  178.7390  141.5160 C   0  0  2  0  0  3  0  0  0  0  0  0
  182.1780  177.4410  140.4280 N   0  0  0  0  0  2  0  0  0  0  0  0
  181.1340  177.8920  138.3470 N   0  0  0  0  0  1  0  0  0  0  0  0
  184.3540  178.8870  143.1530 C   0  0  0  0  0  0  0  0  0  0  0  0
  185.5520  179.0670  140.2000 C   0  0  0  0  0  2  0  0  0  0  0  0
  183.8160  177.7960  138.3710 S   0  0  0  0  0  0  0  0  0  0  0  0
  185.5820  179.5510  142.6210 C   0  0  0  0  0  2  0  0  0  0  0  0
  182.2180  177.1830  139.0010 C   0  0  1  0  0  3  0  0  0  0  0  0
  183.3330  178.0840  140.9410 C   0  0  0  0  0  0  0  0  0  0  0  0
  184.2650  178.3300  140.0180 C   0  0  0  0  0  0  0  0  0  0  0  0
  183.4050  178.3120  142.4040 C   0  0  0  0  0  3  0  0  0  0  0  0
  184.1490  178.9060  144.6320 C   0  0  0  0  0  2  0  0  0  0  0  0
  187.6830  177.6570  146.7180 C   0  0  0  0  0  3  0  0  0  0  0  0
  185.3870  178.4850  145.3500 C   0  0  0  0  0  0  0  0  0  0  0  0
  186.2660  177.5690  144.7570 C   0  0  0  0  0  3  0  0  0  0  0  0
  187.4140  177.1580  145.4410 C   0  0  0  0  0  3  0  0  0  0  0  0
  186.8040  178.5670  147.3150 C   0  0  0  0  0  3  0  0  0  0  0  0
  185.6560  178.9780  146.6320 C   0  0  0  0  0  3  0  0  0  0  0  0
  187.6400  178.9030  141.4640 O   0  0  0  0  0  0  0  0  0  0  0  0
  189.0260  177.8670  139.8010 C   0  0  0  0  0  1  0  0  0  0  0  0
  188.2590  177.6910  141.1010 C   0  0  1  0  0  3  0  0  0  0  0  0
  189.1740  177.1790  142.2140 C   0  0  0  0  0  2  0  0  0  0  0  0
  189.8800  178.2950  142.9770 C   0  0  0  0  0  2  0  0  0  0  0  0
  191.2140  177.8100  143.5240 C   0  0  0  0  0  2  0  0  0  0  0  0
  191.0240  176.5870  144.4050 C   0  0  2  0  0  3  0  0  0  0  0  0
  191.3600  176.9190  145.8470 C   0  0  0  0  0  1  0  0  0  0  0  0
  191.8590  175.5640  143.9630 O   0  0  0  0  0  1  0  0  0  0  0  0
  1 19  1  6  0  0  0
  1  7  1  0  0  0  0
  2  9  1  0  0  0  0
  4 12  1  0  0  0  0
  5  1  1  0  0  0  0
  6  8  1  0  0  0  0
  6 10  1  0  0  0  0
  7  4  1  0  0  0  0
  8  3  1  6  0  0  0
  8  2  1  0  0  0  0
  9 11  1  0  0  0  0
 10  5  1  0  0  0  0
 10  9  2  0  0  0  0
 11  4  2  0  0  0  0
 12 14  1  0  0  0  0
 13 17  1  0  0  0  0
 14 18  1  0  0  0  0
 15 14  2  0  0  0  0
 15 16  1  0  0  0  0
 16 13  2  0  0  0  0
 18 17  2  0  0  0  0
 21 20  1  6  0  0  0
 21 19  1  0  0  0  0
 21 22  1  0  0  0  0
 22 23  1  0  0  0  0
 23 24  1  0  0  0  0
 24 25  1  0  0  0  0
 25 26  1  1  0  0  0
 27 25  1  0  0  0  0
M  END
>  <MODEL>
1

>  <REMARK>
 VINA RESULT:      -7.6      0.000      0.000
  Name = 
  8 active torsions:
  status: ('A' for Active; 'I' for Inactive)
    1  A    between atoms: C_1  and  C_24
    2  A    between atoms: C_2  and  C_6
    3  A    between atoms: C_2  and  C_9
    4  A    between atoms: C_3  and  O_26
    5  A    between atoms: C_13  and  C_20
    6  A    between atoms: C_13  and  C_22
    7  A    between atoms: C_20  and  O_26
    8  A    between atoms: C_22  and  C_24
                            x       y       z     vdW  Elec       q    Type
                         _______ _______ _______ _____ _____    ______ ____

>  <TORSDO>
F 8

$$$$
=
 OpenBabel10272401013D

 27 29  0  0  1  0  0  0  0  0999 V2000
  189.5160  176.9650  142.7100 C   0  0  2  0  0  3  0  0  0  0  0  0
  185.8590  179.2450  141.8440 N   0  0  0  0  0  0  0  0  0  0  0  0
  183.7300  178.7800  142.7790 N   0  0  0  0  0  1  0  0  0  0  0  0
  188.9800  177.7030  140.3850 C   0  0  0  0  0  0  0  0  0  0  0  0
  188.1450  176.6370  143.2750 C   0  0  0  0  0  2  0  0  0  0  0  0
  185.8780  178.0390  144.2070 S   0  0  0  0  0  0  0  0  0  0  0  0
  189.5330  176.6060  141.2340 C   0  0  0  0  0  2  0  0  0  0  0  0
  185.0820  179.2200  143.0690 C   0  0  1  0  0  3  0  0  0  0  0  0
  186.9790  178.3770  141.8420 C   0  0  0  0  0  0  0  0  0  0  0  0
  187.1300  177.6930  142.9780 C   0  0  2  0  0  3  0  0  0  0  0  0
  187.8710  178.4010  140.6580 C   0  0  0  0  0  3  0  0  0  0  0  0
  189.6930  178.0110  139.1090 C   0  0  0  0  0  2  0  0  0  0  0  0
  187.2370  176.9990  135.7400 C   0  0  0  0  0  3  0  0  0  0  0  0
  188.8530  177.6580  137.9270 C   0  0  0  0  0  0  0  0  0  0  0  0
  188.3560  178.6660  137.0930 C   0  0  0  0  0  3  0  0  0  0  0  0
  187.5500  178.3360  135.9980 C   0  0  0  0  0  3  0  0  0  0  0  0
  187.7270  175.9900  136.5760 C   0  0  0  0  0  3  0  0  0  0  0  0
  188.5330  176.3200  137.6700 C   0  0  0  0  0  3  0  0  0  0  0  0
  190.5710  176.3640  143.4390 O   0  0  0  0  0  0  0  0  0  0  0  0
  190.8140  178.7290  143.7630 C   0  0  0  0  0  1  0  0  0  0  0  0
  191.2710  177.3400  144.1750 C   0  0  1  0  0  3  0  0  0  0  0  0
  191.1020  177.1290  145.6800 C   0  0  0  0  0  2  0  0  0  0  0  0
  189.8920  177.8540  146.2600 C   0  0  0  0  0  2  0  0  0  0  0  0
  188.9730  176.8770  146.9750 C   0  0  0  0  0  2  0  0  0  0  0  0
  188.3070  177.5380  148.1710 C   0  0  2  0  0  3  0  0  0  0  0  0
  187.0910  178.3290  147.7260 C   0  0  0  0  0  1  0  0  0  0  0  0
  189.2130  178.3970  148.7880 O   0  0  0  0  0  1  0  0  0  0  0  0
  1  5  1  0  0  0  0
  1 19  1  1  0  0  0
  2  8  1  0  0  0  0
  4 11  2  0  0  0  0
  4  7  1  0  0  0  0
  7  1  1  0  0  0  0
  8  3  1  6  0  0  0
  8  6  1  0  0  0  0
  9  2  2  0  0  0  0
  9 10  1  0  0  0  0
 10  5  1  6  0  0  0
 10  6  1  0  0  0  0
 11  9  1  0  0  0  0
 12  4  1  0  0  0  0
 13 16  2  0  0  0  0
 13 17  1  0  0  0  0
 14 12  1  0  0  0  0
 15 14  2  0  0  0  0
 16 15  1  0  0  0  0
 17 18  2  0  0  0  0
 18 14  1  0  0  0  0
 19 21  1  0  0  0  0
 21 20  1  6  0  0  0
 21 22  1  0  0  0  0
 22 23  1  0  0  0  0
 23 24  1  0  0  0  0
 24 25  1  0  0  0  0
 25 26  1  6  0  0  0
 25 27  1  0  0  0  0
M  END
>  <MODEL>
2

>  <REMARK>
 VINA RESULT:      -7.5      2.734      6.303
  Name = 
  8 active torsions:
  status: ('A' for Active; 'I' for Inactive)
    1  A    between atoms: C_1  and  C_24
    2  A    between atoms: C_2  and  C_6
    3  A    between atoms: C_2  and  C_9
    4  A    between atoms: C_3  and  O_26
    5  A    between atoms: C_13  and  C_20
    6  A    between atoms: C_13  and  C_22
    7  A    between atoms: C_20  and  O_26
    8  A    between atoms: C_22  and  C_24
                            x       y       z     vdW  Elec       q    Type
                         _______ _______ _______ _____ _____    ______ ____

>  <TORSDO>
F 8

$$$$
=
 OpenBabel10272401013D

 27 29  0  0  1  0  0  0  0  0999 V2000
  189.6270  176.9270  142.6800 C   0  0  2  0  0  3  0  0  0  0  0  0
  186.0070  179.2060  141.6670 N   0  0  0  0  0  0  0  0  0  0  0  0
  183.8450  178.7530  142.5310 N   0  0  0  0  0  1  0  0  0  0  0  0
  189.1740  177.6460  140.3310 C   0  0  0  0  0  0  0  0  0  0  0  0
  188.2360  176.6060  143.1990 C   0  0  0  0  0  2  0  0  0  0  0  0
  185.9410  178.0200  144.0400 S   0  0  0  0  0  0  0  0  0  0  0  0
  189.6950  176.5550  141.2090 C   0  0  0  0  0  2  0  0  0  0  0  0
  185.1880  179.1930  142.8640 C   0  0  1  0  0  3  0  0  0  0  0  0
  187.1250  178.3360  141.7120 C   0  0  0  0  0  0  0  0  0  0  0  0
  187.2350  177.6610  142.8580 C   0  0  2  0  0  3  0  0  0  0  0  0
  188.0580  178.3490  140.5600 C   0  0  0  0  0  3  0  0  0  0  0  0
  189.9320  177.9420  139.0790 C   0  0  0  0  0  2  0  0  0  0  0  0
  191.0040  174.2980  137.0830 C   0  0  0  0  0  3  0  0  0  0  0  0
  190.3070  176.6830  138.3700 C   0  0  0  0  0  0  0  0  0  0  0  0
  189.3210  175.9090  137.7450 C   0  0  0  0  0  3  0  0  0  0  0  0
  189.6710  174.7190  137.1000 C   0  0  0  0  0  3  0  0  0  0  0  0
  191.9890  175.0670  137.7120 C   0  0  0  0  0  3  0  0  0  0  0  0
  191.6400  176.2570  138.3570 C   0  0  0  0  0  3  0  0  0  0  0  0
  190.6540  176.3300  143.4510 O   0  0  0  0  0  0  0  0  0  0  0  0
  190.9450  178.6980  143.7030 C   0  0  0  0  0  1  0  0  0  0  0  0
  191.3460  177.3150  144.1840 C   0  0  1  0  0  3  0  0  0  0  0  0
  191.1030  177.1620  145.6860 C   0  0  0  0  0  2  0  0  0  0  0  0
  189.8300  177.8510  146.1650 C   0  0  0  0  0  2  0  0  0  0  0  0
  188.9380  176.8720  146.9130 C   0  0  0  0  0  2  0  0  0  0  0  0
  188.2850  177.5420  148.1100 C   0  0  2  0  0  3  0  0  0  0  0  0
  187.0580  178.3200  147.6730 C   0  0  0  0  0  1  0  0  0  0  0  0
  189.1940  178.4150  148.7050 O   0  0  0  0  0  1  0  0  0  0  0  0
  1  5  1  0  0  0  0
  1 19  1  1  0  0  0
  2  9  2  0  0  0  0
  2  8  1  0  0  0  0
  4 11  2  0  0  0  0
  4  7  1  0  0  0  0
  7  1  1  0  0  0  0
  8  3  1  6  0  0  0
  8  6  1  0  0  0  0
  9 10  1  0  0  0  0
 10  5  1  6  0  0  0
 10  6  1  0  0  0  0
 11  9  1  0  0  0  0
 12  4  1  0  0  0  0
 13 16  2  0  0  0  0
 13 17  1  0  0  0  0
 14 12  1  0  0  0  0
 15 14  2  0  0  0  0
 16 15  1  0  0  0  0
 17 18  2  0  0  0  0
 18 14  1  0  0  0  0
 19 21  1  0  0  0  0
 21 20  1  6  0  0  0
 21 22  1  0  0  0  0
 22 23  1  0  0  0  0
 23 24  1  0  0  0  0
 24 25  1  0  0  0  0
 25 26  1  6  0  0  0
 25 27  1  0  0  0  0
M  END
>  <MODEL>
3

>  <REMARK>
 VINA RESULT:      -7.5      2.817      6.363
  Name = 
  8 active torsions:
  status: ('A' for Active; 'I' for Inactive)
    1  A    between atoms: C_1  and  C_24
    2  A    between atoms: C_2  and  C_6
    3  A    between atoms: C_2  and  C_9
    4  A    between atoms: C_3  and  O_26
    5  A    between atoms: C_13  and  C_20
    6  A    between atoms: C_13  and  C_22
    7  A    between atoms: C_20  and  O_26
    8  A    between atoms: C_22  and  C_24
                            x       y       z     vdW  Elec       q    Type
                         _______ _______ _______ _____ _____    ______ ____

>  <TORSDO>
F 8

$$$$
=
 OpenBabel10272401013D

 27 29  0  0  1  0  0  0  0  0999 V2000
  188.9030  177.7870  140.8150 C   0  0  2  0  0  3  0  0  0  0  0  0
  193.1890  177.3670  139.9300 N   0  0  0  0  0  2  0  0  0  0  0  0
  194.1250  175.6460  138.5930 N   0  0  0  0  0  1  0  0  0  0  0  0
  190.6250  178.1450  142.5890 C   0  0  0  0  0  0  0  0  0  0  0  0
  189.5050  176.6590  139.9960 C   0  0  0  0  0  2  0  0  0  0  0  0
  191.5730  176.3210  138.1030 S   0  0  0  0  0  0  0  0  0  0  0  0
  189.2770  177.5840  142.2730 C   0  0  0  0  0  2  0  0  0  0  0  0
  193.2600  176.8120  138.5920 C   0  0  1  0  0  3  0  0  0  0  0  0
  191.8880  177.3750  140.4930 C   0  0  0  0  0  0  0  0  0  0  0  0
  190.9500  176.8780  139.6850 C   0  0  0  0  0  0  0  0  0  0  0  0
  191.7160  177.9980  141.8270 C   0  0  0  0  0  3  0  0  0  0  0  0
  190.7760  178.8850  143.8770 C   0  0  0  0  0  2  0  0  0  0  0  0
  190.5440  176.1770  147.1950 C   0  0  0  0  0  3  0  0  0  0  0  0
  190.7020  177.9550  145.0410 C   0  0  0  0  0  0  0  0  0  0  0  0
  191.7830  177.1160  145.3390 C   0  0  0  0  0  3  0  0  0  0  0  0
  191.7040  176.2290  146.4170 C   0  0  0  0  0  3  0  0  0  0  0  0
  189.4610  177.0100  146.8960 C   0  0  0  0  0  3  0  0  0  0  0  0
  189.5400  177.8970  145.8180 C   0  0  0  0  0  3  0  0  0  0  0  0
  187.5090  177.9310  140.6140 O   0  0  0  0  0  0  0  0  0  0  0  0
  185.6040  179.2370  141.2640 C   0  0  0  0  0  1  0  0  0  0  0  0
  186.9330  178.6360  141.6900 C   0  0  1  0  0  3  0  0  0  0  0  0
  186.7630  177.7370  142.9150 C   0  0  0  0  0  2  0  0  0  0  0  0
  185.7050  178.2410  143.8920 C   0  0  0  0  0  2  0  0  0  0  0  0
  186.0410  177.8160  145.3130 C   0  0  0  0  0  2  0  0  0  0  0  0
  185.0480  178.4030  146.3010 C   0  0  2  0  0  3  0  0  0  0  0  0
  183.8180  178.9120  145.5730 C   0  0  0  0  0  1  0  0  0  0  0  0
  185.6460  179.4590  146.9860 O   0  0  0  0  0  1  0  0  0  0  0  0
  1 19  1  1  0  0  0
  1  7  1  0  0  0  0
  2  9  1  0  0  0  0
  4 12  1  0  0  0  0
  5  1  1  0  0  0  0
  6  8  1  0  0  0  0
  6 10  1  0  0  0  0
  7  4  1  0  0  0  0
  8  3  1  1  0  0  0
  8  2  1  0  0  0  0
  9 11  1  0  0  0  0
 10  5  1  0  0  0  0
 10  9  2  0  0  0  0
 11  4  2  0  0  0  0
 12 14  1  0  0  0  0
 14 15  2  0  0  0  0
 14 18  1  0  0  0  0
 15 16  1  0  0  0  0
 16 13  2  0  0  0  0
 17 13  1  0  0  0  0
 18 17  2  0  0  0  0
 19 21  1  0  0  0  0
 21 20  1  6  0  0  0
 21 22  1  0  0  0  0
 22 23  1  0  0  0  0
 23 24  1  0  0  0  0
 24 25  1  0  0  0  0
 25 26  1  6  0  0  0
 25 27  1  0  0  0  0
M  END
>  <MODEL>
4

>  <REMARK>
 VINA RESULT:      -7.4      4.011      6.558
  Name = 
  8 active torsions:
  status: ('A' for Active; 'I' for Inactive)
    1  A    between atoms: C_1  and  C_24
    2  A    between atoms: C_2  and  C_6
    3  A    between atoms: C_2  and  C_9
    4  A    between atoms: C_3  and  O_26
    5  A    between atoms: C_13  and  C_20
    6  A    between atoms: C_13  and  C_22
    7  A    between atoms: C_20  and  O_26
    8  A    between atoms: C_22  and  C_24
                            x       y       z     vdW  Elec       q    Type
                         _______ _______ _______ _____ _____    ______ ____

>  <TORSDO>
F 8

$$$$
=
 OpenBabel10272401013D

 27 29  0  0  1  0  0  0  0  0999 V2000
  188.4830  178.2590  141.1030 C   0  0  2  0  0  3  0  0  0  0  0  0
  186.1860  177.5590  137.4200 N   0  0  0  0  0  0  0  0  0  0  0  0
  186.9410  178.1030  135.2390 N   0  0  0  0  0  1  0  0  0  0  0  0
  186.0330  178.7350  141.0040 C   0  0  0  0  0  0  0  0  0  0  0  0
  188.9500  178.6500  139.7110 C   0  0  0  0  0  2  0  0  0  0  0  0
  188.8190  177.6050  137.0910 S   0  0  0  0  0  0  0  0  0  0  0  0
  187.3590  179.1920  141.5190 C   0  0  0  0  0  2  0  0  0  0  0  0
  187.1680  177.2580  136.3970 C   0  0  1  0  0  3  0  0  0  0  0  0
  186.7340  178.0340  138.6380 C   0  0  0  0  0  0  0  0  0  0  0  0
  188.0670  178.1110  138.6330 C   0  0  2  0  0  3  0  0  0  0  0  0
  185.8030  178.2900  139.7630 C   0  0  0  0  0  3  0  0  0  0  0  0
  184.8670  178.8280  141.9320 C   0  0  0  0  0  2  0  0  0  0  0  0
  186.1000  178.1040  145.9770 C   0  0  0  0  0  3  0  0  0  0  0  0
  185.2820  178.5660  143.3420 C   0  0  0  0  0  0  0  0  0  0  0  0
  184.8350  179.4020  144.3720 C   0  0  0  0  0  3  0  0  0  0  0  0
  185.2430  179.1690  145.6890 C   0  0  0  0  0  3  0  0  0  0  0  0
  186.5530  177.2700  144.9490 C   0  0  0  0  0  3  0  0  0  0  0  0
  186.1450  177.5030  143.6320 C   0  0  0  0  0  3  0  0  0  0  0  0
  189.5400  178.2090  142.0440 O   0  0  0  0  0  0  0  0  0  0  0  0
  191.6990  177.3150  141.5030 C   0  0  0  0  0  1  0  0  0  0  0  0
  190.2650  177.0100  141.8980 C   0  0  1  0  0  3  0  0  0  0  0  0
  190.2130  176.1690  143.1750 C   0  0  0  0  0  2  0  0  0  0  0  0
  190.1110  177.0070  144.4450 C   0  0  0  0  0  2  0  0  0  0  0  0
  191.3690  176.8610  145.2860 C   0  0  0  0  0  2  0  0  0  0  0  0
  191.0240  176.4430  146.7060 C   0  0  2  0  0  3  0  0  0  0  0  0
  189.6910  177.0360  147.1210 C   0  0  0  0  0  1  0  0  0  0  0  0
  192.0170  176.8920  147.5740 O   0  0  0  0  0  1  0  0  0  0  0  0
  1  7  1  0  0  0  0
  1 19  1  1  0  0  0
  2  9  2  0  0  0  0
  4  7  1  0  0  0  0
  4 12  1  0  0  0  0
  5  1  1  0  0  0  0
  6 10  1  0  0  0  0
  8  3  1  6  0  0  0
  8  6  1  0  0  0  0
  8  2  1  0  0  0  0
  9 11  1  0  0  0  0
 10  9  1  0  0  0  0
 10  5  1  6  0  0  0
 11  4  2  0  0  0  0
 12 14  1  0  0  0  0
 14 18  2  0  0  0  0
 14 15  1  0  0  0  0
 15 16  2  0  0  0  0
 16 13  1  0  0  0  0
 17 13  2  0  0  0  0
 18 17  1  0  0  0  0
 21 20  1  1  0  0  0
 21 19  1  0  0  0  0
 21 22  1  0  0  0  0
 22 23  1  0  0  0  0
 23 24  1  0  0  0  0
 24 25  1  0  0  0  0
 25 26  1  1  0  0  0
 25 27  1  0  0  0  0
M  END
>  <MODEL>
5

>  <REMARK>
 VINA RESULT:      -7.4      2.452      3.364
  Name = 
  8 active torsions:
  status: ('A' for Active; 'I' for Inactive)
    1  A    between atoms: C_1  and  C_24
    2  A    between atoms: C_2  and  C_6
    3  A    between atoms: C_2  and  C_9
    4  A    between atoms: C_3  and  O_26
    5  A    between atoms: C_13  and  C_20
    6  A    between atoms: C_13  and  C_22
    7  A    between atoms: C_20  and  O_26
    8  A    between atoms: C_22  and  C_24
                            x       y       z     vdW  Elec       q    Type
                         _______ _______ _______ _____ _____    ______ ____

>  <TORSDO>
F 8

$$$$
=
 OpenBabel10272401013D

 27 29  0  0  1  0  0  0  0  0999 V2000
  185.9720  177.8530  143.2560 C   0  0  2  0  0  3  0  0  0  0  0  0
  181.7710  178.8970  144.0210 N   0  0  0  0  0  2  0  0  0  0  0  0
  180.4100  180.1650  142.5510 N   0  0  0  0  0  1  0  0  0  0  0  0
  185.2210  178.5890  145.5220 C   0  0  0  0  0  0  0  0  0  0  0  0
  185.1160  178.7030  142.3340 C   0  0  0  0  0  2  0  0  0  0  0  0
  182.4340  178.7850  141.4550 S   0  0  0  0  0  0  0  0  0  0  0  0
  186.3050  178.6630  144.4960 C   0  0  0  0  0  2  0  0  0  0  0  0
  181.1280  178.9160  142.7210 C   0  0  1  0  0  3  0  0  0  0  0  0
  183.1840  178.7970  143.9760 C   0  0  0  0  0  0  0  0  0  0  0  0
  183.6780  178.7260  142.7380 C   0  0  0  0  0  0  0  0  0  0  0  0
  183.9110  178.6920  145.2630 C   0  0  0  0  0  3  0  0  0  0  0  0
  185.6340  178.4360  146.9480 C   0  0  0  0  0  2  0  0  0  0  0  0
  189.7590  177.2890  147.2180 C   0  0  0  0  0  3  0  0  0  0  0  0
  187.0640  178.0230  147.0510 C   0  0  0  0  0  0  0  0  0  0  0  0
  187.8300  178.4120  148.1570 C   0  0  0  0  0  3  0  0  0  0  0  0
  189.1760  178.0430  148.2410 C   0  0  0  0  0  3  0  0  0  0  0  0
  188.9980  176.9050  146.1090 C   0  0  0  0  0  3  0  0  0  0  0  0
  187.6520  177.2730  146.0250 C   0  0  0  0  0  3  0  0  0  0  0  0
  187.1180  177.3260  142.6140 O   0  0  0  0  0  0  0  0  0  0  0  0
  189.3360  178.2320  142.7390 C   0  0  0  0  0  1  0  0  0  0  0  0
  187.9420  178.3720  142.1530 C   0  0  1  0  0  3  0  0  0  0  0  0
  187.9890  178.4100  140.6250 C   0  0  0  0  0  2  0  0  0  0  0  0
  188.9670  177.4050  140.0250 C   0  0  0  0  0  2  0  0  0  0  0  0
  189.7340  178.0270  138.8690 C   0  0  0  0  0  2  0  0  0  0  0  0
  188.7900  178.4320  137.7500 C   0  0  2  0  0  3  0  0  0  0  0  0
  189.0540  177.5980  136.5100 C   0  0  0  0  0  1  0  0  0  0  0  0
  188.9820  179.7790  137.4470 O   0  0  0  0  0  1  0  0  0  0  0  0
  1 19  1  6  0  0  0
  1  7  1  0  0  0  0
  4 12  1  0  0  0  0
  5 10  1  0  0  0  0
  5  1  1  0  0  0  0
  6  8  1  0  0  0  0
  6 10  1  0  0  0  0
  7  4  1  0  0  0  0
  8  3  1  6  0  0  0
  8  2  1  0  0  0  0
  9  2  1  0  0  0  0
  9 11  1  0  0  0  0
 10  9  2  0  0  0  0
 11  4  2  0  0  0  0
 12 14  1  0  0  0  0
 13 16  1  0  0  0  0
 14 15  1  0  0  0  0
 15 16  2  0  0  0  0
 17 13  2  0  0  0  0
 18 17  1  0  0  0  0
 18 14  2  0  0  0  0
 21 19  1  0  0  0  0
 21 20  1  1  0  0  0
 22 21  1  0  0  0  0
 23 22  1  0  0  0  0
 24 23  1  0  0  0  0
 25 26  1  6  0  0  0
 25 24  1  0  0  0  0
 27 25  1  0  0  0  0
M  END
>  <MODEL>
6

>  <REMARK>
 VINA RESULT:      -7.4      2.291      4.059
  Name = 
  8 active torsions:
  status: ('A' for Active; 'I' for Inactive)
    1  A    between atoms: C_1  and  C_24
    2  A    between atoms: C_2  and  C_6
    3  A    between atoms: C_2  and  C_9
    4  A    between atoms: C_3  and  O_26
    5  A    between atoms: C_13  and  C_20
    6  A    between atoms: C_13  and  C_22
    7  A    between atoms: C_20  and  O_26
    8  A    between atoms: C_22  and  C_24
                            x       y       z     vdW  Elec       q    Type
                         _______ _______ _______ _____ _____    ______ ____

>  <TORSDO>
F 8

$$$$
=
 OpenBabel10272401013D

 27 29  0  0  1  0  0  0  0  0999 V2000
  189.6850  177.7370  141.4440 C   0  0  2  0  0  3  0  0  0  0  0  0
  188.5590  176.1190  137.5150 N   0  0  0  0  0  0  0  0  0  0  0  0
  190.0350  175.9140  135.6700 N   0  0  0  0  0  1  0  0  0  0  0  0
  187.5080  178.3400  140.3800 C   0  0  0  0  0  0  0  0  0  0  0  0
  190.6200  177.6480  140.2510 C   0  0  0  0  0  2  0  0  0  0  0  0
  191.1300  175.8660  138.1210 S   0  0  0  0  0  0  0  0  0  0  0  0
  188.6660  178.8330  141.1840 C   0  0  0  0  0  2  0  0  0  0  0  0
  189.7430  175.4470  137.0130 C   0  0  1  0  0  3  0  0  0  0  0  0
  188.7760  176.9010  138.6770 C   0  0  0  0  0  0  0  0  0  0  0  0
  190.0360  176.8730  139.1150 C   0  0  2  0  0  3  0  0  0  0  0  0
  187.6010  177.5560  139.2990 C   0  0  0  0  0  3  0  0  0  0  0  0
  186.1450  178.7980  140.7860 C   0  0  0  0  0  2  0  0  0  0  0  0
  185.5030  178.2490  144.9920 C   0  0  0  0  0  3  0  0  0  0  0  0
  185.9350  178.6170  142.2530 C   0  0  0  0  0  0  0  0  0  0  0  0
  186.6110  177.6010  142.9390 C   0  0  0  0  0  3  0  0  0  0  0  0
  186.3960  177.4190  144.3090 C   0  0  0  0  0  3  0  0  0  0  0  0
  184.8230  179.2610  144.3080 C   0  0  0  0  0  3  0  0  0  0  0  0
  185.0380  179.4440  142.9380 C   0  0  0  0  0  3  0  0  0  0  0  0
  190.3720  177.8970  142.6720 O   0  0  0  0  0  0  0  0  0  0  0  0
  190.3510  175.5380  143.1070 C   0  0  0  0  0  1  0  0  0  0  0  0
  189.9530  176.9200  143.5960 C   0  0  1  0  0  3  0  0  0  0  0  0
  190.5180  177.1940  144.9900 C   0  0  0  0  0  2  0  0  0  0  0  0
  189.4960  177.8000  145.9470 C   0  0  0  0  0  2  0  0  0  0  0  0
  189.1620  176.8230  147.0630 C   0  0  0  0  0  2  0  0  0  0  0  0
  188.5740  177.5500  148.2600 C   0  0  2  0  0  3  0  0  0  0  0  0
  187.3350  178.3250  147.8500 C   0  0  0  0  0  1  0  0  0  0  0  0
  189.5190  178.4350  148.7740 O   0  0  0  0  0  1  0  0  0  0  0  0
  1 19  1  1  0  0  0
  2  9  2  0  0  0  0
  4 12  1  0  0  0  0
  4  7  1  0  0  0  0
  5  1  1  0  0  0  0
  6 10  1  0  0  0  0
  7  1  1  0  0  0  0
  8  3  1  6  0  0  0
  8  2  1  0  0  0  0
  8  6  1  0  0  0  0
  9 10  1  0  0  0  0
  9 11  1  0  0  0  0
 10  5  1  6  0  0  0
 11  4  2  0  0  0  0
 12 14  1  0  0  0  0
 14 18  2  0  0  0  0
 14 15  1  0  0  0  0
 15 16  2  0  0  0  0
 16 13  1  0  0  0  0
 17 13  2  0  0  0  0
 18 17  1  0  0  0  0
 19 21  1  0  0  0  0
 21 20  1  6  0  0  0
 21 22  1  0  0  0  0
 22 23  1  0  0  0  0
 23 24  1  0  0  0  0
 24 25  1  0  0  0  0
 25 26  1  6  0  0  0
 25 27  1  0  0  0  0
M  END
>  <MODEL>
7

>  <REMARK>
 VINA RESULT:      -6.9      3.290      4.938
  Name = 
  8 active torsions:
  status: ('A' for Active; 'I' for Inactive)
    1  A    between atoms: C_1  and  C_24
    2  A    between atoms: C_2  and  C_6
    3  A    between atoms: C_2  and  C_9
    4  A    between atoms: C_3  and  O_26
    5  A    between atoms: C_13  and  C_20
    6  A    between atoms: C_13  and  C_22
    7  A    between atoms: C_20  and  O_26
    8  A    between atoms: C_22  and  C_24
                            x       y       z     vdW  Elec       q    Type
                         _______ _______ _______ _____ _____    ______ ____

>  <TORSDO>
F 8

$$$$
=
 OpenBabel10272401013D

 27 29  0  0  1  0  0  0  0  0999 V2000
  185.4270  178.3000  143.5600 C   0  0  2  0  0  3  0  0  0  0  0  0
  184.6890  179.5900  139.4230 N   0  0  0  0  0  0  0  0  0  0  0  0
  182.7680  179.0160  138.1560 N   0  0  0  0  0  1  0  0  0  0  0  0
  187.2620  178.2980  141.8650 C   0  0  0  0  0  0  0  0  0  0  0  0
  184.2180  177.8940  142.7360 C   0  0  0  0  0  2  0  0  0  0  0  0
  182.4990  179.0660  140.8260 S   0  0  0  0  0  0  0  0  0  0  0  0
  186.6490  177.5770  143.0210 C   0  0  0  0  0  2  0  0  0  0  0  0
  183.2520  179.7490  139.3120 C   0  0  1  0  0  3  0  0  0  0  0  0
  185.1200  178.9640  140.6190 C   0  0  0  0  0  0  0  0  0  0  0  0
  184.1220  178.6390  141.4440 C   0  0  2  0  0  3  0  0  0  0  0  0
  186.5790  178.8360  140.8460 C   0  0  0  0  0  3  0  0  0  0  0  0
  188.7520  178.3840  141.8200 C   0  0  0  0  0  2  0  0  0  0  0  0
  190.2970  177.0340  138.0520 C   0  0  0  0  0  3  0  0  0  0  0  0
  189.2760  177.9030  140.5080 C   0  0  0  0  0  0  0  0  0  0  0  0
  190.1560  176.8150  140.4590 C   0  0  0  0  0  3  0  0  0  0  0  0
  190.6650  176.3800  139.2310 C   0  0  0  0  0  3  0  0  0  0  0  0
  189.4230  178.1250  138.0980 C   0  0  0  0  0  3  0  0  0  0  0  0
  188.9140  178.5600  139.3260 C   0  0  0  0  0  3  0  0  0  0  0  0
  185.2370  178.1070  144.9500 O   0  0  0  0  0  0  0  0  0  0  0  0
  185.9800  179.2050  146.9490 C   0  0  0  0  0  1  0  0  0  0  0  0
  186.3840  178.5130  145.6590 C   0  0  1  0  0  3  0  0  0  0  0  0
  187.3130  177.3300  145.9370 C   0  0  0  0  0  2  0  0  0  0  0  0
  188.7810  177.7270  146.0450 C   0  0  0  0  0  2  0  0  0  0  0  0
  189.4840  176.8970  147.1080 C   0  0  0  0  0  2  0  0  0  0  0  0
  190.9860  176.8810  146.8750 C   0  0  2  0  0  3  0  0  0  0  0  0
  191.2880  176.8170  145.3900 C   0  0  0  0  0  1  0  0  0  0  0  0
  191.5400  175.7690  147.5050 O   0  0  0  0  0  1  0  0  0  0  0  0
  1 19  1  1  0  0  0
  2  9  2  0  0  0  0
  4  7  1  0  0  0  0
  5  1  1  0  0  0  0
  6 10  1  0  0  0  0
  7  1  1  0  0  0  0
  8  3  1  6  0  0  0
  8  2  1  0  0  0  0
  8  6  1  0  0  0  0
  9 11  1  0  0  0  0
  9 10  1  0  0  0  0
 10  5  1  6  0  0  0
 11  4  2  0  0  0  0
 12  4  1  0  0  0  0
 13 17  2  0  0  0  0
 13 16  1  0  0  0  0
 14 12  1  0  0  0  0
 15 14  1  0  0  0  0
 16 15  2  0  0  0  0
 17 18  1  0  0  0  0
 18 14  2  0  0  0  0
 19 21  1  0  0  0  0
 21 22  1  0  0  0  0
 21 20  1  1  0  0  0
 22 23  1  0  0  0  0
 23 24  1  0  0  0  0
 25 26  1  6  0  0  0
 25 24  1  0  0  0  0
 25 27  1  0  0  0  0
M  END
>  <MODEL>
8

>  <REMARK>
 VINA RESULT:      -6.8      1.896      4.879
  Name = 
  8 active torsions:
  status: ('A' for Active; 'I' for Inactive)
    1  A    between atoms: C_1  and  C_24
    2  A    between atoms: C_2  and  C_6
    3  A    between atoms: C_2  and  C_9
    4  A    between atoms: C_3  and  O_26
    5  A    between atoms: C_13  and  C_20
    6  A    between atoms: C_13  and  C_22
    7  A    between atoms: C_20  and  O_26
    8  A    between atoms: C_22  and  C_24
                            x       y       z     vdW  Elec       q    Type
                         _______ _______ _______ _____ _____    ______ ____

>  <TORSDO>
F 8

$$$$
=
 OpenBabel10272401013D

 27 29  0  0  1  0  0  0  0  0999 V2000
  186.4200  177.5690  143.2900 C   0  0  2  0  0  3  0  0  0  0  0  0
  186.9770  178.5360  139.0370 N   0  0  0  0  0  0  0  0  0  0  0  0
  189.0190  179.2700  138.0800 N   0  0  0  0  0  1  0  0  0  0  0  0
  184.6920  178.8540  142.0250 C   0  0  0  0  0  0  0  0  0  0  0  0
  187.7170  178.0820  142.6870 C   0  0  0  0  0  2  0  0  0  0  0  0
  189.1820  177.7630  140.2950 S   0  0  0  0  0  0  0  0  0  0  0  0
  185.4150  178.7070  143.3240 C   0  0  0  0  0  2  0  0  0  0  0  0
  188.3430  178.1600  138.7250 C   0  0  1  0  0  3  0  0  0  0  0  0
  186.6630  178.5100  140.4190 C   0  0  0  0  0  0  0  0  0  0  0  0
  187.6810  178.1310  141.1940 C   0  0  2  0  0  3  0  0  0  0  0  0
  185.2650  178.8040  140.8160 C   0  0  0  0  0  3  0  0  0  0  0  0
  183.2240  179.1220  142.0820 C   0  0  0  0  0  2  0  0  0  0  0  0
  181.0670  176.4620  139.4990 C   0  0  0  0  0  3  0  0  0  0  0  0
  182.4760  178.2080  141.1710 C   0  0  0  0  0  0  0  0  0  0  0  0
  181.0910  178.3500  141.0150 C   0  0  0  0  0  3  0  0  0  0  0  0
  180.3880  177.4780  140.1770 C   0  0  0  0  0  3  0  0  0  0  0  0
  182.4490  176.3140  139.6570 C   0  0  0  0  0  3  0  0  0  0  0  0
  183.1520  177.1860  140.4950 C   0  0  0  0  0  3  0  0  0  0  0  0
  186.6050  176.9540  144.5510 O   0  0  0  0  0  0  0  0  0  0  0  0
  186.2330  178.2980  146.5030 C   0  0  0  0  0  1  0  0  0  0  0  0
  187.2250  177.8500  145.4440 C   0  0  1  0  0  3  0  0  0  0  0  0
  188.4680  177.2280  146.0810 C   0  0  0  0  0  2  0  0  0  0  0  0
  189.7590  177.9590  145.7270 C   0  0  0  0  0  2  0  0  0  0  0  0
  190.7460  177.0130  145.0610 C   0  0  0  0  0  2  0  0  0  0  0  0
  191.6560  177.7660  144.1060 C   0  0  2  0  0  3  0  0  0  0  0  0
  191.1350  179.1730  143.8810 C   0  0  0  0  0  1  0  0  0  0  0  0
  191.7050  177.0940  142.8870 O   0  0  0  0  0  1  0  0  0  0  0  0
  1  7  1  0  0  0  0
  1 19  1  1  0  0  0
  2  9  2  0  0  0  0
  4 12  1  0  0  0  0
  4  7  1  0  0  0  0
  5  1  1  0  0  0  0
  6 10  1  0  0  0  0
  8  3  1  1  0  0  0
  8  2  1  0  0  0  0
  8  6  1  0  0  0  0
  9 11  1  0  0  0  0
  9 10  1  0  0  0  0
 10  5  1  1  0  0  0
 11  4  2  0  0  0  0
 13 17  2  0  0  0  0
 13 16  1  0  0  0  0
 14 12  1  0  0  0  0
 15 14  1  0  0  0  0
 16 15  2  0  0  0  0
 17 18  1  0  0  0  0
 18 14  2  0  0  0  0
 19 21  1  0  0  0  0
 21 22  1  0  0  0  0
 21 20  1  1  0  0  0
 23 22  1  0  0  0  0
 24 23  1  0  0  0  0
 25 26  1  6  0  0  0
 25 24  1  0  0  0  0
 27 25  1  0  0  0  0
M  END
>  <MODEL>
9

>  <REMARK>
 VINA RESULT:      -6.8      2.505      5.158
  Name = 
  8 active torsions:
  status: ('A' for Active; 'I' for Inactive)
    1  A    between atoms: C_1  and  C_24
    2  A    between atoms: C_2  and  C_6
    3  A    between atoms: C_2  and  C_9
    4  A    between atoms: C_3  and  O_26
    5  A    between atoms: C_13  and  C_20
    6  A    between atoms: C_13  and  C_22
    7  A    between atoms: C_20  and  O_26
    8  A    between atoms: C_22  and  C_24
                            x       y       z     vdW  Elec       q    Type
                         _______ _______ _______ _____ _____    ______ ____

>  <TORSDO>
F 8

$$$$
