=
 OpenBabel10272400313D

 31 34  0  0  1  0  0  0  0  0999 V2000
  185.5840  178.8860  139.8850 C   0  0  0  0  0  0  0  0  0  0  0  0
  188.8940  177.8100  141.1770 C   0  0  0  0  0  0  0  0  0  0  0  0
  188.6900  177.9930  142.6630 C   0  0  1  0  0  3  0  0  0  0  0  0
  187.1290  177.3170  144.4880 C   0  0  0  0  0  3  0  0  0  0  0  0
  187.8760  178.1550  140.2790 C   0  0  0  0  0  0  0  0  0  0  0  0
  185.6110  178.2970  138.5080 C   0  0  0  0  0  2  0  0  0  0  0  0
  187.7650  176.9010  143.1940 C   0  0  0  0  0  2  0  0  0  0  0  0
  190.2170  176.9910  139.3100 C   0  0  0  0  0  0  0  0  0  0  0  0
  184.5490  179.4710  140.2990 O   0  0  0  0  0  0  0  0  0  0  0  0
  191.1080  177.2710  142.8950 C   0  0  0  0  0  3  0  0  0  0  0  0
  187.8230  177.5630  145.6080 C   0  0  0  0  0  3  0  0  0  0  0  0
  189.2110  177.3490  138.4640 N   0  0  0  0  0  0  0  0  0  0  0  0
  190.0790  177.2240  140.6880 C   0  0  0  0  0  0  0  0  0  0  0  0
  186.6820  178.7260  140.7350 O   0  0  0  0  0  0  0  0  0  0  0  0
  189.3170  177.4480  145.7010 C   0  0  0  0  0  2  0  0  0  0  0  0
  188.0570  177.9090  138.9080 C   0  0  0  0  0  0  0  0  0  0  0  0
  187.0220  178.3670  137.9230 C   0  0  0  0  0  2  0  0  0  0  0  0
  191.1750  176.9050  141.6190 C   0  0  0  0  0  3  0  0  0  0  0  0
  189.9630  177.9700  143.4000 N   0  0  0  0  0  0  0  0  0  0  0  0
  190.0010  178.4460  144.7750 C   0  0  0  0  0  2  0  0  0  0  0  0
  193.9770  175.5300  137.9090 C   0  0  0  0  0  1  0  0  0  0  0  0
  191.9840  172.7940  136.5280 O   0  0  0  0  0  0  0  0  0  0  0  0
  190.4590  174.6070  137.6540 O   0  0  0  0  0  0  0  0  0  0  0  0
  191.5080  175.2210  137.9870 C   0  0  0  0  0  0  0  0  0  0  0  0
  192.9670  173.5440  136.7760 C   0  0  0  0  0  0  0  0  0  0  0  0
  192.7980  174.7520  137.5490 N   0  0  0  0  0  0  0  0  0  0  0  0
  191.4220  176.4000  138.8030 N   0  0  0  0  0  2  0  0  0  0  0  0
  194.3060  173.1590  136.2330 C   0  0  0  0  0  2  0  0  0  0  0  0
  194.8900  172.0500  137.0380 C   0  0  0  0  0  0  0  0  0  0  0  0
  195.0750  170.9210  136.5140 O   0  0  0  0  0  0  0  0  0  0  0  0
  195.2650  172.2710  138.3570 O   0  0  0  0  0  1  0  0  0  0  0  0
  1  9  2  0  0  0  0
  1 14  1  0  0  0  0
  2  3  1  0  0  0  0
  3  7  1  1  0  0  0
  3 19  1  0  0  0  0
  4 11  2  0  0  0  0
  5 14  1  0  0  0  0
  5  2  1  0  0  0  0
  6  1  1  0  0  0  0
  7  4  1  0  0  0  0
  8 13  1  0  0  0  0
 10 19  1  0  0  0  0
 11 15  1  0  0  0  0
 12 16  1  0  0  0  0
 12  8  2  0  0  0  0
 13  2  2  0  0  0  0
 13 18  1  0  0  0  0
 16  5  2  0  0  0  0
 17  6  1  0  0  0  0
 17 16  1  0  0  0  0
 18 10  2  0  0  0  0
 19 20  1  0  0  0  0
 20 15  1  0  0  0  0
 22 25  2  0  0  0  0
 23 24  2  0  0  0  0
 24 27  1  0  0  0  0
 25 26  1  0  0  0  0
 26 21  1  0  0  0  0
 26 24  1  0  0  0  0
 27  8  1  0  0  0  0
 28 25  1  0  0  0  0
 28 29  1  0  0  0  0
 29 31  1  0  0  0  0
 30 29  2  0  0  0  0
M  END
>  <MODEL>
1

>  <REMARK>
 VINA RESULT:      -9.1      0.000      0.000
  Name = 
  3 active torsions:
  status: ('A' for Active; 'I' for Inactive)
    1  A    between atoms: C_1  and  C_24
    2  A    between atoms: C_15  and  N_23
    3  A    between atoms: C_19  and  C_24
                            x       y       z     vdW  Elec       q    Type
                         _______ _______ _______ _____ _____    ______ ____

>  <TORSDO>
F 3

$$$$
=
 OpenBabel10272400313D

 31 34  0  0  1  0  0  0  0  0999 V2000
  184.6640  178.6410  138.6640 C   0  0  0  0  0  0  0  0  0  0  0  0
  188.1360  177.5470  139.3960 C   0  0  0  0  0  0  0  0  0  0  0  0
  188.5760  177.0740  138.0320 C   0  0  1  0  0  3  0  0  0  0  0  0
  188.7260  177.8730  135.6730 C   0  0  0  0  0  3  0  0  0  0  0  0
  186.8290  178.0150  139.5920 C   0  0  0  0  0  0  0  0  0  0  0  0
  184.3820  179.5060  139.8530 C   0  0  0  0  0  2  0  0  0  0  0  0
  188.8010  178.2740  137.1170 C   0  0  0  0  0  2  0  0  0  0  0  0
  188.6460  178.1100  141.7050 C   0  0  0  0  0  0  0  0  0  0  0  0
  183.8150  178.5450  137.7400 O   0  0  0  0  0  0  0  0  0  0  0  0
  190.7480  176.4240  139.1630 C   0  0  0  0  0  3  0  0  0  0  0  0
  189.5790  177.0130  135.0990 C   0  0  0  0  0  3  0  0  0  0  0  0
  187.3650  178.5460  141.8630 N   0  0  0  0  0  0  0  0  0  0  0  0
  189.0540  177.5920  140.4650 C   0  0  0  0  0  0  0  0  0  0  0  0
  185.8980  177.9960  138.5460 O   0  0  0  0  0  0  0  0  0  0  0  0
  190.7110  176.3530  135.8310 C   0  0  0  0  0  2  0  0  0  0  0  0
  186.4610  178.5200  140.8490 C   0  0  0  0  0  0  0  0  0  0  0  0
  185.0410  178.9270  141.1060 C   0  0  0  0  0  2  0  0  0  0  0  0
  190.4130  177.0570  140.2830 C   0  0  0  0  0  3  0  0  0  0  0  0
  189.8010  176.2620  138.1000 N   0  0  0  0  0  0  0  0  0  0  0  0
  190.1920  175.4590  136.9500 C   0  0  0  0  0  2  0  0  0  0  0  0
  191.6450  178.3810  144.7330 C   0  0  0  0  0  1  0  0  0  0  0  0
  189.2070  176.5950  146.7910 O   0  0  0  0  0  0  0  0  0  0  0  0
  188.3410  176.8910  144.3330 O   0  0  0  0  0  0  0  0  0  0  0  0
  189.3930  177.5410  144.0860 C   0  0  0  0  0  0  0  0  0  0  0  0
  190.2860  177.1310  146.4190 C   0  0  0  0  0  0  0  0  0  0  0  0
  190.4220  177.6710  145.0860 N   0  0  0  0  0  0  0  0  0  0  0  0
  189.5720  178.1550  142.8000 N   0  0  0  0  0  2  0  0  0  0  0  0
  191.4260  177.1750  147.3860 C   0  0  0  0  0  2  0  0  0  0  0  0
  192.1620  175.8790  147.3740 C   0  0  0  0  0  0  0  0  0  0  0  0
  192.2670  175.2250  146.3050 O   0  0  0  0  0  0  0  0  0  0  0  0
  192.7630  175.4110  148.5350 O   0  0  0  0  0  1  0  0  0  0  0  0
  1  6  1  0  0  0  0
  2  5  1  0  0  0  0
  2 13  2  0  0  0  0
  3  7  1  6  0  0  0
  3 19  1  0  0  0  0
  3  2  1  0  0  0  0
  4  7  1  0  0  0  0
  5 16  2  0  0  0  0
  6 17  1  0  0  0  0
  8 12  2  0  0  0  0
  8 27  1  0  0  0  0
  9  1  2  0  0  0  0
 10 18  2  0  0  0  0
 11  4  2  0  0  0  0
 11 15  1  0  0  0  0
 13  8  1  0  0  0  0
 14  1  1  0  0  0  0
 14  5  1  0  0  0  0
 15 20  1  0  0  0  0
 16 17  1  0  0  0  0
 16 12  1  0  0  0  0
 18 13  1  0  0  0  0
 19 10  1  0  0  0  0
 20 19  1  0  0  0  0
 21 26  1  0  0  0  0
 24 23  2  0  0  0  0
 24 26  1  0  0  0  0
 25 22  2  0  0  0  0
 25 28  1  0  0  0  0
 26 25  1  0  0  0  0
 27 24  1  0  0  0  0
 29 28  1  0  0  0  0
 29 31  1  0  0  0  0
 30 29  2  0  0  0  0
M  END
>  <MODEL>
2

>  <REMARK>
 VINA RESULT:      -8.1      3.816      7.106
  Name = 
  3 active torsions:
  status: ('A' for Active; 'I' for Inactive)
    1  A    between atoms: C_1  and  C_24
    2  A    between atoms: C_15  and  N_23
    3  A    between atoms: C_19  and  C_24
                            x       y       z     vdW  Elec       q    Type
                         _______ _______ _______ _____ _____    ______ ____

>  <TORSDO>
F 3

$$$$
=
 OpenBabel10272400313D

 31 34  0  0  1  0  0  0  0  0999 V2000
  185.3640  179.0360  141.7010 C   0  0  0  0  0  0  0  0  0  0  0  0
  188.9130  177.9630  141.5020 C   0  0  0  0  0  0  0  0  0  0  0  0
  189.3070  178.0230  142.9590 C   0  0  1  0  0  3  0  0  0  0  0  0
  188.5840  177.1600  145.1850 C   0  0  0  0  0  3  0  0  0  0  0  0
  187.6240  178.3460  141.1050 C   0  0  0  0  0  0  0  0  0  0  0  0
  184.8480  178.5570  140.3790 C   0  0  0  0  0  2  0  0  0  0  0  0
  188.6610  176.8660  143.7160 C   0  0  0  0  0  2  0  0  0  0  0  0
  189.3950  177.3320  139.2050 C   0  0  0  0  0  0  0  0  0  0  0  0
  184.5760  179.5560  142.5330 O   0  0  0  0  0  0  0  0  0  0  0  0
  191.6210  177.3590  142.1670 C   0  0  0  0  0  3  0  0  0  0  0  0
  189.6620  177.3390  145.9620 C   0  0  0  0  0  3  0  0  0  0  0  0
  188.1400  177.7250  138.8520 N   0  0  0  0  0  0  0  0  0  0  0  0
  189.8090  177.4530  140.5420 C   0  0  0  0  0  0  0  0  0  0  0  0
  186.7070  178.8440  142.0380 O   0  0  0  0  0  0  0  0  0  0  0  0
  191.0730  177.2620  145.4530 C   0  0  0  0  0  2  0  0  0  0  0  0
  187.2530  178.2140  139.7580 C   0  0  0  0  0  0  0  0  0  0  0  0
  185.9170  178.7150  139.2970 C   0  0  0  0  0  2  0  0  0  0  0  0
  191.1810  177.0950  140.9400 C   0  0  0  0  0  3  0  0  0  0  0  0
  190.7670  177.9820  143.1350 N   0  0  0  0  0  0  0  0  0  0  0  0
  191.3430  178.3490  144.4210 C   0  0  0  0  0  2  0  0  0  0  0  0
  192.2670  176.1260  136.2840 C   0  0  0  0  0  1  0  0  0  0  0  0
  190.1960  173.1240  136.0230 O   0  0  0  0  0  0  0  0  0  0  0  0
  189.1420  174.8660  137.6760 O   0  0  0  0  0  0  0  0  0  0  0  0
  190.1500  175.5980  137.4820 C   0  0  0  0  0  0  0  0  0  0  0  0
  191.0920  173.9770  135.7800 C   0  0  0  0  0  0  0  0  0  0  0  0
  191.1510  175.2180  136.5170 N   0  0  0  0  0  0  0  0  0  0  0  0
  190.3040  176.8200  138.2200 N   0  0  0  0  0  2  0  0  0  0  0  0
  192.0790  173.6790  134.6970 C   0  0  0  0  0  2  0  0  0  0  0  0
  193.0680  172.6670  135.1640 C   0  0  0  0  0  0  0  0  0  0  0  0
  193.5730  171.8560  134.3460 O   0  0  0  0  0  0  0  0  0  0  0  0
  193.4590  172.6420  136.4970 O   0  0  0  0  0  1  0  0  0  0  0  0
  1 14  1  0  0  0  0
  1  9  2  0  0  0  0
  2  3  1  0  0  0  0
  3 19  1  0  0  0  0
  3  7  1  1  0  0  0
  4 11  2  0  0  0  0
  5  2  1  0  0  0  0
  5 14  1  0  0  0  0
  6  1  1  0  0  0  0
  7  4  1  0  0  0  0
  8 13  1  0  0  0  0
 10 19  1  0  0  0  0
 12  8  2  0  0  0  0
 12 16  1  0  0  0  0
 13 18  1  0  0  0  0
 13  2  2  0  0  0  0
 15 11  1  0  0  0  0
 16  5  2  0  0  0  0
 17 16  1  0  0  0  0
 17  6  1  0  0  0  0
 18 10  2  0  0  0  0
 19 20  1  0  0  0  0
 20 15  1  0  0  0  0
 21 26  1  0  0  0  0
 24 23  2  0  0  0  0
 24 27  1  0  0  0  0
 25 22  2  0  0  0  0
 25 26  1  0  0  0  0
 26 24  1  0  0  0  0
 27  8  1  0  0  0  0
 28 29  1  0  0  0  0
 28 25  1  0  0  0  0
 29 31  1  0  0  0  0
 30 29  2  0  0  0  0
M  END
>  <MODEL>
3

>  <REMARK>
 VINA RESULT:      -7.8      1.493      1.709
  Name = 
  3 active torsions:
  status: ('A' for Active; 'I' for Inactive)
    1  A    between atoms: C_1  and  C_24
    2  A    between atoms: C_15  and  N_23
    3  A    between atoms: C_19  and  C_24
                            x       y       z     vdW  Elec       q    Type
                         _______ _______ _______ _____ _____    ______ ____

>  <TORSDO>
F 3

$$$$
=
 OpenBabel10272400313D

 31 34  0  0  1  0  0  0  0  0999 V2000
  186.2240  178.1300  146.4970 C   0  0  0  0  0  0  0  0  0  0  0  0
  186.6380  178.2830  142.8100 C   0  0  0  0  0  0  0  0  0  0  0  0
  188.0770  177.8480  142.6690 C   0  0  1  0  0  3  0  0  0  0  0  0
  189.5960  175.9810  143.3270 C   0  0  0  0  0  3  0  0  0  0  0  0
  186.0630  178.4140  144.0810 C   0  0  0  0  0  0  0  0  0  0  0  0
  184.7310  178.1120  146.6140 C   0  0  0  0  0  2  0  0  0  0  0  0
  188.1930  176.3510  142.9460 C   0  0  0  0  0  2  0  0  0  0  0  0
  184.4840  178.8160  141.8180 C   0  0  0  0  0  0  0  0  0  0  0  0
  186.9380  178.0160  147.5270 O   0  0  0  0  0  0  0  0  0  0  0  0
  187.7630  178.2510  140.1880 C   0  0  0  0  0  3  0  0  0  0  0  0
  190.6470  176.1210  142.5070 C   0  0  0  0  0  3  0  0  0  0  0  0
  183.9610  178.9470  143.0690 N   0  0  0  0  0  0  0  0  0  0  0  0
  185.8420  178.4890  141.6660 C   0  0  0  0  0  0  0  0  0  0  0  0
  186.8250  178.2040  145.2370 O   0  0  0  0  0  0  0  0  0  0  0  0
  190.5430  176.6610  141.1100 C   0  0  0  0  0  2  0  0  0  0  0  0
  184.7030  178.7490  144.1890 C   0  0  0  0  0  0  0  0  0  0  0  0
  184.0980  178.9960  145.5390 C   0  0  0  0  0  2  0  0  0  0  0  0
  186.4490  178.4020  140.3270 C   0  0  0  0  0  3  0  0  0  0  0  0
  188.6160  178.1510  141.3350 N   0  0  0  0  0  0  0  0  0  0  0  0
  190.0550  178.1050  141.1170 C   0  0  0  0  0  2  0  0  0  0  0  0
  182.0810  179.8160  138.4330 C   0  0  0  0  0  1  0  0  0  0  0  0
  181.5830  176.2020  138.1810 O   0  0  0  0  0  0  0  0  0  0  0  0
  183.0030  176.8210  140.2980 O   0  0  0  0  0  0  0  0  0  0  0  0
  182.9480  178.0260  139.9300 C   0  0  0  0  0  0  0  0  0  0  0  0
  181.4600  177.4390  137.9690 C   0  0  0  0  0  0  0  0  0  0  0  0
  182.1620  178.4020  138.7830 N   0  0  0  0  0  0  0  0  0  0  0  0
  183.6670  179.0330  140.6590 N   0  0  0  0  0  2  0  0  0  0  0  0
  180.5520  177.8800  136.8650 C   0  0  0  0  0  2  0  0  0  0  0  0
  181.1310  177.5110  135.5420 C   0  0  0  0  0  0  0  0  0  0  0  0
  182.2500  177.9680  135.1950 O   0  0  0  0  0  1  0  0  0  0  0  0
  180.4510  176.6350  134.7060 O   0  0  0  0  0  0  0  0  0  0  0  0
  1  6  1  0  0  0  0
  1  9  2  0  0  0  0
  2  5  1  0  0  0  0
  3  2  1  0  0  0  0
  3  7  1  6  0  0  0
  5 16  2  0  0  0  0
  5 14  1  0  0  0  0
  7  4  1  0  0  0  0
  8 12  2  0  0  0  0
 10 18  2  0  0  0  0
 10 19  1  0  0  0  0
 11  4  2  0  0  0  0
 12 16  1  0  0  0  0
 13  8  1  0  0  0  0
 13  2  2  0  0  0  0
 14  1  1  0  0  0  0
 15 20  1  0  0  0  0
 15 11  1  0  0  0  0
 16 17  1  0  0  0  0
 17  6  1  0  0  0  0
 18 13  1  0  0  0  0
 19  3  1  0  0  0  0
 20 19  1  0  0  0  0
 21 26  1  0  0  0  0
 24 23  2  0  0  0  0
 24 27  1  0  0  0  0
 25 22  2  0  0  0  0
 25 26  1  0  0  0  0
 26 24  1  0  0  0  0
 27  8  1  0  0  0  0
 28 25  1  0  0  0  0
 29 28  1  0  0  0  0
 30 29  1  0  0  0  0
 31 29  2  0  0  0  0
M  END
>  <MODEL>
4

>  <REMARK>
 VINA RESULT:      -7.7      5.241      8.502
  Name = 
  3 active torsions:
  status: ('A' for Active; 'I' for Inactive)
    1  A    between atoms: C_1  and  C_24
    2  A    between atoms: C_15  and  N_23
    3  A    between atoms: C_19  and  C_24
                            x       y       z     vdW  Elec       q    Type
                         _______ _______ _______ _____ _____    ______ ____

>  <TORSDO>
F 3

$$$$
=
 OpenBabel10272400313D

 31 34  0  0  1  0  0  0  0  0999 V2000
  183.9140  179.0100  143.0090 C   0  0  0  0  0  0  0  0  0  0  0  0
  187.3770  178.3700  141.8330 C   0  0  0  0  0  0  0  0  0  0  0  0
  188.1000  178.2250  143.1510 C   0  0  1  0  0  3  0  0  0  0  0  0
  187.9820  176.9290  145.2790 C   0  0  0  0  0  3  0  0  0  0  0  0
  186.0090  178.6740  141.8100 C   0  0  0  0  0  0  0  0  0  0  0  0
  183.1320  178.7080  141.7680 C   0  0  0  0  0  2  0  0  0  0  0  0
  187.7280  176.8960  143.8010 C   0  0  0  0  0  2  0  0  0  0  0  0
  187.3420  178.1890  139.4100 C   0  0  0  0  0  0  0  0  0  0  0  0
  183.3130  179.2950  144.0770 O   0  0  0  0  0  0  0  0  0  0  0  0
  190.1990  177.9540  141.7580 C   0  0  0  0  0  3  0  0  0  0  0  0
  189.1980  177.0880  145.8180 C   0  0  0  0  0  3  0  0  0  0  0  0
  186.0160  178.5000  139.4230 N   0  0  0  0  0  0  0  0  0  0  0  0
  188.0520  178.1270  140.6210 C   0  0  0  0  0  0  0  0  0  0  0  0
  185.3080  178.9080  142.9990 O   0  0  0  0  0  0  0  0  0  0  0  0
  190.4510  177.2480  145.0050 C   0  0  0  0  0  2  0  0  0  0  0  0
  185.3390  178.7320  140.5780 C   0  0  0  0  0  0  0  0  0  0  0  0
  183.9020  179.1590  140.5260 C   0  0  0  0  0  2  0  0  0  0  0  0
  189.4990  177.8550  140.6310 C   0  0  0  0  0  3  0  0  0  0  0  0
  189.5600  178.3110  142.9900 N   0  0  0  0  0  0  0  0  0  0  0  0
  190.3980  178.5160  144.1620 C   0  0  0  0  0  2  0  0  0  0  0  0
  189.3420  177.8290  135.6540 C   0  0  0  0  0  1  0  0  0  0  0  0
  189.1470  174.2370  136.3110 O   0  0  0  0  0  0  0  0  0  0  0  0
  187.9280  175.6140  138.1820 O   0  0  0  0  0  0  0  0  0  0  0  0
  188.2970  176.6640  137.5900 C   0  0  0  0  0  0  0  0  0  0  0  0
  189.3490  175.3290  135.7140 C   0  0  0  0  0  0  0  0  0  0  0  0
  188.9890  176.5850  136.3280 N   0  0  0  0  0  0  0  0  0  0  0  0
  188.0230  177.9490  138.1700 N   0  0  0  0  0  2  0  0  0  0  0  0
  189.9520  175.2880  134.3460 C   0  0  0  0  0  2  0  0  0  0  0  0
  191.4050  174.9700  134.4320 C   0  0  0  0  0  0  0  0  0  0  0  0
  191.7940  173.7770  134.3470 O   0  0  0  0  0  0  0  0  0  0  0  0
  192.3330  175.9930  134.5710 O   0  0  0  0  0  1  0  0  0  0  0  0
  1  9  2  0  0  0  0
  2  3  1  0  0  0  0
  3  7  1  6  0  0  0
  4 11  2  0  0  0  0
  5  2  1  0  0  0  0
  5 14  1  0  0  0  0
  6  1  1  0  0  0  0
  7  4  1  0  0  0  0
  8 12  2  0  0  0  0
  8 13  1  0  0  0  0
 10 19  1  0  0  0  0
 12 16  1  0  0  0  0
 13 18  1  0  0  0  0
 13  2  2  0  0  0  0
 14  1  1  0  0  0  0
 15 11  1  0  0  0  0
 16  5  2  0  0  0  0
 17 16  1  0  0  0  0
 17  6  1  0  0  0  0
 18 10  2  0  0  0  0
 19  3  1  0  0  0  0
 19 20  1  0  0  0  0
 20 15  1  0  0  0  0
 21 26  1  0  0  0  0
 24 27  1  0  0  0  0
 24 23  2  0  0  0  0
 25 22  2  0  0  0  0
 25 26  1  0  0  0  0
 26 24  1  0  0  0  0
 27  8  1  0  0  0  0
 28 29  1  0  0  0  0
 28 25  1  0  0  0  0
 29 31  1  0  0  0  0
 30 29  2  0  0  0  0
M  END
>  <MODEL>
5

>  <REMARK>
 VINA RESULT:      -7.5      2.625      3.406
  Name = 
  3 active torsions:
  status: ('A' for Active; 'I' for Inactive)
    1  A    between atoms: C_1  and  C_24
    2  A    between atoms: C_15  and  N_23
    3  A    between atoms: C_19  and  C_24
                            x       y       z     vdW  Elec       q    Type
                         _______ _______ _______ _____ _____    ______ ____

>  <TORSDO>
F 3

$$$$
=
 OpenBabel10272400313D

 31 34  0  0  1  0  0  0  0  0999 V2000
  192.7410  174.9700  135.7420 C   0  0  0  0  0  0  0  0  0  0  0  0
  190.2930  176.9150  137.7440 C   0  0  0  0  0  0  0  0  0  0  0  0
  189.1280  176.9750  136.7850 C   0  0  1  0  0  3  0  0  0  0  0  0
  187.6730  175.4690  135.4290 C   0  0  0  0  0  3  0  0  0  0  0  0
  191.4880  176.2910  137.3630 C   0  0  0  0  0  0  0  0  0  0  0  0
  193.6910  174.5230  136.8110 C   0  0  0  0  0  2  0  0  0  0  0  0
  188.4610  175.6050  136.6990 C   0  0  0  0  0  2  0  0  0  0  0  0
  191.2310  177.2830  139.9550 C   0  0  0  0  0  0  0  0  0  0  0  0
  192.8970  174.5750  134.5570 O   0  0  0  0  0  0  0  0  0  0  0  0
  187.9860  178.3890  138.5500 C   0  0  0  0  0  3  0  0  0  0  0  0
  186.6140  176.2330  135.1280 C   0  0  0  0  0  3  0  0  0  0  0  0
  192.3830  176.6820  139.5480 N   0  0  0  0  0  0  0  0  0  0  0  0
  190.1630  177.4190  139.0530 C   0  0  0  0  0  0  0  0  0  0  0  0
  191.6430  175.7690  136.0730 O   0  0  0  0  0  0  0  0  0  0  0  0
  186.0900  177.3140  136.0290 C   0  0  0  0  0  2  0  0  0  0  0  0
  192.5330  176.1820  138.2940 C   0  0  0  0  0  0  0  0  0  0  0  0
  193.8550  175.6110  137.8720 C   0  0  0  0  0  2  0  0  0  0  0  0
  188.9300  178.1200  139.4480 C   0  0  0  0  0  3  0  0  0  0  0  0
  188.1390  177.9880  137.1830 N   0  0  0  0  0  0  0  0  0  0  0  0
  187.1270  178.4130  136.2270 C   0  0  0  0  0  2  0  0  0  0  0  0
  191.1540  179.0280  143.8530 C   0  0  0  0  0  1  0  0  0  0  0  0
  188.5620  176.5360  144.5160 O   0  0  0  0  0  0  0  0  0  0  0  0
  189.5610  176.2510  142.1070 O   0  0  0  0  0  0  0  0  0  0  0  0
  190.2760  177.2660  142.3300 C   0  0  0  0  0  0  0  0  0  0  0  0
  189.4110  177.4500  144.7010 C   0  0  0  0  0  0  0  0  0  0  0  0
  190.2660  177.8940  143.6260 N   0  0  0  0  0  0  0  0  0  0  0  0
  191.1100  177.7990  141.2890 N   0  0  0  0  0  2  0  0  0  0  0  0
  189.5220  178.0450  146.0690 C   0  0  0  0  0  2  0  0  0  0  0  0
  189.7080  176.9720  147.0860 C   0  0  0  0  0  0  0  0  0  0  0  0
  190.8490  176.4790  147.2790 O   0  0  0  0  0  0  0  0  0  0  0  0
  188.6280  176.5400  147.8450 O   0  0  0  0  0  1  0  0  0  0  0  0
  1 14  1  0  0  0  0
  1  6  1  0  0  0  0
  2 13  2  0  0  0  0
  3  7  1  1  0  0  0
  3 19  1  0  0  0  0
  3  2  1  0  0  0  0
  4  7  1  0  0  0  0
  5  2  1  0  0  0  0
  5 16  2  0  0  0  0
  6 17  1  0  0  0  0
  8 27  1  0  0  0  0
  9  1  2  0  0  0  0
 10 18  2  0  0  0  0
 11  4  2  0  0  0  0
 11 15  1  0  0  0  0
 12  8  2  0  0  0  0
 13 18  1  0  0  0  0
 13  8  1  0  0  0  0
 14  5  1  0  0  0  0
 15 20  1  0  0  0  0
 16 12  1  0  0  0  0
 17 16  1  0  0  0  0
 19 10  1  0  0  0  0
 20 19  1  0  0  0  0
 22 25  2  0  0  0  0
 23 24  2  0  0  0  0
 24 26  1  0  0  0  0
 25 28  1  0  0  0  0
 26 21  1  0  0  0  0
 26 25  1  0  0  0  0
 27 24  1  0  0  0  0
 28 29  1  0  0  0  0
 29 30  2  0  0  0  0
 29 31  1  0  0  0  0
M  END
>  <MODEL>
6

>  <REMARK>
 VINA RESULT:      -7.4      2.904      8.004
  Name = 
  3 active torsions:
  status: ('A' for Active; 'I' for Inactive)
    1  A    between atoms: C_1  and  C_24
    2  A    between atoms: C_15  and  N_23
    3  A    between atoms: C_19  and  C_24
                            x       y       z     vdW  Elec       q    Type
                         _______ _______ _______ _____ _____    ______ ____

>  <TORSDO>
F 3

$$$$
=
 OpenBabel10272400313D

 31 34  0  0  1  0  0  0  0  0999 V2000
  185.5810  179.2950  142.1440 C   0  0  0  0  0  0  0  0  0  0  0  0
  188.9140  177.6610  142.2350 C   0  0  0  0  0  0  0  0  0  0  0  0
  189.2400  177.7660  143.7050 C   0  0  1  0  0  3  0  0  0  0  0  0
  188.2770  177.1990  145.9360 C   0  0  0  0  0  3  0  0  0  0  0  0
  187.7270  178.2120  141.7350 C   0  0  0  0  0  0  0  0  0  0  0  0
  185.0610  178.8050  140.8280 C   0  0  0  0  0  2  0  0  0  0  0  0
  188.3780  176.7870  144.4970 C   0  0  0  0  0  2  0  0  0  0  0  0
  189.4020  176.7900  140.0190 C   0  0  0  0  0  0  0  0  0  0  0  0
  184.8480  179.9930  142.8900 O   0  0  0  0  0  0  0  0  0  0  0  0
  191.4520  176.6860  143.1030 C   0  0  0  0  0  3  0  0  0  0  0  0
  189.3290  177.2620  146.7630 C   0  0  0  0  0  3  0  0  0  0  0  0
  188.2460  177.3490  139.5640 N   0  0  0  0  0  0  0  0  0  0  0  0
  189.7630  176.9440  141.3670 C   0  0  0  0  0  0  0  0  0  0  0  0
  186.8560  178.9180  142.5750 O   0  0  0  0  0  0  0  0  0  0  0  0
  190.7320  176.9250  146.3490 C   0  0  0  0  0  2  0  0  0  0  0  0
  187.4070  178.0390  140.3790 C   0  0  0  0  0  0  0  0  0  0  0  0
  186.1940  178.7100  139.8050 C   0  0  0  0  0  2  0  0  0  0  0  0
  191.0360  176.4040  141.8710 C   0  0  0  0  0  3  0  0  0  0  0  0
  190.6630  177.5080  143.9730 N   0  0  0  0  0  0  0  0  0  0  0  0
  191.2260  177.8750  145.2650 C   0  0  0  0  0  2  0  0  0  0  0  0
  191.7560  174.3480  137.4240 C   0  0  0  0  0  1  0  0  0  0  0  0
  193.9610  177.2620  137.2850 O   0  0  0  0  0  0  0  0  0  0  0  0
  191.9650  177.6580  138.9410 O   0  0  0  0  0  0  0  0  0  0  0  0
  191.5230  176.5230  138.6130 C   0  0  0  0  0  0  0  0  0  0  0  0
  193.5250  176.0900  137.1250 C   0  0  0  0  0  0  0  0  0  0  0  0
  192.2790  175.6750  137.7260 N   0  0  0  0  0  0  0  0  0  0  0  0
  190.2630  176.0670  139.1270 N   0  0  0  0  0  2  0  0  0  0  0  0
  194.3420  175.1350  136.3140 C   0  0  0  0  0  2  0  0  0  0  0  0
  195.5210  174.6690  137.0970 C   0  0  0  0  0  0  0  0  0  0  0  0
  196.6740  174.7410  136.6010 O   0  0  0  0  0  0  0  0  0  0  0  0
  195.3500  174.1880  138.3890 O   0  0  0  0  0  1  0  0  0  0  0  0
  1 14  1  0  0  0  0
  1  9  2  0  0  0  0
  2  3  1  0  0  0  0
  3 19  1  0  0  0  0
  3  7  1  1  0  0  0
  4 11  2  0  0  0  0
  5  2  1  0  0  0  0
  5 14  1  0  0  0  0
  6  1  1  0  0  0  0
  7  4  1  0  0  0  0
  8 13  1  0  0  0  0
 10 19  1  0  0  0  0
 12  8  2  0  0  0  0
 12 16  1  0  0  0  0
 13 18  1  0  0  0  0
 13  2  2  0  0  0  0
 15 11  1  0  0  0  0
 16  5  2  0  0  0  0
 17 16  1  0  0  0  0
 17  6  1  0  0  0  0
 18 10  2  0  0  0  0
 19 20  1  0  0  0  0
 20 15  1  0  0  0  0
 21 26  1  0  0  0  0
 24 23  2  0  0  0  0
 24 27  1  0  0  0  0
 25 22  2  0  0  0  0
 25 26  1  0  0  0  0
 26 24  1  0  0  0  0
 27  8  1  0  0  0  0
 28 29  1  0  0  0  0
 28 25  1  0  0  0  0
 29 31  1  0  0  0  0
 30 29  2  0  0  0  0
M  END
>  <MODEL>
7

>  <REMARK>
 VINA RESULT:      -7.3      1.813      2.134
  Name = 
  3 active torsions:
  status: ('A' for Active; 'I' for Inactive)
    1  A    between atoms: C_1  and  C_24
    2  A    between atoms: C_15  and  N_23
    3  A    between atoms: C_19  and  C_24
                            x       y       z     vdW  Elec       q    Type
                         _______ _______ _______ _____ _____    ______ ____

>  <TORSDO>
F 3

$$$$
=
 OpenBabel10272400313D

 31 34  0  0  1  0  0  0  0  0999 V2000
  184.9930  178.7820  145.5460 C   0  0  0  0  0  0  0  0  0  0  0  0
  188.1320  178.1890  143.6540 C   0  0  0  0  0  0  0  0  0  0  0  0
  189.0970  177.9240  144.7840 C   0  0  1  0  0  3  0  0  0  0  0  0
  189.3620  176.4570  146.7850 C   0  0  0  0  0  3  0  0  0  0  0  0
  186.7970  178.5150  143.9290 C   0  0  0  0  0  0  0  0  0  0  0  0
  183.9710  178.5960  144.4670 C   0  0  0  0  0  2  0  0  0  0  0  0
  188.8190  176.5510  145.3890 C   0  0  0  0  0  2  0  0  0  0  0  0
  187.6110  178.2110  141.2800 C   0  0  0  0  0  0  0  0  0  0  0  0
  184.6250  178.9860  146.7320 O   0  0  0  0  0  0  0  0  0  0  0  0
  190.8680  177.7380  142.9820 C   0  0  0  0  0  3  0  0  0  0  0  0
  190.6660  176.5520  147.0790 C   0  0  0  0  0  3  0  0  0  0  0  0
  186.3250  178.5390  141.5830 N   0  0  0  0  0  0  0  0  0  0  0  0
  188.5450  178.0370  142.3150 C   0  0  0  0  0  0  0  0  0  0  0  0
  186.3530  178.6590  145.2490 O   0  0  0  0  0  0  0  0  0  0  0  0
  191.7370  176.7600  146.0480 C   0  0  0  0  0  2  0  0  0  0  0  0
  185.8980  178.6850  142.8640 C   0  0  0  0  0  0  0  0  0  0  0  0
  184.4930  179.1360  143.1350 C   0  0  0  0  0  2  0  0  0  0  0  0
  189.9560  177.7440  142.0140 C   0  0  0  0  0  3  0  0  0  0  0  0
  190.4980  178.0000  144.3410 N   0  0  0  0  0  0  0  0  0  0  0  0
  191.5580  178.0950  145.3350 C   0  0  0  0  0  2  0  0  0  0  0  0
  189.1810  177.8310  137.3260 C   0  0  0  0  0  1  0  0  0  0  0  0
  185.6630  177.6880  136.3390 O   0  0  0  0  0  0  0  0  0  0  0  0
  185.9110  178.1050  138.9170 O   0  0  0  0  0  0  0  0  0  0  0  0
  187.1600  178.0150  138.7680 C   0  0  0  0  0  0  0  0  0  0  0  0
  186.9200  177.7550  136.2620 C   0  0  0  0  0  0  0  0  0  0  0  0
  187.7290  177.8700  137.4520 N   0  0  0  0  0  0  0  0  0  0  0  0
  188.0250  178.0640  139.9140 N   0  0  0  0  0  2  0  0  0  0  0  0
  187.5480  177.7340  134.9050 C   0  0  0  0  0  2  0  0  0  0  0  0
  187.8710  176.3350  134.5070 C   0  0  0  0  0  0  0  0  0  0  0  0
  189.0690  175.9870  134.3460 O   0  0  0  0  0  0  0  0  0  0  0  0
  186.8510  175.4050  134.3480 O   0  0  0  0  0  1  0  0  0  0  0  0
  1  9  2  0  0  0  0
  2  5  1  0  0  0  0
  2  3  1  0  0  0  0
  3  7  1  6  0  0  0
  4 11  2  0  0  0  0
  5 14  1  0  0  0  0
  6  1  1  0  0  0  0
  7  4  1  0  0  0  0
  8 12  2  0  0  0  0
  8 13  1  0  0  0  0
 10 19  1  0  0  0  0
 12 16  1  0  0  0  0
 13  2  2  0  0  0  0
 14  1  1  0  0  0  0
 15 11  1  0  0  0  0
 16 17  1  0  0  0  0
 16  5  2  0  0  0  0
 17  6  1  0  0  0  0
 18 13  1  0  0  0  0
 18 10  2  0  0  0  0
 19  3  1  0  0  0  0
 19 20  1  0  0  0  0
 20 15  1  0  0  0  0
 21 26  1  0  0  0  0
 24 23  2  0  0  0  0
 24 27  1  0  0  0  0
 25 22  2  0  0  0  0
 25 26  1  0  0  0  0
 26 24  1  0  0  0  0
 27  8  1  0  0  0  0
 28 25  1  0  0  0  0
 29 28  1  0  0  0  0
 30 29  2  0  0  0  0
 31 29  1  0  0  0  0
M  END
>  <MODEL>
8

>  <REMARK>
 VINA RESULT:      -7.2      3.844      5.261
  Name = 
  3 active torsions:
  status: ('A' for Active; 'I' for Inactive)
    1  A    between atoms: C_1  and  C_24
    2  A    between atoms: C_15  and  N_23
    3  A    between atoms: C_19  and  C_24
                            x       y       z     vdW  Elec       q    Type
                         _______ _______ _______ _____ _____    ______ ____

>  <TORSDO>
F 3

$$$$
=
 OpenBabel10272400313D

 31 34  0  0  1  0  0  0  0  0999 V2000
  190.0040  176.6620  146.2610 C   0  0  0  0  0  0  0  0  0  0  0  0
  187.6890  177.6980  143.5500 C   0  0  0  0  0  0  0  0  0  0  0  0
  186.4160  177.9150  144.3340 C   0  0  1  0  0  3  0  0  0  0  0  0
  185.5650  179.1760  146.3110 C   0  0  0  0  0  3  0  0  0  0  0  0
  188.8450  177.2410  144.1970 C   0  0  0  0  0  0  0  0  0  0  0  0
  191.3310  176.8820  145.6010 C   0  0  0  0  0  2  0  0  0  0  0  0
  186.5330  179.1900  145.1650 C   0  0  0  0  0  2  0  0  0  0  0  0
  188.9600  177.8900  141.4880 C   0  0  0  0  0  0  0  0  0  0  0  0
  189.9530  176.3040  147.4660 O   0  0  0  0  0  0  0  0  0  0  0  0
  185.3450  178.4310  142.0960 C   0  0  0  0  0  3  0  0  0  0  0  0
  184.2340  179.1520  146.1560 C   0  0  0  0  0  3  0  0  0  0  0  0
  190.0610  177.4310  142.1440 N   0  0  0  0  0  0  0  0  0  0  0  0
  187.7450  178.0240  142.1800 C   0  0  0  0  0  0  0  0  0  0  0  0
  188.8240  176.9220  145.5600 O   0  0  0  0  0  0  0  0  0  0  0  0
  183.5550  179.1400  144.8170 C   0  0  0  0  0  2  0  0  0  0  0  0
  190.0370  177.1160  143.4650 C   0  0  0  0  0  0  0  0  0  0  0  0
  191.2550  176.5300  144.1150 C   0  0  0  0  0  2  0  0  0  0  0  0
  186.5240  178.4580  141.4810 C   0  0  0  0  0  3  0  0  0  0  0  0
  185.2370  177.9970  143.4580 N   0  0  0  0  0  0  0  0  0  0  0  0
  183.9070  177.8800  144.0360 C   0  0  0  0  0  2  0  0  0  0  0  0
  188.9820  179.1630  137.4110 C   0  0  0  0  0  1  0  0  0  0  0  0
  190.3330  175.8280  136.7610 O   0  0  0  0  0  0  0  0  0  0  0  0
  189.7360  176.1340  139.2970 O   0  0  0  0  0  0  0  0  0  0  0  0
  189.4120  177.3240  139.0330 C   0  0  0  0  0  0  0  0  0  0  0  0
  189.8550  176.9780  136.5650 C   0  0  0  0  0  0  0  0  0  0  0  0
  189.4230  177.7970  137.6720 N   0  0  0  0  0  0  0  0  0  0  0  0
  189.0250  178.2140  140.0910 N   0  0  0  0  0  2  0  0  0  0  0  0
  189.7310  177.4620  135.1550 C   0  0  0  0  0  2  0  0  0  0  0  0
  188.4110  177.0650  134.5880 C   0  0  0  0  0  0  0  0  0  0  0  0
  188.1650  175.8530  134.3580 O   0  0  0  0  0  1  0  0  0  0  0  0
  187.4400  178.0280  134.3460 O   0  0  0  0  0  0  0  0  0  0  0  0
  1  9  2  0  0  0  0
  2  5  1  0  0  0  0
  2  3  1  0  0  0  0
  3  7  1  6  0  0  0
  5 14  1  0  0  0  0
  6  1  1  0  0  0  0
  7  4  1  0  0  0  0
  8 12  2  0  0  0  0
  8 13  1  0  0  0  0
 10 19  1  0  0  0  0
 11  4  2  0  0  0  0
 12 16  1  0  0  0  0
 13  2  2  0  0  0  0
 14  1  1  0  0  0  0
 15 11  1  0  0  0  0
 16 17  1  0  0  0  0
 16  5  2  0  0  0  0
 17  6  1  0  0  0  0
 18 10  2  0  0  0  0
 18 13  1  0  0  0  0
 19 20  1  0  0  0  0
 19  3  1  0  0  0  0
 20 15  1  0  0  0  0
 21 26  1  0  0  0  0
 24 23  2  0  0  0  0
 24 27  1  0  0  0  0
 25 22  2  0  0  0  0
 25 26  1  0  0  0  0
 26 24  1  0  0  0  0
 27  8  1  0  0  0  0
 28 25  1  0  0  0  0
 29 28  1  0  0  0  0
 30 29  1  0  0  0  0
 31 29  2  0  0  0  0
M  END
>  <MODEL>
9

>  <REMARK>
 VINA RESULT:      -7.2      3.435      5.765
  Name = 
  3 active torsions:
  status: ('A' for Active; 'I' for Inactive)
    1  A    between atoms: C_1  and  C_24
    2  A    between atoms: C_15  and  N_23
    3  A    between atoms: C_19  and  C_24
                            x       y       z     vdW  Elec       q    Type
                         _______ _______ _______ _____ _____    ______ ____

>  <TORSDO>
F 3

$$$$
