=
 OpenBabel10272400223D

 31 34  0  0  1  0  0  0  0  0999 V2000
  188.4630  178.3670  139.8760 C   0  0  0  0  0  0  0  0  0  0  0  0
  185.8810  178.9380  142.8090 C   0  0  2  0  0  3  0  0  0  0  0  0
  184.3520  178.6520  142.4860 C   0  0  0  0  0  0  0  0  0  0  0  0
  184.6640  177.8540  140.2290 O   0  0  0  0  0  1  0  0  0  0  0  0
  187.1040  178.3820  141.9440 C   0  0  0  0  0  0  0  0  0  0  0  0
  189.2600  177.3650  140.4430 C   0  0  0  0  0  3  0  0  0  0  0  0
  183.7830  178.1640  141.2530 C   0  0  0  0  0  0  0  0  0  0  0  0
  186.6970  177.2660  144.4790 C   0  0  2  0  0  3  0  0  0  0  0  0
  189.0430  178.6860  138.2470 Cl  0  0  0  0  0  0  0  0  0  0  0  0
  183.8210  179.5590  144.6410 C   0  0  0  0  0  2  0  0  0  0  0  0
  182.4240  177.9980  141.0730 C   0  0  0  0  0  3  0  0  0  0  0  0
  187.7070  176.6480  143.6110 C   0  0  0  0  0  2  0  0  0  0  0  0
  186.2060  178.6860  144.3220 C   0  0  2  0  0  3  0  0  0  0  0  0
  187.3720  178.9140  140.6140 C   0  0  0  0  0  3  0  0  0  0  0  0
  181.5140  178.3480  142.0840 C   0  0  0  0  0  3  0  0  0  0  0  0
  187.8610  177.3100  142.3650 C   0  0  0  0  0  0  0  0  0  0  0  0
  189.0040  176.8040  141.6160 C   0  0  0  0  0  3  0  0  0  0  0  0
  184.9650  178.7770  145.2390 C   0  0  0  0  0  2  0  0  0  0  0  0
  183.4110  178.9910  143.3940 C   0  0  0  0  0  0  0  0  0  0  0  0
  181.9910  178.8850  143.2360 C   0  0  0  0  0  3  0  0  0  0  0  0
  187.5350  177.2190  148.6250 C   0  0  0  0  0  1  0  0  0  0  0  0
  189.0220  178.4040  145.5650 O   0  0  0  0  0  0  0  0  0  0  0  0
  188.2870  177.7170  146.3160 C   0  0  0  0  0  0  0  0  0  0  0  0
  188.6090  177.5140  147.6350 N   0  0  0  0  0  0  0  0  0  0  0  0
  187.2230  176.9530  145.7330 N   0  0  0  0  0  2  0  0  0  0  0  0
  189.6260  178.2890  148.2430 C   0  0  0  0  0  2  0  0  0  0  0  0
  190.9600  177.4710  148.1960 C   0  0  0  0  0  2  0  0  0  0  0  0
  191.8380  175.9860  146.2920 C   0  0  0  0  0  0  0  0  0  0  0  0
  191.6290  176.5220  144.9800 C   0  0  0  0  0  1  0  0  0  0  0  0
  192.6390  175.0180  146.5890 O   0  0  0  0  0  0  0  0  0  0  0  0
  190.8290  176.3260  147.3590 N   0  0  0  0  0  2  0  0  0  0  0  0
  1  6  2  0  0  0  0
  1 14  1  0  0  0  0
  2  5  1  6  0  0  0
  2 13  1  0  0  0  0
  3  2  1  0  0  0  0
  3 19  1  0  0  0  0
  4  7  1  0  0  0  0
  5 16  1  0  0  0  0
  6 17  1  0  0  0  0
  7  3  2  0  0  0  0
  8 25  1  1  0  0  0
  9  1  1  0  0  0  0
 10 18  1  0  0  0  0
 11  7  1  0  0  0  0
 11 15  2  0  0  0  0
 12  8  1  0  0  0  0
 13  8  1  0  0  0  0
 13 18  1  1  0  0  0
 14  5  2  0  0  0  0
 15 20  1  0  0  0  0
 16 12  1  0  0  0  0
 17 16  2  0  0  0  0
 19 10  1  0  0  0  0
 20 19  2  0  0  0  0
 22 23  2  0  0  0  0
 23 24  1  0  0  0  0
 24 26  1  0  0  0  0
 24 21  1  0  0  0  0
 25 23  1  0  0  0  0
 27 26  1  0  0  0  0
 28 30  2  0  0  0  0
 28 31  1  0  0  0  0
 29 28  1  0  0  0  0
 31 27  1  0  0  0  0
M  END
>  <MODEL>
1

>  <REMARK>
 VINA RESULT:      -8.4      0.000      0.000
  Name = 
  4 active torsions:
  status: ('A' for Active; 'I' for Inactive)
    1  A    between atoms: C_6  and  C_19
    2  A    between atoms: C_6  and  N_22
    3  A    between atoms: C_15  and  N_23
    4  A    between atoms: C_19  and  N_24
                            x       y       z     vdW  Elec       q    Type
                         _______ _______ _______ _____ _____    ______ ____

>  <TORSDO>
F 4

$$$$
=
 OpenBabel10272400223D

 31 34  0  0  1  0  0  0  0  0999 V2000
  189.7620  176.9210  140.1550 C   0  0  0  0  0  0  0  0  0  0  0  0
  187.6160  177.0790  143.4660 C   0  0  2  0  0  3  0  0  0  0  0  0
  188.3770  177.5020  144.7950 C   0  0  0  0  0  0  0  0  0  0  0  0
  190.5270  177.9370  143.7880 O   0  0  0  0  0  1  0  0  0  0  0  0
  188.1590  177.3570  141.9900 C   0  0  0  0  0  0  0  0  0  0  0  0
  189.0980  177.8870  139.3880 C   0  0  0  0  0  3  0  0  0  0  0  0
  189.7610  177.8820  144.9410 C   0  0  0  0  0  0  0  0  0  0  0  0
  185.9610  178.8530  142.8650 C   0  0  2  0  0  3  0  0  0  0  0  0
  191.1260  176.3130  139.2280 Cl  0  0  0  0  0  0  0  0  0  0  0  0
  186.3740  176.9720  146.0030 C   0  0  0  0  0  2  0  0  0  0  0  0
  190.3260  178.1860  146.1650 C   0  0  0  0  0  3  0  0  0  0  0  0
  186.5720  179.2170  141.5800 C   0  0  0  0  0  2  0  0  0  0  0  0
  186.1050  177.4950  143.5110 C   0  0  2  0  0  3  0  0  0  0  0  0
  189.3040  176.6190  141.4710 C   0  0  0  0  0  3  0  0  0  0  0  0
  189.5770  178.0920  147.3490 C   0  0  0  0  0  3  0  0  0  0  0  0
  187.6540  178.3760  141.2120 C   0  0  0  0  0  0  0  0  0  0  0  0
  188.1040  178.6310  139.8500 C   0  0  0  0  0  3  0  0  0  0  0  0
  185.5640  177.6830  144.9470 C   0  0  0  0  0  2  0  0  0  0  0  0
  187.7350  177.4080  145.9810 C   0  0  0  0  0  0  0  0  0  0  0  0
  188.2910  177.6640  147.2770 C   0  0  0  0  0  3  0  0  0  0  0  0
  181.7590  179.2950  143.0730 C   0  0  0  0  0  1  0  0  0  0  0  0
  184.2240  177.7140  140.9750 O   0  0  0  0  0  0  0  0  0  0  0  0
  183.7480  178.5150  141.8160 C   0  0  0  0  0  0  0  0  0  0  0  0
  182.4140  178.8400  141.8140 N   0  0  0  0  0  0  0  0  0  0  0  0
  184.6470  179.2690  142.6410 N   0  0  0  0  0  2  0  0  0  0  0  0
  181.5020  178.0810  141.0430 C   0  0  0  0  0  2  0  0  0  0  0  0
  180.7200  179.0600  140.1050 C   0  0  0  0  0  2  0  0  0  0  0  0
  182.2530  180.6420  138.7820 C   0  0  0  0  0  0  0  0  0  0  0  0
  181.5820  181.7650  138.1990 C   0  0  0  0  0  1  0  0  0  0  0  0
  183.5290  180.5250  138.9310 O   0  0  0  0  0  0  0  0  0  0  0  0
  181.4740  179.3600  138.9350 N   0  0  0  0  0  2  0  0  0  0  0  0
  1 14  1  0  0  0  0
  2  5  1  6  0  0  0
  2 13  1  0  0  0  0
  2  3  1  0  0  0  0
  3  7  2  0  0  0  0
  3 19  1  0  0  0  0
  4  7  1  0  0  0  0
  6 17  1  0  0  0  0
  6  1  2  0  0  0  0
  7 11  1  0  0  0  0
  8 25  1  6  0  0  0
  8 13  1  0  0  0  0
  9  1  1  0  0  0  0
 11 15  2  0  0  0  0
 12  8  1  0  0  0  0
 13 18  1  1  0  0  0
 14  5  2  0  0  0  0
 16 12  1  0  0  0  0
 16  5  1  0  0  0  0
 17 16  2  0  0  0  0
 18 10  1  0  0  0  0
 19 10  1  0  0  0  0
 19 20  2  0  0  0  0
 20 15  1  0  0  0  0
 22 23  2  0  0  0  0
 23 25  1  0  0  0  0
 24 23  1  0  0  0  0
 24 21  1  0  0  0  0
 26 24  1  0  0  0  0
 27 26  1  0  0  0  0
 28 30  2  0  0  0  0
 28 31  1  0  0  0  0
 29 28  1  0  0  0  0
 31 27  1  0  0  0  0
M  END
>  <MODEL>
2

>  <REMARK>
 VINA RESULT:      -8.3      2.787      7.388
  Name = 
  4 active torsions:
  status: ('A' for Active; 'I' for Inactive)
    1  A    between atoms: C_6  and  C_19
    2  A    between atoms: C_6  and  N_22
    3  A    between atoms: C_15  and  N_23
    4  A    between atoms: C_19  and  N_24
                            x       y       z     vdW  Elec       q    Type
                         _______ _______ _______ _____ _____    ______ ____

>  <TORSDO>
F 4

$$$$
=
 OpenBabel10272400223D

 31 34  0  0  1  0  0  0  0  0999 V2000
  192.0940  176.1110  136.2930 C   0  0  0  0  0  0  0  0  0  0  0  0
  188.6240  177.3870  137.6780 C   0  0  2  0  0  3  0  0  0  0  0  0
  187.3480  176.4990  137.3480 C   0  0  0  0  0  0  0  0  0  0  0  0
  188.5090  174.7120  136.2150 O   0  0  0  0  0  1  0  0  0  0  0  0
  190.1310  176.8640  137.5980 C   0  0  0  0  0  0  0  0  0  0  0  0
  192.7850  175.9260  137.4970 C   0  0  0  0  0  3  0  0  0  0  0  0
  187.3010  175.2480  136.6320 C   0  0  0  0  0  0  0  0  0  0  0  0
  189.0540  177.3270  140.1400 C   0  0  2  0  0  3  0  0  0  0  0  0
  193.1380  175.6120  134.9690 Cl  0  0  0  0  0  0  0  0  0  0  0  0
  186.0020  178.2430  138.2960 C   0  0  0  0  0  2  0  0  0  0  0  0
  186.1180  174.5870  136.3630 C   0  0  0  0  0  3  0  0  0  0  0  0
  190.3730  176.6870  140.0580 C   0  0  0  0  0  2  0  0  0  0  0  0
  188.4520  178.1590  139.0320 C   0  0  2  0  0  3  0  0  0  0  0  0
  190.7540  176.5970  136.3070 C   0  0  0  0  0  3  0  0  0  0  0  0
  184.8820  175.1370  136.7390 C   0  0  0  0  0  3  0  0  0  0  0  0
  190.8440  176.5310  138.7290 C   0  0  0  0  0  0  0  0  0  0  0  0
  192.2300  176.0850  138.6900 C   0  0  0  0  0  3  0  0  0  0  0  0
  186.9750  178.3530  139.4440 C   0  0  0  0  0  2  0  0  0  0  0  0
  186.1190  176.9740  137.6480 C   0  0  0  0  0  0  0  0  0  0  0  0
  184.8640  176.3500  137.3460 C   0  0  0  0  0  3  0  0  0  0  0  0
  190.4900  178.7300  143.8630 C   0  0  0  0  0  1  0  0  0  0  0  0
  188.2240  176.2350  142.5900 O   0  0  0  0  0  0  0  0  0  0  0  0
  188.9200  177.2800  142.6070 C   0  0  0  0  0  0  0  0  0  0  0  0
  189.2640  177.8870  143.7900 N   0  0  0  0  0  0  0  0  0  0  0  0
  189.1650  177.9690  141.3740 N   0  0  0  0  0  2  0  0  0  0  0  0
  189.0720  177.2060  145.0170 C   0  0  0  0  0  2  0  0  0  0  0  0
  187.8780  177.8820  145.7700 C   0  0  0  0  0  2  0  0  0  0  0  0
  185.5880  178.2350  144.6600 C   0  0  0  0  0  0  0  0  0  0  0  0
  184.6130  178.8610  145.5020 C   0  0  0  0  0  1  0  0  0  0  0  0
  185.5020  178.1070  143.3790 O   0  0  0  0  0  0  0  0  0  0  0  0
  186.6300  177.3660  145.3170 N   0  0  0  0  0  2  0  0  0  0  0  0
  1 14  2  0  0  0  0
  1  6  1  0  0  0  0
  2  3  1  1  0  0  0
  2 13  1  0  0  0  0
  3 19  1  0  0  0  0
  4  7  1  0  0  0  0
  5  2  1  0  0  0  0
  5 16  2  0  0  0  0
  6 17  2  0  0  0  0
  7  3  2  0  0  0  0
  8 25  1  1  0  0  0
  9  1  1  0  0  0  0
 10 18  1  0  0  0  0
 11  7  1  0  0  0  0
 11 15  2  0  0  0  0
 12  8  1  0  0  0  0
 13 18  1  1  0  0  0
 13  8  1  0  0  0  0
 14  5  1  0  0  0  0
 15 20  1  0  0  0  0
 16 12  1  0  0  0  0
 17 16  1  0  0  0  0
 19 10  1  0  0  0  0
 20 19  2  0  0  0  0
 22 23  2  0  0  0  0
 23 24  1  0  0  0  0
 24 21  1  0  0  0  0
 24 26  1  0  0  0  0
 25 23  1  0  0  0  0
 26 27  1  0  0  0  0
 28 31  1  0  0  0  0
 28 29  1  0  0  0  0
 30 28  2  0  0  0  0
 31 27  1  0  0  0  0
M  END
>  <MODEL>
3

>  <REMARK>
 VINA RESULT:      -8.1      3.561      5.781
  Name = 
  4 active torsions:
  status: ('A' for Active; 'I' for Inactive)
    1  A    between atoms: C_6  and  C_19
    2  A    between atoms: C_6  and  N_22
    3  A    between atoms: C_15  and  N_23
    4  A    between atoms: C_19  and  N_24
                            x       y       z     vdW  Elec       q    Type
                         _______ _______ _______ _____ _____    ______ ____

>  <TORSDO>
F 4

$$$$
=
 OpenBabel10272400223D

 31 34  0  0  1  0  0  0  0  0999 V2000
  190.6260  176.6990  145.8410 C   0  0  0  0  0  0  0  0  0  0  0  0
  187.4520  177.3370  143.5810 C   0  0  2  0  0  3  0  0  0  0  0  0
  186.2220  178.0780  144.2620 C   0  0  0  0  0  0  0  0  0  0  0  0
  187.2600  178.4790  146.4040 O   0  0  0  0  0  1  0  0  0  0  0  0
  188.9450  177.3590  144.1490 C   0  0  0  0  0  0  0  0  0  0  0  0
  191.5830  177.4350  145.1310 C   0  0  0  0  0  3  0  0  0  0  0  0
  186.1320  178.5920  145.6070 C   0  0  0  0  0  0  0  0  0  0  0  0
  188.4270  178.8130  141.8140 C   0  0  2  0  0  3  0  0  0  0  0  0
  191.3880  176.0330  147.2780 Cl  0  0  0  0  0  0  0  0  0  0  0  0
  184.9670  177.6360  142.2660 C   0  0  0  0  0  2  0  0  0  0  0  0
  184.9850  179.1790  146.1050 C   0  0  0  0  0  3  0  0  0  0  0  0
  189.7480  178.9620  142.4380 C   0  0  0  0  0  2  0  0  0  0  0  0
  187.5170  177.6280  142.0410 C   0  0  2  0  0  3  0  0  0  0  0  0
  189.2840  176.6280  145.3650 C   0  0  0  0  0  3  0  0  0  0  0  0
  183.8200  179.2620  145.3260 C   0  0  0  0  0  3  0  0  0  0  0  0
  189.9200  178.1570  143.5930 C   0  0  0  0  0  0  0  0  0  0  0  0
  191.2980  178.1720  144.0670 C   0  0  0  0  0  3  0  0  0  0  0  0
  186.1590  178.0530  141.4390 C   0  0  0  0  0  2  0  0  0  0  0  0
  185.0530  178.1700  143.5900 C   0  0  0  0  0  0  0  0  0  0  0  0
  183.8260  178.7240  144.0800 C   0  0  0  0  0  3  0  0  0  0  0  0
  188.3600  178.9810  137.5880 C   0  0  0  0  0  1  0  0  0  0  0  0
  190.0040  177.1350  140.2080 O   0  0  0  0  0  0  0  0  0  0  0  0
  189.3810  178.0750  139.6570 C   0  0  0  0  0  0  0  0  0  0  0  0
  189.4700  178.2910  138.3040 N   0  0  0  0  0  0  0  0  0  0  0  0
  188.7520  179.0660  140.4810 N   0  0  0  0  0  2  0  0  0  0  0  0
  190.0450  177.3060  137.4660 C   0  0  0  0  0  2  0  0  0  0  0  0
  188.8940  176.6070  136.6680 C   0  0  0  0  0  2  0  0  0  0  0  0
  189.2660  174.0650  136.7010 C   0  0  0  0  0  0  0  0  0  0  0  0
  188.6270  173.3600  135.6300 C   0  0  0  0  0  1  0  0  0  0  0  0
  190.1920  173.5910  137.4640 O   0  0  0  0  0  0  0  0  0  0  0  0
  188.6040  175.3220  137.2080 N   0  0  0  0  0  2  0  0  0  0  0  0
  1  9  1  0  0  0  0
  2  5  1  1  0  0  0
  2  3  1  0  0  0  0
  3  7  1  0  0  0  0
  5 14  2  0  0  0  0
  6  1  2  0  0  0  0
  7 11  2  0  0  0  0
  7  4  1  0  0  0  0
  8 25  1  6  0  0  0
  8 13  1  0  0  0  0
  8 12  1  0  0  0  0
 10 19  1  0  0  0  0
 12 16  1  0  0  0  0
 13 18  1  1  0  0  0
 13  2  1  0  0  0  0
 14  1  1  0  0  0  0
 15 11  1  0  0  0  0
 16 17  2  0  0  0  0
 16  5  1  0  0  0  0
 17  6  1  0  0  0  0
 18 10  1  0  0  0  0
 19 20  1  0  0  0  0
 19  3  2  0  0  0  0
 20 15  2  0  0  0  0
 21 24  1  0  0  0  0
 23 22  2  0  0  0  0
 23 25  1  0  0  0  0
 24 23  1  0  0  0  0
 26 24  1  0  0  0  0
 27 31  1  0  0  0  0
 27 26  1  0  0  0  0
 28 31  1  0  0  0  0
 28 30  2  0  0  0  0
 29 28  1  0  0  0  0
M  END
>  <MODEL>
4

>  <REMARK>
 VINA RESULT:      -8.0      3.962      6.751
  Name = 
  4 active torsions:
  status: ('A' for Active; 'I' for Inactive)
    1  A    between atoms: C_6  and  C_19
    2  A    between atoms: C_6  and  N_22
    3  A    between atoms: C_15  and  N_23
    4  A    between atoms: C_19  and  N_24
                            x       y       z     vdW  Elec       q    Type
                         _______ _______ _______ _____ _____    ______ ____

>  <TORSDO>
F 4

$$$$
=
 OpenBabel10272400223D

 31 34  0  0  1  0  0  0  0  0999 V2000
  191.0320  176.5410  146.3210 C   0  0  0  0  0  0  0  0  0  0  0  0
  187.7830  177.1670  144.1660 C   0  0  2  0  0  3  0  0  0  0  0  0
  186.5880  177.9380  144.8760 C   0  0  0  0  0  0  0  0  0  0  0  0
  187.7090  178.3740  146.9680 O   0  0  0  0  0  1  0  0  0  0  0  0
  189.2960  177.1840  144.6780 C   0  0  0  0  0  0  0  0  0  0  0  0
  191.9700  177.2500  145.5600 C   0  0  0  0  0  3  0  0  0  0  0  0
  186.5540  178.4830  146.2110 C   0  0  0  0  0  0  0  0  0  0  0  0
  188.7070  178.5910  142.3310 C   0  0  2  0  0  3  0  0  0  0  0  0
  191.8400  175.8980  147.7440 Cl  0  0  0  0  0  0  0  0  0  0  0  0
  185.2540  177.4670  142.9390 C   0  0  0  0  0  2  0  0  0  0  0  0
  185.4330  179.0950  146.7380 C   0  0  0  0  0  3  0  0  0  0  0  0
  190.0520  178.7380  142.9020 C   0  0  0  0  0  2  0  0  0  0  0  0
  187.7940  177.4220  142.6190 C   0  0  2  0  0  3  0  0  0  0  0  0
  189.6720  176.4760  145.8960 C   0  0  0  0  0  3  0  0  0  0  0  0
  184.2400  179.1740  146.0020 C   0  0  0  0  0  3  0  0  0  0  0  0
  190.2590  177.9570  144.0680 C   0  0  0  0  0  0  0  0  0  0  0  0
  191.6530  177.9660  144.4900 C   0  0  0  0  0  3  0  0  0  0  0  0
  186.4180  177.8510  142.0580 C   0  0  0  0  0  2  0  0  0  0  0  0
  185.3950  178.0290  144.2460 C   0  0  0  0  0  0  0  0  0  0  0  0
  184.1940  178.6080  144.7690 C   0  0  0  0  0  3  0  0  0  0  0  0
  188.5700  178.5320  138.1040 C   0  0  0  0  0  1  0  0  0  0  0  0
  190.4470  177.0230  140.7830 O   0  0  0  0  0  0  0  0  0  0  0  0
  189.7130  177.8560  140.1970 C   0  0  0  0  0  0  0  0  0  0  0  0
  189.7600  178.0100  138.8330 N   0  0  0  0  0  0  0  0  0  0  0  0
  188.9850  178.8110  140.9810 N   0  0  0  0  0  2  0  0  0  0  0  0
  190.4350  177.0550  138.0350 C   0  0  0  0  0  2  0  0  0  0  0  0
  189.4320  175.9000  137.7010 C   0  0  0  0  0  2  0  0  0  0  0  0
  191.3790  174.3760  137.0010 C   0  0  0  0  0  0  0  0  0  0  0  0
  191.3040  173.9050  135.6510 C   0  0  0  0  0  1  0  0  0  0  0  0
  192.4260  174.3360  137.7540 O   0  0  0  0  0  0  0  0  0  0  0  0
  190.0830  174.6340  137.7280 N   0  0  0  0  0  2  0  0  0  0  0  0
  1  9  1  0  0  0  0
  2  5  1  1  0  0  0
  2  3  1  0  0  0  0
  3  7  1  0  0  0  0
  5 14  2  0  0  0  0
  6  1  2  0  0  0  0
  7 11  2  0  0  0  0
  7  4  1  0  0  0  0
  8 25  1  6  0  0  0
  8 13  1  0  0  0  0
  8 12  1  0  0  0  0
 10 19  1  0  0  0  0
 12 16  1  0  0  0  0
 13 18  1  1  0  0  0
 13  2  1  0  0  0  0
 14  1  1  0  0  0  0
 15 11  1  0  0  0  0
 16 17  2  0  0  0  0
 16  5  1  0  0  0  0
 17  6  1  0  0  0  0
 18 10  1  0  0  0  0
 19 20  1  0  0  0  0
 19  3  2  0  0  0  0
 20 15  2  0  0  0  0
 21 24  1  0  0  0  0
 23 22  2  0  0  0  0
 23 25  1  0  0  0  0
 24 23  1  0  0  0  0
 26 24  1  0  0  0  0
 27 31  1  0  0  0  0
 27 26  1  0  0  0  0
 28 31  1  0  0  0  0
 28 30  2  0  0  0  0
 29 28  1  0  0  0  0
M  END
>  <MODEL>
5

>  <REMARK>
 VINA RESULT:      -8.0      4.020      6.654
  Name = 
  4 active torsions:
  status: ('A' for Active; 'I' for Inactive)
    1  A    between atoms: C_6  and  C_19
    2  A    between atoms: C_6  and  N_22
    3  A    between atoms: C_15  and  N_23
    4  A    between atoms: C_19  and  N_24
                            x       y       z     vdW  Elec       q    Type
                         _______ _______ _______ _____ _____    ______ ____

>  <TORSDO>
F 4

$$$$
=
 OpenBabel10272400223D

 31 34  0  0  1  0  0  0  0  0999 V2000
  189.8060  176.9130  140.3910 C   0  0  0  0  0  0  0  0  0  0  0  0
  187.6470  177.0430  143.6940 C   0  0  2  0  0  3  0  0  0  0  0  0
  188.4010  177.4600  145.0290 C   0  0  0  0  0  0  0  0  0  0  0  0
  190.5530  177.9090  144.0330 O   0  0  0  0  0  1  0  0  0  0  0  0
  188.1950  177.3320  142.2220 C   0  0  0  0  0  0  0  0  0  0  0  0
  189.1430  177.8820  139.6270 C   0  0  0  0  0  3  0  0  0  0  0  0
  189.7830  177.8440  145.1830 C   0  0  0  0  0  0  0  0  0  0  0  0
  185.9880  178.8150  143.0970 C   0  0  2  0  0  3  0  0  0  0  0  0
  191.1760  176.3150  139.4650 Cl  0  0  0  0  0  0  0  0  0  0  0  0
  186.3950  176.9160  146.2250 C   0  0  0  0  0  2  0  0  0  0  0  0
  190.3420  178.1420  146.4110 C   0  0  0  0  0  3  0  0  0  0  0  0
  186.6030  179.1890  141.8170 C   0  0  0  0  0  2  0  0  0  0  0  0
  186.1340  177.4540  143.7360 C   0  0  2  0  0  3  0  0  0  0  0  0
  189.3440  176.6010  141.7030 C   0  0  0  0  0  3  0  0  0  0  0  0
  189.5880  178.0380  147.5910 C   0  0  0  0  0  3  0  0  0  0  0  0
  187.6900  178.3540  141.4480 C   0  0  0  0  0  0  0  0  0  0  0  0
  188.1440  178.6200  140.0900 C   0  0  0  0  0  3  0  0  0  0  0  0
  185.5860  177.6310  145.1700 C   0  0  0  0  0  2  0  0  0  0  0  0
  187.7550  177.3570  146.2120 C   0  0  0  0  0  0  0  0  0  0  0  0
  188.3040  177.6070  147.5110 C   0  0  0  0  0  3  0  0  0  0  0  0
  181.7840  179.2400  143.2890 C   0  0  0  0  0  1  0  0  0  0  0  0
  184.2650  177.6850  141.1900 O   0  0  0  0  0  0  0  0  0  0  0  0
  183.7820  178.4780  142.0350 C   0  0  0  0  0  0  0  0  0  0  0  0
  182.4460  178.7980  142.0300 N   0  0  0  0  0  0  0  0  0  0  0  0
  184.6740  179.2280  142.8710 N   0  0  0  0  0  2  0  0  0  0  0  0
  181.5400  178.0420  141.2480 C   0  0  0  0  0  2  0  0  0  0  0  0
  181.1460  178.8930  139.9950 C   0  0  0  0  0  2  0  0  0  0  0  0
  182.2630  177.1540  138.4690 C   0  0  0  0  0  0  0  0  0  0  0  0
  183.3420  177.6660  137.6790 C   0  0  0  0  0  1  0  0  0  0  0  0
  182.0110  175.9050  138.6770 O   0  0  0  0  0  0  0  0  0  0  0  0
  181.1370  178.0950  138.8160 N   0  0  0  0  0  2  0  0  0  0  0  0
  1 14  1  0  0  0  0
  2  5  1  6  0  0  0
  2 13  1  0  0  0  0
  2  3  1  0  0  0  0
  3  7  2  0  0  0  0
  3 19  1  0  0  0  0
  4  7  1  0  0  0  0
  6 17  1  0  0  0  0
  6  1  2  0  0  0  0
  7 11  1  0  0  0  0
  8 25  1  6  0  0  0
  8 13  1  0  0  0  0
  9  1  1  0  0  0  0
 11 15  2  0  0  0  0
 12  8  1  0  0  0  0
 13 18  1  1  0  0  0
 14  5  2  0  0  0  0
 16 12  1  0  0  0  0
 16  5  1  0  0  0  0
 17 16  2  0  0  0  0
 18 10  1  0  0  0  0
 19 10  1  0  0  0  0
 19 20  2  0  0  0  0
 20 15  1  0  0  0  0
 22 23  2  0  0  0  0
 23 25  1  0  0  0  0
 24 23  1  0  0  0  0
 24 21  1  0  0  0  0
 26 24  1  0  0  0  0
 27 26  1  0  0  0  0
 28 30  2  0  0  0  0
 28 31  1  0  0  0  0
 29 28  1  0  0  0  0
 31 27  1  0  0  0  0
M  END
>  <MODEL>
6

>  <REMARK>
 VINA RESULT:      -7.7      2.682      7.237
  Name = 
  4 active torsions:
  status: ('A' for Active; 'I' for Inactive)
    1  A    between atoms: C_6  and  C_19
    2  A    between atoms: C_6  and  N_22
    3  A    between atoms: C_15  and  N_23
    4  A    between atoms: C_19  and  N_24
                            x       y       z     vdW  Elec       q    Type
                         _______ _______ _______ _____ _____    ______ ____

>  <TORSDO>
F 4

$$$$
=
 OpenBabel10272400223D

 31 34  0  0  1  0  0  0  0  0999 V2000
  192.4280  175.7160  136.0450 C   0  0  0  0  0  0  0  0  0  0  0  0
  188.9580  177.1210  137.3000 C   0  0  2  0  0  3  0  0  0  0  0  0
  187.6780  176.2180  137.0340 C   0  0  0  0  0  0  0  0  0  0  0  0
  188.8340  174.3380  136.0560 O   0  0  0  0  0  1  0  0  0  0  0  0
  190.4620  176.5840  137.2730 C   0  0  0  0  0  0  0  0  0  0  0  0
  193.1100  175.6240  137.2650 C   0  0  0  0  0  3  0  0  0  0  0  0
  187.6270  174.9130  136.4210 C   0  0  0  0  0  0  0  0  0  0  0  0
  189.3730  177.2560  139.7620 C   0  0  2  0  0  3  0  0  0  0  0  0
  193.4760  175.1060  134.7730 Cl  0  0  0  0  0  0  0  0  0  0  0  0
  186.3380  178.0400  137.8300 C   0  0  0  0  0  2  0  0  0  0  0  0
  186.4410  174.2400  136.1980 C   0  0  0  0  0  3  0  0  0  0  0  0
  190.6880  176.6040  139.7410 C   0  0  0  0  0  2  0  0  0  0  0  0
  188.7830  178.0010  138.5870 C   0  0  2  0  0  3  0  0  0  0  0  0
  191.0910  176.2100  136.0120 C   0  0  0  0  0  3  0  0  0  0  0  0
  185.2070  174.8260  136.5210 C   0  0  0  0  0  3  0  0  0  0  0  0
  191.1660  176.3380  138.4310 C   0  0  0  0  0  0  0  0  0  0  0  0
  192.5490  175.8820  138.4380 C   0  0  0  0  0  3  0  0  0  0  0  0
  187.3050  178.2370  138.9720 C   0  0  0  0  0  2  0  0  0  0  0  0
  186.4500  176.7230  137.2870 C   0  0  0  0  0  0  0  0  0  0  0  0
  185.1940  176.0850  137.0280 C   0  0  0  0  0  3  0  0  0  0  0  0
  190.7100  178.8100  143.4620 C   0  0  0  0  0  1  0  0  0  0  0  0
  188.2170  176.5280  142.2150 O   0  0  0  0  0  0  0  0  0  0  0  0
  189.0490  177.4680  142.2030 C   0  0  0  0  0  0  0  0  0  0  0  0
  189.3860  178.1350  143.3550 N   0  0  0  0  0  0  0  0  0  0  0  0
  189.4810  177.9950  140.9410 N   0  0  0  0  0  2  0  0  0  0  0  0
  189.0090  177.6090  144.6140 C   0  0  0  0  0  2  0  0  0  0  0  0
  190.1060  178.0060  145.6580 C   0  0  0  0  0  2  0  0  0  0  0  0
  191.6070  176.5100  147.1110 C   0  0  0  0  0  0  0  0  0  0  0  0
  192.1900  175.4030  146.4140 C   0  0  0  0  0  1  0  0  0  0  0  0
  191.9820  176.9530  148.2630 O   0  0  0  0  0  0  0  0  0  0  0  0
  190.2560  176.9970  146.6520 N   0  0  0  0  0  2  0  0  0  0  0  0
  1  6  1  0  0  0  0
  2  3  1  1  0  0  0
  2 13  1  0  0  0  0
  3 19  1  0  0  0  0
  4  7  1  0  0  0  0
  5  2  1  0  0  0  0
  5 16  2  0  0  0  0
  6 17  2  0  0  0  0
  7  3  2  0  0  0  0
  8 25  1  1  0  0  0
  9  1  1  0  0  0  0
 10 18  1  0  0  0  0
 11  7  1  0  0  0  0
 11 15  2  0  0  0  0
 12  8  1  0  0  0  0
 13 18  1  1  0  0  0
 13  8  1  0  0  0  0
 14  1  2  0  0  0  0
 14  5  1  0  0  0  0
 15 20  1  0  0  0  0
 16 17  1  0  0  0  0
 16 12  1  0  0  0  0
 19 10  1  0  0  0  0
 20 19  2  0  0  0  0
 23 22  2  0  0  0  0
 23 24  1  0  0  0  0
 24 21  1  0  0  0  0
 24 26  1  0  0  0  0
 25 23  1  0  0  0  0
 26 27  1  0  0  0  0
 27 31  1  0  0  0  0
 28 30  2  0  0  0  0
 29 28  1  0  0  0  0
 31 28  1  0  0  0  0
M  END
>  <MODEL>
7

>  <REMARK>
 VINA RESULT:      -7.6      3.876      5.659
  Name = 
  4 active torsions:
  status: ('A' for Active; 'I' for Inactive)
    1  A    between atoms: C_6  and  C_19
    2  A    between atoms: C_6  and  N_22
    3  A    between atoms: C_15  and  N_23
    4  A    between atoms: C_19  and  N_24
                            x       y       z     vdW  Elec       q    Type
                         _______ _______ _______ _____ _____    ______ ____

>  <TORSDO>
F 4

$$$$
=
 OpenBabel10272400223D

 31 34  0  0  1  0  0  0  0  0999 V2000
  185.2970  178.6490  145.2240 C   0  0  0  0  0  0  0  0  0  0  0  0
  189.1600  178.1550  144.5750 C   0  0  2  0  0  3  0  0  0  0  0  0
  189.9600  177.2760  145.6310 C   0  0  0  0  0  0  0  0  0  0  0  0
  188.0700  176.6560  146.9990 O   0  0  0  0  0  1  0  0  0  0  0  0
  187.5730  178.1310  144.4010 C   0  0  0  0  0  0  0  0  0  0  0  0
  184.7770  178.0550  144.0670 C   0  0  0  0  0  3  0  0  0  0  0  0
  189.4390  176.5920  146.7890 C   0  0  0  0  0  0  0  0  0  0  0  0
  189.1160  176.9630  142.3780 C   0  0  2  0  0  3  0  0  0  0  0  0
  183.9560  179.1630  146.2380 Cl  0  0  0  0  0  0  0  0  0  0  0  0
  191.9750  177.9090  144.4950 C   0  0  0  0  0  2  0  0  0  0  0  0
  190.2440  175.8930  147.6670 C   0  0  0  0  0  3  0  0  0  0  0  0
  187.6580  176.7980  142.3130 C   0  0  0  0  0  2  0  0  0  0  0  0
  189.8040  178.0660  143.1480 C   0  0  2  0  0  3  0  0  0  0  0  0
  186.7080  178.7170  145.4180 C   0  0  0  0  0  3  0  0  0  0  0  0
  191.6370  175.8550  147.4940 C   0  0  0  0  0  3  0  0  0  0  0  0
  186.9680  177.4570  143.3630 C   0  0  0  0  0  0  0  0  0  0  0  0
  185.5250  177.4470  143.1570 C   0  0  0  0  0  3  0  0  0  0  0  0
  191.2950  177.6560  143.1720 C   0  0  0  0  0  2  0  0  0  0  0  0
  191.3070  177.2160  145.5530 C   0  0  0  0  0  0  0  0  0  0  0  0
  192.1870  176.5470  146.4640 C   0  0  0  0  0  3  0  0  0  0  0  0
  191.0230  177.4520  138.6340 C   0  0  0  0  0  1  0  0  0  0  0  0
  188.1870  178.7600  140.4300 O   0  0  0  0  0  0  0  0  0  0  0  0
  189.1020  177.9590  140.1160 C   0  0  0  0  0  0  0  0  0  0  0  0
  189.6350  177.9490  138.8510 N   0  0  0  0  0  0  0  0  0  0  0  0
  189.4340  176.8970  141.0200 N   0  0  0  0  0  2  0  0  0  0  0  0
  189.3570  179.0100  137.9560 C   0  0  0  0  0  2  0  0  0  0  0  0
  188.5180  178.4400  136.7650 C   0  0  0  0  0  2  0  0  0  0  0  0
  186.0750  178.2380  137.5350 C   0  0  0  0  0  0  0  0  0  0  0  0
  185.3100  177.2590  136.8220 C   0  0  0  0  0  1  0  0  0  0  0  0
  185.7380  178.7850  138.6540 O   0  0  0  0  0  0  0  0  0  0  0  0
  187.1850  178.9390  136.7930 N   0  0  0  0  0  2  0  0  0  0  0  0
  1 14  1  0  0  0  0
  1  9  1  0  0  0  0
  2  5  1  6  0  0  0
  2  3  1  0  0  0  0
  3  7  1  0  0  0  0
  5 14  2  0  0  0  0
  6  1  2  0  0  0  0
  7  4  1  0  0  0  0
  7 11  2  0  0  0  0
  8 25  1  6  0  0  0
  8 13  1  0  0  0  0
 10 19  1  0  0  0  0
 12  8  1  0  0  0  0
 12 16  1  0  0  0  0
 13 18  1  1  0  0  0
 13  2  1  0  0  0  0
 15 11  1  0  0  0  0
 16  5  1  0  0  0  0
 17 16  2  0  0  0  0
 17  6  1  0  0  0  0
 18 10  1  0  0  0  0
 19  3  2  0  0  0  0
 19 20  1  0  0  0  0
 20 15  2  0  0  0  0
 21 24  1  0  0  0  0
 23 22  2  0  0  0  0
 23 25  1  0  0  0  0
 24 23  1  0  0  0  0
 26 24  1  0  0  0  0
 27 31  1  0  0  0  0
 27 26  1  0  0  0  0
 28 30  2  0  0  0  0
 29 28  1  0  0  0  0
 31 28  1  0  0  0  0
M  END
>  <MODEL>
8

>  <REMARK>
 VINA RESULT:      -7.3      3.453      7.983
  Name = 
  4 active torsions:
  status: ('A' for Active; 'I' for Inactive)
    1  A    between atoms: C_6  and  C_19
    2  A    between atoms: C_6  and  N_22
    3  A    between atoms: C_15  and  N_23
    4  A    between atoms: C_19  and  N_24
                            x       y       z     vdW  Elec       q    Type
                         _______ _______ _______ _____ _____    ______ ____

>  <TORSDO>
F 4

$$$$
=
 OpenBabel10272400223D

 31 34  0  0  1  0  0  0  0  0999 V2000
  184.7710  178.8590  144.4140 C   0  0  0  0  0  0  0  0  0  0  0  0
  188.7100  178.6870  144.2090 C   0  0  2  0  0  3  0  0  0  0  0  0
  189.4440  177.7440  145.2570 C   0  0  0  0  0  0  0  0  0  0  0  0
  187.4590  176.8520  146.3020 O   0  0  0  0  0  1  0  0  0  0  0  0
  187.1610  178.5830  143.8340 C   0  0  0  0  0  0  0  0  0  0  0  0
  184.4380  178.3710  143.1440 C   0  0  0  0  0  3  0  0  0  0  0  0
  188.8430  176.9000  146.2610 C   0  0  0  0  0  0  0  0  0  0  0  0
  189.0170  177.7560  141.9090 C   0  0  2  0  0  3  0  0  0  0  0  0
  183.2840  179.1670  145.3000 Cl  0  0  0  0  0  0  0  0  0  0  0  0
  191.5250  178.6290  144.4590 C   0  0  0  0  0  2  0  0  0  0  0  0
  189.5900  176.1560  147.1540 C   0  0  0  0  0  3  0  0  0  0  0  0
  187.5940  177.5080  141.6430 C   0  0  0  0  0  2  0  0  0  0  0  0
  189.5230  178.8030  142.8730 C   0  0  2  0  0  3  0  0  0  0  0  0
  186.1390  178.9920  144.7910 C   0  0  0  0  0  3  0  0  0  0  0  0
  190.9920  176.2260  147.1550 C   0  0  0  0  0  3  0  0  0  0  0  0
  186.7360  177.9970  142.6620 C   0  0  0  0  0  0  0  0  0  0  0  0
  185.3330  177.9200  142.2770 C   0  0  0  0  0  3  0  0  0  0  0  0
  191.0280  178.4880  143.0410 C   0  0  0  0  0  2  0  0  0  0  0  0
  190.7920  177.7780  145.3440 C   0  0  0  0  0  0  0  0  0  0  0  0
  191.6060  177.0650  146.2830 C   0  0  0  0  0  3  0  0  0  0  0  0
  189.5310  177.3390  137.7310 C   0  0  0  0  0  1  0  0  0  0  0  0
  190.9820  176.0950  140.7850 O   0  0  0  0  0  0  0  0  0  0  0  0
  190.3430  176.8630  140.0240 C   0  0  0  0  0  0  0  0  0  0  0  0
  190.5980  176.9030  138.6750 N   0  0  0  0  0  0  0  0  0  0  0  0
  189.4980  177.8660  140.6030 N   0  0  0  0  0  2  0  0  0  0  0  0
  191.3920  175.8970  138.0740 C   0  0  0  0  0  2  0  0  0  0  0  0
  192.7560  176.5380  137.6510 C   0  0  0  0  0  2  0  0  0  0  0  0
  194.6960  174.8930  137.2890 C   0  0  0  0  0  0  0  0  0  0  0  0
  194.2930  173.5250  137.1510 C   0  0  0  0  0  1  0  0  0  0  0  0
  195.8530  175.3690  136.9750 O   0  0  0  0  0  0  0  0  0  0  0  0
  193.8540  175.7890  138.1610 N   0  0  0  0  0  2  0  0  0  0  0  0
  1 14  1  0  0  0  0
  1  9  1  0  0  0  0
  2  5  1  6  0  0  0
  2  3  1  0  0  0  0
  3 19  2  0  0  0  0
  3  7  1  0  0  0  0
  5 14  2  0  0  0  0
  6  1  2  0  0  0  0
  7  4  1  0  0  0  0
  7 11  2  0  0  0  0
  8 25  1  6  0  0  0
  8 13  1  0  0  0  0
 10 19  1  0  0  0  0
 11 15  1  0  0  0  0
 12  8  1  0  0  0  0
 12 16  1  0  0  0  0
 13 18  1  1  0  0  0
 13  2  1  0  0  0  0
 16  5  1  0  0  0  0
 17 16  2  0  0  0  0
 17  6  1  0  0  0  0
 18 10  1  0  0  0  0
 19 20  1  0  0  0  0
 20 15  2  0  0  0  0
 21 24  1  0  0  0  0
 23 25  1  0  0  0  0
 23 22  2  0  0  0  0
 24 23  1  0  0  0  0
 26 24  1  0  0  0  0
 27 26  1  0  0  0  0
 27 31  1  0  0  0  0
 28 31  1  0  0  0  0
 29 28  1  0  0  0  0
 30 28  2  0  0  0  0
M  END
>  <MODEL>
9

>  <REMARK>
 VINA RESULT:      -7.3      4.371      7.509
  Name = 
  4 active torsions:
  status: ('A' for Active; 'I' for Inactive)
    1  A    between atoms: C_6  and  C_19
    2  A    between atoms: C_6  and  N_22
    3  A    between atoms: C_15  and  N_23
    4  A    between atoms: C_19  and  N_24
                            x       y       z     vdW  Elec       q    Type
                         _______ _______ _______ _____ _____    ______ ____

>  <TORSDO>
F 4

$$$$
