=
 OpenBabel10272413223D

 32 37  0  0  1  0  0  0  0  0999 V2000
  190.7300  177.5690  138.7610 C   0  0  1  0  0  3  0  0  0  0  0  0
  186.3030  176.0820  137.0690 C   0  0  0  0  0  3  0  0  0  0  0  0
  186.9010  174.9610  136.4940 C   0  0  0  0  0  3  0  0  0  0  0  0
  192.8390  176.4120  138.0030 C   0  0  0  0  0  0  0  0  0  0  0  0
  193.3250  175.1340  137.4890 C   0  0  0  0  0  0  0  0  0  0  0  0
  189.8280  177.4120  141.0930 C   0  0  2  0  0  3  0  0  0  0  0  0
  188.6670  178.7110  139.3910 O   0  0  0  0  0  0  0  0  0  0  0  0
  193.1660  173.1130  136.4890 C   0  0  0  0  0  0  0  0  0  0  0  0
  187.6300  178.5560  141.5300 C   0  0  0  0  0  1  0  0  0  0  0  0
  187.0940  177.0660  137.6660 C   0  0  0  0  0  3  0  0  0  0  0  0
  189.3250  178.0300  138.3360 C   0  0  2  0  0  3  0  0  0  0  0  0
  188.4890  176.9330  137.7060 C   0  0  0  0  0  0  0  0  0  0  0  0
  190.5850  175.6910  137.0640 C   0  0  0  0  0  0  0  0  0  0  0  0
  194.1170  173.0080  137.5380 N   0  0  0  0  0  2  0  0  0  0  0  0
  188.4800  177.8420  140.4920 C   0  0  2  0  0  3  0  0  0  0  0  0
  194.1290  174.2990  138.1390 C   0  0  0  0  0  3  0  0  0  0  0  0
  188.2910  174.8290  136.5030 C   0  0  0  0  0  3  0  0  0  0  0  0
  189.1020  175.8130  137.0960 C   0  0  0  0  0  0  0  0  0  0  0  0
  191.1580  174.6040  136.5070 C   0  0  0  0  0  3  0  0  0  0  0  0
  190.6330  176.7020  140.0130 C   0  0  0  0  0  2  0  0  0  0  0  0
  193.5620  177.1270  138.7480 O   0  0  0  0  0  0  0  0  0  0  0  0
  192.8560  172.1450  135.7470 O   0  0  0  0  0  0  0  0  0  0  0  0
  191.4390  176.8430  137.6090 C   0  0  1  0  0  3  0  0  0  0  0  0
  192.6460  174.4940  136.3340 C   0  0  1  0  0  3  0  0  0  0  0  0
  189.6210  176.4590  142.2670 C   0  0  0  0  0  2  0  0  0  0  0  0
  190.9320  178.6230  143.2690 S   0  0  0  0  0  1  0  0  0  0  0  0
  190.4320  176.8890  143.4810 C   0  0  1  0  0  3  0  0  0  0  0  0
  189.5990  176.7480  144.7450 C   0  0  0  0  0  2  0  0  0  0  0  0
  188.5480  177.8390  144.8140 C   0  0  0  0  0  2  0  0  0  0  0  0
  187.2030  177.2220  145.1380 C   0  0  0  0  0  3  0  0  0  0  0  0
  186.5800  177.9690  146.2960 C   0  0  0  0  0  2  0  0  0  0  0  0
  186.1100  178.2400  144.8820 C   0  0  0  0  0  2  0  0  0  0  0  0
  1 20  1  1  0  0  0
  2 10  1  0  0  0  0
  3 17  1  0  0  0  0
  3  2  2  0  0  0  0
  4 21  2  0  0  0  0
  5  4  1  0  0  0  0
  5 16  2  0  0  0  0
  6 25  1  1  0  0  0
  7 15  1  0  0  0  0
  8 14  1  0  0  0  0
 10 12  2  0  0  0  0
 11 12  1  1  0  0  0
 11  1  1  0  0  0  0
 11  7  1  0  0  0  0
 13 18  1  0  0  0  0
 14 16  1  0  0  0  0
 15  6  1  0  0  0  0
 15  9  1  1  0  0  0
 17 18  2  0  0  0  0
 18 12  1  0  0  0  0
 19 13  2  0  0  0  0
 20  6  1  0  0  0  0
 22  8  2  0  0  0  0
 23 13  1  1  0  0  0
 23  4  1  0  0  0  0
 23  1  1  0  0  0  0
 24  8  1  0  0  0  0
 24 19  1  1  0  0  0
 24  5  1  0  0  0  0
 25 27  1  0  0  0  0
 27 26  1  6  0  0  0
 27 28  1  0  0  0  0
 28 29  1  0  0  0  0
 29 30  1  0  0  0  0
 30 31  1  0  0  0  0
 32 30  1  0  0  0  0
 32 31  1  0  0  0  0
M  END
>  <MODEL>
1

>  <REMARK>
 VINA RESULT:      -8.0      0.000      0.000
  Name = 
  5 active torsions:
  status: ('A' for Active; 'I' for Inactive)
    1  A    between atoms: C_1  and  C_10
    2  A    between atoms: C_8  and  C_23
    3  A    between atoms: C_10  and  C_24
    4  A    between atoms: C_19  and  C_23
    5  A    between atoms: C_19  and  C_24
                            x       y       z     vdW  Elec       q    Type
                         _______ _______ _______ _____ _____    ______ ____

>  <TORSDO>
F 5

$$$$
=
 OpenBabel10272413223D

 32 37  0  0  1  0  0  0  0  0999 V2000
  190.9040  177.0200  138.0330 C   0  0  1  0  0  3  0  0  0  0  0  0
  186.7250  174.5310  137.0270 C   0  0  0  0  0  3  0  0  0  0  0  0
  187.4750  173.3910  136.7360 C   0  0  0  0  0  3  0  0  0  0  0  0
  193.1510  176.0070  137.4960 C   0  0  0  0  0  0  0  0  0  0  0  0
  193.8140  174.7200  137.3120 C   0  0  0  0  0  0  0  0  0  0  0  0
  190.0670  177.3690  140.3680 C   0  0  2  0  0  3  0  0  0  0  0  0
  188.7030  177.9890  138.4480 O   0  0  0  0  0  0  0  0  0  0  0  0
  193.9440  172.5030  136.8880 C   0  0  0  0  0  0  0  0  0  0  0  0
  187.7290  178.2690  140.6040 C   0  0  0  0  0  1  0  0  0  0  0  0
  187.3680  175.7390  137.3020 C   0  0  0  0  0  3  0  0  0  0  0  0
  189.4410  177.1490  137.5760 C   0  0  2  0  0  3  0  0  0  0  0  0
  188.7690  175.8170  137.3020 C   0  0  0  0  0  0  0  0  0  0  0  0
  191.0170  174.7540  136.9000 C   0  0  0  0  0  0  0  0  0  0  0  0
  194.9150  172.8170  137.8770 N   0  0  0  0  0  2  0  0  0  0  0  0
  188.6620  177.4290  139.7470 C   0  0  2  0  0  3  0  0  0  0  0  0
  194.7430  174.2100  138.1160 C   0  0  0  0  0  3  0  0  0  0  0  0
  188.8690  173.4620  136.7070 C   0  0  0  0  0  3  0  0  0  0  0  0
  189.5330  174.6730  136.9760 C   0  0  0  0  0  0  0  0  0  0  0  0
  191.7370  173.6490  136.6190 C   0  0  0  0  0  3  0  0  0  0  0  0
  190.9540  176.5140  139.4730 C   0  0  0  0  0  2  0  0  0  0  0  0
  193.7700  176.9900  137.9880 O   0  0  0  0  0  0  0  0  0  0  0  0
  193.7710  171.3380  136.4440 O   0  0  0  0  0  0  0  0  0  0  0  0
  191.6980  176.1180  137.0770 C   0  0  1  0  0  3  0  0  0  0  0  0
  193.2230  173.7050  136.4030 C   0  0  1  0  0  3  0  0  0  0  0  0
  190.0190  176.7450  141.7610 C   0  0  0  0  0  2  0  0  0  0  0  0
  188.9140  177.8180  144.0040 S   0  0  0  0  0  1  0  0  0  0  0  0
  190.3100  177.7770  142.8410 C   0  0  1  0  0  3  0  0  0  0  0  0
  191.5840  177.4130  143.5860 C   0  0  0  0  0  2  0  0  0  0  0  0
  191.2950  176.3910  144.6680 C   0  0  0  0  0  2  0  0  0  0  0  0
  191.7570  176.9310  146.0050 C   0  0  0  0  0  3  0  0  0  0  0  0
  190.7770  176.5060  147.0780 C   0  0  0  0  0  2  0  0  0  0  0  0
  192.0930  175.7740  146.9240 C   0  0  0  0  0  2  0  0  0  0  0  0
  1 20  1  1  0  0  0
  2 10  1  0  0  0  0
  3  2  2  0  0  0  0
  4 21  2  0  0  0  0
  5  4  1  0  0  0  0
  5 16  2  0  0  0  0
  6 25  1  1  0  0  0
  7 15  1  0  0  0  0
  8 14  1  0  0  0  0
 11 12  1  1  0  0  0
 11  1  1  0  0  0  0
 11  7  1  0  0  0  0
 12 10  2  0  0  0  0
 13 18  1  0  0  0  0
 14 16  1  0  0  0  0
 15  6  1  0  0  0  0
 15  9  1  1  0  0  0
 17  3  1  0  0  0  0
 17 18  2  0  0  0  0
 18 12  1  0  0  0  0
 19 13  2  0  0  0  0
 20  6  1  0  0  0  0
 22  8  2  0  0  0  0
 23 13  1  1  0  0  0
 23  4  1  0  0  0  0
 23  1  1  0  0  0  0
 24 19  1  1  0  0  0
 24  8  1  0  0  0  0
 24  5  1  0  0  0  0
 25 27  1  0  0  0  0
 27 28  1  0  0  0  0
 27 26  1  1  0  0  0
 28 29  1  0  0  0  0
 29 30  1  0  0  0  0
 30 32  1  0  0  0  0
 30 31  1  0  0  0  0
 32 31  1  0  0  0  0
M  END
>  <MODEL>
2

>  <REMARK>
 VINA RESULT:      -7.6      1.718      2.087
  Name = 
  5 active torsions:
  status: ('A' for Active; 'I' for Inactive)
    1  A    between atoms: C_1  and  C_10
    2  A    between atoms: C_8  and  C_23
    3  A    between atoms: C_10  and  C_24
    4  A    between atoms: C_19  and  C_23
    5  A    between atoms: C_19  and  C_24
                            x       y       z     vdW  Elec       q    Type
                         _______ _______ _______ _____ _____    ______ ____

>  <TORSDO>
F 5

$$$$
=
 OpenBabel10272413223D

 32 37  0  0  1  0  0  0  0  0999 V2000
  187.8380  178.4040  138.1490 C   0  0  1  0  0  3  0  0  0  0  0  0
  191.0650  175.7910  135.4240 C   0  0  0  0  0  3  0  0  0  0  0  0
  191.5830  175.2200  136.5870 C   0  0  0  0  0  3  0  0  0  0  0  0
  188.0490  178.4670  140.6620 C   0  0  0  0  0  0  0  0  0  0  0  0
  188.5690  177.6990  141.7890 C   0  0  0  0  0  0  0  0  0  0  0  0
  185.9710  177.2450  136.9470 C   0  0  2  0  0  3  0  0  0  0  0  0
  187.7350  178.3820  135.7110 O   0  0  0  0  0  0  0  0  0  0  0  0
  189.8650  176.1590  142.8190 C   0  0  0  0  0  0  0  0  0  0  0  0
  186.0910  177.2240  134.4340 C   0  0  0  0  0  1  0  0  0  0  0  0
  190.1030  176.7980  135.5100 C   0  0  0  0  0  3  0  0  0  0  0  0
  188.6150  178.3540  136.8220 C   0  0  2  0  0  3  0  0  0  0  0  0
  189.6390  177.2380  136.7580 C   0  0  0  0  0  0  0  0  0  0  0  0
  189.7590  177.1900  139.2740 C   0  0  0  0  0  0  0  0  0  0  0  0
  188.5950  176.1580  143.4560 N   0  0  0  0  0  2  0  0  0  0  0  0
  186.8990  177.2410  135.7210 C   0  0  2  0  0  3  0  0  0  0  0  0
  187.8320  177.1160  142.7300 C   0  0  0  0  0  3  0  0  0  0  0  0
  191.1500  175.6670  137.8370 C   0  0  0  0  0  3  0  0  0  0  0  0
  190.1850  176.6860  137.9410 C   0  0  0  0  0  0  0  0  0  0  0  0
  190.2630  176.6340  140.3960 C   0  0  0  0  0  3  0  0  0  0  0  0
  186.8310  177.2580  138.2030 C   0  0  0  0  0  2  0  0  0  0  0  0
  187.0110  179.1730  140.7840 O   0  0  0  0  0  0  0  0  0  0  0  0
  190.8070  175.4000  143.1680 O   0  0  0  0  0  0  0  0  0  0  0  0
  188.7990  178.3850  139.3460 C   0  0  1  0  0  3  0  0  0  0  0  0
  189.9640  177.1920  141.7590 C   0  0  1  0  0  3  0  0  0  0  0  0
  185.0860  176.0020  136.9640 C   0  0  0  0  0  2  0  0  0  0  0  0
  182.6130  176.2090  135.8470 S   0  0  0  0  0  1  0  0  0  0  0  0
  183.6500  176.3470  137.3330 C   0  0  1  0  0  3  0  0  0  0  0  0
  183.1390  175.3940  138.4020 C   0  0  0  0  0  2  0  0  0  0  0  0
  182.6090  176.1670  139.5940 C   0  0  0  0  0  2  0  0  0  0  0  0
  183.1830  177.5680  139.5800 C   0  0  0  0  0  3  0  0  0  0  0  0
  182.3590  178.4510  140.4930 C   0  0  0  0  0  2  0  0  0  0  0  0
  183.6940  177.9140  140.9640 C   0  0  0  0  0  2  0  0  0  0  0  0
  1 20  1  1  0  0  0
  1 23  1  0  0  0  0
  2 10  2  0  0  0  0
  2  3  1  0  0  0  0
  3 17  2  0  0  0  0
  4 21  2  0  0  0  0
  4  5  1  0  0  0  0
  5 16  2  0  0  0  0
  6 25  1  1  0  0  0
  6 20  1  0  0  0  0
  7 15  1  0  0  0  0
  8 22  2  0  0  0  0
  8 14  1  0  0  0  0
 10 12  1  0  0  0  0
 11  7  1  6  0  0  0
 11  1  1  0  0  0  0
 12 11  1  0  0  0  0
 12 18  2  0  0  0  0
 13 19  2  0  0  0  0
 15  9  1  6  0  0  0
 15  6  1  0  0  0  0
 16 14  1  0  0  0  0
 17 18  1  0  0  0  0
 18 13  1  0  0  0  0
 23 13  1  1  0  0  0
 23  4  1  0  0  0  0
 24 19  1  6  0  0  0
 24  5  1  0  0  0  0
 24  8  1  0  0  0  0
 25 27  1  0  0  0  0
 27 26  1  6  0  0  0
 27 28  1  0  0  0  0
 28 29  1  0  0  0  0
 30 29  1  0  0  0  0
 30 31  1  0  0  0  0
 30 32  1  0  0  0  0
 31 32  1  0  0  0  0
M  END
>  <MODEL>
3

>  <REMARK>
 VINA RESULT:      -7.3      3.535      6.270
  Name = 
  5 active torsions:
  status: ('A' for Active; 'I' for Inactive)
    1  A    between atoms: C_1  and  C_10
    2  A    between atoms: C_8  and  C_23
    3  A    between atoms: C_10  and  C_24
    4  A    between atoms: C_19  and  C_23
    5  A    between atoms: C_19  and  C_24
                            x       y       z     vdW  Elec       q    Type
                         _______ _______ _______ _____ _____    ______ ____

>  <TORSDO>
F 5

$$$$
=
 OpenBabel10272413223D

 32 37  0  0  1  0  0  0  0  0999 V2000
  185.7210  178.3260  138.0070 C   0  0  1  0  0  3  0  0  0  0  0  0
  182.7620  174.4900  136.9120 C   0  0  0  0  0  3  0  0  0  0  0  0
  183.8760  173.6530  136.8370 C   0  0  0  0  0  3  0  0  0  0  0  0
  188.2260  178.0980  137.8180 C   0  0  0  0  0  0  0  0  0  0  0  0
  189.2930  177.1030  137.8570 C   0  0  0  0  0  0  0  0  0  0  0  0
  184.5140  178.5600  140.1900 C   0  0  2  0  0  3  0  0  0  0  0  0
  183.2890  178.5190  138.0850 O   0  0  0  0  0  0  0  0  0  0  0  0
  190.1980  175.0360  137.7210 C   0  0  0  0  0  0  0  0  0  0  0  0
  182.0020  178.6280  140.0870 C   0  0  0  0  0  1  0  0  0  0  0  0
  182.9310  175.8630  137.0980 C   0  0  0  0  0  3  0  0  0  0  0  0
  184.3700  177.9120  137.3980 C   0  0  2  0  0  3  0  0  0  0  0  0
  184.2150  176.4130  137.2250 C   0  0  0  0  0  0  0  0  0  0  0  0
  186.7190  176.1490  137.1750 C   0  0  0  0  0  0  0  0  0  0  0  0
  190.8720  175.7410  138.7530 N   0  0  0  0  0  2  0  0  0  0  0  0
  183.2630  178.0880  139.4330 C   0  0  2  0  0  3  0  0  0  0  0  0
  190.2230  177.0070  138.8030 C   0  0  0  0  0  3  0  0  0  0  0  0
  185.1600  174.1920  136.9340 C   0  0  0  0  0  3  0  0  0  0  0  0
  185.3490  175.5740  137.1160 C   0  0  0  0  0  0  0  0  0  0  0  0
  187.7940  175.3350  137.1020 C   0  0  0  0  0  3  0  0  0  0  0  0
  185.7430  177.9880  139.4950 C   0  0  0  0  0  2  0  0  0  0  0  0
  188.4170  179.2700  138.2440 O   0  0  0  0  0  0  0  0  0  0  0  0
  190.4770  173.8490  137.4080 O   0  0  0  0  0  0  0  0  0  0  0  0
  186.8860  177.6730  137.2500 C   0  0  1  0  0  3  0  0  0  0  0  0
  189.1930  175.8760  137.0260 C   0  0  1  0  0  3  0  0  0  0  0  0
  184.4910  178.0750  141.6370 C   0  0  0  0  0  2  0  0  0  0  0  0
  184.4560  179.5510  143.9230 S   0  0  0  0  0  1  0  0  0  0  0  0
  185.4110  178.9080  142.5170 C   0  0  1  0  0  3  0  0  0  0  0  0
  186.5620  178.0550  143.0280 C   0  0  0  0  0  2  0  0  0  0  0  0
  186.5710  178.0280  144.5440 C   0  0  0  0  0  2  0  0  0  0  0  0
  187.6140  177.0390  145.0220 C   0  0  0  0  0  3  0  0  0  0  0  0
  188.9820  177.6800  144.9360 C   0  0  0  0  0  2  0  0  0  0  0  0
  188.2780  177.5770  146.2730 C   0  0  0  0  0  2  0  0  0  0  0  0
  1 20  1  1  0  0  0
  2 10  1  0  0  0  0
  3  2  2  0  0  0  0
  3 17  1  0  0  0  0
  4  5  1  0  0  0  0
  4 21  2  0  0  0  0
  5 16  2  0  0  0  0
  6 25  1  1  0  0  0
  7 15  1  0  0  0  0
  8 14  1  0  0  0  0
 10 12  2  0  0  0  0
 11 12  1  1  0  0  0
 11  1  1  0  0  0  0
 11  7  1  0  0  0  0
 14 16  1  0  0  0  0
 15  9  1  1  0  0  0
 15  6  1  0  0  0  0
 17 18  2  0  0  0  0
 18 13  1  0  0  0  0
 18 12  1  0  0  0  0
 19 13  2  0  0  0  0
 20  6  1  0  0  0  0
 22  8  2  0  0  0  0
 23 13  1  1  0  0  0
 23  4  1  0  0  0  0
 23  1  1  0  0  0  0
 24 19  1  1  0  0  0
 24  8  1  0  0  0  0
 24  5  1  0  0  0  0
 25 27  1  0  0  0  0
 27 28  1  0  0  0  0
 27 26  1  1  0  0  0
 28 29  1  0  0  0  0
 29 30  1  0  0  0  0
 30 32  1  0  0  0  0
 31 30  1  0  0  0  0
 31 32  1  0  0  0  0
M  END
>  <MODEL>
4

>  <REMARK>
 VINA RESULT:      -7.1      2.864      4.443
  Name = 
  5 active torsions:
  status: ('A' for Active; 'I' for Inactive)
    1  A    between atoms: C_1  and  C_10
    2  A    between atoms: C_8  and  C_23
    3  A    between atoms: C_10  and  C_24
    4  A    between atoms: C_19  and  C_23
    5  A    between atoms: C_19  and  C_24
                            x       y       z     vdW  Elec       q    Type
                         _______ _______ _______ _____ _____    ______ ____

>  <TORSDO>
F 5

$$$$
=
 OpenBabel10272413223D

 32 37  0  0  1  0  0  0  0  0999 V2000
  188.1070  178.1870  138.0940 C   0  0  1  0  0  3  0  0  0  0  0  0
  191.7510  175.7720  135.7350 C   0  0  0  0  0  3  0  0  0  0  0  0
  192.2410  175.3180  136.9600 C   0  0  0  0  0  3  0  0  0  0  0  0
  188.1390  178.4010  140.6070 C   0  0  0  0  0  0  0  0  0  0  0  0
  188.6520  177.7480  141.8070 C   0  0  0  0  0  0  0  0  0  0  0  0
  186.4480  176.7850  136.8460 C   0  0  2  0  0  3  0  0  0  0  0  0
  188.1740  178.0280  135.6590 O   0  0  0  0  0  0  0  0  0  0  0  0
  190.0180  176.4020  143.0050 C   0  0  0  0  0  0  0  0  0  0  0  0
  186.7410  176.6460  134.3510 C   0  0  0  0  0  1  0  0  0  0  0  0
  190.6930  176.6810  135.7010 C   0  0  0  0  0  3  0  0  0  0  0  0
  188.9740  178.1460  136.8240 C   0  0  2  0  0  3  0  0  0  0  0  0
  190.1040  177.1360  136.8900 C   0  0  0  0  0  0  0  0  0  0  0  0
  190.0550  177.2320  139.4060 C   0  0  0  0  0  0  0  0  0  0  0  0
  188.7130  176.3060  143.5590 N   0  0  0  0  0  2  0  0  0  0  0  0
  187.4530  176.8100  135.6840 C   0  0  2  0  0  3  0  0  0  0  0  0
  187.9120  177.1440  142.7320 C   0  0  0  0  0  3  0  0  0  0  0  0
  191.6820  175.7840  138.1510 C   0  0  0  0  0  3  0  0  0  0  0  0
  190.6180  176.7040  138.1340 C   0  0  0  0  0  0  0  0  0  0  0  0
  190.5320  176.7880  140.5880 C   0  0  0  0  0  3  0  0  0  0  0  0
  187.2150  176.9490  138.1510 C   0  0  0  0  0  2  0  0  0  0  0  0
  187.0310  179.0040  140.6220 O   0  0  0  0  0  0  0  0  0  0  0  0
  191.0020  175.7600  143.4570 O   0  0  0  0  0  0  0  0  0  0  0  0
  188.9810  178.3260  139.3480 C   0  0  1  0  0  3  0  0  0  0  0  0
  190.0890  177.3830  141.8950 C   0  0  1  0  0  3  0  0  0  0  0  0
  185.6880  175.4610  136.8800 C   0  0  0  0  0  2  0  0  0  0  0  0
  183.2640  176.3410  136.0090 S   0  0  0  0  0  1  0  0  0  0  0  0
  184.2590  175.6540  137.3670 C   0  0  1  0  0  3  0  0  0  0  0  0
  183.6710  174.3230  137.8080 C   0  0  0  0  0  2  0  0  0  0  0  0
  184.7120  173.2240  137.7140 C   0  0  0  0  0  2  0  0  0  0  0  0
  184.1290  172.0430  136.9670 C   0  0  0  0  0  3  0  0  0  0  0  0
  183.8370  172.4520  135.5400 C   0  0  0  0  0  2  0  0  0  0  0  0
  185.0740  171.6380  135.8540 C   0  0  0  0  0  2  0  0  0  0  0  0
  1 20  1  1  0  0  0
  1 23  1  0  0  0  0
  2  3  1  0  0  0  0
  3 17  2  0  0  0  0
  4 21  2  0  0  0  0
  4  5  1  0  0  0  0
  5 24  1  0  0  0  0
  5 16  2  0  0  0  0
  6 25  1  1  0  0  0
  6 20  1  0  0  0  0
  7 15  1  0  0  0  0
  8 22  2  0  0  0  0
  8 14  1  0  0  0  0
 10  2  2  0  0  0  0
 10 12  1  0  0  0  0
 11  7  1  6  0  0  0
 11 12  1  0  0  0  0
 11  1  1  0  0  0  0
 12 18  2  0  0  0  0
 13 19  2  0  0  0  0
 15  9  1  6  0  0  0
 15  6  1  0  0  0  0
 16 14  1  0  0  0  0
 18 17  1  0  0  0  0
 18 13  1  0  0  0  0
 23 13  1  1  0  0  0
 23  4  1  0  0  0  0
 24 19  1  6  0  0  0
 24  8  1  0  0  0  0
 25 27  1  0  0  0  0
 27 26  1  6  0  0  0
 27 28  1  0  0  0  0
 29 28  1  0  0  0  0
 30 29  1  0  0  0  0
 31 32  1  0  0  0  0
 31 30  1  0  0  0  0
 32 30  1  0  0  0  0
M  END
>  <MODEL>
5

>  <REMARK>
 VINA RESULT:      -7.1      3.372      6.957
  Name = 
  5 active torsions:
  status: ('A' for Active; 'I' for Inactive)
    1  A    between atoms: C_1  and  C_10
    2  A    between atoms: C_8  and  C_23
    3  A    between atoms: C_10  and  C_24
    4  A    between atoms: C_19  and  C_23
    5  A    between atoms: C_19  and  C_24
                            x       y       z     vdW  Elec       q    Type
                         _______ _______ _______ _____ _____    ______ ____

>  <TORSDO>
F 5

$$$$
=
 OpenBabel10272413223D

 32 37  0  0  1  0  0  0  0  0999 V2000
  186.1220  178.9650  140.8470 C   0  0  1  0  0  3  0  0  0  0  0  0
  181.3380  178.0250  141.7930 C   0  0  0  0  0  3  0  0  0  0  0  0
  181.2680  177.2330  140.6470 C   0  0  0  0  0  3  0  0  0  0  0  0
  187.1450  178.2790  138.6460 C   0  0  0  0  0  0  0  0  0  0  0  0
  186.9910  177.3140  137.5610 C   0  0  0  0  0  0  0  0  0  0  0  0
  186.7070  177.8970  143.0370 C   0  0  2  0  0  3  0  0  0  0  0  0
  185.0600  179.6880  142.9220 O   0  0  0  0  0  0  0  0  0  0  0  0
  185.9010  175.8170  136.2660 C   0  0  0  0  0  0  0  0  0  0  0  0
  185.4260  178.6880  145.0530 C   0  0  0  0  0  1  0  0  0  0  0  0
  182.5000  178.7460  142.0740 C   0  0  0  0  0  3  0  0  0  0  0  0
  184.8490  179.4870  141.5350 C   0  0  2  0  0  3  0  0  0  0  0  0
  183.6100  178.6720  141.2200 C   0  0  0  0  0  0  0  0  0  0  0  0
  184.6720  177.8630  139.0840 C   0  0  0  0  0  0  0  0  0  0  0  0
  187.2390  175.3660  136.4230 N   0  0  0  0  0  2  0  0  0  0  0  0
  185.3710  178.4590  143.5510 C   0  0  2  0  0  3  0  0  0  0  0  0
  187.8430  176.3330  137.2760 C   0  0  0  0  0  3  0  0  0  0  0  0
  182.3560  177.1720  139.7740 C   0  0  0  0  0  3  0  0  0  0  0  0
  183.5320  177.8960  140.0390 C   0  0  0  0  0  0  0  0  0  0  0  0
  184.6000  177.0950  137.9770 C   0  0  0  0  0  3  0  0  0  0  0  0
  186.5930  177.6850  141.5330 C   0  0  0  0  0  2  0  0  0  0  0  0
  188.2870  178.6920  138.9880 O   0  0  0  0  0  0  0  0  0  0  0  0
  185.0410  175.1870  135.5950 O   0  0  0  0  0  0  0  0  0  0  0  0
  185.8890  178.7620  139.3440 C   0  0  1  0  0  3  0  0  0  0  0  0
  185.6660  177.1270  136.9190 C   0  0  1  0  0  3  0  0  0  0  0  0
  187.0280  176.5620  143.7040 C   0  0  0  0  0  2  0  0  0  0  0  0
  189.5270  176.4690  142.6300 S   0  0  0  0  0  1  0  0  0  0  0  0
  188.4890  176.4880  144.1220 C   0  0  1  0  0  3  0  0  0  0  0  0
  188.8510  177.6890  144.9810 C   0  0  0  0  0  2  0  0  0  0  0  0
  189.0840  177.2660  146.4180 C   0  0  0  0  0  2  0  0  0  0  0  0
  188.3840  178.2360  147.3470 C   0  0  0  0  0  3  0  0  0  0  0  0
  187.8840  177.4870  148.5630 C   0  0  0  0  0  2  0  0  0  0  0  0
  189.1480  178.3160  148.6540 C   0  0  0  0  0  2  0  0  0  0  0  0
  1 20  1  1  0  0  0
  1 11  1  0  0  0  0
  2 10  1  0  0  0  0
  3  2  2  0  0  0  0
  4 21  2  0  0  0  0
  5  4  1  0  0  0  0
  6 15  1  0  0  0  0
  6 25  1  1  0  0  0
  7 15  1  0  0  0  0
  8 14  1  0  0  0  0
  8 24  1  0  0  0  0
 11 12  1  1  0  0  0
 11  7  1  0  0  0  0
 12 10  2  0  0  0  0
 13 23  1  0  0  0  0
 13 18  1  0  0  0  0
 14 16  1  0  0  0  0
 15  9  1  1  0  0  0
 16  5  2  0  0  0  0
 17 18  2  0  0  0  0
 17  3  1  0  0  0  0
 18 12  1  0  0  0  0
 19 13  2  0  0  0  0
 20  6  1  0  0  0  0
 22  8  2  0  0  0  0
 23  4  1  1  0  0  0
 23  1  1  0  0  0  0
 24  5  1  0  0  0  0
 24 19  1  1  0  0  0
 25 27  1  0  0  0  0
 27 26  1  6  0  0  0
 27 28  1  0  0  0  0
 28 29  1  0  0  0  0
 29 30  1  0  0  0  0
 30 31  1  0  0  0  0
 30 32  1  0  0  0  0
 31 32  1  0  0  0  0
M  END
>  <MODEL>
6

>  <REMARK>
 VINA RESULT:      -6.9      3.715      5.676
  Name = 
  5 active torsions:
  status: ('A' for Active; 'I' for Inactive)
    1  A    between atoms: C_1  and  C_10
    2  A    between atoms: C_8  and  C_23
    3  A    between atoms: C_10  and  C_24
    4  A    between atoms: C_19  and  C_23
    5  A    between atoms: C_19  and  C_24
                            x       y       z     vdW  Elec       q    Type
                         _______ _______ _______ _____ _____    ______ ____

>  <TORSDO>
F 5

$$$$
=
 OpenBabel10272413223D

 32 37  0  0  1  0  0  0  0  0999 V2000
  188.8830  177.3880  137.3650 C   0  0  1  0  0  3  0  0  0  0  0  0
  191.3110  177.2680  141.6960 C   0  0  0  0  0  3  0  0  0  0  0  0
  190.1100  177.4810  142.3740 C   0  0  0  0  0  3  0  0  0  0  0  0
  186.4670  178.1050  137.2770 C   0  0  0  0  0  0  0  0  0  0  0  0
  185.2610  178.1760  138.0970 C   0  0  0  0  0  0  0  0  0  0  0  0
  189.6450  175.0400  136.9370 C   0  0  2  0  0  3  0  0  0  0  0  0
  191.2460  176.7890  137.4940 O   0  0  0  0  0  0  0  0  0  0  0  0
  184.0660  178.2380  140.0150 C   0  0  0  0  0  0  0  0  0  0  0  0
  192.1010  174.5810  137.2310 C   0  0  0  0  0  1  0  0  0  0  0  0
  191.3420  177.3080  140.3010 C   0  0  0  0  0  3  0  0  0  0  0  0
  190.2390  177.6150  138.0540 C   0  0  2  0  0  3  0  0  0  0  0  0
  190.1710  177.5490  139.5680 C   0  0  0  0  0  0  0  0  0  0  0  0
  187.7210  178.1270  139.4930 C   0  0  0  0  0  0  0  0  0  0  0  0
  183.3260  177.4870  139.0630 N   0  0  0  0  0  2  0  0  0  0  0  0
  190.9250  175.4250  137.6950 C   0  0  2  0  0  3  0  0  0  0  0  0
  184.1570  177.4600  137.9070 C   0  0  0  0  0  3  0  0  0  0  0  0
  188.9430  177.7490  141.6570 C   0  0  0  0  0  3  0  0  0  0  0  0
  188.9570  177.7980  140.2510 C   0  0  0  0  0  0  0  0  0  0  0  0
  186.5610  178.3320  140.1530 C   0  0  0  0  0  3  0  0  0  0  0  0
  188.5030  175.9110  137.4440 C   0  0  0  0  0  2  0  0  0  0  0  0
  186.3940  177.8930  136.0360 O   0  0  0  0  0  0  0  0  0  0  0  0
  183.6600  178.4450  141.1890 O   0  0  0  0  0  0  0  0  0  0  0  0
  187.8020  178.2950  137.9690 C   0  0  1  0  0  3  0  0  0  0  0  0
  185.3180  178.7930  139.4470 C   0  0  1  0  0  3  0  0  0  0  0  0
  189.2930  173.5730  137.1750 C   0  0  0  0  0  2  0  0  0  0  0  0
  189.9820  172.3340  134.8510 S   0  0  0  0  0  1  0  0  0  0  0  0
  188.6610  172.9470  135.9400 C   0  0  1  0  0  3  0  0  0  0  0  0
  187.7540  171.7950  136.3410 C   0  0  0  0  0  2  0  0  0  0  0  0
  186.2970  172.1890  136.1950 C   0  0  0  0  0  2  0  0  0  0  0  0
  185.8100  172.8000  137.4910 C   0  0  0  0  0  3  0  0  0  0  0  0
  185.3060  174.2020  137.2210 C   0  0  0  0  0  2  0  0  0  0  0  0
  184.3210  173.0650  137.3920 C   0  0  0  0  0  2  0  0  0  0  0  0
  1 20  1  1  0  0  0
  1 23  1  0  0  0  0
  1 11  1  0  0  0  0
  2  3  1  0  0  0  0
  4  5  1  0  0  0  0
  5 24  1  0  0  0  0
  6 25  1  1  0  0  0
  6 20  1  0  0  0  0
  6 15  1  0  0  0  0
  7 15  1  0  0  0  0
  8 22  2  0  0  0  0
 10  2  2  0  0  0  0
 11  7  1  6  0  0  0
 11 12  1  0  0  0  0
 12 18  2  0  0  0  0
 12 10  1  0  0  0  0
 13 19  2  0  0  0  0
 13 18  1  0  0  0  0
 14  8  1  0  0  0  0
 15  9  1  6  0  0  0
 16  5  2  0  0  0  0
 16 14  1  0  0  0  0
 17  3  2  0  0  0  0
 18 17  1  0  0  0  0
 21  4  2  0  0  0  0
 23  4  1  6  0  0  0
 23 13  1  0  0  0  0
 24  8  1  0  0  0  0
 24 19  1  1  0  0  0
 27 26  1  6  0  0  0
 27 28  1  0  0  0  0
 27 25  1  0  0  0  0
 29 28  1  0  0  0  0
 29 30  1  0  0  0  0
 31 32  1  0  0  0  0
 31 30  1  0  0  0  0
 32 30  1  0  0  0  0
M  END
>  <MODEL>
7

>  <REMARK>
 VINA RESULT:      -6.9      3.611      7.648
  Name = 
  5 active torsions:
  status: ('A' for Active; 'I' for Inactive)
    1  A    between atoms: C_1  and  C_10
    2  A    between atoms: C_8  and  C_23
    3  A    between atoms: C_10  and  C_24
    4  A    between atoms: C_19  and  C_23
    5  A    between atoms: C_19  and  C_24
                            x       y       z     vdW  Elec       q    Type
                         _______ _______ _______ _____ _____    ______ ____

>  <TORSDO>
F 5

$$$$
=
 OpenBabel10272413223D

 32 37  0  0  1  0  0  0  0  0999 V2000
  183.9430  178.4150  138.3110 C   0  0  1  0  0  3  0  0  0  0  0  0
  180.2100  175.1500  138.0360 C   0  0  0  0  0  3  0  0  0  0  0  0
  181.1010  174.1710  137.5940 C   0  0  0  0  0  3  0  0  0  0  0  0
  186.2080  177.8450  137.3590 C   0  0  0  0  0  0  0  0  0  0  0  0
  187.0620  176.7070  137.0340 C   0  0  0  0  0  0  0  0  0  0  0  0
  183.4910  178.6380  140.7650 C   0  0  2  0  0  3  0  0  0  0  0  0
  181.7090  178.9490  139.1350 O   0  0  0  0  0  0  0  0  0  0  0  0
  187.5380  174.5490  136.5550 C   0  0  0  0  0  0  0  0  0  0  0  0
  181.1070  179.0750  141.4370 C   0  0  0  0  0  1  0  0  0  0  0  0
  180.6480  176.4640  138.2100 C   0  0  0  0  0  3  0  0  0  0  0  0
  182.4240  178.2520  138.1300 C   0  0  2  0  0  3  0  0  0  0  0  0
  181.9830  176.8110  137.9590 C   0  0  0  0  0  0  0  0  0  0  0  0
  184.2830  176.1940  137.1370 C   0  0  0  0  0  0  0  0  0  0  0  0
  188.5920  175.0610  137.3560 N   0  0  0  0  0  2  0  0  0  0  0  0
  182.0120  178.4150  140.4100 C   0  0  2  0  0  3  0  0  0  0  0  0
  188.2020  176.3990  137.6470 C   0  0  0  0  0  3  0  0  0  0  0  0
  182.4260  174.5090  137.3130 C   0  0  0  0  0  3  0  0  0  0  0  0
  182.8820  175.8290  137.4790 C   0  0  0  0  0  0  0  0  0  0  0  0
  185.1400  175.2430  136.7110 C   0  0  0  0  0  3  0  0  0  0  0  0
  184.3500  177.9550  139.7090 C   0  0  0  0  0  2  0  0  0  0  0  0
  186.7050  178.9370  137.7480 O   0  0  0  0  0  0  0  0  0  0  0  0
  187.5150  173.3650  136.1290 O   0  0  0  0  0  0  0  0  0  0  0  0
  184.7090  177.6660  137.2120 C   0  0  1  0  0  3  0  0  0  0  0  0
  186.5230  175.5810  136.2300 C   0  0  1  0  0  3  0  0  0  0  0  0
  183.8180  178.0420  142.1320 C   0  0  0  0  0  2  0  0  0  0  0  0
  184.0680  179.5340  144.3950 S   0  0  0  0  0  1  0  0  0  0  0  0
  184.8370  178.8910  142.8790 C   0  0  1  0  0  3  0  0  0  0  0  0
  186.0540  178.0540  143.2390 C   0  0  0  0  0  2  0  0  0  0  0  0
  186.4340  178.2650  144.6920 C   0  0  0  0  0  2  0  0  0  0  0  0
  187.4590  177.2270  145.0990 C   0  0  0  0  0  3  0  0  0  0  0  0
  188.8070  177.8970  145.2600 C   0  0  0  0  0  2  0  0  0  0  0  0
  187.9820  177.5560  146.4830 C   0  0  0  0  0  2  0  0  0  0  0  0
  1 20  1  1  0  0  0
  2 10  1  0  0  0  0
  3  2  2  0  0  0  0
  4 21  2  0  0  0  0
  5  4  1  0  0  0  0
  5 16  2  0  0  0  0
  6 25  1  1  0  0  0
  7 15  1  0  0  0  0
  8 14  1  0  0  0  0
 11 12  1  1  0  0  0
 11  1  1  0  0  0  0
 11  7  1  0  0  0  0
 12 10  2  0  0  0  0
 13 18  1  0  0  0  0
 14 16  1  0  0  0  0
 15  6  1  0  0  0  0
 15  9  1  1  0  0  0
 17 18  2  0  0  0  0
 17  3  1  0  0  0  0
 18 12  1  0  0  0  0
 19 13  2  0  0  0  0
 20  6  1  0  0  0  0
 22  8  2  0  0  0  0
 23 13  1  1  0  0  0
 23  4  1  0  0  0  0
 23  1  1  0  0  0  0
 24  8  1  0  0  0  0
 24 19  1  1  0  0  0
 24  5  1  0  0  0  0
 25 27  1  0  0  0  0
 27 28  1  0  0  0  0
 27 26  1  1  0  0  0
 28 29  1  0  0  0  0
 29 30  1  0  0  0  0
 30 31  1  0  0  0  0
 30 32  1  0  0  0  0
 31 32  1  0  0  0  0
M  END
>  <MODEL>
8

>  <REMARK>
 VINA RESULT:      -6.6      3.933      5.965
  Name = 
  5 active torsions:
  status: ('A' for Active; 'I' for Inactive)
    1  A    between atoms: C_1  and  C_10
    2  A    between atoms: C_8  and  C_23
    3  A    between atoms: C_10  and  C_24
    4  A    between atoms: C_19  and  C_23
    5  A    between atoms: C_19  and  C_24
                            x       y       z     vdW  Elec       q    Type
                         _______ _______ _______ _____ _____    ______ ____

>  <TORSDO>
F 5

$$$$
=
 OpenBabel10272413223D

 32 37  0  0  1  0  0  0  0  0999 V2000
  186.0350  178.8970  139.8980 C   0  0  1  0  0  3  0  0  0  0  0  0
  181.5630  176.7350  139.9120 C   0  0  0  0  0  3  0  0  0  0  0  0
  182.0040  175.8200  138.9550 C   0  0  0  0  0  3  0  0  0  0  0  0
  187.7490  178.2690  138.1570 C   0  0  0  0  0  0  0  0  0  0  0  0
  188.1370  177.1750  137.2730 C   0  0  0  0  0  0  0  0  0  0  0  0
  186.2570  178.3250  142.3270 C   0  0  2  0  0  3  0  0  0  0  0  0
  184.3080  179.5320  141.5020 O   0  0  0  0  0  0  0  0  0  0  0  0
  187.8440  175.2760  136.0810 C   0  0  0  0  0  0  0  0  0  0  0  0
  184.3270  178.9540  143.8130 C   0  0  0  0  0  1  0  0  0  0  0  0
  182.3890  177.7900  140.3010 C   0  0  0  0  0  3  0  0  0  0  0  0
  184.5350  179.1080  140.1680 C   0  0  2  0  0  3  0  0  0  0  0  0
  183.6700  177.9360  139.7480 C   0  0  0  0  0  0  0  0  0  0  0  0
  185.4340  177.2120  138.1020 C   0  0  0  0  0  0  0  0  0  0  0  0
  189.1590  175.2570  136.6170 N   0  0  0  0  0  2  0  0  0  0  0  0
  184.7360  178.5350  142.4110 C   0  0  2  0  0  3  0  0  0  0  0  0
  189.2500  176.4550  137.3810 C   0  0  0  0  0  3  0  0  0  0  0  0
  183.2650  175.9700  138.3760 C   0  0  0  0  0  3  0  0  0  0  0  0
  184.1080  177.0310  138.7530 C   0  0  0  0  0  0  0  0  0  0  0  0
  185.8550  176.3240  137.1770 C   0  0  0  0  0  3  0  0  0  0  0  0
  186.6080  177.9040  140.9060 C   0  0  0  0  0  2  0  0  0  0  0  0
  188.6160  179.0350  138.6590 O   0  0  0  0  0  0  0  0  0  0  0  0
  187.3810  174.3460  135.3690 O   0  0  0  0  0  0  0  0  0  0  0  0
  186.2720  178.4500  138.4490 C   0  0  1  0  0  3  0  0  0  0  0  0
  187.1230  176.5330  136.3990 C   0  0  1  0  0  3  0  0  0  0  0  0
  186.7090  177.2340  143.2940 C   0  0  0  0  0  2  0  0  0  0  0  0
  187.4420  178.0190  145.7950 S   0  0  0  0  0  1  0  0  0  0  0  0
  187.9380  177.6660  144.0820 C   0  0  1  0  0  3  0  0  0  0  0  0
  188.9830  176.5620  144.0700 C   0  0  0  0  0  2  0  0  0  0  0  0
  189.4710  176.3060  142.6570 C   0  0  0  0  0  2  0  0  0  0  0  0
  190.1180  177.5620  142.1140 C   0  0  0  0  0  3  0  0  0  0  0  0
  191.6100  177.3390  141.9910 C   0  0  0  0  0  2  0  0  0  0  0  0
  190.7320  177.2640  140.7600 C   0  0  0  0  0  2  0  0  0  0  0  0
  1 11  1  0  0  0  0
  1 20  1  1  0  0  0
  2 10  1  0  0  0  0
  3  2  2  0  0  0  0
  4 23  1  0  0  0  0
  4 21  2  0  0  0  0
  5 16  2  0  0  0  0
  5  4  1  0  0  0  0
  6 15  1  0  0  0  0
  6 25  1  1  0  0  0
  7 15  1  0  0  0  0
  8 24  1  0  0  0  0
  8 14  1  0  0  0  0
 11 12  1  1  0  0  0
 11  7  1  0  0  0  0
 12 10  2  0  0  0  0
 13 18  1  0  0  0  0
 14 16  1  0  0  0  0
 15  9  1  1  0  0  0
 17 18  2  0  0  0  0
 17  3  1  0  0  0  0
 18 12  1  0  0  0  0
 19 13  2  0  0  0  0
 20  6  1  0  0  0  0
 22  8  2  0  0  0  0
 23 13  1  1  0  0  0
 23  1  1  0  0  0  0
 24 19  1  1  0  0  0
 24  5  1  0  0  0  0
 25 27  1  0  0  0  0
 27 26  1  1  0  0  0
 28 27  1  0  0  0  0
 29 28  1  0  0  0  0
 30 29  1  0  0  0  0
 31 30  1  0  0  0  0
 32 31  1  0  0  0  0
 32 30  1  0  0  0  0
M  END
>  <MODEL>
9

>  <REMARK>
 VINA RESULT:      -6.6      2.982      5.038
  Name = 
  5 active torsions:
  status: ('A' for Active; 'I' for Inactive)
    1  A    between atoms: C_1  and  C_10
    2  A    between atoms: C_8  and  C_23
    3  A    between atoms: C_10  and  C_24
    4  A    between atoms: C_19  and  C_23
    5  A    between atoms: C_19  and  C_24
                            x       y       z     vdW  Elec       q    Type
                         _______ _______ _______ _____ _____    ______ ____

>  <TORSDO>
F 5

$$$$
