=
 OpenBabel10272413453D

 30 32  0  0  1  0  0  0  0  0999 V2000
  183.8220  177.4840  138.3920 C   0  0  1  0  0  3  0  0  0  0  0  0
  181.5900  178.7830  138.4310 C   0  0  2  0  0  3  0  0  0  0  0  0
  184.3210  178.1970  139.5600 N   0  0  0  0  0  2  0  0  0  0  0  0
  181.5710  178.5130  142.1150 C   0  0  0  0  0  3  0  0  0  0  0  0
  182.1900  178.2880  140.8780 C   0  0  0  0  0  0  0  0  0  0  0  0
  184.3380  178.7750  141.9080 C   0  0  0  0  0  3  0  0  0  0  0  0
  183.6000  178.4100  140.7770 C   0  0  0  0  0  0  0  0  0  0  0  0
  181.2860  177.9870  139.7150 C   0  0  2  0  0  3  0  0  0  0  0  0
  182.3230  178.8600  143.2380 C   0  0  0  0  0  3  0  0  0  0  0  0
  183.7070  178.9960  143.1340 C   0  0  0  0  0  3  0  0  0  0  0  0
  182.7950  178.3100  137.6040 C   0  0  2  0  0  3  0  0  0  0  0  0
  185.1330  175.7200  137.0730 C   0  0  0  0  0  0  0  0  0  0  0  0
  186.2360  175.3890  136.2790 C   0  0  0  0  0  3  0  0  0  0  0  0
  183.9850  174.4450  137.4630 Cl  0  0  0  0  0  0  0  0  0  0  0  0
  185.9250  178.0120  137.1840 C   0  0  0  0  0  3  0  0  0  0  0  0
  187.9370  178.6150  136.0590 F   0  0  0  0  0  0  0  0  0  0  0  0
  184.9740  177.0470  137.5320 C   0  0  0  0  0  0  0  0  0  0  0  0
  187.1780  176.3610  135.9380 C   0  0  0  0  0  3  0  0  0  0  0  0
  187.0230  177.6720  136.3900 C   0  0  0  0  0  0  0  0  0  0  0  0
  182.3250  177.5570  136.4610 N   0  0  0  0  0  0  0  0  0  0  0  0
  181.4440  179.5660  135.3710 C   0  0  0  0  0  1  0  0  0  0  0  0
  181.7170  178.0950  135.4610 C   0  0  0  0  0  3  0  0  0  0  0  0
  180.1350  176.1370  138.2310 O   0  0  0  0  0  0  0  0  0  0  0  0
  181.0560  176.2090  139.4410 S   0  0  2  0  0  0  0  0  0  0  0  0
  180.0200  175.6430  140.8100 C   0  0  0  0  0  2  0  0  0  0  0  0
  179.9830  174.1280  140.8670 C   0  0  0  0  0  1  0  0  0  0  0  0
  181.6650  180.2880  138.6690 C   0  0  0  0  0  2  0  0  0  0  0  0
  180.0340  181.2190  140.1480 O   0  0  0  0  0  1  0  0  0  0  0  0
  180.2770  180.8890  138.8130 C   0  0  1  0  0  3  0  0  0  0  0  0
  180.1850  182.1390  137.9660 C   0  0  0  0  0  1  0  0  0  0  0  0
  1 17  1  6  0  0  0
  1  3  1  0  0  0  0
  2 27  1  1  0  0  0
  2  8  1  0  0  0  0
  3  7  1  0  0  0  0
  4  9  1  0  0  0  0
  5  4  2  0  0  0  0
  6 10  1  0  0  0  0
  7  5  1  0  0  0  0
  7  6  2  0  0  0  0
  8 24  1  6  0  0  0
  8  5  1  0  0  0  0
 10  9  2  0  0  0  0
 11 20  1  6  0  0  0
 11  1  1  0  0  0  0
 11  2  1  0  0  0  0
 12 14  1  0  0  0  0
 12 17  1  0  0  0  0
 13 12  2  0  0  0  0
 15 17  2  0  0  0  0
 16 19  1  0  0  0  0
 18 13  1  0  0  0  0
 18 19  2  0  0  0  0
 19 15  1  0  0  0  0
 21 22  1  0  0  0  0
 22 20  2  0  0  0  0
 24 23  2  6  0  0  0
 24 25  1  0  0  0  0
 25 26  1  0  0  0  0
 27 29  1  0  0  0  0
 29 30  1  6  0  0  0
 29 28  1  0  0  0  0
M  END
>  <MODEL>
1

>  <REMARK>
 VINA RESULT:      -4.3      0.000      0.000
  Name = 
  6 active torsions:
  status: ('A' for Active; 'I' for Inactive)
    1  A    between atoms: C_1  and  C_22
    2  A    between atoms: C_4  and  C_25
    3  A    between atoms: C_7  and  S_30
    4  A    between atoms: N_10  and  C_23
    5  A    between atoms: C_11  and  C_25
    6  A    between atoms: C_13  and  S_30
                            x       y       z     vdW  Elec       q    Type
                         _______ _______ _______ _____ _____    ______ ____

>  <TORSDO>
F 6

$$$$
=
 OpenBabel10272413453D

 30 32  0  0  1  0  0  0  0  0999 V2000
  185.1690  176.7210  137.3150 C   0  0  1  0  0  3  0  0  0  0  0  0
  182.7730  176.6630  138.2770 C   0  0  2  0  0  3  0  0  0  0  0  0
  185.3490  175.2920  137.5310 N   0  0  0  0  0  2  0  0  0  0  0  0
  182.2160  173.4590  136.5260 C   0  0  0  0  0  3  0  0  0  0  0  0
  183.0520  174.5250  136.8830 C   0  0  0  0  0  0  0  0  0  0  0  0
  184.8960  172.9550  137.0990 C   0  0  0  0  0  3  0  0  0  0  0  0
  184.4180  174.2690  137.1620 C   0  0  0  0  0  0  0  0  0  0  0  0
  182.4070  175.8780  137.0030 C   0  0  2  0  0  3  0  0  0  0  0  0
  182.7110  172.1560  136.4510 C   0  0  0  0  0  3  0  0  0  0  0  0
  184.0500  171.9030  136.7420 C   0  0  0  0  0  3  0  0  0  0  0  0
  184.1550  177.3310  138.2940 C   0  0  2  0  0  3  0  0  0  0  0  0
  187.1380  177.9540  136.2340 C   0  0  0  0  0  0  0  0  0  0  0  0
  188.3800  178.5840  136.3690 C   0  0  0  0  0  3  0  0  0  0  0  0
  186.4280  177.8660  134.6270 Cl  0  0  0  0  0  0  0  0  0  0  0  0
  187.1200  177.5210  138.6230 C   0  0  0  0  0  3  0  0  0  0  0  0
  188.9520  178.2480  139.9620 F   0  0  0  0  0  0  0  0  0  0  0  0
  186.4990  177.4160  137.3740 C   0  0  0  0  0  0  0  0  0  0  0  0
  188.9900  178.6830  137.6210 C   0  0  0  0  0  3  0  0  0  0  0  0
  188.3610  178.1520  138.7470 C   0  0  0  0  0  0  0  0  0  0  0  0
  184.0060  178.7470  138.0340 N   0  0  0  0  0  0  0  0  0  0  0  0
  184.3400  179.3190  140.3930 C   0  0  0  0  0  1  0  0  0  0  0  0
  184.0790  179.6460  138.9540 C   0  0  0  0  0  3  0  0  0  0  0  0
  181.9130  178.1970  135.8500 O   0  0  0  0  0  0  0  0  0  0  0  0
  182.5260  176.8540  135.4780 S   0  0  2  0  0  0  0  0  0  0  0  0
  181.3210  176.1250  134.3460 C   0  0  0  0  0  2  0  0  0  0  0  0
  179.9970  175.8870  135.0480 C   0  0  0  0  0  1  0  0  0  0  0  0
  182.5540  175.8570  139.5540 C   0  0  0  0  0  2  0  0  0  0  0  0
  180.6930  177.3500  139.7000 O   0  0  0  0  0  1  0  0  0  0  0  0
  181.1730  176.1130  140.1330 C   0  0  1  0  0  3  0  0  0  0  0  0
  180.2300  175.0230  139.6710 C   0  0  0  0  0  1  0  0  0  0  0  0
  1 17  1  1  0  0  0
  1  3  1  0  0  0  0
  1 11  1  0  0  0  0
  2 11  1  0  0  0  0
  2 27  1  1  0  0  0
  4  5  1  0  0  0  0
  5  8  1  0  0  0  0
  5  7  2  0  0  0  0
  6  7  1  0  0  0  0
  7  3  1  0  0  0  0
  8 24  1  6  0  0  0
  8  2  1  0  0  0  0
  9  4  2  0  0  0  0
  9 10  1  0  0  0  0
 10  6  2  0  0  0  0
 11 20  1  6  0  0  0
 12 13  2  0  0  0  0
 12 17  1  0  0  0  0
 13 18  1  0  0  0  0
 14 12  1  0  0  0  0
 15 19  1  0  0  0  0
 17 15  2  0  0  0  0
 18 19  2  0  0  0  0
 19 16  1  0  0  0  0
 20 22  2  0  0  0  0
 22 21  1  0  0  0  0
 24 23  2  1  0  0  0
 25 26  1  0  0  0  0
 25 24  1  0  0  0  0
 27 29  1  0  0  0  0
 28 29  1  0  0  0  0
 29 30  1  6  0  0  0
M  END
>  <MODEL>
2

>  <REMARK>
 VINA RESULT:      -4.3      2.697      5.094
  Name = 
  6 active torsions:
  status: ('A' for Active; 'I' for Inactive)
    1  A    between atoms: C_1  and  C_22
    2  A    between atoms: C_4  and  C_25
    3  A    between atoms: C_7  and  S_30
    4  A    between atoms: N_10  and  C_23
    5  A    between atoms: C_11  and  C_25
    6  A    between atoms: C_13  and  S_30
                            x       y       z     vdW  Elec       q    Type
                         _______ _______ _______ _____ _____    ______ ____

>  <TORSDO>
F 6

$$$$
=
 OpenBabel10272413453D

 30 32  0  0  1  0  0  0  0  0999 V2000
  183.9330  177.3030  137.8590 C   0  0  1  0  0  3  0  0  0  0  0  0
  184.5300  178.7770  139.8940 C   0  0  2  0  0  3  0  0  0  0  0  0
  183.0330  176.4770  138.6510 N   0  0  0  0  0  2  0  0  0  0  0  0
  180.9860  178.6690  140.9300 C   0  0  0  0  0  3  0  0  0  0  0  0
  182.0150  178.2830  140.0620 C   0  0  0  0  0  0  0  0  0  0  0  0
  181.0230  176.0670  139.9330 C   0  0  0  0  0  3  0  0  0  0  0  0
  182.0260  176.9620  139.5460 C   0  0  0  0  0  0  0  0  0  0  0  0
  183.0860  179.3030  139.7870 C   0  0  2  0  0  3  0  0  0  0  0  0
  179.9820  177.7700  141.2940 C   0  0  0  0  0  3  0  0  0  0  0  0
  180.0030  176.4670  140.7990 C   0  0  0  0  0  3  0  0  0  0  0  0
  185.0400  177.9380  138.7140 C   0  0  2  0  0  3  0  0  0  0  0  0
  184.0360  176.6300  135.3870 C   0  0  0  0  0  0  0  0  0  0  0  0
  184.6030  175.8420  134.3810 C   0  0  0  0  0  3  0  0  0  0  0  0
  182.7680  177.7610  134.9340 Cl  0  0  0  0  0  0  0  0  0  0  0  0
  185.5050  175.5800  137.0100 C   0  0  0  0  0  3  0  0  0  0  0  0
  187.0450  173.9100  136.2920 F   0  0  0  0  0  0  0  0  0  0  0  0
  184.4910  176.4990  136.7190 C   0  0  0  0  0  0  0  0  0  0  0  0
  185.6140  174.9280  134.6840 C   0  0  0  0  0  3  0  0  0  0  0  0
  186.0650  174.7960  135.9980 C   0  0  0  0  0  0  0  0  0  0  0  0
  185.9010  178.7530  137.8830 N   0  0  0  0  0  0  0  0  0  0  0  0
  187.9260  177.7110  138.7850 C   0  0  0  0  0  1  0  0  0  0  0  0
  187.1870  178.6720  137.9050 C   0  0  0  0  0  3  0  0  0  0  0  0
  182.7240  181.7140  138.7840 O   0  0  0  0  0  0  0  0  0  0  0  0
  182.7660  180.2750  138.2890 S   0  0  2  0  0  0  0  0  0  0  0  0
  181.0520  179.9180  137.8420 C   0  0  0  0  0  2  0  0  0  0  0  0
  180.6910  180.5730  136.5230 C   0  0  0  0  0  1  0  0  0  0  0  0
  184.8050  178.0630  141.2140 C   0  0  0  0  0  2  0  0  0  0  0  0
  184.9010  179.5630  143.0720 O   0  0  0  0  0  1  0  0  0  0  0  0
  185.6840  178.9080  142.1200 C   0  0  1  0  0  3  0  0  0  0  0  0
  186.6780  178.0110  142.8260 C   0  0  0  0  0  1  0  0  0  0  0  0
  1 17  1  6  0  0  0
  1  3  1  0  0  0  0
  1 11  1  0  0  0  0
  2 27  1  1  0  0  0
  3  7  1  0  0  0  0
  4  9  1  0  0  0  0
  5  4  2  0  0  0  0
  6 10  1  0  0  0  0
  7  6  2  0  0  0  0
  7  5  1  0  0  0  0
  8 24  1  6  0  0  0
  8  2  1  0  0  0  0
  8  5  1  0  0  0  0
 10  9  2  0  0  0  0
 11 20  1  6  0  0  0
 11  2  1  0  0  0  0
 12 17  1  0  0  0  0
 13 18  1  0  0  0  0
 13 12  2  0  0  0  0
 14 12  1  0  0  0  0
 17 15  2  0  0  0  0
 18 19  2  0  0  0  0
 19 16  1  0  0  0  0
 19 15  1  0  0  0  0
 20 22  2  0  0  0  0
 22 21  1  0  0  0  0
 24 23  2  1  0  0  0
 25 24  1  0  0  0  0
 26 25  1  0  0  0  0
 27 29  1  0  0  0  0
 29 30  1  1  0  0  0
 29 28  1  0  0  0  0
M  END
>  <MODEL>
3

>  <REMARK>
 VINA RESULT:      -4.2      2.459      4.514
  Name = 
  6 active torsions:
  status: ('A' for Active; 'I' for Inactive)
    1  A    between atoms: C_1  and  C_22
    2  A    between atoms: C_4  and  C_25
    3  A    between atoms: C_7  and  S_30
    4  A    between atoms: N_10  and  C_23
    5  A    between atoms: C_11  and  C_25
    6  A    between atoms: C_13  and  S_30
                            x       y       z     vdW  Elec       q    Type
                         _______ _______ _______ _____ _____    ______ ____

>  <TORSDO>
F 6

$$$$
=
 OpenBabel10272413453D

 30 32  0  0  1  0  0  0  0  0999 V2000
  182.9360  175.0990  136.9180 C   0  0  1  0  0  3  0  0  0  0  0  0
  184.4410  177.1650  136.5480 C   0  0  2  0  0  3  0  0  0  0  0  0
  182.8130  175.3750  138.3430 N   0  0  0  0  0  2  0  0  0  0  0  0
  182.2900  179.0680  138.8710 C   0  0  0  0  0  3  0  0  0  0  0  0
  182.6280  177.8730  138.2230 C   0  0  0  0  0  0  0  0  0  0  0  0
  182.0570  176.6580  140.2500 C   0  0  0  0  0  3  0  0  0  0  0  0
  182.4970  176.6460  138.9220 C   0  0  0  0  0  0  0  0  0  0  0  0
  183.1710  177.9930  136.8260 C   0  0  2  0  0  3  0  0  0  0  0  0
  181.8370  179.0630  140.1910 C   0  0  0  0  0  3  0  0  0  0  0  0
  181.7250  177.8570  140.8820 C   0  0  0  0  0  3  0  0  0  0  0  0
  184.2400  175.6590  136.3310 C   0  0  2  0  0  3  0  0  0  0  0  0
  183.7460  172.6750  137.1020 C   0  0  0  0  0  0  0  0  0  0  0  0
  183.5440  171.3170  136.8300 C   0  0  0  0  0  3  0  0  0  0  0  0
  185.2000  173.1320  137.9800 Cl  0  0  0  0  0  0  0  0  0  0  0  0
  181.6580  173.1910  135.9780 C   0  0  0  0  0  3  0  0  0  0  0  0
  180.3620  171.4270  135.0380 F   0  0  0  0  0  0  0  0  0  0  0  0
  182.7920  173.6250  136.6720 C   0  0  0  0  0  0  0  0  0  0  0  0
  182.4070  170.8970  136.1360 C   0  0  0  0  0  3  0  0  0  0  0  0
  181.4650  171.8340  135.7100 C   0  0  0  0  0  0  0  0  0  0  0  0
  184.3110  175.3650  134.9150 N   0  0  0  0  0  0  0  0  0  0  0  0
  186.6100  174.5410  135.0970 C   0  0  0  0  0  1  0  0  0  0  0  0
  185.3570  174.8740  134.3460 C   0  0  0  0  0  3  0  0  0  0  0  0
  182.4690  178.5480  134.3460 O   0  0  0  0  0  0  0  0  0  0  0  0
  181.8900  177.8230  135.5530 S   0  0  2  0  0  0  0  0  0  0  0  0
  180.5340  178.8900  136.0920 C   0  0  0  0  0  2  0  0  0  0  0  0
  180.7570  180.3180  135.6320 C   0  0  0  0  0  1  0  0  0  0  0  0
  185.5460  177.4130  137.5700 C   0  0  0  0  0  2  0  0  0  0  0  0
  187.1010  179.0910  136.8730 O   0  0  0  0  0  1  0  0  0  0  0  0
  186.8680  177.7140  136.8840 C   0  0  1  0  0  3  0  0  0  0  0  0
  187.9870  177.0260  137.6350 C   0  0  0  0  0  1  0  0  0  0  0  0
  1 17  1  1  0  0  0
  1  3  1  0  0  0  0
  2  8  1  0  0  0  0
  2 27  1  1  0  0  0
  3  7  1  0  0  0  0
  4  9  1  0  0  0  0
  5  4  2  0  0  0  0
  5  7  1  0  0  0  0
  6 10  1  0  0  0  0
  7  6  2  0  0  0  0
  8 24  1  6  0  0  0
  8  5  1  0  0  0  0
  9 10  2  0  0  0  0
 11 20  1  6  0  0  0
 11  2  1  0  0  0  0
 11  1  1  0  0  0  0
 12 14  1  0  0  0  0
 13 12  1  0  0  0  0
 15 17  1  0  0  0  0
 16 19  1  0  0  0  0
 17 12  2  0  0  0  0
 18 13  2  0  0  0  0
 19 15  2  0  0  0  0
 19 18  1  0  0  0  0
 22 20  2  0  0  0  0
 22 21  1  0  0  0  0
 24 23  2  6  0  0  0
 24 25  1  0  0  0  0
 26 25  1  0  0  0  0
 28 29  1  0  0  0  0
 29 27  1  0  0  0  0
 29 30  1  1  0  0  0
M  END
>  <MODEL>
4

>  <REMARK>
 VINA RESULT:      -4.0      3.617      5.506
  Name = 
  6 active torsions:
  status: ('A' for Active; 'I' for Inactive)
    1  A    between atoms: C_1  and  C_22
    2  A    between atoms: C_4  and  C_25
    3  A    between atoms: C_7  and  S_30
    4  A    between atoms: N_10  and  C_23
    5  A    between atoms: C_11  and  C_25
    6  A    between atoms: C_13  and  S_30
                            x       y       z     vdW  Elec       q    Type
                         _______ _______ _______ _____ _____    ______ ____

>  <TORSDO>
F 6

$$$$
=
 OpenBabel10272413453D

 30 32  0  0  1  0  0  0  0  0999 V2000
  184.2830  178.4040  138.8320 C   0  0  1  0  0  3  0  0  0  0  0  0
  182.4800  177.3930  137.2850 C   0  0  2  0  0  3  0  0  0  0  0  0
  183.8920  179.7640  138.4920 N   0  0  0  0  0  2  0  0  0  0  0  0
  180.1340  180.0130  138.4140 C   0  0  0  0  0  3  0  0  0  0  0  0
  181.4080  179.4300  138.4220 C   0  0  0  0  0  0  0  0  0  0  0  0
  182.3830  181.6560  138.4940 C   0  0  0  0  0  3  0  0  0  0  0  0
  182.5510  180.2670  138.4750 C   0  0  0  0  0  0  0  0  0  0  0  0
  181.4650  177.9310  138.3110 C   0  0  2  0  0  3  0  0  0  0  0  0
  179.9820  181.4000  138.4500 C   0  0  0  0  0  3  0  0  0  0  0  0
  181.1070  182.2220  138.4850 C   0  0  0  0  0  3  0  0  0  0  0  0
  183.9550  177.4080  137.7090 C   0  0  2  0  0  3  0  0  0  0  0  0
  186.1900  178.4400  140.5440 C   0  0  0  0  0  0  0  0  0  0  0  0
  187.5630  178.4080  140.8130 C   0  0  0  0  0  3  0  0  0  0  0  0
  185.0850  178.5630  141.9070 Cl  0  0  0  0  0  0  0  0  0  0  0  0
  186.6720  178.2740  138.1710 C   0  0  0  0  0  3  0  0  0  0  0  0
  188.9350  178.1490  137.4370 F   0  0  0  0  0  0  0  0  0  0  0  0
  185.7370  178.3710  139.2070 C   0  0  0  0  0  0  0  0  0  0  0  0
  188.4860  178.3110  139.7700 C   0  0  0  0  0  3  0  0  0  0  0  0
  188.0410  178.2440  138.4490 C   0  0  0  0  0  0  0  0  0  0  0  0
  184.3550  176.0730  138.0980 N   0  0  0  0  0  0  0  0  0  0  0  0
  185.2540  175.5840  135.8730 C   0  0  0  0  0  1  0  0  0  0  0  0
  184.9290  175.2440  137.2950 C   0  0  0  0  0  3  0  0  0  0  0  0
  180.2100  176.3810  140.0360 O   0  0  0  0  0  0  0  0  0  0  0  0
  181.5440  177.1070  139.9260 S   0  0  2  0  0  0  0  0  0  0  0  0
  181.4210  178.4320  141.1480 C   0  0  0  0  0  2  0  0  0  0  0  0
  180.0420  178.4580  141.7780 C   0  0  0  0  0  1  0  0  0  0  0  0
  182.3160  178.0200  135.9040 C   0  0  0  0  0  2  0  0  0  0  0  0
  181.5760  175.8020  135.4080 O   0  0  0  0  0  1  0  0  0  0  0  0
  181.4860  177.1310  134.9930 C   0  0  1  0  0  3  0  0  0  0  0  0
  180.0400  177.5730  135.0500 C   0  0  0  0  0  1  0  0  0  0  0  0
  1 17  1  6  0  0  0
  2 27  1  6  0  0  0
  2 11  1  0  0  0  0
  2  8  1  0  0  0  0
  3  1  1  0  0  0  0
  4  5  2  0  0  0  0
  4  9  1  0  0  0  0
  5  7  1  0  0  0  0
  7  3  1  0  0  0  0
  7  6  2  0  0  0  0
  8  5  1  0  0  0  0
  8 24  1  1  0  0  0
  9 10  2  0  0  0  0
 10  6  1  0  0  0  0
 11 20  1  1  0  0  0
 11  1  1  0  0  0  0
 12 13  1  0  0  0  0
 12 14  1  0  0  0  0
 15 19  2  0  0  0  0
 15 17  1  0  0  0  0
 16 19  1  0  0  0  0
 17 12  2  0  0  0  0
 18 13  2  0  0  0  0
 19 18  1  0  0  0  0
 21 22  1  0  0  0  0
 22 20  2  0  0  0  0
 24 23  2  1  0  0  0
 24 25  1  0  0  0  0
 25 26  1  0  0  0  0
 29 30  1  1  0  0  0
 29 28  1  0  0  0  0
 29 27  1  0  0  0  0
M  END
>  <MODEL>
5

>  <REMARK>
 VINA RESULT:      -3.9      2.301      4.060
  Name = 
  6 active torsions:
  status: ('A' for Active; 'I' for Inactive)
    1  A    between atoms: C_1  and  C_22
    2  A    between atoms: C_4  and  C_25
    3  A    between atoms: C_7  and  S_30
    4  A    between atoms: N_10  and  C_23
    5  A    between atoms: C_11  and  C_25
    6  A    between atoms: C_13  and  S_30
                            x       y       z     vdW  Elec       q    Type
                         _______ _______ _______ _____ _____    ______ ____

>  <TORSDO>
F 6

$$$$
=
 OpenBabel10272413453D

 30 32  0  0  1  0  0  0  0  0999 V2000
  182.7800  177.7590  139.3390 C   0  0  1  0  0  3  0  0  0  0  0  0
  182.2830  175.8390  137.6850 C   0  0  2  0  0  3  0  0  0  0  0  0
  184.2090  177.7000  139.0640 N   0  0  0  0  0  2  0  0  0  0  0  0
  184.7630  177.2860  135.3610 C   0  0  0  0  0  3  0  0  0  0  0  0
  184.0950  177.2940  136.5920 C   0  0  0  0  0  0  0  0  0  0  0  0
  186.1650  177.9770  137.6680 C   0  0  0  0  0  3  0  0  0  0  0  0
  184.8060  177.6580  137.7640 C   0  0  0  0  0  0  0  0  0  0  0  0
  182.6580  176.8490  136.5830 C   0  0  2  0  0  3  0  0  0  0  0  0
  186.1150  177.6220  135.2790 C   0  0  0  0  0  3  0  0  0  0  0  0
  186.8180  177.9640  136.4340 C   0  0  0  0  0  3  0  0  0  0  0  0
  182.0880  176.4090  139.0970 C   0  0  2  0  0  3  0  0  0  0  0  0
  181.4050  179.0060  141.1060 C   0  0  0  0  0  0  0  0  0  0  0  0
  181.2660  179.4510  142.4260 C   0  0  0  0  0  3  0  0  0  0  0  0
  180.1250  179.3970  139.9650 Cl  0  0  0  0  0  0  0  0  0  0  0  0
  183.5310  177.9920  141.6930 C   0  0  0  0  0  3  0  0  0  0  0  0
  184.3390  178.1670  143.9280 F   0  0  0  0  0  0  0  0  0  0  0  0
  182.5510  178.2680  140.7340 C   0  0  0  0  0  0  0  0  0  0  0  0
  182.2500  179.1690  143.3740 C   0  0  0  0  0  3  0  0  0  0  0  0
  183.3830  178.4400  143.0080 C   0  0  0  0  0  0  0  0  0  0  0  0
  180.6720  176.5210  139.3770 N   0  0  0  0  0  0  0  0  0  0  0  0
  180.5800  174.2700  140.3390 C   0  0  0  0  0  1  0  0  0  0  0  0
  179.9820  175.5800  139.9230 C   0  0  0  0  0  3  0  0  0  0  0  0
  180.1240  177.5760  136.5590 O   0  0  0  0  0  0  0  0  0  0  0  0
  181.4920  178.2300  136.4240 S   0  0  2  0  0  0  0  0  0  0  0  0
  181.5680  178.7240  134.6880 C   0  0  0  0  0  2  0  0  0  0  0  0
  180.9500  180.0940  134.4890 C   0  0  0  0  0  1  0  0  0  0  0  0
  183.2120  174.6290  137.7220 C   0  0  0  0  0  2  0  0  0  0  0  0
  181.2110  173.5410  136.9980 O   0  0  0  0  0  1  0  0  0  0  0  0
  182.6030  173.4480  136.9860 C   0  0  1  0  0  3  0  0  0  0  0  0
  183.0900  173.4510  135.5530 C   0  0  0  0  0  1  0  0  0  0  0  0
  1 17  1  1  0  0  0
  2 27  1  1  0  0  0
  2 11  1  0  0  0  0
  3  1  1  0  0  0  0
  4  5  1  0  0  0  0
  5  7  2  0  0  0  0
  6  7  1  0  0  0  0
  7  3  1  0  0  0  0
  8 24  1  1  0  0  0
  8  5  1  0  0  0  0
  8  2  1  0  0  0  0
  9  4  2  0  0  0  0
  9 10  1  0  0  0  0
 10  6  2  0  0  0  0
 11  1  1  0  0  0  0
 11 20  1  6  0  0  0
 12 13  1  0  0  0  0
 13 18  2  0  0  0  0
 14 12  1  0  0  0  0
 15 19  2  0  0  0  0
 17 12  2  0  0  0  0
 17 15  1  0  0  0  0
 19 18  1  0  0  0  0
 19 16  1  0  0  0  0
 20 22  2  0  0  0  0
 22 21  1  0  0  0  0
 24 23  2  6  0  0  0
 25 24  1  0  0  0  0
 26 25  1  0  0  0  0
 29 30  1  6  0  0  0
 29 28  1  0  0  0  0
 29 27  1  0  0  0  0
M  END
>  <MODEL>
6

>  <REMARK>
 VINA RESULT:      -3.8      2.842      6.347
  Name = 
  6 active torsions:
  status: ('A' for Active; 'I' for Inactive)
    1  A    between atoms: C_1  and  C_22
    2  A    between atoms: C_4  and  C_25
    3  A    between atoms: C_7  and  S_30
    4  A    between atoms: N_10  and  C_23
    5  A    between atoms: C_11  and  C_25
    6  A    between atoms: C_13  and  S_30
                            x       y       z     vdW  Elec       q    Type
                         _______ _______ _______ _____ _____    ______ ____

>  <TORSDO>
F 6

$$$$
=
 OpenBabel10272413453D

 30 32  0  0  1  0  0  0  0  0999 V2000
  182.9990  178.7430  140.1300 C   0  0  1  0  0  3  0  0  0  0  0  0
  180.5070  178.5290  139.4870 C   0  0  2  0  0  3  0  0  0  0  0  0
  183.4100  177.8490  139.0570 N   0  0  0  0  0  2  0  0  0  0  0  0
  181.4800  178.6650  135.9260 C   0  0  0  0  0  3  0  0  0  0  0  0
  181.8230  178.6410  137.2850 C   0  0  0  0  0  0  0  0  0  0  0  0
  183.7370  177.2460  136.7370 C   0  0  0  0  0  3  0  0  0  0  0  0
  182.9780  177.9280  137.6940 C   0  0  0  0  0  0  0  0  0  0  0  0
  180.8830  179.3370  138.2310 C   0  0  2  0  0  3  0  0  0  0  0  0
  182.2570  177.9940  134.9810 C   0  0  0  0  0  3  0  0  0  0  0  0
  183.3830  177.2800  135.3870 C   0  0  0  0  0  3  0  0  0  0  0  0
  181.5630  178.4630  140.5990 C   0  0  2  0  0  3  0  0  0  0  0  0
  185.3860  178.6780  141.0630 C   0  0  0  0  0  0  0  0  0  0  0  0
  186.2410  178.6020  142.1670 C   0  0  0  0  0  3  0  0  0  0  0  0
  186.1100  178.7840  139.4640 Cl  0  0  0  0  0  0  0  0  0  0  0  0
  183.4770  178.5830  142.5600 C   0  0  0  0  0  3  0  0  0  0  0  0
  183.8350  178.4250  144.9110 F   0  0  0  0  0  0  0  0  0  0  0  0
  183.9860  178.6690  141.2600 C   0  0  0  0  0  0  0  0  0  0  0  0
  185.7210  178.5160  143.4600 C   0  0  0  0  0  3  0  0  0  0  0  0
  184.3400  178.5070  143.6570 C   0  0  0  0  0  0  0  0  0  0  0  0
  181.2010  179.3810  141.6580 N   0  0  0  0  0  0  0  0  0  0  0  0
  179.9830  177.6440  142.8840 C   0  0  0  0  0  1  0  0  0  0  0  0
  180.4940  179.0380  142.6800 C   0  0  0  0  0  3  0  0  0  0  0  0
  180.3600  181.5210  139.6120 O   0  0  0  0  0  0  0  0  0  0  0  0
  181.3720  181.0500  138.5770 S   0  0  2  0  0  0  0  0  0  0  0  0
  180.9410  181.9820  137.0900 C   0  0  0  0  0  2  0  0  0  0  0  0
  180.9910  183.4740  137.3560 C   0  0  0  0  0  1  0  0  0  0  0  0
  179.9900  177.1310  139.1610 C   0  0  0  0  0  2  0  0  0  0  0  0
  179.9850  175.3980  140.8070 O   0  0  0  0  0  1  0  0  0  0  0  0
  180.7940  176.0660  139.8870 C   0  0  1  0  0  3  0  0  0  0  0  0
  181.3280  175.0720  138.8780 C   0  0  0  0  0  1  0  0  0  0  0  0
  1 11  1  0  0  0  0
  1 17  1  1  0  0  0
  2 27  1  6  0  0  0
  2 11  1  0  0  0  0
  3  1  1  0  0  0  0
  4  5  1  0  0  0  0
  5  7  2  0  0  0  0
  5  8  1  0  0  0  0
  6  7  1  0  0  0  0
  7  3  1  0  0  0  0
  8 24  1  1  0  0  0
  8  2  1  0  0  0  0
  9 10  1  0  0  0  0
  9  4  2  0  0  0  0
 10  6  2  0  0  0  0
 11 20  1  1  0  0  0
 12 17  2  0  0  0  0
 12 13  1  0  0  0  0
 13 18  2  0  0  0  0
 14 12  1  0  0  0  0
 15 19  2  0  0  0  0
 17 15  1  0  0  0  0
 18 19  1  0  0  0  0
 19 16  1  0  0  0  0
 20 22  2  0  0  0  0
 22 21  1  0  0  0  0
 24 23  2  1  0  0  0
 25 26  1  0  0  0  0
 25 24  1  0  0  0  0
 27 29  1  0  0  0  0
 29 30  1  6  0  0  0
 29 28  1  0  0  0  0
M  END
>  <MODEL>
7

>  <REMARK>
 VINA RESULT:      -3.6      2.793      6.052
  Name = 
  6 active torsions:
  status: ('A' for Active; 'I' for Inactive)
    1  A    between atoms: C_1  and  C_22
    2  A    between atoms: C_4  and  C_25
    3  A    between atoms: C_7  and  S_30
    4  A    between atoms: N_10  and  C_23
    5  A    between atoms: C_11  and  C_25
    6  A    between atoms: C_13  and  S_30
                            x       y       z     vdW  Elec       q    Type
                         _______ _______ _______ _____ _____    ______ ____

>  <TORSDO>
F 6

$$$$
=
 OpenBabel10272413453D

 30 32  0  0  1  0  0  0  0  0999 V2000
  184.5120  174.9560  136.4690 C   0  0  1  0  0  3  0  0  0  0  0  0
  184.9780  177.4940  136.5740 C   0  0  2  0  0  3  0  0  0  0  0  0
  183.9480  174.9480  137.8120 N   0  0  0  0  0  2  0  0  0  0  0  0
  181.7260  177.9560  138.2620 C   0  0  0  0  0  3  0  0  0  0  0  0
  182.7020  177.1220  137.7040 C   0  0  0  0  0  0  0  0  0  0  0  0
  182.2750  175.5050  139.4680 C   0  0  0  0  0  3  0  0  0  0  0  0
  182.9720  175.8690  138.3110 C   0  0  0  0  0  0  0  0  0  0  0  0
  183.4470  177.6580  136.5120 C   0  0  2  0  0  3  0  0  0  0  0  0
  181.0260  177.5720  139.4070 C   0  0  0  0  0  3  0  0  0  0  0  0
  181.3040  176.3470  140.0130 C   0  0  0  0  0  3  0  0  0  0  0  0
  185.5280  176.0920  136.2740 C   0  0  2  0  0  3  0  0  0  0  0  0
  184.5290  172.7100  135.2340 C   0  0  0  0  0  0  0  0  0  0  0  0
  185.1380  171.4720  135.0010 C   0  0  0  0  0  3  0  0  0  0  0  0
  183.0570  173.0850  134.3470 Cl  0  0  0  0  0  0  0  0  0  0  0  0
  186.2770  173.2480  136.8300 C   0  0  0  0  0  3  0  0  0  0  0  0
  188.0130  171.6710  137.2470 F   0  0  0  0  0  0  0  0  0  0  0  0
  185.1040  173.6110  136.1590 C   0  0  0  0  0  0  0  0  0  0  0  0
  186.3080  171.1220  135.6770 C   0  0  0  0  0  3  0  0  0  0  0  0
  186.8780  172.0100  136.5910 C   0  0  0  0  0  0  0  0  0  0  0  0
  186.0520  176.0610  134.9260 N   0  0  0  0  0  0  0  0  0  0  0  0
  188.3620  175.8730  135.7200 C   0  0  0  0  0  1  0  0  0  0  0  0
  187.3100  175.9700  134.6580 C   0  0  0  0  0  3  0  0  0  0  0  0
  182.1580  178.4350  134.3480 O   0  0  0  0  0  0  0  0  0  0  0  0
  182.7150  177.1450  134.9330 S   0  0  2  0  0  0  0  0  0  0  0  0
  181.2430  176.1950  135.3740 C   0  0  0  0  0  2  0  0  0  0  0  0
  179.9840  176.9950  135.1030 C   0  0  0  0  0  1  0  0  0  0  0  0
  185.5820  178.0390  137.8640 C   0  0  0  0  0  2  0  0  0  0  0  0
  187.5210  179.1590  137.0270 O   0  0  0  0  0  1  0  0  0  0  0  0
  187.0990  178.0680  137.7890 C   0  0  1  0  0  3  0  0  0  0  0  0
  187.6640  178.1900  139.1870 C   0  0  0  0  0  1  0  0  0  0  0  0
  1 17  1  1  0  0  0
  1  3  1  0  0  0  0
  2 27  1  1  0  0  0
  3  7  1  0  0  0  0
  4  9  1  0  0  0  0
  5  4  2  0  0  0  0
  5  7  1  0  0  0  0
  6 10  1  0  0  0  0
  7  6  2  0  0  0  0
  8 24  1  6  0  0  0
  8  2  1  0  0  0  0
  8  5  1  0  0  0  0
  9 10  2  0  0  0  0
 11 20  1  6  0  0  0
 11  1  1  0  0  0  0
 11  2  1  0  0  0  0
 12 17  1  0  0  0  0
 13 12  2  0  0  0  0
 13 18  1  0  0  0  0
 14 12  1  0  0  0  0
 17 15  2  0  0  0  0
 18 19  2  0  0  0  0
 19 15  1  0  0  0  0
 19 16  1  0  0  0  0
 22 20  2  0  0  0  0
 22 21  1  0  0  0  0
 24 23  2  6  0  0  0
 24 25  1  0  0  0  0
 26 25  1  0  0  0  0
 28 29  1  0  0  0  0
 29 27  1  0  0  0  0
 29 30  1  1  0  0  0
M  END
>  <MODEL>
8

>  <REMARK>
 VINA RESULT:      -3.6      3.332      5.224
  Name = 
  6 active torsions:
  status: ('A' for Active; 'I' for Inactive)
    1  A    between atoms: C_1  and  C_22
    2  A    between atoms: C_4  and  C_25
    3  A    between atoms: C_7  and  S_30
    4  A    between atoms: N_10  and  C_23
    5  A    between atoms: C_11  and  C_25
    6  A    between atoms: C_13  and  S_30
                            x       y       z     vdW  Elec       q    Type
                         _______ _______ _______ _____ _____    ______ ____

>  <TORSDO>
F 6

$$$$
=
 OpenBabel10272413453D

 30 32  0  0  1  0  0  0  0  0999 V2000
  184.1690  176.2480  137.4560 C   0  0  1  0  0  3  0  0  0  0  0  0
  184.2880  175.8870  134.9020 C   0  0  2  0  0  3  0  0  0  0  0  0
  184.6520  174.9000  137.7250 N   0  0  0  0  0  2  0  0  0  0  0  0
  187.4760  174.0800  135.3700 C   0  0  0  0  0  3  0  0  0  0  0  0
  186.3630  174.7480  135.8980 C   0  0  0  0  0  0  0  0  0  0  0  0
  186.3260  173.1550  137.7340 C   0  0  0  0  0  3  0  0  0  0  0  0
  185.7860  174.2830  137.1080 C   0  0  0  0  0  0  0  0  0  0  0  0
  185.8170  175.8940  135.0910 C   0  0  2  0  0  3  0  0  0  0  0  0
  188.0140  172.9660  136.0160 C   0  0  0  0  0  3  0  0  0  0  0  0
  187.4360  172.5000  137.1960 C   0  0  0  0  0  3  0  0  0  0  0  0
  183.4490  176.3460  136.1030 C   0  0  2  0  0  3  0  0  0  0  0  0
  183.6000  177.8540  139.3710 C   0  0  0  0  0  0  0  0  0  0  0  0
  182.7450  178.2220  140.4160 C   0  0  0  0  0  3  0  0  0  0  0  0
  185.0220  178.8480  139.0800 Cl  0  0  0  0  0  0  0  0  0  0  0  0
  182.1540  175.9680  138.8780 C   0  0  0  0  0  3  0  0  0  0  0  0
  180.1970  175.6120  140.1910 F   0  0  0  0  0  0  0  0  0  0  0  0
  183.3020  176.7140  138.5920 C   0  0  0  0  0  0  0  0  0  0  0  0
  181.6020  177.4690  140.6920 C   0  0  0  0  0  3  0  0  0  0  0  0
  181.3060  176.3430  139.9230 C   0  0  0  0  0  0  0  0  0  0  0  0
  182.9970  177.7030  135.8810 N   0  0  0  0  0  0  0  0  0  0  0  0
  180.6760  176.9840  135.5630 C   0  0  0  0  0  1  0  0  0  0  0  0
  181.7690  178.0070  135.6330 C   0  0  0  0  0  3  0  0  0  0  0  0
  187.4950  177.8440  134.5140 O   0  0  0  0  0  0  0  0  0  0  0  0
  186.4880  177.5000  135.6030 S   0  0  2  0  0  0  0  0  0  0  0  0
  187.5140  177.1520  137.0490 C   0  0  0  0  0  2  0  0  0  0  0  0
  188.9830  177.3520  136.7290 C   0  0  0  0  0  1  0  0  0  0  0  0
  183.7630  174.5610  134.3610 C   0  0  0  0  0  2  0  0  0  0  0  0
  181.4350  174.0150  134.3480 O   0  0  0  0  0  1  0  0  0  0  0  0
  182.5670  174.0780  135.1630 C   0  0  1  0  0  3  0  0  0  0  0  0
  182.8610  172.6990  135.7130 C   0  0  0  0  0  1  0  0  0  0  0  0
  1  3  1  0  0  0  0
  1 17  1  1  0  0  0
  2 27  1  1  0  0  0
  2  8  1  0  0  0  0
  2 11  1  0  0  0  0
  4  5  2  0  0  0  0
  4  9  1  0  0  0  0
  5  7  1  0  0  0  0
  7  3  1  0  0  0  0
  7  6  2  0  0  0  0
  8 24  1  1  0  0  0
  8  5  1  0  0  0  0
  9 10  2  0  0  0  0
 10  6  1  0  0  0  0
 11 20  1  6  0  0  0
 11  1  1  0  0  0  0
 12 13  1  0  0  0  0
 13 18  2  0  0  0  0
 14 12  1  0  0  0  0
 15 19  2  0  0  0  0
 17 15  1  0  0  0  0
 17 12  2  0  0  0  0
 19 16  1  0  0  0  0
 19 18  1  0  0  0  0
 21 22  1  0  0  0  0
 22 20  2  0  0  0  0
 24 23  2  6  0  0  0
 24 25  1  0  0  0  0
 26 25  1  0  0  0  0
 27 29  1  0  0  0  0
 28 29  1  0  0  0  0
 29 30  1  6  0  0  0
M  END
>  <MODEL>
9

>  <REMARK>
 VINA RESULT:      -3.6      3.603      6.959
  Name = 
  6 active torsions:
  status: ('A' for Active; 'I' for Inactive)
    1  A    between atoms: C_1  and  C_22
    2  A    between atoms: C_4  and  C_25
    3  A    between atoms: C_7  and  S_30
    4  A    between atoms: N_10  and  C_23
    5  A    between atoms: C_11  and  C_25
    6  A    between atoms: C_13  and  S_30
                            x       y       z     vdW  Elec       q    Type
                         _______ _______ _______ _____ _____    ______ ____

>  <TORSDO>
F 6

$$$$
