=
 OpenBabel10272400433D

 25 27  0  0  1  0  0  0  0  0999 V2000
  184.3910  178.4040  143.1320 C   0  0  0  0  0  0  0  0  0  0  0  0
  185.5590  178.0010  143.8190 C   0  0  0  0  0  0  0  0  0  0  0  0
  183.3870  179.0060  145.1940 C   0  0  0  0  0  3  0  0  0  0  0  0
  184.5060  178.6480  145.8690 N   0  0  0  0  0  0  0  0  0  0  0  0
  186.7880  177.7070  146.0410 C   0  0  2  0  0  3  0  0  0  0  0  0
  187.1160  178.7010  147.1410 C   0  0  0  0  0  1  0  0  0  0  0  0
  186.7410  177.4390  143.0690 C   0  0  0  0  0  2  0  0  0  0  0  0
  183.3380  178.8870  143.8460 N   0  0  0  0  0  0  0  0  0  0  0  0
  188.0410  177.4690  145.2060 C   0  0  0  0  0  2  0  0  0  0  0  0
  187.6940  176.6570  143.9670 C   0  0  2  0  0  3  0  0  0  0  0  0
  185.6030  178.1710  145.2220 C   0  0  0  0  0  0  0  0  0  0  0  0
  184.2670  178.3250  141.6560 C   0  0  0  0  0  0  0  0  0  0  0  0
  184.0590  178.0930  138.8620 C   0  0  0  0  0  3  0  0  0  0  0  0
  185.1320  179.0540  140.8140 C   0  0  0  0  0  0  0  0  0  0  0  0
  185.0210  178.9360  139.4240 C   0  0  0  0  0  3  0  0  0  0  0  0
  183.2050  177.3620  139.6890 C   0  0  0  0  0  3  0  0  0  0  0  0
  186.0930  179.9080  141.3410 O   0  0  0  0  0  1  0  0  0  0  0  0
  183.3120  177.4740  141.0770 C   0  0  0  0  0  3  0  0  0  0  0  0
  188.9500  176.1480  143.2330 C   0  0  0  0  0  2  0  0  0  0  0  0
  189.8170  177.1720  142.6200 N   0  0  0  0  0  0  0  0  0  0  0  0
  189.7980  177.0360  141.2700 O   0  0  0  0  0  1  0  0  0  0  0  0
  191.1980  177.0190  143.0880 C   0  0  2  0  0  3  0  0  0  0  0  0
  191.3790  175.7600  143.6700 O   0  0  0  0  0  1  0  0  0  0  0  0
  190.8430  179.2700  143.8510 O   0  0  0  0  0  1  0  0  0  0  0  0
  191.5580  178.0980  144.1060 C   0  0  0  0  0  2  0  0  0  0  0  0
  1  2  2  0  0  0  0
  1  8  1  0  0  0  0
  2 11  1  0  0  0  0
  3  4  1  0  0  0  0
  5  6  1  1  0  0  0
  7  2  1  0  0  0  0
  7 10  1  0  0  0  0
  8  3  2  0  0  0  0
  9  5  1  0  0  0  0
 10 19  1  6  0  0  0
 10  9  1  0  0  0  0
 11  4  2  0  0  0  0
 11  5  1  0  0  0  0
 12  1  1  0  0  0  0
 13 15  2  0  0  0  0
 13 16  1  0  0  0  0
 14 17  1  0  0  0  0
 14 12  2  0  0  0  0
 15 14  1  0  0  0  0
 16 18  2  0  0  0  0
 18 12  1  0  0  0  0
 20 22  1  0  0  0  0
 20 19  1  0  0  0  0
 21 20  1  0  0  0  0
 22 23  1  1  0  0  0
 22 25  1  0  0  0  0
 24 25  1  0  0  0  0
M  END
>  <MODEL>
1

>  <REMARK>
 VINA RESULT:      -8.2      0.000      0.000
  Name = 
  5 active torsions:
  status: ('A' for Active; 'I' for Inactive)
    1  A    between atoms: C_1  and  C_5
    2  A    between atoms: C_2  and  N_15
    3  A    between atoms: C_2  and  C_21
    4  A    between atoms: C_6  and  N_15
    5  A    between atoms: C_6  and  C_23
                            x       y       z     vdW  Elec       q    Type
                         _______ _______ _______ _____ _____    ______ ____

>  <TORSDO>
F 5

$$$$
=
 OpenBabel10272400433D

 25 27  0  0  1  0  0  0  0  0999 V2000
  186.7770  177.7910  145.0210 C   0  0  0  0  0  0  0  0  0  0  0  0
  185.7460  178.2050  144.1470 C   0  0  0  0  0  0  0  0  0  0  0  0
  185.4230  178.3530  146.8850 C   0  0  0  0  0  3  0  0  0  0  0  0
  184.4130  178.7330  146.0650 N   0  0  0  0  0  0  0  0  0  0  0  0
  183.3980  179.1730  143.8520 C   0  0  2  0  0  3  0  0  0  0  0  0
  182.0520  178.7060  144.3760 C   0  0  0  0  0  1  0  0  0  0  0  0
  185.9270  178.1380  142.6510 C   0  0  0  0  0  2  0  0  0  0  0  0
  186.5840  177.8870  146.3650 N   0  0  0  0  0  0  0  0  0  0  0  0
  183.5210  178.7690  142.3860 C   0  0  0  0  0  2  0  0  0  0  0  0
  184.9390  179.0200  141.8960 C   0  0  2  0  0  3  0  0  0  0  0  0
  184.5290  178.6510  144.7120 C   0  0  0  0  0  0  0  0  0  0  0  0
  188.0680  177.2500  144.5310 C   0  0  0  0  0  0  0  0  0  0  0  0
  190.4880  176.1460  143.6220 C   0  0  0  0  0  3  0  0  0  0  0  0
  189.2740  177.5140  145.2140 C   0  0  0  0  0  0  0  0  0  0  0  0
  190.4750  176.9640  144.7540 C   0  0  0  0  0  3  0  0  0  0  0  0
  189.2980  175.8730  142.9450 C   0  0  0  0  0  3  0  0  0  0  0  0
  189.2950  178.3320  146.3380 O   0  0  0  0  0  1  0  0  0  0  0  0
  188.0960  176.4180  143.4000 C   0  0  0  0  0  3  0  0  0  0  0  0
  185.0560  178.8980  140.3640 C   0  0  0  0  0  2  0  0  0  0  0  0
  183.8450  178.4610  139.6420 N   0  0  0  0  0  0  0  0  0  0  0  0
  184.1470  177.4060  138.8440 O   0  0  0  0  0  1  0  0  0  0  0  0
  183.3270  179.5490  138.8070 C   0  0  2  0  0  3  0  0  0  0  0  0
  184.1340  180.6850  138.9310 O   0  0  0  0  0  1  0  0  0  0  0  0
  181.2070  178.7730  139.6290 O   0  0  0  0  0  1  0  0  0  0  0  0
  181.8940  179.9070  139.1930 C   0  0  0  0  0  2  0  0  0  0  0  0
  1  8  1  0  0  0  0
  2 11  1  0  0  0  0
  2  1  2  0  0  0  0
  4  3  1  0  0  0  0
  5  6  1  1  0  0  0
  5 11  1  0  0  0  0
  7  2  1  0  0  0  0
  8  3  2  0  0  0  0
  9  5  1  0  0  0  0
 10 19  1  6  0  0  0
 10  9  1  0  0  0  0
 10  7  1  0  0  0  0
 11  4  2  0  0  0  0
 12  1  1  0  0  0  0
 12 14  1  0  0  0  0
 13 15  1  0  0  0  0
 14 17  1  0  0  0  0
 15 14  2  0  0  0  0
 16 18  1  0  0  0  0
 16 13  2  0  0  0  0
 18 12  2  0  0  0  0
 20 19  1  0  0  0  0
 21 20  1  0  0  0  0
 22 23  1  1  0  0  0
 22 25  1  0  0  0  0
 22 20  1  0  0  0  0
 25 24  1  0  0  0  0
M  END
>  <MODEL>
2

>  <REMARK>
 VINA RESULT:      -8.1      2.245      6.260
  Name = 
  5 active torsions:
  status: ('A' for Active; 'I' for Inactive)
    1  A    between atoms: C_1  and  C_5
    2  A    between atoms: C_2  and  N_15
    3  A    between atoms: C_2  and  C_21
    4  A    between atoms: C_6  and  N_15
    5  A    between atoms: C_6  and  C_23
                            x       y       z     vdW  Elec       q    Type
                         _______ _______ _______ _____ _____    ______ ____

>  <TORSDO>
F 5

$$$$
=
 OpenBabel10272400433D

 25 27  0  0  1  0  0  0  0  0999 V2000
  186.7740  177.8680  145.0910 C   0  0  0  0  0  0  0  0  0  0  0  0
  187.9000  177.6210  144.2720 C   0  0  0  0  0  0  0  0  0  0  0  0
  188.0860  177.4470  147.0210 C   0  0  0  0  0  3  0  0  0  0  0  0
  189.1830  177.2300  146.2550 N   0  0  0  0  0  0  0  0  0  0  0  0
  190.3700  176.9900  144.0980 C   0  0  2  0  0  3  0  0  0  0  0  0
  191.6090  177.6220  144.7080 C   0  0  0  0  0  1  0  0  0  0  0  0
  187.7940  177.7020  142.7700 C   0  0  0  0  0  2  0  0  0  0  0  0
  186.9040  177.7640  146.4420 N   0  0  0  0  0  0  0  0  0  0  0  0
  190.2750  177.4120  142.6350 C   0  0  0  0  0  2  0  0  0  0  0  0
  188.9350  176.9830  142.0580 C   0  0  2  0  0  3  0  0  0  0  0  0
  189.1330  177.3300  144.8990 C   0  0  0  0  0  0  0  0  0  0  0  0
  185.4500  178.2410  144.5360 C   0  0  0  0  0  0  0  0  0  0  0  0
  182.9790  179.0140  143.4420 C   0  0  0  0  0  3  0  0  0  0  0  0
  184.4250  178.7350  145.3690 C   0  0  0  0  0  0  0  0  0  0  0  0
  183.1960  179.1150  144.8180 C   0  0  0  0  0  3  0  0  0  0  0  0
  183.9910  178.5350  142.6100 C   0  0  0  0  0  3  0  0  0  0  0  0
  184.6060  178.8370  146.7430 O   0  0  0  0  0  1  0  0  0  0  0  0
  185.2200  178.1560  143.1530 C   0  0  0  0  0  3  0  0  0  0  0  0
  188.8880  177.1280  140.5240 C   0  0  0  0  0  2  0  0  0  0  0  0
  188.5320  178.4600  139.9970 N   0  0  0  0  0  0  0  0  0  0  0  0
  187.2030  178.5020  139.7270 O   0  0  0  0  0  1  0  0  0  0  0  0
  189.2720  178.7350  138.7610 C   0  0  2  0  0  3  0  0  0  0  0  0
  188.4090  179.2250  137.7750 O   0  0  0  0  0  1  0  0  0  0  0  0
  189.8060  177.3650  136.8600 O   0  0  0  0  0  1  0  0  0  0  0  0
  189.9650  177.4780  138.2420 C   0  0  0  0  0  2  0  0  0  0  0  0
  1  8  1  0  0  0  0
  2 11  1  0  0  0  0
  2  1  2  0  0  0  0
  4  3  1  0  0  0  0
  5  6  1  1  0  0  0
  5 11  1  0  0  0  0
  7  2  1  0  0  0  0
  8  3  2  0  0  0  0
  9  5  1  0  0  0  0
 10 19  1  6  0  0  0
 10  9  1  0  0  0  0
 10  7  1  0  0  0  0
 11  4  2  0  0  0  0
 12  1  1  0  0  0  0
 12 14  1  0  0  0  0
 13 15  1  0  0  0  0
 14 17  1  0  0  0  0
 15 14  2  0  0  0  0
 16 18  1  0  0  0  0
 16 13  2  0  0  0  0
 18 12  2  0  0  0  0
 20 19  1  0  0  0  0
 21 20  1  0  0  0  0
 22 23  1  6  0  0  0
 22 20  1  0  0  0  0
 24 25  1  0  0  0  0
 25 22  1  0  0  0  0
M  END
>  <MODEL>
3

>  <REMARK>
 VINA RESULT:      -8.1      2.716      4.488
  Name = 
  5 active torsions:
  status: ('A' for Active; 'I' for Inactive)
    1  A    between atoms: C_1  and  C_5
    2  A    between atoms: C_2  and  N_15
    3  A    between atoms: C_2  and  C_21
    4  A    between atoms: C_6  and  N_15
    5  A    between atoms: C_6  and  C_23
                            x       y       z     vdW  Elec       q    Type
                         _______ _______ _______ _____ _____    ______ ____

>  <TORSDO>
F 5

$$$$
=
 OpenBabel10272400433D

 25 27  0  0  1  0  0  0  0  0999 V2000
  187.4660  178.1660  145.9480 C   0  0  0  0  0  0  0  0  0  0  0  0
  186.7660  178.2530  144.7220 C   0  0  0  0  0  0  0  0  0  0  0  0
  185.5680  179.0110  147.0920 C   0  0  0  0  0  3  0  0  0  0  0  0
  184.8720  179.0790  145.9310 N   0  0  0  0  0  0  0  0  0  0  0  0
  184.6230  178.8770  143.4780 C   0  0  2  0  0  3  0  0  0  0  0  0
  183.1890  178.4110  143.6610 C   0  0  0  0  0  1  0  0  0  0  0  0
  187.4250  177.8530  143.4260 C   0  0  0  0  0  2  0  0  0  0  0  0
  186.8450  178.5560  147.0930 N   0  0  0  0  0  0  0  0  0  0  0  0
  185.2240  178.1530  142.2770 C   0  0  0  0  0  2  0  0  0  0  0  0
  186.7190  178.4250  142.2020 C   0  0  2  0  0  3  0  0  0  0  0  0
  185.4230  178.6930  144.7490 C   0  0  0  0  0  0  0  0  0  0  0  0
  188.8580  177.6600  146.0360 C   0  0  0  0  0  0  0  0  0  0  0  0
  191.4800  176.6520  146.1350 C   0  0  0  0  0  3  0  0  0  0  0  0
  189.2600  176.8200  147.0960 C   0  0  0  0  0  0  0  0  0  0  0  0
  190.5670  176.3240  147.1400 C   0  0  0  0  0  3  0  0  0  0  0  0
  191.0880  177.4750  145.0790 C   0  0  0  0  0  3  0  0  0  0  0  0
  188.3780  176.4830  148.1160 O   0  0  0  0  0  1  0  0  0  0  0  0
  189.7830  177.9710  145.0280 C   0  0  0  0  0  3  0  0  0  0  0  0
  187.3290  177.9560  140.8670 C   0  0  0  0  0  2  0  0  0  0  0  0
  188.7050  178.4050  140.5760 N   0  0  0  0  0  0  0  0  0  0  0  0
  188.7480  178.9710  139.3440 O   0  0  0  0  0  1  0  0  0  0  0  0
  189.6300  177.2680  140.6040 C   0  0  2  0  0  3  0  0  0  0  0  0
  190.6090  177.4590  141.5840 O   0  0  0  0  0  1  0  0  0  0  0  0
  190.6950  175.7430  139.0820 O   0  0  0  0  0  1  0  0  0  0  0  0
  190.3060  177.0730  139.2490 C   0  0  0  0  0  2  0  0  0  0  0  0
  1 12  1  0  0  0  0
  1  8  1  0  0  0  0
  2 11  1  0  0  0  0
  2  1  2  0  0  0  0
  3  8  2  0  0  0  0
  4  3  1  0  0  0  0
  5  6  1  1  0  0  0
  5 11  1  0  0  0  0
  7  2  1  0  0  0  0
  9  5  1  0  0  0  0
 10 19  1  6  0  0  0
 10  9  1  0  0  0  0
 10  7  1  0  0  0  0
 11  4  2  0  0  0  0
 12 14  1  0  0  0  0
 13 15  1  0  0  0  0
 14 15  2  0  0  0  0
 14 17  1  0  0  0  0
 16 13  2  0  0  0  0
 18 16  1  0  0  0  0
 18 12  2  0  0  0  0
 20 22  1  0  0  0  0
 20 19  1  0  0  0  0
 21 20  1  0  0  0  0
 22 23  1  1  0  0  0
 24 25  1  0  0  0  0
 25 22  1  0  0  0  0
M  END
>  <MODEL>
4

>  <REMARK>
 VINA RESULT:      -8.1      2.285      5.452
  Name = 
  5 active torsions:
  status: ('A' for Active; 'I' for Inactive)
    1  A    between atoms: C_1  and  C_5
    2  A    between atoms: C_2  and  N_15
    3  A    between atoms: C_2  and  C_21
    4  A    between atoms: C_6  and  N_15
    5  A    between atoms: C_6  and  C_23
                            x       y       z     vdW  Elec       q    Type
                         _______ _______ _______ _____ _____    ______ ____

>  <TORSDO>
F 5

$$$$
=
 OpenBabel10272400433D

 25 27  0  0  1  0  0  0  0  0999 V2000
  186.7910  177.9440  144.9630 C   0  0  0  0  0  0  0  0  0  0  0  0
  185.7070  178.2260  144.1000 C   0  0  0  0  0  0  0  0  0  0  0  0
  185.5550  178.8010  146.7960 C   0  0  0  0  0  3  0  0  0  0  0  0
  184.4960  179.0570  145.9900 N   0  0  0  0  0  0  0  0  0  0  0  0
  183.3460  179.1570  143.8020 C   0  0  2  0  0  3  0  0  0  0  0  0
  182.0340  178.7900  144.4730 C   0  0  0  0  0  1  0  0  0  0  0  0
  185.7960  177.9250  142.6240 C   0  0  0  0  0  2  0  0  0  0  0  0
  186.6810  178.2490  146.2840 N   0  0  0  0  0  0  0  0  0  0  0  0
  183.3780  178.5290  142.4120 C   0  0  0  0  0  2  0  0  0  0  0  0
  184.7630  178.6880  141.8030 C   0  0  2  0  0  3  0  0  0  0  0  0
  184.5270  178.7660  144.6620 C   0  0  0  0  0  0  0  0  0  0  0  0
  188.0500  177.3210  144.4840 C   0  0  0  0  0  0  0  0  0  0  0  0
  190.4040  176.0650  143.6020 C   0  0  0  0  0  3  0  0  0  0  0  0
  189.2730  177.5530  145.1470 C   0  0  0  0  0  0  0  0  0  0  0  0
  190.4420  176.9260  144.7000 C   0  0  0  0  0  3  0  0  0  0  0  0
  189.1960  175.8230  142.9460 C   0  0  0  0  0  3  0  0  0  0  0  0
  189.3450  178.4120  146.2370 O   0  0  0  0  0  1  0  0  0  0  0  0
  188.0260  176.4440  143.3880 C   0  0  0  0  0  3  0  0  0  0  0  0
  184.7840  178.3280  140.3040 C   0  0  0  0  0  2  0  0  0  0  0  0
  185.3890  179.3200  139.3950 N   0  0  0  0  0  0  0  0  0  0  0  0
  184.4830  180.2880  139.1100 O   0  0  0  0  0  1  0  0  0  0  0  0
  185.8040  178.6800  138.1430 C   0  0  2  0  0  3  0  0  0  0  0  0
  184.8790  177.7010  137.7660 O   0  0  0  0  0  1  0  0  0  0  0  0
  187.9640  178.7520  139.1930 O   0  0  0  0  0  1  0  0  0  0  0  0
  187.1830  178.0410  138.2800 C   0  0  0  0  0  2  0  0  0  0  0  0
  1  8  1  0  0  0  0
  2 11  1  0  0  0  0
  2  1  2  0  0  0  0
  4  3  1  0  0  0  0
  5  6  1  1  0  0  0
  5 11  1  0  0  0  0
  7  2  1  0  0  0  0
  8  3  2  0  0  0  0
  9  5  1  0  0  0  0
 10 19  1  6  0  0  0
 10  9  1  0  0  0  0
 10  7  1  0  0  0  0
 11  4  2  0  0  0  0
 12  1  1  0  0  0  0
 12 14  1  0  0  0  0
 13 15  1  0  0  0  0
 14 17  1  0  0  0  0
 15 14  2  0  0  0  0
 16 18  1  0  0  0  0
 16 13  2  0  0  0  0
 18 12  2  0  0  0  0
 20 19  1  0  0  0  0
 21 20  1  0  0  0  0
 22 23  1  1  0  0  0
 22 25  1  0  0  0  0
 22 20  1  0  0  0  0
 25 24  1  0  0  0  0
M  END
>  <MODEL>
5

>  <REMARK>
 VINA RESULT:      -7.9      2.050      5.553
  Name = 
  5 active torsions:
  status: ('A' for Active; 'I' for Inactive)
    1  A    between atoms: C_1  and  C_5
    2  A    between atoms: C_2  and  N_15
    3  A    between atoms: C_2  and  C_21
    4  A    between atoms: C_6  and  N_15
    5  A    between atoms: C_6  and  C_23
                            x       y       z     vdW  Elec       q    Type
                         _______ _______ _______ _____ _____    ______ ____

>  <TORSDO>
F 5

$$$$
=
 OpenBabel10272400433D

 25 27  0  0  1  0  0  0  0  0999 V2000
  189.9260  177.7650  142.2280 C   0  0  0  0  0  0  0  0  0  0  0  0
  189.2290  177.6870  143.4560 C   0  0  0  0  0  0  0  0  0  0  0  0
  191.9810  177.9070  143.4030 C   0  0  0  0  0  3  0  0  0  0  0  0
  191.3340  177.8100  144.5900 N   0  0  0  0  0  0  0  0  0  0  0  0
  189.3140  177.6620  146.0110 C   0  0  2  0  0  3  0  0  0  0  0  0
  190.0590  176.7580  146.9770 C   0  0  0  0  0  1  0  0  0  0  0  0
  187.7250  177.5820  143.4860 C   0  0  0  0  0  2  0  0  0  0  0  0
  191.2820  177.8800  142.2430 N   0  0  0  0  0  0  0  0  0  0  0  0
  187.8540  177.2270  145.9580 C   0  0  0  0  0  2  0  0  0  0  0  0
  187.1330  177.9610  144.8380 C   0  0  2  0  0  3  0  0  0  0  0  0
  189.9820  177.6770  144.6530 C   0  0  0  0  0  0  0  0  0  0  0  0
  189.2350  177.7210  140.9160 C   0  0  0  0  0  0  0  0  0  0  0  0
  187.8600  177.6000  138.4680 C   0  0  0  0  0  3  0  0  0  0  0  0
  189.7060  176.8950  139.8740 C   0  0  0  0  0  0  0  0  0  0  0  0
  189.0180  176.8420  138.6570 C   0  0  0  0  0  3  0  0  0  0  0  0
  187.3830  178.4120  139.4970 C   0  0  0  0  0  3  0  0  0  0  0  0
  190.8610  176.1370  140.0280 O   0  0  0  0  0  1  0  0  0  0  0  0
  188.0640  178.4690  140.7150 C   0  0  0  0  0  3  0  0  0  0  0  0
  185.6040  177.7780  144.9110 C   0  0  0  0  0  2  0  0  0  0  0  0
  184.8080  178.9830  145.2110 N   0  0  0  0  0  0  0  0  0  0  0  0
  184.1010  178.7890  146.3520 O   0  0  0  0  0  1  0  0  0  0  0  0
  183.8700  179.2610  144.1180 C   0  0  2  0  0  3  0  0  0  0  0  0
  182.5930  178.7880  144.4390 O   0  0  0  0  0  1  0  0  0  0  0  0
  185.0110  179.5380  142.0210 O   0  0  0  0  0  1  0  0  0  0  0  0
  184.3330  178.6120  142.8160 C   0  0  0  0  0  2  0  0  0  0  0  0
  1  8  2  0  0  0  0
  1  2  1  0  0  0  0
  2  7  1  0  0  0  0
  2 11  2  0  0  0  0
  3  4  2  0  0  0  0
  4 11  1  0  0  0  0
  5  6  1  1  0  0  0
  7 10  1  0  0  0  0
  8  3  1  0  0  0  0
  9  5  1  0  0  0  0
 10 19  1  6  0  0  0
 10  9  1  0  0  0  0
 11  5  1  0  0  0  0
 12  1  1  0  0  0  0
 13 15  2  0  0  0  0
 13 16  1  0  0  0  0
 14 17  1  0  0  0  0
 14 12  2  0  0  0  0
 15 14  1  0  0  0  0
 16 18  2  0  0  0  0
 18 12  1  0  0  0  0
 19 20  1  0  0  0  0
 20 21  1  0  0  0  0
 22 23  1  1  0  0  0
 22 20  1  0  0  0  0
 24 25  1  0  0  0  0
 25 22  1  0  0  0  0
M  END
>  <MODEL>
6

>  <REMARK>
 VINA RESULT:      -7.8      2.521      5.667
  Name = 
  5 active torsions:
  status: ('A' for Active; 'I' for Inactive)
    1  A    between atoms: C_1  and  C_5
    2  A    between atoms: C_2  and  N_15
    3  A    between atoms: C_2  and  C_21
    4  A    between atoms: C_6  and  N_15
    5  A    between atoms: C_6  and  C_23
                            x       y       z     vdW  Elec       q    Type
                         _______ _______ _______ _____ _____    ______ ____

>  <TORSDO>
F 5

$$$$
=
 OpenBabel10272400433D

 25 27  0  0  1  0  0  0  0  0999 V2000
  189.4880  176.9240  144.5120 C   0  0  0  0  0  0  0  0  0  0  0  0
  188.8920  177.3300  143.2950 C   0  0  0  0  0  0  0  0  0  0  0  0
  191.2050  175.8220  143.3030 C   0  0  0  0  0  3  0  0  0  0  0  0
  190.6630  176.2220  142.1270 N   0  0  0  0  0  0  0  0  0  0  0  0
  188.9360  177.3230  140.7400 C   0  0  2  0  0  3  0  0  0  0  0  0
  190.0060  177.7650  139.7570 C   0  0  0  0  0  1  0  0  0  0  0  0
  187.6210  178.1420  143.2910 C   0  0  0  0  0  2  0  0  0  0  0  0
  190.6230  176.1750  144.4740 N   0  0  0  0  0  0  0  0  0  0  0  0
  187.8620  178.4030  140.8150 C   0  0  0  0  0  2  0  0  0  0  0  0
  186.8970  178.0980  141.9500 C   0  0  2  0  0  3  0  0  0  0  0  0
  189.5380  176.9850  142.0860 C   0  0  0  0  0  0  0  0  0  0  0  0
  188.9240  177.2870  145.8350 C   0  0  0  0  0  0  0  0  0  0  0  0
  187.8460  178.0550  148.3150 C   0  0  0  0  0  3  0  0  0  0  0  0
  189.7360  177.3120  146.9890 C   0  0  0  0  0  0  0  0  0  0  0  0
  189.1910  177.6930  148.2200 C   0  0  0  0  0  3  0  0  0  0  0  0
  187.0390  178.0410  147.1770 C   0  0  0  0  0  3  0  0  0  0  0  0
  191.0760  176.9480  146.9290 O   0  0  0  0  0  1  0  0  0  0  0  0
  187.5760  177.6640  145.9440 C   0  0  0  0  0  3  0  0  0  0  0  0
  185.6400  178.9900  141.9020 C   0  0  0  0  0  2  0  0  0  0  0  0
  184.4320  178.4640  142.5650 N   0  0  0  0  0  0  0  0  0  0  0  0
  183.4910  178.1740  141.6310 O   0  0  0  0  0  1  0  0  0  0  0  0
  183.8830  179.4590  143.4920 C   0  0  2  0  0  3  0  0  0  0  0  0
  184.9110  180.2300  144.0440 O   0  0  0  0  0  1  0  0  0  0  0  0
  183.7320  178.9880  145.8430 O   0  0  0  0  0  1  0  0  0  0  0  0
  183.0960  178.7910  144.6160 C   0  0  0  0  0  2  0  0  0  0  0  0
  1 12  1  0  0  0  0
  2  1  2  0  0  0  0
  3  8  2  0  0  0  0
  4  3  1  0  0  0  0
  5  6  1  6  0  0  0
  5  9  1  0  0  0  0
  5 11  1  0  0  0  0
  7  2  1  0  0  0  0
  8  1  1  0  0  0  0
  9 10  1  0  0  0  0
 10 19  1  1  0  0  0
 10  7  1  0  0  0  0
 11  4  2  0  0  0  0
 11  2  1  0  0  0  0
 12 18  2  0  0  0  0
 12 14  1  0  0  0  0
 14 15  2  0  0  0  0
 15 13  1  0  0  0  0
 16 13  2  0  0  0  0
 17 14  1  0  0  0  0
 18 16  1  0  0  0  0
 19 20  1  0  0  0  0
 20 22  1  0  0  0  0
 21 20  1  0  0  0  0
 22 23  1  1  0  0  0
 22 25  1  0  0  0  0
 25 24  1  0  0  0  0
M  END
>  <MODEL>
7

>  <REMARK>
 VINA RESULT:      -7.7      2.495      6.953
  Name = 
  5 active torsions:
  status: ('A' for Active; 'I' for Inactive)
    1  A    between atoms: C_1  and  C_5
    2  A    between atoms: C_2  and  N_15
    3  A    between atoms: C_2  and  C_21
    4  A    between atoms: C_6  and  N_15
    5  A    between atoms: C_6  and  C_23
                            x       y       z     vdW  Elec       q    Type
                         _______ _______ _______ _____ _____    ______ ____

>  <TORSDO>
F 5

$$$$
=
 OpenBabel10272400433D

 25 27  0  0  1  0  0  0  0  0999 V2000
  186.2340  178.4920  141.7700 C   0  0  0  0  0  0  0  0  0  0  0  0
  187.3320  177.9690  142.4920 C   0  0  0  0  0  0  0  0  0  0  0  0
  187.5730  178.6120  139.8170 C   0  0  0  0  0  3  0  0  0  0  0  0
  188.6310  178.0890  140.4840 N   0  0  0  0  0  0  0  0  0  0  0  0
  189.7830  177.2440  142.5040 C   0  0  2  0  0  3  0  0  0  0  0  0
  190.5290  176.2310  141.6550 C   0  0  0  0  0  1  0  0  0  0  0  0
  187.2040  177.6310  143.9560 C   0  0  0  0  0  2  0  0  0  0  0  0
  186.3940  178.8040  140.4560 N   0  0  0  0  0  0  0  0  0  0  0  0
  189.4910  176.6230  143.8660 C   0  0  0  0  0  2  0  0  0  0  0  0
  188.5530  177.5220  144.6570 C   0  0  2  0  0  3  0  0  0  0  0  0
  188.5410  177.7400  141.7950 C   0  0  0  0  0  0  0  0  0  0  0  0
  184.9040  178.7120  142.3920 C   0  0  0  0  0  0  0  0  0  0  0  0
  182.4060  179.0710  143.6290 C   0  0  0  0  0  3  0  0  0  0  0  0
  183.7220  178.2990  141.7440 C   0  0  0  0  0  0  0  0  0  0  0  0
  182.4810  178.4830  142.3640 C   0  0  0  0  0  3  0  0  0  0  0  0
  183.5720  179.4740  144.2800 C   0  0  0  0  0  3  0  0  0  0  0  0
  183.7620  177.7200  140.4810 O   0  0  0  0  0  1  0  0  0  0  0  0
  184.8130  179.2920  143.6670 C   0  0  0  0  0  3  0  0  0  0  0  0
  188.4440  177.0950  146.1340 C   0  0  0  0  0  2  0  0  0  0  0  0
  188.9050  178.0710  147.1400 N   0  0  0  0  0  0  0  0  0  0  0  0
  189.8950  177.5220  147.8870 O   0  0  0  0  0  1  0  0  0  0  0  0
  187.8010  178.4510  148.0270 C   0  0  2  0  0  3  0  0  0  0  0  0
  187.7840  177.6330  149.1610 O   0  0  0  0  0  1  0  0  0  0  0  0
  185.7910  179.5720  147.3350 O   0  0  0  0  0  1  0  0  0  0  0  0
  186.4570  178.3450  147.3110 C   0  0  0  0  0  2  0  0  0  0  0  0
  1 12  1  0  0  0  0
  1  2  1  0  0  0  0
  2  7  1  0  0  0  0
  3  8  1  0  0  0  0
  3  4  2  0  0  0  0
  4 11  1  0  0  0  0
  5  6  1  6  0  0  0
  5  9  1  0  0  0  0
  7 10  1  0  0  0  0
  8  1  2  0  0  0  0
  9 10  1  0  0  0  0
 10 19  1  1  0  0  0
 11  2  2  0  0  0  0
 11  5  1  0  0  0  0
 12 18  1  0  0  0  0
 13 16  1  0  0  0  0
 14 15  1  0  0  0  0
 14 12  2  0  0  0  0
 15 13  2  0  0  0  0
 17 14  1  0  0  0  0
 18 16  2  0  0  0  0
 19 20  1  0  0  0  0
 20 21  1  0  0  0  0
 20 22  1  0  0  0  0
 22 23  1  1  0  0  0
 25 24  1  0  0  0  0
 25 22  1  0  0  0  0
M  END
>  <MODEL>
8

>  <REMARK>
 VINA RESULT:      -7.6      2.765      4.695
  Name = 
  5 active torsions:
  status: ('A' for Active; 'I' for Inactive)
    1  A    between atoms: C_1  and  C_5
    2  A    between atoms: C_2  and  N_15
    3  A    between atoms: C_2  and  C_21
    4  A    between atoms: C_6  and  N_15
    5  A    between atoms: C_6  and  C_23
                            x       y       z     vdW  Elec       q    Type
                         _______ _______ _______ _____ _____    ______ ____

>  <TORSDO>
F 5

$$$$
=
 OpenBabel10272400433D

 25 27  0  0  1  0  0  0  0  0999 V2000
  185.7520  178.5770  142.4410 C   0  0  0  0  0  0  0  0  0  0  0  0
  186.9910  178.2860  141.8240 C   0  0  0  0  0  0  0  0  0  0  0  0
  184.8170  179.0860  140.3220 C   0  0  0  0  0  3  0  0  0  0  0  0
  185.9890  178.7880  139.7090 N   0  0  0  0  0  0  0  0  0  0  0  0
  188.3750  178.1390  139.6810 C   0  0  2  0  0  3  0  0  0  0  0  0
  188.1490  177.3610  138.3960 C   0  0  0  0  0  1  0  0  0  0  0  0
  188.1830  177.8630  142.6460 C   0  0  0  0  0  2  0  0  0  0  0  0
  184.7060  178.9760  141.6680 N   0  0  0  0  0  0  0  0  0  0  0  0
  189.4180  177.4070  140.5190 C   0  0  0  0  0  2  0  0  0  0  0  0
  189.5030  178.0330  141.9030 C   0  0  2  0  0  3  0  0  0  0  0  0
  187.0730  178.3690  140.4150 C   0  0  0  0  0  0  0  0  0  0  0  0
  185.5450  178.4600  143.9050 C   0  0  0  0  0  0  0  0  0  0  0  0
  185.1440  178.1540  146.6710 C   0  0  0  0  0  3  0  0  0  0  0  0
  184.3660  178.9420  144.5130 C   0  0  0  0  0  0  0  0  0  0  0  0
  184.1750  178.7880  145.8900 C   0  0  0  0  0  3  0  0  0  0  0  0
  186.3090  177.6680  146.0760 C   0  0  0  0  0  3  0  0  0  0  0  0
  183.3870  179.5860  143.7650 O   0  0  0  0  0  1  0  0  0  0  0  0
  186.5050  177.8160  144.7010 C   0  0  0  0  0  3  0  0  0  0  0  0
  190.7240  177.5260  142.6980 C   0  0  0  0  0  2  0  0  0  0  0  0
  190.8540  178.0090  144.0860 N   0  0  0  0  0  0  0  0  0  0  0  0
  191.5150  179.1930  144.0960 O   0  0  0  0  0  1  0  0  0  0  0  0
  191.6070  177.0430  144.8930 C   0  0  2  0  0  3  0  0  0  0  0  0
  191.6090  175.7880  144.2760 O   0  0  0  0  0  1  0  0  0  0  0  0
  189.6200  176.9900  146.2450 O   0  0  0  0  0  1  0  0  0  0  0  0
  191.0130  176.9140  146.2940 C   0  0  0  0  0  2  0  0  0  0  0  0
  1 12  1  0  0  0  0
  2  1  1  0  0  0  0
  2  7  1  0  0  0  0
  3  8  1  0  0  0  0
  4  3  2  0  0  0  0
  4 11  1  0  0  0  0
  5  6  1  6  0  0  0
  5 11  1  0  0  0  0
  5  9  1  0  0  0  0
  8  1  2  0  0  0  0
  9 10  1  0  0  0  0
 10  7  1  0  0  0  0
 10 19  1  1  0  0  0
 11  2  2  0  0  0  0
 12 14  2  0  0  0  0
 12 18  1  0  0  0  0
 14 15  1  0  0  0  0
 15 13  2  0  0  0  0
 16 13  1  0  0  0  0
 17 14  1  0  0  0  0
 18 16  2  0  0  0  0
 19 20  1  0  0  0  0
 20 21  1  0  0  0  0
 20 22  1  0  0  0  0
 22 23  1  6  0  0  0
 22 25  1  0  0  0  0
 24 25  1  0  0  0  0
M  END
>  <MODEL>
9

>  <REMARK>
 VINA RESULT:      -7.6      2.255      4.583
  Name = 
  5 active torsions:
  status: ('A' for Active; 'I' for Inactive)
    1  A    between atoms: C_1  and  C_5
    2  A    between atoms: C_2  and  N_15
    3  A    between atoms: C_2  and  C_21
    4  A    between atoms: C_6  and  N_15
    5  A    between atoms: C_6  and  C_23
                            x       y       z     vdW  Elec       q    Type
                         _______ _______ _______ _____ _____    ______ ____

>  <TORSDO>
F 5

$$$$
