=
 OpenBabel10272413513D

 30 33  0  0  1  0  0  0  0  0999 V2000
  187.1890  178.0090  143.5770 N   0  0  0  0  0  0  0  0  0  0  0  0
  184.9010  178.5280  143.0750 C   0  0  0  0  0  0  0  0  0  0  0  0
  186.4940  178.2530  147.6910 C   0  0  0  0  0  3  0  0  0  0  0  0
  188.2250  177.7910  144.4290 C   0  0  0  0  0  0  0  0  0  0  0  0
  187.5410  178.0380  148.5890 C   0  0  0  0  0  3  0  0  0  0  0  0
  183.6140  178.8340  143.5230 C   0  0  0  0  0  3  0  0  0  0  0  0
  185.1530  178.4490  141.6070 C   0  0  0  0  0  1  0  0  0  0  0  0
  186.7100  178.1730  146.3040 C   0  0  0  0  0  0  0  0  0  0  0  0
  183.3440  178.9200  144.8890 C   0  0  0  0  0  3  0  0  0  0  0  0
  185.9340  178.3050  144.0050 C   0  0  0  0  0  0  0  0  0  0  0  0
  188.0080  177.8690  145.8220 C   0  0  0  0  0  0  0  0  0  0  0  0
  188.8190  177.7420  148.1130 C   0  0  0  0  0  3  0  0  0  0  0  0
  189.0500  177.6580  146.7400 C   0  0  0  0  0  3  0  0  0  0  0  0
  184.3630  178.7010  145.8180 C   0  0  0  0  0  3  0  0  0  0  0  0
  185.6630  178.3930  145.3900 C   0  0  0  0  0  0  0  0  0  0  0  0
  189.5730  177.4980  143.8180 C   0  0  1  0  0  3  0  0  0  0  0  0
  188.2830  175.9420  142.5040 O   0  0  0  0  0  1  0  0  0  0  0  0
  189.4780  176.6650  142.5250 C   0  0  1  0  0  3  0  0  0  0  0  0
  188.3660  177.3860  140.4430 N   0  0  0  0  0  2  0  0  0  0  0  0
  191.0040  177.0260  140.2070 S   0  0  0  0  0  0  0  0  0  0  0  0
  189.5810  177.4890  141.2340 C   0  0  2  0  0  3  0  0  0  0  0  0
  188.6990  177.7680  139.1340 N   0  0  0  0  0  2  0  0  0  0  0  0
  189.8990  177.0320  138.7770 C   0  0  0  0  0  2  0  0  0  0  0  0
  190.3780  178.7780  143.6070 C   0  0  0  0  0  2  0  0  0  0  0  0
  191.6940  178.7110  144.3650 C   0  0  0  0  0  2  0  0  0  0  0  0
  191.9930  177.1490  146.1150 N   0  0  0  0  0  0  0  0  0  0  0  0
  191.9100  177.3650  144.8660 N   0  0  0  0  0  0  0  0  0  0  0  0
  192.4030  175.6160  148.0190 N   0  0  0  0  0  1  0  0  0  0  0  0
  192.2060  175.8330  146.6240 C   0  0  0  0  0  0  0  0  0  0  0  0
  192.2180  174.8550  145.8340 O   0  0  0  0  0  0  0  0  0  0  0  0
  1 10  2  0  0  0  0
  1  4  1  0  0  0  0
  2  6  2  0  0  0  0
  2 10  1  0  0  0  0
  3  5  2  0  0  0  0
  4 11  2  0  0  0  0
  6  9  1  0  0  0  0
  7  2  1  0  0  0  0
  8  3  1  0  0  0  0
  9 14  2  0  0  0  0
 10 15  1  0  0  0  0
 11  8  1  0  0  0  0
 11 13  1  0  0  0  0
 12  5  1  0  0  0  0
 13 12  2  0  0  0  0
 15 14  1  0  0  0  0
 15  8  2  0  0  0  0
 16 24  1  6  0  0  0
 16  4  1  0  0  0  0
 18 17  1  6  0  0  0
 18 16  1  0  0  0  0
 19 21  1  0  0  0  0
 20 21  1  0  0  0  0
 21 18  1  1  0  0  0
 22 19  1  0  0  0  0
 23 22  1  0  0  0  0
 23 20  1  0  0  0  0
 24 25  1  0  0  0  0
 25 27  1  0  0  0  0
 26 29  1  0  0  0  0
 27 26  2  0  0  0  0
 29 28  1  0  0  0  0
 30 29  2  0  0  0  0
M  END
>  <MODEL>
1

>  <REMARK>
 VINA RESULT:      -9.6      0.000      0.000
  Name = 
  7 active torsions:
  status: ('A' for Active; 'I' for Inactive)
    1  A    between atoms: C_4  and  C_13
    2  A    between atoms: N_7  and  C_15
    3  A    between atoms: C_8  and  C_12
    4  A    between atoms: C_8  and  C_13
    5  A    between atoms: C_13  and  C_27
    6  A    between atoms: N_16  and  C_30
    7  A    between atoms: C_27  and  C_30
                            x       y       z     vdW  Elec       q    Type
                         _______ _______ _______ _____ _____    ______ ____

>  <TORSDO>
F 7

$$$$
=
 OpenBabel10272413513D

 30 33  0  0  1  0  0  0  0  0999 V2000
  188.6930  177.3190  144.3060 N   0  0  0  0  0  0  0  0  0  0  0  0
  189.5230  177.3800  146.5560 C   0  0  0  0  0  0  0  0  0  0  0  0
  184.9190  178.6530  145.5090 C   0  0  0  0  0  3  0  0  0  0  0  0
  187.7260  177.4800  143.3650 C   0  0  0  0  0  0  0  0  0  0  0  0
  183.9050  178.8230  144.5640 C   0  0  0  0  0  3  0  0  0  0  0  0
  189.3020  177.6400  147.9110 C   0  0  0  0  0  3  0  0  0  0  0  0
  190.8670  176.8960  146.1270 C   0  0  0  0  0  1  0  0  0  0  0  0
  186.1940  178.2070  145.1210 C   0  0  0  0  0  0  0  0  0  0  0  0
  188.0550  178.0900  148.3480 C   0  0  0  0  0  3  0  0  0  0  0  0
  188.4850  177.5720  145.6250 C   0  0  0  0  0  0  0  0  0  0  0  0
  186.4450  177.9300  143.7530 C   0  0  0  0  0  0  0  0  0  0  0  0
  184.1530  178.5480  143.2190 C   0  0  0  0  0  3  0  0  0  0  0  0
  185.4130  178.1050  142.8170 C   0  0  0  0  0  3  0  0  0  0  0  0
  187.0200  178.2830  147.4310 C   0  0  0  0  0  3  0  0  0  0  0  0
  187.2210  178.0270  146.0660 C   0  0  0  0  0  0  0  0  0  0  0  0
  188.0830  177.1370  141.9400 C   0  0  1  0  0  3  0  0  0  0  0  0
  188.5510  179.4420  141.4140 O   0  0  0  0  0  1  0  0  0  0  0  0
  187.8640  178.3110  140.9670 C   0  0  1  0  0  3  0  0  0  0  0  0
  189.0400  179.1220  138.9540 N   0  0  0  0  0  2  0  0  0  0  0  0
  186.8760  177.6410  138.4360 S   0  0  0  0  0  0  0  0  0  0  0  0
  188.2830  178.0170  139.5200 C   0  0  2  0  0  3  0  0  0  0  0  0
  188.9860  178.9800  137.5590 N   0  0  0  0  0  2  0  0  0  0  0  0
  187.5910  178.7640  137.2140 C   0  0  0  0  0  2  0  0  0  0  0  0
  189.5010  176.5790  141.8420 C   0  0  0  0  0  2  0  0  0  0  0  0
  190.5190  177.6410  142.2250 C   0  0  0  0  0  2  0  0  0  0  0  0
  191.6100  177.1490  140.1850 N   0  0  0  0  0  0  0  0  0  0  0  0
  191.7070  177.5110  141.3990 N   0  0  0  0  0  0  0  0  0  0  0  0
  192.6490  176.5790  138.0090 N   0  0  0  0  0  1  0  0  0  0  0  0
  192.7670  177.0160  139.3600 C   0  0  0  0  0  0  0  0  0  0  0  0
  193.9010  177.2880  139.8300 O   0  0  0  0  0  0  0  0  0  0  0  0
  1 10  1  0  0  0  0
  2  6  1  0  0  0  0
  4 11  1  0  0  0  0
  4  1  2  0  0  0  0
  5  3  2  0  0  0  0
  6  9  2  0  0  0  0
  7  2  1  0  0  0  0
  8  3  1  0  0  0  0
  8 15  1  0  0  0  0
 10 15  1  0  0  0  0
 10  2  2  0  0  0  0
 11  8  2  0  0  0  0
 12  5  1  0  0  0  0
 13 12  2  0  0  0  0
 13 11  1  0  0  0  0
 14  9  1  0  0  0  0
 15 14  2  0  0  0  0
 16 24  1  1  0  0  0
 16  4  1  0  0  0  0
 18 17  1  1  0  0  0
 18 16  1  0  0  0  0
 19 21  1  0  0  0  0
 20 21  1  0  0  0  0
 21 18  1  1  0  0  0
 22 19  1  0  0  0  0
 23 22  1  0  0  0  0
 23 20  1  0  0  0  0
 24 25  1  0  0  0  0
 26 27  2  0  0  0  0
 27 25  1  0  0  0  0
 28 29  1  0  0  0  0
 29 30  2  0  0  0  0
 29 26  1  0  0  0  0
M  END
>  <MODEL>
2

>  <REMARK>
 VINA RESULT:      -9.3      2.420      4.702
  Name = 
  7 active torsions:
  status: ('A' for Active; 'I' for Inactive)
    1  A    between atoms: C_4  and  C_13
    2  A    between atoms: N_7  and  C_15
    3  A    between atoms: C_8  and  C_12
    4  A    between atoms: C_8  and  C_13
    5  A    between atoms: C_13  and  C_27
    6  A    between atoms: N_16  and  C_30
    7  A    between atoms: C_27  and  C_30
                            x       y       z     vdW  Elec       q    Type
                         _______ _______ _______ _____ _____    ______ ____

>  <TORSDO>
F 7

$$$$
=
 OpenBabel10272413513D

 30 33  0  0  1  0  0  0  0  0999 V2000
  185.4680  178.1580  142.1170 N   0  0  0  0  0  0  0  0  0  0  0  0
  183.2720  178.5090  141.2190 C   0  0  0  0  0  0  0  0  0  0  0  0
  184.1230  178.7570  146.0280 C   0  0  0  0  0  3  0  0  0  0  0  0
  186.3640  178.0770  143.1360 C   0  0  0  0  0  0  0  0  0  0  0  0
  185.0220  178.6840  147.0940 C   0  0  0  0  0  3  0  0  0  0  0  0
  181.9200  178.7890  141.4300 C   0  0  0  0  0  3  0  0  0  0  0  0
  183.7550  178.3030  139.8230 C   0  0  0  0  0  1  0  0  0  0  0  0
  184.5590  178.5570  144.7070 C   0  0  0  0  0  0  0  0  0  0  0  0
  181.4340  178.9910  142.7220 C   0  0  0  0  0  3  0  0  0  0  0  0
  184.1510  178.4290  142.3140 C   0  0  0  0  0  0  0  0  0  0  0  0
  185.9270  178.2760  144.4640 C   0  0  0  0  0  0  0  0  0  0  0  0
  186.3690  178.4100  146.8530 C   0  0  0  0  0  3  0  0  0  0  0  0
  186.8180  178.2070  145.5480 C   0  0  0  0  0  3  0  0  0  0  0  0
  182.3000  178.9150  143.8150 C   0  0  0  0  0  3  0  0  0  0  0  0
  183.6630  178.6340  143.6250 C   0  0  0  0  0  0  0  0  0  0  0  0
  187.8020  177.7960  142.7730 C   0  0  1  0  0  3  0  0  0  0  0  0
  188.4160  175.4740  142.9730 O   0  0  0  0  0  1  0  0  0  0  0  0
  188.4380  176.6970  143.6460 C   0  0  1  0  0  3  0  0  0  0  0  0
  190.1280  178.4260  144.1390 N   0  0  0  0  0  2  0  0  0  0  0  0
  191.1220  176.2120  143.0200 S   0  0  0  0  0  0  0  0  0  0  0  0
  189.8780  176.9950  144.0850 C   0  0  2  0  0  3  0  0  0  0  0  0
  191.5200  178.5980  144.0970 N   0  0  0  0  0  2  0  0  0  0  0  0
  192.0090  177.7860  142.9960 C   0  0  0  0  0  2  0  0  0  0  0  0
  187.9490  177.4910  141.2840 C   0  0  0  0  0  2  0  0  0  0  0  0
  188.8310  178.5310  140.6120 C   0  0  0  0  0  2  0  0  0  0  0  0
  187.3190  178.2970  138.8080 N   0  0  0  0  0  0  0  0  0  0  0  0
  188.4690  178.6580  139.2110 N   0  0  0  0  0  0  0  0  0  0  0  0
  185.9750  177.5400  136.8690 N   0  0  0  0  0  1  0  0  0  0  0  0
  186.9480  178.4140  137.4350 C   0  0  0  0  0  0  0  0  0  0  0  0
  187.4840  179.2970  136.7190 O   0  0  0  0  0  0  0  0  0  0  0  0
  1 10  2  0  0  0  0
  1  4  1  0  0  0  0
  2  6  2  0  0  0  0
  2 10  1  0  0  0  0
  3  5  2  0  0  0  0
  4 11  2  0  0  0  0
  6  9  1  0  0  0  0
  7  2  1  0  0  0  0
  8  3  1  0  0  0  0
  9 14  2  0  0  0  0
 10 15  1  0  0  0  0
 11  8  1  0  0  0  0
 11 13  1  0  0  0  0
 12  5  1  0  0  0  0
 13 12  2  0  0  0  0
 15 14  1  0  0  0  0
 15  8  2  0  0  0  0
 16 24  1  6  0  0  0
 16  4  1  0  0  0  0
 16 18  1  0  0  0  0
 18 17  1  6  0  0  0
 20 21  1  0  0  0  0
 21 18  1  6  0  0  0
 21 19  1  0  0  0  0
 22 19  1  0  0  0  0
 23 20  1  0  0  0  0
 23 22  1  0  0  0  0
 25 24  1  0  0  0  0
 26 27  2  0  0  0  0
 27 25  1  0  0  0  0
 28 29  1  0  0  0  0
 29 26  1  0  0  0  0
 30 29  2  0  0  0  0
M  END
>  <MODEL>
3

>  <REMARK>
 VINA RESULT:      -9.3      2.143      5.078
  Name = 
  7 active torsions:
  status: ('A' for Active; 'I' for Inactive)
    1  A    between atoms: C_4  and  C_13
    2  A    between atoms: N_7  and  C_15
    3  A    between atoms: C_8  and  C_12
    4  A    between atoms: C_8  and  C_13
    5  A    between atoms: C_13  and  C_27
    6  A    between atoms: N_16  and  C_30
    7  A    between atoms: C_27  and  C_30
                            x       y       z     vdW  Elec       q    Type
                         _______ _______ _______ _____ _____    ______ ____

>  <TORSDO>
F 7

$$$$
=
 OpenBabel10272413513D

 30 33  0  0  1  0  0  0  0  0999 V2000
  188.7870  177.4540  143.5730 N   0  0  0  0  0  0  0  0  0  0  0  0
  190.7160  176.8660  144.8710 C   0  0  0  0  0  0  0  0  0  0  0  0
  186.4660  178.0090  147.0040 C   0  0  0  0  0  3  0  0  0  0  0  0
  187.4870  177.8220  143.4300 C   0  0  0  0  0  0  0  0  0  0  0  0
  185.1260  178.3830  146.8870 C   0  0  0  0  0  3  0  0  0  0  0  0
  191.3050  176.6630  146.1220 C   0  0  0  0  0  3  0  0  0  0  0  0
  191.5410  176.6610  143.6460 C   0  0  0  0  0  1  0  0  0  0  0  0
  187.2610  177.8200  145.8600 C   0  0  0  0  0  0  0  0  0  0  0  0
  190.5620  176.8420  147.2900 C   0  0  0  0  0  3  0  0  0  0  0  0
  189.3670  177.2560  144.7860 C   0  0  0  0  0  0  0  0  0  0  0  0
  186.6880  178.0150  144.5790 C   0  0  0  0  0  0  0  0  0  0  0  0
  184.5630  178.5720  145.6250 C   0  0  0  0  0  3  0  0  0  0  0  0
  185.3380  178.3890  144.4790 C   0  0  0  0  0  3  0  0  0  0  0  0
  189.2220  177.2270  147.2130 C   0  0  0  0  0  3  0  0  0  0  0  0
  188.6110  177.4370  145.9670 C   0  0  0  0  0  0  0  0  0  0  0  0
  186.9630  177.9820  142.0240 C   0  0  1  0  0  3  0  0  0  0  0  0
  185.9190  180.1550  142.0140 O   0  0  0  0  0  1  0  0  0  0  0  0
  185.6490  178.7850  141.9600 C   0  0  1  0  0  3  0  0  0  0  0  0
  184.8190  179.6140  139.7880 N   0  0  0  0  0  2  0  0  0  0  0  0
  183.0710  178.0940  141.1220 S   0  0  0  0  0  0  0  0  0  0  0  0
  184.7940  178.4970  140.7190 C   0  0  2  0  0  3  0  0  0  0  0  0
  183.7040  179.4690  138.9490 N   0  0  0  0  0  2  0  0  0  0  0  0
  182.5600  179.2280  139.8100 C   0  0  0  0  0  2  0  0  0  0  0  0
  188.0280  178.5650  141.0980 C   0  0  0  0  0  2  0  0  0  0  0  0
  188.0320  177.8360  139.7640 C   0  0  0  0  0  2  0  0  0  0  0  0
  190.3100  177.2880  140.0850 N   0  0  0  0  0  0  0  0  0  0  0  0
  189.3950  177.6730  139.2910 N   0  0  0  0  0  0  0  0  0  0  0  0
  191.9310  176.5530  138.3610 N   0  0  0  0  0  1  0  0  0  0  0  0
  191.6550  177.1240  139.6370 C   0  0  0  0  0  0  0  0  0  0  0  0
  192.6060  177.4870  140.3750 O   0  0  0  0  0  0  0  0  0  0  0  0
  1 10  1  0  0  0  0
  2  6  1  0  0  0  0
  4  1  2  0  0  0  0
  4 11  1  0  0  0  0
  5  3  1  0  0  0  0
  6  9  2  0  0  0  0
  7  2  1  0  0  0  0
  8 15  1  0  0  0  0
  8  3  2  0  0  0  0
 10  2  2  0  0  0  0
 10 15  1  0  0  0  0
 11  8  1  0  0  0  0
 12  5  2  0  0  0  0
 13 11  2  0  0  0  0
 13 12  1  0  0  0  0
 14  9  1  0  0  0  0
 15 14  2  0  0  0  0
 16 24  1  6  0  0  0
 16  4  1  0  0  0  0
 18 17  1  6  0  0  0
 18 16  1  0  0  0  0
 19 21  1  0  0  0  0
 21 20  1  0  0  0  0
 21 18  1  1  0  0  0
 22 19  1  0  0  0  0
 22 23  1  0  0  0  0
 23 20  1  0  0  0  0
 25 24  1  0  0  0  0
 27 25  1  0  0  0  0
 27 26  2  0  0  0  0
 28 29  1  0  0  0  0
 29 26  1  0  0  0  0
 29 30  2  0  0  0  0
M  END
>  <MODEL>
4

>  <REMARK>
 VINA RESULT:      -9.2      2.825      5.441
  Name = 
  7 active torsions:
  status: ('A' for Active; 'I' for Inactive)
    1  A    between atoms: C_4  and  C_13
    2  A    between atoms: N_7  and  C_15
    3  A    between atoms: C_8  and  C_12
    4  A    between atoms: C_8  and  C_13
    5  A    between atoms: C_13  and  C_27
    6  A    between atoms: N_16  and  C_30
    7  A    between atoms: C_27  and  C_30
                            x       y       z     vdW  Elec       q    Type
                         _______ _______ _______ _____ _____    ______ ____

>  <TORSDO>
F 7

$$$$
=
 OpenBabel10272413513D

 30 33  0  0  1  0  0  0  0  0999 V2000
  188.8260  177.4960  143.6930 N   0  0  0  0  0  0  0  0  0  0  0  0
  190.7330  176.9170  145.0280 C   0  0  0  0  0  0  0  0  0  0  0  0
  186.4260  177.9980  147.0780 C   0  0  0  0  0  3  0  0  0  0  0  0
  187.5250  177.8520  143.5250 C   0  0  0  0  0  0  0  0  0  0  0  0
  185.0850  178.3600  146.9340 C   0  0  0  0  0  3  0  0  0  0  0  0
  191.2960  176.7090  146.2890 C   0  0  0  0  0  3  0  0  0  0  0  0
  191.5850  176.7300  143.8190 C   0  0  0  0  0  1  0  0  0  0  0  0
  187.2470  177.8270  145.9500 C   0  0  0  0  0  0  0  0  0  0  0  0
  190.5260  176.8700  147.4420 C   0  0  0  0  0  3  0  0  0  0  0  0
  189.3810  177.2930  144.9160 C   0  0  0  0  0  0  0  0  0  0  0  0
  186.7000  178.0270  144.6580 C   0  0  0  0  0  0  0  0  0  0  0  0
  184.5470  178.5540  145.6620 C   0  0  0  0  0  3  0  0  0  0  0  0
  185.3480  178.3890  144.5320 C   0  0  0  0  0  3  0  0  0  0  0  0
  189.1840  177.2420  147.3400 C   0  0  0  0  0  3  0  0  0  0  0  0
  188.5980  177.4570  146.0820 C   0  0  0  0  0  0  0  0  0  0  0  0
  187.0310  178.0190  142.1090 C   0  0  1  0  0  3  0  0  0  0  0  0
  185.8690  180.1310  142.1430 O   0  0  0  0  0  1  0  0  0  0  0  0
  185.6770  178.7520  142.0280 C   0  0  1  0  0  3  0  0  0  0  0  0
  184.9370  179.5930  139.8290 N   0  0  0  0  0  2  0  0  0  0  0  0
  183.1460  178.0440  141.0680 S   0  0  0  0  0  0  0  0  0  0  0  0
  184.8820  178.4680  140.7470 C   0  0  2  0  0  3  0  0  0  0  0  0
  183.8630  179.4460  138.9390 N   0  0  0  0  0  2  0  0  0  0  0  0
  182.6840  179.1860  139.7460 C   0  0  0  0  0  2  0  0  0  0  0  0
  188.0860  178.6820  141.2270 C   0  0  0  0  0  2  0  0  0  0  0  0
  188.5400  177.7290  140.1330 C   0  0  0  0  0  2  0  0  0  0  0  0
  187.3160  177.8650  138.1140 N   0  0  0  0  0  0  0  0  0  0  0  0
  188.2700  178.3060  138.8280 N   0  0  0  0  0  0  0  0  0  0  0  0
  186.4110  177.6350  135.8190 N   0  0  0  0  0  1  0  0  0  0  0  0
  187.0380  178.4200  136.8290 C   0  0  0  0  0  0  0  0  0  0  0  0
  187.3480  179.6140  136.5870 O   0  0  0  0  0  0  0  0  0  0  0  0
  1 10  1  0  0  0  0
  2  6  1  0  0  0  0
  4  1  2  0  0  0  0
  4 11  1  0  0  0  0
  5  3  1  0  0  0  0
  6  9  2  0  0  0  0
  7  2  1  0  0  0  0
  8 15  1  0  0  0  0
  8  3  2  0  0  0  0
 10  2  2  0  0  0  0
 10 15  1  0  0  0  0
 11  8  1  0  0  0  0
 12  5  2  0  0  0  0
 13 11  2  0  0  0  0
 13 12  1  0  0  0  0
 14  9  1  0  0  0  0
 15 14  2  0  0  0  0
 16 24  1  6  0  0  0
 16  4  1  0  0  0  0
 18 16  1  0  0  0  0
 18 17  1  6  0  0  0
 19 21  1  0  0  0  0
 21 20  1  0  0  0  0
 21 18  1  1  0  0  0
 22 23  1  0  0  0  0
 22 19  1  0  0  0  0
 23 20  1  0  0  0  0
 25 24  1  0  0  0  0
 26 27  2  0  0  0  0
 27 25  1  0  0  0  0
 28 29  1  0  0  0  0
 29 26  1  0  0  0  0
 30 29  2  0  0  0  0
M  END
>  <MODEL>
5

>  <REMARK>
 VINA RESULT:      -9.2      3.059      6.331
  Name = 
  7 active torsions:
  status: ('A' for Active; 'I' for Inactive)
    1  A    between atoms: C_4  and  C_13
    2  A    between atoms: N_7  and  C_15
    3  A    between atoms: C_8  and  C_12
    4  A    between atoms: C_8  and  C_13
    5  A    between atoms: C_13  and  C_27
    6  A    between atoms: N_16  and  C_30
    7  A    between atoms: C_27  and  C_30
                            x       y       z     vdW  Elec       q    Type
                         _______ _______ _______ _____ _____    ______ ____

>  <TORSDO>
F 7

$$$$
=
 OpenBabel10272413513D

 30 33  0  0  1  0  0  0  0  0999 V2000
  186.9960  177.8850  143.1470 N   0  0  0  0  0  0  0  0  0  0  0  0
  184.9470  178.4490  144.2600 C   0  0  0  0  0  0  0  0  0  0  0  0
  188.9820  177.3150  146.7790 C   0  0  0  0  0  3  0  0  0  0  0  0
  188.3060  177.5260  143.1260 C   0  0  0  0  0  0  0  0  0  0  0  0
  190.3300  176.9500  146.7870 C   0  0  0  0  0  3  0  0  0  0  0  0
  184.2400  178.6370  145.4500 C   0  0  0  0  0  3  0  0  0  0  0  0
  184.2420  178.6600  142.9630 C   0  0  0  0  0  1  0  0  0  0  0  0
  188.2990  177.5090  145.5660 C   0  0  0  0  0  0  0  0  0  0  0  0
  184.8700  178.4530  146.6810 C   0  0  0  0  0  3  0  0  0  0  0  0
  186.3010  178.0690  144.3000 C   0  0  0  0  0  0  0  0  0  0  0  0
  188.9930  177.3290  144.3430 C   0  0  0  0  0  0  0  0  0  0  0  0
  191.0130  176.7750  145.5830 C   0  0  0  0  0  3  0  0  0  0  0  0
  190.3490  176.9640  144.3710 C   0  0  0  0  0  3  0  0  0  0  0  0
  186.2140  178.0770  146.7300 C   0  0  0  0  0  3  0  0  0  0  0  0
  186.9430  177.8820  145.5460 C   0  0  0  0  0  0  0  0  0  0  0  0
  188.9630  177.3820  141.7740 C   0  0  1  0  0  3  0  0  0  0  0  0
  187.6280  179.1680  140.8580 O   0  0  0  0  0  1  0  0  0  0  0  0
  188.0670  177.8640  140.6170 C   0  0  1  0  0  3  0  0  0  0  0  0
  188.9770  179.1510  138.7180 N   0  0  0  0  0  2  0  0  0  0  0  0
  187.7880  176.8610  138.0190 S   0  0  0  0  0  0  0  0  0  0  0  0
  188.7380  177.8150  139.2380 C   0  0  2  0  0  3  0  0  0  0  0  0
  189.1550  179.0230  137.3320 N   0  0  0  0  0  2  0  0  0  0  0  0
  188.0570  178.2060  136.8430 C   0  0  0  0  0  2  0  0  0  0  0  0
  190.3320  178.0570  141.7480 C   0  0  0  0  0  2  0  0  0  0  0  0
  191.4190  177.0440  141.4240 C   0  0  0  0  0  2  0  0  0  0  0  0
  191.8650  176.3250  139.2150 N   0  0  0  0  0  0  0  0  0  0  0  0
  191.9130  177.2590  140.0760 N   0  0  0  0  0  0  0  0  0  0  0  0
  191.5040  176.2770  136.7650 N   0  0  0  0  0  1  0  0  0  0  0  0
  192.3470  176.5200  137.8870 C   0  0  0  0  0  0  0  0  0  0  0  0
  193.5280  176.9120  137.7040 O   0  0  0  0  0  0  0  0  0  0  0  0
  1 10  1  0  0  0  0
  2 10  2  0  0  0  0
  2  6  1  0  0  0  0
  3  5  1  0  0  0  0
  4  1  2  0  0  0  0
  4 11  1  0  0  0  0
  6  9  2  0  0  0  0
  7  2  1  0  0  0  0
  8  3  2  0  0  0  0
  9 14  1  0  0  0  0
 10 15  1  0  0  0  0
 11 13  2  0  0  0  0
 11  8  1  0  0  0  0
 12  5  2  0  0  0  0
 13 12  1  0  0  0  0
 15  8  1  0  0  0  0
 15 14  2  0  0  0  0
 16 24  1  1  0  0  0
 16  4  1  0  0  0  0
 18 17  1  1  0  0  0
 18 16  1  0  0  0  0
 19 21  1  0  0  0  0
 20 21  1  0  0  0  0
 21 18  1  1  0  0  0
 22 19  1  0  0  0  0
 23 22  1  0  0  0  0
 23 20  1  0  0  0  0
 25 24  1  0  0  0  0
 26 27  2  0  0  0  0
 27 25  1  0  0  0  0
 28 29  1  0  0  0  0
 29 26  1  0  0  0  0
 30 29  2  0  0  0  0
M  END
>  <MODEL>
6

>  <REMARK>
 VINA RESULT:      -8.9      2.895      4.076
  Name = 
  7 active torsions:
  status: ('A' for Active; 'I' for Inactive)
    1  A    between atoms: C_4  and  C_13
    2  A    between atoms: N_7  and  C_15
    3  A    between atoms: C_8  and  C_12
    4  A    between atoms: C_8  and  C_13
    5  A    between atoms: C_13  and  C_27
    6  A    between atoms: N_16  and  C_30
    7  A    between atoms: C_27  and  C_30
                            x       y       z     vdW  Elec       q    Type
                         _______ _______ _______ _____ _____    ______ ____

>  <TORSDO>
F 7

$$$$
=
 OpenBabel10272413513D

 30 33  0  0  1  0  0  0  0  0999 V2000
  185.4710  178.1050  142.1590 N   0  0  0  0  0  0  0  0  0  0  0  0
  183.2550  178.4820  141.3200 C   0  0  0  0  0  0  0  0  0  0  0  0
  184.2540  178.7880  146.0980 C   0  0  0  0  0  3  0  0  0  0  0  0
  186.3950  178.0240  143.1520 C   0  0  0  0  0  0  0  0  0  0  0  0
  185.1830  178.7150  147.1370 C   0  0  0  0  0  3  0  0  0  0  0  0
  181.9150  178.7890  141.5670 C   0  0  0  0  0  3  0  0  0  0  0  0
  183.6930  178.2460  139.9140 C   0  0  0  0  0  1  0  0  0  0  0  0
  184.6470  178.5600  144.7680 C   0  0  0  0  0  0  0  0  0  0  0  0
  181.4720  179.0200  142.8700 C   0  0  0  0  0  3  0  0  0  0  0  0
  184.1660  178.4030  142.3900 C   0  0  0  0  0  0  0  0  0  0  0  0
  186.0020  178.2510  144.4890 C   0  0  0  0  0  0  0  0  0  0  0  0
  186.5170  178.4130  146.8610 C   0  0  0  0  0  3  0  0  0  0  0  0
  186.9230  178.1830  145.5470 C   0  0  0  0  0  3  0  0  0  0  0  0
  182.3690  178.9440  143.9370 C   0  0  0  0  0  3  0  0  0  0  0  0
  183.7200  178.6370  143.7120 C   0  0  0  0  0  0  0  0  0  0  0  0
  187.8160  177.7120  142.7510 C   0  0  1  0  0  3  0  0  0  0  0  0
  188.5180  175.4160  142.9710 O   0  0  0  0  0  1  0  0  0  0  0  0
  188.4710  176.6400  143.6430 C   0  0  1  0  0  3  0  0  0  0  0  0
  190.1080  178.4320  144.0870 N   0  0  0  0  0  2  0  0  0  0  0  0
  191.1880  176.1630  143.1750 S   0  0  0  0  0  0  0  0  0  0  0  0
  189.8840  176.9960  144.1240 C   0  0  2  0  0  3  0  0  0  0  0  0
  191.4980  178.6270  144.0950 N   0  0  0  0  0  2  0  0  0  0  0  0
  192.0500  177.7490  143.0790 C   0  0  0  0  0  2  0  0  0  0  0  0
  187.9090  177.3490  141.2710 C   0  0  0  0  0  2  0  0  0  0  0  0
  189.1190  178.0130  140.6340 C   0  0  0  0  0  2  0  0  0  0  0  0
  191.0210  177.2790  139.4350 N   0  0  0  0  0  0  0  0  0  0  0  0
  189.8200  177.0620  139.7890 N   0  0  0  0  0  0  0  0  0  0  0  0
  191.0740  175.1920  138.1010 N   0  0  0  0  0  1  0  0  0  0  0  0
  191.7240  176.3560  138.6040 C   0  0  0  0  0  0  0  0  0  0  0  0
  192.9280  176.5730  138.3120 O   0  0  0  0  0  0  0  0  0  0  0  0
  1 10  2  0  0  0  0
  1  4  1  0  0  0  0
  2  6  2  0  0  0  0
  2 10  1  0  0  0  0
  3  5  2  0  0  0  0
  4 11  2  0  0  0  0
  6  9  1  0  0  0  0
  7  2  1  0  0  0  0
  8  3  1  0  0  0  0
  9 14  2  0  0  0  0
 10 15  1  0  0  0  0
 11  8  1  0  0  0  0
 11 13  1  0  0  0  0
 12  5  1  0  0  0  0
 13 12  2  0  0  0  0
 15 14  1  0  0  0  0
 15  8  2  0  0  0  0
 16 24  1  6  0  0  0
 16  4  1  0  0  0  0
 16 18  1  0  0  0  0
 18 17  1  6  0  0  0
 19 22  1  0  0  0  0
 19 21  1  0  0  0  0
 20 21  1  0  0  0  0
 21 18  1  6  0  0  0
 23 20  1  0  0  0  0
 23 22  1  0  0  0  0
 25 24  1  0  0  0  0
 26 27  2  0  0  0  0
 27 25  1  0  0  0  0
 28 29  1  0  0  0  0
 29 26  1  0  0  0  0
 30 29  2  0  0  0  0
M  END
>  <MODEL>
7

>  <REMARK>
 VINA RESULT:      -8.9      2.088      4.213
  Name = 
  7 active torsions:
  status: ('A' for Active; 'I' for Inactive)
    1  A    between atoms: C_4  and  C_13
    2  A    between atoms: N_7  and  C_15
    3  A    between atoms: C_8  and  C_12
    4  A    between atoms: C_8  and  C_13
    5  A    between atoms: C_13  and  C_27
    6  A    between atoms: N_16  and  C_30
    7  A    between atoms: C_27  and  C_30
                            x       y       z     vdW  Elec       q    Type
                         _______ _______ _______ _____ _____    ______ ____

>  <TORSDO>
F 7

$$$$
=
 OpenBabel10272413513D

 30 33  0  0  1  0  0  0  0  0999 V2000
  187.0200  178.1120  144.6620 N   0  0  0  0  0  0  0  0  0  0  0  0
  186.7250  178.3030  147.0350 C   0  0  0  0  0  0  0  0  0  0  0  0
  190.9130  176.6590  145.1150 C   0  0  0  0  0  3  0  0  0  0  0  0
  187.7390  177.8090  143.5490 C   0  0  0  0  0  0  0  0  0  0  0  0
  191.6750  176.3440  143.9890 C   0  0  0  0  0  3  0  0  0  0  0  0
  187.2400  178.1490  148.3250 C   0  0  0  0  0  3  0  0  0  0  0  0
  185.3400  178.8290  146.8710 C   0  0  0  0  0  1  0  0  0  0  0  0
  189.6010  177.1470  144.9810 C   0  0  0  0  0  0  0  0  0  0  0  0
  188.5350  177.6640  148.5150 C   0  0  0  0  0  3  0  0  0  0  0  0
  187.5140  177.9650  145.9200 C   0  0  0  0  0  0  0  0  0  0  0  0
  189.0550  177.3170  143.6830 C   0  0  0  0  0  0  0  0  0  0  0  0
  191.1370  176.5140  142.7130 C   0  0  0  0  0  3  0  0  0  0  0  0
  189.8370  176.9970  142.5620 C   0  0  0  0  0  3  0  0  0  0  0  0
  189.3240  177.3270  147.4130 C   0  0  0  0  0  3  0  0  0  0  0  0
  188.8260  177.4730  146.1090 C   0  0  0  0  0  0  0  0  0  0  0  0
  187.0780  178.0460  142.2130 C   0  0  1  0  0  3  0  0  0  0  0  0
  185.8530  179.9060  141.2900 O   0  0  0  0  0  1  0  0  0  0  0  0
  185.8350  178.9520  142.3100 C   0  0  1  0  0  3  0  0  0  0  0  0
  183.8990  178.2750  140.9380 N   0  0  0  0  0  2  0  0  0  0  0  0
  183.3050  178.7860  143.4940 S   0  0  0  0  0  0  0  0  0  0  0  0
  184.5000  178.1980  142.2600 C   0  0  2  0  0  3  0  0  0  0  0  0
  182.5370  177.9750  141.0920 N   0  0  0  0  0  2  0  0  0  0  0  0
  182.0510  178.7900  142.1920 C   0  0  0  0  0  2  0  0  0  0  0  0
  188.0780  178.5670  141.1840 C   0  0  0  0  0  2  0  0  0  0  0  0
  187.8400  177.9140  139.8320 C   0  0  0  0  0  2  0  0  0  0  0  0
  189.0790  176.5240  138.3730 N   0  0  0  0  0  0  0  0  0  0  0  0
  189.0870  177.3840  139.3100 N   0  0  0  0  0  0  0  0  0  0  0  0
  190.4740  174.5860  137.7130 N   0  0  0  0  0  1  0  0  0  0  0  0
  190.2950  175.9930  137.8490 C   0  0  0  0  0  0  0  0  0  0  0  0
  191.2180  176.7740  137.5030 O   0  0  0  0  0  0  0  0  0  0  0  0
  1 10  1  0  0  0  0
  2  6  1  0  0  0  0
  4 11  1  0  0  0  0
  4  1  2  0  0  0  0
  5  3  2  0  0  0  0
  6  9  2  0  0  0  0
  7  2  1  0  0  0  0
  8  3  1  0  0  0  0
  8 15  1  0  0  0  0
 10 15  1  0  0  0  0
 10  2  2  0  0  0  0
 11  8  2  0  0  0  0
 12  5  1  0  0  0  0
 13 12  2  0  0  0  0
 13 11  1  0  0  0  0
 14  9  1  0  0  0  0
 15 14  2  0  0  0  0
 16 24  1  6  0  0  0
 16 18  1  0  0  0  0
 16  4  1  0  0  0  0
 18 17  1  6  0  0  0
 19 22  1  0  0  0  0
 19 21  1  0  0  0  0
 21 18  1  6  0  0  0
 21 20  1  0  0  0  0
 22 23  1  0  0  0  0
 23 20  1  0  0  0  0
 25 24  1  0  0  0  0
 26 27  2  0  0  0  0
 27 25  1  0  0  0  0
 28 29  1  0  0  0  0
 29 26  1  0  0  0  0
 30 29  2  0  0  0  0
M  END
>  <MODEL>
8

>  <REMARK>
 VINA RESULT:      -8.7      3.239      5.850
  Name = 
  7 active torsions:
  status: ('A' for Active; 'I' for Inactive)
    1  A    between atoms: C_4  and  C_13
    2  A    between atoms: N_7  and  C_15
    3  A    between atoms: C_8  and  C_12
    4  A    between atoms: C_8  and  C_13
    5  A    between atoms: C_13  and  C_27
    6  A    between atoms: N_16  and  C_30
    7  A    between atoms: C_27  and  C_30
                            x       y       z     vdW  Elec       q    Type
                         _______ _______ _______ _____ _____    ______ ____

>  <TORSDO>
F 7

$$$$
=
 OpenBabel10272413513D

 30 33  0  0  1  0  0  0  0  0999 V2000
  187.1990  178.1310  143.0300 N   0  0  0  0  0  0  0  0  0  0  0  0
  185.1970  178.4480  144.3130 C   0  0  0  0  0  0  0  0  0  0  0  0
  189.4710  177.4510  146.4720 C   0  0  0  0  0  3  0  0  0  0  0  0
  188.5280  177.8790  142.8970 C   0  0  0  0  0  0  0  0  0  0  0  0
  190.8390  177.1940  146.3650 C   0  0  0  0  0  3  0  0  0  0  0  0
  184.5630  178.4920  145.5570 C   0  0  0  0  0  3  0  0  0  0  0  0
  184.3890  178.6990  143.0850 C   0  0  0  0  0  1  0  0  0  0  0  0
  188.6920  177.6800  145.3240 C   0  0  0  0  0  0  0  0  0  0  0  0
  185.2890  178.2670  146.7280 C   0  0  0  0  0  3  0  0  0  0  0  0
  186.5750  178.1740  144.2370 C   0  0  0  0  0  0  0  0  0  0  0  0
  189.3110  177.6460  144.0490 C   0  0  0  0  0  0  0  0  0  0  0  0
  191.4470  177.1630  145.1100 C   0  0  0  0  0  3  0  0  0  0  0  0
  190.6880  177.3880  143.9610 C   0  0  0  0  0  3  0  0  0  0  0  0
  186.6570  177.9950  146.6610 C   0  0  0  0  0  3  0  0  0  0  0  0
  187.3140  177.9460  145.4210 C   0  0  0  0  0  0  0  0  0  0  0  0
  189.0970  177.8870  141.5000 C   0  0  1  0  0  3  0  0  0  0  0  0
  190.1130  175.7020  141.5470 O   0  0  0  0  0  1  0  0  0  0  0  0
  190.3910  177.0590  141.3740 C   0  0  1  0  0  3  0  0  0  0  0  0
  190.9260  176.1140  139.1580 N   0  0  0  0  0  2  0  0  0  0  0  0
  192.9140  177.5220  140.2560 S   0  0  0  0  0  0  0  0  0  0  0  0
  191.1330  177.2480  140.0440 C   0  0  2  0  0  3  0  0  0  0  0  0
  191.9560  176.1480  138.2050 N   0  0  0  0  0  2  0  0  0  0  0  0
  193.1980  176.3190  138.9380 C   0  0  0  0  0  2  0  0  0  0  0  0
  188.0520  177.4620  140.4720 C   0  0  0  0  0  2  0  0  0  0  0  0
  188.1120  178.3610  139.2470 C   0  0  0  0  0  2  0  0  0  0  0  0
  185.8250  178.8760  139.5650 N   0  0  0  0  0  0  0  0  0  0  0  0
  186.7710  178.6190  138.7540 N   0  0  0  0  0  0  0  0  0  0  0  0
  183.6590  178.0600  138.6810 N   0  0  0  0  0  1  0  0  0  0  0  0
  184.5020  179.1310  139.0970 C   0  0  0  0  0  0  0  0  0  0  0  0
  184.0740  180.3130  139.0540 O   0  0  0  0  0  0  0  0  0  0  0  0
  1 10  1  0  0  0  0
  2  6  1  0  0  0  0
  4  1  2  0  0  0  0
  4 11  1  0  0  0  0
  5  3  1  0  0  0  0
  6  9  2  0  0  0  0
  7  2  1  0  0  0  0
  8 15  1  0  0  0  0
  8  3  2  0  0  0  0
 10  2  2  0  0  0  0
 10 15  1  0  0  0  0
 11  8  1  0  0  0  0
 12  5  2  0  0  0  0
 13 11  2  0  0  0  0
 13 12  1  0  0  0  0
 14  9  1  0  0  0  0
 15 14  2  0  0  0  0
 16 24  1  6  0  0  0
 16  4  1  0  0  0  0
 18 16  1  0  0  0  0
 18 17  1  6  0  0  0
 19 21  1  0  0  0  0
 21 20  1  0  0  0  0
 21 18  1  1  0  0  0
 22 23  1  0  0  0  0
 22 19  1  0  0  0  0
 23 20  1  0  0  0  0
 25 24  1  0  0  0  0
 27 25  1  0  0  0  0
 27 26  2  0  0  0  0
 28 29  1  0  0  0  0
 29 26  1  0  0  0  0
 30 29  2  0  0  0  0
M  END
>  <MODEL>
9

>  <REMARK>
 VINA RESULT:      -8.5      2.552      5.143
  Name = 
  7 active torsions:
  status: ('A' for Active; 'I' for Inactive)
    1  A    between atoms: C_4  and  C_13
    2  A    between atoms: N_7  and  C_15
    3  A    between atoms: C_8  and  C_12
    4  A    between atoms: C_8  and  C_13
    5  A    between atoms: C_13  and  C_27
    6  A    between atoms: N_16  and  C_30
    7  A    between atoms: C_27  and  C_30
                            x       y       z     vdW  Elec       q    Type
                         _______ _______ _______ _____ _____    ______ ____

>  <TORSDO>
F 7

$$$$
