=
 OpenBabel10272401583D

 28 32  0  0  1  0  0  0  0  0999 V2000
  189.3970  178.1200  139.5310 C   0  0  0  0  0  0  0  0  0  0  0  0
  184.2420  178.7070  140.0650 S   0  0  0  0  0  0  0  0  0  0  0  0
  188.6060  177.0220  144.4140 C   0  0  0  0  0  1  0  0  0  0  0  0
  184.2030  178.9360  142.7070 C   0  0  1  0  0  3  0  0  0  0  0  0
  186.4100  178.5670  141.7130 N   0  0  0  0  0  0  0  0  0  0  0  0
  185.1150  179.2490  141.5730 C   0  0  1  0  0  3  0  0  0  0  0  0
  185.8310  177.7260  144.0620 C   0  0  0  0  0  2  0  0  0  0  0  0
  182.9470  178.6590  142.3950 C   0  0  0  0  0  2  0  0  0  0  0  0
  189.1390  177.9670  142.0680 C   0  0  1  0  0  3  0  0  0  0  0  0
  187.2760  178.5550  140.6030 N   0  0  0  0  0  0  0  0  0  0  0  0
  184.7420  178.7880  144.0860 C   0  0  0  0  0  2  0  0  0  0  0  0
  190.9060  176.7710  140.8970 C   0  0  0  0  0  3  0  0  0  0  0  0
  188.1250  177.6170  143.1260 C   0  0  0  0  0  0  0  0  0  0  0  0
  190.2270  176.9840  141.9880 N   0  0  0  0  0  0  0  0  0  0  0  0
  182.6420  178.7660  140.9440 C   0  0  2  0  0  3  0  0  0  0  0  0
  186.8430  177.9980  142.9750 C   0  0  0  0  0  0  0  0  0  0  0  0
  190.5390  177.4350  139.6290 C   0  0  0  0  0  3  0  0  0  0  0  0
  188.5240  178.2150  140.7140 C   0  0  0  0  0  0  0  0  0  0  0  0
  181.7540  177.6110  140.5200 C   0  0  0  0  0  2  0  0  0  0  0  0
  182.5610  176.5820  139.7510 C   0  0  0  0  0  1  0  0  0  0  0  0
  189.0180  178.7460  138.2260 C   0  0  0  0  0  2  0  0  0  0  0  0
  188.6730  177.7010  137.2190 C   0  0  0  0  0  0  0  0  0  0  0  0
  187.9980  175.7690  135.3110 C   0  0  0  0  0  0  0  0  0  0  0  0
  189.4590  177.5450  136.0710 C   0  0  0  0  0  3  0  0  0  0  0  0
  187.5460  176.8930  137.4070 C   0  0  0  0  0  3  0  0  0  0  0  0
  187.2090  175.9270  136.4550 C   0  0  0  0  0  3  0  0  0  0  0  0
  187.6710  174.8330  134.3890 F   0  0  0  0  0  0  0  0  0  0  0  0
  189.1210  176.5780  135.1190 C   0  0  0  0  0  3  0  0  0  0  0  0
  1 17  2  0  0  0  0
  1 18  1  0  0  0  0
  2 15  1  0  0  0  0
  4  8  1  6  0  0  0
  4 11  1  0  0  0  0
  5 16  1  0  0  0  0
  6  2  1  6  0  0  0
  6  5  1  0  0  0  0
  6  4  1  0  0  0  0
  7 11  1  0  0  0  0
  9 18  1  6  0  0  0
  9 13  1  0  0  0  0
 10 18  2  0  0  0  0
 10  5  1  0  0  0  0
 12 14  2  0  0  0  0
 13  3  1  0  0  0  0
 14  9  1  0  0  0  0
 15 19  1  6  0  0  0
 15  8  1  0  0  0  0
 16 13  2  0  0  0  0
 16  7  1  0  0  0  0
 17 12  1  0  0  0  0
 20 19  1  0  0  0  0
 21  1  1  0  0  0  0
 22 25  1  0  0  0  0
 22 21  1  0  0  0  0
 23 26  1  0  0  0  0
 24 22  2  0  0  0  0
 26 25  2  0  0  0  0
 27 23  1  0  0  0  0
 28 23  2  0  0  0  0
 28 24  1  0  0  0  0
M  END
>  <MODEL>
1

>  <REMARK>
 VINA RESULT:      -8.3      0.000      0.000
  Name = 
  3 active torsions:
  status: ('A' for Active; 'I' for Inactive)
    1  A    between atoms: C_1  and  C_2
    2  A    between atoms: C_2  and  C_3
    3  A    between atoms: C_12  and  C_24
                            x       y       z     vdW  Elec       q    Type
                         _______ _______ _______ _____ _____    ______ ____

>  <TORSDO>
F 3

$$$$
=
 OpenBabel10272401583D

 28 32  0  0  1  0  0  0  0  0999 V2000
  189.4420  177.9510  140.0990 C   0  0  0  0  0  0  0  0  0  0  0  0
  184.2790  178.6440  140.3480 S   0  0  0  0  0  0  0  0  0  0  0  0
  188.4020  177.1570  144.9930 C   0  0  0  0  0  1  0  0  0  0  0  0
  184.1190  179.0300  142.9670 C   0  0  1  0  0  3  0  0  0  0  0  0
  186.3630  178.5710  142.1040 N   0  0  0  0  0  0  0  0  0  0  0  0
  185.0880  179.2610  141.8620 C   0  0  1  0  0  3  0  0  0  0  0  0
  185.6600  177.8790  144.4690 C   0  0  0  0  0  2  0  0  0  0  0  0
  182.8740  178.7530  142.6120 C   0  0  0  0  0  2  0  0  0  0  0  0
  189.0620  177.9530  142.6240 C   0  0  1  0  0  3  0  0  0  0  0  0
  187.2800  178.4790  141.0400 N   0  0  0  0  0  0  0  0  0  0  0  0
  184.5890  178.9570  144.3770 C   0  0  0  0  0  2  0  0  0  0  0  0
  190.8610  176.6640  141.6120 C   0  0  0  0  0  3  0  0  0  0  0  0
  187.9930  177.6810  143.6510 C   0  0  0  0  0  0  0  0  0  0  0  0
  190.1350  176.9510  142.6550 N   0  0  0  0  0  0  0  0  0  0  0  0
  182.6390  178.7780  141.1450 C   0  0  2  0  0  3  0  0  0  0  0  0
  186.7260  178.0710  143.4170 C   0  0  0  0  0  0  0  0  0  0  0  0
  190.5650  177.2560  140.2910 C   0  0  0  0  0  3  0  0  0  0  0  0
  188.5150  178.1290  141.2300 C   0  0  0  0  0  0  0  0  0  0  0  0
  181.7530  177.6130  140.7470 C   0  0  0  0  0  2  0  0  0  0  0  0
  182.4920  176.6900  139.7980 C   0  0  0  0  0  1  0  0  0  0  0  0
  189.1350  178.5030  138.7420 C   0  0  0  0  0  2  0  0  0  0  0  0
  188.1630  177.6300  138.0230 C   0  0  0  0  0  0  0  0  0  0  0  0
  186.3540  176.0080  136.6340 C   0  0  0  0  0  0  0  0  0  0  0  0
  188.5020  176.3070  137.7140 C   0  0  0  0  0  3  0  0  0  0  0  0
  186.9210  178.1410  137.6300 C   0  0  0  0  0  3  0  0  0  0  0  0
  186.0170  177.3310  136.9370 C   0  0  0  0  0  3  0  0  0  0  0  0
  185.4780  175.2240  135.9630 F   0  0  0  0  0  0  0  0  0  0  0  0
  187.5960  175.4970  137.0210 C   0  0  0  0  0  3  0  0  0  0  0  0
  1 17  2  0  0  0  0
  1 18  1  0  0  0  0
  2 15  1  0  0  0  0
  4  8  1  6  0  0  0
  4 11  1  0  0  0  0
  5 16  1  0  0  0  0
  6  2  1  6  0  0  0
  6  5  1  0  0  0  0
  6  4  1  0  0  0  0
  9 18  1  6  0  0  0
  9 14  1  0  0  0  0
  9 13  1  0  0  0  0
 10 18  2  0  0  0  0
 10  5  1  0  0  0  0
 11  7  1  0  0  0  0
 12 14  2  0  0  0  0
 13  3  1  0  0  0  0
 15 19  1  6  0  0  0
 15  8  1  0  0  0  0
 16 13  2  0  0  0  0
 16  7  1  0  0  0  0
 17 12  1  0  0  0  0
 20 19  1  0  0  0  0
 21  1  1  0  0  0  0
 22 21  1  0  0  0  0
 23 26  2  0  0  0  0
 23 28  1  0  0  0  0
 24 22  1  0  0  0  0
 25 22  2  0  0  0  0
 26 25  1  0  0  0  0
 27 23  1  0  0  0  0
 28 24  2  0  0  0  0
M  END
>  <MODEL>
2

>  <REMARK>
 VINA RESULT:      -8.2      1.044      1.126
  Name = 
  3 active torsions:
  status: ('A' for Active; 'I' for Inactive)
    1  A    between atoms: C_1  and  C_2
    2  A    between atoms: C_2  and  C_3
    3  A    between atoms: C_12  and  C_24
                            x       y       z     vdW  Elec       q    Type
                         _______ _______ _______ _____ _____    ______ ____

>  <TORSDO>
F 3

$$$$
=
 OpenBabel10272401583D

 28 32  0  0  1  0  0  0  0  0999 V2000
  187.3310  177.8700  143.2920 C   0  0  0  0  0  0  0  0  0  0  0  0
  190.5390  176.5480  139.3980 S   0  0  0  0  0  0  0  0  0  0  0  0
  184.6120  178.9140  139.1470 C   0  0  0  0  0  1  0  0  0  0  0  0
  189.3240  177.9220  137.4820 C   0  0  1  0  0  3  0  0  0  0  0  0
  188.2790  178.0450  139.6930 N   0  0  0  0  0  0  0  0  0  0  0  0
  189.5480  178.0130  138.9510 C   0  0  1  0  0  3  0  0  0  0  0  0
  186.9030  178.2190  137.5390 C   0  0  0  0  0  2  0  0  0  0  0  0
  190.0840  177.0630  136.8220 C   0  0  0  0  0  2  0  0  0  0  0  0
  186.0760  178.8050  141.2740 C   0  0  1  0  0  3  0  0  0  0  0  0
  188.3230  177.8690  141.0890 N   0  0  0  0  0  0  0  0  0  0  0  0
  188.1900  178.6470  136.8480 C   0  0  0  0  0  2  0  0  0  0  0  0
  184.8940  178.0140  143.2490 C   0  0  0  0  0  3  0  0  0  0  0  0
  185.9310  178.6100  139.7870 C   0  0  0  0  0  0  0  0  0  0  0  0
  184.8660  178.4140  142.0100 N   0  0  0  0  0  0  0  0  0  0  0  0
  191.0890  176.3650  137.6650 C   0  0  2  0  0  3  0  0  0  0  0  0
  187.0170  178.3390  139.0400 C   0  0  0  0  0  0  0  0  0  0  0  0
  186.1760  177.8190  143.9590 C   0  0  0  0  0  3  0  0  0  0  0  0
  187.3030  178.1420  141.8440 C   0  0  0  0  0  0  0  0  0  0  0  0
  191.1570  174.9000  137.2760 C   0  0  0  0  0  2  0  0  0  0  0  0
  189.7660  174.3650  136.9930 C   0  0  0  0  0  1  0  0  0  0  0  0
  188.6160  177.6220  144.0170 C   0  0  0  0  0  2  0  0  0  0  0  0
  188.4120  177.6910  145.4930 C   0  0  0  0  0  0  0  0  0  0  0  0
  188.0510  177.8580  148.2630 C   0  0  0  0  0  0  0  0  0  0  0  0
  187.2140  178.1930  146.0140 C   0  0  0  0  0  3  0  0  0  0  0  0
  189.4310  177.2790  146.3600 C   0  0  0  0  0  3  0  0  0  0  0  0
  189.2500  177.3620  147.7430 C   0  0  0  0  0  3  0  0  0  0  0  0
  187.8760  177.9380  149.6030 F   0  0  0  0  0  0  0  0  0  0  0  0
  187.0340  178.2750  147.3990 C   0  0  0  0  0  3  0  0  0  0  0  0
  1 17  2  0  0  0  0
  1 21  1  0  0  0  0
  3 13  1  0  0  0  0
  4  8  1  1  0  0  0
  4  6  1  0  0  0  0
  5 10  1  0  0  0  0
  6  2  1  1  0  0  0
  6  5  1  0  0  0  0
  7 16  1  0  0  0  0
  8 15  1  0  0  0  0
  9 13  1  6  0  0  0
  9 18  1  0  0  0  0
  9 14  1  0  0  0  0
 10 18  2  0  0  0  0
 11  4  1  0  0  0  0
 11  7  1  0  0  0  0
 12 17  1  0  0  0  0
 14 12  2  0  0  0  0
 15 19  1  6  0  0  0
 15  2  1  0  0  0  0
 16  5  1  0  0  0  0
 16 13  2  0  0  0  0
 18  1  1  0  0  0  0
 20 19  1  0  0  0  0
 21 22  1  0  0  0  0
 22 24  2  0  0  0  0
 22 25  1  0  0  0  0
 23 27  1  0  0  0  0
 24 28  1  0  0  0  0
 25 26  2  0  0  0  0
 26 23  1  0  0  0  0
 28 23  2  0  0  0  0
M  END
>  <MODEL>
3

>  <REMARK>
 VINA RESULT:      -7.9      3.757      8.037
  Name = 
  3 active torsions:
  status: ('A' for Active; 'I' for Inactive)
    1  A    between atoms: C_1  and  C_2
    2  A    between atoms: C_2  and  C_3
    3  A    between atoms: C_12  and  C_24
                            x       y       z     vdW  Elec       q    Type
                         _______ _______ _______ _____ _____    ______ ____

>  <TORSDO>
F 3

$$$$
=
 OpenBabel10272401583D

 28 32  0  0  1  0  0  0  0  0999 V2000
  184.2790  178.3120  142.5560 C   0  0  0  0  0  0  0  0  0  0  0  0
  189.4240  177.4650  142.6900 S   0  0  0  0  0  0  0  0  0  0  0  0
  185.4010  178.7720  147.4760 C   0  0  0  0  0  1  0  0  0  0  0  0
  189.6050  176.9130  145.2770 C   0  0  1  0  0  3  0  0  0  0  0  0
  187.3640  177.4860  144.4760 N   0  0  0  0  0  0  0  0  0  0  0  0
  188.6160  176.7770  144.1740 C   0  0  1  0  0  3  0  0  0  0  0  0
  188.1160  178.0100  146.8690 C   0  0  0  0  0  2  0  0  0  0  0  0
  190.8530  177.1780  144.9230 C   0  0  0  0  0  2  0  0  0  0  0  0
  184.6910  178.1420  145.0710 C   0  0  1  0  0  3  0  0  0  0  0  0
  186.4370  177.6680  143.4330 N   0  0  0  0  0  0  0  0  0  0  0  0
  189.1540  176.9110  146.6960 C   0  0  0  0  0  2  0  0  0  0  0  0
  182.9150  179.5410  144.1660 C   0  0  0  0  0  3  0  0  0  0  0  0
  185.7790  178.3210  146.0980 C   0  0  0  0  0  0  0  0  0  0  0  0
  183.6460  179.1700  145.1790 N   0  0  0  0  0  0  0  0  0  0  0  0
  191.0680  177.2370  143.4530 C   0  0  2  0  0  3  0  0  0  0  0  0
  187.0310  177.9120  145.8230 C   0  0  0  0  0  0  0  0  0  0  0  0
  183.1780  179.0240  142.8070 C   0  0  0  0  0  3  0  0  0  0  0  0
  185.2140  178.0390  143.6620 C   0  0  0  0  0  0  0  0  0  0  0  0
  191.9820  178.4010  143.1160 C   0  0  0  0  0  2  0  0  0  0  0  0
  191.7700  179.5380  144.0960 C   0  0  0  0  0  1  0  0  0  0  0  0
  184.5530  177.8370  141.1650 C   0  0  0  0  0  2  0  0  0  0  0  0
  183.4860  178.2970  140.2290 C   0  0  0  0  0  0  0  0  0  0  0  0
  181.5080  179.1440  138.4400 C   0  0  0  0  0  0  0  0  0  0  0  0
  182.3730  177.4850  139.9790 C   0  0  0  0  0  3  0  0  0  0  0  0
  183.6100  179.5300  139.5780 C   0  0  0  0  0  3  0  0  0  0  0  0
  182.6220  179.9530  138.6850 C   0  0  0  0  0  3  0  0  0  0  0  0
  180.5510  179.5550  137.5750 F   0  0  0  0  0  0  0  0  0  0  0  0
  181.3850  177.9110  139.0860 C   0  0  0  0  0  3  0  0  0  0  0  0
  1 17  2  0  0  0  0
  1 18  1  0  0  0  0
  2 15  1  0  0  0  0
  4  8  1  6  0  0  0
  4 11  1  0  0  0  0
  5 16  1  0  0  0  0
  6  2  1  6  0  0  0
  6  5  1  0  0  0  0
  6  4  1  0  0  0  0
  9 18  1  6  0  0  0
  9 14  1  0  0  0  0
  9 13  1  0  0  0  0
 10 18  2  0  0  0  0
 10  5  1  0  0  0  0
 11  7  1  0  0  0  0
 12 14  2  0  0  0  0
 13  3  1  0  0  0  0
 15 19  1  1  0  0  0
 15  8  1  0  0  0  0
 16 13  2  0  0  0  0
 16  7  1  0  0  0  0
 17 12  1  0  0  0  0
 19 20  1  0  0  0  0
 21  1  1  0  0  0  0
 22 21  1  0  0  0  0
 23 26  2  0  0  0  0
 23 28  1  0  0  0  0
 24 22  1  0  0  0  0
 25 22  2  0  0  0  0
 26 25  1  0  0  0  0
 27 23  1  0  0  0  0
 28 24  2  0  0  0  0
M  END
>  <MODEL>
4

>  <REMARK>
 VINA RESULT:      -7.8      4.220      6.811
  Name = 
  3 active torsions:
  status: ('A' for Active; 'I' for Inactive)
    1  A    between atoms: C_1  and  C_2
    2  A    between atoms: C_2  and  C_3
    3  A    between atoms: C_12  and  C_24
                            x       y       z     vdW  Elec       q    Type
                         _______ _______ _______ _____ _____    ______ ____

>  <TORSDO>
F 3

$$$$
=
 OpenBabel10272401583D

 28 32  0  0  1  0  0  0  0  0999 V2000
  189.6330  177.3310  141.1960 C   0  0  0  0  0  0  0  0  0  0  0  0
  184.5740  178.4130  140.5320 S   0  0  0  0  0  0  0  0  0  0  0  0
  187.7980  177.2290  145.9170 C   0  0  0  0  0  1  0  0  0  0  0  0
  184.0550  179.1330  143.0310 C   0  0  1  0  0  3  0  0  0  0  0  0
  186.3540  178.4120  142.5970 N   0  0  0  0  0  0  0  0  0  0  0  0
  185.1970  179.1550  142.0770 C   0  0  1  0  0  3  0  0  0  0  0  0
  185.2420  178.0720  144.8800 C   0  0  0  0  0  2  0  0  0  0  0  0
  182.8590  178.9020  142.5130 C   0  0  0  0  0  2  0  0  0  0  0  0
  188.8760  177.6750  143.6110 C   0  0  1  0  0  3  0  0  0  0  0  0
  187.4100  178.1240  141.7120 N   0  0  0  0  0  0  0  0  0  0  0  0
  184.2980  179.2030  144.4970 C   0  0  0  0  0  2  0  0  0  0  0  0
  190.6860  176.1460  143.0520 C   0  0  0  0  0  3  0  0  0  0  0  0
  187.6450  177.6090  144.4770 C   0  0  0  0  0  0  0  0  0  0  0  0
  189.8390  176.6110  143.9260 N   0  0  0  0  0  0  0  0  0  0  0  0
  182.8520  178.7610  141.0340 C   0  0  2  0  0  3  0  0  0  0  0  0
  186.4680  178.0560  143.9990 C   0  0  0  0  0  0  0  0  0  0  0  0
  190.6480  176.5880  141.6430 C   0  0  0  0  0  3  0  0  0  0  0  0
  188.5650  177.7140  142.1360 C   0  0  0  0  0  0  0  0  0  0  0  0
  181.9360  177.6200  140.6320 C   0  0  0  0  0  2  0  0  0  0  0  0
  182.6120  176.7410  139.5980 C   0  0  0  0  0  1  0  0  0  0  0  0
  189.5860  177.7310  139.7550 C   0  0  0  0  0  2  0  0  0  0  0  0
  190.3970  176.7970  138.9210 C   0  0  0  0  0  0  0  0  0  0  0  0
  191.9130  175.0720  137.3210 C   0  0  0  0  0  0  0  0  0  0  0  0
  191.7920  176.9130  138.8900 C   0  0  0  0  0  3  0  0  0  0  0  0
  189.7620  175.8200  138.1450 C   0  0  0  0  0  3  0  0  0  0  0  0
  190.5190  174.9580  137.3460 C   0  0  0  0  0  3  0  0  0  0  0  0
  192.6450  174.2370  136.5470 F   0  0  0  0  0  0  0  0  0  0  0  0
  192.5480  176.0500  138.0910 C   0  0  0  0  0  3  0  0  0  0  0  0
  1 17  2  0  0  0  0
  1 18  1  0  0  0  0
  2 15  1  0  0  0  0
  4  8  1  1  0  0  0
  4 11  1  0  0  0  0
  5 16  1  0  0  0  0
  6  2  1  6  0  0  0
  6  5  1  0  0  0  0
  6  4  1  0  0  0  0
  9 18  1  6  0  0  0
  9 14  1  0  0  0  0
  9 13  1  0  0  0  0
 10 18  2  0  0  0  0
 10  5  1  0  0  0  0
 11  7  1  0  0  0  0
 12 14  2  0  0  0  0
 13  3  1  0  0  0  0
 15 19  1  1  0  0  0
 15  8  1  0  0  0  0
 16 13  2  0  0  0  0
 16  7  1  0  0  0  0
 17 12  1  0  0  0  0
 20 19  1  0  0  0  0
 21  1  1  0  0  0  0
 22 21  1  0  0  0  0
 23 26  2  0  0  0  0
 23 28  1  0  0  0  0
 24 22  1  0  0  0  0
 25 22  2  0  0  0  0
 26 25  1  0  0  0  0
 27 23  1  0  0  0  0
 28 24  2  0  0  0  0
M  END
>  <MODEL>
5

>  <REMARK>
 VINA RESULT:      -7.7      1.881      2.294
  Name = 
  3 active torsions:
  status: ('A' for Active; 'I' for Inactive)
    1  A    between atoms: C_1  and  C_2
    2  A    between atoms: C_2  and  C_3
    3  A    between atoms: C_12  and  C_24
                            x       y       z     vdW  Elec       q    Type
                         _______ _______ _______ _____ _____    ______ ____

>  <TORSDO>
F 3

$$$$
=
 OpenBabel10272401583D

 28 32  0  0  1  0  0  0  0  0999 V2000
  189.5370  177.2510  142.8580 C   0  0  0  0  0  0  0  0  0  0  0  0
  190.7080  176.2560  137.8740 S   0  0  0  0  0  0  0  0  0  0  0  0
  185.3850  178.7510  140.3720 C   0  0  0  0  0  1  0  0  0  0  0  0
  188.8800  177.8350  136.7790 C   0  0  1  0  0  3  0  0  0  0  0  0
  188.8790  177.7610  139.2260 N   0  0  0  0  0  0  0  0  0  0  0  0
  189.7090  177.7770  138.0130 C   0  0  1  0  0  3  0  0  0  0  0  0
  186.7330  178.1730  137.8890 C   0  0  0  0  0  2  0  0  0  0  0  0
  189.2350  177.0300  135.7900 C   0  0  0  0  0  2  0  0  0  0  0  0
  187.6040  178.4050  141.6530 C   0  0  1  0  0  3  0  0  0  0  0  0
  189.5000  177.4480  140.4510 N   0  0  0  0  0  0  0  0  0  0  0  0
  187.6290  178.6410  136.7520 C   0  0  0  0  0  2  0  0  0  0  0  0
  187.3250  177.4470  143.8730 C   0  0  0  0  0  3  0  0  0  0  0  0
  186.8310  178.3600  140.3600 C   0  0  0  0  0  0  0  0  0  0  0  0
  186.7990  177.9680  142.8010 N   0  0  0  0  0  0  0  0  0  0  0  0
  190.4600  176.2340  136.0640 C   0  0  2  0  0  3  0  0  0  0  0  0
  187.4800  178.1420  139.2010 C   0  0  0  0  0  0  0  0  0  0  0  0
  188.7720  177.1580  143.9490 C   0  0  0  0  0  3  0  0  0  0  0  0
  188.9150  177.6650  141.5880 C   0  0  0  0  0  0  0  0  0  0  0  0
  190.2690  174.8130  135.5670 C   0  0  0  0  0  2  0  0  0  0  0  0
  189.8680  173.9030  136.7120 C   0  0  0  0  0  1  0  0  0  0  0  0
  190.9910  176.9090  142.9420 C   0  0  0  0  0  2  0  0  0  0  0  0
  191.3550  176.4800  144.3240 C   0  0  0  0  0  0  0  0  0  0  0  0
  192.0790  175.6870  146.9080 C   0  0  0  0  0  0  0  0  0  0  0  0
  191.1820  177.3580  145.4000 C   0  0  0  0  0  3  0  0  0  0  0  0
  191.8960  175.2080  144.5410 C   0  0  0  0  0  3  0  0  0  0  0  0
  192.2570  174.8110  145.8320 C   0  0  0  0  0  3  0  0  0  0  0  0
  192.4290  175.3020  148.1580 F   0  0  0  0  0  0  0  0  0  0  0  0
  191.5430  176.9590  146.6910 C   0  0  0  0  0  3  0  0  0  0  0  0
  1 21  1  0  0  0  0
  1 17  2  0  0  0  0
  4  8  1  1  0  0  0
  4  6  1  0  0  0  0
  5 10  1  0  0  0  0
  6  2  1  6  0  0  0
  6  5  1  0  0  0  0
  7 16  1  0  0  0  0
  8 15  1  0  0  0  0
  9 13  1  6  0  0  0
  9 14  1  0  0  0  0
 10 18  2  0  0  0  0
 11  4  1  0  0  0  0
 11  7  1  0  0  0  0
 12 17  1  0  0  0  0
 13  3  1  0  0  0  0
 14 12  2  0  0  0  0
 15 19  1  1  0  0  0
 15  2  1  0  0  0  0
 16  5  1  0  0  0  0
 16 13  2  0  0  0  0
 18  9  1  0  0  0  0
 18  1  1  0  0  0  0
 19 20  1  0  0  0  0
 21 22  1  0  0  0  0
 22 25  2  0  0  0  0
 22 24  1  0  0  0  0
 23 27  1  0  0  0  0
 24 28  2  0  0  0  0
 25 26  1  0  0  0  0
 26 23  2  0  0  0  0
 28 23  1  0  0  0  0
M  END
>  <MODEL>
6

>  <REMARK>
 VINA RESULT:      -7.4      3.776      7.597
  Name = 
  3 active torsions:
  status: ('A' for Active; 'I' for Inactive)
    1  A    between atoms: C_1  and  C_2
    2  A    between atoms: C_2  and  C_3
    3  A    between atoms: C_12  and  C_24
                            x       y       z     vdW  Elec       q    Type
                         _______ _______ _______ _____ _____    ______ ____

>  <TORSDO>
F 3

$$$$
=
 OpenBabel10272401583D

 28 32  0  0  1  0  0  0  0  0999 V2000
  186.9110  178.2960  142.9630 C   0  0  0  0  0  0  0  0  0  0  0  0
  184.5910  177.8270  138.3150 S   0  0  0  0  0  0  0  0  0  0  0  0
  181.9970  178.8670  144.0580 C   0  0  0  0  0  1  0  0  0  0  0  0
  182.2900  178.9710  138.9730 C   0  0  1  0  0  3  0  0  0  0  0  0
  183.9330  178.7910  140.7800 N   0  0  0  0  0  0  0  0  0  0  0  0
  183.7280  179.0580  139.3490 C   0  0  1  0  0  3  0  0  0  0  0  0
  181.4120  178.7370  141.2370 C   0  0  0  0  0  2  0  0  0  0  0  0
  182.0110  178.3180  137.8560 C   0  0  0  0  0  2  0  0  0  0  0  0
  184.5230  179.0060  143.5250 C   0  0  1  0  0  3  0  0  0  0  0  0
  185.2490  178.5830  141.2330 N   0  0  0  0  0  0  0  0  0  0  0  0
  181.2380  179.4550  139.9070 C   0  0  0  0  0  2  0  0  0  0  0  0
  185.9430  177.9130  145.1720 C   0  0  0  0  0  3  0  0  0  0  0  0
  183.1030  178.8330  143.0490 C   0  0  0  0  0  0  0  0  0  0  0  0
  184.7660  178.3390  144.8110 N   0  0  0  0  0  0  0  0  0  0  0  0
  183.2070  177.8260  137.1230 C   0  0  2  0  0  3  0  0  0  0  0  0
  182.8370  178.8280  141.7300 C   0  0  0  0  0  0  0  0  0  0  0  0
  187.0930  177.9740  144.2460 C   0  0  0  0  0  3  0  0  0  0  0  0
  185.5480  178.6040  142.4960 C   0  0  0  0  0  0  0  0  0  0  0  0
  182.9490  176.4230  136.6030 C   0  0  0  0  0  2  0  0  0  0  0  0
  182.7380  175.4640  137.7590 C   0  0  0  0  0  1  0  0  0  0  0  0
  188.0790  178.3070  142.0290 C   0  0  0  0  0  2  0  0  0  0  0  0
  189.2140  177.5190  142.5920 C   0  0  0  0  0  0  0  0  0  0  0  0
  191.3240  176.0440  143.6870 C   0  0  0  0  0  0  0  0  0  0  0  0
  189.1900  176.1210  142.5430 C   0  0  0  0  0  3  0  0  0  0  0  0
  190.2920  178.1780  143.1940 C   0  0  0  0  0  3  0  0  0  0  0  0
  191.3470  177.4410  143.7410 C   0  0  0  0  0  3  0  0  0  0  0  0
  192.3460  175.3300  144.2170 F   0  0  0  0  0  0  0  0  0  0  0  0
  190.2460  175.3840  143.0900 C   0  0  0  0  0  3  0  0  0  0  0  0
  1 17  2  0  0  0  0
  4  8  1  1  0  0  0
  4  6  1  0  0  0  0
  4 11  1  0  0  0  0
  5 10  1  0  0  0  0
  5 16  1  0  0  0  0
  6  2  1  6  0  0  0
  6  5  1  0  0  0  0
  7 16  1  0  0  0  0
  9 18  1  6  0  0  0
  9 14  1  0  0  0  0
 10 18  2  0  0  0  0
 11  7  1  0  0  0  0
 13  9  1  0  0  0  0
 13  3  1  0  0  0  0
 14 12  2  0  0  0  0
 15 19  1  1  0  0  0
 15  8  1  0  0  0  0
 15  2  1  0  0  0  0
 16 13  2  0  0  0  0
 17 12  1  0  0  0  0
 18  1  1  0  0  0  0
 19 20  1  0  0  0  0
 21 22  1  0  0  0  0
 21  1  1  0  0  0  0
 22 25  1  0  0  0  0
 23 26  1  0  0  0  0
 23 27  1  0  0  0  0
 24 22  2  0  0  0  0
 24 28  1  0  0  0  0
 25 26  2  0  0  0  0
 28 23  2  0  0  0  0
M  END
>  <MODEL>
7

>  <REMARK>
 VINA RESULT:      -7.3      3.704      5.650
  Name = 
  3 active torsions:
  status: ('A' for Active; 'I' for Inactive)
    1  A    between atoms: C_1  and  C_2
    2  A    between atoms: C_2  and  C_3
    3  A    between atoms: C_12  and  C_24
                            x       y       z     vdW  Elec       q    Type
                         _______ _______ _______ _____ _____    ______ ____

>  <TORSDO>
F 3

$$$$
=
 OpenBabel10272401583D

 28 32  0  0  1  0  0  0  0  0999 V2000
  184.6670  178.7630  140.9030 C   0  0  0  0  0  0  0  0  0  0  0  0
  189.3660  177.8180  138.8470 S   0  0  0  0  0  0  0  0  0  0  0  0
  183.5700  176.6730  136.4200 C   0  0  0  0  0  1  0  0  0  0  0  0
  188.5840  177.5720  136.3250 C   0  0  1  0  0  3  0  0  0  0  0  0
  186.7990  177.9970  137.9450 N   0  0  0  0  0  0  0  0  0  0  0  0
  188.1800  178.3110  137.5520 C   0  0  1  0  0  3  0  0  0  0  0  0
  186.3890  176.6400  135.8110 C   0  0  0  0  0  2  0  0  0  0  0  0
  189.7870  177.0200  136.3380 C   0  0  0  0  0  2  0  0  0  0  0  0
  184.0430  178.1150  138.5130 C   0  0  1  0  0  3  0  0  0  0  0  0
  186.3610  178.4110  139.2170 N   0  0  0  0  0  0  0  0  0  0  0  0
  187.6050  177.3450  135.2270 C   0  0  0  0  0  2  0  0  0  0  0  0
  182.5490  177.6650  140.3820 C   0  0  0  0  0  3  0  0  0  0  0  0
  184.5580  177.3250  137.3380 C   0  0  0  0  0  0  0  0  0  0  0  0
  182.8620  177.4950  139.1280 N   0  0  0  0  0  0  0  0  0  0  0  0
  190.5660  177.2860  137.5760 C   0  0  2  0  0  3  0  0  0  0  0  0
  185.8680  177.3610  137.0310 C   0  0  0  0  0  0  0  0  0  0  0  0
  183.4400  178.4100  141.2950 C   0  0  0  0  0  3  0  0  0  0  0  0
  185.1050  178.4120  139.5410 C   0  0  0  0  0  0  0  0  0  0  0  0
  191.2830  176.0220  138.0120 C   0  0  0  0  0  2  0  0  0  0  0  0
  192.7840  176.1940  137.8740 C   0  0  0  0  0  1  0  0  0  0  0  0
  185.5730  179.4740  141.8570 C   0  0  0  0  0  2  0  0  0  0  0  0
  185.2760  179.0790  143.2650 C   0  0  0  0  0  0  0  0  0  0  0  0
  184.7420  178.3700  145.9190 C   0  0  0  0  0  0  0  0  0  0  0  0
  184.1060  179.5280  143.8880 C   0  0  0  0  0  3  0  0  0  0  0  0
  186.1800  178.2790  143.9730 C   0  0  0  0  0  3  0  0  0  0  0  0
  185.9140  177.9250  145.2980 C   0  0  0  0  0  3  0  0  0  0  0  0
  184.4850  178.0260  147.2030 F   0  0  0  0  0  0  0  0  0  0  0  0
  183.8400  179.1720  145.2140 C   0  0  0  0  0  3  0  0  0  0  0  0
  1 17  2  0  0  0  0
  1 21  1  0  0  0  0
  3 13  1  0  0  0  0
  4 11  1  1  0  0  0
  4  8  1  0  0  0  0
  4  6  1  0  0  0  0
  5 10  1  0  0  0  0
  6  5  1  0  0  0  0
  6  2  1  1  0  0  0
  7 16  1  0  0  0  0
  8 15  1  0  0  0  0
  9 13  1  6  0  0  0
  9 14  1  0  0  0  0
  9 18  1  0  0  0  0
 10 18  2  0  0  0  0
 11  7  1  0  0  0  0
 12 17  1  0  0  0  0
 14 12  2  0  0  0  0
 15 19  1  1  0  0  0
 15  2  1  0  0  0  0
 16 13  2  0  0  0  0
 16  5  1  0  0  0  0
 18  1  1  0  0  0  0
 20 19  1  0  0  0  0
 21 22  1  0  0  0  0
 22 24  2  0  0  0  0
 22 25  1  0  0  0  0
 23 27  1  0  0  0  0
 24 28  1  0  0  0  0
 25 26  2  0  0  0  0
 26 23  1  0  0  0  0
 28 23  2  0  0  0  0
M  END
>  <MODEL>
8

>  <REMARK>
 VINA RESULT:      -7.3      3.388      8.129
  Name = 
  3 active torsions:
  status: ('A' for Active; 'I' for Inactive)
    1  A    between atoms: C_1  and  C_2
    2  A    between atoms: C_2  and  C_3
    3  A    between atoms: C_12  and  C_24
                            x       y       z     vdW  Elec       q    Type
                         _______ _______ _______ _____ _____    ______ ____

>  <TORSDO>
F 3

$$$$
=
 OpenBabel10272401583D

 28 32  0  0  1  0  0  0  0  0999 V2000
  187.9360  177.8790  144.4840 C   0  0  0  0  0  0  0  0  0  0  0  0
  187.7170  177.4470  139.2910 S   0  0  0  0  0  0  0  0  0  0  0  0
  183.0300  178.6290  143.4660 C   0  0  0  0  0  1  0  0  0  0  0  0
  185.3910  178.6750  138.9510 C   0  0  1  0  0  3  0  0  0  0  0  0
  186.1380  178.4560  141.2720 N   0  0  0  0  0  0  0  0  0  0  0  0
  186.5490  178.7170  139.8850 C   0  0  1  0  0  3  0  0  0  0  0  0
  183.6520  178.4930  140.6530 C   0  0  0  0  0  2  0  0  0  0  0  0
  185.5730  178.0220  137.8140 C   0  0  0  0  0  2  0  0  0  0  0  0
  185.5540  178.6760  144.0190 C   0  0  1  0  0  3  0  0  0  0  0  0
  187.1430  178.2070  142.2260 N   0  0  0  0  0  0  0  0  0  0  0  0
  184.0650  179.2040  139.3730 C   0  0  0  0  0  2  0  0  0  0  0  0
  186.1330  177.5510  146.0980 C   0  0  0  0  0  3  0  0  0  0  0  0
  184.4510  178.5480  143.0000 C   0  0  0  0  0  0  0  0  0  0  0  0
  185.2240  178.0140  145.2870 N   0  0  0  0  0  0  0  0  0  0  0  0
  186.9460  177.4820  137.6350 C   0  0  2  0  0  3  0  0  0  0  0  0
  184.7500  178.5390  141.6880 C   0  0  0  0  0  0  0  0  0  0  0  0
  187.5630  177.5640  145.7270 C   0  0  0  0  0  3  0  0  0  0  0  0
  186.8970  178.2290  143.5000 C   0  0  0  0  0  0  0  0  0  0  0  0
  186.8750  176.0840  137.0480 C   0  0  0  0  0  2  0  0  0  0  0  0
  185.4570  175.7680  136.6110 C   0  0  0  0  0  1  0  0  0  0  0  0
  189.3840  177.8420  144.1130 C   0  0  0  0  0  2  0  0  0  0  0  0
  190.1950  177.2320  145.2070 C   0  0  0  0  0  0  0  0  0  0  0  0
  191.7460  176.1190  147.2530 C   0  0  0  0  0  0  0  0  0  0  0  0
  189.9390  177.5670  146.5420 C   0  0  0  0  0  3  0  0  0  0  0  0
  191.2310  176.3440  144.8980 C   0  0  0  0  0  3  0  0  0  0  0  0
  192.0060  175.7870  145.9190 C   0  0  0  0  0  3  0  0  0  0  0  0
  192.4970  175.5790  148.2420 F   0  0  0  0  0  0  0  0  0  0  0  0
  190.7150  177.0090  147.5630 C   0  0  0  0  0  3  0  0  0  0  0  0
  1 17  2  0  0  0  0
  4  8  1  1  0  0  0
  4 11  1  0  0  0  0
  4  6  1  0  0  0  0
  5 16  1  0  0  0  0
  5 10  1  0  0  0  0
  6  2  1  6  0  0  0
  6  5  1  0  0  0  0
  7 16  1  0  0  0  0
  9 13  1  6  0  0  0
  9 14  1  0  0  0  0
 10 18  2  0  0  0  0
 11  7  1  0  0  0  0
 13  3  1  0  0  0  0
 14 12  2  0  0  0  0
 15 19  1  1  0  0  0
 15  8  1  0  0  0  0
 15  2  1  0  0  0  0
 16 13  2  0  0  0  0
 17 12  1  0  0  0  0
 18  9  1  0  0  0  0
 18  1  1  0  0  0  0
 20 19  1  0  0  0  0
 21  1  1  0  0  0  0
 21 22  1  0  0  0  0
 22 24  1  0  0  0  0
 23 28  1  0  0  0  0
 23 27  1  0  0  0  0
 24 28  2  0  0  0  0
 25 22  2  0  0  0  0
 25 26  1  0  0  0  0
 26 23  2  0  0  0  0
M  END
>  <MODEL>
9

>  <REMARK>
 VINA RESULT:      -7.2      3.547      6.981
  Name = 
  3 active torsions:
  status: ('A' for Active; 'I' for Inactive)
    1  A    between atoms: C_1  and  C_2
    2  A    between atoms: C_2  and  C_3
    3  A    between atoms: C_12  and  C_24
                            x       y       z     vdW  Elec       q    Type
                         _______ _______ _______ _____ _____    ______ ____

>  <TORSDO>
F 3

$$$$
