=
 OpenBabel10272401033D

 27 31  0  0  1  0  0  0  0  0999 V2000
  186.4230  178.0520  142.3370 C   0  0  0  0  0  3  0  0  0  0  0  0
  185.9400  178.2490  144.7650 C   0  0  0  0  0  0  0  0  0  0  0  0
  187.6730  176.5900  144.5030 O   0  0  0  0  0  0  0  0  0  0  0  0
  187.5980  179.1470  148.1590 N   0  0  0  0  0  0  0  0  0  0  0  0
  189.9550  178.4460  148.8620 C   0  0  0  0  0  1  0  0  0  0  0  0
  185.2390  179.2250  145.6550 C   0  0  0  0  0  3  0  0  0  0  0  0
  188.4440  177.2230  147.2870 C   0  0  0  0  0  0  0  0  0  0  0  0
  190.6330  177.0110  142.3540 C   0  0  0  0  0  3  0  0  0  0  0  0
  189.3560  176.0670  147.0460 C   0  0  0  0  0  1  0  0  0  0  0  0
  190.2020  178.0100  141.3180 C   0  0  0  0  0  2  0  0  0  0  0  0
  187.0400  177.3340  146.7920 C   0  0  1  0  0  3  0  0  0  0  0  0
  185.5400  178.2090  143.3320 C   0  0  0  0  0  0  0  0  0  0  0  0
  188.6850  178.2330  148.1120 C   0  0  0  0  0  0  0  0  0  0  0  0
  186.6730  178.6370  147.4160 C   0  0  0  0  0  0  0  0  0  0  0  0
  187.8680  177.7760  142.4200 C   0  0  0  0  0  0  0  0  0  0  0  0
  186.8880  177.4340  145.2920 C   0  0  0  0  0  0  0  0  0  0  0  0
  189.8140  176.5900  143.3180 C   0  0  0  0  0  3  0  0  0  0  0  0
  185.6060  179.4180  146.8870 N   0  0  0  0  0  0  0  0  0  0  0  0
  188.7120  178.1740  141.2680 C   0  0  0  0  0  0  0  0  0  0  0  0
  188.1930  178.7060  140.2510 O   0  0  0  0  0  0  0  0  0  0  0  0
  188.4090  177.0300  143.4020 C   0  0  0  0  0  0  0  0  0  0  0  0
  181.4340  178.8720  142.2340 C   0  0  0  0  0  3  0  0  0  0  0  0
  184.1160  178.4240  142.9570 C   0  0  0  0  0  0  0  0  0  0  0  0
  183.7140  178.3520  141.6120 C   0  0  0  0  0  3  0  0  0  0  0  0
  182.3820  178.5720  141.2530 C   0  0  0  0  0  3  0  0  0  0  0  0
  181.8190  178.9550  143.5740 C   0  0  0  0  0  3  0  0  0  0  0  0
  183.1520  178.7350  143.9330 C   0  0  0  0  0  3  0  0  0  0  0  0
  1 15  1  0  0  0  0
  1 12  2  0  0  0  0
  2 16  2  0  0  0  0
  2  6  1  0  0  0  0
  3 16  1  0  0  0  0
  6 18  2  0  0  0  0
  7 13  2  0  0  0  0
  8 17  2  0  0  0  0
  9  7  1  0  0  0  0
 10  8  1  0  0  0  0
 11 16  1  6  0  0  0
 11  7  1  0  0  0  0
 11 14  1  0  0  0  0
 12  2  1  0  0  0  0
 13  4  1  0  0  0  0
 13  5  1  0  0  0  0
 14  4  2  0  0  0  0
 15 21  2  0  0  0  0
 17 21  1  0  0  0  0
 18 14  1  0  0  0  0
 19 10  1  0  0  0  0
 19 15  1  0  0  0  0
 20 19  2  0  0  0  0
 21  3  1  0  0  0  0
 22 26  1  0  0  0  0
 23 12  1  0  0  0  0
 23 27  1  0  0  0  0
 24 23  2  0  0  0  0
 25 24  1  0  0  0  0
 25 22  2  0  0  0  0
 26 27  2  0  0  0  0
M  END
>  <MODEL>
1

>  <REMARK>
 VINA RESULT:      -9.7      0.000      0.000
  Name = 
  1 active torsions:
  status: ('A' for Active; 'I' for Inactive)
    1  A    between atoms: C_9  and  C_15
                            x       y       z     vdW  Elec       q    Type
                         _______ _______ _______ _____ _____    ______ ____

>  <TORSDO>
F 1

$$$$
=
 OpenBabel10272401033D

 27 31  0  0  1  0  0  0  0  0999 V2000
  189.5170  177.1300  140.4200 C   0  0  0  0  0  3  0  0  0  0  0  0
  187.6300  177.9100  141.8350 C   0  0  0  0  0  0  0  0  0  0  0  0
  187.3330  178.8670  139.6400 O   0  0  0  0  0  0  0  0  0  0  0  0
  183.7580  177.8300  142.0990 N   0  0  0  0  0  0  0  0  0  0  0  0
  182.1550  178.0910  140.1230 C   0  0  0  0  0  1  0  0  0  0  0  0
  187.0210  177.5160  143.1430 C   0  0  0  0  0  3  0  0  0  0  0  0
  184.4580  179.0490  140.3090 C   0  0  0  0  0  0  0  0  0  0  0  0
  187.6760  176.9800  136.4970 C   0  0  0  0  0  3  0  0  0  0  0  0
  184.4440  179.7720  139.0050 C   0  0  0  0  0  1  0  0  0  0  0  0
  188.5840  175.8370  136.8460 C   0  0  0  0  0  2  0  0  0  0  0  0
  185.5350  179.1440  141.3390 C   0  0  1  0  0  3  0  0  0  0  0  0
  189.0580  177.5600  141.6030 C   0  0  0  0  0  0  0  0  0  0  0  0
  183.4470  178.3570  140.8160 C   0  0  0  0  0  0  0  0  0  0  0  0
  184.9340  178.2770  142.3910 C   0  0  0  0  0  0  0  0  0  0  0  0
  188.8030  177.0320  139.1350 C   0  0  0  0  0  0  0  0  0  0  0  0
  186.8760  178.5800  140.9270 C   0  0  0  0  0  0  0  0  0  0  0  0
  187.3220  177.9040  137.3900 C   0  0  0  0  0  3  0  0  0  0  0  0
  185.7530  177.6690  143.3840 N   0  0  0  0  0  0  0  0  0  0  0  0
  189.3120  176.0590  138.1390 C   0  0  0  0  0  0  0  0  0  0  0  0
  190.3330  175.3660  138.3890 O   0  0  0  0  0  0  0  0  0  0  0  0
  187.8420  177.9010  138.7700 C   0  0  0  0  0  0  0  0  0  0  0  0
  191.8130  177.6900  144.9050 C   0  0  0  0  0  3  0  0  0  0  0  0
  190.0230  177.6080  142.7360 C   0  0  0  0  0  0  0  0  0  0  0  0
  190.4890  176.4210  143.3260 C   0  0  0  0  0  3  0  0  0  0  0  0
  191.3800  176.4610  144.4010 C   0  0  0  0  0  3  0  0  0  0  0  0
  191.3520  178.8790  144.3350 C   0  0  0  0  0  3  0  0  0  0  0  0
  190.4600  178.8390  143.2590 C   0  0  0  0  0  3  0  0  0  0  0  0
  1 12  2  0  0  0  0
  2  6  1  0  0  0  0
  3 16  1  0  0  0  0
  4 14  2  0  0  0  0
  5 13  1  0  0  0  0
  6 18  2  0  0  0  0
  7 13  2  0  0  0  0
  8 10  1  0  0  0  0
  8 17  2  0  0  0  0
  9  7  1  0  0  0  0
 10 19  1  0  0  0  0
 11  7  1  6  0  0  0
 11 14  1  0  0  0  0
 12  2  1  0  0  0  0
 12 23  1  0  0  0  0
 13  4  1  0  0  0  0
 14 18  1  0  0  0  0
 15  1  1  0  0  0  0
 16 11  1  0  0  0  0
 16  2  2  0  0  0  0
 17 21  1  0  0  0  0
 19 20  2  0  0  0  0
 19 15  1  0  0  0  0
 21 15  2  0  0  0  0
 21  3  1  0  0  0  0
 23 27  2  0  0  0  0
 23 24  1  0  0  0  0
 24 25  2  0  0  0  0
 25 22  1  0  0  0  0
 26 22  2  0  0  0  0
 27 26  1  0  0  0  0
M  END
>  <MODEL>
2

>  <REMARK>
 VINA RESULT:      -9.2      2.917      6.807
  Name = 
  1 active torsions:
  status: ('A' for Active; 'I' for Inactive)
    1  A    between atoms: C_9  and  C_15
                            x       y       z     vdW  Elec       q    Type
                         _______ _______ _______ _____ _____    ______ ____

>  <TORSDO>
F 1

$$$$
=
 OpenBabel10272401033D

 27 31  0  0  1  0  0  0  0  0999 V2000
  188.8770  177.3260  140.1490 C   0  0  0  0  0  3  0  0  0  0  0  0
  191.2440  176.7190  139.7060 C   0  0  0  0  0  0  0  0  0  0  0  0
  189.8720  175.4410  138.1870 O   0  0  0  0  0  0  0  0  0  0  0  0
  193.9460  176.7440  136.9190 N   0  0  0  0  0  0  0  0  0  0  0  0
  193.5190  176.1550  134.4670 C   0  0  0  0  0  1  0  0  0  0  0  0
  192.5870  177.2870  140.0330 C   0  0  0  0  0  3  0  0  0  0  0  0
  192.2590  175.2910  136.4480 C   0  0  0  0  0  0  0  0  0  0  0  0
  187.0930  176.8490  136.2250 C   0  0  0  0  0  3  0  0  0  0  0  0
  191.3540  174.3830  135.6860 C   0  0  0  0  0  1  0  0  0  0  0  0
  186.6560  178.0540  137.0080 C   0  0  0  0  0  2  0  0  0  0  0  0
  192.3470  175.3750  137.9360 C   0  0  1  0  0  3  0  0  0  0  0  0
  190.1090  177.0650  140.6050 C   0  0  0  0  0  0  0  0  0  0  0  0
  193.2310  176.0260  135.9230 C   0  0  0  0  0  0  0  0  0  0  0  0
  193.4470  176.3730  138.0520 C   0  0  0  0  0  0  0  0  0  0  0  0
  188.3590  177.2160  138.7740 C   0  0  0  0  0  0  0  0  0  0  0  0
  191.1120  175.9040  138.6290 C   0  0  0  0  0  0  0  0  0  0  0  0
  188.0870  176.0600  136.6320 C   0  0  0  0  0  3  0  0  0  0  0  0
  193.6070  177.1420  139.2400 N   0  0  0  0  0  0  0  0  0  0  0  0
  187.1830  178.0430  138.4140 C   0  0  0  0  0  0  0  0  0  0  0  0
  186.6420  178.7900  139.2710 O   0  0  0  0  0  0  0  0  0  0  0  0
  188.7920  176.2790  137.9090 C   0  0  0  0  0  0  0  0  0  0  0  0
  190.8240  177.5020  144.8240 C   0  0  0  0  0  3  0  0  0  0  0  0
  190.3430  177.2090  142.0670 C   0  0  0  0  0  0  0  0  0  0  0  0
  190.0760  178.4270  142.7160 C   0  0  0  0  0  3  0  0  0  0  0  0
  190.3120  178.5720  144.0860 C   0  0  0  0  0  3  0  0  0  0  0  0
  191.1020  176.2880  144.1920 C   0  0  0  0  0  3  0  0  0  0  0  0
  190.8660  176.1430  142.8230 C   0  0  0  0  0  3  0  0  0  0  0  0
  1 12  2  0  0  0  0
  2  6  1  0  0  0  0
  2 12  1  0  0  0  0
  3 16  1  0  0  0  0
  4 14  2  0  0  0  0
  5 13  1  0  0  0  0
  8 17  2  0  0  0  0
  8 10  1  0  0  0  0
  9  7  1  0  0  0  0
 10 19  1  0  0  0  0
 11  7  1  6  0  0  0
 11 14  1  0  0  0  0
 11 16  1  0  0  0  0
 12 23  1  0  0  0  0
 13  7  2  0  0  0  0
 13  4  1  0  0  0  0
 14 18  1  0  0  0  0
 15  1  1  0  0  0  0
 16  2  2  0  0  0  0
 17 21  1  0  0  0  0
 18  6  2  0  0  0  0
 19 15  1  0  0  0  0
 19 20  2  0  0  0  0
 21  3  1  0  0  0  0
 21 15  2  0  0  0  0
 23 24  2  0  0  0  0
 23 27  1  0  0  0  0
 24 25  1  0  0  0  0
 25 22  2  0  0  0  0
 26 22  1  0  0  0  0
 27 26  2  0  0  0  0
M  END
>  <MODEL>
3

>  <REMARK>
 VINA RESULT:      -9.0      5.192      8.854
  Name = 
  1 active torsions:
  status: ('A' for Active; 'I' for Inactive)
    1  A    between atoms: C_9  and  C_15
                            x       y       z     vdW  Elec       q    Type
                         _______ _______ _______ _____ _____    ______ ____

>  <TORSDO>
F 1

$$$$
=
 OpenBabel10272401033D

 27 31  0  0  1  0  0  0  0  0999 V2000
  184.9130  178.3330  142.7760 C   0  0  0  0  0  3  0  0  0  0  0  0
  184.1710  178.0700  140.4200 C   0  0  0  0  0  0  0  0  0  0  0  0
  186.3950  179.0080  140.3790 O   0  0  0  0  0  0  0  0  0  0  0  0
  185.0860  176.2830  137.0980 N   0  0  0  0  0  0  0  0  0  0  0  0
  187.4640  176.0070  136.1970 C   0  0  0  0  0  1  0  0  0  0  0  0
  183.0920  177.3270  139.7010 C   0  0  0  0  0  3  0  0  0  0  0  0
  186.6340  177.8510  137.6680 C   0  0  0  0  0  0  0  0  0  0  0  0
  189.1990  177.7730  142.4200 C   0  0  0  0  0  3  0  0  0  0  0  0
  187.9130  178.6170  137.7120 C   0  0  0  0  0  1  0  0  0  0  0  0
  188.5410  177.1130  143.5970 C   0  0  0  0  0  2  0  0  0  0  0  0
  185.3320  178.3080  138.2400 C   0  0  1  0  0  3  0  0  0  0  0  0
  183.9450  178.4030  141.8530 C   0  0  0  0  0  0  0  0  0  0  0  0
  186.4250  176.7420  136.9720 C   0  0  0  0  0  0  0  0  0  0  0  0
  184.4730  177.1680  137.8110 C   0  0  0  0  0  0  0  0  0  0  0  0
  186.3480  178.0580  142.5880 C   0  0  0  0  0  0  0  0  0  0  0  0
  185.2930  178.4280  139.7470 C   0  0  0  0  0  0  0  0  0  0  0  0
  188.4970  178.3590  141.4500 C   0  0  0  0  0  3  0  0  0  0  0  0
  183.2520  176.8860  138.4880 N   0  0  0  0  0  0  0  0  0  0  0  0
  187.0990  177.5050  143.7400 C   0  0  0  0  0  0  0  0  0  0  0  0
  186.5220  177.3070  144.8420 O   0  0  0  0  0  0  0  0  0  0  0  0
  187.0250  178.4510  141.4920 C   0  0  0  0  0  0  0  0  0  0  0  0
  179.9820  179.3860  143.2090 C   0  0  0  0  0  3  0  0  0  0  0  0
  182.5770  178.7590  142.3210 C   0  0  0  0  0  0  0  0  0  0  0  0
  182.2510  178.6920  143.6860 C   0  0  0  0  0  3  0  0  0  0  0  0
  180.9630  179.0060  144.1290 C   0  0  0  0  0  3  0  0  0  0  0  0
  180.2890  179.4490  141.8480 C   0  0  0  0  0  3  0  0  0  0  0  0
  181.5760  179.1350  141.4060 C   0  0  0  0  0  3  0  0  0  0  0  0
  2 12  1  0  0  0  0
  3 21  1  0  0  0  0
  4 14  2  0  0  0  0
  5 13  1  0  0  0  0
  6  2  1  0  0  0  0
  7  9  1  0  0  0  0
  8 10  1  0  0  0  0
 10 19  1  0  0  0  0
 11  7  1  1  0  0  0
 11 16  1  0  0  0  0
 12 23  1  0  0  0  0
 12  1  2  0  0  0  0
 13  4  1  0  0  0  0
 13  7  2  0  0  0  0
 14 11  1  0  0  0  0
 14 18  1  0  0  0  0
 15  1  1  0  0  0  0
 15 19  1  0  0  0  0
 16  3  1  0  0  0  0
 16  2  2  0  0  0  0
 17 21  1  0  0  0  0
 17  8  2  0  0  0  0
 18  6  2  0  0  0  0
 19 20  2  0  0  0  0
 21 15  2  0  0  0  0
 22 25  1  0  0  0  0
 23 24  1  0  0  0  0
 24 25  2  0  0  0  0
 26 22  2  0  0  0  0
 27 26  1  0  0  0  0
 27 23  2  0  0  0  0
M  END
>  <MODEL>
4

>  <REMARK>
 VINA RESULT:      -8.5      3.545      6.457
  Name = 
  1 active torsions:
  status: ('A' for Active; 'I' for Inactive)
    1  A    between atoms: C_9  and  C_15
                            x       y       z     vdW  Elec       q    Type
                         _______ _______ _______ _____ _____    ______ ____

>  <TORSDO>
F 1

$$$$
=
 OpenBabel10272401033D

 27 31  0  0  1  0  0  0  0  0999 V2000
  184.8270  178.8580  141.2640 C   0  0  0  0  0  3  0  0  0  0  0  0
  185.1880  178.1400  138.9140 C   0  0  0  0  0  0  0  0  0  0  0  0
  187.3320  178.7880  139.8110 O   0  0  0  0  0  0  0  0  0  0  0  0
  187.1050  175.5400  136.7620 N   0  0  0  0  0  0  0  0  0  0  0  0
  189.5170  174.7970  137.1750 C   0  0  0  0  0  1  0  0  0  0  0  0
  184.4200  177.3750  137.8840 C   0  0  0  0  0  3  0  0  0  0  0  0
  188.5190  177.0140  137.7640 C   0  0  0  0  0  0  0  0  0  0  0  0
  188.5910  177.7550  143.1130 C   0  0  0  0  0  3  0  0  0  0  0  0
  189.7690  177.6210  138.3040 C   0  0  0  0  0  1  0  0  0  0  0  0
  187.3520  177.4640  143.9100 C   0  0  0  0  0  2  0  0  0  0  0  0
  187.2270  177.7330  137.5590 C   0  0  1  0  0  3  0  0  0  0  0  0
  184.4160  178.8200  139.9890 C   0  0  0  0  0  0  0  0  0  0  0  0
  188.4200  175.8040  137.2310 C   0  0  0  0  0  0  0  0  0  0  0  0
  186.4360  176.6290  136.9460 C   0  0  0  0  0  0  0  0  0  0  0  0
  186.1000  178.3880  141.8370 C   0  0  0  0  0  0  0  0  0  0  0  0
  186.5400  178.2040  138.8210 C   0  0  0  0  0  0  0  0  0  0  0  0
  188.5400  178.1740  141.8490 C   0  0  0  0  0  3  0  0  0  0  0  0
  185.0130  176.6500  136.9830 N   0  0  0  0  0  0  0  0  0  0  0  0
  186.1180  178.0370  143.2770 C   0  0  0  0  0  0  0  0  0  0  0  0
  185.0790  178.1660  143.9780 O   0  0  0  0  0  0  0  0  0  0  0  0
  187.2630  178.4370  141.1600 C   0  0  0  0  0  0  0  0  0  0  0  0
  180.5990  180.6030  139.1160 C   0  0  0  0  0  3  0  0  0  0  0  0
  183.0920  179.4240  139.6780 C   0  0  0  0  0  0  0  0  0  0  0  0
  182.9880  180.4740  138.7500 C   0  0  0  0  0  3  0  0  0  0  0  0
  181.7500  181.0580  138.4680 C   0  0  0  0  0  3  0  0  0  0  0  0
  180.6870  179.5660  140.0480 C   0  0  0  0  0  3  0  0  0  0  0  0
  181.9250  178.9820  140.3290 C   0  0  0  0  0  3  0  0  0  0  0  0
  1 15  1  0  0  0  0
  2 12  1  0  0  0  0
  3 21  1  0  0  0  0
  4 14  2  0  0  0  0
  4 13  1  0  0  0  0
  5 13  1  0  0  0  0
  6  2  1  0  0  0  0
  7  9  1  0  0  0  0
  8 10  1  0  0  0  0
 11 14  1  1  0  0  0
 11  7  1  0  0  0  0
 11 16  1  0  0  0  0
 12  1  2  0  0  0  0
 13  7  2  0  0  0  0
 14 18  1  0  0  0  0
 15 19  1  0  0  0  0
 16  2  2  0  0  0  0
 16  3  1  0  0  0  0
 17  8  2  0  0  0  0
 18  6  2  0  0  0  0
 19 10  1  0  0  0  0
 19 20  2  0  0  0  0
 21 15  2  0  0  0  0
 21 17  1  0  0  0  0
 22 26  1  0  0  0  0
 23 12  1  0  0  0  0
 23 27  1  0  0  0  0
 24 23  2  0  0  0  0
 25 24  1  0  0  0  0
 25 22  2  0  0  0  0
 26 27  2  0  0  0  0
M  END
>  <MODEL>
5

>  <REMARK>
 VINA RESULT:      -8.4      4.058      6.762
  Name = 
  1 active torsions:
  status: ('A' for Active; 'I' for Inactive)
    1  A    between atoms: C_9  and  C_15
                            x       y       z     vdW  Elec       q    Type
                         _______ _______ _______ _____ _____    ______ ____

>  <TORSDO>
F 1

$$$$
=
 OpenBabel10272401033D

 27 31  0  0  1  0  0  0  0  0999 V2000
  189.6810  177.5760  141.0060 C   0  0  0  0  0  3  0  0  0  0  0  0
  187.3030  178.1250  141.4700 C   0  0  0  0  0  0  0  0  0  0  0  0
  188.0490  176.6150  143.1990 O   0  0  0  0  0  0  0  0  0  0  0  0
  184.9900  179.7210  144.1470 N   0  0  0  0  0  0  0  0  0  0  0  0
  185.2200  179.3690  146.6710 C   0  0  0  0  0  1  0  0  0  0  0  0
  186.3240  179.1630  141.0250 C   0  0  0  0  0  3  0  0  0  0  0  0
  185.9030  177.7670  144.8750 C   0  0  0  0  0  0  0  0  0  0  0  0
  191.2400  176.9520  145.0040 C   0  0  0  0  0  3  0  0  0  0  0  0
  186.3570  176.6790  145.7870 C   0  0  0  0  0  1  0  0  0  0  0  0
  192.1220  177.7210  144.0630 C   0  0  0  0  0  2  0  0  0  0  0  0
  185.8000  177.6630  143.3890 C   0  0  1  0  0  3  0  0  0  0  0  0
  188.4390  177.8110  140.5610 C   0  0  0  0  0  0  0  0  0  0  0  0
  185.3650  178.9180  145.2580 C   0  0  0  0  0  0  0  0  0  0  0  0
  185.2350  179.0110  143.0970 C   0  0  0  0  0  0  0  0  0  0  0  0
  190.1550  177.4540  142.3960 C   0  0  0  0  0  0  0  0  0  0  0  0
  187.1130  177.4990  142.6590 C   0  0  0  0  0  0  0  0  0  0  0  0
  189.9870  176.6200  144.6930 C   0  0  0  0  0  3  0  0  0  0  0  0
  185.3750  179.5900  141.8030 N   0  0  0  0  0  0  0  0  0  0  0  0
  191.5860  177.7340  142.6610 C   0  0  0  0  0  0  0  0  0  0  0  0
  192.3620  178.0400  141.7170 O   0  0  0  0  0  0  0  0  0  0  0  0
  189.3960  176.9340  143.3780 C   0  0  0  0  0  0  0  0  0  0  0  0
  187.8120  177.8920  136.3060 C   0  0  0  0  0  3  0  0  0  0  0  0
  188.2320  177.8260  139.0870 C   0  0  0  0  0  0  0  0  0  0  0  0
  188.9130  178.7540  138.2810 C   0  0  0  0  0  3  0  0  0  0  0  0
  188.7070  178.7860  136.8990 C   0  0  0  0  0  3  0  0  0  0  0  0
  187.1210  176.9690  137.0940 C   0  0  0  0  0  3  0  0  0  0  0  0
  187.3270  176.9380  138.4760 C   0  0  0  0  0  3  0  0  0  0  0  0
  1 15  1  0  0  0  0
  2 16  2  0  0  0  0
  3 21  1  0  0  0  0
  4 13  1  0  0  0  0
  6  2  1  0  0  0  0
  6 18  2  0  0  0  0
  7 13  2  0  0  0  0
  7  9  1  0  0  0  0
 10  8  1  0  0  0  0
 11 16  1  6  0  0  0
 11  7  1  0  0  0  0
 12  1  2  0  0  0  0
 12  2  1  0  0  0  0
 13  5  1  0  0  0  0
 14 11  1  0  0  0  0
 14  4  2  0  0  0  0
 15 19  1  0  0  0  0
 15 21  2  0  0  0  0
 16  3  1  0  0  0  0
 17  8  2  0  0  0  0
 18 14  1  0  0  0  0
 19 10  1  0  0  0  0
 20 19  2  0  0  0  0
 21 17  1  0  0  0  0
 22 25  2  0  0  0  0
 22 26  1  0  0  0  0
 23 12  1  0  0  0  0
 24 23  2  0  0  0  0
 25 24  1  0  0  0  0
 26 27  2  0  0  0  0
 27 23  1  0  0  0  0
M  END
>  <MODEL>
6

>  <REMARK>
 VINA RESULT:      -8.0      2.529      4.775
  Name = 
  1 active torsions:
  status: ('A' for Active; 'I' for Inactive)
    1  A    between atoms: C_9  and  C_15
                            x       y       z     vdW  Elec       q    Type
                         _______ _______ _______ _____ _____    ______ ____

>  <TORSDO>
F 1

$$$$
=
 OpenBabel10272401033D

 27 31  0  0  1  0  0  0  0  0999 V2000
  187.0420  177.9530  142.4960 C   0  0  0  0  0  3  0  0  0  0  0  0
  185.2810  178.0730  140.7490 C   0  0  0  0  0  0  0  0  0  0  0  0
  187.3220  178.9200  139.7800 O   0  0  0  0  0  0  0  0  0  0  0  0
  184.3830  176.7670  137.2050 N   0  0  0  0  0  0  0  0  0  0  0  0
  186.0410  176.5370  135.2720 C   0  0  0  0  0  1  0  0  0  0  0  0
  183.9220  177.4870  140.5380 C   0  0  0  0  0  3  0  0  0  0  0  0
  186.1720  178.1720  137.1600 C   0  0  0  0  0  0  0  0  0  0  0  0
  190.6050  177.2890  140.1160 C   0  0  0  0  0  3  0  0  0  0  0  0
  187.4010  178.8730  136.6880 C   0  0  0  0  0  1  0  0  0  0  0  0
  190.4950  176.4870  141.3810 C   0  0  0  0  0  2  0  0  0  0  0  0
  185.3320  178.5880  138.3220 C   0  0  1  0  0  3  0  0  0  0  0  0
  185.7710  178.1970  142.1490 C   0  0  0  0  0  0  0  0  0  0  0  0
  185.5550  177.1880  136.5210 C   0  0  0  0  0  0  0  0  0  0  0  0
  184.2600  177.5590  138.2180 C   0  0  0  0  0  0  0  0  0  0  0  0
  188.1940  177.6550  141.6290 C   0  0  0  0  0  0  0  0  0  0  0  0
  186.0000  178.4840  139.6750 C   0  0  0  0  0  0  0  0  0  0  0  0
  189.6020  178.0390  139.6610 C   0  0  0  0  0  3  0  0  0  0  0  0
  183.4620  177.2260  139.3500 N   0  0  0  0  0  0  0  0  0  0  0  0
  189.3280  176.9080  142.2250 C   0  0  0  0  0  0  0  0  0  0  0  0
  189.3010  176.5700  143.4380 O   0  0  0  0  0  0  0  0  0  0  0  0
  188.3310  178.1800  140.3970 C   0  0  0  0  0  0  0  0  0  0  0  0
  183.0020  179.1180  145.3100 C   0  0  0  0  0  3  0  0  0  0  0  0
  184.8150  178.5310  143.2390 C   0  0  0  0  0  0  0  0  0  0  0  0
  185.2320  178.5240  144.5810 C   0  0  0  0  0  3  0  0  0  0  0  0
  184.3330  178.8180  145.6100 C   0  0  0  0  0  3  0  0  0  0  0  0
  182.5700  179.1200  143.9820 C   0  0  0  0  0  3  0  0  0  0  0  0
  183.4690  178.8260  142.9530 C   0  0  0  0  0  3  0  0  0  0  0  0
  2 12  1  0  0  0  0
  3 21  1  0  0  0  0
  4 14  2  0  0  0  0
  5 13  1  0  0  0  0
  6  2  1  0  0  0  0
  8 10  1  0  0  0  0
  9  7  1  0  0  0  0
 10 19  1  0  0  0  0
 11  7  1  6  0  0  0
 11 16  1  0  0  0  0
 12  1  2  0  0  0  0
 12 23  1  0  0  0  0
 13  7  2  0  0  0  0
 13  4  1  0  0  0  0
 14 11  1  0  0  0  0
 14 18  1  0  0  0  0
 15 19  1  0  0  0  0
 15  1  1  0  0  0  0
 16  3  1  0  0  0  0
 16  2  2  0  0  0  0
 17  8  2  0  0  0  0
 17 21  1  0  0  0  0
 18  6  2  0  0  0  0
 19 20  2  0  0  0  0
 21 15  2  0  0  0  0
 22 25  1  0  0  0  0
 23 24  1  0  0  0  0
 24 25  2  0  0  0  0
 26 22  2  0  0  0  0
 27 23  2  0  0  0  0
 27 26  1  0  0  0  0
M  END
>  <MODEL>
7

>  <REMARK>
 VINA RESULT:      -7.9      3.604      6.551
  Name = 
  1 active torsions:
  status: ('A' for Active; 'I' for Inactive)
    1  A    between atoms: C_9  and  C_15
                            x       y       z     vdW  Elec       q    Type
                         _______ _______ _______ _____ _____    ______ ____

>  <TORSDO>
F 1

$$$$
=
 OpenBabel10272401033D

 27 31  0  0  1  0  0  0  0  0999 V2000
  188.4140  177.7040  142.8810 C   0  0  0  0  0  3  0  0  0  0  0  0
  186.0140  178.1900  142.4670 C   0  0  0  0  0  0  0  0  0  0  0  0
  187.2740  179.1570  140.6490 O   0  0  0  0  0  0  0  0  0  0  0  0
  183.1630  177.5950  139.9000 N   0  0  0  0  0  0  0  0  0  0  0  0
  183.4420  177.6940  137.3600 C   0  0  0  0  0  1  0  0  0  0  0  0
  184.7020  177.6860  142.9760 C   0  0  0  0  0  3  0  0  0  0  0  0
  184.7920  178.9420  139.0570 C   0  0  0  0  0  0  0  0  0  0  0  0
  189.9680  177.4160  138.8430 C   0  0  0  0  0  3  0  0  0  0  0  0
  185.6350  179.6900  138.0810 C   0  0  0  0  0  1  0  0  0  0  0  0
  190.4720  176.3930  139.8200 C   0  0  0  0  0  2  0  0  0  0  0  0
  184.7880  179.1510  140.5350 C   0  0  1  0  0  3  0  0  0  0  0  0
  187.2040  178.0380  143.3480 C   0  0  0  0  0  0  0  0  0  0  0  0
  183.8080  178.1090  138.7430 C   0  0  0  0  0  0  0  0  0  0  0  0
  183.7160  178.1850  140.9070 C   0  0  0  0  0  0  0  0  0  0  0  0
  188.8520  177.5470  141.4840 C   0  0  0  0  0  0  0  0  0  0  0  0
  186.0690  178.7790  141.2450 C   0  0  0  0  0  0  0  0  0  0  0  0
  188.9830  178.2620  139.1440 C   0  0  0  0  0  3  0  0  0  0  0  0
  183.6380  177.6630  142.2300 N   0  0  0  0  0  0  0  0  0  0  0  0
  190.0230  176.6750  141.2240 C   0  0  0  0  0  0  0  0  0  0  0  0
  190.6260  176.1160  142.1790 O   0  0  0  0  0  0  0  0  0  0  0  0
  188.3540  178.2910  140.4780 C   0  0  0  0  0  0  0  0  0  0  0  0
  186.7570  178.4140  147.6100 C   0  0  0  0  0  3  0  0  0  0  0  0
  187.0540  178.1830  144.8220 C   0  0  0  0  0  0  0  0  0  0  0  0
  188.0270  177.6630  145.6920 C   0  0  0  0  0  3  0  0  0  0  0  0
  187.8810  177.7790  147.0770 C   0  0  0  0  0  3  0  0  0  0  0  0
  185.7770  178.9280  146.7590 C   0  0  0  0  0  3  0  0  0  0  0  0
  185.9220  178.8120  145.3740 C   0  0  0  0  0  3  0  0  0  0  0  0
  1 12  2  0  0  0  0
  2  6  1  0  0  0  0
  2 12  1  0  0  0  0
  3 16  1  0  0  0  0
  4 14  2  0  0  0  0
  5 13  1  0  0  0  0
  8 17  2  0  0  0  0
  8 10  1  0  0  0  0
  9  7  1  0  0  0  0
 10 19  1  0  0  0  0
 11  7  1  6  0  0  0
 11 14  1  0  0  0  0
 11 16  1  0  0  0  0
 12 23  1  0  0  0  0
 13  7  2  0  0  0  0
 13  4  1  0  0  0  0
 14 18  1  0  0  0  0
 15  1  1  0  0  0  0
 16  2  2  0  0  0  0
 17 21  1  0  0  0  0
 18  6  2  0  0  0  0
 19 15  1  0  0  0  0
 19 20  2  0  0  0  0
 21  3  1  0  0  0  0
 21 15  2  0  0  0  0
 23 27  2  0  0  0  0
 23 24  1  0  0  0  0
 24 25  2  0  0  0  0
 25 22  1  0  0  0  0
 26 22  2  0  0  0  0
 27 26  1  0  0  0  0
M  END
>  <MODEL>
8

>  <REMARK>
 VINA RESULT:      -7.5      2.625      6.193
  Name = 
  1 active torsions:
  status: ('A' for Active; 'I' for Inactive)
    1  A    between atoms: C_9  and  C_15
                            x       y       z     vdW  Elec       q    Type
                         _______ _______ _______ _____ _____    ______ ____

>  <TORSDO>
F 1

$$$$
=
 OpenBabel10272401033D

 27 31  0  0  1  0  0  0  0  0999 V2000
  188.5930  176.5510  137.1150 C   0  0  0  0  0  3  0  0  0  0  0  0
  189.3700  177.0670  139.4170 C   0  0  0  0  0  0  0  0  0  0  0  0
  187.4330  178.4390  138.9800 O   0  0  0  0  0  0  0  0  0  0  0  0
  188.2290  176.9960  143.1260 N   0  0  0  0  0  0  0  0  0  0  0  0
  185.9010  177.6620  143.9500 C   0  0  0  0  0  1  0  0  0  0  0  0
  190.2790  176.4340  140.4210 C   0  0  0  0  0  3  0  0  0  0  0  0
  187.0650  178.5300  141.9130 C   0  0  0  0  0  0  0  0  0  0  0  0
  184.3190  177.1990  137.4580 C   0  0  0  0  0  3  0  0  0  0  0  0
  186.0010  179.4950  141.5110 C   0  0  0  0  0  1  0  0  0  0  0  0
  184.7440  175.9960  136.6670 C   0  0  0  0  0  2  0  0  0  0  0  0
  188.4070  178.4060  141.2700 C   0  0  1  0  0  3  0  0  0  0  0  0
  189.5960  176.7480  137.9800 C   0  0  0  0  0  0  0  0  0  0  0  0
  187.0430  177.7680  142.9980 C   0  0  0  0  0  0  0  0  0  0  0  0
  188.9960  177.3590  142.1530 C   0  0  0  0  0  0  0  0  0  0  0  0
  187.1450  176.7170  137.3270 C   0  0  0  0  0  0  0  0  0  0  0  0
  188.3980  177.9130  139.8410 C   0  0  0  0  0  0  0  0  0  0  0  0
  185.1860  177.9360  138.1520 C   0  0  0  0  0  3  0  0  0  0  0  0
  190.0810  176.5560  141.7000 N   0  0  0  0  0  0  0  0  0  0  0  0
  186.2280  175.9500  136.4500 C   0  0  0  0  0  0  0  0  0  0  0  0
  186.6880  175.2050  135.5440 O   0  0  0  0  0  0  0  0  0  0  0  0
  186.6340  177.6550  138.1470 C   0  0  0  0  0  0  0  0  0  0  0  0
  193.6020  176.1560  136.5280 C   0  0  0  0  0  3  0  0  0  0  0  0
  190.9830  176.5580  137.4760 C   0  0  0  0  0  0  0  0  0  0  0  0
  191.2100  176.1270  136.1580 C   0  0  0  0  0  3  0  0  0  0  0  0
  192.5110  175.9290  135.6860 C   0  0  0  0  0  3  0  0  0  0  0  0
  193.3920  176.5780  137.8430 C   0  0  0  0  0  3  0  0  0  0  0  0
  192.0920  176.7750  138.3150 C   0  0  0  0  0  3  0  0  0  0  0  0
  1 15  1  0  0  0  0
  1 12  2  0  0  0  0
  2 16  2  0  0  0  0
  2  6  1  0  0  0  0
  3 16  1  0  0  0  0
  6 18  2  0  0  0  0
  7 13  2  0  0  0  0
  8 17  2  0  0  0  0
  9  7  1  0  0  0  0
 10  8  1  0  0  0  0
 11 16  1  6  0  0  0
 11  7  1  0  0  0  0
 11 14  1  0  0  0  0
 12  2  1  0  0  0  0
 13  4  1  0  0  0  0
 13  5  1  0  0  0  0
 14  4  2  0  0  0  0
 15 21  2  0  0  0  0
 18 14  1  0  0  0  0
 19 10  1  0  0  0  0
 19 15  1  0  0  0  0
 20 19  2  0  0  0  0
 21 17  1  0  0  0  0
 21  3  1  0  0  0  0
 22 26  1  0  0  0  0
 23 12  1  0  0  0  0
 23 27  1  0  0  0  0
 24 23  2  0  0  0  0
 25 24  1  0  0  0  0
 25 22  2  0  0  0  0
 26 27  2  0  0  0  0
M  END
>  <MODEL>
9

>  <REMARK>
 VINA RESULT:      -7.4      4.175      7.810
  Name = 
  1 active torsions:
  status: ('A' for Active; 'I' for Inactive)
    1  A    between atoms: C_9  and  C_15
                            x       y       z     vdW  Elec       q    Type
                         _______ _______ _______ _____ _____    ______ ____

>  <TORSDO>
F 1

$$$$
