=
 OpenBabel10272414593D

 37 42  0  0  1  0  0  0  0  0999 V2000
  182.1940  179.6650  137.3750 O   0  0  0  0  0  0  0  0  0  0  0  0
  185.6570  177.9200  139.3560 C   0  0  1  0  0  3  0  0  0  0  0  0
  180.9400  179.3640  136.8090 C   0  0  1  0  0  3  0  0  0  0  0  0
  182.5030  177.9870  141.5110 C   0  0  0  0  0  2  0  0  0  0  0  0
  184.3230  178.4960  139.7920 C   0  0  2  0  0  3  0  0  0  0  0  0
  185.5440  177.6810  137.8470 C   0  0  1  0  0  3  0  0  0  0  0  0
  184.0100  178.0580  141.2260 C   0  0  1  0  0  3  0  0  0  0  0  0
  180.0080  179.0380  137.8150 O   0  0  0  0  0  0  0  0  0  0  0  0
  184.0550  177.5540  137.5560 C   0  0  2  0  0  3  0  0  0  0  0  0
  186.9740  178.5800  141.0540 C   0  0  0  0  0  2  0  0  0  0  0  0
  180.7830  178.5860  138.8820 C   0  0  2  0  0  0  0  0  0  0  0  0
  181.7600  179.2920  141.2100 C   0  0  0  0  0  2  0  0  0  0  0  0
  186.7090  178.7870  139.6940 O   0  0  0  0  0  0  0  0  0  0  0  0
  183.3050  177.9360  138.8260 C   0  0  2  0  0  3  0  0  0  0  0  0
  184.7700  178.8480  142.3220 C   0  0  2  0  0  3  0  0  0  0  0  0
  181.4520  179.6760  139.7370 C   0  0  1  0  0  3  0  0  0  0  0  0
  182.2000  178.9750  138.5870 C   0  0  1  0  0  0  0  0  0  0  0  0
  186.0930  179.5050  141.8920 C   0  0  0  0  0  2  0  0  0  0  0  0
  186.9780  176.6520  143.8350 N   0  0  0  0  0  1  0  0  0  0  0  0
  184.9820  178.0430  143.6130 C   0  0  2  0  0  3  0  0  0  0  0  0
  184.1850  178.5920  144.8020 C   0  0  0  0  0  2  0  0  0  0  0  0
  184.9610  179.0710  147.0300 O   0  0  0  0  0  0  0  0  0  0  0  0
  186.5090  178.3410  145.4330 N   0  0  0  0  0  2  0  0  0  0  0  0
  185.2100  178.6950  145.8560 C   0  0  0  0  0  0  0  0  0  0  0  0
  186.4610  177.9950  144.0250 C   0  0  1  0  0  3  0  0  0  0  0  0
  180.5360  177.1620  139.3800 C   0  0  0  0  0  2  0  0  0  0  0  0
  180.0040  176.3010  138.2510 C   0  0  0  0  0  1  0  0  0  0  0  0
  180.8840  180.4880  134.7060 O   0  0  0  0  0  1  0  0  0  0  0  0
  180.4310  180.5570  136.0230 C   0  0  0  0  0  2  0  0  0  0  0  0
  183.6950  176.1630  137.1290 C   0  0  0  0  0  0  0  0  0  0  0  0
  183.0570  175.9910  135.9710 C   0  0  0  0  0  2  0  0  0  0  0  0
  183.8170  175.0100  138.0840 C   0  0  0  0  0  2  0  0  0  0  0  0
  184.0380  173.6980  137.3490 C   0  0  0  0  0  2  0  0  0  0  0  0
  184.9920  172.9290  138.0160 O   0  0  0  0  0  1  0  0  0  0  0  0
  186.1010  178.8240  137.0050 C   0  0  0  0  0  2  0  0  0  0  0  0
  187.2150  178.3200  136.1080 C   0  0  0  0  0  2  0  0  0  0  0  0
  186.6220  177.7780  134.8260 C   0  0  0  0  0  1  0  0  0  0  0  0
  1 17  1  0  0  0  0
  2 13  1  6  0  0  0
  2  5  1  0  0  0  0
  3 29  1  1  0  0  0
  3  1  1  0  0  0  0
  3  8  1  0  0  0  0
  5  7  1  0  0  0  0
  6  2  1  0  0  0  0
  7  4  1  0  0  0  0
  7 15  1  0  0  0  0
  8 11  1  0  0  0  0
  9  6  1  0  0  0  0
  9 14  1  0  0  0  0
 10 18  1  0  0  0  0
 11 26  1  0  0  0  0
 11 16  1  0  0  0  0
 12  4  1  0  0  0  0
 13 10  1  0  0  0  0
 14  5  1  0  0  0  0
 15 20  1  0  0  0  0
 16 12  1  0  0  0  0
 17 14  1  0  0  0  0
 17 11  1  0  0  0  0
 17 16  1  0  0  0  0
 18 15  1  0  0  0  0
 19 25  1  0  0  0  0
 20 25  1  0  0  0  0
 20 21  1  0  0  0  0
 21 24  1  0  0  0  0
 23 24  1  0  0  0  0
 24 22  2  0  0  0  0
 25 23  1  0  0  0  0
 27 26  1  0  0  0  0
 28 29  1  0  0  0  0
 30  9  1  0  0  0  0
 30 32  1  0  0  0  0
 31 30  2  0  0  0  0
 33 34  1  0  0  0  0
 33 32  1  0  0  0  0
 35  6  1  0  0  0  0
 36 35  1  0  0  0  0
 37 36  1  0  0  0  0
M  END
>  <MODEL>
1

>  <REMARK>
 VINA RESULT:      -5.7      0.000      0.000
  Name = 
  8 active torsions:
  status: ('A' for Active; 'I' for Inactive)
    1  A    between atoms: C_3  and  C_32
    2  A    between atoms: C_5  and  C_23
    3  A    between atoms: C_6  and  C_31
    4  A    between atoms: C_9  and  C_13
    5  A    between atoms: C_9  and  C_16
    6  A    between atoms: C_11  and  C_26
    7  A    between atoms: C_20  and  C_21
    8  A    between atoms: C_21  and  C_32
                            x       y       z     vdW  Elec       q    Type
                         _______ _______ _______ _____ _____    ______ ____

>  <TORSDO>
F 8

$$$$
=
 OpenBabel10272414593D

 37 42  0  0  1  0  0  0  0  0999 V2000
  185.6910  174.1780  137.3560 O   0  0  0  0  0  0  0  0  0  0  0  0
  187.9830  177.8540  137.8020 C   0  0  1  0  0  3  0  0  0  0  0  0
  185.1670  173.2760  136.4090 C   0  0  1  0  0  3  0  0  0  0  0  0
  190.0540  174.8610  136.6410 C   0  0  0  0  0  2  0  0  0  0  0  0
  188.2970  176.3720  137.7160 C   0  0  2  0  0  3  0  0  0  0  0  0
  186.5340  178.0080  137.3260 C   0  0  1  0  0  3  0  0  0  0  0  0
  189.7810  176.1720  137.3900 C   0  0  1  0  0  3  0  0  0  0  0  0
  186.2020  172.5210  135.8200 O   0  0  0  0  0  0  0  0  0  0  0  0
  186.2490  176.7910  136.4560 C   0  0  2  0  0  3  0  0  0  0  0  0
  189.5610  178.5360  139.2480 C   0  0  0  0  0  2  0  0  0  0  0  0
  187.3400  173.3150  135.9550 C   0  0  2  0  0  0  0  0  0  0  0  0
  189.5270  173.6190  137.3670 C   0  0  0  0  0  2  0  0  0  0  0  0
  188.1820  178.3320  139.1070 O   0  0  0  0  0  0  0  0  0  0  0  0
  187.4270  175.8360  136.6040 C   0  0  2  0  0  3  0  0  0  0  0  0
  190.7380  176.3610  138.5950 C   0  0  2  0  0  3  0  0  0  0  0  0
  188.0070  173.3040  137.3420 C   0  0  1  0  0  3  0  0  0  0  0  0
  187.0010  174.3990  136.9340 C   0  0  1  0  0  0  0  0  0  0  0  0
  190.2200  177.2480  139.7400 C   0  0  0  0  0  2  0  0  0  0  0  0
  193.7550  177.4240  139.9210 N   0  0  0  0  0  1  0  0  0  0  0  0
  192.1490  176.8100  138.1850 C   0  0  2  0  0  3  0  0  0  0  0  0
  192.5430  176.3420  136.7810 C   0  0  0  0  0  2  0  0  0  0  0  0
  194.5710  175.2460  136.0840 O   0  0  0  0  0  0  0  0  0  0  0  0
  194.2710  175.7160  138.3570 N   0  0  0  0  0  2  0  0  0  0  0  0
  193.8640  175.7270  137.0060 C   0  0  0  0  0  0  0  0  0  0  0  0
  193.2200  176.3060  139.1640 C   0  0  1  0  0  3  0  0  0  0  0  0
  188.0680  173.7270  134.6760 C   0  0  0  0  0  2  0  0  0  0  0  0
  189.1510  172.7190  134.3460 C   0  0  0  0  0  1  0  0  0  0  0  0
  182.8850  172.6310  136.6690 O   0  0  0  0  0  1  0  0  0  0  0  0
  184.1840  172.3370  137.0830 C   0  0  0  0  0  2  0  0  0  0  0  0
  186.0590  177.1760  135.0190 C   0  0  0  0  0  0  0  0  0  0  0  0
  187.0930  177.6770  134.3460 C   0  0  0  0  0  2  0  0  0  0  0  0
  184.6840  177.2370  134.4160 C   0  0  0  0  0  2  0  0  0  0  0  0
  184.0110  175.8740  134.4220 C   0  0  0  0  0  2  0  0  0  0  0  0
  183.0300  175.8270  135.4130 O   0  0  0  0  0  1  0  0  0  0  0  0
  185.5190  178.0320  138.4640 C   0  0  0  0  0  2  0  0  0  0  0  0
  184.1160  177.8460  137.9190 C   0  0  0  0  0  2  0  0  0  0  0  0
  183.1730  178.8010  138.6160 C   0  0  0  0  0  1  0  0  0  0  0  0
  2 13  1  1  0  0  0
  3 29  1  1  0  0  0
  3  1  1  0  0  0  0
  4 12  1  0  0  0  0
  4  7  1  0  0  0  0
  5  2  1  0  0  0  0
  6  2  1  0  0  0  0
  6 35  1  0  0  0  0
  7  5  1  0  0  0  0
  7 15  1  0  0  0  0
  8 11  1  0  0  0  0
  8  3  1  0  0  0  0
  9 14  1  0  0  0  0
  9  6  1  0  0  0  0
 10 18  1  0  0  0  0
 11 17  1  0  0  0  0
 11 16  1  0  0  0  0
 13 10  1  0  0  0  0
 14 17  1  0  0  0  0
 14  5  1  0  0  0  0
 15 18  1  0  0  0  0
 16 12  1  0  0  0  0
 17 16  1  0  0  0  0
 17  1  1  0  0  0  0
 20 15  1  0  0  0  0
 20 25  1  0  0  0  0
 21 24  1  0  0  0  0
 21 20  1  0  0  0  0
 22 24  2  0  0  0  0
 23 25  1  0  0  0  0
 24 23  1  0  0  0  0
 25 19  1  0  0  0  0
 26 11  1  0  0  0  0
 27 26  1  0  0  0  0
 28 29  1  0  0  0  0
 30  9  1  0  0  0  0
 31 30  2  0  0  0  0
 32 33  1  0  0  0  0
 32 30  1  0  0  0  0
 33 34  1  0  0  0  0
 36 35  1  0  0  0  0
 36 37  1  0  0  0  0
M  END
>  <MODEL>
2

>  <REMARK>
 VINA RESULT:      -4.5      4.248      7.628
  Name = 
  8 active torsions:
  status: ('A' for Active; 'I' for Inactive)
    1  A    between atoms: C_3  and  C_32
    2  A    between atoms: C_5  and  C_23
    3  A    between atoms: C_6  and  C_31
    4  A    between atoms: C_9  and  C_13
    5  A    between atoms: C_9  and  C_16
    6  A    between atoms: C_11  and  C_26
    7  A    between atoms: C_20  and  C_21
    8  A    between atoms: C_21  and  C_32
                            x       y       z     vdW  Elec       q    Type
                         _______ _______ _______ _____ _____    ______ ____

>  <TORSDO>
F 8

$$$$
=
 OpenBabel10272414593D

 37 42  0  0  1  0  0  0  0  0999 V2000
  181.7230  175.4280  139.7200 O   0  0  0  0  0  0  0  0  0  0  0  0
  184.6250  178.6690  139.9050 C   0  0  1  0  0  3  0  0  0  0  0  0
  180.4910  175.0390  139.1570 C   0  0  1  0  0  3  0  0  0  0  0  0
  184.5300  176.8570  136.5430 C   0  0  0  0  0  2  0  0  0  0  0  0
  184.3940  177.4570  139.0220 C   0  0  2  0  0  3  0  0  0  0  0  0
  183.3300  178.8680  140.7000 C   0  0  1  0  0  3  0  0  0  0  0  0
  185.1780  177.6070  137.7140 C   0  0  1  0  0  3  0  0  0  0  0  0
  180.6360  174.7820  137.7780 O   0  0  0  0  0  0  0  0  0  0  0  0
  182.2330  178.1960  139.8850 C   0  0  2  0  0  3  0  0  0  0  0  0
  186.8710  178.7460  139.9340 C   0  0  0  0  0  2  0  0  0  0  0  0
  181.7440  175.5360  137.3920 C   0  0  2  0  0  0  0  0  0  0  0  0
  184.2960  175.3690  136.8210 C   0  0  0  0  0  2  0  0  0  0  0  0
  185.7470  178.4800  140.7280 O   0  0  0  0  0  0  0  0  0  0  0  0
  182.9070  177.4270  138.7560 C   0  0  2  0  0  3  0  0  0  0  0  0
  186.6930  177.3010  137.8310 C   0  0  2  0  0  3  0  0  0  0  0  0
  183.1190  174.9360  137.7350 C   0  0  1  0  0  3  0  0  0  0  0  0
  182.4340  175.9710  138.6500 C   0  0  1  0  0  0  0  0  0  0  0  0
  187.3120  177.4630  139.2300 C   0  0  0  0  0  2  0  0  0  0  0  0
  188.9950  179.8700  137.5310 N   0  0  0  0  0  1  0  0  0  0  0  0
  187.5450  178.0470  136.7940 C   0  0  2  0  0  3  0  0  0  0  0  0
  187.7680  177.2410  135.5090 C   0  0  0  0  0  2  0  0  0  0  0  0
  189.8350  176.8230  134.3460 O   0  0  0  0  0  0  0  0  0  0  0  0
  189.8990  178.0160  136.3590 N   0  0  0  0  0  2  0  0  0  0  0  0
  189.2290  177.3250  135.3270 C   0  0  0  0  0  0  0  0  0  0  0  0
  188.9240  178.4310  137.3500 C   0  0  1  0  0  3  0  0  0  0  0  0
  181.5360  176.5920  136.3060 C   0  0  0  0  0  2  0  0  0  0  0  0
  180.0540  176.8330  136.0930 C   0  0  0  0  0  1  0  0  0  0  0  0
  180.0060  173.9650  141.2300 O   0  0  0  0  0  1  0  0  0  0  0  0
  179.9830  173.7890  139.8470 C   0  0  0  0  0  2  0  0  0  0  0  0
  181.2640  179.1990  139.3360 C   0  0  0  0  0  0  0  0  0  0  0  0
  180.0050  179.1800  139.7710 C   0  0  0  0  0  2  0  0  0  0  0  0
  181.6220  180.0420  138.1450 C   0  0  0  0  0  2  0  0  0  0  0  0
  180.6290  181.1760  137.9450 C   0  0  0  0  0  2  0  0  0  0  0  0
  181.3050  182.3910  137.8350 O   0  0  0  0  0  1  0  0  0  0  0  0
  183.3610  178.2280  142.0830 C   0  0  0  0  0  2  0  0  0  0  0  0
  183.4730  179.2970  143.1530 C   0  0  0  0  0  2  0  0  0  0  0  0
  182.8340  178.8000  144.4310 C   0  0  0  0  0  1  0  0  0  0  0  0
  2  6  1  0  0  0  0
  2 13  1  1  0  0  0
  3  1  1  0  0  0  0
  3 29  1  1  0  0  0
  4 12  1  0  0  0  0
  4  7  1  0  0  0  0
  5  2  1  0  0  0  0
  6 35  1  0  0  0  0
  7 15  1  0  0  0  0
  7  5  1  0  0  0  0
  8  3  1  0  0  0  0
  9  6  1  0  0  0  0
 10 13  1  0  0  0  0
 11 16  1  0  0  0  0
 11  8  1  0  0  0  0
 11 17  1  0  0  0  0
 12 16  1  0  0  0  0
 14  5  1  0  0  0  0
 14  9  1  0  0  0  0
 15 18  1  0  0  0  0
 16 17  1  0  0  0  0
 17 14  1  0  0  0  0
 17  1  1  0  0  0  0
 18 10  1  0  0  0  0
 20 25  1  0  0  0  0
 20 15  1  0  0  0  0
 21 20  1  0  0  0  0
 22 24  2  0  0  0  0
 23 25  1  0  0  0  0
 24 21  1  0  0  0  0
 24 23  1  0  0  0  0
 25 19  1  0  0  0  0
 26 11  1  0  0  0  0
 27 26  1  0  0  0  0
 29 28  1  0  0  0  0
 30 31  2  0  0  0  0
 30  9  1  0  0  0  0
 32 30  1  0  0  0  0
 33 32  1  0  0  0  0
 34 33  1  0  0  0  0
 35 36  1  0  0  0  0
 36 37  1  0  0  0  0
M  END
>  <MODEL>
3

>  <REMARK>
 VINA RESULT:      -4.4      2.918      6.508
  Name = 
  8 active torsions:
  status: ('A' for Active; 'I' for Inactive)
    1  A    between atoms: C_3  and  C_32
    2  A    between atoms: C_5  and  C_23
    3  A    between atoms: C_6  and  C_31
    4  A    between atoms: C_9  and  C_13
    5  A    between atoms: C_9  and  C_16
    6  A    between atoms: C_11  and  C_26
    7  A    between atoms: C_20  and  C_21
    8  A    between atoms: C_21  and  C_32
                            x       y       z     vdW  Elec       q    Type
                         _______ _______ _______ _____ _____    ______ ____

>  <TORSDO>
F 8

$$$$
=
 OpenBabel10272414593D

 37 42  0  0  1  0  0  0  0  0999 V2000
  181.3720  180.0590  137.7020 O   0  0  0  0  0  0  0  0  0  0  0  0
  183.4660  176.8130  135.6910 C   0  0  1  0  0  3  0  0  0  0  0  0
  180.5150  180.3610  138.7780 C   0  0  1  0  0  3  0  0  0  0  0  0
  184.9090  177.7100  139.1130 C   0  0  0  0  0  2  0  0  0  0  0  0
  183.7680  177.7710  136.8290 C   0  0  2  0  0  3  0  0  0  0  0  0
  181.9540  176.8970  135.4570 C   0  0  1  0  0  3  0  0  0  0  0  0
  184.9500  177.2480  137.6500 C   0  0  1  0  0  3  0  0  0  0  0  0
  181.2010  180.2490  140.0040 O   0  0  0  0  0  0  0  0  0  0  0  0
  181.3560  177.4000  136.7640 C   0  0  2  0  0  3  0  0  0  0  0  0
  185.4990  176.6190  134.7530 C   0  0  0  0  0  2  0  0  0  0  0  0
  182.2440  179.3600  139.7470 C   0  0  2  0  0  0  0  0  0  0  0  0
  184.8180  179.2300  139.2740 C   0  0  0  0  0  2  0  0  0  0  0  0
  184.2140  177.1410  134.5500 O   0  0  0  0  0  0  0  0  0  0  0  0
  182.5110  177.8160  137.6650 C   0  0  2  0  0  3  0  0  0  0  0  0
  186.3400  177.4880  137.0060 C   0  0  2  0  0  3  0  0  0  0  0  0
  183.4650  179.9490  139.0200 C   0  0  1  0  0  3  0  0  0  0  0  0
  182.3400  179.2220  138.2570 C   0  0  1  0  0  0  0  0  0  0  0  0
  186.3610  177.6520  135.4770 C   0  0  0  0  0  2  0  0  0  0  0  0
  187.7310  174.4600  136.0650 N   0  0  0  0  0  1  0  0  0  0  0  0
  187.3940  176.4550  137.4340 C   0  0  2  0  0  3  0  0  0  0  0  0
  188.4510  177.0320  138.3810 C   0  0  0  0  0  2  0  0  0  0  0  0
  190.8480  176.8460  138.2370 O   0  0  0  0  0  0  0  0  0  0  0  0
  189.5440  175.9170  136.5300 N   0  0  0  0  0  2  0  0  0  0  0  0
  189.7140  176.6100  137.7480 C   0  0  0  0  0  0  0  0  0  0  0  0
  188.1260  175.8470  136.2290 C   0  0  1  0  0  3  0  0  0  0  0  0
  182.2970  178.0760  140.5750 C   0  0  0  0  0  2  0  0  0  0  0  0
  182.6600  178.3980  142.0110 C   0  0  0  0  0  1  0  0  0  0  0  0
  180.9210  182.5710  137.9780 O   0  0  0  0  0  1  0  0  0  0  0  0
  179.9820  181.7730  138.6310 C   0  0  0  0  0  2  0  0  0  0  0  0
  180.5210  176.3470  137.4280 C   0  0  0  0  0  0  0  0  0  0  0  0
  180.0680  176.5690  138.6610 C   0  0  0  0  0  2  0  0  0  0  0  0
  180.4020  174.9720  136.8330 C   0  0  0  0  0  2  0  0  0  0  0  0
  181.1420  173.9380  137.6650 C   0  0  0  0  0  2  0  0  0  0  0  0
  182.1070  173.2980  136.8890 O   0  0  0  0  0  1  0  0  0  0  0  0
  181.5630  177.8660  134.3460 C   0  0  0  0  0  2  0  0  0  0  0  0
  180.2650  178.5680  134.6950 C   0  0  0  0  0  2  0  0  0  0  0  0
  180.3840  180.0390  134.3660 C   0  0  0  0  0  1  0  0  0  0  0  0
  1 17  1  0  0  0  0
  1  3  1  0  0  0  0
  2 13  1  6  0  0  0
  2  5  1  0  0  0  0
  3 29  1  6  0  0  0
  3  8  1  0  0  0  0
  4 12  1  0  0  0  0
  5  7  1  0  0  0  0
  5 14  1  0  0  0  0
  6  2  1  0  0  0  0
  6  9  1  0  0  0  0
  7  4  1  0  0  0  0
  9 30  1  0  0  0  0
  9 14  1  0  0  0  0
 10 18  1  0  0  0  0
 11  8  1  0  0  0  0
 11 26  1  0  0  0  0
 13 10  1  0  0  0  0
 14 17  1  0  0  0  0
 15 20  1  0  0  0  0
 15  7  1  0  0  0  0
 16 12  1  0  0  0  0
 16 11  1  0  0  0  0
 17 16  1  0  0  0  0
 17 11  1  0  0  0  0
 18 15  1  0  0  0  0
 19 25  1  0  0  0  0
 20 21  1  0  0  0  0
 23 24  1  0  0  0  0
 24 22  2  0  0  0  0
 24 21  1  0  0  0  0
 25 23  1  0  0  0  0
 25 20  1  0  0  0  0
 26 27  1  0  0  0  0
 28 29  1  0  0  0  0
 30 31  2  0  0  0  0
 32 30  1  0  0  0  0
 32 33  1  0  0  0  0
 34 33  1  0  0  0  0
 35 36  1  0  0  0  0
 35  6  1  0  0  0  0
 37 36  1  0  0  0  0
M  END
>  <MODEL>
4

>  <REMARK>
 VINA RESULT:      -4.1      3.249      5.346
  Name = 
  8 active torsions:
  status: ('A' for Active; 'I' for Inactive)
    1  A    between atoms: C_3  and  C_32
    2  A    between atoms: C_5  and  C_23
    3  A    between atoms: C_6  and  C_31
    4  A    between atoms: C_9  and  C_13
    5  A    between atoms: C_9  and  C_16
    6  A    between atoms: C_11  and  C_26
    7  A    between atoms: C_20  and  C_21
    8  A    between atoms: C_21  and  C_32
                            x       y       z     vdW  Elec       q    Type
                         _______ _______ _______ _____ _____    ______ ____

>  <TORSDO>
F 8

$$$$
=
 OpenBabel10272414593D

 37 42  0  0  1  0  0  0  0  0999 V2000
  188.5810  176.1710  138.8120 O   0  0  0  0  0  0  0  0  0  0  0  0
  184.9200  174.7200  136.9520 C   0  0  1  0  0  3  0  0  0  0  0  0
  189.7330  176.9510  138.5910 C   0  0  1  0  0  3  0  0  0  0  0  0
  184.8940  178.4610  137.7260 C   0  0  0  0  0  2  0  0  0  0  0  0
  185.3320  175.9450  137.7480 C   0  0  2  0  0  3  0  0  0  0  0  0
  186.2230  174.0420  136.5130 C   0  0  1  0  0  3  0  0  0  0  0  0
  184.2950  177.0570  137.5650 C   0  0  1  0  0  3  0  0  0  0  0  0
  189.4010  178.3190  138.5340 O   0  0  0  0  0  0  0  0  0  0  0  0
  187.2870  175.1310  136.5330 C   0  0  2  0  0  3  0  0  0  0  0  0
  182.8130  174.4340  137.6810 C   0  0  0  0  0  2  0  0  0  0  0  0
  188.0610  178.3430  138.1480 C   0  0  2  0  0  0  0  0  0  0  0  0
  185.6250  178.6680  139.0560 C   0  0  0  0  0  2  0  0  0  0  0  0
  184.1000  173.8790  137.7200 O   0  0  0  0  0  0  0  0  0  0  0  0
  186.6710  176.3620  137.1860 C   0  0  2  0  0  3  0  0  0  0  0  0
  183.0030  176.8790  138.4040 C   0  0  2  0  0  3  0  0  0  0  0  0
  187.0370  178.0540  139.2580 C   0  0  1  0  0  3  0  0  0  0  0  0
  187.5380  176.9480  138.3090 C   0  0  1  0  0  0  0  0  0  0  0  0
  182.6570  175.4400  138.8200 C   0  0  0  0  0  2  0  0  0  0  0  0
  180.4470  179.1040  139.1150 N   0  0  0  0  0  1  0  0  0  0  0  0
  181.7730  177.5500  137.7750 C   0  0  2  0  0  3  0  0  0  0  0  0
  181.8110  177.5580  136.2430 C   0  0  0  0  0  2  0  0  0  0  0  0
  181.4260  179.4060  134.7470 O   0  0  0  0  0  0  0  0  0  0  0  0
  181.3910  179.8010  137.0540 N   0  0  0  0  0  2  0  0  0  0  0  0
  181.5290  178.9690  135.9220 C   0  0  0  0  0  0  0  0  0  0  0  0
  181.6050  179.0030  138.2460 C   0  0  1  0  0  3  0  0  0  0  0  0
  187.7130  179.0780  136.8540 C   0  0  0  0  0  2  0  0  0  0  0  0
  188.7610  178.7940  135.7960 C   0  0  0  0  0  1  0  0  0  0  0  0
  190.1890  177.1530  140.9240 O   0  0  0  0  0  1  0  0  0  0  0  0
  190.7290  176.7240  139.7110 C   0  0  0  0  0  2  0  0  0  0  0  0
  187.7700  175.4530  135.1500 C   0  0  0  0  0  0  0  0  0  0  0  0
  186.9940  176.1870  134.3540 C   0  0  0  0  0  2  0  0  0  0  0  0
  188.9750  174.7640  134.5780 C   0  0  0  0  0  2  0  0  0  0  0  0
  190.1800  174.8940  135.4960 C   0  0  0  0  0  2  0  0  0  0  0  0
  190.8230  176.1120  135.2740 O   0  0  0  0  0  1  0  0  0  0  0  0
  186.6680  172.9190  137.4420 C   0  0  0  0  0  2  0  0  0  0  0  0
  187.9410  172.2800  136.9210 C   0  0  0  0  0  2  0  0  0  0  0  0
  187.5950  171.2740  135.8450 C   0  0  0  0  0  1  0  0  0  0  0  0
  2 13  1  1  0  0  0
  2  5  1  0  0  0  0
  3  1  1  0  0  0  0
  3 29  1  1  0  0  0
  4 12  1  0  0  0  0
  6  9  1  0  0  0  0
  6  2  1  0  0  0  0
  6 35  1  0  0  0  0
  7  4  1  0  0  0  0
  7  5  1  0  0  0  0
  7 15  1  0  0  0  0
  8  3  1  0  0  0  0
  9 14  1  0  0  0  0
 10 13  1  0  0  0  0
 10 18  1  0  0  0  0
 11 17  1  0  0  0  0
 11  8  1  0  0  0  0
 11 16  1  0  0  0  0
 12 16  1  0  0  0  0
 14  5  1  0  0  0  0
 14 17  1  0  0  0  0
 15 18  1  0  0  0  0
 17  1  1  0  0  0  0
 17 16  1  0  0  0  0
 20 25  1  0  0  0  0
 20 15  1  0  0  0  0
 21 20  1  0  0  0  0
 22 24  2  0  0  0  0
 23 25  1  0  0  0  0
 24 21  1  0  0  0  0
 24 23  1  0  0  0  0
 25 19  1  0  0  0  0
 26 11  1  0  0  0  0
 27 26  1  0  0  0  0
 29 28  1  0  0  0  0
 30  9  1  0  0  0  0
 31 30  2  0  0  0  0
 32 30  1  0  0  0  0
 32 33  1  0  0  0  0
 34 33  1  0  0  0  0
 36 35  1  0  0  0  0
 37 36  1  0  0  0  0
M  END
>  <MODEL>
5

>  <REMARK>
 VINA RESULT:      -4.0      3.545      7.284
  Name = 
  8 active torsions:
  status: ('A' for Active; 'I' for Inactive)
    1  A    between atoms: C_3  and  C_32
    2  A    between atoms: C_5  and  C_23
    3  A    between atoms: C_6  and  C_31
    4  A    between atoms: C_9  and  C_13
    5  A    between atoms: C_9  and  C_16
    6  A    between atoms: C_11  and  C_26
    7  A    between atoms: C_20  and  C_21
    8  A    between atoms: C_21  and  C_32
                            x       y       z     vdW  Elec       q    Type
                         _______ _______ _______ _____ _____    ______ ____

>  <TORSDO>
F 8

$$$$
=
 OpenBabel10272414593D

 37 42  0  0  1  0  0  0  0  0999 V2000
  182.0940  175.1040  138.3490 O   0  0  0  0  0  0  0  0  0  0  0  0
  185.3590  177.7800  137.2830 C   0  0  1  0  0  3  0  0  0  0  0  0
  181.0030  174.3820  137.8280 C   0  0  1  0  0  3  0  0  0  0  0  0
  185.8310  174.1900  136.0660 C   0  0  0  0  0  2  0  0  0  0  0  0
  185.1610  176.2790  137.3740 C   0  0  2  0  0  3  0  0  0  0  0  0
  183.9560  178.3960  137.3140 C   0  0  1  0  0  3  0  0  0  0  0  0
  186.2710  175.5590  136.6020 C   0  0  1  0  0  3  0  0  0  0  0  0
  181.4540  173.2810  137.0720 O   0  0  0  0  0  0  0  0  0  0  0  0
  183.0100  177.3020  136.8400 C   0  0  2  0  0  3  0  0  0  0  0  0
  187.5000  177.9630  137.9440 C   0  0  0  0  0  2  0  0  0  0  0  0
  182.7360  173.6390  136.6560 C   0  0  2  0  0  0  0  0  0  0  0  0
  185.2820  173.2540  137.1470 C   0  0  0  0  0  2  0  0  0  0  0  0
  186.1800  178.2390  138.3260 O   0  0  0  0  0  0  0  0  0  0  0  0
  183.8120  176.0090  136.7510 C   0  0  2  0  0  3  0  0  0  0  0  0
  187.6280  175.4790  137.3470 C   0  0  2  0  0  3  0  0  0  0  0  0
  183.8510  173.4840  137.7050 C   0  0  1  0  0  3  0  0  0  0  0  0
  183.1410  174.8310  137.4700 C   0  0  1  0  0  0  0  0  0  0  0  0
  187.8820  176.5590  138.4130 C   0  0  0  0  0  2  0  0  0  0  0  0
  188.8460  176.7110  134.3490 N   0  0  0  0  0  1  0  0  0  0  0  0
  188.8350  175.3860  136.4020 C   0  0  2  0  0  3  0  0  0  0  0  0
  190.1010  174.8670  137.0920 C   0  0  0  0  0  2  0  0  0  0  0  0
  192.3240  175.7900  137.0300 O   0  0  0  0  0  0  0  0  0  0  0  0
  190.6010  176.9310  135.9300 N   0  0  0  0  0  2  0  0  0  0  0  0
  191.1120  175.8660  136.7030 C   0  0  0  0  0  0  0  0  0  0  0  0
  189.1730  176.7410  135.7630 C   0  0  1  0  0  3  0  0  0  0  0  0
  183.0010  173.6940  135.1510 C   0  0  0  0  0  2  0  0  0  0  0  0
  181.7170  174.0090  134.4090 C   0  0  0  0  0  1  0  0  0  0  0  0
  180.2930  174.6940  140.0840 O   0  0  0  0  0  1  0  0  0  0  0  0
  180.1260  173.8840  138.9600 C   0  0  0  0  0  2  0  0  0  0  0  0
  182.4030  177.6390  135.5110 C   0  0  0  0  0  0  0  0  0  0  0  0
  183.1830  177.6430  134.4310 C   0  0  0  0  0  2  0  0  0  0  0  0
  181.0140  178.2040  135.4220 C   0  0  0  0  0  2  0  0  0  0  0  0
  181.0230  179.6230  134.8740 C   0  0  0  0  0  2  0  0  0  0  0  0
  181.0390  180.5420  135.9230 O   0  0  0  0  0  1  0  0  0  0  0  0
  183.5170  178.8400  138.7050 C   0  0  0  0  0  2  0  0  0  0  0  0
  182.0290  178.6100  138.8830 C   0  0  0  0  0  2  0  0  0  0  0  0
  181.7450  178.2390  140.3220 C   0  0  0  0  0  1  0  0  0  0  0  0
  2  6  1  0  0  0  0
  2  5  1  0  0  0  0
  2 13  1  1  0  0  0
  3  1  1  0  0  0  0
  3 29  1  1  0  0  0
  4  7  1  0  0  0  0
  4 12  1  0  0  0  0
  6 35  1  0  0  0  0
  7 15  1  0  0  0  0
  7  5  1  0  0  0  0
  8  3  1  0  0  0  0
  9  6  1  0  0  0  0
 10 13  1  0  0  0  0
 10 18  1  0  0  0  0
 11  8  1  0  0  0  0
 11 17  1  0  0  0  0
 11 16  1  0  0  0  0
 12 16  1  0  0  0  0
 14  9  1  0  0  0  0
 14  5  1  0  0  0  0
 14 17  1  0  0  0  0
 15 18  1  0  0  0  0
 17 16  1  0  0  0  0
 17  1  1  0  0  0  0
 19 25  1  0  0  0  0
 20 21  1  0  0  0  0
 20 15  1  0  0  0  0
 23 24  1  0  0  0  0
 24 22  2  0  0  0  0
 24 21  1  0  0  0  0
 25 23  1  0  0  0  0
 25 20  1  0  0  0  0
 26 11  1  0  0  0  0
 27 26  1  0  0  0  0
 29 28  1  0  0  0  0
 30  9  1  0  0  0  0
 31 30  2  0  0  0  0
 32 30  1  0  0  0  0
 33 32  1  0  0  0  0
 33 34  1  0  0  0  0
 35 36  1  0  0  0  0
 36 37  1  0  0  0  0
M  END
>  <MODEL>
6

>  <REMARK>
 VINA RESULT:      -3.9      3.712      6.657
  Name = 
  8 active torsions:
  status: ('A' for Active; 'I' for Inactive)
    1  A    between atoms: C_3  and  C_32
    2  A    between atoms: C_5  and  C_23
    3  A    between atoms: C_6  and  C_31
    4  A    between atoms: C_9  and  C_13
    5  A    between atoms: C_9  and  C_16
    6  A    between atoms: C_11  and  C_26
    7  A    between atoms: C_20  and  C_21
    8  A    between atoms: C_21  and  C_32
                            x       y       z     vdW  Elec       q    Type
                         _______ _______ _______ _____ _____    ______ ____

>  <TORSDO>
F 8

$$$$
=
 OpenBabel10272414593D

 37 42  0  0  1  0  0  0  0  0999 V2000
  188.9260  176.1200  138.9210 O   0  0  0  0  0  0  0  0  0  0  0  0
  185.4030  174.7250  136.7750 C   0  0  1  0  0  3  0  0  0  0  0  0
  190.0920  176.9020  138.8000 C   0  0  1  0  0  3  0  0  0  0  0  0
  185.3270  178.4460  137.6360 C   0  0  0  0  0  2  0  0  0  0  0  0
  185.7600  175.9290  137.6270 C   0  0  2  0  0  3  0  0  0  0  0  0
  186.7330  174.0540  136.4120 C   0  0  1  0  0  3  0  0  0  0  0  0
  184.7390  177.0480  137.4000 C   0  0  1  0  0  3  0  0  0  0  0  0
  189.7670  178.2720  138.7530 O   0  0  0  0  0  0  0  0  0  0  0  0
  187.7940  175.1390  136.5320 C   0  0  2  0  0  3  0  0  0  0  0  0
  183.2510  174.4280  137.3480 C   0  0  0  0  0  2  0  0  0  0  0  0
  188.4580  178.3090  138.2750 C   0  0  2  0  0  0  0  0  0  0  0  0
  185.9640  178.6190  139.0180 C   0  0  0  0  0  2  0  0  0  0  0  0
  184.5300  173.8680  137.4640 O   0  0  0  0  0  0  0  0  0  0  0  0
  187.1350  176.3560  137.1710 C   0  0  2  0  0  3  0  0  0  0  0  0
  183.3920  176.8540  138.1420 C   0  0  2  0  0  3  0  0  0  0  0  0
  187.3570  177.9970  139.3040 C   0  0  1  0  0  3  0  0  0  0  0  0
  187.9220  176.9120  138.3650 C   0  0  1  0  0  0  0  0  0  0  0  0
  183.0160  175.4060  138.4980 C   0  0  0  0  0  2  0  0  0  0  0  0
  180.3180  176.1940  136.6930 N   0  0  0  0  0  1  0  0  0  0  0  0
  182.2100  177.5440  137.4440 C   0  0  2  0  0  3  0  0  0  0  0  0
  182.1250  179.0430  137.7490 C   0  0  0  0  0  2  0  0  0  0  0  0
  180.2070  180.3200  138.4520 O   0  0  0  0  0  0  0  0  0  0  0  0
  179.9820  178.0050  138.1880 N   0  0  0  0  0  2  0  0  0  0  0  0
  180.7170  179.2090  138.1540 C   0  0  0  0  0  0  0  0  0  0  0  0
  180.8650  176.9110  137.8310 C   0  0  1  0  0  3  0  0  0  0  0  0
  188.2020  179.0760  136.9780 C   0  0  0  0  0  2  0  0  0  0  0  0
  189.2970  178.7790  135.9720 C   0  0  0  0  0  1  0  0  0  0  0  0
  190.2620  176.2070  141.0760 O   0  0  0  0  0  1  0  0  0  0  0  0
  191.0080  176.6450  139.9810 C   0  0  0  0  0  2  0  0  0  0  0  0
  188.3730  175.4930  135.1950 C   0  0  0  0  0  0  0  0  0  0  0  0
  187.6370  176.2100  134.3470 C   0  0  0  0  0  2  0  0  0  0  0  0
  189.6430  174.8510  134.7140 C   0  0  0  0  0  2  0  0  0  0  0  0
  190.6820  174.7720  135.8210 C   0  0  0  0  0  2  0  0  0  0  0  0
  191.5920  175.8220  135.7010 O   0  0  0  0  0  1  0  0  0  0  0  0
  187.1110  172.9070  137.3430 C   0  0  0  0  0  2  0  0  0  0  0  0
  187.9420  171.8800  136.5990 C   0  0  0  0  0  2  0  0  0  0  0  0
  187.3470  171.6480  135.2280 C   0  0  0  0  0  1  0  0  0  0  0  0
  2 13  1  1  0  0  0
  2  5  1  0  0  0  0
  3  1  1  0  0  0  0
  3 29  1  1  0  0  0
  4 12  1  0  0  0  0
  6  9  1  0  0  0  0
  6  2  1  0  0  0  0
  6 35  1  0  0  0  0
  7  5  1  0  0  0  0
  7  4  1  0  0  0  0
  7 15  1  0  0  0  0
  8  3  1  0  0  0  0
  9 14  1  0  0  0  0
 10 13  1  0  0  0  0
 10 18  1  0  0  0  0
 11 17  1  0  0  0  0
 11  8  1  0  0  0  0
 11 16  1  0  0  0  0
 12 16  1  0  0  0  0
 14  5  1  0  0  0  0
 14 17  1  0  0  0  0
 15 18  1  0  0  0  0
 17  1  1  0  0  0  0
 17 16  1  0  0  0  0
 19 25  1  0  0  0  0
 20 21  1  0  0  0  0
 20 25  1  0  0  0  0
 20 15  1  0  0  0  0
 21 24  1  0  0  0  0
 24 23  1  0  0  0  0
 24 22  2  0  0  0  0
 25 23  1  0  0  0  0
 26 11  1  0  0  0  0
 27 26  1  0  0  0  0
 29 28  1  0  0  0  0
 30  9  1  0  0  0  0
 31 30  2  0  0  0  0
 32 30  1  0  0  0  0
 32 33  1  0  0  0  0
 34 33  1  0  0  0  0
 36 35  1  0  0  0  0
 37 36  1  0  0  0  0
M  END
>  <MODEL>
7

>  <REMARK>
 VINA RESULT:      -3.9      3.714      7.327
  Name = 
  8 active torsions:
  status: ('A' for Active; 'I' for Inactive)
    1  A    between atoms: C_3  and  C_32
    2  A    between atoms: C_5  and  C_23
    3  A    between atoms: C_6  and  C_31
    4  A    between atoms: C_9  and  C_13
    5  A    between atoms: C_9  and  C_16
    6  A    between atoms: C_11  and  C_26
    7  A    between atoms: C_20  and  C_21
    8  A    between atoms: C_21  and  C_32
                            x       y       z     vdW  Elec       q    Type
                         _______ _______ _______ _____ _____    ______ ____

>  <TORSDO>
F 8

$$$$
=
 OpenBabel10272414593D

 37 42  0  0  1  0  0  0  0  0999 V2000
  183.3650  179.2720  137.7210 O   0  0  0  0  0  0  0  0  0  0  0  0
  187.3440  177.6680  138.4680 C   0  0  1  0  0  3  0  0  0  0  0  0
  181.9990  178.9330  137.6560 C   0  0  1  0  0  3  0  0  0  0  0  0
  185.1490  177.8980  141.5870 C   0  0  0  0  0  2  0  0  0  0  0  0
  186.2350  178.2770  139.3060 C   0  0  2  0  0  3  0  0  0  0  0  0
  186.7110  177.3200  137.1160 C   0  0  1  0  0  3  0  0  0  0  0  0
  186.4570  177.9450  140.7850 C   0  0  1  0  0  3  0  0  0  0  0  0
  181.4890  178.6830  138.9460 O   0  0  0  0  0  0  0  0  0  0  0  0
  185.2190  177.1760  137.3790 C   0  0  2  0  0  3  0  0  0  0  0  0
  189.1580  178.4470  139.5420 C   0  0  0  0  0  2  0  0  0  0  0  0
  182.6000  178.3080  139.7000 C   0  0  2  0  0  0  0  0  0  0  0  0
  184.3170  179.1790  141.4790 C   0  0  0  0  0  2  0  0  0  0  0  0
  188.4250  178.5550  138.3520 O   0  0  0  0  0  0  0  0  0  0  0  0
  184.9560  177.6510  138.8020 C   0  0  2  0  0  3  0  0  0  0  0  0
  187.5350  178.8110  141.4850 C   0  0  2  0  0  3  0  0  0  0  0  0
  183.5010  179.4560  140.1870 C   0  0  1  0  0  3  0  0  0  0  0  0
  183.8130  178.6710  138.8970 C   0  0  1  0  0  0  0  0  0  0  0  0
  188.6060  179.4320  140.5720 C   0  0  0  0  0  2  0  0  0  0  0  0
  186.8230  177.2700  144.5030 N   0  0  0  0  0  1  0  0  0  0  0  0
  188.2080  178.1020  142.6700 C   0  0  2  0  0  3  0  0  0  0  0  0
  189.5990  177.5550  142.3320 C   0  0  0  0  0  2  0  0  0  0  0  0
  190.4850  175.3550  142.7530 O   0  0  0  0  0  0  0  0  0  0  0  0
  188.2560  175.7980  143.3170 N   0  0  0  0  0  2  0  0  0  0  0  0
  189.5200  176.1610  142.8040 C   0  0  0  0  0  0  0  0  0  0  0  0
  187.3620  176.9330  143.1970 C   0  0  1  0  0  3  0  0  0  0  0  0
  182.5780  176.9240  140.3500 C   0  0  0  0  0  2  0  0  0  0  0  0
  181.3020  176.1950  139.9770 C   0  0  0  0  0  1  0  0  0  0  0  0
  180.3000  180.5840  137.9350 O   0  0  0  0  0  1  0  0  0  0  0  0
  181.2170  180.0670  137.0210 C   0  0  0  0  0  2  0  0  0  0  0  0
  184.7640  175.7580  137.2020 C   0  0  0  0  0  0  0  0  0  0  0  0
  183.4580  175.5050  137.1450 C   0  0  0  0  0  2  0  0  0  0  0  0
  185.7330  174.6180  137.3400 C   0  0  0  0  0  2  0  0  0  0  0  0
  185.2550  173.3860  136.5880 C   0  0  0  0  0  2  0  0  0  0  0  0
  184.7180  172.4580  137.4800 O   0  0  0  0  0  1  0  0  0  0  0  0
  186.9100  178.3980  136.0560 C   0  0  0  0  0  2  0  0  0  0  0  0
  186.6970  177.8170  134.6710 C   0  0  0  0  0  2  0  0  0  0  0  0
  187.5050  176.5450  134.5290 C   0  0  0  0  0  1  0  0  0  0  0  0
  1 17  1  0  0  0  0
  2 13  1  6  0  0  0
  2  5  1  0  0  0  0
  3 29  1  1  0  0  0
  3  1  1  0  0  0  0
  3  8  1  0  0  0  0
  5  7  1  0  0  0  0
  6  9  1  0  0  0  0
  6  2  1  0  0  0  0
  7 15  1  0  0  0  0
  7  4  1  0  0  0  0
  8 11  1  0  0  0  0
  9 14  1  0  0  0  0
 10 18  1  0  0  0  0
 11 16  1  0  0  0  0
 11 26  1  0  0  0  0
 12  4  1  0  0  0  0
 13 10  1  0  0  0  0
 14 17  1  0  0  0  0
 14  5  1  0  0  0  0
 15 20  1  0  0  0  0
 16 12  1  0  0  0  0
 17 11  1  0  0  0  0
 17 16  1  0  0  0  0
 18 15  1  0  0  0  0
 20 25  1  0  0  0  0
 21 20  1  0  0  0  0
 21 24  1  0  0  0  0
 22 24  2  0  0  0  0
 24 23  1  0  0  0  0
 25 23  1  0  0  0  0
 25 19  1  0  0  0  0
 27 26  1  0  0  0  0
 29 28  1  0  0  0  0
 30 32  1  0  0  0  0
 30  9  1  0  0  0  0
 31 30  2  0  0  0  0
 33 32  1  0  0  0  0
 33 34  1  0  0  0  0
 35  6  1  0  0  0  0
 36 35  1  0  0  0  0
 37 36  1  0  0  0  0
M  END
>  <MODEL>
8

>  <REMARK>
 VINA RESULT:      -3.4      2.075      2.762
  Name = 
  8 active torsions:
  status: ('A' for Active; 'I' for Inactive)
    1  A    between atoms: C_3  and  C_32
    2  A    between atoms: C_5  and  C_23
    3  A    between atoms: C_6  and  C_31
    4  A    between atoms: C_9  and  C_13
    5  A    between atoms: C_9  and  C_16
    6  A    between atoms: C_11  and  C_26
    7  A    between atoms: C_20  and  C_21
    8  A    between atoms: C_21  and  C_32
                            x       y       z     vdW  Elec       q    Type
                         _______ _______ _______ _____ _____    ______ ____

>  <TORSDO>
F 8

$$$$
