=
 OpenBabel10272401023D

 27 32  0  0  1  0  0  0  0  0999 V2000
  189.3510  178.6250  138.8920 C   0  0  0  0  0  2  0  0  0  0  0  0
  190.6750  176.4670  138.9880 C   0  0  1  0  0  3  0  0  0  0  0  0
  188.6560  175.7710  137.5380 C   0  0  0  0  0  2  0  0  0  0  0  0
  193.4580  174.1190  136.6070 C   0  0  0  0  0  2  0  0  0  0  0  0
  192.1460  173.0930  135.0880 C   0  0  0  0  0  2  0  0  0  0  0  0
  191.6600  177.1030  138.1130 N   0  0  0  0  0  2  0  0  0  0  0  0
  190.6470  174.4390  135.9420 O   0  0  0  0  0  0  0  0  0  0  0  0
  187.7620  177.2540  134.3480 C   0  0  0  0  0  2  0  0  0  0  0  0
  191.0120  173.1680  135.9270 O   0  0  0  0  0  0  0  0  0  0  0  0
  186.3870  177.4860  134.9740 C   0  0  0  0  0  2  0  0  0  0  0  0
  191.0520  174.9450  137.1930 C   0  0  2  0  0  0  0  0  0  0  0  0
  189.7660  177.4280  139.6210 N   0  0  0  0  0  0  0  0  0  0  0  0
  193.0140  174.1870  135.2780 O   0  0  0  0  0  0  0  0  0  0  0  0
  192.5360  174.8560  137.6030 C   0  0  2  0  0  3  0  0  0  0  0  0
  187.9250  178.4460  138.3980 C   0  0  0  0  0  2  0  0  0  0  0  0
  189.9880  175.3550  138.2020 C   0  0  1  0  0  3  0  0  0  0  0  0
  188.6020  176.3490  135.2510 C   0  0  0  0  0  2  0  0  0  0  0  0
  191.9640  176.1520  137.0350 C   0  0  2  0  0  3  0  0  0  0  0  0
  186.4580  177.7200  136.4870 C   0  0  0  0  0  2  0  0  0  0  0  0
  187.8930  178.0030  136.9360 C   0  0  2  0  0  3  0  0  0  0  0  0
  188.8230  176.8920  136.6070 N   0  0  1  0  0  0  0  0  0  0  0  0
  188.3780  176.7270  143.5830 C   0  0  0  0  0  3  0  0  0  0  0  0
  189.2930  177.1890  140.9640 C   0  0  0  0  0  0  0  0  0  0  0  0
  189.9660  176.2900  141.8110 C   0  0  0  0  0  3  0  0  0  0  0  0
  189.5100  176.0600  143.1110 C   0  0  0  0  0  3  0  0  0  0  0  0
  187.7000  177.6250  142.7550 C   0  0  0  0  0  3  0  0  0  0  0  0
  188.1560  177.8540  141.4550 C   0  0  0  0  0  3  0  0  0  0  0  0
  1 12  1  0  0  0  0
  2  6  1  6  0  0  0
  2 12  1  0  0  0  0
  5 13  1  0  0  0  0
  5  9  1  0  0  0  0
  8 10  1  0  0  0  0
  8 17  1  0  0  0  0
  9  7  1  0  0  0  0
 10 19  1  0  0  0  0
 11  7  1  6  0  0  0
 11 14  1  0  0  0  0
 11 16  1  0  0  0  0
 12 23  1  0  0  0  0
 13  4  1  0  0  0  0
 14  4  1  6  0  0  0
 15  1  1  0  0  0  0
 16  3  1  6  0  0  0
 16  2  1  0  0  0  0
 18 11  1  0  0  0  0
 18 14  1  0  0  0  0
 18  6  1  1  0  0  0
 20 19  1  1  0  0  0
 20 15  1  0  0  0  0
 21 17  1  6  0  0  0
 21 20  1  0  0  0  0
 21  3  1  0  0  0  0
 23 27  2  0  0  0  0
 23 24  1  0  0  0  0
 24 25  2  0  0  0  0
 25 22  1  0  0  0  0
 26 22  2  0  0  0  0
 27 26  1  0  0  0  0
M  END
>  <MODEL>
1

>  <REMARK>
 VINA RESULT:      -6.3      0.000      0.000
  Name = 
  1 active torsions:
  status: ('A' for Active; 'I' for Inactive)
    1  A    between atoms: C_9  and  N_15
                            x       y       z     vdW  Elec       q    Type
                         _______ _______ _______ _____ _____    ______ ____

>  <TORSDO>
F 1

$$$$
=
 OpenBabel10272401023D

 27 32  0  0  1  0  0  0  0  0999 V2000
  188.8980  177.9920  135.7030 C   0  0  0  0  0  2  0  0  0  0  0  0
  188.0090  177.5560  138.0350 C   0  0  1  0  0  3  0  0  0  0  0  0
  189.7910  175.7030  137.8050 C   0  0  0  0  0  2  0  0  0  0  0  0
  189.0080  178.2860  142.2060 C   0  0  0  0  0  2  0  0  0  0  0  0
  190.5930  176.7500  142.6650 C   0  0  0  0  0  2  0  0  0  0  0  0
  188.6860  178.7820  138.4560 N   0  0  0  0  0  2  0  0  0  0  0  0
  190.4740  176.4440  140.5010 O   0  0  0  0  0  0  0  0  0  0  0  0
  193.3340  176.2640  137.2480 C   0  0  0  0  0  2  0  0  0  0  0  0
  190.1330  175.8830  141.6480 O   0  0  0  0  0  0  0  0  0  0  0  0
  193.1720  175.3380  136.0440 C   0  0  0  0  0  2  0  0  0  0  0  0
  189.2880  176.9810  139.9630 C   0  0  2  0  0  0  0  0  0  0  0  0
  187.8580  177.4570  136.5790 N   0  0  0  0  0  0  0  0  0  0  0  0
  190.3940  178.1040  142.3300 O   0  0  0  0  0  0  0  0  0  0  0  0
  188.4740  178.0000  140.7850 C   0  0  2  0  0  3  0  0  0  0  0  0
  189.7200  176.8470  135.1370 C   0  0  0  0  0  2  0  0  0  0  0  0
  188.7150  176.3730  138.6890 C   0  0  1  0  0  3  0  0  0  0  0  0
  192.0710  176.2260  138.1110 C   0  0  0  0  0  2  0  0  0  0  0  0
  189.4250  178.4710  139.6880 C   0  0  2  0  0  3  0  0  0  0  0  0
  191.7770  175.4240  135.4150 C   0  0  0  0  0  2  0  0  0  0  0  0
  191.0140  176.6480  135.9250 C   0  0  2  0  0  3  0  0  0  0  0  0
  190.8440  176.6400  137.4000 N   0  0  1  0  0  0  0  0  0  0  0  0
  184.3850  175.6310  134.9300 C   0  0  0  0  0  3  0  0  0  0  0  0
  186.6780  176.8380  136.0220 C   0  0  0  0  0  0  0  0  0  0  0  0
  186.0260  177.4090  134.9140 C   0  0  0  0  0  3  0  0  0  0  0  0
  184.8860  176.8090  134.3730 C   0  0  0  0  0  3  0  0  0  0  0  0
  185.0230  175.0510  136.0290 C   0  0  0  0  0  3  0  0  0  0  0  0
  186.1630  175.6510  136.5700 C   0  0  0  0  0  3  0  0  0  0  0  0
  1 12  1  0  0  0  0
  2  6  1  6  0  0  0
  2 16  1  0  0  0  0
  4 13  1  0  0  0  0
  7  9  1  0  0  0  0
  8 17  1  0  0  0  0
  9  5  1  0  0  0  0
 10  8  1  0  0  0  0
 11  7  1  1  0  0  0
 11 14  1  0  0  0  0
 12  2  1  0  0  0  0
 13  5  1  0  0  0  0
 14  4  1  1  0  0  0
 15  1  1  0  0  0  0
 16  3  1  6  0  0  0
 16 11  1  0  0  0  0
 18  6  1  6  0  0  0
 18 11  1  0  0  0  0
 18 14  1  0  0  0  0
 19 20  1  0  0  0  0
 19 10  1  0  0  0  0
 20 15  1  6  0  0  0
 20 21  1  0  0  0  0
 21  3  1  6  0  0  0
 21 17  1  0  0  0  0
 22 26  1  0  0  0  0
 23 27  1  0  0  0  0
 23 12  1  0  0  0  0
 24 23  2  0  0  0  0
 25 24  1  0  0  0  0
 25 22  2  0  0  0  0
 26 27  2  0  0  0  0
M  END
>  <MODEL>
2

>  <REMARK>
 VINA RESULT:      -6.3      2.499      5.955
  Name = 
  1 active torsions:
  status: ('A' for Active; 'I' for Inactive)
    1  A    between atoms: C_9  and  N_15
                            x       y       z     vdW  Elec       q    Type
                         _______ _______ _______ _____ _____    ______ ____

>  <TORSDO>
F 1

$$$$
=
 OpenBabel10272401023D

 27 32  0  0  1  0  0  0  0  0999 V2000
  183.7650  179.5510  139.1610 C   0  0  0  0  0  2  0  0  0  0  0  0
  183.0720  177.1220  139.3580 C   0  0  1  0  0  3  0  0  0  0  0  0
  180.8900  178.2160  138.5210 C   0  0  0  0  0  2  0  0  0  0  0  0
  182.4840  173.5810  136.8990 C   0  0  0  0  0  2  0  0  0  0  0  0
  180.4920  173.9320  135.9040 C   0  0  0  0  0  2  0  0  0  0  0  0
  183.9150  176.8500  138.1940 N   0  0  0  0  0  2  0  0  0  0  0  0
  180.7490  175.9110  136.8030 O   0  0  0  0  0  0  0  0  0  0  0  0
  180.5140  180.0000  135.3820 C   0  0  0  0  0  2  0  0  0  0  0  0
  180.0590  174.7920  136.9380 O   0  0  0  0  0  0  0  0  0  0  0  0
  179.9830  181.1510  136.2350 C   0  0  0  0  0  2  0  0  0  0  0  0
  181.7170  175.8970  137.8270 C   0  0  2  0  0  0  0  0  0  0  0  0
  183.3650  178.4130  139.9880 N   0  0  0  0  0  0  0  0  0  0  0  0
  181.8850  174.0100  135.7050 O   0  0  0  0  0  0  0  0  0  0  0  0
  182.7070  174.7180  137.9200 C   0  0  2  0  0  3  0  0  0  0  0  0
  182.5960  180.5110  139.0230 C   0  0  0  0  0  2  0  0  0  0  0  0
  181.6170  176.9210  138.9490 C   0  0  1  0  0  3  0  0  0  0  0  0
  180.6430  178.7350  136.2320 C   0  0  0  0  0  2  0  0  0  0  0  0
  183.1240  176.0320  137.2640 C   0  0  2  0  0  3  0  0  0  0  0  0
  180.6140  181.1940  137.6310 C   0  0  0  0  0  2  0  0  0  0  0  0
  181.8520  180.2980  137.7060 C   0  0  2  0  0  3  0  0  0  0  0  0
  181.5490  178.8780  137.3900 N   0  0  1  0  0  0  0  0  0  0  0  0
  183.0590  178.8140  144.2140 C   0  0  0  0  0  3  0  0  0  0  0  0
  183.2630  178.5510  141.4210 C   0  0  0  0  0  0  0  0  0  0  0  0
  182.0260  178.8360  142.0270 C   0  0  0  0  0  3  0  0  0  0  0  0
  181.9250  178.9670  143.4140 C   0  0  0  0  0  3  0  0  0  0  0  0
  184.2950  178.5290  143.6280 C   0  0  0  0  0  3  0  0  0  0  0  0
  184.3940  178.3970  142.2400 C   0  0  0  0  0  3  0  0  0  0  0  0
  1 12  1  0  0  0  0
  2  6  1  6  0  0  0
  2 12  1  0  0  0  0
  5  9  1  0  0  0  0
  7  9  1  0  0  0  0
  8 17  1  0  0  0  0
  8 10  1  0  0  0  0
 10 19  1  0  0  0  0
 11  7  1  6  0  0  0
 11 14  1  0  0  0  0
 11 16  1  0  0  0  0
 12 23  1  0  0  0  0
 13  5  1  0  0  0  0
 13  4  1  0  0  0  0
 14  4  1  6  0  0  0
 15  1  1  0  0  0  0
 16  3  1  6  0  0  0
 16  2  1  0  0  0  0
 18 11  1  0  0  0  0
 18 14  1  0  0  0  0
 18  6  1  1  0  0  0
 20 19  1  1  0  0  0
 20 15  1  0  0  0  0
 21 17  1  6  0  0  0
 21 20  1  0  0  0  0
 21  3  1  0  0  0  0
 23 24  2  0  0  0  0
 23 27  1  0  0  0  0
 24 25  1  0  0  0  0
 25 22  2  0  0  0  0
 26 22  1  0  0  0  0
 27 26  2  0  0  0  0
M  END
>  <MODEL>
3

>  <REMARK>
 VINA RESULT:      -6.1      6.926      8.178
  Name = 
  1 active torsions:
  status: ('A' for Active; 'I' for Inactive)
    1  A    between atoms: C_9  and  N_15
                            x       y       z     vdW  Elec       q    Type
                         _______ _______ _______ _____ _____    ______ ____

>  <TORSDO>
F 1

$$$$
=
 OpenBabel10272401023D

 27 32  0  0  1  0  0  0  0  0999 V2000
  182.1390  177.8150  139.7860 C   0  0  0  0  0  2  0  0  0  0  0  0
  183.9300  178.4160  138.0980 C   0  0  1  0  0  3  0  0  0  0  0  0
  184.8600  179.5000  140.2480 C   0  0  0  0  0  2  0  0  0  0  0  0
  187.8770  177.1420  136.7830 C   0  0  0  0  0  2  0  0  0  0  0  0
  189.2680  177.9650  138.3550 C   0  0  0  0  0  2  0  0  0  0  0  0
  184.3190  177.0060  138.1000 N   0  0  0  0  0  2  0  0  0  0  0  0
  187.3690  178.4120  139.3480 O   0  0  0  0  0  0  0  0  0  0  0  0
  185.7100  177.7150  143.2920 C   0  0  0  0  0  2  0  0  0  0  0  0
  188.3640  178.9950  138.7020 O   0  0  0  0  0  0  0  0  0  0  0  0
  184.7760  178.7020  143.9920 C   0  0  0  0  0  2  0  0  0  0  0  0
  186.2880  178.3770  138.4460 C   0  0  2  0  0  0  0  0  0  0  0  0
  182.6000  178.6440  138.6740 N   0  0  0  0  0  0  0  0  0  0  0  0
  188.5980  176.7980  137.9370 O   0  0  0  0  0  0  0  0  0  0  0  0
  186.4600  177.6810  137.0810 C   0  0  2  0  0  3  0  0  0  0  0  0
  182.2250  178.6110  141.0780 C   0  0  0  0  0  2  0  0  0  0  0  0
  185.0550  179.2210  138.7400 C   0  0  1  0  0  3  0  0  0  0  0  0
  185.9610  178.1640  141.8510 C   0  0  0  0  0  2  0  0  0  0  0  0
  185.7810  176.9570  138.2410 C   0  0  2  0  0  3  0  0  0  0  0  0
  183.6250  179.1660  143.0930 C   0  0  0  0  0  2  0  0  0  0  0  0
  183.4980  178.2790  141.8530 C   0  0  2  0  0  3  0  0  0  0  0  0
  184.7360  178.2670  141.0320 N   0  0  1  0  0  0  0  0  0  0  0  0
  180.1090  181.7040  137.0780 C   0  0  0  0  0  3  0  0  0  0  0  0
  181.7530  179.6800  138.1340 C   0  0  0  0  0  0  0  0  0  0  0  0
  181.8710  181.0080  138.5830 C   0  0  0  0  0  3  0  0  0  0  0  0
  181.0540  182.0120  138.0590 C   0  0  0  0  0  3  0  0  0  0  0  0
  179.9820  180.3900  136.6190 C   0  0  0  0  0  3  0  0  0  0  0  0
  180.8000  179.3860  137.1440 C   0  0  0  0  0  3  0  0  0  0  0  0
  1 15  1  0  0  0  0
  2  6  1  1  0  0  0
  2 12  1  0  0  0  0
  2 16  1  0  0  0  0
  4 13  1  0  0  0  0
  5  9  1  0  0  0  0
  8 10  1  0  0  0  0
  9  7  1  0  0  0  0
 11 16  1  0  0  0  0
 11  7  1  1  0  0  0
 12  1  1  0  0  0  0
 13  5  1  0  0  0  0
 14  4  1  1  0  0  0
 14 18  1  0  0  0  0
 14 11  1  0  0  0  0
 16  3  1  1  0  0  0
 17  8  1  0  0  0  0
 18  6  1  6  0  0  0
 18 11  1  0  0  0  0
 19 10  1  0  0  0  0
 20 15  1  6  0  0  0
 20 19  1  0  0  0  0
 21  3  1  1  0  0  0
 21 17  1  0  0  0  0
 21 20  1  0  0  0  0
 22 25  1  0  0  0  0
 23 24  1  0  0  0  0
 23 12  1  0  0  0  0
 25 24  2  0  0  0  0
 26 22  2  0  0  0  0
 26 27  1  0  0  0  0
 27 23  2  0  0  0  0
M  END
>  <MODEL>
4

>  <REMARK>
 VINA RESULT:      -6.1      4.713      7.763
  Name = 
  1 active torsions:
  status: ('A' for Active; 'I' for Inactive)
    1  A    between atoms: C_9  and  N_15
                            x       y       z     vdW  Elec       q    Type
                         _______ _______ _______ _____ _____    ______ ____

>  <TORSDO>
F 1

$$$$
=
 OpenBabel10272401023D

 27 32  0  0  1  0  0  0  0  0999 V2000
  186.9810  176.2560  145.5270 C   0  0  0  0  0  2  0  0  0  0  0  0
  187.6840  177.1870  143.2780 C   0  0  1  0  0  3  0  0  0  0  0  0
  189.3300  178.3790  144.8690 C   0  0  0  0  0  2  0  0  0  0  0  0
  190.7210  176.6380  140.2110 C   0  0  0  0  0  2  0  0  0  0  0  0
  192.5420  177.6630  141.0570 C   0  0  0  0  0  2  0  0  0  0  0  0
  188.2320  175.8650  142.9710 N   0  0  0  0  0  2  0  0  0  0  0  0
  191.2720  177.7580  142.8370 O   0  0  0  0  0  0  0  0  0  0  0  0
  191.7370  176.7170  147.0190 C   0  0  0  0  0  2  0  0  0  0  0  0
  191.7600  178.5150  141.8690 O   0  0  0  0  0  0  0  0  0  0  0  0
  191.0970  177.5150  148.1550 C   0  0  0  0  0  2  0  0  0  0  0  0
  189.9150  177.5510  142.5200 C   0  0  2  0  0  0  0  0  0  0  0  0
  186.7520  177.1710  144.4100 N   0  0  0  0  0  0  0  0  0  0  0  0
  191.9340  176.4050  140.8770 O   0  0  0  0  0  0  0  0  0  0  0  0
  189.5390  176.9190  141.1650 C   0  0  2  0  0  3  0  0  0  0  0  0
  187.5350  177.0320  146.7100 C   0  0  0  0  0  2  0  0  0  0  0  0
  188.8470  178.1630  143.4170 C   0  0  1  0  0  3  0  0  0  0  0  0
  191.2280  177.2270  145.6700 C   0  0  0  0  0  2  0  0  0  0  0  0
  189.5840  176.0680  142.4320 C   0  0  2  0  0  3  0  0  0  0  0  0
  189.6080  177.7880  147.9200 C   0  0  0  0  0  2  0  0  0  0  0  0
  189.0550  176.9130  146.7930 C   0  0  2  0  0  3  0  0  0  0  0  0
  189.7630  177.1300  145.5040 N   0  0  1  0  0  0  0  0  0  0  0  0
  183.3820  179.7700  144.4070 C   0  0  0  0  0  3  0  0  0  0  0  0
  185.6100  178.0540  144.4110 C   0  0  0  0  0  0  0  0  0  0  0  0
  185.1820  178.6710  143.2210 C   0  0  0  0  0  3  0  0  0  0  0  0
  184.0750  179.5230  143.2200 C   0  0  0  0  0  3  0  0  0  0  0  0
  183.7930  179.1630  145.5960 C   0  0  0  0  0  3  0  0  0  0  0  0
  184.9000  178.3100  145.5960 C   0  0  0  0  0  3  0  0  0  0  0  0
  1 15  1  0  0  0  0
  2  6  1  1  0  0  0
  2 16  1  0  0  0  0
  2 12  1  0  0  0  0
  4 13  1  0  0  0  0
  5  9  1  0  0  0  0
  8 10  1  0  0  0  0
  9  7  1  0  0  0  0
 11  7  1  1  0  0  0
 11 16  1  0  0  0  0
 12 23  1  0  0  0  0
 12  1  1  0  0  0  0
 13  5  1  0  0  0  0
 14  4  1  6  0  0  0
 14 18  1  0  0  0  0
 14 11  1  0  0  0  0
 16  3  1  1  0  0  0
 17  8  1  0  0  0  0
 18 11  1  0  0  0  0
 18  6  1  1  0  0  0
 19 10  1  0  0  0  0
 20 15  1  6  0  0  0
 20 19  1  0  0  0  0
 21  3  1  1  0  0  0
 21 17  1  0  0  0  0
 21 20  1  0  0  0  0
 22 26  1  0  0  0  0
 23 27  1  0  0  0  0
 24 23  2  0  0  0  0
 25 24  1  0  0  0  0
 25 22  2  0  0  0  0
 26 27  2  0  0  0  0
M  END
>  <MODEL>
5

>  <REMARK>
 VINA RESULT:      -5.9      4.391      7.837
  Name = 
  1 active torsions:
  status: ('A' for Active; 'I' for Inactive)
    1  A    between atoms: C_9  and  N_15
                            x       y       z     vdW  Elec       q    Type
                         _______ _______ _______ _____ _____    ______ ____

>  <TORSDO>
F 1

$$$$
=
 OpenBabel10272401023D

 27 32  0  0  1  0  0  0  0  0999 V2000
  191.4340  177.9700  140.8530 C   0  0  0  0  0  2  0  0  0  0  0  0
  188.9550  177.7370  140.3880 C   0  0  1  0  0  3  0  0  0  0  0  0
  189.2060  176.3610  142.5570 C   0  0  0  0  0  2  0  0  0  0  0  0
  185.1280  179.3910  141.6350 C   0  0  0  0  0  2  0  0  0  0  0  0
  184.7180  178.3880  143.6110 C   0  0  0  0  0  2  0  0  0  0  0  0
  188.8140  179.1440  140.7610 N   0  0  0  0  0  2  0  0  0  0  0  0
  186.7750  177.6970  143.3280 O   0  0  0  0  0  0  0  0  0  0  0  0
  190.3790  177.6620  145.7360 C   0  0  0  0  0  2  0  0  0  0  0  0
  185.5230  177.2750  143.2820 O   0  0  0  0  0  0  0  0  0  0  0  0
  191.4060  176.5310  145.6860 C   0  0  0  0  0  2  0  0  0  0  0  0
  187.1900  177.8290  141.9870 C   0  0  2  0  0  0  0  0  0  0  0  0
  190.3410  177.3560  140.1000 N   0  0  0  0  0  0  0  0  0  0  0  0
  185.1980  179.5760  143.0240 O   0  0  0  0  0  0  0  0  0  0  0  0
  186.3960  178.7450  141.0340 C   0  0  2  0  0  3  0  0  0  0  0  0
  191.9600  176.9790  141.8780 C   0  0  0  0  0  2  0  0  0  0  0  0
  188.2640  176.8910  141.4520 C   0  0  1  0  0  3  0  0  0  0  0  0
  189.3330  177.4670  144.6380 C   0  0  0  0  0  2  0  0  0  0  0  0
  187.6830  179.2380  141.6940 C   0  0  2  0  0  3  0  0  0  0  0  0
  191.8160  176.1670  144.2550 C   0  0  0  0  0  2  0  0  0  0  0  0
  191.3640  177.2380  143.2600 C   0  0  2  0  0  3  0  0  0  0  0  0
  189.8930  177.4420  143.2710 N   0  0  1  0  0  0  0  0  0  0  0  0
  191.1550  174.4930  137.0580 C   0  0  0  0  0  3  0  0  0  0  0  0
  190.6180  176.3840  139.0700 C   0  0  0  0  0  0  0  0  0  0  0  0
  189.5710  175.8060  138.3300 C   0  0  0  0  0  3  0  0  0  0  0  0
  189.8380  174.8670  137.3310 C   0  0  0  0  0  3  0  0  0  0  0  0
  192.2070  175.0590  137.7830 C   0  0  0  0  0  3  0  0  0  0  0  0
  191.9390  175.9990  138.7810 C   0  0  0  0  0  3  0  0  0  0  0  0
  1 15  1  0  0  0  0
  2  6  1  1  0  0  0
  2 16  1  0  0  0  0
  4 13  1  0  0  0  0
  9  7  1  0  0  0  0
  9  5  1  0  0  0  0
 10  8  1  0  0  0  0
 11  7  1  1  0  0  0
 12  2  1  0  0  0  0
 12  1  1  0  0  0  0
 13  5  1  0  0  0  0
 14  4  1  1  0  0  0
 14 18  1  0  0  0  0
 14 11  1  0  0  0  0
 16 11  1  0  0  0  0
 16  3  1  1  0  0  0
 17  8  1  0  0  0  0
 18  6  1  6  0  0  0
 18 11  1  0  0  0  0
 19 10  1  0  0  0  0
 20 15  1  6  0  0  0
 20 21  1  0  0  0  0
 20 19  1  0  0  0  0
 21  3  1  6  0  0  0
 21 17  1  0  0  0  0
 22 25  2  0  0  0  0
 22 26  1  0  0  0  0
 23 12  1  0  0  0  0
 24 23  2  0  0  0  0
 25 24  1  0  0  0  0
 26 27  2  0  0  0  0
 27 23  1  0  0  0  0
M  END
>  <MODEL>
6

>  <REMARK>
 VINA RESULT:      -5.7      3.932      7.746
  Name = 
  1 active torsions:
  status: ('A' for Active; 'I' for Inactive)
    1  A    between atoms: C_9  and  N_15
                            x       y       z     vdW  Elec       q    Type
                         _______ _______ _______ _____ _____    ______ ____

>  <TORSDO>
F 1

$$$$
=
 OpenBabel10272401023D

 27 32  0  0  1  0  0  0  0  0999 V2000
  188.9420  178.5440  137.5930 C   0  0  0  0  0  2  0  0  0  0  0  0
  190.1350  176.3230  137.8430 C   0  0  1  0  0  3  0  0  0  0  0  0
  187.7170  175.5600  137.3590 C   0  0  0  0  0  2  0  0  0  0  0  0
  191.8460  173.1320  135.4300 C   0  0  0  0  0  2  0  0  0  0  0  0
  190.0550  171.9440  134.7480 C   0  0  0  0  0  2  0  0  0  0  0  0
  190.7860  176.5970  136.5620 N   0  0  0  0  0  2  0  0  0  0  0  0
  188.9900  173.6370  135.6360 O   0  0  0  0  0  0  0  0  0  0  0  0
  185.8450  176.3260  134.3460 C   0  0  0  0  0  2  0  0  0  0  0  0
  189.2800  172.3650  135.8510 O   0  0  0  0  0  0  0  0  0  0  0  0
  184.7770  176.8770  135.2910 C   0  0  0  0  0  2  0  0  0  0  0  0
  189.8180  174.3760  136.5050 C   0  0  2  0  0  0  0  0  0  0  0  0
  189.5350  177.5170  138.4470 N   0  0  0  0  0  0  0  0  0  0  0  0
  190.9770  172.9320  134.3460 O   0  0  0  0  0  0  0  0  0  0  0  0
  191.3480  174.2000  136.4290 C   0  0  2  0  0  3  0  0  0  0  0  0
  187.4270  178.4340  137.6480 C   0  0  0  0  0  2  0  0  0  0  0  0
  189.1790  175.1500  137.6500 C   0  0  1  0  0  3  0  0  0  0  0  0
  186.9080  175.5680  135.1430 C   0  0  0  0  0  2  0  0  0  0  0  0
  190.6670  175.3820  135.7440 C   0  0  2  0  0  3  0  0  0  0  0  0
  185.3690  177.4600  136.5780 C   0  0  0  0  0  2  0  0  0  0  0  0
  186.8810  177.6570  136.4510 C   0  0  2  0  0  3  0  0  0  0  0  0
  187.5990  176.3910  136.1570 N   0  0  1  0  0  0  0  0  0  0  0  0
  189.5440  177.9730  142.6790 C   0  0  0  0  0  3  0  0  0  0  0  0
  189.5400  177.6730  139.8830 C   0  0  0  0  0  0  0  0  0  0  0  0
  188.4330  178.2330  140.5460 C   0  0  0  0  0  3  0  0  0  0  0  0
  188.4370  178.3820  141.9350 C   0  0  0  0  0  3  0  0  0  0  0  0
  190.6500  177.4130  142.0350 C   0  0  0  0  0  3  0  0  0  0  0  0
  190.6460  177.2630  140.6460 C   0  0  0  0  0  3  0  0  0  0  0  0
  1 15  1  0  0  0  0
  1 12  1  0  0  0  0
  2  6  1  6  0  0  0
  2 12  1  0  0  0  0
  5  9  1  0  0  0  0
  7  9  1  0  0  0  0
  8 17  1  0  0  0  0
  8 10  1  0  0  0  0
 10 19  1  0  0  0  0
 11  7  1  6  0  0  0
 11 16  1  0  0  0  0
 12 23  1  0  0  0  0
 13  5  1  0  0  0  0
 13  4  1  0  0  0  0
 14  4  1  6  0  0  0
 14 11  1  0  0  0  0
 16  3  1  6  0  0  0
 16  2  1  0  0  0  0
 18 14  1  0  0  0  0
 18 11  1  0  0  0  0
 18  6  1  1  0  0  0
 20 19  1  1  0  0  0
 20 15  1  0  0  0  0
 21 17  1  6  0  0  0
 21 20  1  0  0  0  0
 21  3  1  0  0  0  0
 23 24  2  0  0  0  0
 23 27  1  0  0  0  0
 24 25  1  0  0  0  0
 25 22  2  0  0  0  0
 26 22  1  0  0  0  0
 27 26  2  0  0  0  0
M  END
>  <MODEL>
7

>  <REMARK>
 VINA RESULT:      -5.6      1.522      1.906
  Name = 
  1 active torsions:
  status: ('A' for Active; 'I' for Inactive)
    1  A    between atoms: C_9  and  N_15
                            x       y       z     vdW  Elec       q    Type
                         _______ _______ _______ _____ _____    ______ ____

>  <TORSDO>
F 1

$$$$
=
 OpenBabel10272401023D

 27 32  0  0  1  0  0  0  0  0999 V2000
  190.2260  178.6750  144.1650 C   0  0  0  0  0  2  0  0  0  0  0  0
  191.3450  177.1070  142.5200 C   0  0  1  0  0  3  0  0  0  0  0  0
  188.8610  176.4670  142.2380 C   0  0  0  0  0  2  0  0  0  0  0  0
  192.1450  176.7110  138.2620 C   0  0  0  0  0  2  0  0  0  0  0  0
  190.1850  176.0040  137.4010 C   0  0  0  0  0  2  0  0  0  0  0  0
  191.6080  178.2750  141.6790 N   0  0  0  0  0  2  0  0  0  0  0  0
  189.4970  176.4500  139.4310 O   0  0  0  0  0  0  0  0  0  0  0  0
  186.2300  178.7190  141.1530 C   0  0  0  0  0  2  0  0  0  0  0  0
  189.7810  175.4360  138.6310 O   0  0  0  0  0  0  0  0  0  0  0  0
  185.5060  178.3020  142.4320 C   0  0  0  0  0  2  0  0  0  0  0  0
  190.5720  176.5420  140.3370 C   0  0  2  0  0  0  0  0  0  0  0  0
  190.9970  177.4620  143.9000 N   0  0  0  0  0  0  0  0  0  0  0  0
  190.9920  177.1440  137.5890 O   0  0  0  0  0  0  0  0  0  0  0  0
  192.0050  176.7280  139.8000 C   0  0  2  0  0  3  0  0  0  0  0  0
  188.7900  178.3000  144.4880 C   0  0  0  0  0  2  0  0  0  0  0  0
  190.3250  176.2260  141.8060 C   0  0  1  0  0  3  0  0  0  0  0  0
  187.4450  177.8190  140.9210 C   0  0  0  0  0  2  0  0  0  0  0  0
  191.2050  177.9250  140.3100 C   0  0  2  0  0  3  0  0  0  0  0  0
  186.4700  177.9610  143.5730 C   0  0  0  0  0  2  0  0  0  0  0  0
  187.8870  178.4470  143.2640 C   0  0  2  0  0  3  0  0  0  0  0  0
  188.4340  177.8520  142.0180 N   0  0  1  0  0  0  0  0  0  0  0  0
  192.2650  174.9630  147.1040 C   0  0  0  0  0  3  0  0  0  0  0  0
  191.4250  176.6140  144.9870 C   0  0  0  0  0  0  0  0  0  0  0  0
  191.9730  175.3440  144.7320 C   0  0  0  0  0  3  0  0  0  0  0  0
  192.3900  174.5250  145.7840 C   0  0  0  0  0  3  0  0  0  0  0  0
  191.7240  176.2220  147.3730 C   0  0  0  0  0  3  0  0  0  0  0  0
  191.3080  177.0420  146.3210 C   0  0  0  0  0  3  0  0  0  0  0  0
  1 15  1  0  0  0  0
  2  6  1  6  0  0  0
  2 12  1  0  0  0  0
  5 13  1  0  0  0  0
  5  9  1  0  0  0  0
  8 10  1  0  0  0  0
  9  7  1  0  0  0  0
 10 19  1  0  0  0  0
 11  7  1  6  0  0  0
 11 16  1  0  0  0  0
 12  1  1  0  0  0  0
 12 23  1  0  0  0  0
 13  4  1  0  0  0  0
 14  4  1  6  0  0  0
 14 18  1  0  0  0  0
 14 11  1  0  0  0  0
 16  3  1  1  0  0  0
 16  2  1  0  0  0  0
 17  8  1  0  0  0  0
 18 11  1  0  0  0  0
 18  6  1  1  0  0  0
 20 19  1  1  0  0  0
 20 15  1  0  0  0  0
 21 17  1  6  0  0  0
 21  3  1  0  0  0  0
 21 20  1  0  0  0  0
 22 26  1  0  0  0  0
 23 27  1  0  0  0  0
 24 23  2  0  0  0  0
 24 25  1  0  0  0  0
 25 22  2  0  0  0  0
 27 26  2  0  0  0  0
M  END
>  <MODEL>
8

>  <REMARK>
 VINA RESULT:      -5.6      2.916      5.039
  Name = 
  1 active torsions:
  status: ('A' for Active; 'I' for Inactive)
    1  A    between atoms: C_9  and  N_15
                            x       y       z     vdW  Elec       q    Type
                         _______ _______ _______ _____ _____    ______ ____

>  <TORSDO>
F 1

$$$$
=
 OpenBabel10272401023D

 27 32  0  0  1  0  0  0  0  0999 V2000
  192.9660  173.7180  137.2080 C   0  0  0  0  0  2  0  0  0  0  0  0
  192.1630  176.1140  137.3820 C   0  0  1  0  0  3  0  0  0  0  0  0
  190.7690  175.2450  135.3910 C   0  0  0  0  0  2  0  0  0  0  0  0
  188.8420  178.4430  138.9580 C   0  0  0  0  0  2  0  0  0  0  0  0
  187.1970  178.1400  137.4460 C   0  0  0  0  0  2  0  0  0  0  0  0
  191.4750  175.7300  138.6150 N   0  0  0  0  0  2  0  0  0  0  0  0
  188.6160  176.6660  136.6680 O   0  0  0  0  0  0  0  0  0  0  0  0
  188.4130  172.4870  135.5320 C   0  0  0  0  0  2  0  0  0  0  0  0
  188.1170  177.8630  136.4100 O   0  0  0  0  0  0  0  0  0  0  0  0
  189.2140  171.8970  134.3730 C   0  0  0  0  0  2  0  0  0  0  0  0
  189.9180  176.8850  137.1610 C   0  0  2  0  0  0  0  0  0  0  0  0
  193.1810  175.1440  136.9680 N   0  0  0  0  0  0  0  0  0  0  0  0
  187.6730  177.7100  138.7010 O   0  0  0  0  0  0  0  0  0  0  0  0
  190.1210  177.7790  138.4000 C   0  0  2  0  0  3  0  0  0  0  0  0
  192.5850  173.0390  135.9030 C   0  0  0  0  0  2  0  0  0  0  0  0
  191.1070  176.4280  136.3270 C   0  0  1  0  0  3  0  0  0  0  0  0
  188.8500  173.9300  135.7900 C   0  0  0  0  0  2  0  0  0  0  0  0
  190.1060  176.2580  138.5340 C   0  0  2  0  0  3  0  0  0  0  0  0
  190.6970  172.2800  134.4230 C   0  0  0  0  0  2  0  0  0  0  0  0
  191.0730  172.8630  135.7870 C   0  0  2  0  0  3  0  0  0  0  0  0
  190.2820  174.0740  136.1260 N   0  0  1  0  0  0  0  0  0  0  0  0
  196.7560  176.4940  135.0930 C   0  0  0  0  0  3  0  0  0  0  0  0
  194.3940  175.6040  136.3340 C   0  0  0  0  0  0  0  0  0  0  0  0
  195.6090  174.9260  136.5350 C   0  0  0  0  0  3  0  0  0  0  0  0
  196.7820  175.3690  135.9200 C   0  0  0  0  0  3  0  0  0  0  0  0
  195.5560  177.1770  134.8810 C   0  0  0  0  0  3  0  0  0  0  0  0
  194.3830  176.7330  135.4970 C   0  0  0  0  0  3  0  0  0  0  0  0
  2  6  1  1  0  0  0
  5 13  1  0  0  0  0
  8 17  1  0  0  0  0
  9  7  1  0  0  0  0
  9  5  1  0  0  0  0
 10 19  1  0  0  0  0
 10  8  1  0  0  0  0
 11  7  1  6  0  0  0
 11 14  1  0  0  0  0
 11 18  1  0  0  0  0
 12  1  1  0  0  0  0
 12  2  1  0  0  0  0
 13  4  1  0  0  0  0
 14 18  1  0  0  0  0
 14  4  1  1  0  0  0
 15  1  1  0  0  0  0
 16  3  1  1  0  0  0
 16 11  1  0  0  0  0
 16  2  1  0  0  0  0
 17 21  1  0  0  0  0
 18  6  1  6  0  0  0
 20 19  1  6  0  0  0
 20 15  1  0  0  0  0
 20 21  1  0  0  0  0
 21  3  1  6  0  0  0
 22 25  1  0  0  0  0
 23 24  1  0  0  0  0
 23 12  1  0  0  0  0
 25 24  2  0  0  0  0
 26 22  2  0  0  0  0
 26 27  1  0  0  0  0
 27 23  2  0  0  0  0
M  END
>  <MODEL>
9

>  <REMARK>
 VINA RESULT:      -5.5      2.713      6.359
  Name = 
  1 active torsions:
  status: ('A' for Active; 'I' for Inactive)
    1  A    between atoms: C_9  and  N_15
                            x       y       z     vdW  Elec       q    Type
                         _______ _______ _______ _____ _____    ______ ____

>  <TORSDO>
F 1

$$$$
