=
 OpenBabel10272413533D

 30 34  0  0  1  0  0  0  0  0999 V2000
  182.3440  178.0060  139.4340 C   0  0  1  0  0  3  0  0  0  0  0  0
  182.5610  175.7110  138.3510 C   0  0  1  0  0  3  0  0  0  0  0  0
  182.6620  179.4030  139.0810 N   0  0  0  0  0  0  0  0  0  0  0  0
  183.5350  174.6770  137.7870 C   0  0  0  0  0  2  0  0  0  0  0  0
  181.7560  175.0530  139.4570 C   0  0  0  0  0  1  0  0  0  0  0  0
  184.9950  178.7340  138.3100 C   0  0  2  0  0  3  0  0  0  0  0  0
  184.3940  175.2870  136.6860 C   0  0  0  0  0  2  0  0  0  0  0  0
  183.3200  176.9410  138.8760 C   0  0  1  0  0  3  0  0  0  0  0  0
  184.0110  179.7770  138.7300 C   0  0  0  0  0  0  0  0  0  0  0  0
  184.3790  180.9820  138.7890 O   0  0  0  0  0  0  0  0  0  0  0  0
  185.1870  176.4640  137.2400 C   0  0  0  0  0  2  0  0  0  0  0  0
  184.2320  177.5210  137.7820 C   0  0  2  0  0  3  0  0  0  0  0  0
  181.6350  180.4270  139.3150 C   0  0  1  0  0  3  0  0  0  0  0  0
  181.8260  181.6260  138.3980 C   0  0  0  0  0  2  0  0  0  0  0  0
  180.7050  180.6530  138.1060 C   0  0  1  0  0  3  0  0  0  0  0  0
  180.0750  178.6930  136.7010 C   0  0  0  0  0  2  0  0  0  0  0  0
  180.8510  180.6750  135.6030 C   0  0  0  0  0  2  0  0  0  0  0  0
  180.4740  179.6890  134.5140 C   0  0  0  0  0  2  0  0  0  0  0  0
  181.0420  179.8450  136.8530 C   0  0  0  0  0  3  0  0  0  0  0  0
  179.9860  178.4310  135.2100 C   0  0  0  0  0  2  0  0  0  0  0  0
  185.7990  178.3790  139.4000 O   0  0  0  0  0  0  0  0  0  0  0  0
  187.1100  178.4780  138.9310 C   0  0  0  0  0  2  0  0  0  0  0  0
  188.0720  178.2120  140.0700 C   0  0  0  0  0  1  0  0  0  0  0  0
  182.0930  177.8450  140.8150 O   0  0  0  0  0  0  0  0  0  0  0  0
  183.3060  177.5570  141.4640 C   0  0  0  0  0  2  0  0  0  0  0  0
  182.7140  178.5150  143.6710 C   0  0  0  0  0  2  0  0  0  0  0  0
  185.0430  178.4810  142.9960 C   0  0  0  0  0  2  0  0  0  0  0  0
  183.6290  178.6380  142.4800 C   0  0  1  0  0  3  0  0  0  0  0  0
  183.3180  179.3680  144.7630 C   0  0  0  0  0  2  0  0  0  0  0  0
  185.1290  179.2370  144.6490 S   0  0  0  0  0  0  0  0  0  0  0  0
  1 24  1  1  0  0  0
  2  8  1  0  0  0  0
  2  5  1  1  0  0  0
  3 13  1  0  0  0  0
  3  1  1  0  0  0  0
  4  2  1  0  0  0  0
  6  9  1  0  0  0  0
  6 21  1  1  0  0  0
  7 11  1  0  0  0  0
  7  4  1  0  0  0  0
  8  1  1  0  0  0  0
  9 10  2  0  0  0  0
  9  3  1  0  0  0  0
 11 12  1  0  0  0  0
 12  6  1  0  0  0  0
 12  8  1  0  0  0  0
 14 13  1  0  0  0  0
 15 14  1  0  0  0  0
 15 13  1  0  0  0  0
 16 19  1  0  0  0  0
 17 19  1  0  0  0  0
 18 20  1  0  0  0  0
 18 17  1  0  0  0  0
 19 15  1  0  0  0  0
 20 16  1  0  0  0  0
 22 21  1  0  0  0  0
 22 23  1  0  0  0  0
 24 25  1  0  0  0  0
 25 28  1  0  0  0  0
 26 29  1  0  0  0  0
 27 30  1  0  0  0  0
 28 27  1  0  0  0  0
 28 26  1  0  0  0  0
 30 29  1  0  0  0  0
M  END
>  <MODEL>
1

>  <REMARK>
 VINA RESULT:      -4.3      0.000      0.000
  Name = 
  7 active torsions:
  status: ('A' for Active; 'I' for Inactive)
    1  A    between atoms: C_1  and  O_6
    2  A    between atoms: O_3  and  C_11
    3  A    between atoms: O_3  and  C_19
    4  A    between atoms: N_4  and  C_13
    5  A    between atoms: O_6  and  C_8
    6  A    between atoms: C_8  and  C_12
    7  A    between atoms: C_16  and  C_30
                            x       y       z     vdW  Elec       q    Type
                         _______ _______ _______ _____ _____    ______ ____

>  <TORSDO>
F 7

$$$$
=
 OpenBabel10272413533D

 30 34  0  0  1  0  0  0  0  0999 V2000
  183.2610  178.4100  139.1460 C   0  0  1  0  0  3  0  0  0  0  0  0
  185.2030  177.2940  137.9350 C   0  0  1  0  0  3  0  0  0  0  0  0
  182.2770  178.0420  140.1830 N   0  0  0  0  0  0  0  0  0  0  0  0
  185.6120  176.1460  137.0130 C   0  0  0  0  0  2  0  0  0  0  0  0
  185.6160  178.6000  137.2800 C   0  0  0  0  0  1  0  0  0  0  0  0
  181.7550  175.8540  138.9880 C   0  0  2  0  0  3  0  0  0  0  0  0
  185.1990  174.8030  137.6040 C   0  0  0  0  0  2  0  0  0  0  0  0
  183.6880  177.2630  138.1980 C   0  0  1  0  0  3  0  0  0  0  0  0
  181.4100  176.9040  139.9940 C   0  0  0  0  0  0  0  0  0  0  0  0
  180.3450  176.7910  140.6600 O   0  0  0  0  0  0  0  0  0  0  0  0
  183.6890  174.7660  137.7990 C   0  0  0  0  0  2  0  0  0  0  0  0
  183.2620  175.8880  138.7400 C   0  0  2  0  0  3  0  0  0  0  0  0
  182.0530  178.9820  141.2890 C   0  0  1  0  0  3  0  0  0  0  0  0
  182.1620  178.2890  142.6390 C   0  0  0  0  0  2  0  0  0  0  0  0
  183.2910  179.1860  142.1840 C   0  0  1  0  0  3  0  0  0  0  0  0
  185.5480  179.1780  141.1250 C   0  0  0  0  0  2  0  0  0  0  0  0
  185.2050  177.8330  143.0770 C   0  0  0  0  0  2  0  0  0  0  0  0
  186.6670  177.6940  142.7000 C   0  0  0  0  0  2  0  0  0  0  0  0
  184.5100  178.3340  141.8300 C   0  0  0  0  0  3  0  0  0  0  0  0
  186.8840  178.5440  141.4600 C   0  0  0  0  0  2  0  0  0  0  0  0
  181.0510  176.0890  137.8010 O   0  0  0  0  0  0  0  0  0  0  0  0
  179.9830  175.1910  137.8300 C   0  0  0  0  0  2  0  0  0  0  0  0
  180.3170  173.9860  136.9760 C   0  0  0  0  0  1  0  0  0  0  0  0
  182.8930  179.5830  138.4500 O   0  0  0  0  0  0  0  0  0  0  0  0
  181.8250  179.2810  137.5870 C   0  0  0  0  0  2  0  0  0  0  0  0
  181.4980  181.6700  138.1560 C   0  0  0  0  0  2  0  0  0  0  0  0
  180.7450  180.8670  135.9950 C   0  0  0  0  0  2  0  0  0  0  0  0
  180.9030  180.4790  137.4490 C   0  0  1  0  0  3  0  0  0  0  0  0
  180.7240  182.8780  137.6810 C   0  0  0  0  0  2  0  0  0  0  0  0
  180.3120  182.6340  135.9250 S   0  0  0  0  0  0  0  0  0  0  0  0
  1 24  1  6  0  0  0
  1  3  1  0  0  0  0
  2  5  1  6  0  0  0
  2  8  1  0  0  0  0
  3 13  1  0  0  0  0
  4  7  1  0  0  0  0
  4  2  1  0  0  0  0
  6 21  1  6  0  0  0
  6  9  1  0  0  0  0
  7 11  1  0  0  0  0
  8 12  1  0  0  0  0
  8  1  1  0  0  0  0
  9  3  1  0  0  0  0
  9 10  2  0  0  0  0
 11 12  1  0  0  0  0
 12  6  1  0  0  0  0
 13 15  1  0  0  0  0
 13 14  1  0  0  0  0
 15 14  1  0  0  0  0
 16 20  1  0  0  0  0
 16 19  1  0  0  0  0
 18 17  1  0  0  0  0
 19 15  1  0  0  0  0
 19 17  1  0  0  0  0
 20 18  1  0  0  0  0
 21 22  1  0  0  0  0
 23 22  1  0  0  0  0
 25 24  1  0  0  0  0
 27 28  1  0  0  0  0
 28 25  1  0  0  0  0
 28 26  1  0  0  0  0
 29 26  1  0  0  0  0
 30 27  1  0  0  0  0
 30 29  1  0  0  0  0
M  END
>  <MODEL>
2

>  <REMARK>
 VINA RESULT:      -4.1      2.484      6.080
  Name = 
  7 active torsions:
  status: ('A' for Active; 'I' for Inactive)
    1  A    between atoms: C_1  and  O_6
    2  A    between atoms: O_3  and  C_11
    3  A    between atoms: O_3  and  C_19
    4  A    between atoms: N_4  and  C_13
    5  A    between atoms: O_6  and  C_8
    6  A    between atoms: C_8  and  C_12
    7  A    between atoms: C_16  and  C_30
                            x       y       z     vdW  Elec       q    Type
                         _______ _______ _______ _____ _____    ______ ____

>  <TORSDO>
F 7

$$$$
=
 OpenBabel10272413533D

 30 34  0  0  1  0  0  0  0  0999 V2000
  182.5700  178.3230  137.8630 C   0  0  1  0  0  3  0  0  0  0  0  0
  181.1390  176.4260  136.9460 C   0  0  1  0  0  3  0  0  0  0  0  0
  183.4950  178.5310  138.9930 N   0  0  0  0  0  0  0  0  0  0  0  0
  179.9820  175.4730  137.2400 C   0  0  0  0  0  2  0  0  0  0  0  0
  180.7980  177.2160  135.6950 C   0  0  0  0  0  1  0  0  0  0  0  0
  181.8350  177.4820  140.6160 C   0  0  2  0  0  3  0  0  0  0  0  0
  180.2540  174.6670  138.5050 C   0  0  0  0  0  2  0  0  0  0  0  0
  181.3870  177.3630  138.1400 C   0  0  1  0  0  3  0  0  0  0  0  0
  183.0520  178.3080  140.3490 C   0  0  0  0  0  0  0  0  0  0  0  0
  183.6740  178.8180  141.3200 O   0  0  0  0  0  0  0  0  0  0  0  0
  180.4330  175.6080  139.6900 C   0  0  0  0  0  2  0  0  0  0  0  0
  181.6030  176.5510  139.4280 C   0  0  2  0  0  3  0  0  0  0  0  0
  184.7850  179.1790  138.7220 C   0  0  1  0  0  3  0  0  0  0  0  0
  185.9480  178.3310  139.2140 C   0  0  0  0  0  2  0  0  0  0  0  0
  185.6690  178.3980  137.7290 C   0  0  1  0  0  3  0  0  0  0  0  0
  184.7540  177.1350  135.7840 C   0  0  0  0  0  2  0  0  0  0  0  0
  186.1470  175.9670  137.3440 C   0  0  0  0  0  2  0  0  0  0  0  0
  185.8030  174.9850  136.2410 C   0  0  0  0  0  2  0  0  0  0  0  0
  185.1050  177.0600  137.2530 C   0  0  0  0  0  3  0  0  0  0  0  0
  184.9160  175.7240  135.2540 C   0  0  0  0  0  2  0  0  0  0  0  0
  180.7320  178.3200  140.8130 O   0  0  0  0  0  0  0  0  0  0  0  0
  180.4720  178.2600  142.1820 C   0  0  0  0  0  2  0  0  0  0  0  0
  180.2290  179.6600  142.7090 C   0  0  0  0  0  1  0  0  0  0  0  0
  182.1570  179.5400  137.2770 O   0  0  0  0  0  0  0  0  0  0  0  0
  181.1310  180.0950  138.0610 C   0  0  0  0  0  2  0  0  0  0  0  0
  181.1000  182.5520  137.7490 C   0  0  0  0  0  2  0  0  0  0  0  0
  180.6820  181.1240  135.8340 C   0  0  0  0  0  2  0  0  0  0  0  0
  180.4710  181.2490  137.3280 C   0  0  1  0  0  3  0  0  0  0  0  0
  180.6550  183.5860  136.7400 C   0  0  0  0  0  2  0  0  0  0  0  0
  180.5760  182.7890  135.1070 S   0  0  0  0  0  0  0  0  0  0  0  0
  1 24  1  1  0  0  0
  1  8  1  0  0  0  0
  1  3  1  0  0  0  0
  2  5  1  6  0  0  0
  2  4  1  0  0  0  0
  2  8  1  0  0  0  0
  3  9  1  0  0  0  0
  4  7  1  0  0  0  0
  6 21  1  6  0  0  0
  7 11  1  0  0  0  0
  8 12  1  0  0  0  0
  9  6  1  0  0  0  0
  9 10  2  0  0  0  0
 12 11  1  0  0  0  0
 12  6  1  0  0  0  0
 13  3  1  0  0  0  0
 13 14  1  0  0  0  0
 15 13  1  0  0  0  0
 15 14  1  0  0  0  0
 16 19  1  0  0  0  0
 18 17  1  0  0  0  0
 19 17  1  0  0  0  0
 19 15  1  0  0  0  0
 20 16  1  0  0  0  0
 20 18  1  0  0  0  0
 21 22  1  0  0  0  0
 22 23  1  0  0  0  0
 24 25  1  0  0  0  0
 27 28  1  0  0  0  0
 28 26  1  0  0  0  0
 28 25  1  0  0  0  0
 29 26  1  0  0  0  0
 30 27  1  0  0  0  0
 30 29  1  0  0  0  0
M  END
>  <MODEL>
3

>  <REMARK>
 VINA RESULT:      -3.8      2.769      5.712
  Name = 
  7 active torsions:
  status: ('A' for Active; 'I' for Inactive)
    1  A    between atoms: C_1  and  O_6
    2  A    between atoms: O_3  and  C_11
    3  A    between atoms: O_3  and  C_19
    4  A    between atoms: N_4  and  C_13
    5  A    between atoms: O_6  and  C_8
    6  A    between atoms: C_8  and  C_12
    7  A    between atoms: C_16  and  C_30
                            x       y       z     vdW  Elec       q    Type
                         _______ _______ _______ _____ _____    ______ ____

>  <TORSDO>
F 7

$$$$
=
 OpenBabel10272413533D

 30 34  0  0  1  0  0  0  0  0999 V2000
  188.9710  175.9610  135.8530 C   0  0  1  0  0  3  0  0  0  0  0  0
  191.0250  174.4640  136.0130 C   0  0  1  0  0  3  0  0  0  0  0  0
  188.6570  177.3910  136.0390 N   0  0  0  0  0  0  0  0  0  0  0  0
  192.1180  173.9290  136.9370 C   0  0  0  0  0  2  0  0  0  0  0  0
  190.2740  173.2800  135.4290 C   0  0  0  0  0  1  0  0  0  0  0  0
  189.9190  177.4360  138.2520 C   0  0  2  0  0  3  0  0  0  0  0  0
  192.8930  175.0750  137.5780 C   0  0  0  0  0  2  0  0  0  0  0  0
  190.0740  175.3960  136.7820 C   0  0  1  0  0  3  0  0  0  0  0  0
  188.9450  178.0440  137.2940 C   0  0  0  0  0  0  0  0  0  0  0  0
  188.3680  179.1210  137.6040 O   0  0  0  0  0  0  0  0  0  0  0  0
  191.9470  175.9510  138.3870 C   0  0  0  0  0  2  0  0  0  0  0  0
  190.8630  176.5190  137.4770 C   0  0  2  0  0  3  0  0  0  0  0  0
  187.8500  178.0620  135.0110 C   0  0  1  0  0  3  0  0  0  0  0  0
  186.8820  177.0960  134.3460 C   0  0  0  0  0  2  0  0  0  0  0  0
  186.3440  178.1020  135.3400 C   0  0  1  0  0  3  0  0  0  0  0  0
  185.4510  178.3830  137.6500 C   0  0  0  0  0  2  0  0  0  0  0  0
  184.7370  176.4820  136.3790 C   0  0  0  0  0  2  0  0  0  0  0  0
  183.9870  176.4360  137.6960 C   0  0  0  0  0  2  0  0  0  0  0  0
  185.9290  177.3810  136.6220 C   0  0  0  0  0  3  0  0  0  0  0  0
  184.4420  177.6390  138.5040 C   0  0  0  0  0  2  0  0  0  0  0  0
  189.2270  176.7200  139.2360 O   0  0  0  0  0  0  0  0  0  0  0  0
  189.5080  177.3830  140.4310 C   0  0  0  0  0  2  0  0  0  0  0  0
  188.2500  178.0530  140.9430 C   0  0  0  0  0  1  0  0  0  0  0  0
  187.8100  175.1560  135.8340 O   0  0  0  0  0  0  0  0  0  0  0  0
  187.7570  174.4100  137.0250 C   0  0  0  0  0  2  0  0  0  0  0  0
  185.6730  173.2540  137.7010 C   0  0  0  0  0  2  0  0  0  0  0  0
  186.4210  173.0680  135.4020 C   0  0  0  0  0  2  0  0  0  0  0  0
  186.9030  173.1710  136.8330 C   0  0  1  0  0  3  0  0  0  0  0  0
  184.7240  172.1900  137.2000 C   0  0  0  0  0  2  0  0  0  0  0  0
  184.8850  172.0930  135.3900 S   0  0  0  0  0  0  0  0  0  0  0  0
  1 24  1  1  0  0  0
  1  3  1  0  0  0  0
  1  8  1  0  0  0  0
  2  5  1  1  0  0  0
  2  8  1  0  0  0  0
  2  4  1  0  0  0  0
  3  9  1  0  0  0  0
  4  7  1  0  0  0  0
  6 21  1  1  0  0  0
  7 11  1  0  0  0  0
  8 12  1  0  0  0  0
  9 10  2  0  0  0  0
  9  6  1  0  0  0  0
 12  6  1  0  0  0  0
 12 11  1  0  0  0  0
 13 15  1  0  0  0  0
 13  3  1  0  0  0  0
 14 13  1  0  0  0  0
 14 15  1  0  0  0  0
 15 19  1  0  0  0  0
 16 20  1  0  0  0  0
 17 19  1  0  0  0  0
 17 18  1  0  0  0  0
 18 20  1  0  0  0  0
 19 16  1  0  0  0  0
 21 22  1  0  0  0  0
 22 23  1  0  0  0  0
 24 25  1  0  0  0  0
 27 28  1  0  0  0  0
 28 25  1  0  0  0  0
 28 26  1  0  0  0  0
 29 26  1  0  0  0  0
 30 27  1  0  0  0  0
 30 29  1  0  0  0  0
M  END
>  <MODEL>
4

>  <REMARK>
 VINA RESULT:      -3.7      4.512      7.299
  Name = 
  7 active torsions:
  status: ('A' for Active; 'I' for Inactive)
    1  A    between atoms: C_1  and  O_6
    2  A    between atoms: O_3  and  C_11
    3  A    between atoms: O_3  and  C_19
    4  A    between atoms: N_4  and  C_13
    5  A    between atoms: O_6  and  C_8
    6  A    between atoms: C_8  and  C_12
    7  A    between atoms: C_16  and  C_30
                            x       y       z     vdW  Elec       q    Type
                         _______ _______ _______ _____ _____    ______ ____

>  <TORSDO>
F 7

$$$$
=
 OpenBabel10272413533D

 30 34  0  0  1  0  0  0  0  0999 V2000
  181.4220  177.7370  137.7770 C   0  0  1  0  0  3  0  0  0  0  0  0
  183.4080  177.0540  136.3360 C   0  0  1  0  0  3  0  0  0  0  0  0
  180.9450  177.4860  139.1510 N   0  0  0  0  0  0  0  0  0  0  0  0
  184.1490  175.8800  135.6970 C   0  0  0  0  0  2  0  0  0  0  0  0
  183.0120  178.0220  135.2360 C   0  0  0  0  0  1  0  0  0  0  0  0
  181.3430  174.9840  138.8890 C   0  0  2  0  0  3  0  0  0  0  0  0
  184.5520  174.8560  136.7520 C   0  0  0  0  0  2  0  0  0  0  0  0
  182.1740  176.5600  137.1080 C   0  0  1  0  0  3  0  0  0  0  0  0
  180.7190  176.1360  139.6080 C   0  0  0  0  0  0  0  0  0  0  0  0
  179.9820  175.9110  140.6070 O   0  0  0  0  0  0  0  0  0  0  0  0
  183.3110  174.3300  137.4630 C   0  0  0  0  0  2  0  0  0  0  0  0
  182.5720  175.4840  138.1320 C   0  0  2  0  0  3  0  0  0  0  0  0
  180.4960  178.6350  139.9490 C   0  0  1  0  0  3  0  0  0  0  0  0
  180.5580  178.3340  141.4390 C   0  0  0  0  0  2  0  0  0  0  0  0
  181.6060  179.2410  140.8320 C   0  0  1  0  0  3  0  0  0  0  0  0
  183.9110  179.2450  139.8820 C   0  0  0  0  0  2  0  0  0  0  0  0
  183.6180  178.5370  142.1520 C   0  0  0  0  0  2  0  0  0  0  0  0
  185.1080  178.5110  141.8720 C   0  0  0  0  0  2  0  0  0  0  0  0
  182.9500  178.5150  140.7950 C   0  0  0  0  0  3  0  0  0  0  0  0
  185.2940  178.9560  140.4320 C   0  0  0  0  0  2  0  0  0  0  0  0
  180.4120  174.4200  138.0080 O   0  0  0  0  0  0  0  0  0  0  0  0
  179.9930  173.2430  138.6290 C   0  0  0  0  0  2  0  0  0  0  0  0
  180.3650  172.0570  137.7620 C   0  0  0  0  0  1  0  0  0  0  0  0
  180.4140  178.2800  136.9500 O   0  0  0  0  0  0  0  0  0  0  0  0
  180.0870  179.5640  137.4200 C   0  0  0  0  0  2  0  0  0  0  0  0
  180.0980  180.7140  135.2250 C   0  0  0  0  0  2  0  0  0  0  0  0
  180.6360  181.9880  137.2170 C   0  0  0  0  0  2  0  0  0  0  0  0
  180.7670  180.6250  136.5730 C   0  0  1  0  0  3  0  0  0  0  0  0
  180.5800  181.9990  134.5940 C   0  0  0  0  0  2  0  0  0  0  0  0
  180.7550  183.2460  135.9070 S   0  0  0  0  0  0  0  0  0  0  0  0
  1 24  1  6  0  0  0
  1  3  1  0  0  0  0
  2  5  1  6  0  0  0
  2  8  1  0  0  0  0
  3  9  1  0  0  0  0
  3 13  1  0  0  0  0
  4  2  1  0  0  0  0
  4  7  1  0  0  0  0
  6 21  1  6  0  0  0
  6  9  1  0  0  0  0
  7 11  1  0  0  0  0
  8  1  1  0  0  0  0
  8 12  1  0  0  0  0
  9 10  2  0  0  0  0
 11 12  1  0  0  0  0
 12  6  1  0  0  0  0
 13 15  1  0  0  0  0
 13 14  1  0  0  0  0
 15 14  1  0  0  0  0
 16 20  1  0  0  0  0
 16 19  1  0  0  0  0
 18 17  1  0  0  0  0
 19 15  1  0  0  0  0
 19 17  1  0  0  0  0
 20 18  1  0  0  0  0
 21 22  1  0  0  0  0
 23 22  1  0  0  0  0
 24 25  1  0  0  0  0
 26 28  1  0  0  0  0
 28 27  1  0  0  0  0
 28 25  1  0  0  0  0
 29 26  1  0  0  0  0
 29 30  1  0  0  0  0
 30 27  1  0  0  0  0
M  END
>  <MODEL>
5

>  <REMARK>
 VINA RESULT:      -3.7      2.902      6.174
  Name = 
  7 active torsions:
  status: ('A' for Active; 'I' for Inactive)
    1  A    between atoms: C_1  and  O_6
    2  A    between atoms: O_3  and  C_11
    3  A    between atoms: O_3  and  C_19
    4  A    between atoms: N_4  and  C_13
    5  A    between atoms: O_6  and  C_8
    6  A    between atoms: C_8  and  C_12
    7  A    between atoms: C_16  and  C_30
                            x       y       z     vdW  Elec       q    Type
                         _______ _______ _______ _____ _____    ______ ____

>  <TORSDO>
F 7

$$$$
=
 OpenBabel10272413533D

 30 34  0  0  1  0  0  0  0  0999 V2000
  184.2880  175.3060  137.3210 C   0  0  1  0  0  3  0  0  0  0  0  0
  186.3400  176.7310  136.8250 C   0  0  1  0  0  3  0  0  0  0  0  0
  183.3360  174.4770  136.5570 N   0  0  0  0  0  0  0  0  0  0  0  0
  186.8670  177.9510  136.0700 C   0  0  0  0  0  2  0  0  0  0  0  0
  186.6300  176.9250  138.3020 C   0  0  0  0  0  1  0  0  0  0  0  0
  183.0400  176.3200  134.8230 C   0  0  2  0  0  3  0  0  0  0  0  0
  186.5810  177.8280  134.5770 C   0  0  0  0  0  2  0  0  0  0  0  0
  184.8330  176.5500  136.5760 C   0  0  1  0  0  3  0  0  0  0  0  0
  182.5850  175.0490  135.4650 C   0  0  0  0  0  0  0  0  0  0  0  0
  181.5310  174.4940  135.0520 O   0  0  0  0  0  0  0  0  0  0  0  0
  185.0800  177.7140  134.3460 C   0  0  0  0  0  2  0  0  0  0  0  0
  184.5380  176.4860  135.0690 C   0  0  2  0  0  3  0  0  0  0  0  0
  183.0120  173.1410  137.0740 C   0  0  1  0  0  3  0  0  0  0  0  0
  183.0720  172.0900  135.9760 C   0  0  0  0  0  2  0  0  0  0  0  0
  184.1890  172.1480  136.9940 C   0  0  1  0  0  3  0  0  0  0  0  0
  186.5860  172.7410  137.3370 C   0  0  0  0  0  2  0  0  0  0  0  0
  185.9510  171.7330  135.2590 C   0  0  0  0  0  2  0  0  0  0  0  0
  187.4560  171.9120  135.2180 C   0  0  0  0  0  2  0  0  0  0  0  0
  185.4590  172.6810  136.3300 C   0  0  0  0  0  3  0  0  0  0  0  0
  187.8590  172.5550  136.5340 C   0  0  0  0  0  2  0  0  0  0  0  0
  182.3260  177.3980  135.3580 O   0  0  0  0  0  0  0  0  0  0  0  0
  181.4490  177.7900  134.3460 C   0  0  0  0  0  2  0  0  0  0  0  0
  181.1250  179.2620  134.5030 C   0  0  0  0  0  1  0  0  0  0  0  0
  183.8140  175.6110  138.6160 O   0  0  0  0  0  0  0  0  0  0  0  0
  183.0070  176.7600  138.5440 C   0  0  0  0  0  2  0  0  0  0  0  0
  183.5340  178.0400  140.5980 C   0  0  0  0  0  2  0  0  0  0  0  0
  181.2330  177.9430  139.8370 C   0  0  0  0  0  2  0  0  0  0  0  0
  182.5190  177.1500  139.9270 C   0  0  1  0  0  3  0  0  0  0  0  0
  182.8360  178.6620  141.7860 C   0  0  0  0  0  2  0  0  0  0  0  0
  181.1070  178.9860  141.3220 S   0  0  0  0  0  0  0  0  0  0  0  0
  1 24  1  1  0  0  0
  2  5  1  1  0  0  0
  3 13  1  0  0  0  0
  3  1  1  0  0  0  0
  4  2  1  0  0  0  0
  6 12  1  0  0  0  0
  6 21  1  1  0  0  0
  6  9  1  0  0  0  0
  7  4  1  0  0  0  0
  8  2  1  0  0  0  0
  8  1  1  0  0  0  0
  9  3  1  0  0  0  0
 10  9  2  0  0  0  0
 11  7  1  0  0  0  0
 11 12  1  0  0  0  0
 12  8  1  0  0  0  0
 14 15  1  0  0  0  0
 14 13  1  0  0  0  0
 15 13  1  0  0  0  0
 17 19  1  0  0  0  0
 18 17  1  0  0  0  0
 18 20  1  0  0  0  0
 19 15  1  0  0  0  0
 19 16  1  0  0  0  0
 20 16  1  0  0  0  0
 22 23  1  0  0  0  0
 22 21  1  0  0  0  0
 25 24  1  0  0  0  0
 25 28  1  0  0  0  0
 26 29  1  0  0  0  0
 27 28  1  0  0  0  0
 27 30  1  0  0  0  0
 28 26  1  0  0  0  0
 30 29  1  0  0  0  0
M  END
>  <MODEL>
6

>  <REMARK>
 VINA RESULT:      -3.7      3.168      6.469
  Name = 
  7 active torsions:
  status: ('A' for Active; 'I' for Inactive)
    1  A    between atoms: C_1  and  O_6
    2  A    between atoms: O_3  and  C_11
    3  A    between atoms: O_3  and  C_19
    4  A    between atoms: N_4  and  C_13
    5  A    between atoms: O_6  and  C_8
    6  A    between atoms: C_8  and  C_12
    7  A    between atoms: C_16  and  C_30
                            x       y       z     vdW  Elec       q    Type
                         _______ _______ _______ _____ _____    ______ ____

>  <TORSDO>
F 7

$$$$
=
 OpenBabel10272413533D

 30 34  0  0  1  0  0  0  0  0999 V2000
  184.1780  176.4370  137.4960 C   0  0  1  0  0  3  0  0  0  0  0  0
  185.2080  176.3680  135.1680 C   0  0  1  0  0  3  0  0  0  0  0  0
  183.8940  177.4580  138.5230 N   0  0  0  0  0  0  0  0  0  0  0  0
  186.4700  176.6290  134.3460 C   0  0  0  0  0  2  0  0  0  0  0  0
  184.8070  174.9160  134.9750 C   0  0  0  0  0  1  0  0  0  0  0  0
  186.2420  178.4180  138.2970 C   0  0  2  0  0  3  0  0  0  0  0  0
  186.9390  178.0690  134.5200 C   0  0  0  0  0  2  0  0  0  0  0  0
  185.4550  176.6800  136.6530 C   0  0  1  0  0  3  0  0  0  0  0  0
  184.9570  178.2800  139.0480 C   0  0  0  0  0  0  0  0  0  0  0  0
  184.8230  178.8760  140.1520 O   0  0  0  0  0  0  0  0  0  0  0  0
  187.2400  178.3410  135.9880 C   0  0  0  0  0  2  0  0  0  0  0  0
  185.9850  178.1130  136.8230 C   0  0  2  0  0  3  0  0  0  0  0  0
  182.5650  177.4580  139.1490 C   0  0  1  0  0  3  0  0  0  0  0  0
  182.0040  178.8680  139.2620 C   0  0  0  0  0  2  0  0  0  0  0  0
  181.4420  177.9400  138.2080 C   0  0  1  0  0  3  0  0  0  0  0  0
  181.4670  177.4040  135.7740 C   0  0  0  0  0  2  0  0  0  0  0  0
  181.2030  179.6930  136.4310 C   0  0  0  0  0  2  0  0  0  0  0  0
  181.1070  179.6560  134.9180 C   0  0  0  0  0  2  0  0  0  0  0  0
  181.8930  178.4050  136.8240 C   0  0  0  0  0  3  0  0  0  0  0  0
  181.2780  178.2060  134.5000 C   0  0  0  0  0  2  0  0  0  0  0  0
  187.1940  177.5390  138.8270 O   0  0  0  0  0  0  0  0  0  0  0  0
  188.1950  178.3600  139.3480 C   0  0  0  0  0  2  0  0  0  0  0  0
  188.2350  178.2090  140.8550 C   0  0  0  0  0  1  0  0  0  0  0  0
  184.1070  175.1240  138.0110 O   0  0  0  0  0  0  0  0  0  0  0  0
  182.7830  174.6660  137.9030 C   0  0  0  0  0  2  0  0  0  0  0  0
  183.5530  172.3790  137.3440 C   0  0  0  0  0  2  0  0  0  0  0  0
  181.2780  173.0150  136.7950 C   0  0  0  0  0  2  0  0  0  0  0  0
  182.6960  173.5350  136.8950 C   0  0  1  0  0  3  0  0  0  0  0  0
  183.1430  171.1920  136.5030 C   0  0  0  0  0  2  0  0  0  0  0  0
  181.3480  171.2890  136.2230 S   0  0  0  0  0  0  0  0  0  0  0  0
  1 24  1  1  0  0  0
  1  3  1  0  0  0  0
  2  5  1  1  0  0  0
  2  8  1  0  0  0  0
  3  9  1  0  0  0  0
  3 13  1  0  0  0  0
  4  7  1  0  0  0  0
  4  2  1  0  0  0  0
  6 21  1  1  0  0  0
  6  9  1  0  0  0  0
  7 11  1  0  0  0  0
  8 12  1  0  0  0  0
  8  1  1  0  0  0  0
  9 10  2  0  0  0  0
 11 12  1  0  0  0  0
 12  6  1  0  0  0  0
 13 14  1  0  0  0  0
 15 13  1  0  0  0  0
 15 14  1  0  0  0  0
 16 19  1  0  0  0  0
 17 19  1  0  0  0  0
 18 17  1  0  0  0  0
 19 15  1  0  0  0  0
 20 18  1  0  0  0  0
 20 16  1  0  0  0  0
 21 22  1  0  0  0  0
 22 23  1  0  0  0  0
 25 24  1  0  0  0  0
 27 28  1  0  0  0  0
 28 26  1  0  0  0  0
 28 25  1  0  0  0  0
 29 26  1  0  0  0  0
 30 29  1  0  0  0  0
 30 27  1  0  0  0  0
M  END
>  <MODEL>
7

>  <REMARK>
 VINA RESULT:      -3.7      3.137      4.919
  Name = 
  7 active torsions:
  status: ('A' for Active; 'I' for Inactive)
    1  A    between atoms: C_1  and  O_6
    2  A    between atoms: O_3  and  C_11
    3  A    between atoms: O_3  and  C_19
    4  A    between atoms: N_4  and  C_13
    5  A    between atoms: O_6  and  C_8
    6  A    between atoms: C_8  and  C_12
    7  A    between atoms: C_16  and  C_30
                            x       y       z     vdW  Elec       q    Type
                         _______ _______ _______ _____ _____    ______ ____

>  <TORSDO>
F 7

$$$$
=
 OpenBabel10272413533D

 30 34  0  0  1  0  0  0  0  0999 V2000
  194.3480  174.8340  137.4260 C   0  0  1  0  0  3  0  0  0  0  0  0
  196.8060  174.2780  137.7970 C   0  0  1  0  0  3  0  0  0  0  0  0
  193.4150  174.9030  136.2850 N   0  0  0  0  0  0  0  0  0  0  0  0
  198.2450  174.6700  137.4640 C   0  0  0  0  0  2  0  0  0  0  0  0
  196.6410  174.3100  139.3060 C   0  0  0  0  0  1  0  0  0  0  0  0
  195.0960  176.2470  134.9220 C   0  0  2  0  0  3  0  0  0  0  0  0
  198.4670  174.6830  135.9560 C   0  0  0  0  0  2  0  0  0  0  0  0
  195.8120  175.2310  137.1130 C   0  0  1  0  0  3  0  0  0  0  0  0
  193.7030  175.7580  135.1580 C   0  0  0  0  0  0  0  0  0  0  0  0
  192.7840  176.1150  134.3720 O   0  0  0  0  0  0  0  0  0  0  0  0
  197.5180  175.6790  135.3020 C   0  0  0  0  0  2  0  0  0  0  0  0
  196.0740  175.2890  135.5980 C   0  0  2  0  0  3  0  0  0  0  0  0
  192.0990  174.2660  136.4280 C   0  0  1  0  0  3  0  0  0  0  0  0
  191.5650  173.7890  135.0860 C   0  0  0  0  0  2  0  0  0  0  0  0
  192.0990  172.7670  136.0650 C   0  0  1  0  0  3  0  0  0  0  0  0
  194.0510  171.3090  136.5910 C   0  0  0  0  0  2  0  0  0  0  0  0
  193.2140  171.3210  134.3470 C   0  0  0  0  0  2  0  0  0  0  0  0
  194.3370  170.3030  134.3910 C   0  0  0  0  0  2  0  0  0  0  0  0
  193.4270  172.2120  135.5510 C   0  0  0  0  0  3  0  0  0  0  0  0
  194.8710  170.2970  135.8130 C   0  0  0  0  0  2  0  0  0  0  0  0
  195.2330  177.5420  135.4340 O   0  0  0  0  0  0  0  0  0  0  0  0
  195.7530  178.2950  134.3810 C   0  0  0  0  0  2  0  0  0  0  0  0
  196.4710  179.5070  134.9370 C   0  0  0  0  0  1  0  0  0  0  0  0
  193.8420  175.4840  138.5730 O   0  0  0  0  0  0  0  0  0  0  0  0
  192.9900  176.5250  138.1650 C   0  0  0  0  0  2  0  0  0  0  0  0
  191.8990  177.2990  140.2490 C   0  0  0  0  0  2  0  0  0  0  0  0
  190.5830  177.1730  138.2170 C   0  0  0  0  0  2  0  0  0  0  0  0
  191.7100  176.5100  138.9790 C   0  0  1  0  0  3  0  0  0  0  0  0
  190.5170  177.5360  140.8140 C   0  0  0  0  0  2  0  0  0  0  0  0
  189.3730  177.7970  139.4240 S   0  0  0  0  0  0  0  0  0  0  0  0
  1 24  1  1  0  0  0
  2  5  1  1  0  0  0
  3 13  1  0  0  0  0
  3  1  1  0  0  0  0
  4  2  1  0  0  0  0
  6  9  1  0  0  0  0
  6 21  1  1  0  0  0
  6 12  1  0  0  0  0
  7  4  1  0  0  0  0
  8  1  1  0  0  0  0
  8  2  1  0  0  0  0
  9  3  1  0  0  0  0
 10  9  2  0  0  0  0
 11 12  1  0  0  0  0
 11  7  1  0  0  0  0
 12  8  1  0  0  0  0
 14 15  1  0  0  0  0
 14 13  1  0  0  0  0
 15 13  1  0  0  0  0
 17 18  1  0  0  0  0
 17 19  1  0  0  0  0
 18 20  1  0  0  0  0
 19 15  1  0  0  0  0
 19 16  1  0  0  0  0
 20 16  1  0  0  0  0
 22 23  1  0  0  0  0
 22 21  1  0  0  0  0
 25 24  1  0  0  0  0
 25 28  1  0  0  0  0
 26 29  1  0  0  0  0
 27 28  1  0  0  0  0
 27 30  1  0  0  0  0
 28 26  1  0  0  0  0
 30 29  1  0  0  0  0
M  END
>  <MODEL>
8

>  <REMARK>
 VINA RESULT:      -3.6      8.851     12.476
  Name = 
  7 active torsions:
  status: ('A' for Active; 'I' for Inactive)
    1  A    between atoms: C_1  and  O_6
    2  A    between atoms: O_3  and  C_11
    3  A    between atoms: O_3  and  C_19
    4  A    between atoms: N_4  and  C_13
    5  A    between atoms: O_6  and  C_8
    6  A    between atoms: C_8  and  C_12
    7  A    between atoms: C_16  and  C_30
                            x       y       z     vdW  Elec       q    Type
                         _______ _______ _______ _____ _____    ______ ____

>  <TORSDO>
F 7

$$$$
=
 OpenBabel10272413533D

 30 34  0  0  1  0  0  0  0  0999 V2000
  182.6880  176.8850  136.6680 C   0  0  1  0  0  3  0  0  0  0  0  0
  180.9750  175.1180  137.3220 C   0  0  1  0  0  3  0  0  0  0  0  0
  183.9690  177.3960  137.1930 N   0  0  0  0  0  0  0  0  0  0  0  0
  179.9840  174.6690  138.3950 C   0  0  0  0  0  2  0  0  0  0  0  0
  180.2170  175.2930  136.0180 C   0  0  0  0  0  1  0  0  0  0  0  0
  182.9970  177.5800  139.5400 C   0  0  2  0  0  3  0  0  0  0  0  0
  180.6820  174.5010  139.7400 C   0  0  0  0  0  2  0  0  0  0  0  0
  181.6670  176.4270  137.7380 C   0  0  1  0  0  3  0  0  0  0  0  0
  184.0500  177.9200  138.5350 C   0  0  0  0  0  0  0  0  0  0  0  0
  184.9980  178.6800  138.8710 O   0  0  0  0  0  0  0  0  0  0  0  0
  181.3080  175.8230  140.1670 C   0  0  0  0  0  2  0  0  0  0  0  0
  182.3220  176.2760  139.1220 C   0  0  2  0  0  3  0  0  0  0  0  0
  185.0840  177.5660  136.2510 C   0  0  1  0  0  3  0  0  0  0  0  0
  186.3900  177.0500  136.8380 C   0  0  0  0  0  2  0  0  0  0  0  0
  185.6930  176.2320  135.7730 C   0  0  1  0  0  3  0  0  0  0  0  0
  184.8280  173.9360  135.3340 C   0  0  0  0  0  2  0  0  0  0  0  0
  186.0920  174.3110  137.3330 C   0  0  0  0  0  2  0  0  0  0  0  0
  185.7650  172.8310  137.2920 C   0  0  0  0  0  2  0  0  0  0  0  0
  185.1010  174.9720  136.4020 C   0  0  0  0  0  3  0  0  0  0  0  0
  184.9600  172.5930  136.0260 C   0  0  0  0  0  2  0  0  0  0  0  0
  182.0640  178.6210  139.6140 O   0  0  0  0  0  0  0  0  0  0  0  0
  182.1280  179.0710  140.9330 C   0  0  0  0  0  2  0  0  0  0  0  0
  180.7270  179.1630  141.5010 C   0  0  0  0  0  1  0  0  0  0  0  0
  182.1190  177.7500  135.7070 O   0  0  0  0  0  0  0  0  0  0  0  0
  181.1180  178.5190  136.3270 C   0  0  0  0  0  2  0  0  0  0  0  0
  180.6960  180.2140  134.5710 C   0  0  0  0  0  2  0  0  0  0  0  0
  180.4850  180.8620  136.8980 C   0  0  0  0  0  2  0  0  0  0  0  0
  181.2650  179.9810  135.9470 C   0  0  1  0  0  3  0  0  0  0  0  0
  180.5540  181.7110  134.4160 C   0  0  0  0  0  2  0  0  0  0  0  0
  180.0660  182.4040  136.0260 S   0  0  0  0  0  0  0  0  0  0  0  0
  1 24  1  1  0  0  0
  1  3  1  0  0  0  0
  1  8  1  0  0  0  0
  2  5  1  6  0  0  0
  2  8  1  0  0  0  0
  2  4  1  0  0  0  0
  3  9  1  0  0  0  0
  4  7  1  0  0  0  0
  6 21  1  6  0  0  0
  7 11  1  0  0  0  0
  8 12  1  0  0  0  0
  9 10  2  0  0  0  0
  9  6  1  0  0  0  0
 12  6  1  0  0  0  0
 12 11  1  0  0  0  0
 13 14  1  0  0  0  0
 13  3  1  0  0  0  0
 15 13  1  0  0  0  0
 15 19  1  0  0  0  0
 15 14  1  0  0  0  0
 16 20  1  0  0  0  0
 16 19  1  0  0  0  0
 18 17  1  0  0  0  0
 19 17  1  0  0  0  0
 20 18  1  0  0  0  0
 21 22  1  0  0  0  0
 22 23  1  0  0  0  0
 24 25  1  0  0  0  0
 26 28  1  0  0  0  0
 28 25  1  0  0  0  0
 28 27  1  0  0  0  0
 29 26  1  0  0  0  0
 29 30  1  0  0  0  0
 30 27  1  0  0  0  0
M  END
>  <MODEL>
9

>  <REMARK>
 VINA RESULT:      -3.5      2.764      6.167
  Name = 
  7 active torsions:
  status: ('A' for Active; 'I' for Inactive)
    1  A    between atoms: C_1  and  O_6
    2  A    between atoms: O_3  and  C_11
    3  A    between atoms: O_3  and  C_19
    4  A    between atoms: N_4  and  C_13
    5  A    between atoms: O_6  and  C_8
    6  A    between atoms: C_8  and  C_12
    7  A    between atoms: C_16  and  C_30
                            x       y       z     vdW  Elec       q    Type
                         _______ _______ _______ _____ _____    ______ ____

>  <TORSDO>
F 7

$$$$
