=
 OpenBabel10262423483D

 34 39  0  0  1  0  0  0  0  0999 V2000
  186.0550  178.0640  143.3220 C   0  0  0  0  0  0  0  0  0  0  0  0
  186.7580  178.3710  140.8540 C   0  0  0  0  0  0  0  0  0  0  0  0
  190.3240  176.9650  138.0440 C   0  0  1  0  0  3  0  0  0  0  0  0
  188.3710  177.7750  142.6490 C   0  0  0  0  0  0  0  0  0  0  0  0
  191.2590  176.9270  140.5450 C   0  0  0  0  0  2  0  0  0  0  0  0
  185.7030  178.9470  140.4780 O   0  0  0  0  0  0  0  0  0  0  0  0
  188.8460  177.1500  140.3740 C   0  0  2  0  0  3  0  0  0  0  0  0
  187.0410  178.1160  142.3110 C   0  0  0  0  0  0  0  0  0  0  0  0
  190.0980  177.0150  139.5610 C   0  0  1  0  0  0  0  0  0  0  0  0
  190.7520  177.3860  141.8490 N   0  0  2  0  0  0  0  0  0  0  0  0
  188.6960  177.2440  143.8980 C   0  0  0  0  0  0  0  0  0  0  0  0
  186.4030  177.6000  144.6010 C   0  0  0  0  0  3  0  0  0  0  0  0
  187.7340  177.9540  139.8720 N   0  0  0  0  0  2  0  0  0  0  0  0
  190.7260  176.2610  142.7920 C   0  0  0  0  0  2  0  0  0  0  0  0
  190.0810  176.6860  144.1280 C   0  0  1  0  0  3  0  0  0  0  0  0
  189.9950  175.7020  138.8130 C   0  0  0  0  0  2  0  0  0  0  0  0
  189.3920  177.8650  141.5650 C   0  0  2  0  0  3  0  0  0  0  0  0
  187.7070  177.1750  144.8840 C   0  0  0  0  0  3  0  0  0  0  0  0
  186.7380  176.9530  136.7960 C   0  0  0  0  0  2  0  0  0  0  0  0
  189.1560  177.5270  137.2790 C   0  0  0  0  0  0  0  0  0  0  0  0
  188.1930  176.5270  136.6750 C   0  0  0  0  0  2  0  0  0  0  0  0
  187.3540  178.9230  135.2810 C   0  0  0  0  0  2  0  0  0  0  0  0
  187.8620  179.6060  136.5410 C   0  0  0  0  0  2  0  0  0  0  0  0
  189.0130  178.8670  137.1760 C   0  0  0  0  0  3  0  0  0  0  0  0
  186.3260  177.8400  135.6190 C   0  0  0  0  0  2  0  0  0  0  0  0
  183.9440  178.8320  144.3480 C   0  0  0  0  0  1  0  0  0  0  0  0
  184.6260  178.4100  143.0600 C   0  0  0  0  0  2  0  0  0  0  0  0
  191.0030  177.6260  144.9190 C   0  0  1  0  0  3  0  0  0  0  0  0
  191.4700  176.5230  147.1500 C   0  0  0  0  0  0  0  0  0  0  0  0
  190.3240  176.8210  147.5780 O   0  0  0  0  0  0  0  0  0  0  0  0
  191.8700  176.8830  145.8270 N   0  0  0  0  0  2  0  0  0  0  0  0
  192.4140  175.7840  148.0260 C   0  0  0  0  0  1  0  0  0  0  0  0
  191.0300  180.1440  144.1560 C   0  0  0  0  0  1  0  0  0  0  0  0
  192.0030  178.6550  143.7960 S   0  0  0  0  0  0  0  0  0  0  0  0
  1 12  1  0  0  0  0
  2  8  1  0  0  0  0
  3 20  1  6  0  0  0
  3 16  1  0  0  0  0
  3  9  1  0  0  0  0
  4 11  2  0  0  0  0
  6  2  2  0  0  0  0
  7 13  1  6  0  0  0
  7 17  1  0  0  0  0
  8  4  1  0  0  0  0
  8  1  2  0  0  0  0
  9 16  1  1  0  0  0
  9  7  1  0  0  0  0
  9  5  1  0  0  0  0
 10  5  1  6  0  0  0
 10 14  1  0  0  0  0
 11 15  1  0  0  0  0
 11 18  1  0  0  0  0
 12 18  2  0  0  0  0
 13  2  1  0  0  0  0
 14 15  1  0  0  0  0
 15 28  1  6  0  0  0
 17 10  1  0  0  0  0
 17  4  1  1  0  0  0
 21 19  1  0  0  0  0
 21 20  1  0  0  0  0
 22 25  1  0  0  0  0
 22 23  1  0  0  0  0
 23 24  1  0  0  0  0
 24 20  2  0  0  0  0
 25 19  1  0  0  0  0
 27  1  1  0  0  0  0
 27 26  1  0  0  0  0
 28 34  1  6  0  0  0
 28 31  1  0  0  0  0
 29 30  2  0  0  0  0
 29 32  1  0  0  0  0
 31 29  1  0  0  0  0
 34 33  1  0  0  0  0
M  END
>  <MODEL>
1

>  <REMARK>
 VINA RESULT:      -8.4      0.000      0.000
  Name = 
  5 active torsions:
  status: ('A' for Active; 'I' for Inactive)
    1  A    between atoms: C_1  and  C_19
    2  A    between atoms: C_3  and  C_13
    3  A    between atoms: C_12  and  N_23
    4  A    between atoms: C_12  and  S_27
    5  A    between atoms: C_12  and  C_28
                            x       y       z     vdW  Elec       q    Type
                         _______ _______ _______ _____ _____    ______ ____

>  <TORSDO>
F 5

$$$$
=
 OpenBabel10262423483D

 34 39  0  0  1  0  0  0  0  0999 V2000
  185.1030  178.5080  143.0990 C   0  0  0  0  0  0  0  0  0  0  0  0
  187.2040  177.5350  144.2490 C   0  0  0  0  0  0  0  0  0  0  0  0
  191.8360  177.1190  143.2690 C   0  0  1  0  0  3  0  0  0  0  0  0
  187.0490  177.8730  141.7910 C   0  0  0  0  0  0  0  0  0  0  0  0
  190.5710  177.2980  140.9250 C   0  0  0  0  0  2  0  0  0  0  0  0
  186.6570  177.2890  145.3560 O   0  0  0  0  0  0  0  0  0  0  0  0
  189.2080  177.8720  142.8530 C   0  0  2  0  0  3  0  0  0  0  0  0
  186.3970  177.9430  143.0440 C   0  0  0  0  0  0  0  0  0  0  0  0
  190.5800  177.4270  142.4440 C   0  0  1  0  0  0  0  0  0  0  0  0
  189.1600  177.2840  140.5040 N   0  0  2  0  0  0  0  0  0  0  0  0
  186.5170  178.4830  140.6540 C   0  0  0  0  0  0  0  0  0  0  0  0
  184.5390  179.0540  141.9350 C   0  0  0  0  0  3  0  0  0  0  0  0
  188.6380  177.4120  144.1160 N   0  0  0  0  0  2  0  0  0  0  0  0
  188.8590  178.5050  139.7460 C   0  0  0  0  0  2  0  0  0  0  0  0
  187.3560  178.5750  139.4010 C   0  0  1  0  0  3  0  0  0  0  0  0
  191.5340  178.5380  142.8310 C   0  0  0  0  0  2  0  0  0  0  0  0
  188.4030  177.2470  141.7630 C   0  0  2  0  0  3  0  0  0  0  0  0
  185.2460  179.0600  140.7260 C   0  0  0  0  0  3  0  0  0  0  0  0
  192.3430  175.4100  146.6220 C   0  0  0  0  0  2  0  0  0  0  0  0
  191.5120  176.8530  144.7150 C   0  0  0  0  0  0  0  0  0  0  0  0
  191.7540  175.4470  145.2200 C   0  0  0  0  0  2  0  0  0  0  0  0
  190.1500  176.4820  147.3970 C   0  0  0  0  0  2  0  0  0  0  0  0
  190.7590  177.8070  146.9660 C   0  0  0  0  0  2  0  0  0  0  0  0
  191.0410  177.8590  145.4850 C   0  0  0  0  0  3  0  0  0  0  0  0
  191.2370  175.4430  147.6810 C   0  0  0  0  0  2  0  0  0  0  0  0
  182.8700  178.8810  144.0870 C   0  0  0  0  0  1  0  0  0  0  0  0
  184.3370  178.6210  144.3760 C   0  0  0  0  0  2  0  0  0  0  0  0
  186.9820  177.5410  138.3280 C   0  0  1  0  0  3  0  0  0  0  0  0
  184.7970  176.8340  137.2620 C   0  0  0  0  0  0  0  0  0  0  0  0
  185.0880  175.6150  137.3890 O   0  0  0  0  0  0  0  0  0  0  0  0
  185.6910  177.8480  137.7210 N   0  0  0  0  0  2  0  0  0  0  0  0
  183.5080  177.2220  136.6340 C   0  0  0  0  0  1  0  0  0  0  0  0
  188.5280  175.6610  137.3300 C   0  0  0  0  0  1  0  0  0  0  0  0
  188.2710  177.4350  137.0460 S   0  0  0  0  0  0  0  0  0  0  0  0
  1 27  1  0  0  0  0
  2  6  2  0  0  0  0
  3 20  1  1  0  0  0
  4  8  2  0  0  0  0
  7 13  1  1  0  0  0
  8  1  1  0  0  0  0
  8  2  1  0  0  0  0
  9  5  1  6  0  0  0
  9 16  1  0  0  0  0
  9  7  1  0  0  0  0
  9  3  1  0  0  0  0
 10 14  1  1  0  0  0
 10  5  1  0  0  0  0
 10 17  1  0  0  0  0
 11 18  2  0  0  0  0
 11  4  1  0  0  0  0
 12  1  2  0  0  0  0
 13  2  1  0  0  0  0
 15 28  1  6  0  0  0
 15 14  1  0  0  0  0
 15 11  1  0  0  0  0
 16  3  1  0  0  0  0
 17  4  1  6  0  0  0
 17  7  1  0  0  0  0
 18 12  1  0  0  0  0
 19 25  1  0  0  0  0
 20 21  1  0  0  0  0
 20 24  2  0  0  0  0
 21 19  1  0  0  0  0
 22 25  1  0  0  0  0
 23 22  1  0  0  0  0
 24 23  1  0  0  0  0
 26 27  1  0  0  0  0
 28 34  1  6  0  0  0
 29 30  2  0  0  0  0
 29 31  1  0  0  0  0
 31 28  1  0  0  0  0
 32 29  1  0  0  0  0
 34 33  1  0  0  0  0
M  END
>  <MODEL>
2

>  <REMARK>
 VINA RESULT:      -8.4      2.396      7.368
  Name = 
  5 active torsions:
  status: ('A' for Active; 'I' for Inactive)
    1  A    between atoms: C_1  and  C_19
    2  A    between atoms: C_3  and  C_13
    3  A    between atoms: C_12  and  N_23
    4  A    between atoms: C_12  and  S_27
    5  A    between atoms: C_12  and  C_28
                            x       y       z     vdW  Elec       q    Type
                         _______ _______ _______ _____ _____    ______ ____

>  <TORSDO>
F 5

$$$$
=
 OpenBabel10262423483D

 34 39  0  0  1  0  0  0  0  0999 V2000
  190.8620  177.5330  141.7750 C   0  0  0  0  0  0  0  0  0  0  0  0
  188.4090  177.4840  140.9650 C   0  0  0  0  0  0  0  0  0  0  0  0
  184.1320  178.5690  142.7330 C   0  0  1  0  0  3  0  0  0  0  0  0
  189.0340  177.4530  143.3700 C   0  0  0  0  0  0  0  0  0  0  0  0
  185.7070  178.0240  144.8190 C   0  0  0  0  0  2  0  0  0  0  0  0
  188.6620  177.1980  139.7650 O   0  0  0  0  0  0  0  0  0  0  0  0
  186.8860  178.3200  142.7150 C   0  0  2  0  0  3  0  0  0  0  0  0
  189.4750  177.4440  142.0280 C   0  0  0  0  0  0  0  0  0  0  0  0
  185.5220  178.3270  143.3360 C   0  0  1  0  0  0  0  0  0  0  0  0
  187.0650  177.4760  144.9780 N   0  0  2  0  0  0  0  0  0  0  0  0
  189.9090  177.7040  144.4280 C   0  0  0  0  0  0  0  0  0  0  0  0
  191.7490  177.7100  142.8490 C   0  0  0  0  0  3  0  0  0  0  0  0
  187.0610  177.8450  141.3450 N   0  0  0  0  0  2  0  0  0  0  0  0
  187.8910  178.4200  145.7410 C   0  0  0  0  0  2  0  0  0  0  0  0
  189.3520  177.9290  145.8140 C   0  0  1  0  0  3  0  0  0  0  0  0
  184.9830  179.7360  143.1930 C   0  0  0  0  0  2  0  0  0  0  0  0
  187.5640  177.3310  143.6040 C   0  0  2  0  0  3  0  0  0  0  0  0
  191.2770  177.8140  144.1640 C   0  0  0  0  0  3  0  0  0  0  0  0
  182.6800  177.3050  139.4590 C   0  0  0  0  0  2  0  0  0  0  0  0
  184.1230  178.3820  141.2390 C   0  0  0  0  0  0  0  0  0  0  0  0
  183.5110  177.1000  140.7170 C   0  0  0  0  0  2  0  0  0  0  0  0
  184.8640  178.0100  138.3240 C   0  0  0  0  0  2  0  0  0  0  0  0
  184.6280  179.3800  138.9390 C   0  0  0  0  0  2  0  0  0  0  0  0
  184.6390  179.3470  140.4460 C   0  0  0  0  0  3  0  0  0  0  0  0
  183.5540  177.2260  138.2060 C   0  0  0  0  0  2  0  0  0  0  0  0
  192.9260  177.3330  140.4330 C   0  0  0  0  0  1  0  0  0  0  0  0
  191.4220  177.5270  140.3900 C   0  0  0  0  0  2  0  0  0  0  0  0
  189.4850  176.7100  146.7390 C   0  0  1  0  0  3  0  0  0  0  0  0
  191.8160  175.8690  147.2570 C   0  0  0  0  0  0  0  0  0  0  0  0
  191.7530  175.0150  146.3330 O   0  0  0  0  0  0  0  0  0  0  0  0
  190.7250  176.7560  147.5060 N   0  0  0  0  0  2  0  0  0  0  0  0
  193.0400  175.9600  148.0930 C   0  0  0  0  0  1  0  0  0  0  0  0
  188.5690  178.0380  148.8180 C   0  0  0  0  0  1  0  0  0  0  0  0
  188.0550  176.5840  147.8620 S   0  0  0  0  0  0  0  0  0  0  0  0
  1  8  2  0  0  0  0
  1 12  1  0  0  0  0
  2 13  1  0  0  0  0
  2  8  1  0  0  0  0
  3 20  1  6  0  0  0
  3 16  1  0  0  0  0
  3  9  1  0  0  0  0
  4 11  2  0  0  0  0
  6  2  2  0  0  0  0
  7 13  1  6  0  0  0
  7  9  1  0  0  0  0
  7 17  1  0  0  0  0
  8  4  1  0  0  0  0
  9 16  1  1  0  0  0
  9  5  1  0  0  0  0
 10  5  1  6  0  0  0
 10 14  1  0  0  0  0
 11 15  1  0  0  0  0
 12 18  2  0  0  0  0
 14 15  1  0  0  0  0
 15 28  1  1  0  0  0
 17  4  1  1  0  0  0
 17 10  1  0  0  0  0
 18 11  1  0  0  0  0
 19 21  1  0  0  0  0
 21 20  1  0  0  0  0
 22 23  1  0  0  0  0
 23 24  1  0  0  0  0
 24 20  2  0  0  0  0
 25 22  1  0  0  0  0
 25 19  1  0  0  0  0
 27 26  1  0  0  0  0
 27  1  1  0  0  0  0
 28 31  1  1  0  0  0
 28 34  1  0  0  0  0
 29 31  1  0  0  0  0
 29 32  1  0  0  0  0
 30 29  2  0  0  0  0
 34 33  1  0  0  0  0
M  END
>  <MODEL>
3

>  <REMARK>
 VINA RESULT:      -8.4      2.496      4.847
  Name = 
  5 active torsions:
  status: ('A' for Active; 'I' for Inactive)
    1  A    between atoms: C_1  and  C_19
    2  A    between atoms: C_3  and  C_13
    3  A    between atoms: C_12  and  N_23
    4  A    between atoms: C_12  and  S_27
    5  A    between atoms: C_12  and  C_28
                            x       y       z     vdW  Elec       q    Type
                         _______ _______ _______ _____ _____    ______ ____

>  <TORSDO>
F 5

$$$$
=
 OpenBabel10262423483D

 34 39  0  0  1  0  0  0  0  0999 V2000
  185.1650  178.3350  144.9150 C   0  0  0  0  0  0  0  0  0  0  0  0
  187.4830  177.2420  145.2500 C   0  0  0  0  0  0  0  0  0  0  0  0
  191.5870  176.9740  142.8670 C   0  0  1  0  0  3  0  0  0  0  0  0
  186.6030  177.8740  143.0130 C   0  0  0  0  0  0  0  0  0  0  0  0
  189.6790  177.4280  141.0550 C   0  0  0  0  0  2  0  0  0  0  0  0
  187.2890  176.8600  146.4340 O   0  0  0  0  0  0  0  0  0  0  0  0
  188.9810  177.7570  143.3600 C   0  0  2  0  0  3  0  0  0  0  0  0
  186.3630  177.7880  144.4030 C   0  0  0  0  0  0  0  0  0  0  0  0
  190.1500  177.3730  142.5050 C   0  0  1  0  0  0  0  0  0  0  0  0
  188.2060  177.4570  141.0850 N   0  0  2  0  0  0  0  0  0  0  0  0
  185.7710  178.6140  142.1700 C   0  0  0  0  0  0  0  0  0  0  0  0
  184.2930  179.0150  144.0490 C   0  0  0  0  0  3  0  0  0  0  0  0
  188.8060  177.1440  144.6740 N   0  0  0  0  0  2  0  0  0  0  0  0
  187.7290  178.7590  140.6030 C   0  0  0  0  0  2  0  0  0  0  0  0
  186.1950  178.8610  140.7410 C   0  0  1  0  0  3  0  0  0  0  0  0
  191.2120  178.4340  142.7100 C   0  0  0  0  0  2  0  0  0  0  0  0
  187.8650  177.2630  142.5010 C   0  0  2  0  0  3  0  0  0  0  0  0
  184.6000  179.1700  142.6920 C   0  0  0  0  0  3  0  0  0  0  0  0
  190.8510  177.2140  146.5850 C   0  0  0  0  0  2  0  0  0  0  0  0
  191.7070  176.5330  144.3010 C   0  0  0  0  0  0  0  0  0  0  0  0
  191.6500  177.6190  145.3540 C   0  0  0  0  0  2  0  0  0  0  0  0
  192.6440  175.4240  146.9620 C   0  0  0  0  0  2  0  0  0  0  0  0
  191.8800  174.5850  145.9500 C   0  0  0  0  0  2  0  0  0  0  0  0
  191.8460  175.2180  144.5820 C   0  0  0  0  0  3  0  0  0  0  0  0
  191.7370  176.4820  147.5960 C   0  0  0  0  0  2  0  0  0  0  0  0
  185.5700  179.3770  147.1170 C   0  0  0  0  0  1  0  0  0  0  0  0
  184.8250  178.2880  146.3680 C   0  0  0  0  0  2  0  0  0  0  0  0
  185.4820  177.9630  139.7200 C   0  0  1  0  0  3  0  0  0  0  0  0
  183.6000  179.5880  139.2400 C   0  0  0  0  0  0  0  0  0  0  0  0
  184.4150  180.5030  138.9500 O   0  0  0  0  0  0  0  0  0  0  0  0
  184.0640  178.2920  139.6200 N   0  0  0  0  0  2  0  0  0  0  0  0
  182.1410  179.8550  139.1800 C   0  0  0  0  0  1  0  0  0  0  0  0
  185.1400  176.8620  137.3550 C   0  0  0  0  0  1  0  0  0  0  0  0
  186.2720  178.0800  138.0830 S   0  0  0  0  0  0  0  0  0  0  0  0
  1 27  1  0  0  0  0
  2  6  2  0  0  0  0
  3 20  1  1  0  0  0
  4  8  2  0  0  0  0
  5 10  1  0  0  0  0
  7 13  1  1  0  0  0
  8  1  1  0  0  0  0
  8  2  1  0  0  0  0
  9  5  1  6  0  0  0
  9 16  1  0  0  0  0
  9  3  1  0  0  0  0
  9  7  1  0  0  0  0
 10 14  1  1  0  0  0
 10 17  1  0  0  0  0
 11 18  2  0  0  0  0
 11  4  1  0  0  0  0
 12  1  2  0  0  0  0
 13  2  1  0  0  0  0
 14 15  1  0  0  0  0
 15 28  1  6  0  0  0
 15 11  1  0  0  0  0
 16  3  1  0  0  0  0
 17  4  1  1  0  0  0
 17  7  1  0  0  0  0
 18 12  1  0  0  0  0
 19 25  1  0  0  0  0
 20 24  2  0  0  0  0
 20 21  1  0  0  0  0
 21 19  1  0  0  0  0
 22 25  1  0  0  0  0
 23 22  1  0  0  0  0
 24 23  1  0  0  0  0
 27 26  1  0  0  0  0
 28 34  1  6  0  0  0
 29 31  1  0  0  0  0
 30 29  2  0  0  0  0
 31 28  1  0  0  0  0
 32 29  1  0  0  0  0
 33 34  1  0  0  0  0
M  END
>  <MODEL>
4

>  <REMARK>
 VINA RESULT:      -8.3      2.532      7.439
  Name = 
  5 active torsions:
  status: ('A' for Active; 'I' for Inactive)
    1  A    between atoms: C_1  and  C_19
    2  A    between atoms: C_3  and  C_13
    3  A    between atoms: C_12  and  N_23
    4  A    between atoms: C_12  and  S_27
    5  A    between atoms: C_12  and  C_28
                            x       y       z     vdW  Elec       q    Type
                         _______ _______ _______ _____ _____    ______ ____

>  <TORSDO>
F 5

$$$$
=
 OpenBabel10262423483D

 34 39  0  0  1  0  0  0  0  0999 V2000
  185.0040  178.4070  142.9480 C   0  0  0  0  0  0  0  0  0  0  0  0
  186.0670  178.6430  140.6040 C   0  0  0  0  0  0  0  0  0  0  0  0
  189.9900  177.1290  138.3870 C   0  0  1  0  0  3  0  0  0  0  0  0
  187.3890  178.0770  142.6310 C   0  0  0  0  0  0  0  0  0  0  0  0
  190.5450  177.1460  140.9990 C   0  0  0  0  0  2  0  0  0  0  0  0
  185.0880  179.2210  140.0620 O   0  0  0  0  0  0  0  0  0  0  0  0
  188.1860  177.3890  140.4670 C   0  0  2  0  0  3  0  0  0  0  0  0
  186.1290  178.4230  142.0930 C   0  0  0  0  0  0  0  0  0  0  0  0
  189.5420  177.2200  139.8520 C   0  0  1  0  0  0  0  0  0  0  0  0
  189.8570  177.6430  142.2020 N   0  0  2  0  0  0  0  0  0  0  0  0
  187.5190  177.5750  143.9270 C   0  0  0  0  0  0  0  0  0  0  0  0
  185.1530  177.9730  144.2750 C   0  0  0  0  0  3  0  0  0  0  0  0
  187.1720  178.1910  139.7880 N   0  0  0  0  0  2  0  0  0  0  0  0
  189.6760  176.5430  143.1570 C   0  0  0  0  0  2  0  0  0  0  0  0
  188.8470  177.0080  144.3730 C   0  0  1  0  0  3  0  0  0  0  0  0
  189.5330  175.8890  139.1290 C   0  0  0  0  0  2  0  0  0  0  0  0
  188.5610  178.1290  141.7080 C   0  0  2  0  0  3  0  0  0  0  0  0
  186.3950  177.5420  144.7570 C   0  0  0  0  0  3  0  0  0  0  0  0
  186.6250  177.1230  136.6250 C   0  0  0  0  0  2  0  0  0  0  0  0
  188.9550  177.6830  137.4440 C   0  0  0  0  0  0  0  0  0  0  0  0
  188.0770  176.6780  136.7300 C   0  0  0  0  0  2  0  0  0  0  0  0
  187.4880  179.0440  135.1680 C   0  0  0  0  0  2  0  0  0  0  0  0
  187.8160  179.7560  136.4710 C   0  0  0  0  0  2  0  0  0  0  0  0
  188.8490  179.0210  137.2880 C   0  0  0  0  0  3  0  0  0  0  0  0
  186.4050  177.9820  135.3780 C   0  0  0  0  0  2  0  0  0  0  0  0
  182.7170  179.0210  143.6490 C   0  0  0  0  0  1  0  0  0  0  0  0
  183.6350  178.7610  142.4690 C   0  0  0  0  0  2  0  0  0  0  0  0
  189.6560  177.9590  145.2680 C   0  0  1  0  0  3  0  0  0  0  0  0
  188.4560  178.2210  147.4830 C   0  0  0  0  0  0  0  0  0  0  0  0
  187.6340  179.0340  146.9830 O   0  0  0  0  0  0  0  0  0  0  0  0
  189.4820  177.6370  146.6810 N   0  0  0  0  0  2  0  0  0  0  0  0
  188.3540  177.8610  148.9200 C   0  0  0  0  0  1  0  0  0  0  0  0
  191.7980  176.6630  146.0750 C   0  0  0  0  0  1  0  0  0  0  0  0
  191.4230  177.9260  144.8280 S   0  0  0  0  0  0  0  0  0  0  0  0
  1 12  1  0  0  0  0
  2  8  1  0  0  0  0
  3 20  1  6  0  0  0
  3 16  1  0  0  0  0
  3  9  1  0  0  0  0
  4 11  2  0  0  0  0
  6  2  2  0  0  0  0
  7 13  1  6  0  0  0
  7 17  1  0  0  0  0
  8  4  1  0  0  0  0
  8  1  2  0  0  0  0
  9 16  1  1  0  0  0
  9  7  1  0  0  0  0
  9  5  1  0  0  0  0
 10  5  1  6  0  0  0
 10 14  1  0  0  0  0
 11 15  1  0  0  0  0
 11 18  1  0  0  0  0
 12 18  2  0  0  0  0
 13  2  1  0  0  0  0
 14 15  1  0  0  0  0
 15 28  1  6  0  0  0
 17 10  1  0  0  0  0
 17  4  1  1  0  0  0
 19 21  1  0  0  0  0
 21 20  1  0  0  0  0
 22 25  1  0  0  0  0
 22 23  1  0  0  0  0
 23 24  1  0  0  0  0
 24 20  2  0  0  0  0
 25 19  1  0  0  0  0
 27  1  1  0  0  0  0
 27 26  1  0  0  0  0
 28 34  1  6  0  0  0
 28 31  1  0  0  0  0
 29 32  1  0  0  0  0
 30 29  2  0  0  0  0
 31 29  1  0  0  0  0
 34 33  1  0  0  0  0
M  END
>  <MODEL>
5

>  <REMARK>
 VINA RESULT:      -7.8      1.362      1.669
  Name = 
  5 active torsions:
  status: ('A' for Active; 'I' for Inactive)
    1  A    between atoms: C_1  and  C_19
    2  A    between atoms: C_3  and  C_13
    3  A    between atoms: C_12  and  N_23
    4  A    between atoms: C_12  and  S_27
    5  A    between atoms: C_12  and  C_28
                            x       y       z     vdW  Elec       q    Type
                         _______ _______ _______ _____ _____    ______ ____

>  <TORSDO>
F 5

$$$$
=
 OpenBabel10262423483D

 34 39  0  0  1  0  0  0  0  0999 V2000
  186.5600  178.1740  137.9110 C   0  0  0  0  0  0  0  0  0  0  0  0
  188.0510  178.3190  140.0170 C   0  0  0  0  0  0  0  0  0  0  0  0
  187.5320  177.7130  144.7030 C   0  0  1  0  0  3  0  0  0  0  0  0
  185.5760  178.5350  140.1010 C   0  0  0  0  0  0  0  0  0  0  0  0
  185.1220  178.3430  143.7410 C   0  0  0  0  0  2  0  0  0  0  0  0
  189.1430  178.4700  139.4070 O   0  0  0  0  0  0  0  0  0  0  0  0
  186.7650  177.7640  142.0470 C   0  0  2  0  0  3  0  0  0  0  0  0
  186.7290  178.3850  139.2980 C   0  0  0  0  0  0  0  0  0  0  0  0
  186.5690  177.9120  143.5250 C   0  0  1  0  0  0  0  0  0  0  0  0
  184.6140  178.8060  142.4390 N   0  0  2  0  0  0  0  0  0  0  0  0
  184.2950  178.3260  139.5900 C   0  0  0  0  0  0  0  0  0  0  0  0
  185.2650  178.0380  137.3870 C   0  0  0  0  0  3  0  0  0  0  0  0
  188.0550  178.0920  141.4450 N   0  0  0  0  0  2  0  0  0  0  0  0
  183.5790  177.8820  141.9570 C   0  0  0  0  0  2  0  0  0  0  0  0
  183.1180  178.2740  140.5370 C   0  0  1  0  0  3  0  0  0  0  0  0
  186.7620  176.5380  144.1330 C   0  0  0  0  0  2  0  0  0  0  0  0
  185.7900  178.7830  141.5580 C   0  0  2  0  0  3  0  0  0  0  0  0
  184.1410  178.0950  138.2210 C   0  0  0  0  0  3  0  0  0  0  0  0
  190.5260  176.5390  142.6830 C   0  0  0  0  0  2  0  0  0  0  0  0
  188.9730  177.7560  144.2690 C   0  0  0  0  0  0  0  0  0  0  0  0
  189.6120  176.4370  143.8950 C   0  0  0  0  0  2  0  0  0  0  0  0
  191.9820  178.0880  144.1110 C   0  0  0  0  0  2  0  0  0  0  0  0
  191.0160  179.1950  143.7210 C   0  0  0  0  0  2  0  0  0  0  0  0
  189.6160  178.9450  144.2220 C   0  0  0  0  0  3  0  0  0  0  0  0
  191.9440  176.9410  143.0980 C   0  0  0  0  0  2  0  0  0  0  0  0
  187.2450  178.0370  135.5420 C   0  0  0  0  0  1  0  0  0  0  0  0
  187.7190  178.0080  136.9830 C   0  0  0  0  0  2  0  0  0  0  0  0
  182.2840  179.5630  140.5570 C   0  0  1  0  0  3  0  0  0  0  0  0
  181.8150  180.9410  138.4850 C   0  0  0  0  0  0  0  0  0  0  0  0
  182.6310  181.8300  138.8470 O   0  0  0  0  0  0  0  0  0  0  0  0
  181.6030  179.7770  139.2850 N   0  0  0  0  0  2  0  0  0  0  0  0
  181.0700  181.1000  137.2100 C   0  0  0  0  0  1  0  0  0  0  0  0
  179.9890  178.3750  141.0500 C   0  0  0  0  0  1  0  0  0  0  0  0
  181.0760  179.5380  141.9210 S   0  0  0  0  0  0  0  0  0  0  0  0
  1  8  1  0  0  0  0
  2 13  1  0  0  0  0
  3 20  1  6  0  0  0
  6  2  2  0  0  0  0
  7 13  1  1  0  0  0
  7  9  1  0  0  0  0
  8  2  1  0  0  0  0
  8  4  2  0  0  0  0
  9  5  1  1  0  0  0
  9 16  1  0  0  0  0
  9  3  1  0  0  0  0
 10 14  1  6  0  0  0
 10  5  1  0  0  0  0
 11  4  1  0  0  0  0
 11 15  1  0  0  0  0
 12  1  2  0  0  0  0
 12 18  1  0  0  0  0
 15 28  1  1  0  0  0
 15 14  1  0  0  0  0
 16  3  1  0  0  0  0
 17  4  1  6  0  0  0
 17  7  1  0  0  0  0
 17 10  1  0  0  0  0
 18 11  2  0  0  0  0
 19 25  1  0  0  0  0
 19 21  1  0  0  0  0
 21 20  1  0  0  0  0
 23 22  1  0  0  0  0
 23 24  1  0  0  0  0
 24 20  2  0  0  0  0
 25 22  1  0  0  0  0
 26 27  1  0  0  0  0
 27  1  1  0  0  0  0
 28 31  1  6  0  0  0
 28 34  1  0  0  0  0
 29 30  2  0  0  0  0
 29 31  1  0  0  0  0
 32 29  1  0  0  0  0
 33 34  1  0  0  0  0
M  END
>  <MODEL>
6

>  <REMARK>
 VINA RESULT:      -7.7      3.395      8.220
  Name = 
  5 active torsions:
  status: ('A' for Active; 'I' for Inactive)
    1  A    between atoms: C_1  and  C_19
    2  A    between atoms: C_3  and  C_13
    3  A    between atoms: C_12  and  N_23
    4  A    between atoms: C_12  and  S_27
    5  A    between atoms: C_12  and  C_28
                            x       y       z     vdW  Elec       q    Type
                         _______ _______ _______ _____ _____    ______ ____

>  <TORSDO>
F 5

$$$$
=
 OpenBabel10262423483D

 34 39  0  0  1  0  0  0  0  0999 V2000
  185.5430  178.2050  144.6510 C   0  0  0  0  0  0  0  0  0  0  0  0
  183.9600  179.1200  142.8240 C   0  0  0  0  0  0  0  0  0  0  0  0
  183.5470  178.8160  138.0990 C   0  0  1  0  0  3  0  0  0  0  0  0
  186.2790  178.3660  142.3420 C   0  0  0  0  0  0  0  0  0  0  0  0
  186.1150  178.3650  138.6730 C   0  0  0  0  0  2  0  0  0  0  0  0
  183.1140  179.6240  143.6100 O   0  0  0  0  0  0  0  0  0  0  0  0
  184.6270  178.3080  140.5930 C   0  0  2  0  0  3  0  0  0  0  0  0
  185.2830  178.5980  143.3190 C   0  0  0  0  0  0  0  0  0  0  0  0
  184.6610  178.5110  139.1090 C   0  0  1  0  0  0  0  0  0  0  0  0
  186.9390  178.4660  139.8900 N   0  0  2  0  0  0  0  0  0  0  0  0
  187.4280  177.6260  142.6290 C   0  0  0  0  0  0  0  0  0  0  0  0
  186.7350  177.5270  144.9500 C   0  0  0  0  0  3  0  0  0  0  0  0
  183.6700  179.0510  141.4090 N   0  0  0  0  0  2  0  0  0  0  0  0
  187.5760  177.1710  140.1630 C   0  0  0  0  0  2  0  0  0  0  0  0
  188.3440  177.2140  141.5010 C   0  0  1  0  0  3  0  0  0  0  0  0
  183.8550  177.3860  138.4940 C   0  0  0  0  0  2  0  0  0  0  0  0
  185.9850  178.8160  140.9500 C   0  0  2  0  0  3  0  0  0  0  0  0
  187.6630  177.2220  143.9460 C   0  0  0  0  0  3  0  0  0  0  0  0
  180.8030  181.3950  138.5880 C   0  0  0  0  0  2  0  0  0  0  0  0
  182.3170  179.3740  138.7640 C   0  0  0  0  0  0  0  0  0  0  0  0
  182.2120  180.8810  138.8460 C   0  0  0  0  0  2  0  0  0  0  0  0
  180.1280  180.1390  140.7150 C   0  0  0  0  0  2  0  0  0  0  0  0
  180.0460  178.8990  139.8390 C   0  0  0  0  0  2  0  0  0  0  0  0
  181.3770  178.5260  139.2380 C   0  0  0  0  0  3  0  0  0  0  0  0
  179.9820  181.4140  139.8800 C   0  0  0  0  0  2  0  0  0  0  0  0
  185.2550  178.4140  147.0950 C   0  0  0  0  0  1  0  0  0  0  0  0
  184.5530  178.4130  145.7500 C   0  0  0  0  0  2  0  0  0  0  0  0
  189.6120  178.0730  141.3880 C   0  0  1  0  0  3  0  0  0  0  0  0
  190.9340  178.4750  143.5100 C   0  0  0  0  0  0  0  0  0  0  0  0
  190.3340  179.5620  143.7220 O   0  0  0  0  0  0  0  0  0  0  0  0
  190.6140  177.6760  142.3710 N   0  0  0  0  0  2  0  0  0  0  0  0
  191.9810  178.0160  144.4580 C   0  0  0  0  0  1  0  0  0  0  0  0
  191.8770  177.2910  140.3020 C   0  0  0  0  0  1  0  0  0  0  0  0
  190.3110  177.9890  139.7080 S   0  0  0  0  0  0  0  0  0  0  0  0
  1 12  1  0  0  0  0
  1 27  1  0  0  0  0
  2  8  1  0  0  0  0
  2  6  2  0  0  0  0
  3 16  1  0  0  0  0
  3 20  1  1  0  0  0
  3  9  1  0  0  0  0
  4 11  2  0  0  0  0
  4  8  1  0  0  0  0
  5  9  1  0  0  0  0
  7 17  1  0  0  0  0
  7 13  1  1  0  0  0
  8  1  2  0  0  0  0
  9 16  1  6  0  0  0
  9  7  1  0  0  0  0
 10  5  1  6  0  0  0
 10 14  1  0  0  0  0
 10 17  1  0  0  0  0
 11 18  1  0  0  0  0
 13  2  1  0  0  0  0
 14 15  1  0  0  0  0
 15 28  1  6  0  0  0
 15 11  1  0  0  0  0
 17  4  1  1  0  0  0
 18 12  2  0  0  0  0
 19 21  1  0  0  0  0
 19 25  1  0  0  0  0
 20 21  1  0  0  0  0
 20 24  2  0  0  0  0
 23 22  1  0  0  0  0
 24 23  1  0  0  0  0
 25 22  1  0  0  0  0
 27 26  1  0  0  0  0
 28 34  1  6  0  0  0
 28 31  1  0  0  0  0
 29 30  2  0  0  0  0
 29 32  1  0  0  0  0
 31 29  1  0  0  0  0
 34 33  1  0  0  0  0
M  END
>  <MODEL>
7

>  <REMARK>
 VINA RESULT:      -7.7      3.311      5.159
  Name = 
  5 active torsions:
  status: ('A' for Active; 'I' for Inactive)
    1  A    between atoms: C_1  and  C_19
    2  A    between atoms: C_3  and  C_13
    3  A    between atoms: C_12  and  N_23
    4  A    between atoms: C_12  and  S_27
    5  A    between atoms: C_12  and  C_28
                            x       y       z     vdW  Elec       q    Type
                         _______ _______ _______ _____ _____    ______ ____

>  <TORSDO>
F 5

$$$$
=
 OpenBabel10262423483D

 34 39  0  0  1  0  0  0  0  0999 V2000
  185.0450  178.4490  145.0470 C   0  0  0  0  0  0  0  0  0  0  0  0
  187.3540  177.3130  145.2740 C   0  0  0  0  0  0  0  0  0  0  0  0
  191.3280  176.9440  142.6910 C   0  0  1  0  0  3  0  0  0  0  0  0
  186.3760  177.9460  143.0790 C   0  0  0  0  0  0  0  0  0  0  0  0
  189.3400  177.4240  140.9740 C   0  0  0  0  0  2  0  0  0  0  0  0
  187.2120  176.9430  146.4700 O   0  0  0  0  0  0  0  0  0  0  0  0
  188.7660  177.7840  143.3080 C   0  0  2  0  0  3  0  0  0  0  0  0
  186.2040  177.8750  144.4800 C   0  0  0  0  0  0  0  0  0  0  0  0
  189.8820  177.3690  142.3980 C   0  0  1  0  0  0  0  0  0  0  0  0
  187.8720  177.4830  141.0770 N   0  0  2  0  0  0  0  0  0  0  0  0
  185.5180  178.6960  142.2730 C   0  0  0  0  0  0  0  0  0  0  0  0
  184.1440  179.1410  144.2200 C   0  0  0  0  0  3  0  0  0  0  0  0
  188.6440  177.1840  144.6340 N   0  0  0  0  0  2  0  0  0  0  0  0
  187.3970  178.7900  140.6090 C   0  0  0  0  0  2  0  0  0  0  0  0
  185.8740  178.9250  140.8230 C   0  0  1  0  0  3  0  0  0  0  0  0
  190.9740  178.4100  142.5420 C   0  0  0  0  0  2  0  0  0  0  0  0
  187.5980  177.3060  142.5090 C   0  0  2  0  0  3  0  0  0  0  0  0
  184.3860  179.2800  142.8480 C   0  0  0  0  0  3  0  0  0  0  0  0
  192.6320  174.6520  145.4240 C   0  0  0  0  0  2  0  0  0  0  0  0
  191.5110  176.5110  144.1220 C   0  0  0  0  0  0  0  0  0  0  0  0
  191.5910  175.0220  144.3770 C   0  0  0  0  0  2  0  0  0  0  0  0
  191.1940  175.9670  147.0860 C   0  0  0  0  0  2  0  0  0  0  0  0
  191.8880  177.2100  146.5530 C   0  0  0  0  0  2  0  0  0  0  0  0
  191.6050  177.4480  145.0910 C   0  0  0  0  0  3  0  0  0  0  0  0
  192.0380  174.7140  146.8330 C   0  0  0  0  0  2  0  0  0  0  0  0
  185.6040  179.4790  147.2210 C   0  0  0  0  0  1  0  0  0  0  0  0
  184.7770  178.4200  146.5160 C   0  0  0  0  0  2  0  0  0  0  0  0
  185.0930  178.0340  139.8460 C   0  0  1  0  0  3  0  0  0  0  0  0
  182.7810  177.0040  139.7540 C   0  0  0  0  0  0  0  0  0  0  0  0
  183.2230  175.9730  139.1820 O   0  0  0  0  0  0  0  0  0  0  0  0
  183.6610  178.0660  140.1250 N   0  0  0  0  0  2  0  0  0  0  0  0
  181.3310  177.1160  140.0510 C   0  0  0  0  0  1  0  0  0  0  0  0
  186.3000  176.9850  137.7570 C   0  0  0  0  0  1  0  0  0  0  0  0
  185.4090  178.5230  138.1200 S   0  0  0  0  0  0  0  0  0  0  0  0
  1 27  1  0  0  0  0
  2  6  2  0  0  0  0
  3 20  1  1  0  0  0
  4  8  2  0  0  0  0
  5 10  1  0  0  0  0
  7 13  1  1  0  0  0
  8  1  1  0  0  0  0
  8  2  1  0  0  0  0
  9  5  1  6  0  0  0
  9 16  1  0  0  0  0
  9  3  1  0  0  0  0
  9  7  1  0  0  0  0
 10 14  1  1  0  0  0
 10 17  1  0  0  0  0
 11 18  2  0  0  0  0
 11  4  1  0  0  0  0
 12  1  2  0  0  0  0
 13  2  1  0  0  0  0
 14 15  1  0  0  0  0
 15 28  1  6  0  0  0
 15 11  1  0  0  0  0
 16  3  1  0  0  0  0
 17  4  1  1  0  0  0
 17  7  1  0  0  0  0
 18 12  1  0  0  0  0
 19 25  1  0  0  0  0
 20 21  1  0  0  0  0
 20 24  2  0  0  0  0
 21 19  1  0  0  0  0
 23 22  1  0  0  0  0
 24 23  1  0  0  0  0
 25 22  1  0  0  0  0
 27 26  1  0  0  0  0
 28 34  1  6  0  0  0
 28 31  1  0  0  0  0
 29 32  1  0  0  0  0
 29 31  1  0  0  0  0
 30 29  2  0  0  0  0
 33 34  1  0  0  0  0
M  END
>  <MODEL>
8

>  <REMARK>
 VINA RESULT:      -7.2      2.583      7.314
  Name = 
  5 active torsions:
  status: ('A' for Active; 'I' for Inactive)
    1  A    between atoms: C_1  and  C_19
    2  A    between atoms: C_3  and  C_13
    3  A    between atoms: C_12  and  N_23
    4  A    between atoms: C_12  and  S_27
    5  A    between atoms: C_12  and  C_28
                            x       y       z     vdW  Elec       q    Type
                         _______ _______ _______ _____ _____    ______ ____

>  <TORSDO>
F 5

$$$$
=
 OpenBabel10262423483D

 34 39  0  0  1  0  0  0  0  0999 V2000
  187.1410  177.9150  137.6030 C   0  0  0  0  0  0  0  0  0  0  0  0
  188.4320  178.1340  139.8310 C   0  0  0  0  0  0  0  0  0  0  0  0
  187.4610  177.7850  144.4710 C   0  0  1  0  0  3  0  0  0  0  0  0
  185.9670  178.4130  139.6700 C   0  0  0  0  0  0  0  0  0  0  0  0
  185.1700  178.4210  143.2550 C   0  0  0  0  0  2  0  0  0  0  0  0
  189.5790  178.2270  139.3210 O   0  0  0  0  0  0  0  0  0  0  0  0
  186.9470  177.7160  141.7550 C   0  0  2  0  0  3  0  0  0  0  0  0
  187.1860  178.1940  138.9880 C   0  0  0  0  0  0  0  0  0  0  0  0
  186.6180  177.9460  143.1990 C   0  0  1  0  0  0  0  0  0  0  0  0
  184.7990  178.8280  141.8900 N   0  0  2  0  0  0  0  0  0  0  0  0
  184.7330  178.2080  139.0510 C   0  0  0  0  0  0  0  0  0  0  0  0
  185.8960  177.7830  136.9660 C   0  0  0  0  0  3  0  0  0  0  0  0
  188.2960  177.9810  141.2630 N   0  0  0  0  0  2  0  0  0  0  0  0
  183.7880  177.9060  141.3590 C   0  0  0  0  0  2  0  0  0  0  0  0
  183.4730  178.2340  139.8840 C   0  0  1  0  0  3  0  0  0  0  0  0
  186.7140  176.6020  143.8900 C   0  0  0  0  0  2  0  0  0  0  0  0
  186.0510  178.7310  141.1260 C   0  0  2  0  0  3  0  0  0  0  0  0
  184.7010  177.9090  137.6860 C   0  0  0  0  0  3  0  0  0  0  0  0
  190.6010  176.4160  142.8330 C   0  0  0  0  0  2  0  0  0  0  0  0
  188.9370  177.7720  144.1740 C   0  0  0  0  0  0  0  0  0  0  0  0
  189.5760  176.4180  143.9570 C   0  0  0  0  0  2  0  0  0  0  0  0
  191.9540  178.0380  144.2800 C   0  0  0  0  0  2  0  0  0  0  0  0
  191.0560  179.1310  143.7220 C   0  0  0  0  0  2  0  0  0  0  0  0
  189.6100  178.9430  144.1040 C   0  0  0  0  0  3  0  0  0  0  0  0
  191.9830  176.8220  143.3510 C   0  0  0  0  0  2  0  0  0  0  0  0
  188.4670  176.2110  136.4050 C   0  0  0  0  0  1  0  0  0  0  0  0
  188.3760  177.6740  136.7990 C   0  0  0  0  0  2  0  0  0  0  0  0
  182.6770  179.5420  139.7610 C   0  0  1  0  0  3  0  0  0  0  0  0
  181.4400  178.8690  137.6570 C   0  0  0  0  0  0  0  0  0  0  0  0
  181.0230  177.8110  138.1970 O   0  0  0  0  0  0  0  0  0  0  0  0
  182.2600  179.7840  138.3840 N   0  0  0  0  0  2  0  0  0  0  0  0
  181.0720  179.1720  136.2500 C   0  0  0  0  0  1  0  0  0  0  0  0
  180.4300  180.8930  139.9700 C   0  0  0  0  0  1  0  0  0  0  0  0
  181.2290  179.5310  140.8650 S   0  0  0  0  0  0  0  0  0  0  0  0
  1  8  1  0  0  0  0
  2 13  1  0  0  0  0
  3 20  1  6  0  0  0
  6  2  2  0  0  0  0
  7 13  1  1  0  0  0
  7  9  1  0  0  0  0
  8  4  2  0  0  0  0
  8  2  1  0  0  0  0
  9  5  1  1  0  0  0
  9 16  1  0  0  0  0
  9  3  1  0  0  0  0
 10 14  1  6  0  0  0
 10  5  1  0  0  0  0
 11  4  1  0  0  0  0
 11 15  1  0  0  0  0
 12  1  2  0  0  0  0
 12 18  1  0  0  0  0
 15 28  1  1  0  0  0
 15 14  1  0  0  0  0
 16  3  1  0  0  0  0
 17  4  1  6  0  0  0
 17  7  1  0  0  0  0
 17 10  1  0  0  0  0
 18 11  2  0  0  0  0
 19 25  1  0  0  0  0
 19 21  1  0  0  0  0
 21 20  1  0  0  0  0
 23 24  1  0  0  0  0
 23 22  1  0  0  0  0
 24 20  2  0  0  0  0
 25 22  1  0  0  0  0
 26 27  1  0  0  0  0
 27  1  1  0  0  0  0
 28 31  1  6  0  0  0
 28 34  1  0  0  0  0
 29 30  2  0  0  0  0
 29 31  1  0  0  0  0
 32 29  1  0  0  0  0
 33 34  1  0  0  0  0
M  END
>  <MODEL>
9

>  <REMARK>
 VINA RESULT:      -6.9      3.358      8.301
  Name = 
  5 active torsions:
  status: ('A' for Active; 'I' for Inactive)
    1  A    between atoms: C_1  and  C_19
    2  A    between atoms: C_3  and  C_13
    3  A    between atoms: C_12  and  N_23
    4  A    between atoms: C_12  and  S_27
    5  A    between atoms: C_12  and  C_28
                            x       y       z     vdW  Elec       q    Type
                         _______ _______ _______ _____ _____    ______ ____

>  <TORSDO>
F 5

$$$$
