=
 OpenBabel10272413493D

 30 33  0  0  1  0  0  0  0  0999 V2000
  186.7670  178.7730  141.9450 C   0  0  1  0  0  3  0  0  0  0  0  0
  188.2020  179.0630  142.4730 C   0  0  0  0  0  2  0  0  0  0  0  0
  186.6650  178.0690  140.7100 O   0  0  0  0  0  0  0  0  0  0  0  0
  190.2710  177.5080  139.4570 S   0  0  0  0  0  0  0  0  0  0  0  0
  188.9280  177.4390  140.6330 C   0  0  2  0  0  3  0  0  0  0  0  0
  187.6990  177.7440  138.6660 O   0  0  0  0  0  0  0  0  0  0  0  0
  187.8450  178.2280  139.9690 C   0  0  1  0  0  3  0  0  0  0  0  0
  189.2780  178.0650  141.9870 C   0  0  2  0  0  3  0  0  0  0  0  0
  189.3100  178.8020  137.2290 C   0  0  0  0  0  1  0  0  0  0  0  0
  189.0040  177.6270  138.1400 C   0  0  1  0  0  3  0  0  0  0  0  0
  190.9820  176.6040  142.8740 O   0  0  0  0  0  0  0  0  0  0  0  0
  190.9970  177.4450  144.8900 C   0  0  1  0  0  3  0  0  0  0  0  0
  191.7290  177.3360  143.7020 O   0  0  0  0  0  0  0  0  0  0  0  0
  189.5820  177.6360  144.4310 C   0  0  1  0  0  3  0  0  0  0  0  0
  188.7570  175.7670  142.9070 C   0  0  0  0  0  1  0  0  0  0  0  0
  189.6420  177.0080  143.0490 C   0  0  1  0  0  0  0  0  0  0  0  0
  191.1480  176.2710  145.6390 O   0  0  0  0  0  0  0  0  0  0  0  0
  191.8090  176.6710  146.7990 C   0  0  0  0  0  1  0  0  0  0  0  0
  188.5110  177.1070  145.3980 C   0  0  0  0  0  2  0  0  0  0  0  0
  188.3490  178.0270  146.5980 C   0  0  0  0  0  2  0  0  0  0  0  0
  188.2540  177.2200  147.8800 C   0  0  0  0  0  1  0  0  0  0  0  0
  186.0380  178.0830  142.9300 O   0  0  0  0  0  0  0  0  0  0  0  0
  185.0590  178.9420  143.4830 C   0  0  2  0  0  3  0  0  0  0  0  0
  185.2230  179.1470  144.9840 C   0  0  0  0  0  1  0  0  0  0  0  0
  183.6260  178.5630  143.1110 C   0  0  0  0  0  2  0  0  0  0  0  0
  183.5410  178.1710  141.6470 C   0  0  1  0  0  3  0  0  0  0  0  0
  182.1910  178.4090  141.1530 C   0  0  0  0  0  2  0  0  0  0  0  0
  183.2610  179.3670  140.8380 N   0  0  0  0  0  0  0  0  0  0  0  0
  184.5460  180.0810  139.0370 O   0  0  0  0  0  1  0  0  0  0  0  0
  183.7080  179.0630  139.4910 C   0  0  0  0  0  2  0  0  0  0  0  0
  1  2  1  0  0  0  0
  1 22  1  1  0  0  0
  3  1  1  0  0  0  0
  5  4  1  6  0  0  0
  5  8  1  0  0  0  0
  7  6  1  6  0  0  0
  7  5  1  0  0  0  0
  7  3  1  0  0  0  0
  8  2  1  1  0  0  0
  8 16  1  0  0  0  0
 10  9  1  1  0  0  0
 10  6  1  0  0  0  0
 10  4  1  0  0  0  0
 11 16  1  0  0  0  0
 11 13  1  0  0  0  0
 12 17  1  1  0  0  0
 13 12  1  0  0  0  0
 14 12  1  0  0  0  0
 14 19  1  1  0  0  0
 16 15  1  6  0  0  0
 16 14  1  0  0  0  0
 17 18  1  0  0  0  0
 19 20  1  0  0  0  0
 20 21  1  0  0  0  0
 22 23  1  0  0  0  0
 23 24  1  1  0  0  0
 25 23  1  0  0  0  0
 26 25  1  1  0  0  0
 27 26  1  0  0  0  0
 28 27  1  0  0  0  0
 28 26  1  0  0  0  0
 29 30  1  0  0  0  0
 30 28  1  0  0  0  0
M  END
>  <MODEL>
1

>  <REMARK>
 VINA RESULT:      -6.9      0.000      0.000
  Name = 
  9 active torsions:
  status: ('A' for Active; 'I' for Inactive)
    1  A    between atoms: C_1  and  O_22
    2  A    between atoms: C_2  and  C_14
    3  A    between atoms: C_2  and  O_22
    4  A    between atoms: C_10  and  O_15
    5  A    between atoms: C_11  and  C_25
    6  A    between atoms: C_13  and  C_30
    7  A    between atoms: C_14  and  C_20
    8  A    between atoms: C_19  and  N_29
    9  A    between atoms: C_23  and  C_25
                            x       y       z     vdW  Elec       q    Type
                         _______ _______ _______ _____ _____    ______ ____

>  <TORSDO>
F 9

$$$$
=
 OpenBabel10272413493D

 30 33  0  0  1  0  0  0  0  0999 V2000
  187.6360  177.5420  145.4910 C   0  0  1  0  0  3  0  0  0  0  0  0
  188.0540  176.6380  144.2950 C   0  0  0  0  0  2  0  0  0  0  0  0
  188.6610  177.8990  146.4160 O   0  0  0  0  0  0  0  0  0  0  0  0
  191.8760  176.1130  145.2500 S   0  0  0  0  0  0  0  0  0  0  0  0
  190.4380  177.1570  145.0690 C   0  0  2  0  0  3  0  0  0  0  0  0
  190.6170  177.1560  147.4010 O   0  0  0  0  0  0  0  0  0  0  0  0
  189.7060  176.9660  146.3590 C   0  0  1  0  0  3  0  0  0  0  0  0
  189.5420  176.7530  143.8930 C   0  0  2  0  0  3  0  0  0  0  0  0
  191.8090  175.1080  147.8090 C   0  0  0  0  0  1  0  0  0  0  0  0
  191.7730  176.4230  147.0520 C   0  0  1  0  0  3  0  0  0  0  0  0
  190.8500  177.1420  141.9020 O   0  0  0  0  0  0  0  0  0  0  0  0
  189.1900  176.9950  140.4890 C   0  0  1  0  0  3  0  0  0  0  0  0
  190.3480  176.3570  140.9480 O   0  0  0  0  0  0  0  0  0  0  0  0
  188.5560  177.5400  141.7340 C   0  0  1  0  0  3  0  0  0  0  0  0
  190.0960  179.0760  143.0610 C   0  0  0  0  0  1  0  0  0  0  0  0
  189.7630  177.6400  142.6510 C   0  0  1  0  0  0  0  0  0  0  0  0
  189.5440  178.0160  139.5970 O   0  0  0  0  0  0  0  0  0  0  0  0
  190.0190  177.3510  138.4660 C   0  0  0  0  0  1  0  0  0  0  0  0
  187.7190  178.8130  141.5320 C   0  0  0  0  0  2  0  0  0  0  0  0
  186.2370  178.5360  141.7320 C   0  0  0  0  0  2  0  0  0  0  0  0
  185.4550  178.8900  140.4800 C   0  0  0  0  0  1  0  0  0  0  0  0
  187.0280  178.7120  145.0020 O   0  0  0  0  0  0  0  0  0  0  0  0
  185.7800  178.8990  145.6420 C   0  0  2  0  0  3  0  0  0  0  0  0
  185.8690  178.8120  147.1610 C   0  0  0  0  0  1  0  0  0  0  0  0
  184.6620  178.0210  145.0840 C   0  0  0  0  0  2  0  0  0  0  0  0
  183.4130  178.8440  144.8300 C   0  0  1  0  0  3  0  0  0  0  0  0
  183.7380  179.9800  143.9790 C   0  0  0  0  0  2  0  0  0  0  0  0
  183.0820  178.7990  143.3980 N   0  0  0  0  0  0  0  0  0  0  0  0
  181.1460  178.5380  142.1370 O   0  0  0  0  0  1  0  0  0  0  0  0
  181.6700  179.1160  143.2930 C   0  0  0  0  0  2  0  0  0  0  0  0
  1 22  1  6  0  0  0
  1  3  1  0  0  0  0
  2  1  1  0  0  0  0
  4 10  1  0  0  0  0
  5  4  1  1  0  0  0
  5  7  1  0  0  0  0
  7  3  1  1  0  0  0
  7  6  1  0  0  0  0
  8  2  1  1  0  0  0
  8  5  1  0  0  0  0
 10  6  1  0  0  0  0
 10  9  1  1  0  0  0
 11 16  1  0  0  0  0
 12 17  1  6  0  0  0
 12 13  1  0  0  0  0
 12 14  1  0  0  0  0
 13 11  1  0  0  0  0
 14 19  1  6  0  0  0
 14 16  1  0  0  0  0
 16 15  1  1  0  0  0
 16  8  1  0  0  0  0
 18 17  1  0  0  0  0
 19 20  1  0  0  0  0
 21 20  1  0  0  0  0
 22 23  1  0  0  0  0
 23 24  1  1  0  0  0
 25 23  1  0  0  0  0
 26 25  1  6  0  0  0
 27 26  1  0  0  0  0
 28 27  1  0  0  0  0
 28 26  1  0  0  0  0
 29 30  1  0  0  0  0
 30 28  1  0  0  0  0
M  END
>  <MODEL>
2

>  <REMARK>
 VINA RESULT:      -6.9      2.177      5.339
  Name = 
  9 active torsions:
  status: ('A' for Active; 'I' for Inactive)
    1  A    between atoms: C_1  and  O_22
    2  A    between atoms: C_2  and  C_14
    3  A    between atoms: C_2  and  O_22
    4  A    between atoms: C_10  and  O_15
    5  A    between atoms: C_11  and  C_25
    6  A    between atoms: C_13  and  C_30
    7  A    between atoms: C_14  and  C_20
    8  A    between atoms: C_19  and  N_29
    9  A    between atoms: C_23  and  C_25
                            x       y       z     vdW  Elec       q    Type
                         _______ _______ _______ _____ _____    ______ ____

>  <TORSDO>
F 9

$$$$
=
 OpenBabel10272413493D

 30 33  0  0  1  0  0  0  0  0999 V2000
  187.9900  177.2450  142.2130 C   0  0  1  0  0  3  0  0  0  0  0  0
  188.1970  176.4280  143.5210 C   0  0  0  0  0  2  0  0  0  0  0  0
  187.1500  178.3940  142.2970 O   0  0  0  0  0  0  0  0  0  0  0  0
  185.8210  178.5270  145.9170 S   0  0  0  0  0  0  0  0  0  0  0  0
  187.0720  178.4330  144.6460 C   0  0  2  0  0  3  0  0  0  0  0  0
  185.2950  179.2650  143.3720 O   0  0  0  0  0  0  0  0  0  0  0  0
  186.2780  178.2710  143.3890 C   0  0  1  0  0  3  0  0  0  0  0  0
  188.0230  177.2450  144.8220 C   0  0  2  0  0  3  0  0  0  0  0  0
  183.3870  178.5300  144.6370 C   0  0  0  0  0  1  0  0  0  0  0  0
  184.7140  179.2670  144.6590 C   0  0  1  0  0  3  0  0  0  0  0  0
  189.1580  178.0310  146.8020 O   0  0  0  0  0  0  0  0  0  0  0  0
  190.5210  176.3340  146.9900 C   0  0  1  0  0  3  0  0  0  0  0  0
  189.4060  176.9610  147.5580 O   0  0  0  0  0  0  0  0  0  0  0  0
  190.2910  176.4480  145.5120 C   0  0  1  0  0  3  0  0  0  0  0  0
  189.9740  178.8520  144.7250 C   0  0  0  0  0  1  0  0  0  0  0  0
  189.3670  177.6530  145.4590 C   0  0  1  0  0  0  0  0  0  0  0  0
  191.6850  177.0050  147.3880 O   0  0  0  0  0  0  0  0  0  0  0  0
  192.4440  176.0390  148.0490 C   0  0  0  0  0  1  0  0  0  0  0  0
  191.5680  176.5040  144.6600 C   0  0  0  0  0  2  0  0  0  0  0  0
  191.7920  175.1950  143.9170 C   0  0  0  0  0  2  0  0  0  0  0  0
  192.3790  174.1490  144.8470 C   0  0  0  0  0  1  0  0  0  0  0  0
  189.2420  177.6270  141.6990 O   0  0  0  0  0  0  0  0  0  0  0  0
  189.3250  177.2590  140.3350 C   0  0  2  0  0  3  0  0  0  0  0  0
  190.6580  176.6140  139.9710 C   0  0  0  0  0  1  0  0  0  0  0  0
  188.9510  178.3810  139.3680 C   0  0  0  0  0  2  0  0  0  0  0  0
  187.7360  177.9930  138.5450 C   0  0  1  0  0  3  0  0  0  0  0  0
  187.9080  178.4510  137.1720 C   0  0  0  0  0  2  0  0  0  0  0  0
  188.1400  177.0370  137.5030 N   0  0  0  0  0  0  0  0  0  0  0  0
  187.1430  174.9480  137.2870 O   0  0  0  0  0  1  0  0  0  0  0  0
  186.9390  176.3170  137.1200 C   0  0  0  0  0  2  0  0  0  0  0  0
  1 22  1  1  0  0  0
  1  3  1  0  0  0  0
  1  2  1  0  0  0  0
  5  8  1  0  0  0  0
  5  4  1  1  0  0  0
  6  7  1  0  0  0  0
  6 10  1  0  0  0  0
  7  3  1  6  0  0  0
  7  5  1  0  0  0  0
  8  2  1  6  0  0  0
  8 16  1  0  0  0  0
 10  9  1  6  0  0  0
 10  4  1  0  0  0  0
 11 13  1  0  0  0  0
 12 17  1  6  0  0  0
 12 13  1  0  0  0  0
 14 19  1  6  0  0  0
 14 12  1  0  0  0  0
 16 15  1  6  0  0  0
 16 14  1  0  0  0  0
 16 11  1  0  0  0  0
 17 18  1  0  0  0  0
 20 19  1  0  0  0  0
 20 21  1  0  0  0  0
 23 24  1  6  0  0  0
 23 22  1  0  0  0  0
 25 23  1  0  0  0  0
 26 25  1  1  0  0  0
 27 28  1  0  0  0  0
 27 26  1  0  0  0  0
 28 26  1  0  0  0  0
 30 29  1  0  0  0  0
 30 28  1  0  0  0  0
M  END
>  <MODEL>
3

>  <REMARK>
 VINA RESULT:      -6.9      2.796      5.094
  Name = 
  9 active torsions:
  status: ('A' for Active; 'I' for Inactive)
    1  A    between atoms: C_1  and  O_22
    2  A    between atoms: C_2  and  C_14
    3  A    between atoms: C_2  and  O_22
    4  A    between atoms: C_10  and  O_15
    5  A    between atoms: C_11  and  C_25
    6  A    between atoms: C_13  and  C_30
    7  A    between atoms: C_14  and  C_20
    8  A    between atoms: C_19  and  N_29
    9  A    between atoms: C_23  and  C_25
                            x       y       z     vdW  Elec       q    Type
                         _______ _______ _______ _____ _____    ______ ____

>  <TORSDO>
F 9

$$$$
=
 OpenBabel10272413493D

 30 33  0  0  1  0  0  0  0  0999 V2000
  190.7600  177.3300  143.0490 C   0  0  1  0  0  3  0  0  0  0  0  0
  189.7360  178.3430  143.6380 C   0  0  0  0  0  2  0  0  0  0  0  0
  191.2440  176.3190  143.9290 O   0  0  0  0  0  0  0  0  0  0  0  0
  189.6490  176.9980  147.3760 S   0  0  0  0  0  0  0  0  0  0  0  0
  189.6530  176.7160  145.6120 C   0  0  2  0  0  3  0  0  0  0  0  0
  191.7710  175.8730  146.1370 O   0  0  0  0  0  0  0  0  0  0  0  0
  191.1060  176.7360  145.2610 C   0  0  1  0  0  3  0  0  0  0  0  0
  188.9090  177.8020  144.8270 C   0  0  2  0  0  3  0  0  0  0  0  0
  192.2790  177.0370  148.1780 C   0  0  0  0  0  1  0  0  0  0  0  0
  191.2830  176.1710  147.4290 C   0  0  1  0  0  3  0  0  0  0  0  0
  186.7050  177.1660  145.5790 O   0  0  0  0  0  0  0  0  0  0  0  0
  185.6280  178.7610  144.5450 C   0  0  1  0  0  3  0  0  0  0  0  0
  186.0310  178.2950  145.8020 O   0  0  0  0  0  0  0  0  0  0  0  0
  186.8080  178.4930  143.6600 C   0  0  1  0  0  3  0  0  0  0  0  0
  187.5220  176.0460  143.6470 C   0  0  0  0  0  1  0  0  0  0  0  0
  187.4870  177.3660  144.4210 C   0  0  1  0  0  0  0  0  0  0  0  0
  184.4930  178.0530  144.1280 O   0  0  0  0  0  0  0  0  0  0  0  0
  183.4150  178.8530  144.5060 C   0  0  0  0  0  1  0  0  0  0  0  0
  186.4660  178.2380  142.1840 C   0  0  0  0  0  2  0  0  0  0  0  0
  185.7280  179.4220  141.5770 C   0  0  0  0  0  2  0  0  0  0  0  0
  184.8420  178.9670  140.4320 C   0  0  0  0  0  1  0  0  0  0  0  0
  190.2100  176.7220  141.9060 O   0  0  0  0  0  0  0  0  0  0  0  0
  190.3890  177.5690  140.7870 C   0  0  2  0  0  3  0  0  0  0  0  0
  189.1110  177.7760  139.9830 C   0  0  0  0  0  1  0  0  0  0  0  0
  191.5660  177.1740  139.8970 C   0  0  0  0  0  2  0  0  0  0  0  0
  191.0770  176.7430  138.5260 C   0  0  1  0  0  3  0  0  0  0  0  0
  192.1550  176.0800  137.8060 C   0  0  0  0  0  2  0  0  0  0  0  0
  191.1000  175.2760  138.4390 N   0  0  0  0  0  0  0  0  0  0  0  0
  189.9600  173.5330  137.4050 O   0  0  0  0  0  1  0  0  0  0  0  0
  190.1670  174.9120  137.3890 C   0  0  0  0  0  2  0  0  0  0  0  0
  1 22  1  6  0  0  0
  1  2  1  0  0  0  0
  1  3  1  0  0  0  0
  4 10  1  0  0  0  0
  5  4  1  1  0  0  0
  6 10  1  0  0  0  0
  7  3  1  6  0  0  0
  7  5  1  0  0  0  0
  7  6  1  0  0  0  0
  8  2  1  6  0  0  0
  8  5  1  0  0  0  0
 10  9  1  6  0  0  0
 11 13  1  0  0  0  0
 12 17  1  6  0  0  0
 12 13  1  0  0  0  0
 14 19  1  6  0  0  0
 14 16  1  0  0  0  0
 14 12  1  0  0  0  0
 16 15  1  6  0  0  0
 16  8  1  0  0  0  0
 16 11  1  0  0  0  0
 17 18  1  0  0  0  0
 20 19  1  0  0  0  0
 21 20  1  0  0  0  0
 23 24  1  6  0  0  0
 23 22  1  0  0  0  0
 25 23  1  0  0  0  0
 26 25  1  1  0  0  0
 27 28  1  0  0  0  0
 27 26  1  0  0  0  0
 28 26  1  0  0  0  0
 30 29  1  0  0  0  0
 30 28  1  0  0  0  0
M  END
>  <MODEL>
4

>  <REMARK>
 VINA RESULT:      -6.5      3.028      6.933
  Name = 
  9 active torsions:
  status: ('A' for Active; 'I' for Inactive)
    1  A    between atoms: C_1  and  O_22
    2  A    between atoms: C_2  and  C_14
    3  A    between atoms: C_2  and  O_22
    4  A    between atoms: C_10  and  O_15
    5  A    between atoms: C_11  and  C_25
    6  A    between atoms: C_13  and  C_30
    7  A    between atoms: C_14  and  C_20
    8  A    between atoms: C_19  and  N_29
    9  A    between atoms: C_23  and  C_25
                            x       y       z     vdW  Elec       q    Type
                         _______ _______ _______ _____ _____    ______ ____

>  <TORSDO>
F 9

$$$$
=
 OpenBabel10272413493D

 30 33  0  0  1  0  0  0  0  0999 V2000
  187.0290  178.5840  141.6830 C   0  0  1  0  0  3  0  0  0  0  0  0
  188.4510  178.8700  142.2450 C   0  0  0  0  0  2  0  0  0  0  0  0
  186.9510  177.8010  140.4950 O   0  0  0  0  0  0  0  0  0  0  0  0
  190.5820  177.0590  139.4220 S   0  0  0  0  0  0  0  0  0  0  0  0
  189.1960  177.1060  140.5470 C   0  0  2  0  0  3  0  0  0  0  0  0
  188.0480  177.3090  138.5180 O   0  0  0  0  0  0  0  0  0  0  0  0
  188.1610  177.8770  139.7900 C   0  0  1  0  0  3  0  0  0  0  0  0
  189.5140  177.8130  141.8680 C   0  0  2  0  0  3  0  0  0  0  0  0
  189.7410  178.2240  137.0770 C   0  0  0  0  0  1  0  0  0  0  0  0
  189.3680  177.1220  138.0520 C   0  0  1  0  0  3  0  0  0  0  0  0
  191.1380  176.3620  142.9100 O   0  0  0  0  0  0  0  0  0  0  0  0
  191.1200  177.3410  144.8630 C   0  0  1  0  0  3  0  0  0  0  0  0
  191.8840  177.1240  143.7100 O   0  0  0  0  0  0  0  0  0  0  0  0
  189.7280  177.5450  144.3450 C   0  0  1  0  0  3  0  0  0  0  0  0
  188.8840  175.6030  142.9260 C   0  0  0  0  0  1  0  0  0  0  0  0
  189.8080  176.8210  143.0120 C   0  0  1  0  0  0  0  0  0  0  0  0
  191.2060  176.2170  145.6950 O   0  0  0  0  0  0  0  0  0  0  0  0
  191.9770  176.6350  146.7790 C   0  0  0  0  0  1  0  0  0  0  0  0
  188.6090  177.1210  145.3100 C   0  0  0  0  0  2  0  0  0  0  0  0
  188.5530  178.0340  146.5240 C   0  0  0  0  0  2  0  0  0  0  0  0
  188.4470  177.2190  147.8000 C   0  0  0  0  0  1  0  0  0  0  0  0
  186.2440  177.9820  142.6840 O   0  0  0  0  0  0  0  0  0  0  0  0
  184.9550  178.5660  142.6890 C   0  0  2  0  0  3  0  0  0  0  0  0
  184.3130  178.6070  141.3070 C   0  0  0  0  0  1  0  0  0  0  0  0
  184.8950  179.9230  143.3870 C   0  0  0  0  0  2  0  0  0  0  0  0
  184.4690  179.7600  144.8350 C   0  0  1  0  0  3  0  0  0  0  0  0
  183.3940  178.7810  144.9220 C   0  0  0  0  0  2  0  0  0  0  0  0
  184.7660  178.3900  145.2780 N   0  0  0  0  0  0  0  0  0  0  0  0
  185.6120  179.5380  147.1140 O   0  0  0  0  0  1  0  0  0  0  0  0
  184.8500  178.4370  146.7260 C   0  0  0  0  0  2  0  0  0  0  0  0
  1  2  1  0  0  0  0
  1 22  1  1  0  0  0
  3  1  1  0  0  0  0
  5  4  1  6  0  0  0
  5  8  1  0  0  0  0
  7  6  1  6  0  0  0
  7  3  1  0  0  0  0
  7  5  1  0  0  0  0
  8  2  1  1  0  0  0
  8 16  1  0  0  0  0
 10  9  1  6  0  0  0
 10  6  1  0  0  0  0
 10  4  1  0  0  0  0
 11 16  1  0  0  0  0
 11 13  1  0  0  0  0
 12 17  1  1  0  0  0
 13 12  1  0  0  0  0
 14 12  1  0  0  0  0
 14 19  1  1  0  0  0
 16 15  1  6  0  0  0
 16 14  1  0  0  0  0
 17 18  1  0  0  0  0
 19 20  1  0  0  0  0
 20 21  1  0  0  0  0
 22 23  1  0  0  0  0
 23 24  1  6  0  0  0
 23 25  1  0  0  0  0
 26 25  1  6  0  0  0
 26 27  1  0  0  0  0
 26 28  1  0  0  0  0
 27 28  1  0  0  0  0
 28 30  1  0  0  0  0
 30 29  1  0  0  0  0
M  END
>  <MODEL>
5

>  <REMARK>
 VINA RESULT:      -6.4      1.375      2.551
  Name = 
  9 active torsions:
  status: ('A' for Active; 'I' for Inactive)
    1  A    between atoms: C_1  and  O_22
    2  A    between atoms: C_2  and  C_14
    3  A    between atoms: C_2  and  O_22
    4  A    between atoms: C_10  and  O_15
    5  A    between atoms: C_11  and  C_25
    6  A    between atoms: C_13  and  C_30
    7  A    between atoms: C_14  and  C_20
    8  A    between atoms: C_19  and  N_29
    9  A    between atoms: C_23  and  C_25
                            x       y       z     vdW  Elec       q    Type
                         _______ _______ _______ _____ _____    ______ ____

>  <TORSDO>
F 9

$$$$
=
 OpenBabel10272413493D

 30 33  0  0  1  0  0  0  0  0999 V2000
  188.2470  177.3620  142.0510 C   0  0  1  0  0  3  0  0  0  0  0  0
  188.3960  176.4900  143.3310 C   0  0  0  0  0  2  0  0  0  0  0  0
  187.3710  178.4830  142.1340 O   0  0  0  0  0  0  0  0  0  0  0  0
  185.8170  178.4130  145.6650 S   0  0  0  0  0  0  0  0  0  0  0  0
  187.1480  178.4110  144.4720 C   0  0  2  0  0  3  0  0  0  0  0  0
  185.4300  179.2550  143.1270 O   0  0  0  0  0  0  0  0  0  0  0  0
  186.4370  178.2880  143.1610 C   0  0  1  0  0  3  0  0  0  0  0  0
  188.1190  177.2410  144.6540 C   0  0  2  0  0  3  0  0  0  0  0  0
  183.4690  178.4130  144.2340 C   0  0  0  0  0  1  0  0  0  0  0  0
  184.7700  179.1820  144.3740 C   0  0  1  0  0  3  0  0  0  0  0  0
  189.1010  177.9950  146.7260 O   0  0  0  0  0  0  0  0  0  0  0  0
  190.4760  176.3140  146.9680 C   0  0  1  0  0  3  0  0  0  0  0  0
  189.3140  176.9100  147.4720 O   0  0  0  0  0  0  0  0  0  0  0  0
  190.3470  176.4620  145.4810 C   0  0  1  0  0  3  0  0  0  0  0  0
  190.0450  178.8790  144.7310 C   0  0  0  0  0  1  0  0  0  0  0  0
  189.4080  177.6540  145.3930 C   0  0  1  0  0  0  0  0  0  0  0  0
  191.5980  176.9920  147.4620 O   0  0  0  0  0  0  0  0  0  0  0  0
  192.3560  176.0090  148.0980 C   0  0  0  0  0  1  0  0  0  0  0  0
  191.6790  176.5570  144.7220 C   0  0  0  0  0  2  0  0  0  0  0  0
  191.9490  175.2920  143.9220 C   0  0  0  0  0  2  0  0  0  0  0  0
  192.3560  174.1560  144.8430 C   0  0  0  0  0  1  0  0  0  0  0  0
  189.5180  177.8000  141.6340 O   0  0  0  0  0  0  0  0  0  0  0  0
  189.6380  177.6380  140.2340 C   0  0  2  0  0  3  0  0  0  0  0  0
  188.4040  177.0080  139.5970 C   0  0  0  0  0  1  0  0  0  0  0  0
  190.9250  176.9370  139.8020 C   0  0  0  0  0  2  0  0  0  0  0  0
  190.8280  176.4880  138.3550 C   0  0  1  0  0  3  0  0  0  0  0  0
  192.1530  176.1450  137.8580 C   0  0  0  0  0  2  0  0  0  0  0  0
  191.2260  175.0760  138.2560 N   0  0  0  0  0  0  0  0  0  0  0  0
  189.7420  173.5350  137.3450 O   0  0  0  0  0  1  0  0  0  0  0  0
  190.6300  174.5660  137.0350 C   0  0  0  0  0  2  0  0  0  0  0  0
  1 22  1  1  0  0  0
  1  3  1  0  0  0  0
  1  2  1  0  0  0  0
  5  8  1  0  0  0  0
  5  4  1  1  0  0  0
  6  7  1  0  0  0  0
  6 10  1  0  0  0  0
  7  3  1  6  0  0  0
  7  5  1  0  0  0  0
  8  2  1  6  0  0  0
  8 16  1  0  0  0  0
 10  9  1  6  0  0  0
 10  4  1  0  0  0  0
 11 13  1  0  0  0  0
 12 17  1  1  0  0  0
 12 13  1  0  0  0  0
 14 19  1  6  0  0  0
 14 12  1  0  0  0  0
 16 15  1  6  0  0  0
 16 14  1  0  0  0  0
 16 11  1  0  0  0  0
 17 18  1  0  0  0  0
 20 19  1  0  0  0  0
 20 21  1  0  0  0  0
 23 24  1  1  0  0  0
 23 22  1  0  0  0  0
 25 23  1  0  0  0  0
 26 25  1  1  0  0  0
 27 28  1  0  0  0  0
 27 26  1  0  0  0  0
 28 26  1  0  0  0  0
 30 29  1  0  0  0  0
 30 28  1  0  0  0  0
M  END
>  <MODEL>
6

>  <REMARK>
 VINA RESULT:      -6.4      3.061      5.799
  Name = 
  9 active torsions:
  status: ('A' for Active; 'I' for Inactive)
    1  A    between atoms: C_1  and  O_22
    2  A    between atoms: C_2  and  C_14
    3  A    between atoms: C_2  and  O_22
    4  A    between atoms: C_10  and  O_15
    5  A    between atoms: C_11  and  C_25
    6  A    between atoms: C_13  and  C_30
    7  A    between atoms: C_14  and  C_20
    8  A    between atoms: C_19  and  N_29
    9  A    between atoms: C_23  and  C_25
                            x       y       z     vdW  Elec       q    Type
                         _______ _______ _______ _____ _____    ______ ____

>  <TORSDO>
F 9

$$$$
=
 OpenBabel10272413493D

 30 33  0  0  1  0  0  0  0  0999 V2000
  190.5470  177.1070  142.3740 C   0  0  1  0  0  3  0  0  0  0  0  0
  189.1730  176.6760  141.7850 C   0  0  0  0  0  2  0  0  0  0  0  0
  191.5800  177.4150  141.4420 O   0  0  0  0  0  0  0  0  0  0  0  0
  190.1270  176.7610  137.9280 S   0  0  0  0  0  0  0  0  0  0  0  0
  190.1660  177.4740  139.5650 C   0  0  2  0  0  3  0  0  0  0  0  0
  192.4190  176.8790  139.3530 O   0  0  0  0  0  0  0  0  0  0  0  0
  191.3230  176.7850  140.2160 C   0  0  1  0  0  3  0  0  0  0  0  0
  188.8850  177.2180  140.3660 C   0  0  2  0  0  3  0  0  0  0  0  0
  192.3170  175.1110  137.7280 C   0  0  0  0  0  1  0  0  0  0  0  0
  191.9400  176.5410  138.0690 C   0  0  1  0  0  3  0  0  0  0  0  0
  187.6270  178.7950  139.0390 O   0  0  0  0  0  0  0  0  0  0  0  0
  185.6680  178.3000  139.8690 C   0  0  1  0  0  3  0  0  0  0  0  0
  186.4720  178.2050  138.7280 O   0  0  0  0  0  0  0  0  0  0  0  0
  186.6140  178.0460  141.0050 C   0  0  1  0  0  3  0  0  0  0  0  0
  188.6020  179.6410  141.0360 C   0  0  0  0  0  1  0  0  0  0  0  0
  187.9380  178.4340  140.3670 C   0  0  1  0  0  0  0  0  0  0  0  0
  185.1060  179.5820  139.9370 O   0  0  0  0  0  0  0  0  0  0  0  0
  183.8780  179.4670  139.2870 C   0  0  0  0  0  1  0  0  0  0  0  0
  186.2410  178.7360  142.3260 C   0  0  0  0  0  2  0  0  0  0  0  0
  185.0650  178.0430  142.9970 C   0  0  0  0  0  2  0  0  0  0  0  0
  184.3210  179.0090  143.9000 C   0  0  0  0  0  1  0  0  0  0  0  0
  190.3620  178.2030  143.2360 O   0  0  0  0  0  0  0  0  0  0  0  0
  190.2590  177.7440  144.5700 C   0  0  2  0  0  3  0  0  0  0  0  0
  191.3530  176.7510  144.9460 C   0  0  0  0  0  1  0  0  0  0  0  0
  188.8690  177.2280  144.9400 C   0  0  0  0  0  2  0  0  0  0  0  0
  188.2650  178.0700  146.0500 C   0  0  1  0  0  3  0  0  0  0  0  0
  186.8850  177.6640  146.2780 C   0  0  0  0  0  2  0  0  0  0  0  0
  187.9400  177.2060  147.1940 N   0  0  0  0  0  0  0  0  0  0  0  0
  189.1810  178.4030  148.7540 O   0  0  0  0  0  1  0  0  0  0  0  0
  187.8850  178.0700  148.3580 C   0  0  0  0  0  2  0  0  0  0  0  0
  1 22  1  6  0  0  0
  2  1  1  0  0  0  0
  3  1  1  0  0  0  0
  4 10  1  0  0  0  0
  5  4  1  6  0  0  0
  5  7  1  0  0  0  0
  5  8  1  0  0  0  0
  7  6  1  6  0  0  0
  7  3  1  0  0  0  0
  8 16  1  0  0  0  0
  8  2  1  1  0  0  0
 10  9  1  1  0  0  0
 10  6  1  0  0  0  0
 11 16  1  0  0  0  0
 12 17  1  1  0  0  0
 12 14  1  0  0  0  0
 13 11  1  0  0  0  0
 13 12  1  0  0  0  0
 14 19  1  1  0  0  0
 16 14  1  0  0  0  0
 16 15  1  1  0  0  0
 18 17  1  0  0  0  0
 19 20  1  0  0  0  0
 20 21  1  0  0  0  0
 22 23  1  0  0  0  0
 23 25  1  0  0  0  0
 23 24  1  6  0  0  0
 26 25  1  6  0  0  0
 26 27  1  0  0  0  0
 26 28  1  0  0  0  0
 27 28  1  0  0  0  0
 28 30  1  0  0  0  0
 30 29  1  0  0  0  0
M  END
>  <MODEL>
7

>  <REMARK>
 VINA RESULT:      -6.1      2.372      6.052
  Name = 
  9 active torsions:
  status: ('A' for Active; 'I' for Inactive)
    1  A    between atoms: C_1  and  O_22
    2  A    between atoms: C_2  and  C_14
    3  A    between atoms: C_2  and  O_22
    4  A    between atoms: C_10  and  O_15
    5  A    between atoms: C_11  and  C_25
    6  A    between atoms: C_13  and  C_30
    7  A    between atoms: C_14  and  C_20
    8  A    between atoms: C_19  and  N_29
    9  A    between atoms: C_23  and  C_25
                            x       y       z     vdW  Elec       q    Type
                         _______ _______ _______ _____ _____    ______ ____

>  <TORSDO>
F 9

$$$$
=
 OpenBabel10272413493D

 30 33  0  0  1  0  0  0  0  0999 V2000
  187.6650  178.5410  141.1050 C   0  0  1  0  0  3  0  0  0  0  0  0
  188.4570  178.9720  142.3730 C   0  0  0  0  0  2  0  0  0  0  0  0
  188.2930  177.5950  140.2440 O   0  0  0  0  0  0  0  0  0  0  0  0
  191.7790  176.8840  141.7390 S   0  0  0  0  0  0  0  0  0  0  0  0
  189.9970  177.0230  141.7580 C   0  0  2  0  0  3  0  0  0  0  0  0
  190.3450  176.8820  139.4490 O   0  0  0  0  0  0  0  0  0  0  0  0
  189.6830  177.6290  140.4270 C   0  0  1  0  0  3  0  0  0  0  0  0
  189.4740  177.9240  142.8810 C   0  0  2  0  0  3  0  0  0  0  0  0
  192.6090  177.6640  139.2360 C   0  0  0  0  0  1  0  0  0  0  0  0
  191.6630  176.6940  139.9210 C   0  0  1  0  0  3  0  0  0  0  0  0
  190.0490  176.6490  144.8490 O   0  0  0  0  0  0  0  0  0  0  0  0
  188.9880  177.9160  146.2770 C   0  0  1  0  0  3  0  0  0  0  0  0
  190.2560  177.5250  145.8320 O   0  0  0  0  0  0  0  0  0  0  0  0
  188.1820  178.0400  145.0180 C   0  0  1  0  0  3  0  0  0  0  0  0
  188.1490  175.9040  143.6290 C   0  0  0  0  0  1  0  0  0  0  0  0
  188.9570  177.1200  144.0900 C   0  0  1  0  0  0  0  0  0  0  0  0
  188.4710  176.9330  147.1310 O   0  0  0  0  0  0  0  0  0  0  0  0
  188.3820  177.5550  148.3760 C   0  0  0  0  0  1  0  0  0  0  0  0
  186.6780  177.7690  145.1830 C   0  0  0  0  0  2  0  0  0  0  0  0
  185.9850  178.9220  145.8920 C   0  0  0  0  0  2  0  0  0  0  0  0
  184.8200  178.4130  146.7220 C   0  0  0  0  0  1  0  0  0  0  0  0
  186.4040  178.0500  141.4880 O   0  0  0  0  0  0  0  0  0  0  0  0
  185.4610  179.1050  141.4740 C   0  0  2  0  0  3  0  0  0  0  0  0
  184.5580  179.1160  142.7020 C   0  0  0  0  0  1  0  0  0  0  0  0
  184.6610  179.2000  140.1760 C   0  0  0  0  0  2  0  0  0  0  0  0
  184.9920  178.0370  139.2580 C   0  0  1  0  0  3  0  0  0  0  0  0
  184.1860  178.1220  138.0480 C   0  0  0  0  0  2  0  0  0  0  0  0
  185.5930  178.5500  138.0180 N   0  0  0  0  0  0  0  0  0  0  0  0
  187.5450  177.9390  136.9140 O   0  0  0  0  0  1  0  0  0  0  0  0
  186.3500  177.4540  137.4450 C   0  0  0  0  0  2  0  0  0  0  0  0
  1 22  1  1  0  0  0
  1  2  1  0  0  0  0
  3  7  1  0  0  0  0
  3  1  1  0  0  0  0
  5  4  1  1  0  0  0
  5  8  1  0  0  0  0
  6 10  1  0  0  0  0
  7  6  1  6  0  0  0
  7  5  1  0  0  0  0
  8  2  1  6  0  0  0
  8 16  1  0  0  0  0
 10  9  1  6  0  0  0
 10  4  1  0  0  0  0
 11 13  1  0  0  0  0
 12 17  1  1  0  0  0
 13 12  1  0  0  0  0
 14 19  1  1  0  0  0
 14 12  1  0  0  0  0
 16 15  1  6  0  0  0
 16 11  1  0  0  0  0
 16 14  1  0  0  0  0
 17 18  1  0  0  0  0
 19 20  1  0  0  0  0
 20 21  1  0  0  0  0
 23 22  1  0  0  0  0
 23 24  1  1  0  0  0
 25 23  1  0  0  0  0
 26 25  1  1  0  0  0
 27 26  1  0  0  0  0
 28 27  1  0  0  0  0
 28 26  1  0  0  0  0
 29 30  1  0  0  0  0
 30 28  1  0  0  0  0
M  END
>  <MODEL>
8

>  <REMARK>
 VINA RESULT:      -6.0      1.907      2.696
  Name = 
  9 active torsions:
  status: ('A' for Active; 'I' for Inactive)
    1  A    between atoms: C_1  and  O_22
    2  A    between atoms: C_2  and  C_14
    3  A    between atoms: C_2  and  O_22
    4  A    between atoms: C_10  and  O_15
    5  A    between atoms: C_11  and  C_25
    6  A    between atoms: C_13  and  C_30
    7  A    between atoms: C_14  and  C_20
    8  A    between atoms: C_19  and  N_29
    9  A    between atoms: C_23  and  C_25
                            x       y       z     vdW  Elec       q    Type
                         _______ _______ _______ _____ _____    ______ ____

>  <TORSDO>
F 9

$$$$
=
 OpenBabel10272413493D

 30 33  0  0  1  0  0  0  0  0999 V2000
  186.7810  177.6270  143.6200 C   0  0  1  0  0  3  0  0  0  0  0  0
  187.9620  176.6730  143.2780 C   0  0  0  0  0  2  0  0  0  0  0  0
  186.8470  178.3100  144.8690 O   0  0  0  0  0  0  0  0  0  0  0  0
  190.0500  177.0810  146.6340 S   0  0  0  0  0  0  0  0  0  0  0  0
  189.0950  177.7730  145.2920 C   0  0  2  0  0  3  0  0  0  0  0  0
  187.5940  178.1280  147.0510 O   0  0  0  0  0  0  0  0  0  0  0  0
  187.6820  177.6130  145.7540 C   0  0  1  0  0  3  0  0  0  0  0  0
  189.2990  177.0360  143.9640 C   0  0  2  0  0  3  0  0  0  0  0  0
  188.2680  176.4450  148.6300 C   0  0  0  0  0  1  0  0  0  0  0  0
  188.7010  177.6080  147.7560 C   0  0  1  0  0  3  0  0  0  0  0  0
  191.6010  177.3900  143.3310 O   0  0  0  0  0  0  0  0  0  0  0  0
  191.3850  176.7400  141.2570 C   0  0  1  0  0  3  0  0  0  0  0  0
  191.9320  176.4020  142.5000 O   0  0  0  0  0  0  0  0  0  0  0  0
  190.0430  177.3190  141.5940 C   0  0  1  0  0  3  0  0  0  0  0  0
  190.1720  179.2860  143.2090 C   0  0  0  0  0  1  0  0  0  0  0  0
  190.2770  177.7700  143.0260 C   0  0  1  0  0  0  0  0  0  0  0  0
  192.2120  177.6770  140.6250 O   0  0  0  0  0  0  0  0  0  0  0  0
  193.0720  176.9160  139.8320 C   0  0  0  0  0  1  0  0  0  0  0  0
  189.5240  178.3700  140.6010 C   0  0  0  0  0  2  0  0  0  0  0  0
  188.8410  177.7140  139.4110 C   0  0  0  0  0  2  0  0  0  0  0  0
  189.6130  177.9920  138.1340 C   0  0  0  0  0  1  0  0  0  0  0  0
  186.6270  178.5680  142.5870 O   0  0  0  0  0  0  0  0  0  0  0  0
  185.3100  178.4950  142.0730 C   0  0  2  0  0  3  0  0  0  0  0  0
  185.2470  178.6850  140.5620 C   0  0  0  0  0  1  0  0  0  0  0  0
  184.3130  179.3930  142.8040 C   0  0  0  0  0  2  0  0  0  0  0  0
  183.2060  178.5620  143.4280 C   0  0  1  0  0  3  0  0  0  0  0  0
  183.0580  178.9180  144.8330 C   0  0  0  0  0  2  0  0  0  0  0  0
  182.1080  179.4480  143.8440 N   0  0  0  0  0  0  0  0  0  0  0  0
  179.9830  179.0550  142.9860 O   0  0  0  0  0  1  0  0  0  0  0  0
  180.9200  178.6180  143.9220 C   0  0  0  0  0  2  0  0  0  0  0  0
  1 22  1  6  0  0  0
  1  3  1  0  0  0  0
  2  1  1  0  0  0  0
  4 10  1  0  0  0  0
  5  7  1  0  0  0  0
  5  4  1  1  0  0  0
  6 10  1  0  0  0  0
  7  3  1  6  0  0  0
  7  6  1  0  0  0  0
  8  2  1  6  0  0  0
  8  5  1  0  0  0  0
 10  9  1  6  0  0  0
 12 17  1  1  0  0  0
 12 14  1  0  0  0  0
 12 13  1  0  0  0  0
 13 11  1  0  0  0  0
 14 19  1  6  0  0  0
 14 16  1  0  0  0  0
 16 15  1  1  0  0  0
 16 11  1  0  0  0  0
 16  8  1  0  0  0  0
 18 17  1  0  0  0  0
 20 19  1  0  0  0  0
 21 20  1  0  0  0  0
 23 24  1  6  0  0  0
 23 22  1  0  0  0  0
 23 25  1  0  0  0  0
 26 25  1  6  0  0  0
 26 28  1  0  0  0  0
 26 27  1  0  0  0  0
 28 30  1  0  0  0  0
 28 27  1  0  0  0  0
 29 30  1  0  0  0  0
M  END
>  <MODEL>
9

>  <REMARK>
 VINA RESULT:      -5.8      2.543      5.330
  Name = 
  9 active torsions:
  status: ('A' for Active; 'I' for Inactive)
    1  A    between atoms: C_1  and  O_22
    2  A    between atoms: C_2  and  C_14
    3  A    between atoms: C_2  and  O_22
    4  A    between atoms: C_10  and  O_15
    5  A    between atoms: C_11  and  C_25
    6  A    between atoms: C_13  and  C_30
    7  A    between atoms: C_14  and  C_20
    8  A    between atoms: C_19  and  N_29
    9  A    between atoms: C_23  and  C_25
                            x       y       z     vdW  Elec       q    Type
                         _______ _______ _______ _____ _____    ______ ____

>  <TORSDO>
F 9

$$$$
