=
 OpenBabel10272401423D

 55 61  0  0  1  0  0  0  0  0999 V2000
  188.7540  176.9130  142.3220 C   0  0  1  0  0  3  0  0  0  0  0  0
  190.2780  178.7030  142.9460 O   0  0  0  0  0  0  0  0  0  0  0  0
  191.1890  176.5040  142.8300 C   0  0  1  0  0  3  0  0  0  0  0  0
  191.6560  178.8060  143.1830 C   0  0  0  0  0  2  0  0  0  0  0  0
  189.9690  177.3450  143.1490 C   0  0  2  0  0  3  0  0  0  0  0  0
  192.3110  177.5040  142.7780 C   0  0  0  0  0  2  0  0  0  0  0  0
  191.4180  175.4970  143.9430 C   0  0  0  0  0  2  0  0  0  0  0  0
  191.6410  176.2150  145.2660 C   0  0  0  0  0  2  0  0  0  0  0  0
  192.1190  175.2390  146.3260 C   0  0  0  0  0  2  0  0  0  0  0  0
  192.2240  175.9290  147.6760 C   0  0  0  0  0  1  0  0  0  0  0  0
  187.5740  176.6520  143.2420 C   0  0  0  0  0  2  0  0  0  0  0  0
  189.1740  177.7940  147.3490 C   0  0  0  0  0  2  0  0  0  0  0  0
  188.4250  177.8850  148.6680 C   0  0  0  0  0  2  0  0  0  0  0  0
  186.7730  177.5610  146.9590 C   0  0  2  0  0  3  0  0  0  0  0  0
  187.0000  178.2380  148.3050 C   0  0  2  0  0  3  0  0  0  0  0  0
  186.8940  179.6270  148.1990 O   0  0  0  0  0  1  0  0  0  0  0  0
  188.1500  177.3800  146.3100 C   0  0  1  0  0  3  0  0  0  0  0  0
  185.8060  177.7490  144.6370 C   0  0  2  0  0  3  0  0  0  0  0  0
  185.7500  178.2840  146.0730 C   0  0  0  0  0  2  0  0  0  0  0  0
  188.3130  178.2270  145.0500 C   0  0  0  0  0  2  0  0  0  0  0  0
  187.2170  177.9080  144.0220 C   0  0  1  0  0  3  0  0  0  0  0  0
  184.6990  179.9370  143.9520 C   0  0  0  0  0  1  0  0  0  0  0  0
  184.7270  178.4140  143.7640 C   0  0  1  0  0  3  0  0  0  0  0  0
  184.8260  177.9400  142.2940 C   0  0  2  0  0  3  0  0  0  0  0  0
  184.9400  179.0900  141.3090 C   0  0  0  0  0  2  0  0  0  0  0  0
  183.6280  178.3340  141.4460 C   0  0  1  0  0  3  0  0  0  0  0  0
  182.5680  177.6070  139.2790 C   0  0  0  0  0  0  0  0  0  0  0  0
  182.4800  176.6600  138.2220 N   0  0  0  0  0  1  0  0  0  0  0  0
  183.4920  177.3930  140.3460 N   0  0  0  0  0  2  0  0  0  0  0  0
  181.8300  178.6270  139.2680 O   0  0  0  0  0  0  0  0  0  0  0  0
  188.3810  177.9450  141.2570 C   0  0  0  0  0  2  0  0  0  0  0  0
  188.6350  177.3880  139.8670 C   0  0  1  0  0  3  0  0  0  0  0  0
  187.6260  177.9440  138.8750 C   0  0  0  0  0  2  0  0  0  0  0  0
  187.3390  176.9940  137.8940 O   0  0  0  0  0  1  0  0  0  0  0  0
  190.0400  177.7470  139.4320 C   0  0  0  0  0  2  0  0  0  0  0  0
  190.8680  176.4840  139.3300 C   0  0  0  0  0  2  0  0  0  0  0  0
  190.3270  175.5940  138.2220 C   0  0  0  0  0  2  0  0  0  0  0  0
  193.6710  175.4240  137.2640 C   0  0  1  0  0  0  0  0  0  0  0  0
  191.6830  176.1170  136.2120 C   0  0  0  0  0  2  0  0  0  0  0  0
  191.0360  173.7720  136.6660 C   0  0  0  0  0  1  0  0  0  0  0  0
  191.4400  175.0900  137.3080 C   0  0  2  0  0  0  0  0  0  0  0  0
  193.9110  176.3210  135.0140 F   0  0  0  0  0  0  0  0  0  0  0  0
  193.1720  176.2700  136.1820 C   0  0  2  0  0  0  0  0  0  0  0  0
  193.7630  176.8320  137.3310 O   0  0  0  0  0  0  0  0  0  0  0  0
  192.6280  174.9130  138.0540 O   0  0  0  0  0  0  0  0  0  0  0  0
  195.6670  174.7930  138.5350 O   0  0  0  0  0  1  0  0  0  0  0  0
  195.0340  174.7020  137.2920 C   0  0  1  0  0  3  0  0  0  0  0  0
  194.9910  173.2400  136.8160 C   0  0  1  0  0  3  0  0  0  0  0  0
  194.3280  173.1040  135.4550 C   0  0  0  0  0  1  0  0  0  0  0  0
  197.5570  171.1300  135.3330 O   0  0  0  0  0  1  0  0  0  0  0  0
  196.3210  171.3200  135.9500 C   0  0  1  0  0  3  0  0  0  0  0  0
  196.4910  171.2090  137.4530 C   0  0  1  0  0  3  0  0  0  0  0  0
  196.3750  172.5860  136.7850 C   0  0  2  0  0  3  0  0  0  0  0  0
  195.2030  170.6820  138.0720 C   0  0  0  0  0  2  0  0  0  0  0  0
  194.7540  169.4480  137.3170 C   0  0  0  0  0  1  0  0  0  0  0  0
  1 31  1  6  0  0  0
  1 11  1  0  0  0  0
  2  5  1  0  0  0  0
  2  4  1  0  0  0  0
  3  5  1  0  0  0  0
  3  7  1  1  0  0  0
  5  1  1  6  0  0  0
  6  3  1  0  0  0  0
  6  4  1  0  0  0  0
  7  8  1  0  0  0  0
  8  9  1  0  0  0  0
  9 10  1  0  0  0  0
 12 13  1  0  0  0  0
 14 19  1  6  0  0  0
 14 15  1  0  0  0  0
 15 16  1  6  0  0  0
 15 13  1  0  0  0  0
 17 20  1  6  0  0  0
 17 14  1  0  0  0  0
 17 12  1  0  0  0  0
 18 23  1  6  0  0  0
 18 19  1  0  0  0  0
 21 11  1  1  0  0  0
 21 18  1  0  0  0  0
 21 20  1  0  0  0  0
 23 22  1  6  0  0  0
 24 23  1  1  0  0  0
 25 26  1  0  0  0  0
 25 24  1  0  0  0  0
 26 29  1  6  0  0  0
 26 24  1  0  0  0  0
 27 29  1  0  0  0  0
 28 27  1  0  0  0  0
 30 27  2  0  0  0  0
 32 33  1  6  0  0  0
 32 31  1  0  0  0  0
 34 33  1  0  0  0  0
 35 32  1  0  0  0  0
 36 35  1  0  0  0  0
 37 36  1  0  0  0  0
 38 47  1  6  0  0  0
 38 44  1  0  0  0  0
 38 45  1  0  0  0  0
 39 41  1  0  0  0  0
 41 40  1  6  0  0  0
 41 45  1  0  0  0  0
 41 37  1  0  0  0  0
 43 42  1  6  0  0  0
 43 39  1  0  0  0  0
 43 38  1  0  0  0  0
 43 44  1  0  0  0  0
 47 46  1  1  0  0  0
 48 49  1  6  0  0  0
 48 47  1  0  0  0  0
 51 50  1  6  0  0  0
 51 53  1  0  0  0  0
 51 52  1  0  0  0  0
 52 54  1  1  0  0  0
 53 48  1  1  0  0  0
 53 52  1  0  0  0  0
 55 54  1  0  0  0  0
M  END
>  <MODEL>
1

>  <REMARK>
 VINA RESULT:      -7.8      0.000      0.000
  Name = 
  20 active torsions:
  status: ('A' for Active; 'I' for Inactive)
    1  A    between atoms: C_1  and  C_38
    2  A    between atoms: C_2  and  C_19
    3  A    between atoms: C_2  and  C_28
    4  A    between atoms: C_2  and  C_44
    5  A    between atoms: C_4  and  C_40
    6  A    between atoms: C_5  and  C_40
    7  A    between atoms: C_5  and  C_46
    8  A    between atoms: C_6  and  C_14
    9  A    between atoms: C_6  and  C_46
   10  A    between atoms: C_8  and  C_22
   11  A    between atoms: C_13  and  C_52
   12  A    between atoms: C_19  and  C_40
   13  A    between atoms: C_21  and  C_38
   14  A    between atoms: C_21  and  C_42
   15  A    between atoms: C_27  and  C_31
   16  A    between atoms: C_28  and  C_49
   17  A    between atoms: C_31  and  C_51
   18  A    between atoms: N_32  and  C_48
   19  A    between atoms: C_33  and  C_52
   20  A    between atoms: C_35  and  C_51
                            x       y       z     vdW  Elec       q    Type
                         _______ _______ _______ _____ _____    ______ ____

>  <TORSDO>
F 20

$$$$
=
 OpenBabel10272401423D

 55 61  0  0  1  0  0  0  0  0999 V2000
  188.2350  176.6330  142.2890 C   0  0  1  0  0  3  0  0  0  0  0  0
  190.1410  175.4160  143.1850 O   0  0  0  0  0  0  0  0  0  0  0  0
  190.5970  177.4950  142.1120 C   0  0  1  0  0  3  0  0  0  0  0  0
  191.5120  175.6710  143.3270 C   0  0  0  0  0  2  0  0  0  0  0  0
  189.7140  176.2640  142.1440 C   0  0  2  0  0  3  0  0  0  0  0  0
  191.7710  177.1180  142.9730 C   0  0  0  0  0  2  0  0  0  0  0  0
  191.0420  177.7650  140.6850 C   0  0  0  0  0  2  0  0  0  0  0  0
  190.9010  176.5050  139.8430 C   0  0  0  0  0  2  0  0  0  0  0  0
  191.9910  176.4480  138.7880 C   0  0  0  0  0  2  0  0  0  0  0  0
  193.2880  177.0250  139.3320 C   0  0  0  0  0  1  0  0  0  0  0  0
  187.7400  176.2350  143.6690 C   0  0  0  0  0  2  0  0  0  0  0  0
  191.0510  177.4730  146.5390 C   0  0  0  0  0  2  0  0  0  0  0  0
  191.0370  177.4750  148.0580 C   0  0  0  0  0  2  0  0  0  0  0  0
  188.7910  177.0160  147.3520 C   0  0  2  0  0  3  0  0  0  0  0  0
  189.5940  177.6950  148.4550 C   0  0  2  0  0  3  0  0  0  0  0  0
  189.3420  179.0680  148.4950 O   0  0  0  0  0  1  0  0  0  0  0  0
  189.6850  176.9760  146.1070 C   0  0  1  0  0  3  0  0  0  0  0  0
  186.8010  177.1400  145.8080 C   0  0  2  0  0  3  0  0  0  0  0  0
  187.4130  177.6490  147.1180 C   0  0  0  0  0  2  0  0  0  0  0  0
  189.1440  177.8510  144.9770 C   0  0  0  0  0  2  0  0  0  0  0  0
  187.7140  177.4410  144.5950 C   0  0  1  0  0  3  0  0  0  0  0  0
  185.0200  178.7240  146.7000 C   0  0  0  0  0  1  0  0  0  0  0  0
  185.3850  177.7090  145.6090 C   0  0  1  0  0  3  0  0  0  0  0  0
  185.1820  178.2080  144.1580 C   0  0  2  0  0  3  0  0  0  0  0  0
  184.7920  179.6750  144.0870 C   0  0  0  0  0  2  0  0  0  0  0  0
  183.7460  178.5980  143.8460 C   0  0  1  0  0  3  0  0  0  0  0  0
  182.2420  178.7290  141.8280 C   0  0  0  0  0  0  0  0  0  0  0  0
  182.0700  178.5850  140.4240 N   0  0  0  0  0  1  0  0  0  0  0  0
  183.5140  178.4590  142.4170 N   0  0  0  0  0  2  0  0  0  0  0  0
  181.2720  179.0920  142.5430 O   0  0  0  0  0  0  0  0  0  0  0  0
  187.9810  178.1190  142.0400 C   0  0  0  0  0  2  0  0  0  0  0  0
  187.1050  178.3100  140.8140 C   0  0  1  0  0  3  0  0  0  0  0  0
  186.1260  179.4530  141.0270 C   0  0  0  0  0  2  0  0  0  0  0  0
  185.2730  179.5690  139.9290 O   0  0  0  0  0  1  0  0  0  0  0  0
  187.9810  178.5980  139.6120 C   0  0  0  0  0  2  0  0  0  0  0  0
  187.5950  177.6690  138.4800 C   0  0  0  0  0  2  0  0  0  0  0  0
  188.6530  177.7100  137.3890 C   0  0  0  0  0  2  0  0  0  0  0  0
  188.6410  174.3000  136.6810 C   0  0  1  0  0  0  0  0  0  0  0  0
  189.8940  176.1420  135.9220 C   0  0  0  0  0  2  0  0  0  0  0  0
  187.6550  176.9370  135.2330 C   0  0  0  0  0  1  0  0  0  0  0  0
  188.5130  176.5380  136.4230 C   0  0  2  0  0  0  0  0  0  0  0  0
  190.4160  173.8010  135.0930 F   0  0  0  0  0  0  0  0  0  0  0  0
  189.9170  174.6520  136.0630 C   0  0  2  0  0  0  0  0  0  0  0  0
  189.8610  174.1500  137.3790 O   0  0  0  0  0  0  0  0  0  0  0  0
  187.9240  175.4380  137.0880 O   0  0  0  0  0  0  0  0  0  0  0  0
  187.9890  172.1090  137.5600 O   0  0  0  0  0  1  0  0  0  0  0  0
  187.8690  172.9820  136.4740 C   0  0  1  0  0  3  0  0  0  0  0  0
  186.3900  173.1620  136.0910 C   0  0  1  0  0  3  0  0  0  0  0  0
  186.0520  172.4670  134.7820 C   0  0  0  0  0  1  0  0  0  0  0  0
  183.2930  171.6700  137.2830 O   0  0  0  0  0  1  0  0  0  0  0  0
  184.0110  172.6890  136.6580 C   0  0  1  0  0  3  0  0  0  0  0  0
  184.4130  173.7230  137.6910 C   0  0  1  0  0  3  0  0  0  0  0  0
  185.4320  172.6910  137.1890 C   0  0  2  0  0  3  0  0  0  0  0  0
  184.5040  175.0930  137.0310 C   0  0  0  0  0  2  0  0  0  0  0  0
  183.1240  175.5190  136.5730 C   0  0  0  0  0  1  0  0  0  0  0  0
  1 31  1  1  0  0  0
  1 11  1  0  0  0  0
  2  4  1  0  0  0  0
  3  7  1  6  0  0  0
  3  5  1  0  0  0  0
  3  6  1  0  0  0  0
  5  1  1  1  0  0  0
  5  2  1  0  0  0  0
  6  4  1  0  0  0  0
  8  7  1  0  0  0  0
  9 10  1  0  0  0  0
  9  8  1  0  0  0  0
 12 13  1  0  0  0  0
 13 15  1  0  0  0  0
 14 19  1  6  0  0  0
 14 15  1  0  0  0  0
 15 16  1  6  0  0  0
 17 20  1  6  0  0  0
 17 12  1  0  0  0  0
 17 14  1  0  0  0  0
 18 23  1  6  0  0  0
 18 19  1  0  0  0  0
 21 11  1  6  0  0  0
 21 20  1  0  0  0  0
 21 18  1  0  0  0  0
 23 22  1  1  0  0  0
 24 23  1  1  0  0  0
 25 24  1  0  0  0  0
 26 29  1  6  0  0  0
 26 25  1  0  0  0  0
 26 24  1  0  0  0  0
 27 29  1  0  0  0  0
 27 30  2  0  0  0  0
 28 27  1  0  0  0  0
 32 35  1  6  0  0  0
 32 33  1  0  0  0  0
 32 31  1  0  0  0  0
 34 33  1  0  0  0  0
 36 35  1  0  0  0  0
 37 36  1  0  0  0  0
 38 47  1  6  0  0  0
 38 45  1  0  0  0  0
 38 44  1  0  0  0  0
 39 43  1  0  0  0  0
 39 41  1  0  0  0  0
 41 40  1  6  0  0  0
 41 45  1  0  0  0  0
 41 37  1  0  0  0  0
 43 42  1  6  0  0  0
 43 38  1  0  0  0  0
 43 44  1  0  0  0  0
 47 46  1  1  0  0  0
 48 49  1  6  0  0  0
 48 47  1  0  0  0  0
 51 53  1  0  0  0  0
 51 50  1  1  0  0  0
 51 52  1  0  0  0  0
 52 54  1  6  0  0  0
 53 48  1  6  0  0  0
 53 52  1  0  0  0  0
 55 54  1  0  0  0  0
M  END
>  <MODEL>
2

>  <REMARK>
 VINA RESULT:      -7.7      3.220      5.580
  Name = 
  20 active torsions:
  status: ('A' for Active; 'I' for Inactive)
    1  A    between atoms: C_1  and  C_38
    2  A    between atoms: C_2  and  C_19
    3  A    between atoms: C_2  and  C_28
    4  A    between atoms: C_2  and  C_44
    5  A    between atoms: C_4  and  C_40
    6  A    between atoms: C_5  and  C_40
    7  A    between atoms: C_5  and  C_46
    8  A    between atoms: C_6  and  C_14
    9  A    between atoms: C_6  and  C_46
   10  A    between atoms: C_8  and  C_22
   11  A    between atoms: C_13  and  C_52
   12  A    between atoms: C_19  and  C_40
   13  A    between atoms: C_21  and  C_38
   14  A    between atoms: C_21  and  C_42
   15  A    between atoms: C_27  and  C_31
   16  A    between atoms: C_28  and  C_49
   17  A    between atoms: C_31  and  C_51
   18  A    between atoms: N_32  and  C_48
   19  A    between atoms: C_33  and  C_52
   20  A    between atoms: C_35  and  C_51
                            x       y       z     vdW  Elec       q    Type
                         _______ _______ _______ _____ _____    ______ ____

>  <TORSDO>
F 20

$$$$
=
 OpenBabel10272401423D

 55 61  0  0  1  0  0  0  0  0999 V2000
  189.3340  178.2230  141.0330 C   0  0  1  0  0  3  0  0  0  0  0  0
  191.4160  177.6100  142.1300 O   0  0  0  0  0  0  0  0  0  0  0  0
  189.4770  176.3550  142.7200 C   0  0  1  0  0  3  0  0  0  0  0  0
  191.8230  176.5930  143.0050 C   0  0  0  0  0  2  0  0  0  0  0  0
  190.0210  177.7060  142.3000 C   0  0  2  0  0  3  0  0  0  0  0  0
  190.7030  175.5830  143.1210 C   0  0  0  0  0  2  0  0  0  0  0  0
  188.5410  176.5300  143.9020 C   0  0  0  0  0  2  0  0  0  0  0  0
  189.1930  177.3980  144.9680 C   0  0  0  0  0  2  0  0  0  0  0  0
  188.3790  177.3670  146.2490 C   0  0  0  0  0  2  0  0  0  0  0  0
  189.2870  177.1530  147.4500 C   0  0  0  0  0  1  0  0  0  0  0  0
  188.9600  177.0520  140.1390 C   0  0  0  0  0  2  0  0  0  0  0  0
  187.3050  179.1400  136.4470 C   0  0  0  0  0  2  0  0  0  0  0  0
  186.8720  178.5290  135.1260 C   0  0  0  0  0  2  0  0  0  0  0  0
  187.9340  176.7790  136.3770 C   0  0  2  0  0  3  0  0  0  0  0  0
  187.7120  177.2830  134.9560 C   0  0  2  0  0  3  0  0  0  0  0  0
  188.9200  177.6330  134.3470 O   0  0  0  0  0  1  0  0  0  0  0  0
  187.7800  177.9870  137.3090 C   0  0  1  0  0  3  0  0  0  0  0  0
  189.5600  175.8140  138.0460 C   0  0  2  0  0  3  0  0  0  0  0  0
  189.2480  176.0080  136.5570 C   0  0  0  0  0  2  0  0  0  0  0  0
  189.0920  178.3570  138.0000 C   0  0  0  0  0  2  0  0  0  0  0  0
  189.6560  177.1670  138.7910 C   0  0  1  0  0  3  0  0  0  0  0  0
  191.0120  173.9490  137.1000 C   0  0  0  0  0  1  0  0  0  0  0  0
  190.8350  174.9710  138.2310 C   0  0  1  0  0  3  0  0  0  0  0  0
  192.0660  175.8710  138.4970 C   0  0  2  0  0  3  0  0  0  0  0  0
  192.7980  176.2620  137.2250 C   0  0  0  0  0  2  0  0  0  0  0  0
  193.3890  175.2080  138.1480 C   0  0  1  0  0  3  0  0  0  0  0  0
  195.5370  175.0330  139.4550 C   0  0  0  0  0  0  0  0  0  0  0  0
  196.5500  175.6650  140.2270 N   0  0  0  0  0  1  0  0  0  0  0  0
  194.4460  175.8030  138.9500 N   0  0  0  0  0  2  0  0  0  0  0  0
  195.6070  173.7970  139.2220 O   0  0  0  0  0  0  0  0  0  0  0  0
  188.1000  179.0690  141.3450 C   0  0  0  0  0  2  0  0  0  0  0  0
  186.8340  178.2510  141.1560 C   0  0  1  0  0  3  0  0  0  0  0  0
  186.0970  178.0920  142.4760 C   0  0  0  0  0  2  0  0  0  0  0  0
  185.1890  179.1360  142.6500 O   0  0  0  0  0  1  0  0  0  0  0  0
  185.9400  178.9370  140.1440 C   0  0  0  0  0  2  0  0  0  0  0  0
  184.7640  178.0380  139.8270 C   0  0  0  0  0  2  0  0  0  0  0  0
  184.1460  178.4370  138.4960 C   0  0  0  0  0  2  0  0  0  0  0  0
  183.6640  176.2730  135.8120 C   0  0  1  0  0  0  0  0  0  0  0  0
  182.2960  177.7940  136.9760 C   0  0  0  0  0  2  0  0  0  0  0  0
  182.8750  176.3210  138.8780 C   0  0  0  0  0  1  0  0  0  0  0  0
  183.4410  177.2630  137.8270 C   0  0  2  0  0  0  0  0  0  0  0  0
  181.3930  176.5230  134.9730 F   0  0  0  0  0  0  0  0  0  0  0  0
  182.4520  177.0760  135.6710 C   0  0  2  0  0  0  0  0  0  0  0  0
  183.6120  177.3760  134.9300 O   0  0  0  0  0  0  0  0  0  0  0  0
  184.3520  176.5650  137.0010 O   0  0  0  0  0  0  0  0  0  0  0  0
  185.1930  174.8840  134.4960 O   0  0  0  0  0  1  0  0  0  0  0  0
  183.9410  174.9250  135.1160 C   0  0  1  0  0  3  0  0  0  0  0  0
  183.7460  173.6920  136.0150 C   0  0  1  0  0  3  0  0  0  0  0  0
  182.2920  173.5070  136.4200 C   0  0  0  0  0  1  0  0  0  0  0  0
  184.0660  170.0750  135.7790 O   0  0  0  0  0  1  0  0  0  0  0  0
  184.2970  171.2950  136.4120 C   0  0  1  0  0  3  0  0  0  0  0  0
  185.6080  171.8740  135.9180 C   0  0  1  0  0  3  0  0  0  0  0  0
  184.2730  172.4030  135.3770 C   0  0  2  0  0  3  0  0  0  0  0  0
  186.2380  172.7190  137.0180 C   0  0  0  0  0  2  0  0  0  0  0  0
  187.7050  172.3570  137.1460 C   0  0  0  0  0  1  0  0  0  0  0  0
  1 11  1  6  0  0  0
  1 31  1  0  0  0  0
  2  5  1  0  0  0  0
  2  4  1  0  0  0  0
  3  6  1  0  0  0  0
  3  7  1  1  0  0  0
  4  6  1  0  0  0  0
  5  1  1  6  0  0  0
  5  3  1  0  0  0  0
  7  8  1  0  0  0  0
  8  9  1  0  0  0  0
  9 10  1  0  0  0  0
 13 12  1  0  0  0  0
 14 19  1  6  0  0  0
 14 17  1  0  0  0  0
 15 16  1  1  0  0  0
 15 13  1  0  0  0  0
 15 14  1  0  0  0  0
 17 12  1  6  0  0  0
 17 20  1  0  0  0  0
 18 23  1  6  0  0  0
 18 21  1  0  0  0  0
 19 18  1  0  0  0  0
 20 21  1  0  0  0  0
 21 11  1  1  0  0  0
 23 22  1  6  0  0  0
 24 23  1  6  0  0  0
 25 26  1  0  0  0  0
 25 24  1  0  0  0  0
 26 24  1  0  0  0  0
 26 29  1  1  0  0  0
 27 28  1  0  0  0  0
 29 27  1  0  0  0  0
 30 27  2  0  0  0  0
 32 35  1  6  0  0  0
 32 31  1  0  0  0  0
 32 33  1  0  0  0  0
 33 34  1  0  0  0  0
 36 35  1  0  0  0  0
 37 36  1  0  0  0  0
 38 47  1  6  0  0  0
 38 45  1  0  0  0  0
 39 41  1  0  0  0  0
 41 37  1  0  0  0  0
 41 40  1  1  0  0  0
 43 42  1  6  0  0  0
 43 38  1  0  0  0  0
 43 39  1  0  0  0  0
 44 43  1  0  0  0  0
 44 38  1  0  0  0  0
 45 41  1  0  0  0  0
 47 46  1  1  0  0  0
 47 48  1  0  0  0  0
 48 49  1  6  0  0  0
 51 50  1  6  0  0  0
 52 51  1  0  0  0  0
 52 54  1  1  0  0  0
 53 52  1  0  0  0  0
 53 48  1  1  0  0  0
 53 51  1  0  0  0  0
 54 55  1  0  0  0  0
M  END
>  <MODEL>
3

>  <REMARK>
 VINA RESULT:      -7.3      4.242      9.178
  Name = 
  20 active torsions:
  status: ('A' for Active; 'I' for Inactive)
    1  A    between atoms: C_1  and  C_38
    2  A    between atoms: C_2  and  C_19
    3  A    between atoms: C_2  and  C_28
    4  A    between atoms: C_2  and  C_44
    5  A    between atoms: C_4  and  C_40
    6  A    between atoms: C_5  and  C_40
    7  A    between atoms: C_5  and  C_46
    8  A    between atoms: C_6  and  C_14
    9  A    between atoms: C_6  and  C_46
   10  A    between atoms: C_8  and  C_22
   11  A    between atoms: C_13  and  C_52
   12  A    between atoms: C_19  and  C_40
   13  A    between atoms: C_21  and  C_38
   14  A    between atoms: C_21  and  C_42
   15  A    between atoms: C_27  and  C_31
   16  A    between atoms: C_28  and  C_49
   17  A    between atoms: C_31  and  C_51
   18  A    between atoms: N_32  and  C_48
   19  A    between atoms: C_33  and  C_52
   20  A    between atoms: C_35  and  C_51
                            x       y       z     vdW  Elec       q    Type
                         _______ _______ _______ _____ _____    ______ ____

>  <TORSDO>
F 20

$$$$
=
 OpenBabel10272401423D

 55 61  0  0  1  0  0  0  0  0999 V2000
  187.9670  178.1010  141.7450 C   0  0  1  0  0  3  0  0  0  0  0  0
  185.8210  179.2220  141.5190 O   0  0  0  0  0  0  0  0  0  0  0  0
  186.5850  177.9690  139.6410 C   0  0  1  0  0  3  0  0  0  0  0  0
  184.8080  179.2560  140.5510 C   0  0  0  0  0  2  0  0  0  0  0  0
  186.9810  178.8280  140.8260 C   0  0  2  0  0  3  0  0  0  0  0  0
  185.1050  178.2020  139.5080 C   0  0  0  0  0  2  0  0  0  0  0  0
  187.3180  178.4460  138.4000 C   0  0  0  0  0  2  0  0  0  0  0  0
  186.6520  177.8940  137.1490 C   0  0  0  0  0  2  0  0  0  0  0  0
  187.6060  176.9810  136.3990 C   0  0  0  0  0  2  0  0  0  0  0  0
  187.9540  175.7660  137.2430 C   0  0  0  0  0  1  0  0  0  0  0  0
  187.2130  177.4410  142.8860 C   0  0  0  0  0  2  0  0  0  0  0  0
  191.0600  177.3100  145.3190 C   0  0  0  0  0  2  0  0  0  0  0  0
  191.2930  176.7070  146.6930 C   0  0  0  0  0  2  0  0  0  0  0  0
  188.9250  176.6500  146.3100 C   0  0  2  0  0  3  0  0  0  0  0  0
  189.9660  176.8030  147.4130 C   0  0  2  0  0  3  0  0  0  0  0  0
  189.8760  178.0540  148.0260 O   0  0  0  0  0  1  0  0  0  0  0  0
  189.5950  177.0770  144.9990 C   0  0  1  0  0  3  0  0  0  0  0  0
  186.7370  177.4520  145.3460 C   0  0  2  0  0  3  0  0  0  0  0  0
  187.6050  177.3730  146.6080 C   0  0  0  0  0  2  0  0  0  0  0  0
  188.9780  178.3490  144.4200 C   0  0  0  0  0  2  0  0  0  0  0  0
  187.4690  178.1780  144.1920 C   0  0  1  0  0  3  0  0  0  0  0  0
  185.4870  179.1330  146.7920 C   0  0  0  0  0  1  0  0  0  0  0  0
  185.3780  178.1040  145.6580 C   0  0  1  0  0  3  0  0  0  0  0  0
  184.6980  178.6230  144.3680 C   0  0  2  0  0  3  0  0  0  0  0  0
  184.3360  180.0960  144.4430 C   0  0  0  0  0  2  0  0  0  0  0  0
  183.2510  179.0400  144.5710 C   0  0  1  0  0  3  0  0  0  0  0  0
  181.1210  178.7660  143.2520 C   0  0  0  0  0  0  0  0  0  0  0  0
  180.4720  178.6620  141.9910 N   0  0  0  0  0  1  0  0  0  0  0  0
  182.5390  178.9200  143.3080 N   0  0  0  0  0  2  0  0  0  0  0  0
  180.4410  178.7210  144.3100 O   0  0  0  0  0  0  0  0  0  0  0  0
  188.8070  177.0680  140.9950 C   0  0  0  0  0  2  0  0  0  0  0  0
  190.2300  177.5700  140.8170 C   0  0  1  0  0  3  0  0  0  0  0  0
  191.2100  176.6740  141.5580 C   0  0  0  0  0  2  0  0  0  0  0  0
  192.2060  177.4440  142.1600 O   0  0  0  0  0  1  0  0  0  0  0  0
  190.5710  177.5980  139.3420 C   0  0  0  0  0  2  0  0  0  0  0  0
  191.2060  176.2800  138.9510 C   0  0  0  0  0  2  0  0  0  0  0  0
  192.5430  176.5270  138.2690 C   0  0  0  0  0  2  0  0  0  0  0  0
  194.0710  173.7110  136.9060 C   0  0  1  0  0  0  0  0  0  0  0  0
  194.0060  175.9940  136.3390 C   0  0  0  0  0  2  0  0  0  0  0  0
  191.5800  175.5300  136.1890 C   0  0  0  0  0  1  0  0  0  0  0  0
  192.7810  175.5490  137.1230 C   0  0  2  0  0  0  0  0  0  0  0  0
  195.4140  174.3720  134.9870 F   0  0  0  0  0  0  0  0  0  0  0  0
  194.8060  174.7390  136.1740 C   0  0  2  0  0  0  0  0  0  0  0  0
  195.3280  174.1740  137.3550 O   0  0  0  0  0  0  0  0  0  0  0  0
  193.0020  174.2520  137.6410 O   0  0  0  0  0  0  0  0  0  0  0  0
  193.5320  171.9530  135.2880 O   0  0  0  0  0  1  0  0  0  0  0  0
  194.0400  172.2070  136.5660 C   0  0  1  0  0  3  0  0  0  0  0  0
  195.3820  171.4810  136.7640 C   0  0  1  0  0  3  0  0  0  0  0  0
  195.3310  170.5010  137.9260 C   0  0  0  0  0  1  0  0  0  0  0  0
  197.1360  168.8250  135.0010 O   0  0  0  0  0  1  0  0  0  0  0  0
  197.1080  169.9590  135.8110 C   0  0  1  0  0  3  0  0  0  0  0  0
  197.2190  171.1960  134.9420 C   0  0  1  0  0  3  0  0  0  0  0  0
  195.8580  170.7600  135.5000 C   0  0  2  0  0  3  0  0  0  0  0  0
  197.9100  172.3070  135.7220 C   0  0  0  0  0  2  0  0  0  0  0  0
  199.2150  171.7820  136.2870 C   0  0  0  0  0  1  0  0  0  0  0  0
  1 31  1  6  0  0  0
  1 11  1  0  0  0  0
  3  7  1  6  0  0  0
  3  5  1  0  0  0  0
  4  2  1  0  0  0  0
  5  2  1  0  0  0  0
  5  1  1  1  0  0  0
  6  3  1  0  0  0  0
  6  4  1  0  0  0  0
  8  7  1  0  0  0  0
  9  8  1  0  0  0  0
  9 10  1  0  0  0  0
 12 13  1  0  0  0  0
 13 15  1  0  0  0  0
 14 19  1  1  0  0  0
 14 15  1  0  0  0  0
 15 16  1  6  0  0  0
 17 20  1  1  0  0  0
 17 12  1  0  0  0  0
 17 14  1  0  0  0  0
 18 23  1  1  0  0  0
 18 19  1  0  0  0  0
 21 11  1  6  0  0  0
 21 20  1  0  0  0  0
 21 18  1  0  0  0  0
 23 22  1  1  0  0  0
 24 25  1  0  0  0  0
 24 26  1  0  0  0  0
 24 23  1  1  0  0  0
 25 26  1  0  0  0  0
 26 29  1  6  0  0  0
 27 29  1  0  0  0  0
 27 30  2  0  0  0  0
 28 27  1  0  0  0  0
 32 35  1  6  0  0  0
 32 31  1  0  0  0  0
 32 33  1  0  0  0  0
 33 34  1  0  0  0  0
 36 35  1  0  0  0  0
 37 36  1  0  0  0  0
 38 47  1  6  0  0  0
 38 44  1  0  0  0  0
 38 45  1  0  0  0  0
 39 41  1  0  0  0  0
 41 40  1  6  0  0  0
 41 45  1  0  0  0  0
 41 37  1  0  0  0  0
 43 42  1  6  0  0  0
 43 39  1  0  0  0  0
 43 38  1  0  0  0  0
 43 44  1  0  0  0  0
 47 46  1  6  0  0  0
 47 48  1  0  0  0  0
 48 49  1  1  0  0  0
 51 50  1  6  0  0  0
 52 53  1  0  0  0  0
 52 54  1  1  0  0  0
 52 51  1  0  0  0  0
 53 51  1  0  0  0  0
 53 48  1  1  0  0  0
 54 55  1  0  0  0  0
M  END
>  <MODEL>
4

>  <REMARK>
 VINA RESULT:      -7.2      1.966      4.251
  Name = 
  20 active torsions:
  status: ('A' for Active; 'I' for Inactive)
    1  A    between atoms: C_1  and  C_38
    2  A    between atoms: C_2  and  C_19
    3  A    between atoms: C_2  and  C_28
    4  A    between atoms: C_2  and  C_44
    5  A    between atoms: C_4  and  C_40
    6  A    between atoms: C_5  and  C_40
    7  A    between atoms: C_5  and  C_46
    8  A    between atoms: C_6  and  C_14
    9  A    between atoms: C_6  and  C_46
   10  A    between atoms: C_8  and  C_22
   11  A    between atoms: C_13  and  C_52
   12  A    between atoms: C_19  and  C_40
   13  A    between atoms: C_21  and  C_38
   14  A    between atoms: C_21  and  C_42
   15  A    between atoms: C_27  and  C_31
   16  A    between atoms: C_28  and  C_49
   17  A    between atoms: C_31  and  C_51
   18  A    between atoms: N_32  and  C_48
   19  A    between atoms: C_33  and  C_52
   20  A    between atoms: C_35  and  C_51
                            x       y       z     vdW  Elec       q    Type
                         _______ _______ _______ _____ _____    ______ ____

>  <TORSDO>
F 20

$$$$
=
 OpenBabel10272401423D

 55 61  0  0  1  0  0  0  0  0999 V2000
  187.6960  176.5560  137.3110 C   0  0  1  0  0  3  0  0  0  0  0  0
  187.3080  174.4670  136.1270 O   0  0  0  0  0  0  0  0  0  0  0  0
  189.5780  175.0850  136.5060 C   0  0  1  0  0  3  0  0  0  0  0  0
  188.1120  173.4200  135.6570 C   0  0  0  0  0  2  0  0  0  0  0  0
  188.1700  175.5750  136.2340 C   0  0  2  0  0  3  0  0  0  0  0  0
  189.5150  173.6160  136.1890 C   0  0  0  0  0  2  0  0  0  0  0  0
  190.5510  175.7930  135.5800 C   0  0  0  0  0  2  0  0  0  0  0  0
  191.7510  176.3010  136.3640 C   0  0  0  0  0  2  0  0  0  0  0  0
  192.0090  175.4170  137.5710 C   0  0  0  0  0  2  0  0  0  0  0  0
  193.3180  175.8000  138.2410 C   0  0  0  0  0  1  0  0  0  0  0  0
  186.2350  176.2950  137.6340 C   0  0  0  0  0  2  0  0  0  0  0  0
  183.4920  178.9010  140.1660 C   0  0  0  0  0  2  0  0  0  0  0  0
  181.9740  178.9730  140.1540 C   0  0  0  0  0  2  0  0  0  0  0  0
  182.6130  177.6150  138.2830 C   0  0  2  0  0  3  0  0  0  0  0  0
  181.5590  178.6130  138.7450 C   0  0  2  0  0  3  0  0  0  0  0  0
  181.5760  179.7690  137.9610 O   0  0  0  0  0  1  0  0  0  0  0  0
  183.8730  177.8760  139.1160 C   0  0  1  0  0  3  0  0  0  0  0  0
  184.1200  176.8500  136.4110 C   0  0  2  0  0  3  0  0  0  0  0  0
  182.8460  177.6260  136.7670 C   0  0  0  0  0  2  0  0  0  0  0  0
  185.0300  178.4020  138.2680 C   0  0  0  0  0  2  0  0  0  0  0  0
  185.3630  177.4330  137.1250 C   0  0  1  0  0  3  0  0  0  0  0  0
  185.5750  177.5450  134.4420 C   0  0  0  0  0  1  0  0  0  0  0  0
  184.3150  176.7900  134.8850 C   0  0  1  0  0  3  0  0  0  0  0  0
  184.2070  175.3370  134.3650 C   0  0  2  0  0  3  0  0  0  0  0  0
  182.7960  174.7820  134.4520 C   0  0  0  0  0  2  0  0  0  0  0  0
  183.8530  174.3300  135.4470 C   0  0  1  0  0  3  0  0  0  0  0  0
  184.4920  171.9560  136.0030 C   0  0  0  0  0  0  0  0  0  0  0  0
  184.9780  170.6910  135.5720 N   0  0  0  0  0  1  0  0  0  0  0  0
  184.3540  173.0200  135.0610 N   0  0  0  0  0  2  0  0  0  0  0  0
  184.1870  172.1310  137.2120 O   0  0  0  0  0  0  0  0  0  0  0  0
  188.5440  176.4800  138.5800 C   0  0  0  0  0  2  0  0  0  0  0  0
  188.8470  177.8740  139.1000 C   0  0  1  0  0  3  0  0  0  0  0  0
  188.5620  178.9180  138.0310 C   0  0  0  0  0  2  0  0  0  0  0  0
  189.6060  178.9600  137.1070 O   0  0  0  0  0  1  0  0  0  0  0  0
  188.0010  178.1470  140.3270 C   0  0  0  0  0  2  0  0  0  0  0  0
  188.9000  178.5850  141.4640 C   0  0  0  0  0  2  0  0  0  0  0  0
  190.0510  177.6040  141.6260 C   0  0  0  0  0  2  0  0  0  0  0  0
  190.4080  177.3820  145.0820 C   0  0  1  0  0  0  0  0  0  0  0  0
  191.3130  176.2170  143.2490 C   0  0  0  0  0  2  0  0  0  0  0  0
  188.9250  175.7260  142.8280 C   0  0  0  0  0  1  0  0  0  0  0  0
  189.9580  176.8360  142.9400 C   0  0  2  0  0  0  0  0  0  0  0  0
  192.0410  175.6580  145.6140 F   0  0  0  0  0  0  0  0  0  0  0  0
  191.5480  176.5580  144.6870 C   0  0  2  0  0  0  0  0  0  0  0  0
  191.7080  177.9260  144.9850 O   0  0  0  0  0  0  0  0  0  0  0  0
  189.5980  177.7180  143.9850 O   0  0  0  0  0  0  0  0  0  0  0  0
  190.1600  178.6290  147.1760 O   0  0  0  0  0  1  0  0  0  0  0  0
  189.7980  177.4620  146.4960 C   0  0  1  0  0  3  0  0  0  0  0  0
  188.2720  177.2640  146.5450 C   0  0  1  0  0  3  0  0  0  0  0  0
  187.8410  176.4700  147.7670 C   0  0  0  0  0  1  0  0  0  0  0  0
  185.5450  179.4810  147.4860 O   0  0  0  0  0  1  0  0  0  0  0  0
  186.0490  178.3450  146.8550 C   0  0  1  0  0  3  0  0  0  0  0  0
  186.4040  178.6870  145.4210 C   0  0  1  0  0  3  0  0  0  0  0  0
  187.5010  178.5860  146.4880 C   0  0  2  0  0  3  0  0  0  0  0  0
  186.2380  177.4500  144.5470 C   0  0  0  0  0  2  0  0  0  0  0  0
  185.7900  177.8740  143.1620 C   0  0  0  0  0  1  0  0  0  0  0  0
  1 11  1  1  0  0  0
  1 31  1  0  0  0  0
  2  5  1  0  0  0  0
  3  7  1  6  0  0  0
  4  2  1  0  0  0  0
  4  6  1  0  0  0  0
  5  3  1  0  0  0  0
  5  1  1  1  0  0  0
  6  3  1  0  0  0  0
  7  8  1  0  0  0  0
  8  9  1  0  0  0  0
  9 10  1  0  0  0  0
 13 12  1  0  0  0  0
 14 19  1  6  0  0  0
 14 15  1  0  0  0  0
 14 17  1  0  0  0  0
 15 16  1  6  0  0  0
 15 13  1  0  0  0  0
 17 20  1  6  0  0  0
 17 12  1  0  0  0  0
 18 23  1  6  0  0  0
 18 19  1  0  0  0  0
 18 21  1  0  0  0  0
 21 11  1  1  0  0  0
 21 20  1  0  0  0  0
 23 22  1  1  0  0  0
 24 25  1  0  0  0  0
 24 23  1  1  0  0  0
 24 26  1  0  0  0  0
 25 26  1  0  0  0  0
 26 29  1  6  0  0  0
 27 30  2  0  0  0  0
 28 27  1  0  0  0  0
 29 27  1  0  0  0  0
 31 32  1  0  0  0  0
 32 33  1  6  0  0  0
 32 35  1  0  0  0  0
 34 33  1  0  0  0  0
 35 36  1  0  0  0  0
 36 37  1  0  0  0  0
 37 41  1  0  0  0  0
 38 47  1  1  0  0  0
 39 43  1  0  0  0  0
 41 40  1  6  0  0  0
 41 39  1  0  0  0  0
 41 45  1  0  0  0  0
 43 44  1  0  0  0  0
 43 38  1  0  0  0  0
 43 42  1  1  0  0  0
 44 38  1  0  0  0  0
 45 38  1  0  0  0  0
 47 48  1  0  0  0  0
 47 46  1  6  0  0  0
 48 49  1  1  0  0  0
 51 50  1  1  0  0  0
 52 54  1  6  0  0  0
 52 53  1  0  0  0  0
 52 51  1  0  0  0  0
 53 48  1  6  0  0  0
 53 51  1  0  0  0  0
 55 54  1  0  0  0  0
M  END
>  <MODEL>
5

>  <REMARK>
 VINA RESULT:      -6.9      3.573      9.306
  Name = 
  20 active torsions:
  status: ('A' for Active; 'I' for Inactive)
    1  A    between atoms: C_1  and  C_38
    2  A    between atoms: C_2  and  C_19
    3  A    between atoms: C_2  and  C_28
    4  A    between atoms: C_2  and  C_44
    5  A    between atoms: C_4  and  C_40
    6  A    between atoms: C_5  and  C_40
    7  A    between atoms: C_5  and  C_46
    8  A    between atoms: C_6  and  C_14
    9  A    between atoms: C_6  and  C_46
   10  A    between atoms: C_8  and  C_22
   11  A    between atoms: C_13  and  C_52
   12  A    between atoms: C_19  and  C_40
   13  A    between atoms: C_21  and  C_38
   14  A    between atoms: C_21  and  C_42
   15  A    between atoms: C_27  and  C_31
   16  A    between atoms: C_28  and  C_49
   17  A    between atoms: C_31  and  C_51
   18  A    between atoms: N_32  and  C_48
   19  A    between atoms: C_33  and  C_52
   20  A    between atoms: C_35  and  C_51
                            x       y       z     vdW  Elec       q    Type
                         _______ _______ _______ _____ _____    ______ ____

>  <TORSDO>
F 20

$$$$
=
 OpenBabel10272401423D

 55 61  0  0  1  0  0  0  0  0999 V2000
  189.1830  177.2760  141.5270 C   0  0  1  0  0  3  0  0  0  0  0  0
  190.1210  179.2490  142.5960 O   0  0  0  0  0  0  0  0  0  0  0  0
  190.4640  177.1630  143.6960 C   0  0  1  0  0  3  0  0  0  0  0  0
  190.9380  179.4900  143.7090 C   0  0  0  0  0  2  0  0  0  0  0  0
  189.5320  177.9930  142.8350 C   0  0  2  0  0  3  0  0  0  0  0  0
  191.4550  178.1640  144.2210 C   0  0  0  0  0  2  0  0  0  0  0  0
  189.6790  176.5350  144.8340 C   0  0  0  0  0  2  0  0  0  0  0  0
  188.6110  177.4970  145.3320 C   0  0  0  0  0  2  0  0  0  0  0  0
  188.4390  177.3670  146.8350 C   0  0  0  0  0  2  0  0  0  0  0  0
  189.7330  176.8960  147.4790 C   0  0  0  0  0  1  0  0  0  0  0  0
  188.6020  178.2710  140.5370 C   0  0  0  0  0  2  0  0  0  0  0  0
  188.3170  176.5500  136.3310 C   0  0  0  0  0  2  0  0  0  0  0  0
  187.5670  177.1000  135.1300 C   0  0  0  0  0  2  0  0  0  0  0  0
  186.9070  178.4260  137.0180 C   0  0  2  0  0  3  0  0  0  0  0  0
  186.3930  177.8680  135.6960 C   0  0  2  0  0  3  0  0  0  0  0  0
  185.3320  176.9830  135.8970 O   0  0  0  0  0  1  0  0  0  0  0  0
  188.0590  177.5190  137.4690 C   0  0  1  0  0  3  0  0  0  0  0  0
  186.4250  178.8690  139.4530 C   0  0  2  0  0  3  0  0  0  0  0  0
  185.8090  178.6200  138.0710 C   0  0  0  0  0  2  0  0  0  0  0  0
  187.7250  176.7500  138.7450 C   0  0  0  0  0  2  0  0  0  0  0  0
  187.3480  177.7060  139.8860 C   0  0  1  0  0  3  0  0  0  0  0  0
  183.9620  178.6120  140.0440 C   0  0  0  0  0  1  0  0  0  0  0  0
  185.3280  179.1450  140.4970 C   0  0  1  0  0  3  0  0  0  0  0  0
  185.7720  178.6890  141.9080 C   0  0  2  0  0  3  0  0  0  0  0  0
  184.8310  177.6680  142.5220 C   0  0  0  0  0  2  0  0  0  0  0  0
  184.8140  179.1070  143.0110 C   0  0  1  0  0  3  0  0  0  0  0  0
  184.8800  179.1780  145.5290 C   0  0  0  0  0  0  0  0  0  0  0  0
  185.6410  179.2660  146.7270 N   0  0  0  0  0  1  0  0  0  0  0  0
  185.5440  179.2020  144.2660 N   0  0  0  0  0  2  0  0  0  0  0  0
  183.6270  179.0820  145.5900 O   0  0  0  0  0  0  0  0  0  0  0  0
  190.3880  176.5610  140.9170 C   0  0  0  0  0  2  0  0  0  0  0  0
  191.2430  177.5380  140.1300 C   0  0  1  0  0  3  0  0  0  0  0  0
  192.6420  177.6220  140.7190 C   0  0  0  0  0  2  0  0  0  0  0  0
  193.5960  177.6120  139.7010 O   0  0  0  0  0  1  0  0  0  0  0  0
  191.3170  177.0890  138.6850 C   0  0  0  0  0  2  0  0  0  0  0  0
  191.2230  175.5790  138.6280 C   0  0  0  0  0  2  0  0  0  0  0  0
  191.0780  175.1210  137.1850 C   0  0  0  0  0  2  0  0  0  0  0  0
  194.4810  174.4000  137.3440 C   0  0  1  0  0  0  0  0  0  0  0  0
  193.0440  175.2380  135.6780 C   0  0  0  0  0  2  0  0  0  0  0  0
  191.9210  173.0630  136.0450 C   0  0  0  0  0  1  0  0  0  0  0  0
  192.3180  174.3770  136.7020 C   0  0  2  0  0  0  0  0  0  0  0  0
  195.5320  175.0090  135.2350 F   0  0  0  0  0  0  0  0  0  0  0  0
  194.4760  175.1840  136.1110 C   0  0  2  0  0  0  0  0  0  0  0  0
  194.7750  175.7830  137.3520 O   0  0  0  0  0  0  0  0  0  0  0  0
  193.1790  174.1220  137.7940 O   0  0  0  0  0  0  0  0  0  0  0  0
  195.5580  173.2430  139.2150 O   0  0  0  0  0  1  0  0  0  0  0  0
  195.6360  173.5090  137.8440 C   0  0  1  0  0  3  0  0  0  0  0  0
  195.8220  172.2030  137.0530 C   0  0  1  0  0  3  0  0  0  0  0  0
  197.1310  172.1880  136.2800 C   0  0  0  0  0  1  0  0  0  0  0  0
  196.8780  168.8890  138.1230 O   0  0  0  0  0  1  0  0  0  0  0  0
  196.3070  169.7640  137.1990 C   0  0  1  0  0  3  0  0  0  0  0  0
  194.8110  169.8340  137.4350 C   0  0  1  0  0  3  0  0  0  0  0  0
  195.7290  170.9560  137.9380 C   0  0  2  0  0  3  0  0  0  0  0  0
  194.1010  170.1220  136.1180 C   0  0  0  0  0  2  0  0  0  0  0  0
  193.0920  169.0250  135.8460 C   0  0  0  0  0  1  0  0  0  0  0  0
  1 11  1  6  0  0  0
  2  5  1  0  0  0  0
  2  4  1  0  0  0  0
  3  6  1  0  0  0  0
  3  7  1  1  0  0  0
  4  6  1  0  0  0  0
  5  1  1  6  0  0  0
  5  3  1  0  0  0  0
  7  8  1  0  0  0  0
  8  9  1  0  0  0  0
  9 10  1  0  0  0  0
 13 15  1  0  0  0  0
 13 12  1  0  0  0  0
 14 17  1  0  0  0  0
 14 19  1  1  0  0  0
 15 16  1  1  0  0  0
 15 14  1  0  0  0  0
 17 12  1  6  0  0  0
 17 20  1  0  0  0  0
 18 21  1  0  0  0  0
 18 23  1  1  0  0  0
 19 18  1  0  0  0  0
 20 21  1  0  0  0  0
 21 11  1  6  0  0  0
 23 22  1  6  0  0  0
 24 23  1  6  0  0  0
 24 25  1  0  0  0  0
 24 26  1  0  0  0  0
 25 26  1  0  0  0  0
 26 29  1  1  0  0  0
 27 30  2  0  0  0  0
 27 28  1  0  0  0  0
 29 27  1  0  0  0  0
 31  1  1  0  0  0  0
 32 35  1  6  0  0  0
 32 33  1  0  0  0  0
 32 31  1  0  0  0  0
 34 33  1  0  0  0  0
 36 35  1  0  0  0  0
 37 36  1  0  0  0  0
 38 44  1  0  0  0  0
 38 45  1  0  0  0  0
 38 47  1  1  0  0  0
 39 43  1  0  0  0  0
 39 41  1  0  0  0  0
 41 40  1  6  0  0  0
 41 37  1  0  0  0  0
 41 45  1  0  0  0  0
 43 42  1  6  0  0  0
 43 38  1  0  0  0  0
 43 44  1  0  0  0  0
 47 46  1  1  0  0  0
 48 49  1  1  0  0  0
 48 47  1  0  0  0  0
 51 52  1  0  0  0  0
 51 53  1  0  0  0  0
 51 50  1  1  0  0  0
 52 54  1  6  0  0  0
 52 53  1  0  0  0  0
 53 48  1  6  0  0  0
 55 54  1  0  0  0  0
M  END
>  <MODEL>
6

>  <REMARK>
 VINA RESULT:      -6.8      2.116      5.084
  Name = 
  20 active torsions:
  status: ('A' for Active; 'I' for Inactive)
    1  A    between atoms: C_1  and  C_38
    2  A    between atoms: C_2  and  C_19
    3  A    between atoms: C_2  and  C_28
    4  A    between atoms: C_2  and  C_44
    5  A    between atoms: C_4  and  C_40
    6  A    between atoms: C_5  and  C_40
    7  A    between atoms: C_5  and  C_46
    8  A    between atoms: C_6  and  C_14
    9  A    between atoms: C_6  and  C_46
   10  A    between atoms: C_8  and  C_22
   11  A    between atoms: C_13  and  C_52
   12  A    between atoms: C_19  and  C_40
   13  A    between atoms: C_21  and  C_38
   14  A    between atoms: C_21  and  C_42
   15  A    between atoms: C_27  and  C_31
   16  A    between atoms: C_28  and  C_49
   17  A    between atoms: C_31  and  C_51
   18  A    between atoms: N_32  and  C_48
   19  A    between atoms: C_33  and  C_52
   20  A    between atoms: C_35  and  C_51
                            x       y       z     vdW  Elec       q    Type
                         _______ _______ _______ _____ _____    ______ ____

>  <TORSDO>
F 20

$$$$
=
 OpenBabel10272401423D

 55 61  0  0  1  0  0  0  0  0999 V2000
  189.2660  177.1680  141.0510 C   0  0  1  0  0  3  0  0  0  0  0  0
  190.5670  178.3390  142.7400 O   0  0  0  0  0  0  0  0  0  0  0  0
  188.6440  177.1510  143.4940 C   0  0  1  0  0  3  0  0  0  0  0  0
  190.5370  178.4330  144.1380 C   0  0  0  0  0  2  0  0  0  0  0  0
  189.2660  177.9520  142.3670 C   0  0  2  0  0  3  0  0  0  0  0  0
  189.5480  177.4180  144.6660 C   0  0  0  0  0  2  0  0  0  0  0  0
  187.2420  177.6650  143.7690 C   0  0  0  0  0  2  0  0  0  0  0  0
  186.7980  177.2630  145.1680 C   0  0  0  0  0  2  0  0  0  0  0  0
  185.6050  178.0940  145.6050 C   0  0  0  0  0  2  0  0  0  0  0  0
  186.0040  179.0500  146.7180 C   0  0  0  0  0  1  0  0  0  0  0  0
  188.7920  178.0660  139.9210 C   0  0  0  0  0  2  0  0  0  0  0  0
  188.9110  177.1440  135.4640 C   0  0  0  0  0  2  0  0  0  0  0  0
  188.0680  177.7390  134.3490 C   0  0  0  0  0  2  0  0  0  0  0  0
  187.1250  178.5160  136.4140 C   0  0  2  0  0  3  0  0  0  0  0  0
  186.7520  178.1210  134.9900 C   0  0  2  0  0  3  0  0  0  0  0  0
  185.9060  177.0100  134.9770 O   0  0  0  0  0  1  0  0  0  0  0  0
  188.4430  177.8050  136.7460 C   0  0  1  0  0  3  0  0  0  0  0  0
  186.5430  178.3830  138.8640 C   0  0  2  0  0  3  0  0  0  0  0  0
  186.0040  178.2730  137.4320 C   0  0  0  0  0  2  0  0  0  0  0  0
  188.2750  176.7570  137.8440 C   0  0  0  0  0  2  0  0  0  0  0  0
  187.6940  177.3810  139.1210 C   0  0  1  0  0  3  0  0  0  0  0  0
  185.5780  179.1650  141.0860 C   0  0  0  0  0  1  0  0  0  0  0  0
  185.4060  178.2200  139.8890 C   0  0  1  0  0  3  0  0  0  0  0  0
  184.0210  178.2800  139.2020 C   0  0  2  0  0  3  0  0  0  0  0  0
  183.0150  179.1170  139.9730 C   0  0  0  0  0  2  0  0  0  0  0  0
  182.9190  177.6000  139.9970 C   0  0  1  0  0  3  0  0  0  0  0  0
  182.0440  176.0460  138.2170 C   0  0  0  0  0  0  0  0  0  0  0  0
  180.9850  175.6570  137.3510 N   0  0  0  0  0  1  0  0  0  0  0  0
  181.8720  177.1650  139.0860 N   0  0  0  0  0  2  0  0  0  0  0  0
  183.1260  175.4020  138.2110 O   0  0  0  0  0  0  0  0  0  0  0  0
  190.6390  176.5810  140.7250 C   0  0  0  0  0  2  0  0  0  0  0  0
  191.4150  177.5200  139.8180 C   0  0  1  0  0  3  0  0  0  0  0  0
  192.7610  177.8690  140.4340 C   0  0  0  0  0  2  0  0  0  0  0  0
  193.7310  176.9550  140.0230 O   0  0  0  0  0  1  0  0  0  0  0  0
  191.6190  176.8610  138.4700 C   0  0  0  0  0  2  0  0  0  0  0  0
  191.3930  175.3700  138.6050 C   0  0  0  0  0  2  0  0  0  0  0  0
  191.1050  174.7610  137.2420 C   0  0  0  0  0  2  0  0  0  0  0  0
  194.5480  174.2490  137.1470 C   0  0  1  0  0  0  0  0  0  0  0  0
  192.9680  175.1460  135.6510 C   0  0  0  0  0  2  0  0  0  0  0  0
  191.9990  172.8790  135.8620 C   0  0  0  0  0  1  0  0  0  0  0  0
  192.3560  174.1470  136.6220 C   0  0  2  0  0  0  0  0  0  0  0  0
  195.4340  175.1210  135.0550 F   0  0  0  0  0  0  0  0  0  0  0  0
  194.4240  175.1440  135.9990 C   0  0  2  0  0  0  0  0  0  0  0  0
  194.7600  175.6410  137.2750 O   0  0  0  0  0  0  0  0  0  0  0  0
  193.2940  173.8470  137.6370 O   0  0  0  0  0  0  0  0  0  0  0  0
  195.9380  173.2050  138.8720 O   0  0  0  0  0  1  0  0  0  0  0  0
  195.7810  173.3910  137.4950 C   0  0  1  0  0  3  0  0  0  0  0  0
  195.8470  172.0410  136.7600 C   0  0  1  0  0  3  0  0  0  0  0  0
  196.8970  172.0430  135.6610 C   0  0  0  0  0  1  0  0  0  0  0  0
  197.2690  168.8060  137.6240 O   0  0  0  0  0  1  0  0  0  0  0  0
  196.3970  169.6160  136.8980 C   0  0  1  0  0  3  0  0  0  0  0  0
  195.0750  169.7130  137.6340 C   0  0  1  0  0  3  0  0  0  0  0  0
  196.0900  170.8620  137.7060 C   0  0  2  0  0  3  0  0  0  0  0  0
  193.9470  169.9110  136.6300 C   0  0  0  0  0  2  0  0  0  0  0  0
  193.5880  168.5740  136.0130 C   0  0  0  0  0  1  0  0  0  0  0  0
  1 11  1  6  0  0  0
  2  4  1  0  0  0  0
  3  7  1  1  0  0  0
  3  6  1  0  0  0  0
  4  6  1  0  0  0  0
  5  1  1  6  0  0  0
  5  2  1  0  0  0  0
  5  3  1  0  0  0  0
  7  8  1  0  0  0  0
  8  9  1  0  0  0  0
  9 10  1  0  0  0  0
 13 15  1  0  0  0  0
 13 12  1  0  0  0  0
 14 17  1  0  0  0  0
 14 19  1  1  0  0  0
 15 16  1  1  0  0  0
 15 14  1  0  0  0  0
 17 12  1  6  0  0  0
 17 20  1  0  0  0  0
 18 21  1  0  0  0  0
 18 23  1  1  0  0  0
 19 18  1  0  0  0  0
 20 21  1  0  0  0  0
 21 11  1  6  0  0  0
 23 22  1  1  0  0  0
 24 23  1  1  0  0  0
 24 25  1  0  0  0  0
 24 26  1  0  0  0  0
 25 26  1  0  0  0  0
 26 29  1  6  0  0  0
 27 29  1  0  0  0  0
 28 27  1  0  0  0  0
 30 27  2  0  0  0  0
 31  1  1  0  0  0  0
 32 35  1  6  0  0  0
 32 33  1  0  0  0  0
 32 31  1  0  0  0  0
 34 33  1  0  0  0  0
 35 36  1  0  0  0  0
 37 36  1  0  0  0  0
 38 44  1  0  0  0  0
 38 47  1  1  0  0  0
 38 45  1  0  0  0  0
 39 43  1  0  0  0  0
 39 41  1  0  0  0  0
 41 40  1  6  0  0  0
 41 37  1  0  0  0  0
 41 45  1  0  0  0  0
 43 42  1  6  0  0  0
 43 38  1  0  0  0  0
 43 44  1  0  0  0  0
 47 46  1  1  0  0  0
 48 49  1  6  0  0  0
 48 47  1  0  0  0  0
 51 50  1  1  0  0  0
 51 52  1  0  0  0  0
 51 53  1  0  0  0  0
 52 54  1  6  0  0  0
 52 53  1  0  0  0  0
 53 48  1  6  0  0  0
 55 54  1  0  0  0  0
M  END
>  <MODEL>
7

>  <REMARK>
 VINA RESULT:      -6.8      2.067      5.253
  Name = 
  20 active torsions:
  status: ('A' for Active; 'I' for Inactive)
    1  A    between atoms: C_1  and  C_38
    2  A    between atoms: C_2  and  C_19
    3  A    between atoms: C_2  and  C_28
    4  A    between atoms: C_2  and  C_44
    5  A    between atoms: C_4  and  C_40
    6  A    between atoms: C_5  and  C_40
    7  A    between atoms: C_5  and  C_46
    8  A    between atoms: C_6  and  C_14
    9  A    between atoms: C_6  and  C_46
   10  A    between atoms: C_8  and  C_22
   11  A    between atoms: C_13  and  C_52
   12  A    between atoms: C_19  and  C_40
   13  A    between atoms: C_21  and  C_38
   14  A    between atoms: C_21  and  C_42
   15  A    between atoms: C_27  and  C_31
   16  A    between atoms: C_28  and  C_49
   17  A    between atoms: C_31  and  C_51
   18  A    between atoms: N_32  and  C_48
   19  A    between atoms: C_33  and  C_52
   20  A    between atoms: C_35  and  C_51
                            x       y       z     vdW  Elec       q    Type
                         _______ _______ _______ _____ _____    ______ ____

>  <TORSDO>
F 20

$$$$
=
 OpenBabel10272401423D

 55 61  0  0  1  0  0  0  0  0999 V2000
  188.0070  177.3440  141.9810 C   0  0  1  0  0  3  0  0  0  0  0  0
  189.4830  178.9720  143.0230 O   0  0  0  0  0  0  0  0  0  0  0  0
  190.4200  176.8420  142.5100 C   0  0  1  0  0  3  0  0  0  0  0  0
  190.8470  179.0260  143.3400 C   0  0  0  0  0  2  0  0  0  0  0  0
  189.1780  177.6010  142.9340 C   0  0  2  0  0  3  0  0  0  0  0  0
  191.5330  177.8320  142.7130 C   0  0  0  0  0  2  0  0  0  0  0  0
  190.6070  175.6310  143.4080 C   0  0  0  0  0  2  0  0  0  0  0  0
  191.7940  175.8420  144.3360 C   0  0  0  0  0  2  0  0  0  0  0  0
  191.3200  176.2190  145.7280 C   0  0  0  0  0  2  0  0  0  0  0  0
  192.3250  175.7620  146.7730 C   0  0  0  0  0  1  0  0  0  0  0  0
  187.0190  178.4960  142.0610 C   0  0  0  0  0  2  0  0  0  0  0  0
  183.1140  177.8490  139.8120 C   0  0  0  0  0  2  0  0  0  0  0  0
  181.8160  178.6300  139.9210 C   0  0  0  0  0  2  0  0  0  0  0  0
  183.2350  179.4050  141.6930 C   0  0  2  0  0  3  0  0  0  0  0  0
  181.7740  179.1590  141.3380 C   0  0  2  0  0  3  0  0  0  0  0  0
  181.2080  178.1870  142.1650 O   0  0  0  0  0  1  0  0  0  0  0  0
  184.0760  178.4900  140.7940 C   0  0  1  0  0  3  0  0  0  0  0  0
  185.0480  179.2050  143.4350 C   0  0  2  0  0  3  0  0  0  0  0  0
  183.5350  179.2650  143.1910 C   0  0  0  0  0  2  0  0  0  0  0  0
  184.8070  177.4110  141.5890 C   0  0  0  0  0  2  0  0  0  0  0  0
  185.7050  178.0310  142.6700 C   0  0  1  0  0  3  0  0  0  0  0  0
  184.1600  178.6210  145.7480 C   0  0  0  0  0  1  0  0  0  0  0  0
  185.3560  179.1450  144.9420 C   0  0  1  0  0  3  0  0  0  0  0  0
  186.6940  178.4160  145.2100 C   0  0  2  0  0  3  0  0  0  0  0  0
  186.5170  176.9270  145.4550 C   0  0  0  0  0  2  0  0  0  0  0  0
  186.8100  177.8590  146.6200 C   0  0  1  0  0  3  0  0  0  0  0  0
  188.6810  178.0530  148.2970 C   0  0  0  0  0  0  0  0  0  0  0  0
  190.0660  177.9320  148.5990 N   0  0  0  0  0  1  0  0  0  0  0  0
  188.2160  177.7600  146.9790 N   0  0  0  0  0  2  0  0  0  0  0  0
  187.8760  178.4180  149.1920 O   0  0  0  0  0  0  0  0  0  0  0  0
  188.4660  177.1360  140.5390 C   0  0  0  0  0  2  0  0  0  0  0  0
  188.1430  178.3590  139.6980 C   0  0  1  0  0  3  0  0  0  0  0  0
  189.3580  178.7900  138.8910 C   0  0  0  0  0  2  0  0  0  0  0  0
  190.4120  177.9000  139.0940 O   0  0  0  0  0  1  0  0  0  0  0  0
  186.9930  178.0380  138.7670 C   0  0  0  0  0  2  0  0  0  0  0  0
  187.4480  178.2140  137.3340 C   0  0  0  0  0  2  0  0  0  0  0  0
  186.2750  178.0120  136.3860 C   0  0  0  0  0  2  0  0  0  0  0  0
  186.6520  174.5570  136.6060 C   0  0  1  0  0  0  0  0  0  0  0  0
  187.7110  176.2610  135.3750 C   0  0  0  0  0  2  0  0  0  0  0  0
  185.4130  176.5920  134.5200 C   0  0  0  0  0  1  0  0  0  0  0  0
  186.2840  176.6190  135.7660 C   0  0  2  0  0  0  0  0  0  0  0  0
  188.5040  173.8570  135.1900 F   0  0  0  0  0  0  0  0  0  0  0  0
  187.8940  174.8730  135.9050 C   0  0  2  0  0  0  0  0  0  0  0  0
  187.8660  174.7320  137.3070 O   0  0  0  0  0  0  0  0  0  0  0  0
  185.8060  175.6740  136.7030 O   0  0  0  0  0  0  0  0  0  0  0  0
  185.8150  172.8040  138.0970 O   0  0  0  0  0  1  0  0  0  0  0  0
  186.0340  173.1530  136.7610 C   0  0  1  0  0  3  0  0  0  0  0  0
  184.7600  172.9210  135.9300 C   0  0  1  0  0  3  0  0  0  0  0  0
  185.0090  171.9850  134.7580 C   0  0  0  0  0  1  0  0  0  0  0  0
  181.5560  171.2510  136.3600 O   0  0  0  0  0  1  0  0  0  0  0  0
  182.3460  172.3070  135.9080 C   0  0  1  0  0  3  0  0  0  0  0  0
  182.4230  173.3710  136.9850 C   0  0  1  0  0  3  0  0  0  0  0  0
  183.5910  172.3990  136.7700 C   0  0  2  0  0  3  0  0  0  0  0  0
  182.5940  174.7390  136.3390 C   0  0  0  0  0  2  0  0  0  0  0  0
  181.6440  175.7220  136.9930 C   0  0  0  0  0  1  0  0  0  0  0  0
  1 31  1  6  0  0  0
  1 11  1  0  0  0  0
  2  4  1  0  0  0  0
  3  6  1  0  0  0  0
  3  5  1  0  0  0  0
  3  7  1  1  0  0  0
  5  1  1  6  0  0  0
  5  2  1  0  0  0  0
  6  4  1  0  0  0  0
  7  8  1  0  0  0  0
  8  9  1  0  0  0  0
  9 10  1  0  0  0  0
 12 13  1  0  0  0  0
 13 15  1  0  0  0  0
 14 19  1  1  0  0  0
 15 14  1  0  0  0  0
 15 16  1  1  0  0  0
 17 12  1  6  0  0  0
 17 20  1  0  0  0  0
 17 14  1  0  0  0  0
 18 23  1  1  0  0  0
 19 18  1  0  0  0  0
 20 21  1  0  0  0  0
 21 11  1  6  0  0  0
 21 18  1  0  0  0  0
 23 22  1  1  0  0  0
 24 23  1  1  0  0  0
 24 25  1  0  0  0  0
 24 26  1  0  0  0  0
 25 26  1  0  0  0  0
 26 29  1  6  0  0  0
 27 28  1  0  0  0  0
 27 30  2  0  0  0  0
 29 27  1  0  0  0  0
 32 35  1  6  0  0  0
 32 31  1  0  0  0  0
 33 34  1  0  0  0  0
 33 32  1  0  0  0  0
 36 35  1  0  0  0  0
 37 36  1  0  0  0  0
 38 45  1  0  0  0  0
 38 47  1  6  0  0  0
 38 44  1  0  0  0  0
 39 41  1  0  0  0  0
 39 43  1  0  0  0  0
 41 40  1  6  0  0  0
 41 37  1  0  0  0  0
 41 45  1  0  0  0  0
 43 42  1  6  0  0  0
 43 38  1  0  0  0  0
 43 44  1  0  0  0  0
 47 46  1  1  0  0  0
 48 49  1  6  0  0  0
 48 47  1  0  0  0  0
 51 50  1  1  0  0  0
 51 53  1  0  0  0  0
 51 52  1  0  0  0  0
 52 54  1  6  0  0  0
 53 48  1  6  0  0  0
 53 52  1  0  0  0  0
 54 55  1  0  0  0  0
M  END
>  <MODEL>
8

>  <REMARK>
 VINA RESULT:      -6.7      4.507      7.435
  Name = 
  20 active torsions:
  status: ('A' for Active; 'I' for Inactive)
    1  A    between atoms: C_1  and  C_38
    2  A    between atoms: C_2  and  C_19
    3  A    between atoms: C_2  and  C_28
    4  A    between atoms: C_2  and  C_44
    5  A    between atoms: C_4  and  C_40
    6  A    between atoms: C_5  and  C_40
    7  A    between atoms: C_5  and  C_46
    8  A    between atoms: C_6  and  C_14
    9  A    between atoms: C_6  and  C_46
   10  A    between atoms: C_8  and  C_22
   11  A    between atoms: C_13  and  C_52
   12  A    between atoms: C_19  and  C_40
   13  A    between atoms: C_21  and  C_38
   14  A    between atoms: C_21  and  C_42
   15  A    between atoms: C_27  and  C_31
   16  A    between atoms: C_28  and  C_49
   17  A    between atoms: C_31  and  C_51
   18  A    between atoms: N_32  and  C_48
   19  A    between atoms: C_33  and  C_52
   20  A    between atoms: C_35  and  C_51
                            x       y       z     vdW  Elec       q    Type
                         _______ _______ _______ _____ _____    ______ ____

>  <TORSDO>
F 20

$$$$
=
 OpenBabel10272401423D

 55 61  0  0  1  0  0  0  0  0999 V2000
  182.9330  176.1910  138.9590 C   0  0  1  0  0  3  0  0  0  0  0  0
  181.4510  174.4570  138.1140 O   0  0  0  0  0  0  0  0  0  0  0  0
  181.2820  176.6070  137.1000 C   0  0  1  0  0  3  0  0  0  0  0  0
  180.5290  174.3550  137.0640 C   0  0  0  0  0  2  0  0  0  0  0  0
  181.5630  175.8370  138.3750 C   0  0  2  0  0  3  0  0  0  0  0  0
  180.6550  175.5860  136.1930 C   0  0  0  0  0  2  0  0  0  0  0  0
  180.3080  177.7360  137.3930 C   0  0  0  0  0  2  0  0  0  0  0  0
  180.9610  179.0810  137.1130 C   0  0  0  0  0  2  0  0  0  0  0  0
  180.1890  179.8330  136.0430 C   0  0  0  0  0  2  0  0  0  0  0  0
  180.8300  179.6250  134.6810 C   0  0  0  0  0  1  0  0  0  0  0  0
  183.7210  177.0140  137.9540 C   0  0  0  0  0  2  0  0  0  0  0  0
  187.9690  178.6470  137.8220 C   0  0  0  0  0  2  0  0  0  0  0  0
  188.8370  178.9380  136.6090 C   0  0  0  0  0  2  0  0  0  0  0  0
  186.8950  177.7820  135.8040 C   0  0  2  0  0  3  0  0  0  0  0  0
  188.3840  177.9680  135.5400 C   0  0  2  0  0  3  0  0  0  0  0  0
  189.0810  176.7680  135.6970 O   0  0  0  0  0  1  0  0  0  0  0  0
  186.6570  178.1110  137.2830 C   0  0  1  0  0  3  0  0  0  0  0  0
  184.9610  176.1700  135.9480 C   0  0  2  0  0  3  0  0  0  0  0  0
  186.3610  176.4100  135.3710 C   0  0  0  0  0  2  0  0  0  0  0  0
  186.2230  176.8870  138.0870 C   0  0  0  0  0  2  0  0  0  0  0  0
  184.9560  176.2550  137.4930 C   0  0  1  0  0  3  0  0  0  0  0  0
  183.3410  175.0320  134.3460 C   0  0  0  0  0  1  0  0  0  0  0  0
  184.3880  174.8300  135.4500 C   0  0  1  0  0  3  0  0  0  0  0  0
  185.5200  173.8330  135.1020 C   0  0  2  0  0  3  0  0  0  0  0  0
  185.3000  172.4570  135.7060 C   0  0  0  0  0  2  0  0  0  0  0  0
  186.3340  173.3950  136.3090 C   0  0  1  0  0  3  0  0  0  0  0  0
  188.8450  173.4970  136.4960 C   0  0  0  0  0  0  0  0  0  0  0  0
  190.1210  173.0730  136.0340 N   0  0  0  0  0  1  0  0  0  0  0  0
  187.6630  173.0000  135.8690 N   0  0  0  0  0  2  0  0  0  0  0  0
  188.7660  174.3100  137.4550 O   0  0  0  0  0  0  0  0  0  0  0  0
  182.8230  176.9370  140.2880 C   0  0  0  0  0  2  0  0  0  0  0  0
  182.8620  178.4380  140.0590 C   0  0  1  0  0  3  0  0  0  0  0  0
  181.6610  179.1100  140.7060 C   0  0  0  0  0  2  0  0  0  0  0  0
  180.9990  178.2110  141.5430 O   0  0  0  0  0  1  0  0  0  0  0  0
  184.1430  179.0010  140.6380 C   0  0  0  0  0  2  0  0  0  0  0  0
  184.6820  178.0440  141.6800 C   0  0  0  0  0  2  0  0  0  0  0  0
  184.0640  178.3490  143.0360 C   0  0  0  0  0  2  0  0  0  0  0  0
  186.6910  177.9380  145.2850 C   0  0  1  0  0  0  0  0  0  0  0  0
  184.5230  178.8440  145.4230 C   0  0  0  0  0  2  0  0  0  0  0  0
  185.4190  180.3490  143.6750 C   0  0  0  0  0  1  0  0  0  0  0  0
  185.0960  178.9020  144.0140 C   0  0  2  0  0  0  0  0  0  0  0  0
  186.0000  178.7230  147.4830 F   0  0  0  0  0  0  0  0  0  0  0  0
  185.6280  178.2480  146.2380 C   0  0  2  0  0  0  0  0  0  0  0  0
  185.9710  176.9130  145.9410 O   0  0  0  0  0  0  0  0  0  0  0  0
  186.2750  178.1250  143.9560 O   0  0  0  0  0  0  0  0  0  0  0  0
  188.5720  176.9320  146.4880 O   0  0  0  0  0  1  0  0  0  0  0  0
  188.2030  177.9360  145.5870 C   0  0  1  0  0  3  0  0  0  0  0  0
  189.1020  177.8960  144.3390 C   0  0  1  0  0  3  0  0  0  0  0  0
  190.3240  178.7890  144.4900 C   0  0  0  0  0  1  0  0  0  0  0  0
  191.6000  175.3460  143.6300 O   0  0  0  0  0  1  0  0  0  0  0  0
  190.9120  176.5190  143.3220 C   0  0  1  0  0  3  0  0  0  0  0  0
  189.7020  176.1810  142.4740 C   0  0  1  0  0  3  0  0  0  0  0  0
  189.5420  176.4750  143.9710 C   0  0  2  0  0  3  0  0  0  0  0  0
  189.3850  177.3490  141.5490 C   0  0  0  0  0  2  0  0  0  0  0  0
  190.1720  177.1950  140.2630 C   0  0  0  0  0  1  0  0  0  0  0  0
  1 11  1  6  0  0  0
  1 31  1  0  0  0  0
  2  5  1  0  0  0  0
  3  7  1  1  0  0  0
  3  5  1  0  0  0  0
  4  2  1  0  0  0  0
  5  1  1  6  0  0  0
  6  4  1  0  0  0  0
  6  3  1  0  0  0  0
  8  7  1  0  0  0  0
  9  8  1  0  0  0  0
 10  9  1  0  0  0  0
 13 12  1  0  0  0  0
 14 19  1  1  0  0  0
 14 17  1  0  0  0  0
 15 16  1  1  0  0  0
 15 14  1  0  0  0  0
 15 13  1  0  0  0  0
 17 12  1  1  0  0  0
 17 20  1  0  0  0  0
 18 23  1  1  0  0  0
 18 21  1  0  0  0  0
 19 18  1  0  0  0  0
 21 11  1  6  0  0  0
 21 20  1  0  0  0  0
 23 22  1  6  0  0  0
 24 23  1  1  0  0  0
 24 25  1  0  0  0  0
 24 26  1  0  0  0  0
 25 26  1  0  0  0  0
 26 29  1  6  0  0  0
 27 30  2  0  0  0  0
 28 27  1  0  0  0  0
 29 27  1  0  0  0  0
 32 31  1  1  0  0  0
 32 35  1  0  0  0  0
 32 33  1  0  0  0  0
 33 34  1  0  0  0  0
 35 36  1  0  0  0  0
 36 37  1  0  0  0  0
 37 41  1  0  0  0  0
 38 47  1  1  0  0  0
 38 44  1  0  0  0  0
 38 43  1  0  0  0  0
 39 43  1  0  0  0  0
 41 40  1  6  0  0  0
 41 39  1  0  0  0  0
 43 42  1  1  0  0  0
 44 43  1  0  0  0  0
 45 41  1  0  0  0  0
 45 38  1  0  0  0  0
 47 46  1  1  0  0  0
 48 49  1  1  0  0  0
 48 47  1  0  0  0  0
 51 50  1  1  0  0  0
 51 53  1  0  0  0  0
 52 54  1  6  0  0  0
 52 51  1  0  0  0  0
 52 53  1  0  0  0  0
 53 48  1  6  0  0  0
 55 54  1  0  0  0  0
M  END
>  <MODEL>
9

>  <REMARK>
 VINA RESULT:      -6.4      4.505     10.456
  Name = 
  20 active torsions:
  status: ('A' for Active; 'I' for Inactive)
    1  A    between atoms: C_1  and  C_38
    2  A    between atoms: C_2  and  C_19
    3  A    between atoms: C_2  and  C_28
    4  A    between atoms: C_2  and  C_44
    5  A    between atoms: C_4  and  C_40
    6  A    between atoms: C_5  and  C_40
    7  A    between atoms: C_5  and  C_46
    8  A    between atoms: C_6  and  C_14
    9  A    between atoms: C_6  and  C_46
   10  A    between atoms: C_8  and  C_22
   11  A    between atoms: C_13  and  C_52
   12  A    between atoms: C_19  and  C_40
   13  A    between atoms: C_21  and  C_38
   14  A    between atoms: C_21  and  C_42
   15  A    between atoms: C_27  and  C_31
   16  A    between atoms: C_28  and  C_49
   17  A    between atoms: C_31  and  C_51
   18  A    between atoms: N_32  and  C_48
   19  A    between atoms: C_33  and  C_52
   20  A    between atoms: C_35  and  C_51
                            x       y       z     vdW  Elec       q    Type
                         _______ _______ _______ _____ _____    ______ ____

>  <TORSDO>
F 20

$$$$
