=
 OpenBabel10272401593D

 28 32  0  0  1  0  0  0  0  0999 V2000
  185.8810  173.4950  137.4710 C   0  0  0  0  0  3  0  0  0  0  0  0
  186.5990  179.3230  136.6490 O   0  0  0  0  0  1  0  0  0  0  0  0
  184.7190  174.5880  135.6520 C   0  0  0  0  0  0  0  0  0  0  0  0
  186.8460  175.6110  136.4490 C   0  0  2  0  0  3  0  0  0  0  0  0
  183.8000  172.6240  136.6310 C   0  0  0  0  0  0  0  0  0  0  0  0
  185.8180  174.5280  136.5270 C   0  0  0  0  0  0  0  0  0  0  0  0
  185.2520  177.3170  134.9980 S   0  0  0  0  0  0  0  0  0  0  0  0
  183.7530  173.6320  135.7190 N   0  0  0  0  0  0  0  0  0  0  0  0
  188.5310  177.8620  136.8260 C   0  0  2  0  0  3  0  0  0  0  0  0
  187.9780  175.5300  137.4680 C   0  0  0  0  0  2  0  0  0  0  0  0
  184.6460  175.6240  134.5630 C   0  0  0  0  0  2  0  0  0  0  0  0
  187.0230  178.0690  137.0970 C   0  0  2  0  0  3  0  0  0  0  0  0
  182.7170  171.6080  136.6700 C   0  0  0  0  0  1  0  0  0  0  0  0
  184.8690  172.5360  137.5240 C   0  0  0  0  0  3  0  0  0  0  0  0
  186.1230  176.9380  136.5650 C   0  0  2  0  0  3  0  0  0  0  0  0
  189.0480  176.4930  137.1310 N   0  0  1  0  0  0  0  0  0  0  0  0
  189.9420  175.9780  136.0440 C   0  0  1  0  0  0  0  0  0  0  0  0
  191.4420  176.1700  136.3490 C   0  0  2  0  0  3  0  0  0  0  0  0
  191.2140  174.0020  135.6970 C   0  0  2  0  0  0  0  0  0  0  0  0
  190.3990  173.6020  136.9120 C   0  0  0  0  0  2  0  0  0  0  0  0
  189.7950  174.4770  135.8050 C   0  0  1  0  0  3  0  0  0  0  0  0
  191.4550  172.9650  134.6210 C   0  0  0  0  0  1  0  0  0  0  0  0
  189.6500  176.6570  134.7040 C   0  0  0  0  0  1  0  0  0  0  0  0
  192.1430  175.0540  135.8450 O   0  0  0  0  0  0  0  0  0  0  0  0
  191.7670  176.3090  137.8360 C   0  0  0  0  0  2  0  0  0  0  0  0
  193.2560  176.1380  138.0650 C   0  0  0  0  0  1  0  0  0  0  0  0
  188.9220  178.9890  138.9110 O   0  0  0  0  0  1  0  0  0  0  0  0
  189.3310  178.9190  137.5770 C   0  0  0  0  0  2  0  0  0  0  0  0
  1 14  1  0  0  0  0
  3  8  2  0  0  0  0
  3  6  1  0  0  0  0
  4  6  1  0  0  0  0
  4 15  1  0  0  0  0
  4 10  1  1  0  0  0
  5 13  1  0  0  0  0
  5 14  2  0  0  0  0
  6  1  2  0  0  0  0
  8  5  1  0  0  0  0
  9 12  1  0  0  0  0
  9 16  1  0  0  0  0
  9 28  1  1  0  0  0
 11  7  1  0  0  0  0
 11  3  1  0  0  0  0
 12  2  1  6  0  0  0
 15  7  1  6  0  0  0
 15 12  1  0  0  0  0
 16 10  1  6  0  0  0
 17 23  1  6  0  0  0
 17 18  1  0  0  0  0
 17 16  1  0  0  0  0
 18 25  1  1  0  0  0
 19 22  1  6  0  0  0
 19 21  1  0  0  0  0
 19 24  1  0  0  0  0
 19 20  1  0  0  0  0
 21 17  1  0  0  0  0
 21 20  1  1  0  0  0
 24 18  1  0  0  0  0
 25 26  1  0  0  0  0
 28 27  1  0  0  0  0
M  END
>  <MODEL>
1

>  <REMARK>
 VINA RESULT:      -5.0      0.000      0.000
  Name = 
  3 active torsions:
  status: ('A' for Active; 'I' for Inactive)
    1  A    between atoms: C_1  and  N_27
    2  A    between atoms: C_2  and  C_3
    3  A    between atoms: C_16  and  C_21
                            x       y       z     vdW  Elec       q    Type
                         _______ _______ _______ _____ _____    ______ ____

>  <TORSDO>
F 3

$$$$
=
 OpenBabel10272401593D

 28 32  0  0  1  0  0  0  0  0999 V2000
  184.7230  178.7590  141.7970 C   0  0  0  0  0  3  0  0  0  0  0  0
  179.9820  181.1030  139.1170 O   0  0  0  0  0  1  0  0  0  0  0  0
  182.5970  178.7760  142.9500 C   0  0  0  0  0  0  0  0  0  0  0  0
  182.5630  178.7770  140.4600 C   0  0  2  0  0  3  0  0  0  0  0  0
  184.6200  178.7920  144.2010 C   0  0  0  0  0  0  0  0  0  0  0  0
  183.3230  178.7510  141.7470 C   0  0  0  0  0  0  0  0  0  0  0  0
  180.2080  179.5970  141.6160 S   0  0  0  0  0  0  0  0  0  0  0  0
  183.2610  178.7820  144.1370 N   0  0  0  0  0  0  0  0  0  0  0  0
  181.3160  179.4150  137.9930 C   0  0  2  0  0  3  0  0  0  0  0  0
  183.4060  178.8170  139.1890 C   0  0  0  0  0  2  0  0  0  0  0  0
  181.0940  178.6810  142.9560 C   0  0  0  0  0  2  0  0  0  0  0  0
  181.2320  180.4800  139.1090 C   0  0  2  0  0  3  0  0  0  0  0  0
  185.3000  178.8060  145.5230 C   0  0  0  0  0  1  0  0  0  0  0  0
  185.3760  178.7780  143.0290 C   0  0  0  0  0  3  0  0  0  0  0  0
  181.6200  179.9630  140.5080 C   0  0  2  0  0  3  0  0  0  0  0  0
  182.5600  178.5860  137.9990 N   0  0  1  0  0  0  0  0  0  0  0  0
  182.2620  177.1300  137.7980 C   0  0  1  0  0  0  0  0  0  0  0  0
  182.2060  176.7210  136.3120 C   0  0  2  0  0  3  0  0  0  0  0  0
  183.5530  175.1930  137.3240 C   0  0  2  0  0  0  0  0  0  0  0  0
  184.6500  176.1940  137.6310 C   0  0  0  0  0  2  0  0  0  0  0  0
  183.3230  176.2110  138.4010 C   0  0  1  0  0  3  0  0  0  0  0  0
  183.7160  173.7730  137.8200 C   0  0  0  0  0  1  0  0  0  0  0  0
  180.9330  176.7320  138.4410 C   0  0  0  0  0  1  0  0  0  0  0  0
  182.7500  175.4250  136.1880 O   0  0  0  0  0  0  0  0  0  0  0  0
  182.9710  177.6550  135.3740 C   0  0  0  0  0  2  0  0  0  0  0  0
  183.7400  176.8490  134.3460 C   0  0  0  0  0  1  0  0  0  0  0  0
  180.0420  179.5170  135.9580 O   0  0  0  0  0  1  0  0  0  0  0  0
  181.1230  180.0850  136.6370 C   0  0  0  0  0  2  0  0  0  0  0  0
  1 14  1  0  0  0  0
  3 11  1  0  0  0  0
  3  8  2  0  0  0  0
  4 10  1  6  0  0  0
  4 15  1  0  0  0  0
  4  6  1  0  0  0  0
  5 13  1  0  0  0  0
  6  1  2  0  0  0  0
  6  3  1  0  0  0  0
  7 11  1  0  0  0  0
  8  5  1  0  0  0  0
  9 28  1  6  0  0  0
  9 16  1  0  0  0  0
  9 12  1  0  0  0  0
 12  2  1  1  0  0  0
 12 15  1  0  0  0  0
 14  5  2  0  0  0  0
 15  7  1  6  0  0  0
 16 10  1  1  0  0  0
 17 16  1  0  0  0  0
 17 21  1  0  0  0  0
 17 23  1  1  0  0  0
 18 25  1  6  0  0  0
 18 17  1  0  0  0  0
 19 20  1  0  0  0  0
 19 22  1  1  0  0  0
 19 21  1  0  0  0  0
 21 20  1  6  0  0  0
 24 18  1  0  0  0  0
 24 19  1  0  0  0  0
 26 25  1  0  0  0  0
 27 28  1  0  0  0  0
M  END
>  <MODEL>
2

>  <REMARK>
 VINA RESULT:      -4.5      5.873      8.378
  Name = 
  3 active torsions:
  status: ('A' for Active; 'I' for Inactive)
    1  A    between atoms: C_1  and  N_27
    2  A    between atoms: C_2  and  C_3
    3  A    between atoms: C_16  and  C_21
                            x       y       z     vdW  Elec       q    Type
                         _______ _______ _______ _____ _____    ______ ____

>  <TORSDO>
F 3

$$$$
=
 OpenBabel10272401593D

 28 32  0  0  1  0  0  0  0  0999 V2000
  186.9820  178.0720  137.9970 C   0  0  0  0  0  3  0  0  0  0  0  0
  192.6000  176.1730  137.9800 O   0  0  0  0  0  1  0  0  0  0  0  0
  187.4780  175.8400  137.2040 C   0  0  0  0  0  0  0  0  0  0  0  0
  189.0430  176.8580  138.8530 C   0  0  2  0  0  3  0  0  0  0  0  0
  185.5660  176.9900  136.3790 C   0  0  0  0  0  0  0  0  0  0  0  0
  187.8010  176.9350  138.0260 C   0  0  0  0  0  0  0  0  0  0  0  0
  190.1030  174.7410  137.4550 S   0  0  0  0  0  0  0  0  0  0  0  0
  186.3680  175.8920  136.4190 N   0  0  0  0  0  0  0  0  0  0  0  0
  191.6260  177.1050  140.0000 C   0  0  2  0  0  3  0  0  0  0  0  0
  189.3770  178.1010  139.6710 C   0  0  0  0  0  2  0  0  0  0  0  0
  188.2720  174.5630  137.2610 C   0  0  0  0  0  2  0  0  0  0  0  0
  191.5590  176.9720  138.4620 C   0  0  2  0  0  3  0  0  0  0  0  0
  184.3690  177.0020  135.4990 C   0  0  0  0  0  1  0  0  0  0  0  0
  185.8580  178.1010  137.1710 C   0  0  0  0  0  3  0  0  0  0  0  0
  190.1910  176.5100  137.9260 C   0  0  2  0  0  3  0  0  0  0  0  0
  190.4690  177.8140  140.6260 N   0  0  1  0  0  0  0  0  0  0  0  0
  189.9710  177.1010  141.8480 C   0  0  1  0  0  0  0  0  0  0  0  0
  190.4570  177.7400  143.1650 C   0  0  2  0  0  3  0  0  0  0  0  0
  188.2140  177.4500  143.4070 C   0  0  2  0  0  0  0  0  0  0  0  0
  187.8510  178.4670  142.3430 C   0  0  0  0  0  2  0  0  0  0  0  0
  188.4490  177.1050  141.9670 C   0  0  1  0  0  3  0  0  0  0  0  0
  187.0960  176.6740  144.0710 C   0  0  0  0  0  1  0  0  0  0  0  0
  190.3990  175.6320  141.8580 C   0  0  0  0  0  1  0  0  0  0  0  0
  189.4190  177.6390  144.1150 O   0  0  0  0  0  0  0  0  0  0  0  0
  190.8520  179.2110  143.0400 C   0  0  0  0  0  2  0  0  0  0  0  0
  191.5410  179.6780  144.3070 C   0  0  0  0  0  1  0  0  0  0  0  0
  194.0000  176.8650  140.2790 O   0  0  0  0  0  1  0  0  0  0  0  0
  192.9410  177.7680  140.3940 C   0  0  0  0  0  2  0  0  0  0  0  0
  1  6  1  0  0  0  0
  3 11  1  0  0  0  0
  3  6  2  0  0  0  0
  4 10  1  6  0  0  0
  5  8  2  0  0  0  0
  5 14  1  0  0  0  0
  6  4  1  0  0  0  0
  8  3  1  0  0  0  0
  9 28  1  6  0  0  0
  9 16  1  0  0  0  0
 11  7  1  0  0  0  0
 12  2  1  1  0  0  0
 12  9  1  0  0  0  0
 13  5  1  0  0  0  0
 14  1  2  0  0  0  0
 15  7  1  1  0  0  0
 15 12  1  0  0  0  0
 15  4  1  0  0  0  0
 16 10  1  6  0  0  0
 16 17  1  0  0  0  0
 17 23  1  6  0  0  0
 17 21  1  0  0  0  0
 17 18  1  0  0  0  0
 18 25  1  6  0  0  0
 18 24  1  0  0  0  0
 19 22  1  1  0  0  0
 19 24  1  0  0  0  0
 20 19  1  0  0  0  0
 21 20  1  6  0  0  0
 21 19  1  0  0  0  0
 25 26  1  0  0  0  0
 27 28  1  0  0  0  0
M  END
>  <MODEL>
3

>  <REMARK>
 VINA RESULT:      -4.4      3.975      6.064
  Name = 
  3 active torsions:
  status: ('A' for Active; 'I' for Inactive)
    1  A    between atoms: C_1  and  N_27
    2  A    between atoms: C_2  and  C_3
    3  A    between atoms: C_16  and  C_21
                            x       y       z     vdW  Elec       q    Type
                         _______ _______ _______ _____ _____    ______ ____

>  <TORSDO>
F 3

$$$$
=
 OpenBabel10272401593D

 28 32  0  0  1  0  0  0  0  0999 V2000
  185.9250  177.6880  138.0730 C   0  0  0  0  0  3  0  0  0  0  0  0
  181.6270  173.9050  136.5330 O   0  0  0  0  0  1  0  0  0  0  0  0
  185.6040  177.1450  135.7380 C   0  0  0  0  0  0  0  0  0  0  0  0
  183.6350  176.9590  137.2510 C   0  0  2  0  0  3  0  0  0  0  0  0
  187.7560  177.7960  136.5140 C   0  0  0  0  0  0  0  0  0  0  0  0
  185.0750  177.2910  137.0320 C   0  0  0  0  0  0  0  0  0  0  0  0
  183.3680  175.5840  134.8860 S   0  0  0  0  0  0  0  0  0  0  0  0
  186.9190  177.4120  135.5130 N   0  0  0  0  0  0  0  0  0  0  0  0
  181.1290  175.8210  137.9380 C   0  0  2  0  0  3  0  0  0  0  0  0
  183.1360  177.0730  138.6880 C   0  0  0  0  0  2  0  0  0  0  0  0
  184.7190  176.8070  134.5680 C   0  0  0  0  0  2  0  0  0  0  0  0
  182.2000  174.8570  137.3800 C   0  0  2  0  0  3  0  0  0  0  0  0
  189.1870  178.0690  136.2210 C   0  0  0  0  0  1  0  0  0  0  0  0
  187.2720  177.9420  137.8150 C   0  0  0  0  0  3  0  0  0  0  0  0
  183.4010  175.5600  136.7180 C   0  0  2  0  0  3  0  0  0  0  0  0
  181.6620  176.9680  138.7340 N   0  0  1  0  0  0  0  0  0  0  0  0
  180.9970  178.2610  138.3640 C   0  0  1  0  0  0  0  0  0  0  0  0
  180.0820  178.8140  139.4760 C   0  0  2  0  0  3  0  0  0  0  0  0
  181.3930  180.5560  138.8290 C   0  0  2  0  0  0  0  0  0  0  0  0
  182.6740  179.9380  139.3550 C   0  0  0  0  0  2  0  0  0  0  0  0
  181.9890  179.3910  138.0960 C   0  0  1  0  0  3  0  0  0  0  0  0
  181.4820  181.8780  138.0960 C   0  0  0  0  0  1  0  0  0  0  0  0
  180.1540  178.1190  137.0960 C   0  0  0  0  0  1  0  0  0  0  0  0
  180.1860  180.2210  139.4760 O   0  0  0  0  0  0  0  0  0  0  0  0
  180.4220  178.3070  140.8780 C   0  0  0  0  0  2  0  0  0  0  0  0
  179.9830  179.3170  141.9200 C   0  0  0  0  0  1  0  0  0  0  0  0
  180.5090  174.9400  140.0860 O   0  0  0  0  0  1  0  0  0  0  0  0
  180.1100  175.0300  138.7510 C   0  0  0  0  0  2  0  0  0  0  0  0
  3  6  1  0  0  0  0
  4 10  1  1  0  0  0
  5 14  2  0  0  0  0
  6  4  1  0  0  0  0
  6  1  2  0  0  0  0
  8  3  2  0  0  0  0
  8  5  1  0  0  0  0
  9 16  1  0  0  0  0
  9 28  1  1  0  0  0
 11  7  1  0  0  0  0
 11  3  1  0  0  0  0
 12  2  1  6  0  0  0
 12  9  1  0  0  0  0
 13  5  1  0  0  0  0
 14  1  1  0  0  0  0
 15  7  1  6  0  0  0
 15  4  1  0  0  0  0
 15 12  1  0  0  0  0
 16 10  1  6  0  0  0
 17 23  1  6  0  0  0
 17 16  1  0  0  0  0
 17 18  1  0  0  0  0
 18 25  1  1  0  0  0
 19 22  1  6  0  0  0
 19 20  1  0  0  0  0
 19 24  1  0  0  0  0
 21 17  1  0  0  0  0
 21 19  1  0  0  0  0
 21 20  1  1  0  0  0
 24 18  1  0  0  0  0
 25 26  1  0  0  0  0
 28 27  1  0  0  0  0
M  END
>  <MODEL>
4

>  <REMARK>
 VINA RESULT:      -4.2      4.895      8.596
  Name = 
  3 active torsions:
  status: ('A' for Active; 'I' for Inactive)
    1  A    between atoms: C_1  and  N_27
    2  A    between atoms: C_2  and  C_3
    3  A    between atoms: C_16  and  C_21
                            x       y       z     vdW  Elec       q    Type
                         _______ _______ _______ _____ _____    ______ ____

>  <TORSDO>
F 3

$$$$
=
 OpenBabel10272401593D

 28 32  0  0  1  0  0  0  0  0999 V2000
  184.0830  172.1880  136.6880 C   0  0  0  0  0  3  0  0  0  0  0  0
  181.5340  177.4860  137.4560 O   0  0  0  0  0  1  0  0  0  0  0  0
  182.3820  172.9230  135.1320 C   0  0  0  0  0  0  0  0  0  0  0  0
  183.6950  174.6720  136.3230 C   0  0  2  0  0  3  0  0  0  0  0  0
  182.7230  170.5970  135.4990 C   0  0  0  0  0  0  0  0  0  0  0  0
  183.4080  173.2320  136.0420 C   0  0  0  0  0  0  0  0  0  0  0  0
  181.3330  175.5780  135.2470 S   0  0  0  0  0  0  0  0  0  0  0  0
  182.0780  171.6210  134.8770 N   0  0  0  0  0  0  0  0  0  0  0  0
  183.9530  177.2870  137.3930 C   0  0  2  0  0  3  0  0  0  0  0  0
  184.7730  174.9450  137.3680 C   0  0  0  0  0  2  0  0  0  0  0  0
  181.6860  174.0010  134.3460 C   0  0  0  0  0  2  0  0  0  0  0  0
  182.5910  176.5840  137.5950 C   0  0  2  0  0  3  0  0  0  0  0  0
  182.3500  169.1910  135.1930 C   0  0  0  0  0  1  0  0  0  0  0  0
  183.7400  170.8630  136.4160 C   0  0  0  0  0  3  0  0  0  0  0  0
  182.3900  175.3300  136.7240 C   0  0  2  0  0  3  0  0  0  0  0  0
  185.1390  176.3770  137.3720 N   0  0  1  0  0  0  0  0  0  0  0  0
  186.0830  176.7170  136.2580 C   0  0  1  0  0  0  0  0  0  0  0  0
  187.2030  177.6880  136.6850 C   0  0  2  0  0  3  0  0  0  0  0  0
  188.2430  175.9850  135.5940 C   0  0  2  0  0  0  0  0  0  0  0  0
  187.9090  174.9500  136.6510 C   0  0  0  0  0  2  0  0  0  0  0  0
  186.8280  175.5020  135.7100 C   0  0  1  0  0  3  0  0  0  0  0  0
  188.9680  175.5290  134.3460 C   0  0  0  0  0  1  0  0  0  0  0  0
  185.3520  177.3440  135.0690 C   0  0  0  0  0  1  0  0  0  0  0  0
  188.3860  177.3260  136.0070 O   0  0  0  0  0  0  0  0  0  0  0  0
  187.4910  177.6920  138.1860 C   0  0  0  0  0  2  0  0  0  0  0  0
  188.8020  178.4010  138.4660 C   0  0  0  0  0  1  0  0  0  0  0  0
  183.8350  177.8700  139.7200 O   0  0  0  0  0  1  0  0  0  0  0  0
  184.1250  178.3720  138.4500 C   0  0  0  0  0  2  0  0  0  0  0  0
  3  6  1  0  0  0  0
  4 15  1  0  0  0  0
  4 10  1  1  0  0  0
  5 14  2  0  0  0  0
  6  4  1  0  0  0  0
  6  1  2  0  0  0  0
  8  3  2  0  0  0  0
  8  5  1  0  0  0  0
  9 12  1  0  0  0  0
  9 28  1  1  0  0  0
 11  3  1  0  0  0  0
 11  7  1  0  0  0  0
 12  2  1  6  0  0  0
 13  5  1  0  0  0  0
 14  1  1  0  0  0  0
 15  7  1  6  0  0  0
 15 12  1  0  0  0  0
 16 10  1  6  0  0  0
 16  9  1  0  0  0  0
 17 23  1  6  0  0  0
 17 18  1  0  0  0  0
 17 16  1  0  0  0  0
 18 25  1  1  0  0  0
 19 22  1  6  0  0  0
 19 21  1  0  0  0  0
 19 24  1  0  0  0  0
 19 20  1  0  0  0  0
 21 17  1  0  0  0  0
 21 20  1  1  0  0  0
 24 18  1  0  0  0  0
 25 26  1  0  0  0  0
 28 27  1  0  0  0  0
M  END
>  <MODEL>
5

>  <REMARK>
 VINA RESULT:      -4.1      2.585      3.897
  Name = 
  3 active torsions:
  status: ('A' for Active; 'I' for Inactive)
    1  A    between atoms: C_1  and  N_27
    2  A    between atoms: C_2  and  C_3
    3  A    between atoms: C_16  and  C_21
                            x       y       z     vdW  Elec       q    Type
                         _______ _______ _______ _____ _____    ______ ____

>  <TORSDO>
F 3

$$$$
=
 OpenBabel10272401593D

 28 32  0  0  1  0  0  0  0  0999 V2000
  189.8200  176.5610  140.6150 C   0  0  0  0  0  3  0  0  0  0  0  0
  192.5140  173.4570  136.3410 O   0  0  0  0  0  1  0  0  0  0  0  0
  192.0790  177.1420  139.9710 C   0  0  0  0  0  0  0  0  0  0  0  0
  190.6380  176.0340  138.2680 C   0  0  2  0  0  3  0  0  0  0  0  0
  191.3230  177.6060  142.1780 C   0  0  0  0  0  0  0  0  0  0  0  0
  190.8250  176.6000  139.6390 C   0  0  0  0  0  0  0  0  0  0  0  0
  193.3290  175.9070  137.7180 S   0  0  0  0  0  0  0  0  0  0  0  0
  192.2880  177.6390  141.2200 N   0  0  0  0  0  0  0  0  0  0  0  0
  190.3160  174.4150  135.9610 C   0  0  2  0  0  3  0  0  0  0  0  0
  189.2790  175.4000  137.9890 C   0  0  0  0  0  2  0  0  0  0  0  0
  193.1630  177.2880  138.9370 C   0  0  0  0  0  2  0  0  0  0  0  0
  191.3810  173.9620  136.9850 C   0  0  2  0  0  3  0  0  0  0  0  0
  191.6020  178.1550  143.5310 C   0  0  0  0  0  1  0  0  0  0  0  0
  190.0690  177.0670  141.8910 C   0  0  0  0  0  3  0  0  0  0  0  0
  191.7490  175.0310  138.0310 C   0  0  2  0  0  3  0  0  0  0  0  0
  189.1300  175.1110  136.5460 N   0  0  1  0  0  0  0  0  0  0  0  0
  188.7580  176.3350  135.7650 C   0  0  1  0  0  0  0  0  0  0  0  0
  187.5470  176.1190  134.8350 C   0  0  2  0  0  3  0  0  0  0  0  0
  187.1170  178.0390  135.9760 C   0  0  2  0  0  0  0  0  0  0  0  0
  186.9770  177.3470  137.3180 C   0  0  0  0  0  2  0  0  0  0  0  0
  188.3490  177.5110  136.6490 C   0  0  1  0  0  3  0  0  0  0  0  0
  187.0170  179.5490  135.9330 C   0  0  0  0  0  1  0  0  0  0  0  0
  189.9220  176.8300  134.9050 C   0  0  0  0  0  1  0  0  0  0  0  0
  186.7840  177.3060  134.8190 O   0  0  0  0  0  0  0  0  0  0  0  0
  186.6330  174.9670  135.2530 C   0  0  0  0  0  2  0  0  0  0  0  0
  185.2670  175.1240  134.6160 C   0  0  0  0  0  1  0  0  0  0  0  0
  188.9930  172.4140  135.8400 O   0  0  0  0  0  1  0  0  0  0  0  0
  189.8790  173.2200  135.1220 C   0  0  0  0  0  2  0  0  0  0  0  0
  1 14  1  0  0  0  0
  3  8  2  0  0  0  0
  4 10  1  1  0  0  0
  4  6  1  0  0  0  0
  5 13  1  0  0  0  0
  6  3  1  0  0  0  0
  6  1  2  0  0  0  0
  7 11  1  0  0  0  0
  8  5  1  0  0  0  0
  9 28  1  1  0  0  0
  9 16  1  0  0  0  0
  9 12  1  0  0  0  0
 11  3  1  0  0  0  0
 12  2  1  6  0  0  0
 12 15  1  0  0  0  0
 14  5  2  0  0  0  0
 15  7  1  6  0  0  0
 15  4  1  0  0  0  0
 16 10  1  1  0  0  0
 17 23  1  6  0  0  0
 17 16  1  0  0  0  0
 17 21  1  0  0  0  0
 18 25  1  1  0  0  0
 18 17  1  0  0  0  0
 19 22  1  6  0  0  0
 19 21  1  0  0  0  0
 19 20  1  0  0  0  0
 21 20  1  1  0  0  0
 24 18  1  0  0  0  0
 24 19  1  0  0  0  0
 26 25  1  0  0  0  0
 28 27  1  0  0  0  0
M  END
>  <MODEL>
6

>  <REMARK>
 VINA RESULT:      -4.1      3.014      6.977
  Name = 
  3 active torsions:
  status: ('A' for Active; 'I' for Inactive)
    1  A    between atoms: C_1  and  N_27
    2  A    between atoms: C_2  and  C_3
    3  A    between atoms: C_16  and  C_21
                            x       y       z     vdW  Elec       q    Type
                         _______ _______ _______ _____ _____    ______ ____

>  <TORSDO>
F 3

$$$$
=
 OpenBabel10272401593D

 28 32  0  0  1  0  0  0  0  0999 V2000
  187.0650  176.7550  135.0620 C   0  0  0  0  0  3  0  0  0  0  0  0
  184.5940  179.8500  139.4750 O   0  0  0  0  0  1  0  0  0  0  0  0
  188.2220  176.9320  137.1790 C   0  0  0  0  0  0  0  0  0  0  0  0
  185.7400  177.1360  137.1950 C   0  0  2  0  0  3  0  0  0  0  0  0
  189.4650  176.6080  135.1760 C   0  0  0  0  0  0  0  0  0  0  0  0
  187.0180  176.9170  136.4530 C   0  0  0  0  0  0  0  0  0  0  0  0
  186.9650  178.1340  139.4450 S   0  0  0  0  0  0  0  0  0  0  0  0
  189.4040  176.7650  136.5260 N   0  0  0  0  0  0  0  0  0  0  0  0
  183.3350  178.1100  138.3430 C   0  0  2  0  0  3  0  0  0  0  0  0
  184.4740  177.1760  136.3460 C   0  0  0  0  0  2  0  0  0  0  0  0
  188.2240  177.0150  138.6820 C   0  0  0  0  0  2  0  0  0  0  0  0
  184.5340  179.0860  138.3070 C   0  0  2  0  0  3  0  0  0  0  0  0
  190.7810  176.4370  134.5080 C   0  0  0  0  0  1  0  0  0  0  0  0
  188.2930  176.5990  134.4190 C   0  0  0  0  0  3  0  0  0  0  0  0
  185.8850  178.4170  137.9920 C   0  0  2  0  0  3  0  0  0  0  0  0
  183.2720  177.1420  137.2060 N   0  0  1  0  0  0  0  0  0  0  0  0
  182.9560  175.7530  137.6720 C   0  0  1  0  0  0  0  0  0  0  0  0
  181.5680  175.2590  137.2150 C   0  0  2  0  0  3  0  0  0  0  0  0
  183.0210  173.5890  136.6950 C   0  0  2  0  0  0  0  0  0  0  0  0
  183.7510  174.3960  135.6380 C   0  0  0  0  0  2  0  0  0  0  0  0
  183.9250  174.7030  137.1320 C   0  0  1  0  0  3  0  0  0  0  0  0
  183.5290  172.1990  137.0150 C   0  0  0  0  0  1  0  0  0  0  0  0
  183.0100  175.6430  139.1970 C   0  0  0  0  0  1  0  0  0  0  0  0
  181.6610  173.8810  136.9250 O   0  0  0  0  0  0  0  0  0  0  0  0
  181.0230  175.9740  135.9790 C   0  0  0  0  0  2  0  0  0  0  0  0
  179.9830  175.1120  135.2910 C   0  0  0  0  0  1  0  0  0  0  0  0
  181.5850  179.2720  137.1780 O   0  0  0  0  0  1  0  0  0  0  0  0
  182.0380  178.9040  138.4470 C   0  0  0  0  0  2  0  0  0  0  0  0
  1  6  1  0  0  0  0
  3 11  1  0  0  0  0
  4 10  1  6  0  0  0
  4 15  1  0  0  0  0
  5  8  2  0  0  0  0
  6  3  2  0  0  0  0
  6  4  1  0  0  0  0
  8  3  1  0  0  0  0
  9 28  1  6  0  0  0
 11  7  1  0  0  0  0
 12  9  1  0  0  0  0
 12  2  1  1  0  0  0
 13  5  1  0  0  0  0
 14  1  2  0  0  0  0
 14  5  1  0  0  0  0
 15 12  1  0  0  0  0
 15  7  1  1  0  0  0
 16 10  1  1  0  0  0
 16 17  1  0  0  0  0
 16  9  1  0  0  0  0
 17 23  1  1  0  0  0
 18 25  1  6  0  0  0
 18 17  1  0  0  0  0
 19 24  1  0  0  0  0
 19 22  1  1  0  0  0
 19 21  1  0  0  0  0
 20 19  1  0  0  0  0
 21 20  1  6  0  0  0
 21 17  1  0  0  0  0
 24 18  1  0  0  0  0
 26 25  1  0  0  0  0
 27 28  1  0  0  0  0
M  END
>  <MODEL>
7

>  <REMARK>
 VINA RESULT:      -3.9      3.122      7.060
  Name = 
  3 active torsions:
  status: ('A' for Active; 'I' for Inactive)
    1  A    between atoms: C_1  and  N_27
    2  A    between atoms: C_2  and  C_3
    3  A    between atoms: C_16  and  C_21
                            x       y       z     vdW  Elec       q    Type
                         _______ _______ _______ _____ _____    ______ ____

>  <TORSDO>
F 3

$$$$
=
 OpenBabel10272401593D

 28 32  0  0  1  0  0  0  0  0999 V2000
  186.5810  178.2600  139.4660 C   0  0  0  0  0  3  0  0  0  0  0  0
  180.9630  180.0900  139.9600 O   0  0  0  0  0  1  0  0  0  0  0  0
  185.5100  178.2290  141.6350 C   0  0  0  0  0  0  0  0  0  0  0  0
  184.0550  178.0410  139.6220 C   0  0  2  0  0  3  0  0  0  0  0  0
  187.8720  178.4670  141.4870 C   0  0  0  0  0  0  0  0  0  0  0  0
  185.4140  178.1600  140.2340 C   0  0  0  0  0  0  0  0  0  0  0  0
  182.7220  178.7930  141.9060 S   0  0  0  0  0  0  0  0  0  0  0  0
  186.7310  178.3660  142.2200 N   0  0  0  0  0  0  0  0  0  0  0  0
  181.5660  178.4100  138.3140 C   0  0  2  0  0  3  0  0  0  0  0  0
  184.0090  178.0390  138.0970 C   0  0  0  0  0  2  0  0  0  0  0  0
  184.2990  178.0380  142.5090 C   0  0  0  0  0  2  0  0  0  0  0  0
  182.0360  179.5490  139.2470 C   0  0  2  0  0  3  0  0  0  0  0  0
  189.1820  178.6230  142.1720 C   0  0  0  0  0  1  0  0  0  0  0  0
  187.8170  178.4130  140.0940 C   0  0  0  0  0  3  0  0  0  0  0  0
  183.2020  179.1640  140.1760 C   0  0  2  0  0  3  0  0  0  0  0  0
  182.6600  177.6650  137.6210 N   0  0  1  0  0  0  0  0  0  0  0  0
  182.4420  176.1820  137.6640 C   0  0  1  0  0  0  0  0  0  0  0  0
  181.8150  175.6220  136.3710 C   0  0  2  0  0  3  0  0  0  0  0  0
  183.5940  174.2810  136.8290 C   0  0  2  0  0  0  0  0  0  0  0  0
  184.6230  175.3660  136.5770 C   0  0  0  0  0  2  0  0  0  0  0  0
  183.7360  175.3890  137.8290 C   0  0  1  0  0  3  0  0  0  0  0  0
  184.0780  172.9290  137.3070 C   0  0  0  0  0  1  0  0  0  0  0  0
  181.5390  175.7790  138.8320 C   0  0  0  0  0  1  0  0  0  0  0  0
  182.3760  174.3520  136.1210 O   0  0  0  0  0  0  0  0  0  0  0  0
  182.0350  176.4960  135.1370 C   0  0  0  0  0  2  0  0  0  0  0  0
  180.7480  176.6220  134.3470 C   0  0  0  0  0  1  0  0  0  0  0  0
  181.2110  179.7850  136.3760 O   0  0  0  0  0  1  0  0  0  0  0  0
  180.5670  178.9630  137.3030 C   0  0  0  0  0  2  0  0  0  0  0  0
  1 14  2  0  0  0  0
  1  6  1  0  0  0  0
  3  8  1  0  0  0  0
  3 11  1  0  0  0  0
  4 10  1  6  0  0  0
  4 15  1  0  0  0  0
  4  6  1  0  0  0  0
  5 13  1  0  0  0  0
  5  8  2  0  0  0  0
  6  3  2  0  0  0  0
  7 11  1  0  0  0  0
  9 28  1  6  0  0  0
  9 12  1  0  0  0  0
 12  2  1  1  0  0  0
 12 15  1  0  0  0  0
 14  5  1  0  0  0  0
 15  7  1  1  0  0  0
 16 17  1  0  0  0  0
 16 10  1  1  0  0  0
 16  9  1  0  0  0  0
 17 21  1  0  0  0  0
 17 23  1  1  0  0  0
 18 25  1  6  0  0  0
 18 17  1  0  0  0  0
 19 22  1  1  0  0  0
 19 21  1  0  0  0  0
 20 19  1  0  0  0  0
 21 20  1  6  0  0  0
 24 18  1  0  0  0  0
 24 19  1  0  0  0  0
 26 25  1  0  0  0  0
 27 28  1  0  0  0  0
M  END
>  <MODEL>
8

>  <REMARK>
 VINA RESULT:      -3.8      4.956      7.874
  Name = 
  3 active torsions:
  status: ('A' for Active; 'I' for Inactive)
    1  A    between atoms: C_1  and  N_27
    2  A    between atoms: C_2  and  C_3
    3  A    between atoms: C_16  and  C_21
                            x       y       z     vdW  Elec       q    Type
                         _______ _______ _______ _____ _____    ______ ____

>  <TORSDO>
F 3

$$$$
=
 OpenBabel10272401593D

 28 32  0  0  1  0  0  0  0  0999 V2000
  188.0810  177.4430  137.8230 C   0  0  0  0  0  3  0  0  0  0  0  0
  183.1940  180.3460  139.5130 O   0  0  0  0  0  1  0  0  0  0  0  0
  187.7250  177.8990  140.1720 C   0  0  0  0  0  0  0  0  0  0  0  0
  185.7170  177.7250  138.7090 C   0  0  2  0  0  3  0  0  0  0  0  0
  189.9390  177.6670  139.3360 C   0  0  0  0  0  0  0  0  0  0  0  0
  187.1990  177.6660  138.8890 C   0  0  0  0  0  0  0  0  0  0  0  0
  185.2600  179.0090  141.0970 S   0  0  0  0  0  0  0  0  0  0  0  0
  189.0720  177.8800  140.3620 N   0  0  0  0  0  0  0  0  0  0  0  0
  183.0260  178.3810  138.0970 C   0  0  2  0  0  3  0  0  0  0  0  0
  185.2100  177.5310  137.2840 C   0  0  0  0  0  2  0  0  0  0  0  0
  186.8230  178.0570  141.3670 C   0  0  0  0  0  2  0  0  0  0  0  0
  183.9130  179.5230  138.6410 C   0  0  2  0  0  3  0  0  0  0  0  0
  191.4030  177.6640  139.5910 C   0  0  0  0  0  1  0  0  0  0  0  0
  189.4580  177.4420  138.0460 C   0  0  0  0  0  3  0  0  0  0  0  0
  185.2400  179.0520  139.2650 C   0  0  2  0  0  3  0  0  0  0  0  0
  183.7420  177.3580  137.2750 N   0  0  1  0  0  0  0  0  0  0  0  0
  183.3400  175.9620  137.6450 C   0  0  1  0  0  0  0  0  0  0  0  0
  182.2230  175.3930  136.7470 C   0  0  2  0  0  3  0  0  0  0  0  0
  183.8340  173.7890  136.8230 C   0  0  2  0  0  0  0  0  0  0  0  0
  184.8550  174.6150  136.0640 C   0  0  0  0  0  2  0  0  0  0  0  0
  184.4790  174.9540  137.5130 C   0  0  1  0  0  3  0  0  0  0  0  0
  184.2540  172.4320  137.3450 C   0  0  0  0  0  1  0  0  0  0  0  0
  182.8580  175.8790  139.0950 C   0  0  0  0  0  1  0  0  0  0  0  0
  182.4690  174.0170  136.5520 O   0  0  0  0  0  0  0  0  0  0  0  0
  182.1190  176.0610  135.3760 C   0  0  0  0  0  2  0  0  0  0  0  0
  181.4010  175.1470  134.4010 C   0  0  0  0  0  1  0  0  0  0  0  0
  180.6470  178.4330  137.7620 O   0  0  0  0  0  1  0  0  0  0  0  0
  181.8560  178.9740  137.3190 C   0  0  0  0  0  2  0  0  0  0  0  0
  1 14  2  0  0  0  0
  1  6  1  0  0  0  0
  3  8  1  0  0  0  0
  3 11  1  0  0  0  0
  4 10  1  6  0  0  0
  4  6  1  0  0  0  0
  4 15  1  0  0  0  0
  5 13  1  0  0  0  0
  5  8  2  0  0  0  0
  6  3  2  0  0  0  0
  7 11  1  0  0  0  0
  9 28  1  6  0  0  0
  9 12  1  0  0  0  0
 12 15  1  0  0  0  0
 12  2  1  1  0  0  0
 14  5  1  0  0  0  0
 15  7  1  1  0  0  0
 16 10  1  1  0  0  0
 16 17  1  0  0  0  0
 16  9  1  0  0  0  0
 17 23  1  1  0  0  0
 18 25  1  6  0  0  0
 18 17  1  0  0  0  0
 19 22  1  1  0  0  0
 19 21  1  0  0  0  0
 20 19  1  0  0  0  0
 21 20  1  6  0  0  0
 21 17  1  0  0  0  0
 24 18  1  0  0  0  0
 24 19  1  0  0  0  0
 26 25  1  0  0  0  0
 28 27  1  0  0  0  0
M  END
>  <MODEL>
9

>  <REMARK>
 VINA RESULT:      -3.8      3.665      7.229
  Name = 
  3 active torsions:
  status: ('A' for Active; 'I' for Inactive)
    1  A    between atoms: C_1  and  N_27
    2  A    between atoms: C_2  and  C_3
    3  A    between atoms: C_16  and  C_21
                            x       y       z     vdW  Elec       q    Type
                         _______ _______ _______ _____ _____    ______ ____

>  <TORSDO>
F 3

$$$$
