=
 OpenBabel10272400573D

 27 31  0  0  1  0  0  0  0  0999 V2000
  188.7100  178.5870  141.0210 C   0  0  0  0  0  2  0  0  0  0  0  0
  186.9760  178.0840  142.6930 C   0  0  0  0  0  0  0  0  0  0  0  0
  185.8010  178.5320  140.5340 N   0  0  0  0  0  0  0  0  0  0  0  0
  183.5040  179.2140  144.6980 N   0  0  0  0  0  0  0  0  0  0  0  0
  181.2810  178.5590  143.9310 C   0  0  0  0  0  1  0  0  0  0  0  0
  186.8630  177.9800  144.1820 C   0  0  0  0  0  3  0  0  0  0  0  0
  183.4520  178.6820  142.4840 C   0  0  2  0  0  3  0  0  0  0  0  0
  186.6210  177.9810  137.0710 C   0  0  0  0  0  3  0  0  0  0  0  0
  182.9230  178.0090  141.2600 C   0  0  0  0  0  1  0  0  0  0  0  0
  187.9410  177.2710  137.0460 C   0  0  0  0  0  2  0  0  0  0  0  0
  184.7220  178.9540  142.7470 C   0  0  1  0  0  3  0  0  0  0  0  0
  188.2210  177.5720  142.0220 C   0  0  2  0  0  3  0  0  0  0  0  0
  182.7250  178.8570  143.7300 C   0  0  0  0  0  0  0  0  0  0  0  0
  184.8480  179.3990  144.1650 C   0  0  2  0  0  3  0  0  0  0  0  0
  188.1420  178.2140  139.6780 C   0  0  2  0  0  3  0  0  0  0  0  0
  185.9080  178.5250  141.9760 C   0  0  0  0  0  0  0  0  0  0  0  0
  186.0440  178.4390  138.1870 C   0  0  0  0  0  3  0  0  0  0  0  0
  185.8590  178.5440  144.8700 C   0  0  0  0  0  3  0  0  0  0  0  0
  189.1150  178.1580  137.4820 C   0  0  0  0  0  2  0  0  0  0  0  0
  188.8200  178.9960  138.6490 N   0  0  0  0  0  2  0  0  0  0  0  0
  186.6400  178.3960  139.5420 C   0  0  0  0  0  0  0  0  0  0  0  0
  191.4110  176.5010  144.7100 C   0  0  0  0  0  3  0  0  0  0  0  0
  189.3290  177.1750  142.9590 C   0  0  0  0  0  0  0  0  0  0  0  0
  189.9540  175.9200  142.8660 C   0  0  0  0  0  3  0  0  0  0  0  0
  190.9910  175.5850  143.7410 C   0  0  0  0  0  3  0  0  0  0  0  0
  190.7940  177.7530  144.8030 C   0  0  0  0  0  3  0  0  0  0  0  0
  189.7580  178.0890  143.9280 C   0  0  0  0  0  3  0  0  0  0  0  0
  1 12  1  0  0  0  0
  2  6  1  0  0  0  0
  3 16  1  0  0  0  0
  6 18  2  0  0  0  0
  7  9  1  1  0  0  0
  7 11  1  0  0  0  0
  7 13  1  0  0  0  0
  8 17  2  0  0  0  0
 10  8  1  0  0  0  0
 10 19  1  0  0  0  0
 11 16  1  1  0  0  0
 11 14  1  0  0  0  0
 12  2  1  0  0  0  0
 12 23  1  1  0  0  0
 13  5  1  0  0  0  0
 13  4  2  0  0  0  0
 14  4  1  0  0  0  0
 14 18  1  1  0  0  0
 15  1  1  1  0  0  0
 16  2  2  0  0  0  0
 17 21  1  0  0  0  0
 19 20  1  0  0  0  0
 20 15  1  0  0  0  0
 21 15  1  0  0  0  0
 21  3  2  0  0  0  0
 22 26  1  0  0  0  0
 23 27  1  0  0  0  0
 24 23  2  0  0  0  0
 24 25  1  0  0  0  0
 25 22  2  0  0  0  0
 27 26  2  0  0  0  0
M  END
>  <MODEL>
1

>  <REMARK>
 VINA RESULT:     -10.1      0.000      0.000
  Name = 
  1 active torsions:
  status: ('A' for Active; 'I' for Inactive)
    1  A    between atoms: C_9  and  C_15
                            x       y       z     vdW  Elec       q    Type
                         _______ _______ _______ _____ _____    ______ ____

>  <TORSDO>
F 1

$$$$
=
 OpenBabel10272400573D

 27 31  0  0  1  0  0  0  0  0999 V2000
  189.5130  178.2240  142.8450 C   0  0  0  0  0  2  0  0  0  0  0  0
  187.3880  177.9620  144.0560 C   0  0  0  0  0  0  0  0  0  0  0  0
  186.8250  178.1880  141.6320 N   0  0  0  0  0  0  0  0  0  0  0  0
  183.5860  179.4040  144.9660 N   0  0  0  0  0  0  0  0  0  0  0  0
  181.5990  178.7220  143.7230 C   0  0  0  0  0  1  0  0  0  0  0  0
  186.8950  178.0340  145.4680 C   0  0  0  0  0  3  0  0  0  0  0  0
  184.0690  178.6210  142.8820 C   0  0  2  0  0  3  0  0  0  0  0  0
  188.4660  177.2190  138.5760 C   0  0  0  0  0  3  0  0  0  0  0  0
  183.8330  177.8250  141.6410 C   0  0  0  0  0  1  0  0  0  0  0  0
  189.7090  176.4780  138.9680 C   0  0  0  0  0  2  0  0  0  0  0  0
  185.2440  178.8900  143.4340 C   0  0  1  0  0  3  0  0  0  0  0  0
  188.7320  177.3440  143.7870 C   0  0  2  0  0  3  0  0  0  0  0  0
  183.0610  178.9580  143.8720 C   0  0  0  0  0  0  0  0  0  0  0  0
  185.0300  179.4920  144.7820 C   0  0  2  0  0  3  0  0  0  0  0  0
  189.2850  177.7130  141.4480 C   0  0  2  0  0  3  0  0  0  0  0  0
  186.5610  178.3440  143.0450 C   0  0  0  0  0  0  0  0  0  0  0  0
  187.6500  177.8170  139.4510 C   0  0  0  0  0  3  0  0  0  0  0  0
  185.7810  178.6990  145.8090 C   0  0  0  0  0  3  0  0  0  0  0  0
  190.7800  177.3790  139.5970 C   0  0  0  0  0  2  0  0  0  0  0  0
  190.2440  178.3530  140.5530 N   0  0  0  0  0  2  0  0  0  0  0  0
  187.8790  177.9160  140.9110 C   0  0  0  0  0  0  0  0  0  0  0  0
  191.0940  176.4090  147.2650 C   0  0  0  0  0  3  0  0  0  0  0  0
  189.5430  177.0310  145.0150 C   0  0  0  0  0  0  0  0  0  0  0  0
  188.9550  176.9890  146.2900 C   0  0  0  0  0  3  0  0  0  0  0  0
  189.7310  176.6810  147.4110 C   0  0  0  0  0  3  0  0  0  0  0  0
  191.6820  176.4450  145.9970 C   0  0  0  0  0  3  0  0  0  0  0  0
  190.9070  176.7530  144.8750 C   0  0  0  0  0  3  0  0  0  0  0  0
  1 12  1  0  0  0  0
  2  6  1  0  0  0  0
  3 16  1  0  0  0  0
  5 13  1  0  0  0  0
  6 18  2  0  0  0  0
  7  9  1  1  0  0  0
  7 11  1  0  0  0  0
  7 13  1  0  0  0  0
  8 10  1  0  0  0  0
  8 17  2  0  0  0  0
 10 19  1  0  0  0  0
 11 16  1  1  0  0  0
 11 14  1  0  0  0  0
 12  2  1  0  0  0  0
 12 23  1  1  0  0  0
 13  4  2  0  0  0  0
 14  4  1  0  0  0  0
 14 18  1  1  0  0  0
 15  1  1  1  0  0  0
 16  2  2  0  0  0  0
 17 21  1  0  0  0  0
 19 20  1  0  0  0  0
 20 15  1  0  0  0  0
 21 15  1  0  0  0  0
 21  3  2  0  0  0  0
 22 25  1  0  0  0  0
 23 24  1  0  0  0  0
 24 25  2  0  0  0  0
 26 22  2  0  0  0  0
 27 23  2  0  0  0  0
 27 26  1  0  0  0  0
M  END
>  <MODEL>
2

>  <REMARK>
 VINA RESULT:      -9.7      1.508      2.007
  Name = 
  1 active torsions:
  status: ('A' for Active; 'I' for Inactive)
    1  A    between atoms: C_9  and  C_15
                            x       y       z     vdW  Elec       q    Type
                         _______ _______ _______ _____ _____    ______ ____

>  <TORSDO>
F 1

$$$$
=
 OpenBabel10272400573D

 27 31  0  0  1  0  0  0  0  0999 V2000
  187.7990  178.7310  140.4880 C   0  0  0  0  0  2  0  0  0  0  0  0
  189.4530  177.5920  141.9090 C   0  0  0  0  0  0  0  0  0  0  0  0
  187.4910  178.1280  143.3580 N   0  0  0  0  0  0  0  0  0  0  0  0
  191.8420  177.5900  145.3220 N   0  0  0  0  0  0  0  0  0  0  0  0
  191.1060  176.6040  147.4310 C   0  0  0  0  0  1  0  0  0  0  0  0
  190.9020  177.2190  141.8500 C   0  0  0  0  0  3  0  0  0  0  0  0
  189.5750  177.4350  145.4840 C   0  0  2  0  0  3  0  0  0  0  0  0
  183.9400  178.3520  142.7920 C   0  0  0  0  0  3  0  0  0  0  0  0
  188.2840  176.8780  145.9840 C   0  0  0  0  0  1  0  0  0  0  0  0
  183.7040  177.9610  141.3640 C   0  0  0  0  0  2  0  0  0  0  0  0
  189.8050  177.9300  144.2760 C   0  0  1  0  0  3  0  0  0  0  0  0
  188.6230  177.4820  140.6590 C   0  0  2  0  0  3  0  0  0  0  0  0
  190.8750  177.2380  146.1040 C   0  0  0  0  0  0  0  0  0  0  0  0
  191.2710  178.1480  144.1020 C   0  0  2  0  0  3  0  0  0  0  0  0
  186.4470  178.4720  141.0990 C   0  0  2  0  0  3  0  0  0  0  0  0
  188.8960  177.9030  143.1100 C   0  0  0  0  0  0  0  0  0  0  0  0
  185.1560  178.4810  143.3360 C   0  0  0  0  0  3  0  0  0  0  0  0
  191.7420  177.4280  142.8740 C   0  0  0  0  0  3  0  0  0  0  0  0
  184.2230  178.9970  140.3570 C   0  0  0  0  0  2  0  0  0  0  0  0
  185.5400  179.5440  140.6990 N   0  0  0  0  0  2  0  0  0  0  0  0
  186.4410  178.3440  142.6130 C   0  0  0  0  0  0  0  0  0  0  0  0
  190.7990  176.6530  137.0350 C   0  0  0  0  0  3  0  0  0  0  0  0
  189.4020  177.1850  139.4060 C   0  0  0  0  0  0  0  0  0  0  0  0
  190.3770  176.1740  139.3700 C   0  0  0  0  0  3  0  0  0  0  0  0
  191.0740  175.9110  138.1880 C   0  0  0  0  0  3  0  0  0  0  0  0
  189.8260  177.6570  137.0650 C   0  0  0  0  0  3  0  0  0  0  0  0
  189.1280  177.9200  138.2470 C   0  0  0  0  0  3  0  0  0  0  0  0
  1 12  1  0  0  0  0
  2 16  2  0  0  0  0
  4 13  2  0  0  0  0
  6  2  1  0  0  0  0
  6 18  2  0  0  0  0
  7  9  1  6  0  0  0
  7 13  1  0  0  0  0
  8 17  2  0  0  0  0
 10  8  1  0  0  0  0
 11 16  1  6  0  0  0
 11  7  1  0  0  0  0
 12 23  1  6  0  0  0
 12  2  1  0  0  0  0
 13  5  1  0  0  0  0
 14 18  1  6  0  0  0
 14 11  1  0  0  0  0
 14  4  1  0  0  0  0
 15  1  1  1  0  0  0
 15 21  1  0  0  0  0
 16  3  1  0  0  0  0
 19 20  1  0  0  0  0
 19 10  1  0  0  0  0
 20 15  1  0  0  0  0
 21 17  1  0  0  0  0
 21  3  2  0  0  0  0
 22 26  2  0  0  0  0
 22 25  1  0  0  0  0
 24 23  1  0  0  0  0
 25 24  2  0  0  0  0
 26 27  1  0  0  0  0
 27 23  2  0  0  0  0
M  END
>  <MODEL>
3

>  <REMARK>
 VINA RESULT:      -9.5      2.227      5.780
  Name = 
  1 active torsions:
  status: ('A' for Active; 'I' for Inactive)
    1  A    between atoms: C_9  and  C_15
                            x       y       z     vdW  Elec       q    Type
                         _______ _______ _______ _____ _____    ______ ____

>  <TORSDO>
F 1

$$$$
=
 OpenBabel10272400573D

 27 31  0  0  1  0  0  0  0  0999 V2000
  189.4230  178.0750  138.5510 C   0  0  0  0  0  2  0  0  0  0  0  0
  190.0650  177.2310  140.7700 C   0  0  0  0  0  0  0  0  0  0  0  0
  187.7500  178.1460  140.9780 N   0  0  0  0  0  0  0  0  0  0  0  0
  190.5910  177.9180  144.8460 N   0  0  0  0  0  0  0  0  0  0  0  0
  188.8400  177.4600  146.4840 C   0  0  0  0  0  1  0  0  0  0  0  0
  191.3130  176.8060  141.4820 C   0  0  0  0  0  3  0  0  0  0  0  0
  188.5060  177.8810  143.9280 C   0  0  2  0  0  3  0  0  0  0  0  0
  184.9270  178.3570  138.7520 C   0  0  0  0  0  3  0  0  0  0  0  0
  187.0670  177.4950  143.8410 C   0  0  0  0  0  1  0  0  0  0  0  0
  185.3230  177.6620  137.4840 C   0  0  0  0  0  2  0  0  0  0  0  0
  189.3310  178.0820  142.9100 C   0  0  1  0  0  3  0  0  0  0  0  0
  189.8970  176.8700  139.3200 C   0  0  2  0  0  3  0  0  0  0  0  0
  189.3340  177.7860  145.1190 C   0  0  0  0  0  0  0  0  0  0  0  0
  190.7270  178.2070  143.4230 C   0  0  2  0  0  3  0  0  0  0  0  0
  187.9210  178.0070  138.4760 C   0  0  2  0  0  3  0  0  0  0  0  0
  189.0670  177.8240  141.4790 C   0  0  0  0  0  0  0  0  0  0  0  0
  185.7600  178.5640  139.7770 C   0  0  0  0  0  3  0  0  0  0  0  0
  191.6070  177.2120  142.7260 C   0  0  0  0  0  3  0  0  0  0  0  0
  186.3830  178.4250  136.6780 C   0  0  0  0  0  2  0  0  0  0  0  0
  187.4560  178.9910  137.5020 N   0  0  0  0  0  2  0  0  0  0  0  0
  187.2020  178.2240  139.7960 C   0  0  0  0  0  0  0  0  0  0  0  0
  193.3600  175.0970  137.4720 C   0  0  0  0  0  3  0  0  0  0  0  0
  191.1160  176.2720  138.6710 C   0  0  0  0  0  0  0  0  0  0  0  0
  192.3640  176.9130  138.7240 C   0  0  0  0  0  3  0  0  0  0  0  0
  193.4820  176.3270  138.1250 C   0  0  0  0  0  3  0  0  0  0  0  0
  192.1200  174.4530  137.4190 C   0  0  0  0  0  3  0  0  0  0  0  0
  191.0020  175.0380  138.0190 C   0  0  0  0  0  3  0  0  0  0  0  0
  1 12  1  0  0  0  0
  2 16  2  0  0  0  0
  2  6  1  0  0  0  0
  3 16  1  0  0  0  0
  4 13  2  0  0  0  0
  6 18  2  0  0  0  0
  7  9  1  6  0  0  0
  7 13  1  0  0  0  0
  8 17  2  0  0  0  0
 10  8  1  0  0  0  0
 11 16  1  6  0  0  0
 11 14  1  0  0  0  0
 11  7  1  0  0  0  0
 12 23  1  6  0  0  0
 12  2  1  0  0  0  0
 13  5  1  0  0  0  0
 14 18  1  6  0  0  0
 14  4  1  0  0  0  0
 15  1  1  1  0  0  0
 15 21  1  0  0  0  0
 17 21  1  0  0  0  0
 19 10  1  0  0  0  0
 19 20  1  0  0  0  0
 20 15  1  0  0  0  0
 21  3  2  0  0  0  0
 22 25  1  0  0  0  0
 23 24  1  0  0  0  0
 25 24  2  0  0  0  0
 26 22  2  0  0  0  0
 26 27  1  0  0  0  0
 27 23  2  0  0  0  0
M  END
>  <MODEL>
4

>  <REMARK>
 VINA RESULT:      -8.6      2.700      4.994
  Name = 
  1 active torsions:
  status: ('A' for Active; 'I' for Inactive)
    1  A    between atoms: C_9  and  C_15
                            x       y       z     vdW  Elec       q    Type
                         _______ _______ _______ _____ _____    ______ ____

>  <TORSDO>
F 1

$$$$
=
 OpenBabel10272400573D

 27 31  0  0  1  0  0  0  0  0999 V2000
  186.4620  178.9120  145.0400 C   0  0  0  0  0  2  0  0  0  0  0  0
  186.8510  178.1450  142.7360 C   0  0  0  0  0  0  0  0  0  0  0  0
  188.9030  177.5880  144.0470 N   0  0  0  0  0  0  0  0  0  0  0  0
  189.1950  178.2050  139.2910 N   0  0  0  0  0  0  0  0  0  0  0  0
  190.9500  176.5590  138.8780 C   0  0  0  0  0  1  0  0  0  0  0  0
  186.2460  178.3410  141.3800 C   0  0  0  0  0  3  0  0  0  0  0  0
  189.9500  177.2150  141.2000 C   0  0  2  0  0  3  0  0  0  0  0  0
  189.5140  176.6510  147.4710 C   0  0  0  0  0  3  0  0  0  0  0  0
  190.5800  176.1310  142.0100 C   0  0  0  0  0  1  0  0  0  0  0  0
  188.1750  176.5450  148.1360 C   0  0  0  0  0  2  0  0  0  0  0  0
  188.9760  178.0250  141.5890 C   0  0  1  0  0  3  0  0  0  0  0  0
  185.9410  178.0380  143.9280 C   0  0  2  0  0  3  0  0  0  0  0  0
  190.0540  177.3580  139.7570 C   0  0  0  0  0  0  0  0  0  0  0  0
  188.4680  178.7880  140.4120 C   0  0  2  0  0  3  0  0  0  0  0  0
  187.3130  178.0520  145.9360 C   0  0  2  0  0  3  0  0  0  0  0  0
  188.1930  177.9470  142.8410 C   0  0  0  0  0  0  0  0  0  0  0  0
  189.6880  177.0770  146.2150 C   0  0  0  0  0  3  0  0  0  0  0  0
  186.9860  178.5920  140.2900 C   0  0  0  0  0  3  0  0  0  0  0  0
  187.4830  177.9010  148.3280 C   0  0  0  0  0  2  0  0  0  0  0  0
  187.5920  178.7890  147.1650 N   0  0  0  0  0  2  0  0  0  0  0  0
  188.6200  177.5810  145.3220 C   0  0  0  0  0  0  0  0  0  0  0  0
  181.7830  178.8880  143.1960 C   0  0  0  0  0  3  0  0  0  0  0  0
  184.4940  178.3400  143.6500 C   0  0  0  0  0  0  0  0  0  0  0  0
  183.9400  178.1610  142.3720 C   0  0  0  0  0  3  0  0  0  0  0  0
  182.5890  178.4360  142.1470 C   0  0  0  0  0  3  0  0  0  0  0  0
  182.3290  179.0640  144.4710 C   0  0  0  0  0  3  0  0  0  0  0  0
  183.6800  178.7880  144.6970 C   0  0  0  0  0  3  0  0  0  0  0  0
  2 16  2  0  0  0  0
  2 12  1  0  0  0  0
  3 21  2  0  0  0  0
  4 13  2  0  0  0  0
  4 14  1  0  0  0  0
  5 13  1  0  0  0  0
  6  2  1  0  0  0  0
  7 11  1  0  0  0  0
  7  9  1  6  0  0  0
  8 10  1  0  0  0  0
 10 19  1  0  0  0  0
 11 16  1  6  0  0  0
 12 23  1  6  0  0  0
 12  1  1  0  0  0  0
 13  7  1  0  0  0  0
 14 18  1  6  0  0  0
 14 11  1  0  0  0  0
 15  1  1  6  0  0  0
 15 20  1  0  0  0  0
 16  3  1  0  0  0  0
 17  8  2  0  0  0  0
 18  6  2  0  0  0  0
 20 19  1  0  0  0  0
 21 15  1  0  0  0  0
 21 17  1  0  0  0  0
 22 26  1  0  0  0  0
 23 27  1  0  0  0  0
 24 23  2  0  0  0  0
 25 24  1  0  0  0  0
 25 22  2  0  0  0  0
 26 27  2  0  0  0  0
M  END
>  <MODEL>
5

>  <REMARK>
 VINA RESULT:      -8.3      2.191      7.349
  Name = 
  1 active torsions:
  status: ('A' for Active; 'I' for Inactive)
    1  A    between atoms: C_9  and  C_15
                            x       y       z     vdW  Elec       q    Type
                         _______ _______ _______ _____ _____    ______ ____

>  <TORSDO>
F 1

$$$$
=
 OpenBabel10272400573D

 27 31  0  0  1  0  0  0  0  0999 V2000
  188.9710  176.6710  141.5120 C   0  0  0  0  0  2  0  0  0  0  0  0
  186.9260  178.0160  141.2600 C   0  0  0  0  0  0  0  0  0  0  0  0
  187.3180  177.7340  143.7110 N   0  0  0  0  0  0  0  0  0  0  0  0
  182.8770  178.5600  142.0740 N   0  0  0  0  0  0  0  0  0  0  0  0
  182.0920  179.8790  143.9730 C   0  0  0  0  0  1  0  0  0  0  0  0
  185.9500  178.3660  140.1790 C   0  0  0  0  0  3  0  0  0  0  0  0
  184.4350  178.7510  143.7250 C   0  0  2  0  0  3  0  0  0  0  0  0
  190.2630  177.4410  145.7630 C   0  0  0  0  0  3  0  0  0  0  0  0
  185.0980  179.3900  144.9000 C   0  0  0  0  0  1  0  0  0  0  0  0
  191.4430  177.5960  144.8510 C   0  0  0  0  0  2  0  0  0  0  0  0
  185.0320  178.0660  142.7600 C   0  0  1  0  0  3  0  0  0  0  0  0
  188.3880  177.9270  140.9170 C   0  0  2  0  0  3  0  0  0  0  0  0
  183.0900  179.0390  143.2560 C   0  0  0  0  0  0  0  0  0  0  0  0
  184.0580  177.8140  141.6590 C   0  0  2  0  0  3  0  0  0  0  0  0
  189.5690  177.0330  142.8450 C   0  0  2  0  0  3  0  0  0  0  0  0
  186.4850  177.9070  142.5420 C   0  0  0  0  0  0  0  0  0  0  0  0
  188.9960  177.3950  145.3370 C   0  0  0  0  0  3  0  0  0  0  0  0
  184.6230  178.3220  140.3660 C   0  0  0  0  0  3  0  0  0  0  0  0
  191.6350  176.4070  143.8990 C   0  0  0  0  0  2  0  0  0  0  0  0
  190.3860  175.9160  143.3100 N   0  0  0  0  0  2  0  0  0  0  0  0
  188.5640  177.4060  143.9200 C   0  0  0  0  0  0  0  0  0  0  0  0
  189.3150  178.1100  136.7150 C   0  0  0  0  0  3  0  0  0  0  0  0
  188.7010  178.0110  139.4470 C   0  0  0  0  0  0  0  0  0  0  0  0
  188.8620  179.2490  138.8020 C   0  0  0  0  0  3  0  0  0  0  0  0
  189.1670  179.2960  137.4390 C   0  0  0  0  0  3  0  0  0  0  0  0
  189.1580  176.8760  137.3530 C   0  0  0  0  0  3  0  0  0  0  0  0
  188.8540  176.8280  138.7170 C   0  0  0  0  0  3  0  0  0  0  0  0
  2 16  2  0  0  0  0
  3 21  2  0  0  0  0
  4 13  2  0  0  0  0
  6 18  2  0  0  0  0
  6  2  1  0  0  0  0
  7  9  1  6  0  0  0
 10  8  1  0  0  0  0
 11 16  1  6  0  0  0
 11  7  1  0  0  0  0
 12 23  1  6  0  0  0
 12  2  1  0  0  0  0
 12  1  1  0  0  0  0
 13  7  1  0  0  0  0
 13  5  1  0  0  0  0
 14 18  1  6  0  0  0
 14  4  1  0  0  0  0
 14 11  1  0  0  0  0
 15  1  1  6  0  0  0
 15 20  1  0  0  0  0
 15 21  1  0  0  0  0
 16  3  1  0  0  0  0
 17  8  2  0  0  0  0
 19 10  1  0  0  0  0
 20 19  1  0  0  0  0
 21 17  1  0  0  0  0
 22 26  2  0  0  0  0
 22 25  1  0  0  0  0
 24 23  1  0  0  0  0
 25 24  2  0  0  0  0
 26 27  1  0  0  0  0
 27 23  2  0  0  0  0
M  END
>  <MODEL>
6

>  <REMARK>
 VINA RESULT:      -8.0      1.783      5.117
  Name = 
  1 active torsions:
  status: ('A' for Active; 'I' for Inactive)
    1  A    between atoms: C_9  and  C_15
                            x       y       z     vdW  Elec       q    Type
                         _______ _______ _______ _____ _____    ______ ____

>  <TORSDO>
F 1

$$$$
=
 OpenBabel10272400573D

 27 31  0  0  1  0  0  0  0  0999 V2000
  191.7460  177.2980  139.9330 C   0  0  0  0  0  2  0  0  0  0  0  0
  189.3020  177.3000  140.2180 C   0  0  0  0  0  0  0  0  0  0  0  0
  189.7650  176.5510  137.8810 N   0  0  0  0  0  0  0  0  0  0  0  0
  185.5530  178.6010  138.9490 N   0  0  0  0  0  0  0  0  0  0  0  0
  184.1840  177.3140  137.3900 C   0  0  0  0  0  1  0  0  0  0  0  0
  188.2950  177.8450  141.1820 C   0  0  0  0  0  3  0  0  0  0  0  0
  186.7730  177.1480  137.6870 C   0  0  2  0  0  3  0  0  0  0  0  0
  192.4190  174.6760  136.3260 C   0  0  0  0  0  3  0  0  0  0  0  0
  186.9990  175.9280  136.8570 C   0  0  0  0  0  1  0  0  0  0  0  0
  193.3540  174.2600  137.4220 C   0  0  0  0  0  2  0  0  0  0  0  0
  187.6460  177.7160  138.5070 C   0  0  1  0  0  3  0  0  0  0  0  0
  190.6010  176.7600  140.7520 C   0  0  2  0  0  3  0  0  0  0  0  0
  185.4780  177.7300  137.9960 C   0  0  0  0  0  0  0  0  0  0  0  0
  186.9530  178.7530  139.3250 C   0  0  2  0  0  3  0  0  0  0  0  0
  192.0600  176.2830  138.8670 C   0  0  2  0  0  3  0  0  0  0  0  0
  188.9720  177.1960  138.9020 C   0  0  0  0  0  0  0  0  0  0  0  0
  191.3630  175.4760  136.5140 C   0  0  0  0  0  3  0  0  0  0  0  0
  187.1820  178.4770  140.7810 C   0  0  0  0  0  3  0  0  0  0  0  0
  194.1420  175.4300  138.0250 C   0  0  0  0  0  2  0  0  0  0  0  0
  193.3340  176.6340  138.2470 N   0  0  0  0  0  2  0  0  0  0  0  0
  190.9990  176.1330  137.7900 C   0  0  0  0  0  0  0  0  0  0  0  0
  191.3210  177.5100  144.9320 C   0  0  0  0  0  3  0  0  0  0  0  0
  190.8350  177.0080  142.2180 C   0  0  0  0  0  0  0  0  0  0  0  0
  190.5520  176.0250  143.1810 C   0  0  0  0  0  3  0  0  0  0  0  0
  190.7940  176.2780  144.5340 C   0  0  0  0  0  3  0  0  0  0  0  0
  191.6080  178.4890  143.9760 C   0  0  0  0  0  3  0  0  0  0  0  0
  191.3670  178.2370  142.6220 C   0  0  0  0  0  3  0  0  0  0  0  0
  1 12  1  0  0  0  0
  2 12  1  0  0  0  0
  2  6  1  0  0  0  0
  3 16  1  0  0  0  0
  4 14  1  0  0  0  0
  5 13  1  0  0  0  0
  7  9  1  1  0  0  0
  7 13  1  0  0  0  0
  7 11  1  0  0  0  0
  8 17  2  0  0  0  0
  8 10  1  0  0  0  0
 10 19  1  0  0  0  0
 11 16  1  1  0  0  0
 11 14  1  0  0  0  0
 12 23  1  1  0  0  0
 13  4  2  0  0  0  0
 14 18  1  1  0  0  0
 15  1  1  1  0  0  0
 16  2  2  0  0  0  0
 17 21  1  0  0  0  0
 18  6  2  0  0  0  0
 19 20  1  0  0  0  0
 20 15  1  0  0  0  0
 21  3  2  0  0  0  0
 21 15  1  0  0  0  0
 23 27  2  0  0  0  0
 23 24  1  0  0  0  0
 24 25  2  0  0  0  0
 25 22  1  0  0  0  0
 26 22  2  0  0  0  0
 27 26  1  0  0  0  0
M  END
>  <MODEL>
7

>  <REMARK>
 VINA RESULT:      -8.0      2.970      4.774
  Name = 
  1 active torsions:
  status: ('A' for Active; 'I' for Inactive)
    1  A    between atoms: C_9  and  C_15
                            x       y       z     vdW  Elec       q    Type
                         _______ _______ _______ _____ _____    ______ ____

>  <TORSDO>
F 1

$$$$
=
 OpenBabel10272400573D

 27 31  0  0  1  0  0  0  0  0999 V2000
  186.9610  179.1040  142.4450 C   0  0  0  0  0  2  0  0  0  0  0  0
  188.8600  177.7220  143.1770 C   0  0  0  0  0  0  0  0  0  0  0  0
  187.4340  178.1280  145.1870 N   0  0  0  0  0  0  0  0  0  0  0  0
  192.1110  177.1680  145.7230 N   0  0  0  0  0  0  0  0  0  0  0  0
  191.9310  175.9330  147.8210 C   0  0  0  0  0  1  0  0  0  0  0  0
  190.2020  177.3080  142.6550 C   0  0  0  0  0  3  0  0  0  0  0  0
  189.9780  177.0770  146.5170 C   0  0  2  0  0  3  0  0  0  0  0  0
  183.8960  178.5580  145.7070 C   0  0  0  0  0  3  0  0  0  0  0  0
  188.8430  176.5040  147.3000 C   0  0  0  0  0  1  0  0  0  0  0  0
  183.2370  178.3730  144.3730 C   0  0  0  0  0  2  0  0  0  0  0  0
  189.8920  177.7220  145.3630 C   0  0  1  0  0  3  0  0  0  0  0  0
  187.7050  177.8130  142.2180 C   0  0  2  0  0  3  0  0  0  0  0  0
  191.3810  176.7490  146.7050 C   0  0  0  0  0  0  0  0  0  0  0  0
  191.2610  177.9080  144.7980 C   0  0  2  0  0  3  0  0  0  0  0  0
  185.8230  178.8140  143.3860 C   0  0  2  0  0  3  0  0  0  0  0  0
  188.6920  177.8870  144.5170 C   0  0  0  0  0  0  0  0  0  0  0  0
  185.2220  178.5670  145.8860 C   0  0  0  0  0  3  0  0  0  0  0  0
  191.3100  177.3440  143.4090 C   0  0  0  0  0  3  0  0  0  0  0  0
  183.5250  179.5160  143.3910 C   0  0  0  0  0  2  0  0  0  0  0  0
  184.9220  179.9630  143.3980 N   0  0  0  0  0  2  0  0  0  0  0  0
  186.2350  178.4820  144.8100 C   0  0  0  0  0  0  0  0  0  0  0  0
  188.8210  177.3700  138.0820 C   0  0  0  0  0  3  0  0  0  0  0  0
  188.0720  177.6610  140.7670 C   0  0  0  0  0  0  0  0  0  0  0  0
  187.3320  178.2910  139.7530 C   0  0  0  0  0  3  0  0  0  0  0  0
  187.7060  178.1440  138.4150 C   0  0  0  0  0  3  0  0  0  0  0  0
  189.5640  176.7450  139.0880 C   0  0  0  0  0  3  0  0  0  0  0  0
  189.1910  176.8920  140.4260 C   0  0  0  0  0  3  0  0  0  0  0  0
  2 16  2  0  0  0  0
  4 13  2  0  0  0  0
  6  2  1  0  0  0  0
  6 18  2  0  0  0  0
  7 13  1  0  0  0  0
  7  9  1  6  0  0  0
  8 17  2  0  0  0  0
 10  8  1  0  0  0  0
 11 16  1  6  0  0  0
 11  7  1  0  0  0  0
 12 23  1  6  0  0  0
 12  1  1  0  0  0  0
 12  2  1  0  0  0  0
 13  5  1  0  0  0  0
 14 18  1  6  0  0  0
 14 11  1  0  0  0  0
 14  4  1  0  0  0  0
 15  1  1  6  0  0  0
 15 20  1  0  0  0  0
 15 21  1  0  0  0  0
 16  3  1  0  0  0  0
 19 20  1  0  0  0  0
 19 10  1  0  0  0  0
 21  3  2  0  0  0  0
 21 17  1  0  0  0  0
 22 25  2  0  0  0  0
 22 26  1  0  0  0  0
 24 23  2  0  0  0  0
 25 24  1  0  0  0  0
 26 27  2  0  0  0  0
 27 23  1  0  0  0  0
M  END
>  <MODEL>
8

>  <REMARK>
 VINA RESULT:      -7.8      2.321      6.559
  Name = 
  1 active torsions:
  status: ('A' for Active; 'I' for Inactive)
    1  A    between atoms: C_9  and  C_15
                            x       y       z     vdW  Elec       q    Type
                         _______ _______ _______ _____ _____    ______ ____

>  <TORSDO>
F 1

$$$$
=
 OpenBabel10272400573D

 27 31  0  0  1  0  0  0  0  0999 V2000
  185.0370  179.2480  142.0770 C   0  0  0  0  0  2  0  0  0  0  0  0
  186.2960  178.2150  140.2330 C   0  0  0  0  0  0  0  0  0  0  0  0
  187.7270  178.0550  142.2750 N   0  0  0  0  0  0  0  0  0  0  0  0
  189.7570  178.0390  137.9200 N   0  0  0  0  0  0  0  0  0  0  0  0
  191.6080  176.5390  138.4520 C   0  0  0  0  0  1  0  0  0  0  0  0
  186.2370  178.1610  138.7380 C   0  0  0  0  0  3  0  0  0  0  0  0
  189.7820  177.4020  140.1080 C   0  0  2  0  0  3  0  0  0  0  0  0
  187.0480  177.6630  145.7900 C   0  0  0  0  0  3  0  0  0  0  0  0
  190.1080  176.5100  141.2590 C   0  0  0  0  0  1  0  0  0  0  0  0
  185.5620  177.5140  145.9300 C   0  0  0  0  0  2  0  0  0  0  0  0
  188.6990  178.1550  139.9760 C   0  0  1  0  0  3  0  0  0  0  0  0
  185.0100  178.1820  141.0130 C   0  0  2  0  0  3  0  0  0  0  0  0
  190.4140  177.3560  138.8000 C   0  0  0  0  0  0  0  0  0  0  0  0
  188.6380  178.6940  138.5860 C   0  0  2  0  0  3  0  0  0  0  0  0
  185.5260  178.6100  143.3500 C   0  0  2  0  0  3  0  0  0  0  0  0
  187.5080  178.1710  140.8510 C   0  0  0  0  0  0  0  0  0  0  0  0
  187.6620  177.9270  144.6320 C   0  0  0  0  0  3  0  0  0  0  0  0
  187.3210  178.3340  137.9670 C   0  0  0  0  0  3  0  0  0  0  0  0
  184.7920  178.8070  145.6290 C   0  0  0  0  0  2  0  0  0  0  0  0
  185.2910  179.5320  144.4570 N   0  0  0  0  0  2  0  0  0  0  0  0
  186.9870  178.1940  143.3410 C   0  0  0  0  0  0  0  0  0  0  0  0
  181.4440  178.4410  138.6130 C   0  0  0  0  0  3  0  0  0  0  0  0
  183.7620  178.2950  140.1810 C   0  0  0  0  0  0  0  0  0  0  0  0
  183.3780  179.5130  139.5960 C   0  0  0  0  0  3  0  0  0  0  0  0
  182.2210  179.5850  138.8160 C   0  0  0  0  0  3  0  0  0  0  0  0
  181.8240  177.2250  139.1900 C   0  0  0  0  0  3  0  0  0  0  0  0
  182.9810  177.1530  139.9700 C   0  0  0  0  0  3  0  0  0  0  0  0
  2 16  2  0  0  0  0
  2 12  1  0  0  0  0
  3 21  2  0  0  0  0
  4 14  1  0  0  0  0
  4 13  2  0  0  0  0
  5 13  1  0  0  0  0
  6  2  1  0  0  0  0
  7  9  1  6  0  0  0
  8 10  1  0  0  0  0
 11  7  1  0  0  0  0
 11 16  1  6  0  0  0
 12 23  1  6  0  0  0
 12  1  1  0  0  0  0
 13  7  1  0  0  0  0
 14 18  1  6  0  0  0
 14 11  1  0  0  0  0
 15  1  1  6  0  0  0
 15 20  1  0  0  0  0
 16  3  1  0  0  0  0
 17  8  2  0  0  0  0
 18  6  2  0  0  0  0
 19 10  1  0  0  0  0
 20 19  1  0  0  0  0
 21 15  1  0  0  0  0
 21 17  1  0  0  0  0
 22 25  2  0  0  0  0
 22 26  1  0  0  0  0
 24 23  2  0  0  0  0
 25 24  1  0  0  0  0
 26 27  2  0  0  0  0
 27 23  1  0  0  0  0
M  END
>  <MODEL>
9

>  <REMARK>
 VINA RESULT:      -7.6      1.934      7.502
  Name = 
  1 active torsions:
  status: ('A' for Active; 'I' for Inactive)
    1  A    between atoms: C_9  and  C_15
                            x       y       z     vdW  Elec       q    Type
                         _______ _______ _______ _____ _____    ______ ____

>  <TORSDO>
F 1

$$$$
