=
 OpenBabel10272415273D

 34 38  0  0  1  0  0  0  0  0999 V2000
  187.2310  177.8990  144.5450 C   0  0  0  0  0  0  0  0  0  0  0  0
  188.9280  177.8120  147.8130 C   0  0  0  0  0  3  0  0  0  0  0  0
  186.7220  177.9700  147.2540 N   0  0  0  0  0  2  0  0  0  0  0  0
  186.4570  178.1400  142.2330 C   0  0  0  0  0  0  0  0  0  0  0  0
  187.4680  177.8780  143.1580 C   0  0  0  0  0  3  0  0  0  0  0  0
  184.8930  178.4510  144.0630 C   0  0  0  0  0  0  0  0  0  0  0  0
  183.5590  178.7540  144.4650 N   0  0  0  0  0  1  0  0  0  0  0  0
  185.1760  178.4290  142.6970 C   0  0  0  0  0  3  0  0  0  0  0  0
  185.6880  178.1610  146.3990 C   0  0  0  0  0  0  0  0  0  0  0  0
  185.9190  178.1830  145.0090 C   0  0  0  0  0  0  0  0  0  0  0  0
  184.5370  178.3400  146.8780 O   0  0  0  0  0  0  0  0  0  0  0  0
  190.4010  177.9150  147.6090 C   0  0  0  0  0  2  0  0  0  0  0  0
  190.9640  176.7440  146.8900 C   0  0  0  0  0  0  0  0  0  0  0  0
  190.5480  176.4390  145.6650 C   0  0  0  0  0  3  0  0  0  0  0  0
  188.0000  177.7550  146.8510 C   0  0  0  0  0  0  0  0  0  0  0  0
  189.3980  177.0360  144.9630 C   0  0  0  0  0  3  0  0  0  0  0  0
  188.2730  177.6020  145.4610 C   0  0  0  0  0  0  0  0  0  0  0  0
  192.1070  176.0250  147.4790 C   0  0  0  0  0  0  0  0  0  0  0  0
  192.7430  176.5350  148.6060 O   0  0  0  0  0  1  0  0  0  0  0  0
  192.5170  174.9450  146.9770 O   0  0  0  0  0  0  0  0  0  0  0  0
  186.6900  178.1270  140.8500 O   0  0  0  0  0  0  0  0  0  0  0  0
  188.5990  176.8320  138.3850 C   0  0  0  0  0  2  0  0  0  0  0  0
  189.1450  177.9350  140.9470 C   0  0  0  0  0  2  0  0  0  0  0  0
  192.4360  176.5920  138.7010 C   0  0  0  0  0  0  0  0  0  0  0  0
  191.0640  176.4920  138.0780 C   0  0  0  0  0  2  0  0  0  0  0  0
  189.9450  176.6570  139.1080 C   0  0  1  0  0  3  0  0  0  0  0  0
  191.4090  177.3570  140.8250 C   0  0  0  0  0  2  0  0  0  0  0  0
  190.2610  177.7690  140.0220 N   0  0  2  0  0  0  0  0  0  0  0  0
  192.5910  177.0540  139.9490 C   0  0  0  0  0  3  0  0  0  0  0  0
  187.9180  178.4820  140.2080 C   0  0  1  0  0  3  0  0  0  0  0  0
  187.9080  178.1600  138.7070 C   0  0  0  0  0  2  0  0  0  0  0  0
  193.6160  176.2800  137.8780 C   0  0  0  0  0  0  0  0  0  0  0  0
  193.8370  176.9070  136.8070 O   0  0  0  0  0  0  0  0  0  0  0  0
  194.5030  175.2890  138.2800 O   0  0  0  0  0  1  0  0  0  0  0  0
  1 10  1  0  0  0  0
  1 17  1  0  0  0  0
  4  8  2  0  0  0  0
  4  5  1  0  0  0  0
  5  1  2  0  0  0  0
  6  7  1  0  0  0  0
  6 10  2  0  0  0  0
  8  6  1  0  0  0  0
  9 11  2  0  0  0  0
  9  3  1  0  0  0  0
 10  9  1  0  0  0  0
 12  2  1  0  0  0  0
 13 18  1  0  0  0  0
 13 12  1  0  0  0  0
 14 13  2  0  0  0  0
 15  3  1  0  0  0  0
 15  2  2  0  0  0  0
 16 17  2  0  0  0  0
 16 14  1  0  0  0  0
 17 15  1  0  0  0  0
 18 19  1  0  0  0  0
 20 18  2  0  0  0  0
 21  4  1  0  0  0  0
 22 31  1  0  0  0  0
 22 26  1  0  0  0  0
 24 29  2  0  0  0  0
 25 24  1  0  0  0  0
 26 25  1  6  0  0  0
 26 28  1  0  0  0  0
 28 27  1  1  0  0  0
 28 23  1  0  0  0  0
 29 27  1  0  0  0  0
 30 21  1  1  0  0  0
 30 23  1  0  0  0  0
 31 30  1  0  0  0  0
 32 34  1  0  0  0  0
 32 24  1  0  0  0  0
 33 32  2  0  0  0  0
M  END
>  <MODEL>
1

>  <REMARK>
 VINA RESULT:     -11.1      0.000      0.000
  Name = 
  4 active torsions:
  status: ('A' for Active; 'I' for Inactive)
    1  A    between atoms: C_3  and  C_25
    2  A    between atoms: C_7  and  C_11
    3  A    between atoms: C_8  and  O_18
    4  A    between atoms: O_18  and  C_30
                            x       y       z     vdW  Elec       q    Type
                         _______ _______ _______ _____ _____    ______ ____

>  <TORSDO>
F 4

$$$$
=
 OpenBabel10272415273D

 34 38  0  0  1  0  0  0  0  0999 V2000
  188.4560  177.6390  144.7130 C   0  0  0  0  0  0  0  0  0  0  0  0
  191.7260  177.1390  143.0900 C   0  0  0  0  0  3  0  0  0  0  0  0
  191.0390  176.8320  145.2440 N   0  0  0  0  0  2  0  0  0  0  0  0
  186.2270  178.2750  145.5030 C   0  0  0  0  0  0  0  0  0  0  0  0
  187.1370  178.0600  144.4670 C   0  0  0  0  0  3  0  0  0  0  0  0
  187.9340  177.6380  147.1060 C   0  0  0  0  0  0  0  0  0  0  0  0
  188.2840  177.4430  148.4740 N   0  0  0  0  0  1  0  0  0  0  0  0
  186.6380  178.0660  146.8170 C   0  0  0  0  0  3  0  0  0  0  0  0
  190.1760  176.9560  146.2810 C   0  0  0  0  0  0  0  0  0  0  0  0
  188.8640  177.4150  146.0550 C   0  0  0  0  0  0  0  0  0  0  0  0
  190.5840  176.6760  147.4400 O   0  0  0  0  0  0  0  0  0  0  0  0
  191.6820  177.6940  141.7080 C   0  0  0  0  0  2  0  0  0  0  0  0
  190.7370  176.9620  140.8250 C   0  0  0  0  0  0  0  0  0  0  0  0
  189.4440  176.8980  141.1260 C   0  0  0  0  0  3  0  0  0  0  0  0
  190.7050  177.0930  143.9550 C   0  0  0  0  0  0  0  0  0  0  0  0
  188.8230  177.3240  142.3930 C   0  0  0  0  0  3  0  0  0  0  0  0
  189.3510  177.4030  143.6370 C   0  0  0  0  0  0  0  0  0  0  0  0
  191.2180  176.4530  139.5300 C   0  0  0  0  0  0  0  0  0  0  0  0
  192.4640  176.8390  139.0490 O   0  0  0  0  0  1  0  0  0  0  0  0
  190.5120  175.6620  138.8470 O   0  0  0  0  0  0  0  0  0  0  0  0
  184.9120  178.7020  145.2650 O   0  0  0  0  0  0  0  0  0  0  0  0
  182.3520  178.5660  143.0680 C   0  0  0  0  0  2  0  0  0  0  0  0
  185.1450  179.0410  142.8350 C   0  0  0  0  0  2  0  0  0  0  0  0
  182.8890  179.1080  139.2870 C   0  0  0  0  0  0  0  0  0  0  0  0
  182.1580  178.8760  140.5880 C   0  0  0  0  0  2  0  0  0  0  0  0
  183.1070  178.5080  141.7290 C   0  0  1  0  0  3  0  0  0  0  0  0
  185.0530  179.0330  140.4960 C   0  0  0  0  0  2  0  0  0  0  0  0
  184.2960  179.3780  141.6970 N   0  0  2  0  0  0  0  0  0  0  0  0
  184.2220  179.2440  139.2630 C   0  0  0  0  0  3  0  0  0  0  0  0
  184.4780  179.4790  144.1440 C   0  0  1  0  0  3  0  0  0  0  0  0
  182.9490  179.5730  144.0550 C   0  0  0  0  0  2  0  0  0  0  0  0
  182.1060  179.2960  138.0530 C   0  0  0  0  0  0  0  0  0  0  0  0
  182.0990  178.4110  137.1560 O   0  0  0  0  0  0  0  0  0  0  0  0
  181.3620  180.4540  137.8710 O   0  0  0  0  0  1  0  0  0  0  0  0
  1 10  1  0  0  0  0
  2 15  2  0  0  0  0
  3  9  1  0  0  0  0
  4  8  2  0  0  0  0
  5  1  2  0  0  0  0
  5  4  1  0  0  0  0
  6  7  1  0  0  0  0
  8  6  1  0  0  0  0
  9 11  2  0  0  0  0
 10  9  1  0  0  0  0
 10  6  2  0  0  0  0
 12  2  1  0  0  0  0
 13 14  2  0  0  0  0
 13 12  1  0  0  0  0
 14 16  1  0  0  0  0
 15  3  1  0  0  0  0
 16 17  2  0  0  0  0
 17 15  1  0  0  0  0
 17  1  1  0  0  0  0
 18 13  1  0  0  0  0
 19 18  1  0  0  0  0
 20 18  2  0  0  0  0
 21  4  1  0  0  0  0
 22 31  1  0  0  0  0
 23 30  1  0  0  0  0
 24 25  1  0  0  0  0
 26 25  1  6  0  0  0
 26 22  1  0  0  0  0
 28 27  1  6  0  0  0
 28 26  1  0  0  0  0
 28 23  1  0  0  0  0
 29 24  2  0  0  0  0
 29 27  1  0  0  0  0
 30 21  1  1  0  0  0
 31 30  1  0  0  0  0
 32 24  1  0  0  0  0
 33 32  2  0  0  0  0
 34 32  1  0  0  0  0
M  END
>  <MODEL>
2

>  <REMARK>
 VINA RESULT:     -10.4      2.807      6.959
  Name = 
  4 active torsions:
  status: ('A' for Active; 'I' for Inactive)
    1  A    between atoms: C_3  and  C_25
    2  A    between atoms: C_7  and  C_11
    3  A    between atoms: C_8  and  O_18
    4  A    between atoms: O_18  and  C_30
                            x       y       z     vdW  Elec       q    Type
                         _______ _______ _______ _____ _____    ______ ____

>  <TORSDO>
F 4

$$$$
=
 OpenBabel10272415273D

 34 38  0  0  1  0  0  0  0  0999 V2000
  188.0790  177.8000  144.6260 C   0  0  0  0  0  0  0  0  0  0  0  0
  189.2100  177.7940  148.1320 C   0  0  0  0  0  3  0  0  0  0  0  0
  187.1230  177.8230  147.2120 N   0  0  0  0  0  2  0  0  0  0  0  0
  187.6870  178.0080  142.2170 C   0  0  0  0  0  0  0  0  0  0  0  0
  188.5440  177.8010  143.2990 C   0  0  0  0  0  3  0  0  0  0  0  0
  185.8250  178.2140  143.7600 C   0  0  0  0  0  0  0  0  0  0  0  0
  184.4270  178.4340  143.9330 N   0  0  0  0  0  1  0  0  0  0  0  0
  186.3330  178.2180  142.4600 C   0  0  0  0  0  3  0  0  0  0  0  0
  186.2360  177.9580  146.1960 C   0  0  0  0  0  0  0  0  0  0  0  0
  186.6930  178.0020  144.8650 C   0  0  0  0  0  0  0  0  0  0  0  0
  185.0130  178.0650  146.4760 O   0  0  0  0  0  0  0  0  0  0  0  0
  190.6880  177.9860  148.1750 C   0  0  0  0  0  2  0  0  0  0  0  0
  191.4320  176.8550  147.5650 C   0  0  0  0  0  0  0  0  0  0  0  0
  191.2450  176.5330  146.2880 C   0  0  0  0  0  3  0  0  0  0  0  0
  188.4610  177.6870  147.0280 C   0  0  0  0  0  0  0  0  0  0  0  0
  190.1940  177.0650  145.4020 C   0  0  0  0  0  3  0  0  0  0  0  0
  188.9700  177.5600  145.7040 C   0  0  0  0  0  0  0  0  0  0  0  0
  192.5020  176.2020  148.3390 C   0  0  0  0  0  0  0  0  0  0  0  0
  193.2270  176.9310  149.2750 O   0  0  0  0  0  1  0  0  0  0  0  0
  192.7680  174.9820  148.1670 O   0  0  0  0  0  0  0  0  0  0  0  0
  188.1470  178.0180  140.8920 O   0  0  0  0  0  0  0  0  0  0  0  0
  191.4190  177.3620  140.3760 C   0  0  0  0  0  2  0  0  0  0  0  0
  189.0850  177.2150  138.7590 C   0  0  0  0  0  2  0  0  0  0  0  0
  192.7280  176.1180  136.9670 C   0  0  0  0  0  0  0  0  0  0  0  0
  192.7460  176.5200  138.4230 C   0  0  0  0  0  2  0  0  0  0  0  0
  191.4630  177.2370  138.8440 C   0  0  1  0  0  3  0  0  0  0  0  0
  190.3270  176.7230  136.8360 C   0  0  0  0  0  2  0  0  0  0  0  0
  190.2900  176.5410  138.2860 N   0  0  2  0  0  0  0  0  0  0  0  0
  191.5910  176.1550  136.2590 C   0  0  0  0  0  3  0  0  0  0  0  0
  188.8990  176.9760  140.2620 C   0  0  1  0  0  3  0  0  0  0  0  0
  190.2070  176.6680  141.0040 C   0  0  0  0  0  2  0  0  0  0  0  0
  193.9570  175.5780  136.3620 C   0  0  0  0  0  0  0  0  0  0  0  0
  194.9350  176.3330  136.1100 O   0  0  0  0  0  1  0  0  0  0  0  0
  194.0520  174.2240  136.0670 O   0  0  0  0  0  0  0  0  0  0  0  0
  1 10  1  0  0  0  0
  1 17  1  0  0  0  0
  2 12  1  0  0  0  0
  4  8  2  0  0  0  0
  4  5  1  0  0  0  0
  5  1  2  0  0  0  0
  6  7  1  0  0  0  0
  6 10  2  0  0  0  0
  8  6  1  0  0  0  0
  9 11  2  0  0  0  0
  9  3  1  0  0  0  0
 10  9  1  0  0  0  0
 13 12  1  0  0  0  0
 13 18  1  0  0  0  0
 14 13  2  0  0  0  0
 15  3  1  0  0  0  0
 15  2  2  0  0  0  0
 16 17  2  0  0  0  0
 16 14  1  0  0  0  0
 17 15  1  0  0  0  0
 18 19  1  0  0  0  0
 20 18  2  0  0  0  0
 21  4  1  0  0  0  0
 22 31  1  0  0  0  0
 23 30  1  0  0  0  0
 24 25  1  0  0  0  0
 26 25  1  1  0  0  0
 26 22  1  0  0  0  0
 28 27  1  6  0  0  0
 28 23  1  0  0  0  0
 28 26  1  0  0  0  0
 29 27  1  0  0  0  0
 29 24  2  0  0  0  0
 30 21  1  1  0  0  0
 30 31  1  0  0  0  0
 32 24  1  0  0  0  0
 33 32  1  0  0  0  0
 34 32  2  0  0  0  0
M  END
>  <MODEL>
3

>  <REMARK>
 VINA RESULT:     -10.3      1.135      1.790
  Name = 
  4 active torsions:
  status: ('A' for Active; 'I' for Inactive)
    1  A    between atoms: C_3  and  C_25
    2  A    between atoms: C_7  and  C_11
    3  A    between atoms: C_8  and  O_18
    4  A    between atoms: O_18  and  C_30
                            x       y       z     vdW  Elec       q    Type
                         _______ _______ _______ _____ _____    ______ ____

>  <TORSDO>
F 4

$$$$
=
 OpenBabel10272415273D

 34 38  0  0  1  0  0  0  0  0999 V2000
  183.8800  178.5300  141.4030 C   0  0  0  0  0  0  0  0  0  0  0  0
  183.4490  177.7120  137.8360 C   0  0  0  0  0  3  0  0  0  0  0  0
  181.9900  178.5150  139.3940 N   0  0  0  0  0  2  0  0  0  0  0  0
  184.4580  178.7690  143.7710 C   0  0  0  0  0  0  0  0  0  0  0  0
  184.8240  178.5330  142.4450 C   0  0  0  0  0  3  0  0  0  0  0  0
  182.1500  179.0250  143.0650 C   0  0  0  0  0  0  0  0  0  0  0  0
  180.7990  179.2780  143.4440 N   0  0  0  0  0  1  0  0  0  0  0  0
  183.1200  179.0080  144.0690 C   0  0  0  0  0  3  0  0  0  0  0  0
  181.5910  178.8200  140.6530 C   0  0  0  0  0  0  0  0  0  0  0  0
  182.5180  178.7880  141.7130 C   0  0  0  0  0  0  0  0  0  0  0  0
  180.3800  179.1060  140.8470 O   0  0  0  0  0  0  0  0  0  0  0  0
  184.6710  177.0200  137.3370 C   0  0  0  0  0  2  0  0  0  0  0  0
  185.8730  177.8940  137.3530 C   0  0  0  0  0  0  0  0  0  0  0  0
  186.3130  178.4160  138.4940 C   0  0  0  0  0  3  0  0  0  0  0  0
  183.2700  178.2050  139.0670 C   0  0  0  0  0  0  0  0  0  0  0  0
  185.6100  178.3910  139.7900 C   0  0  0  0  0  3  0  0  0  0  0  0
  184.2860  178.3140  140.0600 C   0  0  0  0  0  0  0  0  0  0  0  0
  186.6690  178.0380  136.1220 C   0  0  0  0  0  0  0  0  0  0  0  0
  186.1250  177.6760  134.8950 O   0  0  0  0  0  0  0  0  0  0  0  0
  187.8430  178.4940  136.1650 O   0  0  0  0  0  1  0  0  0  0  0  0
  185.3950  178.7660  144.8150 O   0  0  0  0  0  0  0  0  0  0  0  0
  187.4980  178.0290  147.3520 C   0  0  0  0  0  2  0  0  0  0  0  0
  187.6810  177.8960  144.5180 C   0  0  0  0  0  2  0  0  0  0  0  0
  191.0570  176.6840  146.7140 C   0  0  0  0  0  0  0  0  0  0  0  0
  189.8290  177.1170  147.4810 C   0  0  0  0  0  2  0  0  0  0  0  0
  188.8310  177.8700  146.6010 C   0  0  1  0  0  3  0  0  0  0  0  0
  189.9530  177.3370  144.5910 C   0  0  0  0  0  2  0  0  0  0  0  0
  188.6860  177.1870  145.3040 N   0  0  2  0  0  0  0  0  0  0  0  0
  191.0810  176.7290  145.3760 C   0  0  0  0  0  3  0  0  0  0  0  0
  186.2900  177.6950  145.1290 C   0  0  1  0  0  3  0  0  0  0  0  0
  186.3160  177.3760  146.6300 C   0  0  0  0  0  2  0  0  0  0  0  0
  192.1910  176.1060  147.4540 C   0  0  0  0  0  0  0  0  0  0  0  0
  192.7420  175.0430  147.0580 O   0  0  0  0  0  0  0  0  0  0  0  0
  192.6690  176.7320  148.5980 O   0  0  0  0  0  1  0  0  0  0  0  0
  1 10  2  0  0  0  0
  1  5  1  0  0  0  0
  2 15  2  0  0  0  0
  3  9  1  0  0  0  0
  4  8  1  0  0  0  0
  4 21  1  0  0  0  0
  5  4  2  0  0  0  0
  6  7  1  0  0  0  0
  6  8  2  0  0  0  0
  9 11  2  0  0  0  0
  9 10  1  0  0  0  0
 10  6  1  0  0  0  0
 12 13  1  0  0  0  0
 12  2  1  0  0  0  0
 13 14  2  0  0  0  0
 14 16  1  0  0  0  0
 15  3  1  0  0  0  0
 15 17  1  0  0  0  0
 16 17  2  0  0  0  0
 17  1  1  0  0  0  0
 18 20  1  0  0  0  0
 18 13  1  0  0  0  0
 19 18  2  0  0  0  0
 23 30  1  0  0  0  0
 24 32  1  0  0  0  0
 24 25  1  0  0  0  0
 26 22  1  1  0  0  0
 26 25  1  0  0  0  0
 27 28  1  0  0  0  0
 27 29  1  0  0  0  0
 28 23  1  6  0  0  0
 28 26  1  0  0  0  0
 29 24  2  0  0  0  0
 30 21  1  1  0  0  0
 30 31  1  0  0  0  0
 31 22  1  0  0  0  0
 32 34  1  0  0  0  0
 33 32  2  0  0  0  0
M  END
>  <MODEL>
4

>  <REMARK>
 VINA RESULT:     -10.3      3.403      8.170
  Name = 
  4 active torsions:
  status: ('A' for Active; 'I' for Inactive)
    1  A    between atoms: C_3  and  C_25
    2  A    between atoms: C_7  and  C_11
    3  A    between atoms: C_8  and  O_18
    4  A    between atoms: O_18  and  C_30
                            x       y       z     vdW  Elec       q    Type
                         _______ _______ _______ _____ _____    ______ ____

>  <TORSDO>
F 4

$$$$
=
 OpenBabel10272415273D

 34 38  0  0  1  0  0  0  0  0999 V2000
  184.6610  178.4690  142.8810 C   0  0  0  0  0  0  0  0  0  0  0  0
  185.1920  178.8220  146.5090 C   0  0  0  0  0  3  0  0  0  0  0  0
  183.2880  178.7590  145.2550 N   0  0  0  0  0  2  0  0  0  0  0  0
  184.6800  178.4280  140.4320 C   0  0  0  0  0  0  0  0  0  0  0  0
  185.3410  178.3330  141.6570 C   0  0  0  0  0  3  0  0  0  0  0  0
  182.5910  178.7930  141.6120 C   0  0  0  0  0  0  0  0  0  0  0  0
  181.1880  179.0310  141.5250 N   0  0  0  0  0  1  0  0  0  0  0  0
  183.3080  178.6630  140.4220 C   0  0  0  0  0  3  0  0  0  0  0  0
  182.5860  178.7880  144.0960 C   0  0  0  0  0  0  0  0  0  0  0  0
  183.2590  178.6950  142.8630 C   0  0  0  0  0  0  0  0  0  0  0  0
  181.3350  178.9250  144.1550 O   0  0  0  0  0  0  0  0  0  0  0  0
  186.6450  179.0170  146.7800 C   0  0  0  0  0  2  0  0  0  0  0  0
  187.4600  177.8290  146.4210 C   0  0  0  0  0  0  0  0  0  0  0  0
  187.4820  177.3770  145.1700 C   0  0  0  0  0  3  0  0  0  0  0  0
  184.6350  178.6030  145.3130 C   0  0  0  0  0  0  0  0  0  0  0  0
  186.6030  177.8160  144.0710 C   0  0  0  0  0  3  0  0  0  0  0  0
  185.3560  178.3400  144.1120 C   0  0  0  0  0  0  0  0  0  0  0  0
  188.3740  177.2580  147.4250 C   0  0  0  0  0  0  0  0  0  0  0  0
  189.5420  176.6220  147.0210 O   0  0  0  0  0  0  0  0  0  0  0  0
  188.1120  177.3420  148.6550 O   0  0  0  0  0  1  0  0  0  0  0  0
  185.3550  178.3020  139.2090 O   0  0  0  0  0  0  0  0  0  0  0  0
  187.9270  177.0410  137.4220 C   0  0  0  0  0  2  0  0  0  0  0  0
  187.6700  178.1320  140.0350 C   0  0  0  0  0  2  0  0  0  0  0  0
  191.4970  176.8340  138.8690 C   0  0  0  0  0  0  0  0  0  0  0  0
  190.3740  176.7250  137.8640 C   0  0  0  0  0  2  0  0  0  0  0  0
  188.9970  176.8730  138.5140 C   0  0  1  0  0  3  0  0  0  0  0  0
  189.8740  177.5750  140.5930 C   0  0  0  0  0  2  0  0  0  0  0  0
  189.0140  177.9820  139.4840 N   0  0  2  0  0  0  0  0  0  0  0  0
  191.2670  177.2890  140.1090 C   0  0  0  0  0  3  0  0  0  0  0  0
  186.7150  178.6730  138.9650 C   0  0  1  0  0  3  0  0  0  0  0  0
  187.1570  178.3600  137.5280 C   0  0  0  0  0  2  0  0  0  0  0  0
  192.8720  176.5380  138.4350 C   0  0  0  0  0  0  0  0  0  0  0  0
  193.8570  176.8670  139.1510 O   0  0  0  0  0  1  0  0  0  0  0  0
  193.0970  175.8860  137.2290 O   0  0  0  0  0  0  0  0  0  0  0  0
  1 17  1  0  0  0  0
  2 12  1  0  0  0  0
  3 15  1  0  0  0  0
  4  5  1  0  0  0  0
  5  1  2  0  0  0  0
  6 10  2  0  0  0  0
  7  6  1  0  0  0  0
  8  4  2  0  0  0  0
  8  6  1  0  0  0  0
  9 11  2  0  0  0  0
  9  3  1  0  0  0  0
 10  1  1  0  0  0  0
 10  9  1  0  0  0  0
 13 12  1  0  0  0  0
 13 18  1  0  0  0  0
 14 13  2  0  0  0  0
 15  2  2  0  0  0  0
 16 17  2  0  0  0  0
 16 14  1  0  0  0  0
 17 15  1  0  0  0  0
 18 20  1  0  0  0  0
 19 18  2  0  0  0  0
 21  4  1  0  0  0  0
 22 31  1  0  0  0  0
 24 29  2  0  0  0  0
 25 26  1  0  0  0  0
 25 24  1  0  0  0  0
 26 22  1  6  0  0  0
 26 28  1  0  0  0  0
 28 23  1  1  0  0  0
 28 27  1  0  0  0  0
 29 27  1  0  0  0  0
 30 21  1  1  0  0  0
 30 23  1  0  0  0  0
 31 30  1  0  0  0  0
 32 24  1  0  0  0  0
 32 33  1  0  0  0  0
 34 32  2  0  0  0  0
M  END
>  <MODEL>
5

>  <REMARK>
 VINA RESULT:     -10.3      1.927      2.969
  Name = 
  4 active torsions:
  status: ('A' for Active; 'I' for Inactive)
    1  A    between atoms: C_3  and  C_25
    2  A    between atoms: C_7  and  C_11
    3  A    between atoms: C_8  and  O_18
    4  A    between atoms: O_18  and  C_30
                            x       y       z     vdW  Elec       q    Type
                         _______ _______ _______ _____ _____    ______ ____

>  <TORSDO>
F 4

$$$$
=
 OpenBabel10272415273D

 34 38  0  0  1  0  0  0  0  0999 V2000
  185.1210  178.6130  142.7810 C   0  0  0  0  0  0  0  0  0  0  0  0
  185.0650  178.7300  146.4630 C   0  0  0  0  0  3  0  0  0  0  0  0
  183.3840  178.6570  144.9220 N   0  0  0  0  0  2  0  0  0  0  0  0
  185.5190  178.7520  140.3680 C   0  0  0  0  0  0  0  0  0  0  0  0
  185.9890  178.6030  141.6740 C   0  0  0  0  0  3  0  0  0  0  0  0
  183.2550  178.9190  141.2250 C   0  0  0  0  0  0  0  0  0  0  0  0
  181.8700  179.0890  140.9330 N   0  0  0  0  0  1  0  0  0  0  0  0
  184.1530  178.9140  140.1570 C   0  0  0  0  0  3  0  0  0  0  0  0
  182.8680  178.7330  143.6720 C   0  0  0  0  0  0  0  0  0  0  0  0
  183.7270  178.7660  142.5560 C   0  0  0  0  0  0  0  0  0  0  0  0
  181.6170  178.7990  143.5400 O   0  0  0  0  0  0  0  0  0  0  0  0
  186.4430  178.9800  146.9710 C   0  0  0  0  0  2  0  0  0  0  0  0
  187.3780  177.8660  146.6700 C   0  0  0  0  0  0  0  0  0  0  0  0
  187.6210  177.5090  145.4130 C   0  0  0  0  0  3  0  0  0  0  0  0
  184.7130  178.5690  145.1820 C   0  0  0  0  0  0  0  0  0  0  0  0
  186.8950  177.9800  144.2190 C   0  0  0  0  0  3  0  0  0  0  0  0
  185.6250  178.4320  144.0960 C   0  0  0  0  0  0  0  0  0  0  0  0
  188.1610  177.2730  147.7680 C   0  0  0  0  0  0  0  0  0  0  0  0
  189.2870  176.5080  147.4860 O   0  0  0  0  0  0  0  0  0  0  0  0
  187.8250  177.4540  148.9690 O   0  0  0  0  0  1  0  0  0  0  0  0
  186.3810  178.7510  139.2610 O   0  0  0  0  0  0  0  0  0  0  0  0
  189.6180  177.9320  138.7590 C   0  0  0  0  0  2  0  0  0  0  0  0
  187.2380  177.6500  137.2300 C   0  0  0  0  0  2  0  0  0  0  0  0
  190.7990  176.2200  135.5100 C   0  0  0  0  0  0  0  0  0  0  0  0
  190.8680  176.8050  136.9010 C   0  0  0  0  0  2  0  0  0  0  0  0
  189.6160  177.6100  137.2550 C   0  0  1  0  0  3  0  0  0  0  0  0
  188.4120  176.8770  135.3580 C   0  0  0  0  0  2  0  0  0  0  0  0
  188.4100  176.8840  136.8190 N   0  0  2  0  0  0  0  0  0  0  0  0
  189.6440  176.2000  134.8300 C   0  0  0  0  0  3  0  0  0  0  0  0
  187.0860  177.6130  138.7550 C   0  0  1  0  0  3  0  0  0  0  0  0
  188.4050  177.3630  139.4990 C   0  0  0  0  0  2  0  0  0  0  0  0
  191.9950  175.5690  134.9510 C   0  0  0  0  0  0  0  0  0  0  0  0
  193.1230  176.1290  135.0190 O   0  0  0  0  0  1  0  0  0  0  0  0
  191.8910  174.3220  134.3460 O   0  0  0  0  0  0  0  0  0  0  0  0
  1 17  1  0  0  0  0
  2 12  1  0  0  0  0
  3 15  1  0  0  0  0
  4  5  1  0  0  0  0
  5  1  2  0  0  0  0
  6 10  2  0  0  0  0
  7  6  1  0  0  0  0
  8  4  2  0  0  0  0
  8  6  1  0  0  0  0
  9  3  1  0  0  0  0
 10  1  1  0  0  0  0
 10  9  1  0  0  0  0
 11  9  2  0  0  0  0
 13 12  1  0  0  0  0
 13 18  1  0  0  0  0
 14 13  2  0  0  0  0
 15  2  2  0  0  0  0
 16 14  1  0  0  0  0
 17 16  2  0  0  0  0
 17 15  1  0  0  0  0
 18 20  1  0  0  0  0
 19 18  2  0  0  0  0
 21  4  1  0  0  0  0
 22 31  1  0  0  0  0
 23 30  1  0  0  0  0
 24 25  1  0  0  0  0
 26 25  1  1  0  0  0
 26 22  1  0  0  0  0
 28 27  1  6  0  0  0
 28 23  1  0  0  0  0
 28 26  1  0  0  0  0
 29 27  1  0  0  0  0
 29 24  2  0  0  0  0
 30 21  1  1  0  0  0
 30 31  1  0  0  0  0
 32 33  1  0  0  0  0
 32 24  1  0  0  0  0
 34 32  2  0  0  0  0
M  END
>  <MODEL>
6

>  <REMARK>
 VINA RESULT:     -10.2      2.366      3.614
  Name = 
  4 active torsions:
  status: ('A' for Active; 'I' for Inactive)
    1  A    between atoms: C_3  and  C_25
    2  A    between atoms: C_7  and  C_11
    3  A    between atoms: C_8  and  O_18
    4  A    between atoms: O_18  and  C_30
                            x       y       z     vdW  Elec       q    Type
                         _______ _______ _______ _____ _____    ______ ____

>  <TORSDO>
F 4

$$$$
=
 OpenBabel10272415273D

 34 38  0  0  1  0  0  0  0  0999 V2000
  188.3100  177.8180  141.0260 C   0  0  0  0  0  0  0  0  0  0  0  0
  187.9820  177.3430  144.6650 C   0  0  0  0  0  3  0  0  0  0  0  0
  189.8120  177.4410  143.3070 N   0  0  0  0  0  2  0  0  0  0  0  0
  188.1530  177.9430  138.5850 C   0  0  0  0  0  0  0  0  0  0  0  0
  187.5630  177.9990  139.8480 C   0  0  0  0  0  3  0  0  0  0  0  0
  190.3030  177.5280  139.6320 C   0  0  0  0  0  0  0  0  0  0  0  0
  191.6970  177.2860  139.4570 N   0  0  0  0  0  1  0  0  0  0  0  0
  189.5210  177.7020  138.4890 C   0  0  0  0  0  3  0  0  0  0  0  0
  190.4480  177.4480  142.1100 C   0  0  0  0  0  0  0  0  0  0  0  0
  189.7070  177.5860  140.9210 C   0  0  0  0  0  0  0  0  0  0  0  0
  191.6990  177.3030  142.0930 O   0  0  0  0  0  0  0  0  0  0  0  0
  186.5450  177.1470  145.0100 C   0  0  0  0  0  2  0  0  0  0  0  0
  185.7190  178.3500  144.7380 C   0  0  0  0  0  0  0  0  0  0  0  0
  185.6300  178.8450  143.5070 C   0  0  0  0  0  3  0  0  0  0  0  0
  188.4720  177.6010  143.4460 C   0  0  0  0  0  0  0  0  0  0  0  0
  186.4420  178.4390  142.3460 C   0  0  0  0  0  3  0  0  0  0  0  0
  187.6860  177.9090  142.2980 C   0  0  0  0  0  0  0  0  0  0  0  0
  184.8670  178.8910  145.8120 C   0  0  0  0  0  0  0  0  0  0  0  0
  185.3990  179.1100  147.0770 O   0  0  0  0  0  1  0  0  0  0  0  0
  183.6560  179.1630  145.5970 O   0  0  0  0  0  0  0  0  0  0  0  0
  187.4110  178.1140  137.4070 O   0  0  0  0  0  0  0  0  0  0  0  0
  184.3990  176.5900  137.3460 C   0  0  0  0  0  2  0  0  0  0  0  0
  187.0880  175.6780  137.2260 C   0  0  0  0  0  2  0  0  0  0  0  0
  184.0670  172.7570  137.0720 C   0  0  0  0  0  0  0  0  0  0  0  0
  183.6490  174.2060  137.1460 C   0  0  0  0  0  2  0  0  0  0  0  0
  184.8010  175.1220  137.5660 C   0  0  1  0  0  3  0  0  0  0  0  0
  186.4380  173.4320  137.3450 C   0  0  0  0  0  2  0  0  0  0  0  0
  186.0310  174.7450  136.8490 N   0  0  2  0  0  0  0  0  0  0  0  0
  185.3620  172.4130  137.1000 C   0  0  0  0  0  3  0  0  0  0  0  0
  186.8050  177.0670  136.6430 C   0  0  1  0  0  3  0  0  0  0  0  0
  185.3170  177.3280  136.3690 C   0  0  0  0  0  2  0  0  0  0  0  0
  183.0360  171.7280  136.8560 C   0  0  0  0  0  0  0  0  0  0  0  0
  183.3590  170.5430  136.5760 O   0  0  0  0  0  0  0  0  0  0  0  0
  181.6900  172.0580  136.9640 O   0  0  0  0  0  1  0  0  0  0  0  0
  1 17  1  0  0  0  0
  2 12  1  0  0  0  0
  3 15  1  0  0  0  0
  4  5  1  0  0  0  0
  5  1  2  0  0  0  0
  6 10  2  0  0  0  0
  7  6  1  0  0  0  0
  8  4  2  0  0  0  0
  8  6  1  0  0  0  0
  9  3  1  0  0  0  0
 10  1  1  0  0  0  0
 10  9  1  0  0  0  0
 11  9  2  0  0  0  0
 13 12  1  0  0  0  0
 13 18  1  0  0  0  0
 14 13  2  0  0  0  0
 15  2  2  0  0  0  0
 16 14  1  0  0  0  0
 17 16  2  0  0  0  0
 17 15  1  0  0  0  0
 18 19  1  0  0  0  0
 20 18  2  0  0  0  0
 21  4  1  0  0  0  0
 22 26  1  0  0  0  0
 24 29  2  0  0  0  0
 24 25  1  0  0  0  0
 26 25  1  6  0  0  0
 28 23  1  1  0  0  0
 28 27  1  0  0  0  0
 28 26  1  0  0  0  0
 29 27  1  0  0  0  0
 30 23  1  0  0  0  0
 30 21  1  1  0  0  0
 31 30  1  0  0  0  0
 31 22  1  0  0  0  0
 32 34  1  0  0  0  0
 32 24  1  0  0  0  0
 33 32  2  0  0  0  0
M  END
>  <MODEL>
7

>  <REMARK>
 VINA RESULT:     -10.0      3.876      6.979
  Name = 
  4 active torsions:
  status: ('A' for Active; 'I' for Inactive)
    1  A    between atoms: C_3  and  C_25
    2  A    between atoms: C_7  and  C_11
    3  A    between atoms: C_8  and  O_18
    4  A    between atoms: O_18  and  C_30
                            x       y       z     vdW  Elec       q    Type
                         _______ _______ _______ _____ _____    ______ ____

>  <TORSDO>
F 4

$$$$
=
 OpenBabel10272415273D

 34 38  0  0  1  0  0  0  0  0999 V2000
  185.7750  178.3210  143.4330 C   0  0  0  0  0  0  0  0  0  0  0  0
  182.3700  178.5460  142.0440 C   0  0  0  0  0  3  0  0  0  0  0  0
  183.1570  178.7690  144.1730 N   0  0  0  0  0  2  0  0  0  0  0  0
  188.1100  177.9000  144.0410 C   0  0  0  0  0  0  0  0  0  0  0  0
  187.1150  178.0820  143.0790 C   0  0  0  0  0  3  0  0  0  0  0  0
  186.4490  178.2020  145.7850 C   0  0  0  0  0  0  0  0  0  0  0  0
  186.1690  178.2490  147.1820 N   0  0  0  0  0  1  0  0  0  0  0  0
  187.7650  177.9570  145.3890 C   0  0  0  0  0  3  0  0  0  0  0  0
  184.0940  178.6700  145.1470 C   0  0  0  0  0  0  0  0  0  0  0  0
  185.4330  178.3910  144.8100 C   0  0  0  0  0  0  0  0  0  0  0  0
  183.7330  178.8100  146.3460 O   0  0  0  0  0  0  0  0  0  0  0  0
  182.3870  178.1080  140.6190 C   0  0  0  0  0  2  0  0  0  0  0  0
  183.1810  179.0130  139.7490 C   0  0  0  0  0  0  0  0  0  0  0  0
  184.4760  179.2090  139.9810 C   0  0  0  0  0  3  0  0  0  0  0  0
  183.4330  178.6490  142.8500 C   0  0  0  0  0  0  0  0  0  0  0  0
  185.2230  178.7660  141.1720 C   0  0  0  0  0  3  0  0  0  0  0  0
  184.7900  178.5290  142.4320 C   0  0  0  0  0  0  0  0  0  0  0  0
  182.5610  179.5580  138.5300 C   0  0  0  0  0  0  0  0  0  0  0  0
  182.2750  180.9160  138.4420 O   0  0  0  0  0  1  0  0  0  0  0  0
  182.2880  178.8070  137.5550 O   0  0  0  0  0  0  0  0  0  0  0  0
  189.4470  177.6540  143.6940 O   0  0  0  0  0  0  0  0  0  0  0  0
  192.2310  177.2880  141.8210 C   0  0  0  0  0  2  0  0  0  0  0  0
  189.4430  177.1680  141.2780 C   0  0  0  0  0  2  0  0  0  0  0  0
  192.0520  176.5400  138.0410 C   0  0  0  0  0  0  0  0  0  0  0  0
  192.6580  176.7710  139.4050 C   0  0  0  0  0  2  0  0  0  0  0  0
  191.6470  177.3440  140.3990 C   0  0  1  0  0  3  0  0  0  0  0  0
  189.7980  176.9880  138.9720 C   0  0  0  0  0  2  0  0  0  0  0  0
  190.3600  176.6370  140.2740 N   0  0  2  0  0  0  0  0  0  0  0  0
  190.7250  176.5790  137.8630 C   0  0  0  0  0  3  0  0  0  0  0  0
  189.8920  176.7450  142.6820 C   0  0  1  0  0  3  0  0  0  0  0  0
  191.3940  176.4450  142.7850 C   0  0  0  0  0  2  0  0  0  0  0  0
  192.9350  176.1590  136.9250 C   0  0  0  0  0  0  0  0  0  0  0  0
  194.0600  176.7090  136.7800 O   0  0  0  0  0  1  0  0  0  0  0  0
  192.5340  175.1830  136.0220 O   0  0  0  0  0  0  0  0  0  0  0  0
  1 10  1  0  0  0  0
  2 15  2  0  0  0  0
  3  9  1  0  0  0  0
  4  8  2  0  0  0  0
  5  1  2  0  0  0  0
  5  4  1  0  0  0  0
  6  7  1  0  0  0  0
  8  6  1  0  0  0  0
  9 11  2  0  0  0  0
 10  9  1  0  0  0  0
 10  6  2  0  0  0  0
 12  2  1  0  0  0  0
 13 14  2  0  0  0  0
 13 12  1  0  0  0  0
 14 16  1  0  0  0  0
 15  3  1  0  0  0  0
 16 17  2  0  0  0  0
 17 15  1  0  0  0  0
 17  1  1  0  0  0  0
 18 13  1  0  0  0  0
 19 18  1  0  0  0  0
 20 18  2  0  0  0  0
 21  4  1  0  0  0  0
 22 31  1  0  0  0  0
 23 30  1  0  0  0  0
 24 25  1  0  0  0  0
 26 25  1  6  0  0  0
 26 22  1  0  0  0  0
 28 27  1  6  0  0  0
 28 26  1  0  0  0  0
 28 23  1  0  0  0  0
 29 24  2  0  0  0  0
 29 27  1  0  0  0  0
 30 31  1  0  0  0  0
 30 21  1  1  0  0  0
 32 24  1  0  0  0  0
 33 32  1  0  0  0  0
 34 32  2  0  0  0  0
M  END
>  <MODEL>
8

>  <REMARK>
 VINA RESULT:      -9.9      2.314      6.177
  Name = 
  4 active torsions:
  status: ('A' for Active; 'I' for Inactive)
    1  A    between atoms: C_3  and  C_25
    2  A    between atoms: C_7  and  C_11
    3  A    between atoms: C_8  and  O_18
    4  A    between atoms: O_18  and  C_30
                            x       y       z     vdW  Elec       q    Type
                         _______ _______ _______ _____ _____    ______ ____

>  <TORSDO>
F 4

$$$$
=
 OpenBabel10272415273D

 34 38  0  0  1  0  0  0  0  0999 V2000
  186.0000  178.1150  144.1950 C   0  0  0  0  0  0  0  0  0  0  0  0
  182.3880  178.7860  144.4680 C   0  0  0  0  0  3  0  0  0  0  0  0
  184.0910  179.0140  145.9690 N   0  0  0  0  0  2  0  0  0  0  0  0
  188.2880  177.3700  143.7370 C   0  0  0  0  0  0  0  0  0  0  0  0
  186.9890  177.6460  143.3100 C   0  0  0  0  0  3  0  0  0  0  0  0
  187.6690  178.0380  145.9860 C   0  0  0  0  0  0  0  0  0  0  0  0
  188.0750  178.2150  147.3410 N   0  0  0  0  0  1  0  0  0  0  0  0
  188.6150  177.5650  145.0760 C   0  0  0  0  0  3  0  0  0  0  0  0
  185.3550  178.8300  146.4210 C   0  0  0  0  0  0  0  0  0  0  0  0
  186.3450  178.3230  145.5570 C   0  0  0  0  0  0  0  0  0  0  0  0
  185.6080  179.0990  147.6250 O   0  0  0  0  0  0  0  0  0  0  0  0
  181.6950  178.2630  143.2570 C   0  0  0  0  0  2  0  0  0  0  0  0
  182.0910  178.9770  142.0160 C   0  0  0  0  0  0  0  0  0  0  0  0
  183.3580  178.9810  141.6140 C   0  0  0  0  0  3  0  0  0  0  0  0
  183.7080  178.7710  144.6900 C   0  0  0  0  0  0  0  0  0  0  0  0
  184.5170  178.5000  142.3870 C   0  0  0  0  0  3  0  0  0  0  0  0
  184.6940  178.4130  143.7260 C   0  0  0  0  0  0  0  0  0  0  0  0
  181.0410  179.5360  141.1470 C   0  0  0  0  0  0  0  0  0  0  0  0
  181.0880  179.3230  139.7740 O   0  0  0  0  0  0  0  0  0  0  0  0
  180.0910  180.2060  141.6340 O   0  0  0  0  0  1  0  0  0  0  0  0
  189.2760  176.8960  142.8600 O   0  0  0  0  0  0  0  0  0  0  0  0
  187.7850  177.8840  139.9970 C   0  0  0  0  0  2  0  0  0  0  0  0
  190.2130  176.5380  140.6090 C   0  0  0  0  0  2  0  0  0  0  0  0
  189.3820  177.2350  136.5460 C   0  0  0  0  0  0  0  0  0  0  0  0
  188.3970  177.7490  137.5700 C   0  0  0  0  0  2  0  0  0  0  0  0
  188.6130  177.1220  138.9480 C   0  0  1  0  0  3  0  0  0  0  0  0
  190.6690  176.1240  138.3510 C   0  0  0  0  0  2  0  0  0  0  0  0
  190.0510  177.0820  139.2650 N   0  0  2  0  0  0  0  0  0  0  0  0
  190.4630  176.5390  136.9230 C   0  0  0  0  0  3  0  0  0  0  0  0
  189.6960  177.5360  141.6520 C   0  0  1  0  0  3  0  0  0  0  0  0
  188.6380  178.5050  141.1060 C   0  0  0  0  0  2  0  0  0  0  0  0
  189.1970  177.6040  135.1330 C   0  0  0  0  0  0  0  0  0  0  0  0
  190.1920  177.7810  134.3790 O   0  0  0  0  0  0  0  0  0  0  0  0
  187.9170  177.7560  134.6140 O   0  0  0  0  0  1  0  0  0  0  0  0
  1 10  1  0  0  0  0
  2 15  2  0  0  0  0
  3  9  1  0  0  0  0
  4  8  2  0  0  0  0
  5  4  1  0  0  0  0
  5  1  2  0  0  0  0
  6  7  1  0  0  0  0
  8  6  1  0  0  0  0
  9 11  2  0  0  0  0
 10  6  2  0  0  0  0
 10  9  1  0  0  0  0
 12  2  1  0  0  0  0
 13 12  1  0  0  0  0
 14 13  2  0  0  0  0
 14 16  1  0  0  0  0
 15  3  1  0  0  0  0
 16 17  2  0  0  0  0
 17  1  1  0  0  0  0
 17 15  1  0  0  0  0
 18 20  1  0  0  0  0
 18 13  1  0  0  0  0
 19 18  2  0  0  0  0
 21  4  1  0  0  0  0
 22 31  1  0  0  0  0
 23 30  1  0  0  0  0
 24 29  2  0  0  0  0
 24 25  1  0  0  0  0
 26 25  1  6  0  0  0
 26 28  1  0  0  0  0
 26 22  1  0  0  0  0
 28 27  1  6  0  0  0
 28 23  1  0  0  0  0
 29 27  1  0  0  0  0
 30 21  1  1  0  0  0
 31 30  1  0  0  0  0
 32 24  1  0  0  0  0
 33 32  2  0  0  0  0
 34 32  1  0  0  0  0
M  END
>  <MODEL>
9

>  <REMARK>
 VINA RESULT:      -9.9      2.696      6.147
  Name = 
  4 active torsions:
  status: ('A' for Active; 'I' for Inactive)
    1  A    between atoms: C_3  and  C_25
    2  A    between atoms: C_7  and  C_11
    3  A    between atoms: C_8  and  O_18
    4  A    between atoms: O_18  and  C_30
                            x       y       z     vdW  Elec       q    Type
                         _______ _______ _______ _____ _____    ______ ____

>  <TORSDO>
F 4

$$$$
