=
 OpenBabel10272401003D

 27 31  0  0  1  0  0  0  0  0999 V2000
  187.5120  176.6260  143.0480 C   0  0  0  0  0  2  0  0  0  0  0  0
  189.9240  176.3770  143.6440 C   0  0  0  0  0  0  0  0  0  0  0  0
  189.1520  178.0210  145.2900 N   0  0  0  0  0  2  0  0  0  0  0  0
  192.6750  175.0110  146.3680 O   0  0  0  0  0  0  0  0  0  0  0  0
  192.6820  175.3120  148.6680 O   0  0  0  0  0  0  0  0  0  0  0  0
  190.8960  175.5910  143.2560 N   0  0  0  0  0  0  0  0  0  0  0  0
  191.1710  176.6470  147.2960 C   0  0  1  0  0  3  0  0  0  0  0  0
  186.2920  178.3050  147.6540 C   0  0  0  0  0  3  0  0  0  0  0  0
  191.5620  177.9190  147.8790 N   0  0  0  0  0  1  0  0  0  0  0  0
  185.2060  178.2690  146.7780 C   0  0  0  0  0  3  0  0  0  0  0  0
  191.1680  176.7670  145.7680 C   0  0  1  0  0  3  0  0  0  0  0  0
  188.9220  176.7780  142.6910 N   0  0  0  0  0  0  0  0  0  0  0  0
  192.2420  175.6250  147.5300 C   0  0  0  0  0  0  0  0  0  0  0  0
  191.9560  175.5850  145.3440 C   0  0  0  0  0  0  0  0  0  0  0  0
  186.9140  177.9760  143.4160 C   0  0  0  0  0  2  0  0  0  0  0  0
  189.7840  176.7230  145.1230 C   0  0  2  0  0  3  0  0  0  0  0  0
  187.5950  178.2280  147.1550 C   0  0  0  0  0  3  0  0  0  0  0  0
  191.8590  175.0840  144.1540 N   0  0  0  0  0  0  0  0  0  0  0  0
  185.4200  178.1580  145.4020 C   0  0  0  0  0  3  0  0  0  0  0  0
  186.7220  178.0810  144.8950 C   0  0  0  0  0  0  0  0  0  0  0  0
  187.8160  178.1140  145.7790 C   0  0  0  0  0  0  0  0  0  0  0  0
  189.9770  178.0850  138.7780 C   0  0  0  0  0  3  0  0  0  0  0  0
  189.2840  177.2320  141.3680 C   0  0  0  0  0  0  0  0  0  0  0  0
  188.4160  178.0510  140.6270 C   0  0  0  0  0  3  0  0  0  0  0  0
  188.7610  178.4770  139.3410 C   0  0  0  0  0  3  0  0  0  0  0  0
  190.8480  177.2660  139.5000 C   0  0  0  0  0  3  0  0  0  0  0  0
  190.5030  176.8410  140.7860 C   0  0  0  0  0  3  0  0  0  0  0  0
  1 15  1  0  0  0  0
  3 21  1  0  0  0  0
  4 13  1  0  0  0  0
  6  2  2  0  0  0  0
  6 18  1  0  0  0  0
  7 13  1  0  0  0  0
  7  9  1  1  0  0  0
 10  8  2  0  0  0  0
 11 14  1  6  0  0  0
 11  7  1  0  0  0  0
 12  1  1  0  0  0  0
 12  2  1  0  0  0  0
 13  5  2  0  0  0  0
 14  4  1  0  0  0  0
 15 20  1  0  0  0  0
 16  2  1  6  0  0  0
 16  3  1  0  0  0  0
 16 11  1  0  0  0  0
 17  8  1  0  0  0  0
 18 14  2  0  0  0  0
 19 10  1  0  0  0  0
 20 19  2  0  0  0  0
 20 21  1  0  0  0  0
 21 17  2  0  0  0  0
 22 25  2  0  0  0  0
 22 26  1  0  0  0  0
 23 12  1  0  0  0  0
 24 23  2  0  0  0  0
 25 24  1  0  0  0  0
 26 27  2  0  0  0  0
 27 23  1  0  0  0  0
M  END
>  <MODEL>
1

>  <REMARK>
 VINA RESULT:      -9.5      0.000      0.000
  Name = 
  1 active torsions:
  status: ('A' for Active; 'I' for Inactive)
    1  A    between atoms: C_9  and  N_15
                            x       y       z     vdW  Elec       q    Type
                         _______ _______ _______ _____ _____    ______ ____

>  <TORSDO>
F 1

$$$$
=
 OpenBabel10272401003D

 27 31  0  0  1  0  0  0  0  0999 V2000
  189.1880  178.5500  139.2490 C   0  0  0  0  0  2  0  0  0  0  0  0
  186.8960  178.4510  140.2330 C   0  0  0  0  0  0  0  0  0  0  0  0
  188.1870  177.0670  141.7900 N   0  0  0  0  0  2  0  0  0  0  0  0
  184.4260  179.5430  143.3250 O   0  0  0  0  0  0  0  0  0  0  0  0
  184.8380  179.4020  145.6030 O   0  0  0  0  0  0  0  0  0  0  0  0
  185.7550  179.0440  139.9830 N   0  0  0  0  0  0  0  0  0  0  0  0
  186.3120  178.2350  144.0510 C   0  0  1  0  0  3  0  0  0  0  0  0
  191.3950  177.4050  143.6470 C   0  0  0  0  0  3  0  0  0  0  0  0
  186.2400  176.9600  144.7430 N   0  0  0  0  0  1  0  0  0  0  0  0
  192.3050  177.5540  142.5980 C   0  0  0  0  0  3  0  0  0  0  0  0
  186.0910  178.0130  142.5510 C   0  0  1  0  0  3  0  0  0  0  0  0
  187.7850  178.1510  139.1410 N   0  0  0  0  0  0  0  0  0  0  0  0
  185.1360  179.0870  144.4210 C   0  0  0  0  0  0  0  0  0  0  0  0
  185.0580  179.0230  142.2180 C   0  0  0  0  0  0  0  0  0  0  0  0
  190.0560  177.3420  139.5650 C   0  0  0  0  0  2  0  0  0  0  0  0
  187.3270  178.2340  141.6800 C   0  0  2  0  0  3  0  0  0  0  0  0
  190.0350  177.2390  143.3730 C   0  0  0  0  0  3  0  0  0  0  0  0
  184.8780  179.4510  141.0100 N   0  0  0  0  0  0  0  0  0  0  0  0
  191.8580  177.5360  141.2750 C   0  0  0  0  0  3  0  0  0  0  0  0
  190.4980  177.3700  140.9930 C   0  0  0  0  0  0  0  0  0  0  0  0
  189.5810  177.2220  142.0490 C   0  0  0  0  0  0  0  0  0  0  0  0
  186.3810  176.3970  135.5240 C   0  0  0  0  0  3  0  0  0  0  0  0
  187.2980  177.5570  137.9180 C   0  0  0  0  0  0  0  0  0  0  0  0
  187.0900  176.1700  137.8280 C   0  0  0  0  0  3  0  0  0  0  0  0
  186.6330  175.5930  136.6390 C   0  0  0  0  0  3  0  0  0  0  0  0
  186.5890  177.7760  135.5980 C   0  0  0  0  0  3  0  0  0  0  0  0
  187.0450  178.3510  136.7870 C   0  0  0  0  0  3  0  0  0  0  0  0
  1 15  1  0  0  0  0
  3 21  1  0  0  0  0
  4 13  1  0  0  0  0
  6  2  2  0  0  0  0
  6 18  1  0  0  0  0
  7 13  1  0  0  0  0
  7  9  1  1  0  0  0
 10  8  2  0  0  0  0
 11 14  1  6  0  0  0
 11  7  1  0  0  0  0
 12  1  1  0  0  0  0
 12  2  1  0  0  0  0
 13  5  2  0  0  0  0
 14  4  1  0  0  0  0
 15 20  1  0  0  0  0
 16  2  1  6  0  0  0
 16  3  1  0  0  0  0
 16 11  1  0  0  0  0
 17  8  1  0  0  0  0
 18 14  2  0  0  0  0
 19 10  1  0  0  0  0
 20 19  2  0  0  0  0
 20 21  1  0  0  0  0
 21 17  2  0  0  0  0
 22 26  2  0  0  0  0
 22 25  1  0  0  0  0
 23 12  1  0  0  0  0
 24 23  1  0  0  0  0
 25 24  2  0  0  0  0
 26 27  1  0  0  0  0
 27 23  2  0  0  0  0
M  END
>  <MODEL>
2

>  <REMARK>
 VINA RESULT:      -8.6      3.724      6.286
  Name = 
  1 active torsions:
  status: ('A' for Active; 'I' for Inactive)
    1  A    between atoms: C_9  and  N_15
                            x       y       z     vdW  Elec       q    Type
                         _______ _______ _______ _____ _____    ______ ____

>  <TORSDO>
F 1

$$$$
=
 OpenBabel10272401003D

 27 31  0  0  1  0  0  0  0  0999 V2000
  188.9190  178.6710  139.7290 C   0  0  0  0  0  2  0  0  0  0  0  0
  191.0120  177.3100  139.7390 C   0  0  0  0  0  0  0  0  0  0  0  0
  189.6040  176.0830  138.1520 N   0  0  0  0  0  2  0  0  0  0  0  0
  194.3370  176.0920  137.6610 O   0  0  0  0  0  0  0  0  0  0  0  0
  194.4510  175.2880  135.4890 O   0  0  0  0  0  0  0  0  0  0  0  0
  192.2020  177.4480  140.2670 N   0  0  0  0  0  0  0  0  0  0  0  0
  192.2770  175.4740  136.5780 C   0  0  1  0  0  3  0  0  0  0  0  0
  187.5250  176.9490  135.1890 C   0  0  0  0  0  3  0  0  0  0  0  0
  191.8620  174.1180  136.2630 N   0  0  0  0  0  1  0  0  0  0  0  0
  186.5960  177.8260  135.7520 C   0  0  0  0  0  3  0  0  0  0  0  0
  192.0030  175.7590  138.0590 C   0  0  1  0  0  3  0  0  0  0  0  0
  189.8660  177.8200  140.4470 N   0  0  0  0  0  0  0  0  0  0  0  0
  193.7710  175.5830  136.5060 C   0  0  0  0  0  0  0  0  0  0  0  0
  193.2920  176.3190  138.5300 C   0  0  0  0  0  0  0  0  0  0  0  0
  187.6640  177.8850  139.3790 C   0  0  0  0  0  2  0  0  0  0  0  0
  190.8790  176.7600  138.3220 C   0  0  2  0  0  3  0  0  0  0  0  0
  188.5140  176.3710  135.9890 C   0  0  0  0  0  3  0  0  0  0  0  0
  193.3760  177.0570  139.5900 N   0  0  0  0  0  0  0  0  0  0  0  0
  186.6540  178.1260  137.1150 C   0  0  0  0  0  3  0  0  0  0  0  0
  187.6410  177.5520  137.9230 C   0  0  0  0  0  0  0  0  0  0  0  0
  188.5780  176.6700  137.3550 C   0  0  0  0  0  0  0  0  0  0  0  0
  189.3280  177.1440  144.6170 C   0  0  0  0  0  3  0  0  0  0  0  0
  189.6930  177.5830  141.8610 C   0  0  0  0  0  0  0  0  0  0  0  0
  188.9430  176.4860  142.3190 C   0  0  0  0  0  3  0  0  0  0  0  0
  188.7630  176.2670  143.6890 C   0  0  0  0  0  3  0  0  0  0  0  0
  190.0710  178.2420  144.1760 C   0  0  0  0  0  3  0  0  0  0  0  0
  190.2500  178.4600  142.8070 C   0  0  0  0  0  3  0  0  0  0  0  0
  1 12  1  0  0  0  0
  2  6  2  0  0  0  0
  2 12  1  0  0  0  0
  4 14  1  0  0  0  0
  5 13  2  0  0  0  0
  7  9  1  1  0  0  0
  7 11  1  0  0  0  0
  8 10  2  0  0  0  0
  8 17  1  0  0  0  0
 10 19  1  0  0  0  0
 11 16  1  0  0  0  0
 11 14  1  6  0  0  0
 12 23  1  0  0  0  0
 13  7  1  0  0  0  0
 13  4  1  0  0  0  0
 14 18  2  0  0  0  0
 15  1  1  0  0  0  0
 16  3  1  1  0  0  0
 16  2  1  0  0  0  0
 17 21  2  0  0  0  0
 18  6  1  0  0  0  0
 19 20  2  0  0  0  0
 20 15  1  0  0  0  0
 21 20  1  0  0  0  0
 21  3  1  0  0  0  0
 23 24  2  0  0  0  0
 23 27  1  0  0  0  0
 24 25  1  0  0  0  0
 25 22  2  0  0  0  0
 26 22  1  0  0  0  0
 27 26  2  0  0  0  0
M  END
>  <MODEL>
3

>  <REMARK>
 VINA RESULT:      -8.5      4.182      7.840
  Name = 
  1 active torsions:
  status: ('A' for Active; 'I' for Inactive)
    1  A    between atoms: C_9  and  N_15
                            x       y       z     vdW  Elec       q    Type
                         _______ _______ _______ _____ _____    ______ ____

>  <TORSDO>
F 1

$$$$
=
 OpenBabel10272401003D

 27 31  0  0  1  0  0  0  0  0999 V2000
  185.8680  179.5280  142.2810 C   0  0  0  0  0  2  0  0  0  0  0  0
  185.6350  178.9700  144.7030 C   0  0  0  0  0  0  0  0  0  0  0  0
  187.2400  177.2840  143.9360 N   0  0  0  0  0  2  0  0  0  0  0  0
  187.4040  178.9020  148.4070 O   0  0  0  0  0  0  0  0  0  0  0  0
  189.5130  178.1180  148.9710 O   0  0  0  0  0  0  0  0  0  0  0  0
  185.0350  179.5240  145.7270 N   0  0  0  0  0  0  0  0  0  0  0  0
  188.5880  177.5800  146.7790 C   0  0  1  0  0  3  0  0  0  0  0  0
  190.3840  177.2890  141.9440 C   0  0  0  0  0  3  0  0  0  0  0  0
  188.8510  176.1550  146.8780 N   0  0  0  0  0  1  0  0  0  0  0  0
  189.9380  177.8110  140.7280 C   0  0  0  0  0  3  0  0  0  0  0  0
  187.1490  177.8010  146.3010 C   0  0  1  0  0  3  0  0  0  0  0  0
  185.0380  179.0760  143.3970 N   0  0  0  0  0  0  0  0  0  0  0  0
  188.5640  178.1930  148.1470 C   0  0  0  0  0  0  0  0  0  0  0  0
  186.6250  178.7840  147.2780 C   0  0  0  0  0  0  0  0  0  0  0  0
  186.2560  178.3480  141.4030 C   0  0  0  0  0  2  0  0  0  0  0  0
  187.0230  178.3630  144.8860 C   0  0  2  0  0  3  0  0  0  0  0  0
  189.4850  177.1110  143.0000 C   0  0  0  0  0  3  0  0  0  0  0  0
  185.6060  179.5390  147.0160 N   0  0  0  0  0  0  0  0  0  0  0  0
  188.5940  178.1560  140.5650 C   0  0  0  0  0  3  0  0  0  0  0  0
  187.6890  177.9810  141.6170 C   0  0  0  0  0  0  0  0  0  0  0  0
  188.1390  177.4570  142.8430 C   0  0  0  0  0  0  0  0  0  0  0  0
  180.8740  178.4130  142.8040 C   0  0  0  0  0  3  0  0  0  0  0  0
  183.6280  178.8400  143.1960 C   0  0  0  0  0  0  0  0  0  0  0  0
  183.1040  178.6810  141.9010 C   0  0  0  0  0  3  0  0  0  0  0  0
  181.7360  178.4670  141.7070 C   0  0  0  0  0  3  0  0  0  0  0  0
  181.3790  178.5750  144.0960 C   0  0  0  0  0  3  0  0  0  0  0  0
  182.7470  178.7880  144.2900 C   0  0  0  0  0  3  0  0  0  0  0  0
  1 12  1  0  0  0  0
  2 16  1  0  0  0  0
  2  6  2  0  0  0  0
  6 18  1  0  0  0  0
  7  9  1  1  0  0  0
  7 13  1  0  0  0  0
  8 17  1  0  0  0  0
 10  8  2  0  0  0  0
 11  7  1  0  0  0  0
 11 14  1  1  0  0  0
 12  2  1  0  0  0  0
 13  4  1  0  0  0  0
 13  5  2  0  0  0  0
 14  4  1  0  0  0  0
 15 20  1  0  0  0  0
 15  1  1  0  0  0  0
 16  3  1  6  0  0  0
 16 11  1  0  0  0  0
 18 14  2  0  0  0  0
 19 10  1  0  0  0  0
 19 20  2  0  0  0  0
 20 21  1  0  0  0  0
 21 17  2  0  0  0  0
 21  3  1  0  0  0  0
 22 26  1  0  0  0  0
 23 12  1  0  0  0  0
 23 27  1  0  0  0  0
 24 23  2  0  0  0  0
 25 24  1  0  0  0  0
 25 22  2  0  0  0  0
 26 27  2  0  0  0  0
M  END
>  <MODEL>
4

>  <REMARK>
 VINA RESULT:      -8.4      3.088      5.977
  Name = 
  1 active torsions:
  status: ('A' for Active; 'I' for Inactive)
    1  A    between atoms: C_9  and  N_15
                            x       y       z     vdW  Elec       q    Type
                         _______ _______ _______ _____ _____    ______ ____

>  <TORSDO>
F 1

$$$$
=
 OpenBabel10272401003D

 27 31  0  0  1  0  0  0  0  0999 V2000
  189.1610  178.4130  145.0700 C   0  0  0  0  0  2  0  0  0  0  0  0
  190.3240  177.5820  143.0230 C   0  0  0  0  0  0  0  0  0  0  0  0
  187.9900  176.9900  142.5680 N   0  0  0  0  0  2  0  0  0  0  0  0
  190.9460  178.0380  138.9910 O   0  0  0  0  0  0  0  0  0  0  0  0
  189.3610  178.3460  137.3250 O   0  0  0  0  0  0  0  0  0  0  0  0
  191.5430  177.6670  142.5530 N   0  0  0  0  0  0  0  0  0  0  0  0
  188.6360  177.6370  139.5430 C   0  0  1  0  0  3  0  0  0  0  0  0
  184.7060  178.7370  142.7100 C   0  0  0  0  0  3  0  0  0  0  0  0
  187.8340  176.5250  139.0640 N   0  0  0  0  0  1  0  0  0  0  0  0
  184.6380  179.0860  144.0600 C   0  0  0  0  0  3  0  0  0  0  0  0
  189.5220  177.1640  140.7010 C   0  0  1  0  0  3  0  0  0  0  0  0
  190.1240  177.5060  144.4470 N   0  0  0  0  0  0  0  0  0  0  0  0
  189.6500  178.0220  138.5070 C   0  0  0  0  0  0  0  0  0  0  0  0
  190.8640  177.6610  140.3120 C   0  0  0  0  0  0  0  0  0  0  0  0
  187.8770  177.6690  145.4040 C   0  0  0  0  0  2  0  0  0  0  0  0
  189.1410  177.7240  142.0700 C   0  0  2  0  0  3  0  0  0  0  0  0
  185.8150  178.0380  142.2230 C   0  0  0  0  0  3  0  0  0  0  0  0
  191.8100  177.8370  141.1790 N   0  0  0  0  0  0  0  0  0  0  0  0
  185.6780  178.7370  144.9260 C   0  0  0  0  0  3  0  0  0  0  0  0
  186.7900  178.0380  144.4470 C   0  0  0  0  0  0  0  0  0  0  0  0
  186.8590  177.6880  143.0860 C   0  0  0  0  0  0  0  0  0  0  0  0
  192.4990  174.9280  146.8640 C   0  0  0  0  0  3  0  0  0  0  0  0
  190.9200  176.6250  145.2700 C   0  0  0  0  0  0  0  0  0  0  0  0
  191.0770  176.8740  146.6450 C   0  0  0  0  0  3  0  0  0  0  0  0
  191.8600  176.0290  147.4370 C   0  0  0  0  0  3  0  0  0  0  0  0
  192.3570  174.6720  145.4990 C   0  0  0  0  0  3  0  0  0  0  0  0
  191.5740  175.5160  144.7070 C   0  0  0  0  0  3  0  0  0  0  0  0
  1 15  1  0  0  0  0
  2 12  1  0  0  0  0
  3 21  1  0  0  0  0
  4 14  1  0  0  0  0
  5 13  2  0  0  0  0
  6  2  2  0  0  0  0
  7  9  1  6  0  0  0
  7 11  1  0  0  0  0
  8 10  1  0  0  0  0
 10 19  2  0  0  0  0
 11 14  1  6  0  0  0
 11 16  1  0  0  0  0
 12  1  1  0  0  0  0
 12 23  1  0  0  0  0
 13  4  1  0  0  0  0
 13  7  1  0  0  0  0
 14 18  2  0  0  0  0
 16  3  1  1  0  0  0
 16  2  1  0  0  0  0
 17  8  2  0  0  0  0
 17 21  1  0  0  0  0
 18  6  1  0  0  0  0
 20 19  1  0  0  0  0
 20 15  1  0  0  0  0
 21 20  2  0  0  0  0
 22 25  1  0  0  0  0
 23 24  1  0  0  0  0
 24 25  2  0  0  0  0
 26 22  2  0  0  0  0
 27 23  2  0  0  0  0
 27 26  1  0  0  0  0
M  END
>  <MODEL>
5

>  <REMARK>
 VINA RESULT:      -8.4      2.916      5.948
  Name = 
  1 active torsions:
  status: ('A' for Active; 'I' for Inactive)
    1  A    between atoms: C_9  and  N_15
                            x       y       z     vdW  Elec       q    Type
                         _______ _______ _______ _____ _____    ______ ____

>  <TORSDO>
F 1

$$$$
=
 OpenBabel10272401003D

 27 31  0  0  1  0  0  0  0  0999 V2000
  187.5870  176.6940  143.2670 C   0  0  0  0  0  2  0  0  0  0  0  0
  185.4430  177.9450  142.9980 C   0  0  0  0  0  0  0  0  0  0  0  0
  186.8460  178.9440  141.2540 N   0  0  0  0  0  2  0  0  0  0  0  0
  182.1340  178.6460  140.6720 O   0  0  0  0  0  0  0  0  0  0  0  0
  182.0500  179.0610  138.3920 O   0  0  0  0  0  0  0  0  0  0  0  0
  184.2450  177.8480  143.5170 N   0  0  0  0  0  0  0  0  0  0  0  0
  184.1970  179.1590  139.5430 C   0  0  1  0  0  3  0  0  0  0  0  0
  189.0410  177.6760  138.5290 C   0  0  0  0  0  3  0  0  0  0  0  0
  184.5680  180.4570  139.0090 N   0  0  0  0  0  1  0  0  0  0  0  0
  189.9880  176.9490  139.2540 C   0  0  0  0  0  3  0  0  0  0  0  0
  184.4400  179.1420  141.0560 C   0  0  1  0  0  3  0  0  0  0  0  0
  186.5870  177.6140  143.8070 N   0  0  0  0  0  0  0  0  0  0  0  0
  182.7120  178.9740  139.4590 C   0  0  0  0  0  0  0  0  0  0  0  0
  183.1610  178.6150  141.5890 C   0  0  0  0  0  0  0  0  0  0  0  0
  188.8200  177.4630  142.8140 C   0  0  0  0  0  2  0  0  0  0  0  0
  185.5940  178.2510  141.5110 C   0  0  2  0  0  3  0  0  0  0  0  0
  188.0080  178.3390  139.1970 C   0  0  0  0  0  3  0  0  0  0  0  0
  183.0760  178.0660  142.7580 N   0  0  0  0  0  0  0  0  0  0  0  0
  189.9030  176.8840  140.6470 C   0  0  0  0  0  3  0  0  0  0  0  0
  188.8710  177.5440  141.3230 C   0  0  0  0  0  0  0  0  0  0  0  0
  187.9170  178.2740  140.5920 C   0  0  0  0  0  0  0  0  0  0  0  0
  186.9290  179.0090  147.8160 C   0  0  0  0  0  3  0  0  0  0  0  0
  186.7110  178.0960  145.1640 C   0  0  0  0  0  0  0  0  0  0  0  0
  187.7360  177.6240  146.0020 C   0  0  0  0  0  3  0  0  0  0  0  0
  187.8450  178.0800  147.3200 C   0  0  0  0  0  3  0  0  0  0  0  0
  185.9020  179.4820  146.9960 C   0  0  0  0  0  3  0  0  0  0  0  0
  185.7930  179.0270  145.6790 C   0  0  0  0  0  3  0  0  0  0  0  0
  1 12  1  0  0  0  0
  2  6  2  0  0  0  0
  2 12  1  0  0  0  0
  4 14  1  0  0  0  0
  5 13  2  0  0  0  0
  7  9  1  1  0  0  0
  7 11  1  0  0  0  0
  8 17  2  0  0  0  0
  8 10  1  0  0  0  0
 10 19  2  0  0  0  0
 11 16  1  0  0  0  0
 11 14  1  1  0  0  0
 12 23  1  0  0  0  0
 13  7  1  0  0  0  0
 13  4  1  0  0  0  0
 14 18  2  0  0  0  0
 15  1  1  0  0  0  0
 16  3  1  1  0  0  0
 16  2  1  0  0  0  0
 17 21  1  0  0  0  0
 18  6  1  0  0  0  0
 19 20  1  0  0  0  0
 20 15  1  0  0  0  0
 21  3  1  0  0  0  0
 21 20  2  0  0  0  0
 23 27  2  0  0  0  0
 23 24  1  0  0  0  0
 24 25  2  0  0  0  0
 25 22  1  0  0  0  0
 26 22  2  0  0  0  0
 27 26  1  0  0  0  0
M  END
>  <MODEL>
6

>  <REMARK>
 VINA RESULT:      -8.4      4.624      8.336
  Name = 
  1 active torsions:
  status: ('A' for Active; 'I' for Inactive)
    1  A    between atoms: C_9  and  N_15
                            x       y       z     vdW  Elec       q    Type
                         _______ _______ _______ _____ _____    ______ ____

>  <TORSDO>
F 1

$$$$
=
 OpenBabel10272401003D

 27 31  0  0  1  0  0  0  0  0999 V2000
  183.3830  177.9570  141.2350 C   0  0  0  0  0  2  0  0  0  0  0  0
  184.3660  178.2220  138.9560 C   0  0  0  0  0  0  0  0  0  0  0  0
  186.1930  178.9890  140.3980 N   0  0  0  0  0  2  0  0  0  0  0  0
  187.1350  176.9080  136.2250 O   0  0  0  0  0  0  0  0  0  0  0  0
  189.3870  176.4700  136.5690 O   0  0  0  0  0  0  0  0  0  0  0  0
  183.9900  177.9010  137.7430 N   0  0  0  0  0  0  0  0  0  0  0  0
  188.1350  177.6850  138.2730 C   0  0  1  0  0  3  0  0  0  0  0  0
  187.9250  177.7110  143.4350 C   0  0  0  0  0  3  0  0  0  0  0  0
  189.0960  178.7680  138.3870 N   0  0  0  0  0  1  0  0  0  0  0  0
  186.8690  177.6460  144.3470 C   0  0  0  0  0  3  0  0  0  0  0  0
  186.7230  178.2670  138.1480 C   0  0  1  0  0  3  0  0  0  0  0  0
  183.3690  178.6010  139.9230 N   0  0  0  0  0  0  0  0  0  0  0  0
  188.3060  176.9840  136.9590 C   0  0  0  0  0  0  0  0  0  0  0  0
  186.1730  177.5460  136.9750 C   0  0  0  0  0  0  0  0  0  0  0  0
  183.9620  178.9010  142.2790 C   0  0  0  0  0  2  0  0  0  0  0  0
  185.8250  178.0380  139.3620 C   0  0  2  0  0  3  0  0  0  0  0  0
  187.6960  178.1610  142.1320 C   0  0  0  0  0  3  0  0  0  0  0  0
  184.9000  177.4320  136.7730 N   0  0  0  0  0  0  0  0  0  0  0  0
  185.5840  178.0310  143.9580 C   0  0  0  0  0  3  0  0  0  0  0  0
  185.3470  178.4840  142.6560 C   0  0  0  0  0  0  0  0  0  0  0  0
  186.4100  178.5470  141.7370 C   0  0  0  0  0  0  0  0  0  0  0  0
  180.2550  181.3410  138.9610 C   0  0  0  0  0  3  0  0  0  0  0  0
  182.3110  179.5250  139.5860 C   0  0  0  0  0  0  0  0  0  0  0  0
  182.5720  180.6600  138.7990 C   0  0  0  0  0  3  0  0  0  0  0  0
  181.5500  181.5620  138.4870 C   0  0  0  0  0  3  0  0  0  0  0  0
  179.9820  180.2210  139.7490 C   0  0  0  0  0  3  0  0  0  0  0  0
  181.0040  179.3200  140.0610 C   0  0  0  0  0  3  0  0  0  0  0  0
  1 15  1  0  0  0  0
  2 12  1  0  0  0  0
  3 21  1  0  0  0  0
  4 13  1  0  0  0  0
  4 14  1  0  0  0  0
  5 13  2  0  0  0  0
  6  2  2  0  0  0  0
  7  9  1  6  0  0  0
  8 10  1  0  0  0  0
 11 14  1  6  0  0  0
 11  7  1  0  0  0  0
 11 16  1  0  0  0  0
 12  1  1  0  0  0  0
 13  7  1  0  0  0  0
 15 20  1  0  0  0  0
 16  2  1  6  0  0  0
 16  3  1  0  0  0  0
 17  8  2  0  0  0  0
 18 14  2  0  0  0  0
 18  6  1  0  0  0  0
 19 10  2  0  0  0  0
 20 19  1  0  0  0  0
 21 17  1  0  0  0  0
 21 20  2  0  0  0  0
 22 26  1  0  0  0  0
 23 12  1  0  0  0  0
 23 27  1  0  0  0  0
 24 23  2  0  0  0  0
 25 24  1  0  0  0  0
 25 22  2  0  0  0  0
 26 27  2  0  0  0  0
M  END
>  <MODEL>
7

>  <REMARK>
 VINA RESULT:      -8.3      5.642      8.127
  Name = 
  1 active torsions:
  status: ('A' for Active; 'I' for Inactive)
    1  A    between atoms: C_9  and  N_15
                            x       y       z     vdW  Elec       q    Type
                         _______ _______ _______ _____ _____    ______ ____

>  <TORSDO>
F 1

$$$$
=
 OpenBabel10272401003D

 27 31  0  0  1  0  0  0  0  0999 V2000
  191.1300  177.9370  142.1900 C   0  0  0  0  0  2  0  0  0  0  0  0
  188.7480  178.1190  141.4630 C   0  0  0  0  0  0  0  0  0  0  0  0
  188.5580  176.8230  143.5340 N   0  0  0  0  0  2  0  0  0  0  0  0
  185.0410  179.7280  142.1840 O   0  0  0  0  0  0  0  0  0  0  0  0
  183.8830  179.8090  144.1920 O   0  0  0  0  0  0  0  0  0  0  0  0
  188.1180  178.7650  140.5140 N   0  0  0  0  0  0  0  0  0  0  0  0
  185.8430  178.3700  144.0040 C   0  0  1  0  0  3  0  0  0  0  0  0
  189.8540  177.1220  147.0100 C   0  0  0  0  0  3  0  0  0  0  0  0
  185.1830  177.1890  144.5310 N   0  0  0  0  0  1  0  0  0  0  0  0
  191.2330  177.0860  146.7940 C   0  0  0  0  0  3  0  0  0  0  0  0
  186.6030  178.0010  142.7260 C   0  0  1  0  0  3  0  0  0  0  0  0
  190.0820  177.6340  141.2160 N   0  0  0  0  0  0  0  0  0  0  0  0
  184.8230  179.3440  143.4950 C   0  0  0  0  0  0  0  0  0  0  0  0
  186.1600  179.0430  141.7680 C   0  0  0  0  0  0  0  0  0  0  0  0
  191.4320  176.7090  143.0360 C   0  0  0  0  0  2  0  0  0  0  0  0
  188.1250  178.0310  142.8530 C   0  0  2  0  0  3  0  0  0  0  0  0
  188.9740  177.0290  145.9290 C   0  0  0  0  0  3  0  0  0  0  0  0
  186.8490  179.3470  140.7150 N   0  0  0  0  0  0  0  0  0  0  0  0
  191.7340  176.9550  145.4970 C   0  0  0  0  0  3  0  0  0  0  0  0
  190.8600  176.8610  144.4090 C   0  0  0  0  0  0  0  0  0  0  0  0
  189.4710  176.9000  144.6270 C   0  0  0  0  0  0  0  0  0  0  0  0
  191.0560  175.6360  137.5850 C   0  0  0  0  0  3  0  0  0  0  0  0
  190.4150  176.9470  139.9910 C   0  0  0  0  0  0  0  0  0  0  0  0
  191.7410  176.9090  139.5270 C   0  0  0  0  0  3  0  0  0  0  0  0
  192.0600  176.2550  138.3320 C   0  0  0  0  0  3  0  0  0  0  0  0
  189.7330  175.6700  138.0310 C   0  0  0  0  0  3  0  0  0  0  0  0
  189.4150  176.3230  139.2250 C   0  0  0  0  0  3  0  0  0  0  0  0
  1 15  1  0  0  0  0
  3 21  1  0  0  0  0
  4 13  1  0  0  0  0
  6 18  1  0  0  0  0
  6  2  2  0  0  0  0
  7  9  1  6  0  0  0
 10  8  1  0  0  0  0
 11 14  1  6  0  0  0
 11 16  1  0  0  0  0
 11  7  1  0  0  0  0
 12  2  1  0  0  0  0
 12  1  1  0  0  0  0
 13  7  1  0  0  0  0
 13  5  2  0  0  0  0
 14  4  1  0  0  0  0
 15 20  1  0  0  0  0
 16  2  1  6  0  0  0
 16  3  1  0  0  0  0
 17  8  2  0  0  0  0
 18 14  2  0  0  0  0
 19 10  2  0  0  0  0
 20 21  2  0  0  0  0
 20 19  1  0  0  0  0
 21 17  1  0  0  0  0
 22 26  2  0  0  0  0
 22 25  1  0  0  0  0
 23 12  1  0  0  0  0
 24 23  1  0  0  0  0
 25 24  2  0  0  0  0
 26 27  1  0  0  0  0
 27 23  2  0  0  0  0
M  END
>  <MODEL>
8

>  <REMARK>
 VINA RESULT:      -8.2      3.469      5.465
  Name = 
  1 active torsions:
  status: ('A' for Active; 'I' for Inactive)
    1  A    between atoms: C_9  and  N_15
                            x       y       z     vdW  Elec       q    Type
                         _______ _______ _______ _____ _____    ______ ____

>  <TORSDO>
F 1

$$$$
=
 OpenBabel10272401003D

 27 31  0  0  1  0  0  0  0  0999 V2000
  189.4750  176.4980  140.7520 C   0  0  0  0  0  2  0  0  0  0  0  0
  187.5640  177.6820  141.8370 C   0  0  0  0  0  0  0  0  0  0  0  0
  187.6820  178.7870  139.6530 N   0  0  0  0  0  2  0  0  0  0  0  0
  183.5130  178.3450  141.9010 O   0  0  0  0  0  0  0  0  0  0  0  0
  182.1150  178.8340  140.1150 O   0  0  0  0  0  0  0  0  0  0  0  0
  186.8910  177.5260  142.9500 N   0  0  0  0  0  0  0  0  0  0  0  0
  184.5310  178.9670  139.8090 C   0  0  1  0  0  3  0  0  0  0  0  0
  187.8950  177.6880  136.1030 C   0  0  0  0  0  3  0  0  0  0  0  0
  184.5100  180.2950  139.2210 N   0  0  0  0  0  1  0  0  0  0  0  0
  189.0920  176.9700  136.1080 C   0  0  0  0  0  3  0  0  0  0  0  0
  185.6080  178.9080  140.8970 C   0  0  1  0  0  3  0  0  0  0  0  0
  188.9680  177.3640  141.8150 N   0  0  0  0  0  0  0  0  0  0  0  0
  183.2750  178.7340  140.5950 C   0  0  0  0  0  0  0  0  0  0  0  0
  184.8810  178.3190  142.0480 C   0  0  0  0  0  0  0  0  0  0  0  0
  190.2080  177.3240  139.7050 C   0  0  0  0  0  2  0  0  0  0  0  0
  186.8190  178.0420  140.5550 C   0  0  2  0  0  3  0  0  0  0  0  0
  187.4370  178.2910  137.2770 C   0  0  0  0  0  3  0  0  0  0  0  0
  185.4970  177.7290  143.0210 N   0  0  0  0  0  0  0  0  0  0  0  0
  189.8340  176.8550  137.2870 C   0  0  0  0  0  3  0  0  0  0  0  0
  189.3820  177.4560  138.4660 C   0  0  0  0  0  0  0  0  0  0  0  0
  188.1740  178.1770  138.4610 C   0  0  0  0  0  0  0  0  0  0  0  0
  191.6040  178.6510  144.9010 C   0  0  0  0  0  3  0  0  0  0  0  0
  189.8530  177.8040  142.8690 C   0  0  0  0  0  0  0  0  0  0  0  0
  190.2370  179.1520  142.9670 C   0  0  0  0  0  3  0  0  0  0  0  0
  191.1060  179.5740  143.9780 C   0  0  0  0  0  3  0  0  0  0  0  0
  191.2350  177.3080  144.8120 C   0  0  0  0  0  3  0  0  0  0  0  0
  190.3660  176.8870  143.8010 C   0  0  0  0  0  3  0  0  0  0  0  0
  1 12  1  0  0  0  0
  2  6  2  0  0  0  0
  4 14  1  0  0  0  0
  5 13  2  0  0  0  0
  6 18  1  0  0  0  0
  7  9  1  1  0  0  0
  7 13  1  0  0  0  0
  7 11  1  0  0  0  0
  8 10  2  0  0  0  0
  8 17  1  0  0  0  0
 10 19  1  0  0  0  0
 11 14  1  1  0  0  0
 12  2  1  0  0  0  0
 12 23  1  0  0  0  0
 13  4  1  0  0  0  0
 14 18  2  0  0  0  0
 15  1  1  0  0  0  0
 16  3  1  6  0  0  0
 16 11  1  0  0  0  0
 16  2  1  0  0  0  0
 17 21  2  0  0  0  0
 19 20  2  0  0  0  0
 20 15  1  0  0  0  0
 21 20  1  0  0  0  0
 21  3  1  0  0  0  0
 23 24  2  0  0  0  0
 23 27  1  0  0  0  0
 24 25  1  0  0  0  0
 25 22  2  0  0  0  0
 26 22  1  0  0  0  0
 27 26  2  0  0  0  0
M  END
>  <MODEL>
9

>  <REMARK>
 VINA RESULT:      -8.0      4.238      7.859
  Name = 
  1 active torsions:
  status: ('A' for Active; 'I' for Inactive)
    1  A    between atoms: C_9  and  N_15
                            x       y       z     vdW  Elec       q    Type
                         _______ _______ _______ _____ _____    ______ ____

>  <TORSDO>
F 1

$$$$
