=
 OpenBabel10272401123D

 27 29  0  0  1  0  0  0  0  0999 V2000
  187.8560  177.9770  142.9290 N   0  0  0  0  0  0  0  0  0  0  0  0
  190.2590  178.4530  143.6720 C   0  0  0  0  0  0  0  0  0  0  0  0
  192.0150  176.0790  142.5680 C   0  0  0  0  0  2  0  0  0  0  0  0
  189.8610  179.2330  144.5760 O   0  0  0  0  0  0  0  0  0  0  0  0
  190.8340  175.6580  143.2610 O   0  0  0  0  0  0  0  0  0  0  0  0
  189.2930  177.6260  142.8430 C   0  0  0  0  0  3  0  0  0  0  0  0
  192.1270  177.5870  142.3420 C   0  0  0  0  0  2  0  0  0  0  0  0
  188.5790  175.3420  143.0120 O   0  0  0  0  0  0  0  0  0  0  0  0
  189.5440  176.1520  143.0290 C   0  0  0  0  0  0  0  0  0  0  0  0
  191.6290  178.3320  143.4440 O   0  0  0  0  0  0  0  0  0  0  0  0
  187.1450  178.1610  141.6460 C   0  0  1  0  0  3  0  0  0  0  0  0
  186.0930  179.2570  141.7650 C   0  0  0  0  0  1  0  0  0  0  0  0
  188.0800  178.5380  140.5930 N   0  0  0  0  0  2  0  0  0  0  0  0
  188.9530  178.9010  137.4970 C   0  0  0  0  0  2  0  0  0  0  0  0
  189.9550  177.8400  137.4020 N   0  0  0  0  0  2  0  0  0  0  0  0
  189.0940  176.6770  139.3760 C   0  0  0  0  0  2  0  0  0  0  0  0
  187.8910  177.6200  139.4790 C   0  0  2  0  0  3  0  0  0  0  0  0
  190.2960  177.3850  138.7490 C   0  0  0  0  0  2  0  0  0  0  0  0
  187.7300  178.3970  138.2040 C   0  0  0  0  0  0  0  0  0  0  0  0
  186.6180  178.6720  137.7850 O   0  0  0  0  0  0  0  0  0  0  0  0
  187.1520  177.0810  143.8650 C   0  0  0  0  0  2  0  0  0  0  0  0
  186.3930  178.8200  147.7230 C   0  0  0  0  0  3  0  0  0  0  0  0
  186.8800  177.6880  145.2100 C   0  0  0  0  0  0  0  0  0  0  0  0
  185.7830  178.5380  145.3970 C   0  0  0  0  0  3  0  0  0  0  0  0
  185.5380  179.1020  146.6530 C   0  0  0  0  0  3  0  0  0  0  0  0
  187.4930  177.9790  147.5380 C   0  0  0  0  0  3  0  0  0  0  0  0
  187.7380  177.4150  146.2820 C   0  0  0  0  0  3  0  0  0  0  0  0
  1 21  1  0  0  0  0
  2  4  2  0  0  0  0
  3  5  1  0  0  0  0
  6  1  1  0  0  0  0
  6  9  1  0  0  0  0
  6  2  1  0  0  0  0
  7  3  1  0  0  0  0
  7 10  1  0  0  0  0
  8  9  2  0  0  0  0
  9  5  1  0  0  0  0
 10  2  1  0  0  0  0
 11 12  1  1  0  0  0
 11  1  1  0  0  0  0
 13 11  1  0  0  0  0
 14 19  1  0  0  0  0
 15 14  1  0  0  0  0
 15 18  1  0  0  0  0
 16 17  1  0  0  0  0
 17 13  1  1  0  0  0
 18 16  1  0  0  0  0
 19 17  1  0  0  0  0
 20 19  2  0  0  0  0
 21 23  1  0  0  0  0
 23 24  2  0  0  0  0
 23 27  1  0  0  0  0
 24 25  1  0  0  0  0
 25 22  2  0  0  0  0
 26 22  1  0  0  0  0
 27 26  2  0  0  0  0
M  END
>  <MODEL>
1

>  <REMARK>
 VINA RESULT:      -6.4      0.000      0.000
  Name = 
  6 active torsions:
  status: ('A' for Active; 'I' for Inactive)
    1  A    between atoms: N_1  and  C_2
    2  A    between atoms: N_1  and  C_15
    3  A    between atoms: N_1  and  C_18
    4  A    between atoms: C_2  and  N_19
    5  A    between atoms: C_9  and  C_15
    6  A    between atoms: C_14  and  N_19
                            x       y       z     vdW  Elec       q    Type
                         _______ _______ _______ _____ _____    ______ ____

>  <TORSDO>
F 6

$$$$
=
 OpenBabel10272401123D

 27 29  0  0  1  0  0  0  0  0999 V2000
  187.9870  178.2150  143.1300 N   0  0  0  0  0  0  0  0  0  0  0  0
  190.4850  178.4080  143.6570 C   0  0  0  0  0  0  0  0  0  0  0  0
  191.8600  175.8800  142.3710 C   0  0  0  0  0  2  0  0  0  0  0  0
  190.2580  179.2080  144.6020 O   0  0  0  0  0  0  0  0  0  0  0  0
  190.7060  175.5770  143.1630 O   0  0  0  0  0  0  0  0  0  0  0  0
  189.3630  177.7100  142.9100 C   0  0  0  0  0  3  0  0  0  0  0  0
  192.1190  177.3710  142.1530 C   0  0  0  0  0  2  0  0  0  0  0  0
  188.4170  175.5150  143.1170 O   0  0  0  0  0  0  0  0  0  0  0  0
  189.4640  176.2140  143.0560 C   0  0  0  0  0  0  0  0  0  0  0  0
  191.8070  178.1430  143.3040 O   0  0  0  0  0  0  0  0  0  0  0  0
  187.2410  178.6400  141.9260 C   0  0  1  0  0  3  0  0  0  0  0  0
  187.8810  178.0710  140.6660 C   0  0  0  0  0  1  0  0  0  0  0  0
  185.8610  178.1710  141.9900 N   0  0  0  0  0  2  0  0  0  0  0  0
  183.0440  178.3410  140.4020 C   0  0  0  0  0  2  0  0  0  0  0  0
  182.1510  178.6240  141.5240 N   0  0  0  0  0  2  0  0  0  0  0  0
  183.9830  179.4040  142.9490 C   0  0  0  0  0  2  0  0  0  0  0  0
  184.9900  179.3210  141.7990 C   0  0  2  0  0  3  0  0  0  0  0  0
  182.8650  178.3740  142.7770 C   0  0  0  0  0  2  0  0  0  0  0  0
  184.2710  179.2010  140.4860 C   0  0  0  0  0  0  0  0  0  0  0  0
  184.7150  179.7410  139.4870 O   0  0  0  0  0  0  0  0  0  0  0  0
  187.2250  177.3000  143.9990 C   0  0  0  0  0  2  0  0  0  0  0  0
  186.9730  178.5480  148.1050 C   0  0  0  0  0  3  0  0  0  0  0  0
  187.1450  177.7360  145.4320 C   0  0  0  0  0  0  0  0  0  0  0  0
  188.1060  177.3130  146.3580 C   0  0  0  0  0  3  0  0  0  0  0  0
  188.0220  177.7210  147.6930 C   0  0  0  0  0  3  0  0  0  0  0  0
  186.0070  178.9650  147.1850 C   0  0  0  0  0  3  0  0  0  0  0  0
  186.0910  178.5570  145.8510 C   0  0  0  0  0  3  0  0  0  0  0  0
  1 21  1  0  0  0  0
  2  4  2  0  0  0  0
  3  5  1  0  0  0  0
  6  9  1  0  0  0  0
  6  1  1  0  0  0  0
  6  2  1  0  0  0  0
  7  3  1  0  0  0  0
  7 10  1  0  0  0  0
  9  8  2  0  0  0  0
  9  5  1  0  0  0  0
 10  2  1  0  0  0  0
 11 12  1  6  0  0  0
 11 13  1  0  0  0  0
 11  1  1  0  0  0  0
 14 19  1  0  0  0  0
 14 15  1  0  0  0  0
 15 18  1  0  0  0  0
 17 13  1  1  0  0  0
 17 16  1  0  0  0  0
 18 16  1  0  0  0  0
 19 17  1  0  0  0  0
 20 19  2  0  0  0  0
 21 23  1  0  0  0  0
 23 27  2  0  0  0  0
 23 24  1  0  0  0  0
 24 25  2  0  0  0  0
 25 22  1  0  0  0  0
 26 22  2  0  0  0  0
 27 26  1  0  0  0  0
M  END
>  <MODEL>
2

>  <REMARK>
 VINA RESULT:      -6.3      1.826      3.454
  Name = 
  6 active torsions:
  status: ('A' for Active; 'I' for Inactive)
    1  A    between atoms: N_1  and  C_2
    2  A    between atoms: N_1  and  C_15
    3  A    between atoms: N_1  and  C_18
    4  A    between atoms: C_2  and  N_19
    5  A    between atoms: C_9  and  C_15
    6  A    between atoms: C_14  and  N_19
                            x       y       z     vdW  Elec       q    Type
                         _______ _______ _______ _____ _____    ______ ____

>  <TORSDO>
F 6

$$$$
=
 OpenBabel10272401123D

 27 29  0  0  1  0  0  0  0  0999 V2000
  187.1700  177.9020  143.0910 N   0  0  0  0  0  0  0  0  0  0  0  0
  189.0070  176.2550  142.4070 C   0  0  0  0  0  0  0  0  0  0  0  0
  190.4900  177.5550  139.9470 C   0  0  0  0  0  2  0  0  0  0  0  0
  188.4270  175.3090  142.9990 O   0  0  0  0  0  0  0  0  0  0  0  0
  189.0630  177.5440  139.8290 O   0  0  0  0  0  0  0  0  0  0  0  0
  188.3680  177.6250  142.2640 C   0  0  0  0  0  3  0  0  0  0  0  0
  191.0290  177.0940  141.3020 C   0  0  0  0  0  2  0  0  0  0  0  0
  187.1640  178.6560  140.4640 O   0  0  0  0  0  0  0  0  0  0  0  0
  188.1690  177.9810  140.8140 C   0  0  0  0  0  0  0  0  0  0  0  0
  190.2640  176.0280  141.8470 O   0  0  0  0  0  0  0  0  0  0  0  0
  187.3720  177.9300  144.5550 C   0  0  1  0  0  3  0  0  0  0  0  0
  186.1890  177.2940  145.2760 C   0  0  0  0  0  1  0  0  0  0  0  0
  188.5770  177.1940  144.9180 N   0  0  0  0  0  2  0  0  0  0  0  0
  190.6020  176.5250  147.3550 C   0  0  0  0  0  2  0  0  0  0  0  0
  191.8750  176.8180  146.6980 N   0  0  0  0  0  2  0  0  0  0  0  0
  190.8120  178.1800  144.9640 C   0  0  0  0  0  2  0  0  0  0  0  0
  189.4480  178.0980  145.6550 C   0  0  2  0  0  3  0  0  0  0  0  0
  191.6530  176.9360  145.2580 C   0  0  0  0  0  2  0  0  0  0  0  0
  189.6080  177.6110  147.0670 C   0  0  0  0  0  0  0  0  0  0  0  0
  188.8940  178.0460  147.9550 O   0  0  0  0  0  0  0  0  0  0  0  0
  186.4390  179.0750  142.5790 C   0  0  0  0  0  2  0  0  0  0  0  0
  182.1890  178.9350  143.2150 C   0  0  0  0  0  3  0  0  0  0  0  0
  184.9550  179.0190  142.7980 C   0  0  0  0  0  0  0  0  0  0  0  0
  184.1190  178.4190  141.8480 C   0  0  0  0  0  3  0  0  0  0  0  0
  182.7370  178.3740  142.0580 C   0  0  0  0  0  3  0  0  0  0  0  0
  183.0190  179.5430  144.1600 C   0  0  0  0  0  3  0  0  0  0  0  0
  184.4010  179.5870  143.9510 C   0  0  0  0  0  3  0  0  0  0  0  0
  1 11  1  0  0  0  0
  2  4  2  0  0  0  0
  3  7  1  0  0  0  0
  5  3  1  0  0  0  0
  5  9  1  0  0  0  0
  6  2  1  0  0  0  0
  6  1  1  0  0  0  0
  7 10  1  0  0  0  0
  8  9  2  0  0  0  0
  9  6  1  0  0  0  0
 10  2  1  0  0  0  0
 11 13  1  0  0  0  0
 11 12  1  1  0  0  0
 15 14  1  0  0  0  0
 16 18  1  0  0  0  0
 16 17  1  0  0  0  0
 17 13  1  6  0  0  0
 17 19  1  0  0  0  0
 18 15  1  0  0  0  0
 19 14  1  0  0  0  0
 19 20  2  0  0  0  0
 21 23  1  0  0  0  0
 21  1  1  0  0  0  0
 22 26  1  0  0  0  0
 23 27  1  0  0  0  0
 24 25  1  0  0  0  0
 24 23  2  0  0  0  0
 25 22  2  0  0  0  0
 27 26  2  0  0  0  0
M  END
>  <MODEL>
3

>  <REMARK>
 VINA RESULT:      -6.1      2.442      5.485
  Name = 
  6 active torsions:
  status: ('A' for Active; 'I' for Inactive)
    1  A    between atoms: N_1  and  C_2
    2  A    between atoms: N_1  and  C_15
    3  A    between atoms: N_1  and  C_18
    4  A    between atoms: C_2  and  N_19
    5  A    between atoms: C_9  and  C_15
    6  A    between atoms: C_14  and  N_19
                            x       y       z     vdW  Elec       q    Type
                         _______ _______ _______ _____ _____    ______ ____

>  <TORSDO>
F 6

$$$$
=
 OpenBabel10272401123D

 27 29  0  0  1  0  0  0  0  0999 V2000
  188.6150  177.1580  139.4130 N   0  0  0  0  0  0  0  0  0  0  0  0
  188.0120  175.9710  137.2260 C   0  0  0  0  0  0  0  0  0  0  0  0
  189.6880  177.3830  134.9600 C   0  0  0  0  0  2  0  0  0  0  0  0
  186.9480  175.5210  137.7240 O   0  0  0  0  0  0  0  0  0  0  0  0
  188.9840  178.2900  135.8160 O   0  0  0  0  0  0  0  0  0  0  0  0
  188.8920  176.9600  137.9700 C   0  0  0  0  0  3  0  0  0  0  0  0
  189.6400  175.9170  135.3940 C   0  0  0  0  0  2  0  0  0  0  0  0
  189.0860  179.3480  137.8450 O   0  0  0  0  0  0  0  0  0  0  0  0
  189.0050  178.2590  137.2160 C   0  0  0  0  0  0  0  0  0  0  0  0
  188.3790  175.5630  135.9450 O   0  0  0  0  0  0  0  0  0  0  0  0
  189.6930  176.7760  140.3490 C   0  0  1  0  0  3  0  0  0  0  0  0
  191.0510  177.2250  139.8220 C   0  0  0  0  0  1  0  0  0  0  0  0
  189.4810  177.3940  141.6520 N   0  0  0  0  0  2  0  0  0  0  0  0
  190.3140  177.5960  144.7750 C   0  0  0  0  0  2  0  0  0  0  0  0
  189.0210  177.2960  145.3890 N   0  0  0  0  0  2  0  0  0  0  0  0
  188.1540  176.2490  143.3540 C   0  0  0  0  0  2  0  0  0  0  0  0
  189.5150  176.3410  142.6570 C   0  0  2  0  0  3  0  0  0  0  0  0
  187.9770  177.3800  144.3680 C   0  0  0  0  0  2  0  0  0  0  0  0
  190.5940  176.6310  143.6600 C   0  0  0  0  0  0  0  0  0  0  0  0
  191.7030  176.1410  143.5330 O   0  0  0  0  0  0  0  0  0  0  0  0
  188.0750  178.5070  139.6630 C   0  0  0  0  0  2  0  0  0  0  0  0
  183.9130  178.5840  140.7390 C   0  0  0  0  0  3  0  0  0  0  0  0
  186.6210  178.5290  140.0330 C   0  0  0  0  0  0  0  0  0  0  0  0
  185.6350  178.3940  139.0480 C   0  0  0  0  0  3  0  0  0  0  0  0
  184.2820  178.4190  139.4000 C   0  0  0  0  0  3  0  0  0  0  0  0
  184.8940  178.7270  141.7230 C   0  0  0  0  0  3  0  0  0  0  0  0
  186.2470  178.7030  141.3700 C   0  0  0  0  0  3  0  0  0  0  0  0
  1 21  1  0  0  0  0
  1 11  1  0  0  0  0
  2  4  2  0  0  0  0
  2  6  1  0  0  0  0
  3  7  1  0  0  0  0
  3  5  1  0  0  0  0
  5  9  1  0  0  0  0
  6  1  1  0  0  0  0
  7 10  1  0  0  0  0
  9  8  2  0  0  0  0
  9  6  1  0  0  0  0
 10  2  1  0  0  0  0
 11 12  1  6  0  0  0
 11 13  1  0  0  0  0
 14 15  1  0  0  0  0
 16 18  1  0  0  0  0
 17 13  1  6  0  0  0
 17 16  1  0  0  0  0
 17 19  1  0  0  0  0
 18 15  1  0  0  0  0
 19 14  1  0  0  0  0
 20 19  2  0  0  0  0
 21 23  1  0  0  0  0
 22 26  1  0  0  0  0
 23 27  1  0  0  0  0
 24 25  1  0  0  0  0
 24 23  2  0  0  0  0
 25 22  2  0  0  0  0
 27 26  2  0  0  0  0
M  END
>  <MODEL>
4

>  <REMARK>
 VINA RESULT:      -6.0      2.176      6.424
  Name = 
  6 active torsions:
  status: ('A' for Active; 'I' for Inactive)
    1  A    between atoms: N_1  and  C_2
    2  A    between atoms: N_1  and  C_15
    3  A    between atoms: N_1  and  C_18
    4  A    between atoms: C_2  and  N_19
    5  A    between atoms: C_9  and  C_15
    6  A    between atoms: C_14  and  N_19
                            x       y       z     vdW  Elec       q    Type
                         _______ _______ _______ _____ _____    ______ ____

>  <TORSDO>
F 6

$$$$
=
 OpenBabel10272401123D

 27 29  0  0  1  0  0  0  0  0999 V2000
  189.9230  176.4530  138.1270 N   0  0  0  0  0  0  0  0  0  0  0  0
  192.4690  176.6120  138.3550 C   0  0  0  0  0  0  0  0  0  0  0  0
  193.6680  174.4090  136.4440 C   0  0  0  0  0  2  0  0  0  0  0  0
  192.3670  177.2120  139.4560 O   0  0  0  0  0  0  0  0  0  0  0  0
  192.6290  173.9310  137.3060 O   0  0  0  0  0  0  0  0  0  0  0  0
  191.2600  176.0360  137.6390 C   0  0  0  0  0  3  0  0  0  0  0  0
  193.8930  175.9210  136.4820 C   0  0  0  0  0  2  0  0  0  0  0  0
  190.3540  173.8170  137.5440 O   0  0  0  0  0  0  0  0  0  0  0  0
  191.3820  174.5430  137.4830 C   0  0  0  0  0  0  0  0  0  0  0  0
  193.7330  176.4530  137.7900 O   0  0  0  0  0  0  0  0  0  0  0  0
  189.9010  177.3910  139.2680 C   0  0  1  0  0  3  0  0  0  0  0  0
  189.2350  178.7040  138.8760 C   0  0  0  0  0  1  0  0  0  0  0  0
  189.1600  176.8190  140.3860 N   0  0  0  0  0  2  0  0  0  0  0  0
  187.8570  176.5690  143.3390 C   0  0  0  0  0  2  0  0  0  0  0  0
  189.0780  176.5720  144.1430 N   0  0  0  0  0  2  0  0  0  0  0  0
  190.4090  177.5690  142.3470 C   0  0  0  0  0  2  0  0  0  0  0  0
  189.1710  177.7870  141.4720 C   0  0  2  0  0  3  0  0  0  0  0  0
  190.2280  176.3590  143.2650 C   0  0  0  0  0  2  0  0  0  0  0  0
  187.9220  177.6430  142.2930 C   0  0  0  0  0  0  0  0  0  0  0  0
  186.9500  178.3450  142.0680 O   0  0  0  0  0  0  0  0  0  0  0  0
  189.0640  176.8750  137.0050 C   0  0  0  0  0  2  0  0  0  0  0  0
  185.0970  175.2210  137.0770 C   0  0  0  0  0  3  0  0  0  0  0  0
  187.6820  176.2920  137.0350 C   0  0  0  0  0  0  0  0  0  0  0  0
  187.4970  174.9040  137.0430 C   0  0  0  0  0  3  0  0  0  0  0  0
  186.2050  174.3690  137.0670 C   0  0  0  0  0  3  0  0  0  0  0  0
  185.2780  176.6060  137.0600 C   0  0  0  0  0  3  0  0  0  0  0  0
  186.5700  177.1420  137.0360 C   0  0  0  0  0  3  0  0  0  0  0  0
  1 11  1  0  0  0  0
  2  4  2  0  0  0  0
  3  7  1  0  0  0  0
  3  5  1  0  0  0  0
  5  9  1  0  0  0  0
  6  1  1  0  0  0  0
  6  2  1  0  0  0  0
  7 10  1  0  0  0  0
  9  8  2  0  0  0  0
  9  6  1  0  0  0  0
 10  2  1  0  0  0  0
 11 12  1  6  0  0  0
 11 13  1  0  0  0  0
 14 15  1  0  0  0  0
 16 18  1  0  0  0  0
 17 13  1  6  0  0  0
 17 19  1  0  0  0  0
 17 16  1  0  0  0  0
 18 15  1  0  0  0  0
 19 14  1  0  0  0  0
 20 19  2  0  0  0  0
 21 23  1  0  0  0  0
 21  1  1  0  0  0  0
 23 27  2  0  0  0  0
 23 24  1  0  0  0  0
 24 25  2  0  0  0  0
 25 22  1  0  0  0  0
 26 22  2  0  0  0  0
 27 26  1  0  0  0  0
M  END
>  <MODEL>
5

>  <REMARK>
 VINA RESULT:      -5.9      3.367      6.736
  Name = 
  6 active torsions:
  status: ('A' for Active; 'I' for Inactive)
    1  A    between atoms: N_1  and  C_2
    2  A    between atoms: N_1  and  C_15
    3  A    between atoms: N_1  and  C_18
    4  A    between atoms: C_2  and  N_19
    5  A    between atoms: C_9  and  C_15
    6  A    between atoms: C_14  and  N_19
                            x       y       z     vdW  Elec       q    Type
                         _______ _______ _______ _____ _____    ______ ____

>  <TORSDO>
F 6

$$$$
=
 OpenBabel10272401123D

 27 29  0  0  1  0  0  0  0  0999 V2000
  184.0830  178.3090  139.8870 N   0  0  0  0  0  0  0  0  0  0  0  0
  181.5880  178.7140  140.2930 C   0  0  0  0  0  0  0  0  0  0  0  0
  180.6500  180.7520  138.0770 C   0  0  0  0  0  2  0  0  0  0  0  0
  181.6790  178.3050  141.4790 O   0  0  0  0  0  0  0  0  0  0  0  0
  181.8380  181.1500  138.7700 O   0  0  0  0  0  0  0  0  0  0  0  0
  182.8090  178.8990  139.4100 C   0  0  0  0  0  3  0  0  0  0  0  0
  180.1470  179.3470  138.4130 C   0  0  0  0  0  2  0  0  0  0  0  0
  184.1060  180.8370  138.8460 O   0  0  0  0  0  0  0  0  0  0  0  0
  182.9580  180.3360  138.9840 C   0  0  0  0  0  0  0  0  0  0  0  0
  180.3280  179.0270  139.7850 O   0  0  0  0  0  0  0  0  0  0  0  0
  184.8890  177.5830  138.8830 C   0  0  1  0  0  3  0  0  0  0  0  0
  184.0530  177.2590  137.6500 C   0  0  0  0  0  1  0  0  0  0  0  0
  186.0290  178.3890  138.4630 N   0  0  0  0  0  2  0  0  0  0  0  0
  188.7950  179.1670  136.9710 C   0  0  0  0  0  2  0  0  0  0  0  0
  189.7310  178.3800  137.7710 N   0  0  0  0  0  2  0  0  0  0  0  0
  187.9670  176.9100  138.6180 C   0  0  0  0  0  2  0  0  0  0  0  0
  186.9200  177.5350  137.6920 C   0  0  2  0  0  3  0  0  0  0  0  0
  189.0540  177.9220  138.9840 C   0  0  0  0  0  2  0  0  0  0  0  0
  187.5930  178.3420  136.6180 C   0  0  0  0  0  0  0  0  0  0  0  0
  187.1290  178.3780  135.4910 O   0  0  0  0  0  0  0  0  0  0  0  0
  184.8600  179.2940  140.6600 C   0  0  0  0  0  2  0  0  0  0  0  0
  185.9770  177.9760  144.5980 C   0  0  0  0  0  3  0  0  0  0  0  0
  185.2430  178.8330  142.0360 C   0  0  0  0  0  0  0  0  0  0  0  0
  184.4420  179.1510  143.1400 C   0  0  0  0  0  3  0  0  0  0  0  0
  184.8080  178.7210  144.4190 C   0  0  0  0  0  3  0  0  0  0  0  0
  186.7830  177.6640  143.4990 C   0  0  0  0  0  3  0  0  0  0  0  0
  186.4180  178.0940  142.2200 C   0  0  0  0  0  3  0  0  0  0  0  0
  1 21  1  0  0  0  0
  2  4  2  0  0  0  0
  3  7  1  0  0  0  0
  3  5  1  0  0  0  0
  5  9  1  0  0  0  0
  6  1  1  0  0  0  0
  6  2  1  0  0  0  0
  7 10  1  0  0  0  0
  8  9  2  0  0  0  0
  9  6  1  0  0  0  0
 10  2  1  0  0  0  0
 11 12  1  6  0  0  0
 11  1  1  0  0  0  0
 13 11  1  0  0  0  0
 14 15  1  0  0  0  0
 15 18  1  0  0  0  0
 16 18  1  0  0  0  0
 17 13  1  1  0  0  0
 17 16  1  0  0  0  0
 19 14  1  0  0  0  0
 19 17  1  0  0  0  0
 20 19  2  0  0  0  0
 21 23  1  0  0  0  0
 23 27  2  0  0  0  0
 23 24  1  0  0  0  0
 24 25  2  0  0  0  0
 25 22  1  0  0  0  0
 26 22  2  0  0  0  0
 27 26  1  0  0  0  0
M  END
>  <MODEL>
6

>  <REMARK>
 VINA RESULT:      -5.9      4.088      6.531
  Name = 
  6 active torsions:
  status: ('A' for Active; 'I' for Inactive)
    1  A    between atoms: N_1  and  C_2
    2  A    between atoms: N_1  and  C_15
    3  A    between atoms: N_1  and  C_18
    4  A    between atoms: C_2  and  N_19
    5  A    between atoms: C_9  and  C_15
    6  A    between atoms: C_14  and  N_19
                            x       y       z     vdW  Elec       q    Type
                         _______ _______ _______ _____ _____    ______ ____

>  <TORSDO>
F 6

$$$$
=
 OpenBabel10272401123D

 27 29  0  0  1  0  0  0  0  0999 V2000
  189.0420  177.4080  143.5100 N   0  0  0  0  0  0  0  0  0  0  0  0
  191.2000  177.6660  144.8630 C   0  0  0  0  0  0  0  0  0  0  0  0
  190.4640  176.9640  147.8470 C   0  0  0  0  0  2  0  0  0  0  0  0
  191.7140  178.3890  143.9710 O   0  0  0  0  0  0  0  0  0  0  0  0
  189.5710  177.8980  147.2300 O   0  0  0  0  0  0  0  0  0  0  0  0
  189.7520  177.2150  144.7970 C   0  0  0  0  0  3  0  0  0  0  0  0
  191.5050  176.3510  146.9100 C   0  0  0  0  0  2  0  0  0  0  0  0
  187.7590  178.0540  145.8370 O   0  0  0  0  0  0  0  0  0  0  0  0
  188.9700  177.7310  145.9760 C   0  0  0  0  0  0  0  0  0  0  0  0
  191.9820  177.2870  145.9530 O   0  0  0  0  0  0  0  0  0  0  0  0
  189.8180  177.1370  142.2820 C   0  0  1  0  0  3  0  0  0  0  0  0
  190.5190  175.7870  142.3740 C   0  0  0  0  0  1  0  0  0  0  0  0
  188.9400  177.1170  141.1170 N   0  0  0  0  0  2  0  0  0  0  0  0
  188.7700  176.1640  138.0280 C   0  0  0  0  0  2  0  0  0  0  0  0
  188.2650  177.3950  137.4220 N   0  0  0  0  0  2  0  0  0  0  0  0
  188.9790  178.7690  139.3180 C   0  0  0  0  0  2  0  0  0  0  0  0
  189.7050  177.5910  139.9740 C   0  0  2  0  0  3  0  0  0  0  0  0
  187.7930  178.2880  138.4810 C   0  0  0  0  0  2  0  0  0  0  0  0
  189.8830  176.4750  138.9850 C   0  0  0  0  0  0  0  0  0  0  0  0
  190.8920  175.7890  139.0030 O   0  0  0  0  0  0  0  0  0  0  0  0
  187.7270  176.7410  143.5320 C   0  0  0  0  0  2  0  0  0  0  0  0
  184.3980  179.3740  142.8480 C   0  0  0  0  0  3  0  0  0  0  0  0
  186.5650  177.6620  143.3000 C   0  0  0  0  0  0  0  0  0  0  0  0
  185.6100  177.8660  144.3040 C   0  0  0  0  0  3  0  0  0  0  0  0
  184.5290  178.7230  144.0790 C   0  0  0  0  0  3  0  0  0  0  0  0
  185.3440  179.1650  141.8420 C   0  0  0  0  0  3  0  0  0  0  0  0
  186.4260  178.3080  142.0670 C   0  0  0  0  0  3  0  0  0  0  0  0
  1 21  1  0  0  0  0
  1  6  1  0  0  0  0
  2 10  1  0  0  0  0
  4  2  2  0  0  0  0
  5  3  1  0  0  0  0
  6  2  1  0  0  0  0
  6  9  1  0  0  0  0
  7  3  1  0  0  0  0
  8  9  2  0  0  0  0
  9  5  1  0  0  0  0
 10  7  1  0  0  0  0
 11 12  1  1  0  0  0
 11  1  1  0  0  0  0
 13 11  1  0  0  0  0
 14 19  1  0  0  0  0
 15 14  1  0  0  0  0
 15 18  1  0  0  0  0
 16 17  1  0  0  0  0
 17 13  1  1  0  0  0
 18 16  1  0  0  0  0
 19 20  2  0  0  0  0
 19 17  1  0  0  0  0
 22 25  1  0  0  0  0
 23 21  1  0  0  0  0
 23 24  1  0  0  0  0
 25 24  2  0  0  0  0
 26 27  1  0  0  0  0
 26 22  2  0  0  0  0
 27 23  2  0  0  0  0
M  END
>  <MODEL>
7

>  <REMARK>
 VINA RESULT:      -5.8      2.067      3.507
  Name = 
  6 active torsions:
  status: ('A' for Active; 'I' for Inactive)
    1  A    between atoms: N_1  and  C_2
    2  A    between atoms: N_1  and  C_15
    3  A    between atoms: N_1  and  C_18
    4  A    between atoms: C_2  and  N_19
    5  A    between atoms: C_9  and  C_15
    6  A    between atoms: C_14  and  N_19
                            x       y       z     vdW  Elec       q    Type
                         _______ _______ _______ _____ _____    ______ ____

>  <TORSDO>
F 6

$$$$
=
 OpenBabel10272401123D

 27 29  0  0  1  0  0  0  0  0999 V2000
  188.4690  177.8450  141.2460 N   0  0  0  0  0  0  0  0  0  0  0  0
  186.1180  178.8610  141.2270 C   0  0  0  0  0  0  0  0  0  0  0  0
  185.0620  178.7050  144.1940 C   0  0  0  0  0  2  0  0  0  0  0  0
  186.0160  178.6860  139.9860 O   0  0  0  0  0  0  0  0  0  0  0  0
  185.6080  177.4750  143.7030 O   0  0  0  0  0  0  0  0  0  0  0  0
  187.2980  178.3260  142.0190 C   0  0  0  0  0  3  0  0  0  0  0  0
  185.2390  179.9060  143.2640 C   0  0  0  0  0  2  0  0  0  0  0  0
  187.5750  176.3530  143.3560 O   0  0  0  0  0  0  0  0  0  0  0  0
  186.8470  177.3410  143.0650 C   0  0  0  0  0  0  0  0  0  0  0  0
  185.1050  179.5470  141.8950 O   0  0  0  0  0  0  0  0  0  0  0  0
  188.3310  177.8420  139.7750 C   0  0  1  0  0  3  0  0  0  0  0  0
  189.2450  178.8860  139.1450 C   0  0  0  0  0  1  0  0  0  0  0  0
  188.6860  176.5360  139.2310 N   0  0  0  0  0  2  0  0  0  0  0  0
  189.5910  174.3190  137.0520 C   0  0  0  0  0  2  0  0  0  0  0  0
  188.3290  174.1570  136.3330 N   0  0  0  0  0  2  0  0  0  0  0  0
  187.4510  176.2960  137.1370 C   0  0  0  0  0  2  0  0  0  0  0  0
  188.7880  176.6670  137.7850 C   0  0  2  0  0  3  0  0  0  0  0  0
  187.2560  174.7790  137.1080 C   0  0  0  0  0  2  0  0  0  0  0  0
  189.8810  175.7750  137.2710 C   0  0  0  0  0  0  0  0  0  0  0  0
  191.0050  176.2140  137.0960 O   0  0  0  0  0  0  0  0  0  0  0  0
  189.7080  178.4890  141.7170 C   0  0  0  0  0  2  0  0  0  0  0  0
  191.5770  176.5100  145.0450 C   0  0  0  0  0  3  0  0  0  0  0  0
  190.3550  177.8010  142.8830 C   0  0  0  0  0  0  0  0  0  0  0  0
  190.3760  178.4090  144.1440 C   0  0  0  0  0  3  0  0  0  0  0  0
  190.9840  177.7630  145.2250 C   0  0  0  0  0  3  0  0  0  0  0  0
  191.5650  175.9040  143.7860 C   0  0  0  0  0  3  0  0  0  0  0  0
  190.9570  176.5500  142.7050 C   0  0  0  0  0  3  0  0  0  0  0  0
  1 21  1  0  0  0  0
  1  6  1  0  0  0  0
  2 10  1  0  0  0  0
  2  6  1  0  0  0  0
  4  2  2  0  0  0  0
  5  3  1  0  0  0  0
  6  9  1  0  0  0  0
  7  3  1  0  0  0  0
  9  8  2  0  0  0  0
  9  5  1  0  0  0  0
 10  7  1  0  0  0  0
 11 12  1  6  0  0  0
 11  1  1  0  0  0  0
 13 11  1  0  0  0  0
 14 19  1  0  0  0  0
 15 14  1  0  0  0  0
 15 18  1  0  0  0  0
 16 17  1  0  0  0  0
 17 13  1  1  0  0  0
 18 16  1  0  0  0  0
 19 17  1  0  0  0  0
 20 19  2  0  0  0  0
 21 23  1  0  0  0  0
 22 25  1  0  0  0  0
 23 24  1  0  0  0  0
 24 25  2  0  0  0  0
 26 22  2  0  0  0  0
 27 23  2  0  0  0  0
 27 26  1  0  0  0  0
M  END
>  <MODEL>
8

>  <REMARK>
 VINA RESULT:      -5.8      2.392      4.670
  Name = 
  6 active torsions:
  status: ('A' for Active; 'I' for Inactive)
    1  A    between atoms: N_1  and  C_2
    2  A    between atoms: N_1  and  C_15
    3  A    between atoms: N_1  and  C_18
    4  A    between atoms: C_2  and  N_19
    5  A    between atoms: C_9  and  C_15
    6  A    between atoms: C_14  and  N_19
                            x       y       z     vdW  Elec       q    Type
                         _______ _______ _______ _____ _____    ______ ____

>  <TORSDO>
F 6

$$$$
=
 OpenBabel10272401123D

 27 29  0  0  1  0  0  0  0  0999 V2000
  189.9720  177.5440  141.9920 N   0  0  0  0  0  0  0  0  0  0  0  0
  187.9170  178.7420  141.0440 C   0  0  0  0  0  0  0  0  0  0  0  0
  185.5670  178.2130  143.0790 C   0  0  0  0  0  2  0  0  0  0  0  0
  188.4230  178.7720  139.8930 O   0  0  0  0  0  0  0  0  0  0  0  0
  186.2840  177.0340  142.6960 O   0  0  0  0  0  0  0  0  0  0  0  0
  188.5740  177.9940  142.1910 C   0  0  0  0  0  3  0  0  0  0  0  0
  186.1670  179.5260  142.5720 C   0  0  0  0  0  2  0  0  0  0  0  0
  188.1790  175.8210  143.1280 O   0  0  0  0  0  0  0  0  0  0  0  0
  187.6780  176.8990  142.7070 C   0  0  0  0  0  0  0  0  0  0  0  0
  186.7060  179.3970  141.2640 O   0  0  0  0  0  0  0  0  0  0  0  0
  190.4800  177.5650  140.6040 C   0  0  1  0  0  3  0  0  0  0  0  0
  192.0000  177.6730  140.5870 C   0  0  0  0  0  1  0  0  0  0  0  0
  190.1020  176.3430  139.9040 N   0  0  0  0  0  2  0  0  0  0  0  0
  189.5000  174.4120  137.3760 C   0  0  0  0  0  2  0  0  0  0  0  0
  188.8080  175.3610  136.5060 N   0  0  0  0  0  2  0  0  0  0  0  0
  189.7140  177.3020  137.6900 C   0  0  0  0  0  2  0  0  0  0  0  0
  190.6280  176.4230  138.5500 C   0  0  2  0  0  3  0  0  0  0  0  0
  188.4480  176.5460  137.2840 C   0  0  0  0  0  2  0  0  0  0  0  0
  190.7280  175.0450  137.9610 C   0  0  0  0  0  0  0  0  0  0  0  0
  191.7760  174.4240  138.0180 O   0  0  0  0  0  0  0  0  0  0  0  0
  190.8750  178.1980  142.9560 C   0  0  0  0  0  2  0  0  0  0  0  0
  190.6890  176.5910  146.9390 C   0  0  0  0  0  3  0  0  0  0  0  0
  190.8030  177.6380  144.3460 C   0  0  0  0  0  0  0  0  0  0  0  0
  189.8410  178.1040  145.2500 C   0  0  0  0  0  3  0  0  0  0  0  0
  189.7820  177.5790  146.5450 C   0  0  0  0  0  3  0  0  0  0  0  0
  191.6570  176.1310  146.0420 C   0  0  0  0  0  3  0  0  0  0  0  0
  191.7150  176.6550  144.7470 C   0  0  0  0  0  3  0  0  0  0  0  0
  1  6  1  0  0  0  0
  1 21  1  0  0  0  0
  2 10  1  0  0  0  0
  2  6  1  0  0  0  0
  4  2  2  0  0  0  0
  5  9  1  0  0  0  0
  5  3  1  0  0  0  0
  6  9  1  0  0  0  0
  7  3  1  0  0  0  0
  9  8  2  0  0  0  0
 10  7  1  0  0  0  0
 11 12  1  1  0  0  0
 11  1  1  0  0  0  0
 13 11  1  0  0  0  0
 14 19  1  0  0  0  0
 15 18  1  0  0  0  0
 15 14  1  0  0  0  0
 16 17  1  0  0  0  0
 17 13  1  1  0  0  0
 18 16  1  0  0  0  0
 19 20  2  0  0  0  0
 19 17  1  0  0  0  0
 21 23  1  0  0  0  0
 23 27  2  0  0  0  0
 23 24  1  0  0  0  0
 24 25  2  0  0  0  0
 25 22  1  0  0  0  0
 26 22  2  0  0  0  0
 27 26  1  0  0  0  0
M  END
>  <MODEL>
9

>  <REMARK>
 VINA RESULT:      -5.7      2.398      4.284
  Name = 
  6 active torsions:
  status: ('A' for Active; 'I' for Inactive)
    1  A    between atoms: N_1  and  C_2
    2  A    between atoms: N_1  and  C_15
    3  A    between atoms: N_1  and  C_18
    4  A    between atoms: C_2  and  N_19
    5  A    between atoms: C_9  and  C_15
    6  A    between atoms: C_14  and  N_19
                            x       y       z     vdW  Elec       q    Type
                         _______ _______ _______ _____ _____    ______ ____

>  <TORSDO>
F 6

$$$$
