=
 OpenBabel10272413453D

 30 32  0  0  1  0  0  0  0  0999 V2000
  189.3600  177.3640  140.8440 C   0  0  2  0  0  0  0  0  0  0  0  0
  190.2550  177.3810  142.1060 C   0  0  1  0  0  3  0  0  0  0  0  0
  189.2800  176.5990  144.4530 C   0  0  1  0  0  3  0  0  0  0  0  0
  188.0610  178.2030  141.0270 C   0  0  2  0  0  3  0  0  0  0  0  0
  189.0050  176.0480  140.5260 O   0  0  0  0  0  1  0  0  0  0  0  0
  190.1990  177.9730  139.6890 C   0  0  2  0  0  3  0  0  0  0  0  0
  187.8120  177.0290  144.3760 C   0  0  2  0  0  3  0  0  0  0  0  0
  189.4030  178.6070  138.5420 C   0  0  0  0  0  2  0  0  0  0  0  0
  191.3590  178.8610  143.8710 C   0  0  0  0  0  2  0  0  0  0  0  0
  190.4420  178.8060  142.6690 C   0  0  0  0  0  2  0  0  0  0  0  0
  190.4170  176.9080  146.4900 O   0  0  0  0  0  0  0  0  0  0  0  0
  190.5200  178.8100  145.1260 C   0  0  0  0  0  2  0  0  0  0  0  0
  189.9670  176.2390  143.1200 C   0  0  2  0  0  3  0  0  0  0  0  0
  187.1520  177.6960  142.1380 C   0  0  0  0  0  2  0  0  0  0  0  0
  186.9900  175.9280  144.0830 O   0  0  0  0  0  1  0  0  0  0  0  0
  187.6290  178.1500  143.4420 N   0  0  0  0  0  0  0  0  0  0  0  0
  187.2230  178.3430  139.7460 C   0  0  0  0  0  2  0  0  0  0  0  0
  190.1050  177.4050  145.4210 C   0  0  0  0  0  0  0  0  0  0  0  0
  191.1490  175.5230  143.3630 O   0  0  0  0  0  1  0  0  0  0  0  0
  187.9960  178.0360  138.4640 C   0  0  0  0  0  2  0  0  0  0  0  0
  186.6180  179.0340  144.0060 C   0  0  0  0  0  2  0  0  0  0  0  0
  185.4030  178.2250  144.4370 C   0  0  2  0  0  3  0  0  0  0  0  0
  184.2310  178.5900  143.5420 C   0  0  0  0  0  1  0  0  0  0  0  0
  185.0710  178.5450  145.8550 C   0  0  0  0  0  3  0  0  0  0  0  0
  183.9500  178.9140  146.1730 O   0  0  0  0  0  0  0  0  0  0  0  0
  191.3140  177.0560  139.1770 C   0  0  0  0  0  2  0  0  0  0  0  0
  190.9110  174.4500  138.0930 O   0  0  0  0  0  0  0  0  0  0  0  0
  191.1350  176.7540  137.7620 N   0  0  0  0  0  2  0  0  0  0  0  0
  190.8940  175.1580  135.8250 C   0  0  0  0  0  1  0  0  0  0  0  0
  190.9900  175.4130  137.2860 C   0  0  0  0  0  0  0  0  0  0  0  0
  1  5  1  6  0  0  0
  1  4  1  0  0  0  0
  1  2  1  0  0  0  0
  2 10  1  1  0  0  0
  2 13  1  0  0  0  0
  3 18  1  6  0  0  0
  4 17  1  6  0  0  0
  4 14  1  0  0  0  0
  6 26  1  6  0  0  0
  6  1  1  0  0  0  0
  7 15  1  6  0  0  0
  7  3  1  0  0  0  0
  8  6  1  0  0  0  0
  9 12  1  0  0  0  0
 10  9  1  0  0  0  0
 12 18  1  0  0  0  0
 13 19  1  1  0  0  0
 13  3  1  0  0  0  0
 14 16  1  0  0  0  0
 16 21  1  0  0  0  0
 16  7  1  0  0  0  0
 18 11  2  0  0  0  0
 20  8  1  0  0  0  0
 20 17  1  0  0  0  0
 21 22  1  0  0  0  0
 22 23  1  6  0  0  0
 22 24  1  0  0  0  0
 24 25  2  0  0  0  0
 28 26  1  0  0  0  0
 29 30  1  0  0  0  0
 30 28  1  0  0  0  0
 30 27  2  0  0  0  0
M  END
>  <MODEL>
1

>  <REMARK>
 VINA RESULT:      -5.8      0.000      0.000
  Name = 
  5 active torsions:
  status: ('A' for Active; 'I' for Inactive)
    1  A    between atoms: C_7  and  C_10
    2  A    between atoms: C_7  and  C_15
    3  A    between atoms: C_8  and  C_12
    4  A    between atoms: N_9  and  C_12
    5  A    between atoms: C_10  and  N_25
                            x       y       z     vdW  Elec       q    Type
                         _______ _______ _______ _____ _____    ______ ____

>  <TORSDO>
F 5

$$$$
=
 OpenBabel10272413453D

 30 32  0  0  1  0  0  0  0  0999 V2000
  184.4940  176.8160  137.2240 C   0  0  2  0  0  0  0  0  0  0  0  0
  183.0670  176.9120  137.8140 C   0  0  1  0  0  3  0  0  0  0  0  0
  182.1980  179.1960  138.8610 C   0  0  1  0  0  3  0  0  0  0  0  0
  185.5900  177.2160  138.2560 C   0  0  2  0  0  3  0  0  0  0  0  0
  184.6060  177.6480  136.1040 O   0  0  0  0  0  1  0  0  0  0  0  0
  184.7080  175.3380  136.8020 C   0  0  2  0  0  3  0  0  0  0  0  0
  183.4700  179.8070  139.4590 C   0  0  2  0  0  3  0  0  0  0  0  0
  186.1630  174.8560  136.7580 C   0  0  0  0  0  2  0  0  0  0  0  0
  181.5670  176.2760  139.7810 C   0  0  0  0  0  2  0  0  0  0  0  0
  182.9640  176.2470  139.2030 C   0  0  0  0  0  2  0  0  0  0  0  0
  180.2020  179.3750  140.0940 O   0  0  0  0  0  0  0  0  0  0  0  0
  181.4390  177.4760  140.6890 C   0  0  0  0  0  2  0  0  0  0  0  0
  182.3790  178.2920  137.6250 C   0  0  2  0  0  3  0  0  0  0  0  0
  185.4810  178.6540  138.7430 C   0  0  0  0  0  2  0  0  0  0  0  0
  183.9770  180.8110  138.6170 O   0  0  0  0  0  1  0  0  0  0  0  0
  184.4610  178.7710  139.7820 N   0  0  0  0  0  0  0  0  0  0  0  0
  187.0270  176.9820  137.7610 C   0  0  0  0  0  2  0  0  0  0  0  0
  181.2080  178.7160  139.8880 C   0  0  0  0  0  0  0  0  0  0  0  0
  181.1490  178.1140  136.9730 O   0  0  0  0  0  1  0  0  0  0  0  0
  187.1250  176.0200  136.5780 C   0  0  0  0  0  2  0  0  0  0  0  0
  185.1240  179.1640  141.0190 C   0  0  0  0  0  2  0  0  0  0  0  0
  184.7970  178.1680  142.1220 C   0  0  2  0  0  3  0  0  0  0  0  0
  183.7440  178.7760  143.0320 C   0  0  0  0  0  1  0  0  0  0  0  0
  186.0310  177.8750  142.9070 C   0  0  0  0  0  3  0  0  0  0  0  0
  187.1410  178.0520  142.4280 O   0  0  0  0  0  0  0  0  0  0  0  0
  183.9270  174.9270  135.5500 C   0  0  0  0  0  2  0  0  0  0  0  0
  181.6390  173.8390  136.8580 O   0  0  0  0  0  0  0  0  0  0  0  0
  183.5780  173.5120  135.5920 N   0  0  0  0  0  2  0  0  0  0  0  0
  182.1790  171.5720  136.3910 C   0  0  0  0  0  1  0  0  0  0  0  0
  182.4400  173.0340  136.3140 C   0  0  0  0  0  0  0  0  0  0  0  0
  1  5  1  6  0  0  0
  1  2  1  0  0  0  0
  1  4  1  0  0  0  0
  2 10  1  1  0  0  0
  3  7  1  0  0  0  0
  3 18  1  1  0  0  0
  4 17  1  6  0  0  0
  4 14  1  0  0  0  0
  6 26  1  6  0  0  0
  6  1  1  0  0  0  0
  7 15  1  6  0  0  0
  7 16  1  0  0  0  0
  8  6  1  0  0  0  0
  9 12  1  0  0  0  0
 10  9  1  0  0  0  0
 13 19  1  1  0  0  0
 13  2  1  0  0  0  0
 13  3  1  0  0  0  0
 14 16  1  0  0  0  0
 16 21  1  0  0  0  0
 18 11  2  0  0  0  0
 18 12  1  0  0  0  0
 20  8  1  0  0  0  0
 20 17  1  0  0  0  0
 21 22  1  0  0  0  0
 22 24  1  0  0  0  0
 22 23  1  1  0  0  0
 25 24  2  0  0  0  0
 26 28  1  0  0  0  0
 28 30  1  0  0  0  0
 30 29  1  0  0  0  0
 30 27  2  0  0  0  0
M  END
>  <MODEL>
2

>  <REMARK>
 VINA RESULT:      -5.6      5.299      7.628
  Name = 
  5 active torsions:
  status: ('A' for Active; 'I' for Inactive)
    1  A    between atoms: C_7  and  C_10
    2  A    between atoms: C_7  and  C_15
    3  A    between atoms: C_8  and  C_12
    4  A    between atoms: N_9  and  C_12
    5  A    between atoms: C_10  and  N_25
                            x       y       z     vdW  Elec       q    Type
                         _______ _______ _______ _____ _____    ______ ____

>  <TORSDO>
F 5

$$$$
=
 OpenBabel10272413453D

 30 32  0  0  1  0  0  0  0  0999 V2000
  189.4010  177.2450  140.6170 C   0  0  2  0  0  0  0  0  0  0  0  0
  188.7740  177.4670  139.2210 C   0  0  1  0  0  3  0  0  0  0  0  0
  189.5010  175.9440  137.1660 C   0  0  1  0  0  3  0  0  0  0  0  0
  190.9560  177.3390  140.5910 C   0  0  2  0  0  3  0  0  0  0  0  0
  189.0340  175.9880  141.1130 O   0  0  0  0  0  1  0  0  0  0  0  0
  188.8400  178.3560  141.5450 C   0  0  2  0  0  3  0  0  0  0  0  0
  190.9740  175.6470  137.4620 C   0  0  2  0  0  3  0  0  0  0  0  0
  189.7110  178.7280  142.7510 C   0  0  0  0  0  2  0  0  0  0  0  0
  188.7310  178.9750  137.1600 C   0  0  0  0  0  2  0  0  0  0  0  0
  189.3660  178.7000  138.5050 C   0  0  0  0  0  2  0  0  0  0  0  0
  188.8910  176.4040  134.9400 O   0  0  0  0  0  0  0  0  0  0  0  0
  189.5740  178.3310  136.0830 C   0  0  0  0  0  2  0  0  0  0  0  0
  188.5820  176.1720  138.3830 C   0  0  2  0  0  3  0  0  0  0  0  0
  191.6200  176.2900  139.7100 C   0  0  0  0  0  2  0  0  0  0  0  0
  191.1190  174.3560  137.9960 O   0  0  0  0  0  1  0  0  0  0  0  0
  191.5730  176.6910  138.3060 N   0  0  0  0  0  0  0  0  0  0  0  0
  191.6070  177.2830  141.9830 C   0  0  0  0  0  2  0  0  0  0  0  0
  189.2850  176.8680  135.9970 C   0  0  0  0  0  0  0  0  0  0  0  0
  187.2360  176.0600  138.0010 O   0  0  0  0  0  1  0  0  0  0  0  0
  190.6450  177.5890  143.1290 C   0  0  0  0  0  2  0  0  0  0  0  0
  192.9420  176.8950  137.8510 C   0  0  0  0  0  2  0  0  0  0  0  0
  193.3810  175.7230  136.9860 C   0  0  2  0  0  3  0  0  0  0  0  0
  194.4240  174.9210  137.7450 C   0  0  0  0  0  1  0  0  0  0  0  0
  193.9700  176.2370  135.7160 C   0  0  0  0  0  3  0  0  0  0  0  0
  194.9670  176.9430  135.7220 O   0  0  0  0  0  0  0  0  0  0  0  0
  187.3710  178.1630  141.9330 C   0  0  0  0  0  2  0  0  0  0  0  0
  184.9300  178.3000  143.3990 O   0  0  0  0  0  0  0  0  0  0  0  0
  187.2360  177.9150  143.3630 N   0  0  0  0  0  2  0  0  0  0  0  0
  185.9220  177.8690  145.5150 C   0  0  0  0  0  1  0  0  0  0  0  0
  185.9850  178.0540  144.0410 C   0  0  0  0  0  0  0  0  0  0  0  0
  1  5  1  1  0  0  0
  1  6  1  0  0  0  0
  2 10  1  6  0  0  0
  2  1  1  0  0  0  0
  3 18  1  6  0  0  0
  3  7  1  0  0  0  0
  3 13  1  0  0  0  0
  4 14  1  6  0  0  0
  4  1  1  0  0  0  0
  4 17  1  0  0  0  0
  6 26  1  1  0  0  0
  6  8  1  0  0  0  0
  7 15  1  1  0  0  0
  7 16  1  0  0  0  0
  8 20  1  0  0  0  0
  9 10  1  0  0  0  0
 11 18  2  0  0  0  0
 12  9  1  0  0  0  0
 13 19  1  6  0  0  0
 13  2  1  0  0  0  0
 16 14  1  0  0  0  0
 17 20  1  0  0  0  0
 18 12  1  0  0  0  0
 21 16  1  0  0  0  0
 22 23  1  1  0  0  0
 22 21  1  0  0  0  0
 24 25  2  0  0  0  0
 24 22  1  0  0  0  0
 26 28  1  0  0  0  0
 27 30  2  0  0  0  0
 28 30  1  0  0  0  0
 30 29  1  0  0  0  0
M  END
>  <MODEL>
3

>  <REMARK>
 VINA RESULT:      -5.5      2.087      8.006
  Name = 
  5 active torsions:
  status: ('A' for Active; 'I' for Inactive)
    1  A    between atoms: C_7  and  C_10
    2  A    between atoms: C_7  and  C_15
    3  A    between atoms: C_8  and  C_12
    4  A    between atoms: N_9  and  C_12
    5  A    between atoms: C_10  and  N_25
                            x       y       z     vdW  Elec       q    Type
                         _______ _______ _______ _____ _____    ______ ____

>  <TORSDO>
F 5

$$$$
=
 OpenBabel10272413453D

 30 32  0  0  1  0  0  0  0  0999 V2000
  186.9660  174.6940  135.8130 C   0  0  2  0  0  0  0  0  0  0  0  0
  186.8680  176.1660  136.2780 C   0  0  1  0  0  3  0  0  0  0  0  0
  188.9800  177.7720  136.1030 C   0  0  1  0  0  3  0  0  0  0  0  0
  188.1080  173.9190  136.5370 C   0  0  2  0  0  3  0  0  0  0  0  0
  187.1910  174.6410  134.4320 O   0  0  0  0  0  1  0  0  0  0  0  0
  185.6060  174.0240  136.1480 C   0  0  2  0  0  3  0  0  0  0  0  0
  190.1560  176.8210  136.3450 C   0  0  2  0  0  3  0  0  0  0  0  0
  185.6370  172.5040  136.3470 C   0  0  0  0  0  2  0  0  0  0  0  0
  186.7560  177.7210  138.3000 C   0  0  0  0  0  2  0  0  0  0  0  0
  186.9070  176.2970  137.8150 C   0  0  0  0  0  2  0  0  0  0  0  0
  189.0630  179.9060  137.0900 O   0  0  0  0  0  0  0  0  0  0  0  0
  188.1300  178.3080  138.5260 C   0  0  0  0  0  2  0  0  0  0  0  0
  187.7220  177.1660  135.4490 C   0  0  2  0  0  3  0  0  0  0  0  0
  189.4960  174.4870  136.2780 C   0  0  0  0  0  2  0  0  0  0  0  0
  190.7750  176.4820  135.1300 O   0  0  0  0  0  1  0  0  0  0  0  0
  189.7450  175.6480  137.1300 N   0  0  0  0  0  0  0  0  0  0  0  0
  188.1360  172.4140  136.2210 C   0  0  0  0  0  2  0  0  0  0  0  0
  188.7330  178.7410  137.2290 C   0  0  0  0  0  0  0  0  0  0  0  0
  186.8960  178.1860  134.9530 O   0  0  0  0  0  1  0  0  0  0  0  0
  186.8290  171.8780  135.6400 C   0  0  0  0  0  2  0  0  0  0  0  0
  190.8380  175.3150  138.0330 C   0  0  0  0  0  2  0  0  0  0  0  0
  191.5910  176.5790  138.4250 C   0  0  2  0  0  3  0  0  0  0  0  0
  193.0820  176.2960  138.3680 C   0  0  0  0  0  1  0  0  0  0  0  0
  191.2060  176.9760  139.8100 C   0  0  0  0  0  3  0  0  0  0  0  0
  190.4890  176.2620  140.4950 O   0  0  0  0  0  0  0  0  0  0  0  0
  184.4540  174.4630  135.2390 C   0  0  0  0  0  2  0  0  0  0  0  0
  183.7760  177.1950  134.7860 O   0  0  0  0  0  0  0  0  0  0  0  0
  183.4540  175.2150  135.9860 N   0  0  0  0  0  2  0  0  0  0  0  0
  182.2320  177.3370  136.5860 C   0  0  0  0  0  1  0  0  0  0  0  0
  183.2040  176.6000  135.7370 C   0  0  0  0  0  0  0  0  0  0  0  0
  1  5  1  6  0  0  0
  1  6  1  0  0  0  0
  1  2  1  0  0  0  0
  1  4  1  0  0  0  0
  2 10  1  1  0  0  0
  3  7  1  0  0  0  0
  3 18  1  1  0  0  0
  4 17  1  6  0  0  0
  6 26  1  6  0  0  0
  6  8  1  0  0  0  0
  7 15  1  6  0  0  0
  7 16  1  0  0  0  0
  9 12  1  0  0  0  0
 10  9  1  0  0  0  0
 11 18  2  0  0  0  0
 13 19  1  1  0  0  0
 13  3  1  0  0  0  0
 13  2  1  0  0  0  0
 14  4  1  0  0  0  0
 14 16  1  0  0  0  0
 16 21  1  0  0  0  0
 18 12  1  0  0  0  0
 20 17  1  0  0  0  0
 20  8  1  0  0  0  0
 21 22  1  0  0  0  0
 22 23  1  1  0  0  0
 22 24  1  0  0  0  0
 24 25  2  0  0  0  0
 26 28  1  0  0  0  0
 27 30  2  0  0  0  0
 30 28  1  0  0  0  0
 30 29  1  0  0  0  0
M  END
>  <MODEL>
4

>  <REMARK>
 VINA RESULT:      -5.4      4.456      8.044
  Name = 
  5 active torsions:
  status: ('A' for Active; 'I' for Inactive)
    1  A    between atoms: C_7  and  C_10
    2  A    between atoms: C_7  and  C_15
    3  A    between atoms: C_8  and  C_12
    4  A    between atoms: N_9  and  C_12
    5  A    between atoms: C_10  and  N_25
                            x       y       z     vdW  Elec       q    Type
                         _______ _______ _______ _____ _____    ______ ____

>  <TORSDO>
F 5

$$$$
=
 OpenBabel10272413453D

 30 32  0  0  1  0  0  0  0  0999 V2000
  186.6010  176.0270  136.6390 C   0  0  2  0  0  0  0  0  0  0  0  0
  186.0230  174.6100  136.4110 C   0  0  1  0  0  3  0  0  0  0  0  0
  183.6880  174.2950  135.1820 C   0  0  1  0  0  3  0  0  0  0  0  0
  185.6200  176.9490  137.4210 C   0  0  2  0  0  3  0  0  0  0  0  0
  186.8980  176.6270  135.4090 O   0  0  0  0  0  1  0  0  0  0  0  0
  187.9050  175.8550  137.4650 C   0  0  2  0  0  3  0  0  0  0  0  0
  182.9010  175.5370  135.6130 C   0  0  2  0  0  3  0  0  0  0  0  0
  188.3290  177.0630  138.3090 C   0  0  0  0  0  2  0  0  0  0  0  0
  184.8930  172.6070  137.5200 C   0  0  0  0  0  2  0  0  0  0  0  0
  185.4160  174.0150  137.6990 C   0  0  0  0  0  2  0  0  0  0  0  0
  182.5440  172.2410  135.0890 O   0  0  0  0  0  0  0  0  0  0  0  0
  183.4130  172.6700  137.2210 C   0  0  0  0  0  2  0  0  0  0  0  0
  185.2200  174.4420  135.0920 C   0  0  2  0  0  3  0  0  0  0  0  0
  184.3000  177.1930  136.7030 C   0  0  0  0  0  2  0  0  0  0  0  0
  182.8950  176.4980  134.5880 O   0  0  0  0  0  1  0  0  0  0  0  0
  183.3920  176.0650  136.8940 N   0  0  0  0  0  0  0  0  0  0  0  0
  186.2180  178.3120  137.8060 C   0  0  0  0  0  2  0  0  0  0  0  0
  183.1840  173.0110  135.7850 C   0  0  0  0  0  0  0  0  0  0  0  0
  185.7640  173.3850  134.3460 O   0  0  0  0  0  1  0  0  0  0  0  0
  187.7450  178.3540  137.7590 C   0  0  0  0  0  2  0  0  0  0  0  0
  182.2390  176.5400  137.6480 C   0  0  0  0  0  2  0  0  0  0  0  0
  182.3910  176.1690  139.1160 C   0  0  2  0  0  3  0  0  0  0  0  0
  181.1730  175.3700  139.5450 C   0  0  0  0  0  1  0  0  0  0  0  0
  182.4890  177.4130  139.9340 C   0  0  0  0  0  3  0  0  0  0  0  0
  183.4340  177.6010  140.6850 O   0  0  0  0  0  0  0  0  0  0  0  0
  189.0750  175.2680  136.6700 C   0  0  0  0  0  2  0  0  0  0  0  0
  191.4820  174.2800  137.8350 O   0  0  0  0  0  0  0  0  0  0  0  0
  190.2900  176.0470  136.8740 N   0  0  0  0  0  2  0  0  0  0  0  0
  192.6250  176.3620  137.7710 C   0  0  0  0  0  1  0  0  0  0  0  0
  191.4440  175.4970  137.5140 C   0  0  0  0  0  0  0  0  0  0  0  0
  1  5  1  6  0  0  0
  1  4  1  0  0  0  0
  1  6  1  0  0  0  0
  2  1  1  0  0  0  0
  2 10  1  1  0  0  0
  3  7  1  0  0  0  0
  3 18  1  1  0  0  0
  4 14  1  6  0  0  0
  4 17  1  0  0  0  0
  6 26  1  6  0  0  0
  6  8  1  0  0  0  0
  7 15  1  6  0  0  0
  7 16  1  0  0  0  0
  9 10  1  0  0  0  0
 11 18  2  0  0  0  0
 12  9  1  0  0  0  0
 13 19  1  1  0  0  0
 13  3  1  0  0  0  0
 13  2  1  0  0  0  0
 14 16  1  0  0  0  0
 16 21  1  0  0  0  0
 18 12  1  0  0  0  0
 20 17  1  0  0  0  0
 20  8  1  0  0  0  0
 21 22  1  0  0  0  0
 22 23  1  1  0  0  0
 22 24  1  0  0  0  0
 24 25  2  0  0  0  0
 26 28  1  0  0  0  0
 28 30  1  0  0  0  0
 30 29  1  0  0  0  0
 30 27  2  0  0  0  0
M  END
>  <MODEL>
5

>  <REMARK>
 VINA RESULT:      -5.3      5.135      7.668
  Name = 
  5 active torsions:
  status: ('A' for Active; 'I' for Inactive)
    1  A    between atoms: C_7  and  C_10
    2  A    between atoms: C_7  and  C_15
    3  A    between atoms: C_8  and  C_12
    4  A    between atoms: N_9  and  C_12
    5  A    between atoms: C_10  and  N_25
                            x       y       z     vdW  Elec       q    Type
                         _______ _______ _______ _____ _____    ______ ____

>  <TORSDO>
F 5

$$$$
=
 OpenBabel10272413453D

 30 32  0  0  1  0  0  0  0  0999 V2000
  187.8190  175.8700  136.5490 C   0  0  2  0  0  0  0  0  0  0  0  0
  186.8620  174.6690  136.3630 C   0  0  1  0  0  3  0  0  0  0  0  0
  184.5620  174.9740  135.0650 C   0  0  1  0  0  3  0  0  0  0  0  0
  187.1280  177.0750  137.2540 C   0  0  2  0  0  3  0  0  0  0  0  0
  188.3040  176.2930  135.3050 O   0  0  0  0  0  1  0  0  0  0  0  0
  188.9980  175.3740  137.4280 C   0  0  2  0  0  3  0  0  0  0  0  0
  184.1580  176.4100  135.4120 C   0  0  2  0  0  3  0  0  0  0  0  0
  189.7350  176.4520  138.2340 C   0  0  0  0  0  2  0  0  0  0  0  0
  185.1770  173.1350  137.5180 C   0  0  0  0  0  2  0  0  0  0  0  0
  186.0800  174.3410  137.6530 C   0  0  0  0  0  2  0  0  0  0  0  0
  182.8770  173.3320  135.0210 O   0  0  0  0  0  0  0  0  0  0  0  0
  183.7860  173.6050  137.1630 C   0  0  0  0  0  2  0  0  0  0  0  0
  186.0740  174.6690  135.0240 C   0  0  2  0  0  3  0  0  0  0  0  0
  185.9520  177.6500  136.4780 C   0  0  0  0  0  2  0  0  0  0  0  0
  184.4520  177.2770  134.3460 O   0  0  0  0  0  1  0  0  0  0  0  0
  184.7530  176.8410  136.6860 N   0  0  0  0  0  0  0  0  0  0  0  0
  188.0860  178.2270  137.6000 C   0  0  0  0  0  2  0  0  0  0  0  0
  183.6960  173.9220  135.7050 C   0  0  0  0  0  0  0  0  0  0  0  0
  186.3060  173.4630  134.3460 O   0  0  0  0  0  1  0  0  0  0  0  0
  189.5600  177.8260  137.6070 C   0  0  0  0  0  2  0  0  0  0  0  0
  183.7700  177.6660  137.3750 C   0  0  0  0  0  2  0  0  0  0  0  0
  184.0690  177.6930  138.8670 C   0  0  2  0  0  3  0  0  0  0  0  0
  182.9850  176.9200  139.5970 C   0  0  0  0  0  1  0  0  0  0  0  0
  184.0860  179.1060  139.3440 C   0  0  0  0  0  3  0  0  0  0  0  0
  185.0260  179.5420  139.9920 O   0  0  0  0  0  0  0  0  0  0  0  0
  189.9670  174.4350  136.7030 C   0  0  0  0  0  2  0  0  0  0  0  0
  192.5660  175.2150  135.8280 O   0  0  0  0  0  0  0  0  0  0  0  0
  191.1970  174.2610  137.4650 N   0  0  0  0  0  2  0  0  0  0  0  0
  193.7030  174.3520  137.7280 C   0  0  0  0  0  1  0  0  0  0  0  0
  192.4730  174.6300  136.9390 C   0  0  0  0  0  0  0  0  0  0  0  0
  1  5  1  6  0  0  0
  1  4  1  0  0  0  0
  1  6  1  0  0  0  0
  2  1  1  0  0  0  0
  2 10  1  1  0  0  0
  3  7  1  0  0  0  0
  3 18  1  1  0  0  0
  4 14  1  6  0  0  0
  4 17  1  0  0  0  0
  6 26  1  6  0  0  0
  6  8  1  0  0  0  0
  7 15  1  6  0  0  0
  7 16  1  0  0  0  0
  9 10  1  0  0  0  0
 11 18  2  0  0  0  0
 12  9  1  0  0  0  0
 13 19  1  1  0  0  0
 13  3  1  0  0  0  0
 13  2  1  0  0  0  0
 14 16  1  0  0  0  0
 16 21  1  0  0  0  0
 17 20  1  0  0  0  0
 18 12  1  0  0  0  0
 20  8  1  0  0  0  0
 21 22  1  0  0  0  0
 22 24  1  0  0  0  0
 22 23  1  1  0  0  0
 24 25  2  0  0  0  0
 26 28  1  0  0  0  0
 27 30  2  0  0  0  0
 30 28  1  0  0  0  0
 30 29  1  0  0  0  0
M  END
>  <MODEL>
6

>  <REMARK>
 VINA RESULT:      -5.2      5.097      7.377
  Name = 
  5 active torsions:
  status: ('A' for Active; 'I' for Inactive)
    1  A    between atoms: C_7  and  C_10
    2  A    between atoms: C_7  and  C_15
    3  A    between atoms: C_8  and  C_12
    4  A    between atoms: N_9  and  C_12
    5  A    between atoms: C_10  and  N_25
                            x       y       z     vdW  Elec       q    Type
                         _______ _______ _______ _____ _____    ______ ____

>  <TORSDO>
F 5

$$$$
=
 OpenBabel10272413453D

 30 32  0  0  1  0  0  0  0  0999 V2000
  185.4340  178.2300  138.5510 C   0  0  2  0  0  0  0  0  0  0  0  0
  186.9450  177.9880  138.3230 C   0  0  1  0  0  3  0  0  0  0  0  0
  187.9490  177.9910  135.8610 C   0  0  1  0  0  3  0  0  0  0  0  0
  184.5470  177.2180  137.7650 C   0  0  2  0  0  3  0  0  0  0  0  0
  185.0920  179.5290  138.1570 O   0  0  0  0  0  1  0  0  0  0  0  0
  185.1750  178.0590  140.0720 C   0  0  2  0  0  3  0  0  0  0  0  0
  186.8020  177.4200  135.0210 C   0  0  2  0  0  3  0  0  0  0  0  0
  183.7490  177.6590  140.4690 C   0  0  0  0  0  2  0  0  0  0  0  0
  188.8070  176.2410  138.3050 C   0  0  0  0  0  2  0  0  0  0  0  0
  187.3260  176.5000  138.4670 C   0  0  0  0  0  2  0  0  0  0  0  0
  190.1400  177.2950  135.3600 O   0  0  0  0  0  0  0  0  0  0  0  0
  189.0810  175.8520  136.8710 C   0  0  0  0  0  2  0  0  0  0  0  0
  187.5550  178.7750  137.1300 C   0  0  2  0  0  3  0  0  0  0  0  0
  184.7160  177.2960  136.2540 C   0  0  0  0  0  2  0  0  0  0  0  0
  186.1220  178.4490  134.3500 O   0  0  0  0  0  1  0  0  0  0  0  0
  185.9140  176.5740  135.8320 N   0  0  0  0  0  0  0  0  0  0  0  0
  183.0480  177.3220  138.0890 C   0  0  0  0  0  2  0  0  0  0  0  0
  189.1280  177.0650  136.0000 C   0  0  0  0  0  0  0  0  0  0  0  0
  188.6400  179.5410  137.5820 O   0  0  0  0  0  1  0  0  0  0  0  0
  182.7450  178.0520  139.3960 C   0  0  0  0  0  2  0  0  0  0  0  0
  185.4920  175.4530  135.0010 C   0  0  0  0  0  2  0  0  0  0  0  0
  186.1780  174.1770  135.4650 C   0  0  2  0  0  3  0  0  0  0  0  0
  185.9630  173.0980  134.4170 C   0  0  0  0  0  1  0  0  0  0  0  0
  185.5880  173.7400  136.7640 C   0  0  0  0  0  3  0  0  0  0  0  0
  186.2330  173.0720  137.5580 O   0  0  0  0  0  0  0  0  0  0  0  0
  185.7100  179.2090  140.9290 C   0  0  0  0  0  2  0  0  0  0  0  0
  187.7930  177.7810  142.2530 O   0  0  0  0  0  0  0  0  0  0  0  0
  185.7160  178.8500  142.3420 N   0  0  0  0  0  2  0  0  0  0  0  0
  186.6860  177.6780  144.3530 C   0  0  0  0  0  1  0  0  0  0  0  0
  186.7740  178.0860  142.9260 C   0  0  0  0  0  0  0  0  0  0  0  0
  1  5  1  6  0  0  0
  1  6  1  0  0  0  0
  2 10  1  6  0  0  0
  2  1  1  0  0  0  0
  3 18  1  1  0  0  0
  3 13  1  0  0  0  0
  4 14  1  6  0  0  0
  4 17  1  0  0  0  0
  4  1  1  0  0  0  0
  6  8  1  0  0  0  0
  6 26  1  1  0  0  0
  7 15  1  1  0  0  0
  7 16  1  0  0  0  0
  7  3  1  0  0  0  0
  9 10  1  0  0  0  0
 11 18  2  0  0  0  0
 12  9  1  0  0  0  0
 13 19  1  1  0  0  0
 13  2  1  0  0  0  0
 16 14  1  0  0  0  0
 17 20  1  0  0  0  0
 18 12  1  0  0  0  0
 20  8  1  0  0  0  0
 21 22  1  0  0  0  0
 21 16  1  0  0  0  0
 22 23  1  6  0  0  0
 22 24  1  0  0  0  0
 24 25  2  0  0  0  0
 26 28  1  0  0  0  0
 27 30  2  0  0  0  0
 28 30  1  0  0  0  0
 30 29  1  0  0  0  0
M  END
>  <MODEL>
7

>  <REMARK>
 VINA RESULT:      -5.0      3.803      7.908
  Name = 
  5 active torsions:
  status: ('A' for Active; 'I' for Inactive)
    1  A    between atoms: C_7  and  C_10
    2  A    between atoms: C_7  and  C_15
    3  A    between atoms: C_8  and  C_12
    4  A    between atoms: N_9  and  C_12
    5  A    between atoms: C_10  and  N_25
                            x       y       z     vdW  Elec       q    Type
                         _______ _______ _______ _____ _____    ______ ____

>  <TORSDO>
F 5

$$$$
=
 OpenBabel10272413453D

 30 32  0  0  1  0  0  0  0  0999 V2000
  186.0710  173.7890  136.3620 C   0  0  2  0  0  0  0  0  0  0  0  0
  187.0040  175.0080  136.1670 C   0  0  1  0  0  3  0  0  0  0  0  0
  186.3340  177.3830  137.1570 C   0  0  1  0  0  3  0  0  0  0  0  0
  184.6350  174.0500  135.8170 C   0  0  2  0  0  3  0  0  0  0  0  0
  185.9840  173.4640  137.7210 O   0  0  0  0  0  1  0  0  0  0  0  0
  186.7040  172.6070  135.5810 C   0  0  2  0  0  3  0  0  0  0  0  0
  184.8070  177.3840  137.0460 C   0  0  2  0  0  3  0  0  0  0  0  0
  185.7360  171.5120  135.1180 C   0  0  0  0  0  2  0  0  0  0  0  0
  187.8600  176.7450  134.5030 C   0  0  0  0  0  2  0  0  0  0  0  0
  186.9160  175.5870  134.7400 C   0  0  0  0  0  2  0  0  0  0  0  0
  187.4820  179.3690  136.6330 O   0  0  0  0  0  0  0  0  0  0  0  0
  187.1150  178.0380  134.7400 C   0  0  0  0  0  2  0  0  0  0  0  0
  187.0140  176.0120  137.3520 C   0  0  2  0  0  3  0  0  0  0  0  0
  183.9100  175.1920  136.5140 C   0  0  0  0  0  2  0  0  0  0  0  0
  184.2210  177.1090  138.2930 O   0  0  0  0  0  1  0  0  0  0  0  0
  184.3460  176.4810  135.9800 N   0  0  0  0  0  0  0  0  0  0  0  0
  183.7230  172.8120  135.8470 C   0  0  0  0  0  2  0  0  0  0  0  0
  187.0190  178.3260  136.2030 C   0  0  0  0  0  0  0  0  0  0  0  0
  188.3310  176.1860  137.8050 O   0  0  0  0  0  1  0  0  0  0  0  0
  184.4780  171.4900  135.9730 C   0  0  0  0  0  2  0  0  0  0  0  0
  183.2010  177.1090  135.3340 C   0  0  0  0  0  2  0  0  0  0  0  0
  181.9130  176.4510  135.8080 C   0  0  2  0  0  3  0  0  0  0  0  0
  181.1360  175.9690  134.5950 C   0  0  0  0  0  1  0  0  0  0  0  0
  181.0980  177.4450  136.5640 C   0  0  0  0  0  3  0  0  0  0  0  0
  181.4880  178.5930  136.7220 O   0  0  0  0  0  0  0  0  0  0  0  0
  187.9600  172.0260  136.2370 C   0  0  0  0  0  2  0  0  0  0  0  0
  190.1080  173.5380  137.3460 O   0  0  0  0  0  0  0  0  0  0  0  0
  189.1620  172.4300  135.5180 N   0  0  0  0  0  2  0  0  0  0  0  0
  191.3400  173.6850  135.3190 C   0  0  0  0  0  1  0  0  0  0  0  0
  190.1750  173.2340  136.1260 C   0  0  0  0  0  0  0  0  0  0  0  0
  1  5  1  1  0  0  0
  2 10  1  6  0  0  0
  2  1  1  0  0  0  0
  2 13  1  0  0  0  0
  3 18  1  6  0  0  0
  3 13  1  0  0  0  0
  4 17  1  1  0  0  0
  4  1  1  0  0  0  0
  4 14  1  0  0  0  0
  6 26  1  1  0  0  0
  6  1  1  0  0  0  0
  7  3  1  0  0  0  0
  7 15  1  1  0  0  0
  8  6  1  0  0  0  0
  8 20  1  0  0  0  0
  9 10  1  0  0  0  0
  9 12  1  0  0  0  0
 12 18  1  0  0  0  0
 13 19  1  6  0  0  0
 16 14  1  0  0  0  0
 16  7  1  0  0  0  0
 17 20  1  0  0  0  0
 18 11  2  0  0  0  0
 21 22  1  0  0  0  0
 21 16  1  0  0  0  0
 22 23  1  6  0  0  0
 22 24  1  0  0  0  0
 24 25  2  0  0  0  0
 28 30  1  0  0  0  0
 28 26  1  0  0  0  0
 29 30  1  0  0  0  0
 30 27  2  0  0  0  0
M  END
>  <MODEL>
8

>  <REMARK>
 VINA RESULT:      -4.9      6.214      7.900
  Name = 
  5 active torsions:
  status: ('A' for Active; 'I' for Inactive)
    1  A    between atoms: C_7  and  C_10
    2  A    between atoms: C_7  and  C_15
    3  A    between atoms: C_8  and  C_12
    4  A    between atoms: N_9  and  C_12
    5  A    between atoms: C_10  and  N_25
                            x       y       z     vdW  Elec       q    Type
                         _______ _______ _______ _____ _____    ______ ____

>  <TORSDO>
F 5

$$$$
=
 OpenBabel10272413453D

 30 32  0  0  1  0  0  0  0  0999 V2000
  189.6600  177.2110  138.7900 C   0  0  2  0  0  0  0  0  0  0  0  0
  190.5980  176.1740  138.1300 C   0  0  1  0  0  3  0  0  0  0  0  0
  190.9150  176.1390  135.4910 C   0  0  1  0  0  3  0  0  0  0  0  0
  188.2100  177.1440  138.2240 C   0  0  2  0  0  3  0  0  0  0  0  0
  190.1610  178.5040  138.5950 O   0  0  0  0  0  1  0  0  0  0  0  0
  189.6270  176.8870  140.3080 C   0  0  2  0  0  3  0  0  0  0  0  0
  189.5410  176.5780  134.9730 C   0  0  2  0  0  3  0  0  0  0  0  0
  188.3740  177.3420  141.0660 C   0  0  0  0  0  2  0  0  0  0  0  0
  190.8780  173.7220  137.4730 C   0  0  0  0  0  2  0  0  0  0  0  0
  189.9610  174.7700  138.0630 C   0  0  0  0  0  2  0  0  0  0  0  0
  192.0250  174.4090  134.3460 O   0  0  0  0  0  0  0  0  0  0  0  0
  190.5800  173.5880  135.9980 C   0  0  0  0  0  2  0  0  0  0  0  0
  191.3440  176.6860  136.8670 C   0  0  2  0  0  3  0  0  0  0  0  0
  188.1180  177.4490  136.7350 C   0  0  0  0  0  2  0  0  0  0  0  0
  189.5670  177.9290  134.5900 O   0  0  0  0  0  1  0  0  0  0  0  0
  188.4800  176.2750  135.9450 N   0  0  0  0  0  0  0  0  0  0  0  0
  187.2100  178.0480  138.9640 C   0  0  0  0  0  2  0  0  0  0  0  0
  191.2330  174.6910  135.2300 C   0  0  0  0  0  0  0  0  0  0  0  0
  192.7270  176.5220  137.0430 O   0  0  0  0  0  1  0  0  0  0  0  0
  187.6810  178.4900  140.3480 C   0  0  0  0  0  2  0  0  0  0  0  0
  187.3020  175.8570  135.1970 C   0  0  0  0  0  2  0  0  0  0  0  0
  186.6300  174.6850  135.8990 C   0  0  2  0  0  3  0  0  0  0  0  0
  186.8960  173.4210  135.1010 C   0  0  0  0  0  1  0  0  0  0  0  0
  185.1610  174.9310  135.9770 C   0  0  0  0  0  3  0  0  0  0  0  0
  184.6380  175.3080  137.0140 O   0  0  0  0  0  0  0  0  0  0  0  0
  190.9140  177.2540  141.0530 C   0  0  0  0  0  2  0  0  0  0  0  0
  191.6380  176.0310  143.5250 O   0  0  0  0  0  0  0  0  0  0  0  0
  190.6190  177.7930  142.3740 N   0  0  0  0  0  2  0  0  0  0  0  0
  190.5690  177.6550  144.8920 C   0  0  0  0  0  1  0  0  0  0  0  0
  190.9690  177.0970  143.5730 C   0  0  0  0  0  0  0  0  0  0  0  0
  1  5  1  6  0  0  0
  1  6  1  0  0  0  0
  2 10  1  6  0  0  0
  2  1  1  0  0  0  0
  3 18  1  1  0  0  0
  3 13  1  0  0  0  0
  4 14  1  6  0  0  0
  4  1  1  0  0  0  0
  4 17  1  0  0  0  0
  6 26  1  1  0  0  0
  6  8  1  0  0  0  0
  7 15  1  1  0  0  0
  7  3  1  0  0  0  0
  7 16  1  0  0  0  0
  9 10  1  0  0  0  0
 11 18  2  0  0  0  0
 12  9  1  0  0  0  0
 13 19  1  1  0  0  0
 13  2  1  0  0  0  0
 16 14  1  0  0  0  0
 17 20  1  0  0  0  0
 18 12  1  0  0  0  0
 20  8  1  0  0  0  0
 21 22  1  0  0  0  0
 21 16  1  0  0  0  0
 22 23  1  6  0  0  0
 22 24  1  0  0  0  0
 24 25  2  0  0  0  0
 26 28  1  0  0  0  0
 27 30  2  0  0  0  0
 28 30  1  0  0  0  0
 30 29  1  0  0  0  0
M  END
>  <MODEL>
9

>  <REMARK>
 VINA RESULT:      -4.9      3.032      7.463
  Name = 
  5 active torsions:
  status: ('A' for Active; 'I' for Inactive)
    1  A    between atoms: C_7  and  C_10
    2  A    between atoms: C_7  and  C_15
    3  A    between atoms: C_8  and  C_12
    4  A    between atoms: N_9  and  C_12
    5  A    between atoms: C_10  and  N_25
                            x       y       z     vdW  Elec       q    Type
                         _______ _______ _______ _____ _____    ______ ____

>  <TORSDO>
F 5

$$$$
