=
 OpenBabel10272415143D

 34 40  0  0  1  0  0  0  0  0999 V2000
  192.0080  177.6410  140.3450 O   0  0  0  0  0  0  0  0  0  0  0  0
  189.7270  175.1680  137.5330 O   0  0  0  0  0  0  0  0  0  0  0  0
  188.3170  176.8210  138.6020 C   0  0  0  0  0  2  0  0  0  0  0  0
  190.8900  177.5190  139.7810 C   0  0  0  0  0  0  0  0  0  0  0  0
  187.6470  178.1640  141.6430 C   0  0  2  0  0  3  0  0  0  0  0  0
  187.4100  179.4460  141.1060 O   0  0  0  0  0  0  0  0  0  0  0  0
  189.1460  177.8480  141.6720 C   0  0  2  0  0  3  0  0  0  0  0  0
  188.4530  178.1690  139.3440 C   0  0  2  0  0  3  0  0  0  0  0  0
  189.6680  178.2380  140.2870 C   0  0  2  0  0  3  0  0  0  0  0  0
  187.2280  178.3550  140.2310 C   0  0  1  0  0  3  0  0  0  0  0  0
  189.5740  176.5270  137.7750 C   0  0  1  0  0  0  0  0  0  0  0  0
  190.8530  175.2640  138.3410 C   0  0  1  0  0  0  0  0  0  0  0  0
  190.7360  176.6930  138.6400 N   0  0  0  0  0  0  0  0  0  0  0  0
  189.3040  176.3520  141.9920 C   0  0  2  0  0  3  0  0  0  0  0  0
  189.6510  176.0190  143.4570 C   0  0  1  0  0  3  0  0  0  0  0  0
  190.7310  176.0460  142.3900 C   0  0  0  0  0  2  0  0  0  0  0  0
  190.6640  178.1500  144.0250 O   0  0  0  0  0  1  0  0  0  0  0  0
  189.7470  177.1990  144.3250 N   0  0  0  0  0  0  0  0  0  0  0  0
  190.3800  176.7520  147.1010 F   0  0  0  0  0  0  0  0  0  0  0  0
  186.5990  178.1580  146.1000 C   0  0  0  0  0  0  0  0  0  0  0  0
  187.5300  177.9030  145.0880 C   0  0  0  0  0  3  0  0  0  0  0  0
  188.8210  177.4530  145.3990 C   0  0  0  0  0  0  0  0  0  0  0  0
  188.2270  177.4890  147.7590 C   0  0  0  0  0  3  0  0  0  0  0  0
  189.1640  177.2410  146.7510 C   0  0  0  0  0  0  0  0  0  0  0  0
  186.9470  177.9480  147.4350 C   0  0  0  0  0  3  0  0  0  0  0  0
  185.2260  178.6230  145.7520 C   0  0  0  0  0  2  0  0  0  0  0  0
  183.6990  178.7480  143.9890 C   0  0  0  0  0  1  0  0  0  0  0  0
  185.1130  178.8130  144.3160 N   0  0  0  0  0  2  0  0  0  0  0  0
  192.0670  174.0160  136.5040 S   0  0  0  0  0  0  0  0  0  0  0  0
  192.1170  174.9630  137.5780 C   0  0  0  0  0  0  0  0  0  0  0  0
  193.4410  175.5520  137.9750 C   0  0  0  0  0  2  0  0  0  0  0  0
  194.6070  174.7000  137.4930 C   0  0  0  0  0  2  0  0  0  0  0  0
  195.1930  173.9180  138.6240 C   0  0  0  0  0  3  0  0  0  0  0  0
  196.2580  174.3820  139.2690 C   0  0  0  0  0  2  0  0  0  0  0  0
  2 11  1  0  0  0  0
  2 12  1  0  0  0  0
  4  1  2  0  0  0  0
  5  6  1  1  0  0  0
  5  7  1  0  0  0  0
  7 14  1  6  0  0  0
  8  3  1  1  0  0  0
  8 10  1  0  0  0  0
  8  9  1  0  0  0  0
  9  4  1  6  0  0  0
  9  7  1  0  0  0  0
 10  6  1  1  0  0  0
 10  5  1  0  0  0  0
 11 12  1  0  0  0  0
 11  3  1  1  0  0  0
 11 13  1  0  0  0  0
 12 30  1  6  0  0  0
 12 13  1  0  0  0  0
 13  4  1  0  0  0  0
 14 16  1  6  0  0  0
 14 15  1  0  0  0  0
 15 18  1  1  0  0  0
 16 15  1  0  0  0  0
 17 18  1  0  0  0  0
 18 22  1  0  0  0  0
 20 25  1  0  0  0  0
 21 22  1  0  0  0  0
 21 20  2  0  0  0  0
 22 24  2  0  0  0  0
 24 19  1  0  0  0  0
 24 23  1  0  0  0  0
 25 23  2  0  0  0  0
 26 20  1  0  0  0  0
 27 28  1  0  0  0  0
 28 26  1  0  0  0  0
 29 30  2  0  0  0  0
 30 31  1  0  0  0  0
 32 31  1  0  0  0  0
 32 33  1  0  0  0  0
 33 34  2  0  0  0  0
M  END
>  <MODEL>
1

>  <REMARK>
 VINA RESULT:      -7.7      0.000      0.000
  Name = 
  9 active torsions:
  status: ('A' for Active; 'I' for Inactive)
    1  A    between atoms: C_3  and  C_24
    2  A    between atoms: C_7  and  C_15
    3  A    between atoms: C_8  and  C_17
    4  A    between atoms: C_15  and  N_21
    5  A    between atoms: C_16  and  N_31
    6  A    between atoms: C_18  and  N_31
    7  A    between atoms: C_24  and  C_25
    8  A    between atoms: C_25  and  C_27
    9  A    between atoms: C_27  and  C_33
                            x       y       z     vdW  Elec       q    Type
                         _______ _______ _______ _____ _____    ______ ____

>  <TORSDO>
F 9

$$$$
=
 OpenBabel10272415143D

 34 40  0  0  1  0  0  0  0  0999 V2000
  186.4130  179.7610  141.3710 O   0  0  0  0  0  0  0  0  0  0  0  0
  182.5060  177.7710  141.4240 O   0  0  0  0  0  0  0  0  0  0  0  0
  183.2310  178.3550  143.6590 C   0  0  0  0  0  2  0  0  0  0  0  0
  185.4410  179.4570  142.1110 C   0  0  0  0  0  0  0  0  0  0  0  0
  185.9580  178.2510  145.6710 C   0  0  2  0  0  3  0  0  0  0  0  0
  185.6320  179.4710  146.2990 O   0  0  0  0  0  0  0  0  0  0  0  0
  186.5150  178.4890  144.2640 C   0  0  2  0  0  3  0  0  0  0  0  0
  184.2120  179.3240  144.3530 C   0  0  2  0  0  3  0  0  0  0  0  0
  185.5520  179.4850  143.6110 C   0  0  2  0  0  3  0  0  0  0  0  0
  184.5620  178.7550  145.7230 C   0  0  1  0  0  3  0  0  0  0  0  0
  182.9270  178.8200  142.2300 C   0  0  1  0  0  0  0  0  0  0  0  0
  183.6940  177.9710  140.7330 C   0  0  1  0  0  0  0  0  0  0  0  0
  184.1950  179.0740  141.5550 N   0  0  0  0  0  0  0  0  0  0  0  0
  186.5720  177.1290  143.5470 C   0  0  2  0  0  3  0  0  0  0  0  0
  187.9880  176.6100  143.2220 C   0  0  1  0  0  3  0  0  0  0  0  0
  187.1460  177.2910  142.1570 C   0  0  0  0  0  2  0  0  0  0  0  0
  189.2470  178.6770  143.0410 O   0  0  0  0  0  1  0  0  0  0  0  0
  189.0640  177.4970  143.6810 N   0  0  0  0  0  0  0  0  0  0  0  0
  191.4140  175.8290  143.6860 F   0  0  0  0  0  0  0  0  0  0  0  0
  190.1460  177.5310  147.2600 C   0  0  0  0  0  0  0  0  0  0  0  0
  189.4210  177.7690  146.0880 C   0  0  0  0  0  3  0  0  0  0  0  0
  189.8420  177.2290  144.8640 C   0  0  0  0  0  0  0  0  0  0  0  0
  191.7140  176.1790  146.0110 C   0  0  0  0  0  3  0  0  0  0  0  0
  190.9980  176.4220  144.8330 C   0  0  0  0  0  0  0  0  0  0  0  0
  191.2900  176.7330  147.2220 C   0  0  0  0  0  3  0  0  0  0  0  0
  189.6790  178.1010  148.5560 C   0  0  0  0  0  2  0  0  0  0  0  0
  187.5090  177.2790  148.8310 C   0  0  0  0  0  1  0  0  0  0  0  0
  188.2740  178.4590  148.4650 N   0  0  0  0  0  2  0  0  0  0  0  0
  183.7780  177.5120  138.2450 S   0  0  0  0  0  0  0  0  0  0  0  0
  183.4500  178.4100  139.3130 C   0  0  0  0  0  0  0  0  0  0  0  0
  182.9680  179.7940  138.9840 C   0  0  0  0  0  2  0  0  0  0  0  0
  181.4840  179.8120  138.6420 C   0  0  0  0  0  2  0  0  0  0  0  0
  181.2090  180.7690  137.5290 C   0  0  0  0  0  3  0  0  0  0  0  0
  181.1760  182.0760  137.7710 C   0  0  0  0  0  2  0  0  0  0  0  0
  1  4  2  0  0  0  0
  2 11  1  0  0  0  0
  5 10  1  0  0  0  0
  5  6  1  1  0  0  0
  7 14  1  6  0  0  0
  7  5  1  0  0  0  0
  8  3  1  6  0  0  0
  8 10  1  0  0  0  0
  9  4  1  6  0  0  0
  9  7  1  0  0  0  0
  9  8  1  0  0  0  0
 10  6  1  1  0  0  0
 11  3  1  1  0  0  0
 12 30  1  6  0  0  0
 12  2  1  0  0  0  0
 12 13  1  0  0  0  0
 12 11  1  0  0  0  0
 13  4  1  0  0  0  0
 13 11  1  0  0  0  0
 14 16  1  6  0  0  0
 15 14  1  0  0  0  0
 15 18  1  1  0  0  0
 16 15  1  0  0  0  0
 17 18  1  0  0  0  0
 18 22  1  0  0  0  0
 19 24  1  0  0  0  0
 20 26  1  0  0  0  0
 21 20  2  0  0  0  0
 22 21  1  0  0  0  0
 23 25  2  0  0  0  0
 24 22  2  0  0  0  0
 24 23  1  0  0  0  0
 25 20  1  0  0  0  0
 28 26  1  0  0  0  0
 28 27  1  0  0  0  0
 29 30  2  0  0  0  0
 31 30  1  0  0  0  0
 32 31  1  0  0  0  0
 33 34  2  0  0  0  0
 33 32  1  0  0  0  0
M  END
>  <MODEL>
2

>  <REMARK>
 VINA RESULT:      -6.9      4.357      7.297
  Name = 
  9 active torsions:
  status: ('A' for Active; 'I' for Inactive)
    1  A    between atoms: C_3  and  C_24
    2  A    between atoms: C_7  and  C_15
    3  A    between atoms: C_8  and  C_17
    4  A    between atoms: C_15  and  N_21
    5  A    between atoms: C_16  and  N_31
    6  A    between atoms: C_18  and  N_31
    7  A    between atoms: C_24  and  C_25
    8  A    between atoms: C_25  and  C_27
    9  A    between atoms: C_27  and  C_33
                            x       y       z     vdW  Elec       q    Type
                         _______ _______ _______ _____ _____    ______ ____

>  <TORSDO>
F 9

$$$$
=
 OpenBabel10272415143D

 34 40  0  0  1  0  0  0  0  0999 V2000
  186.5330  179.6730  141.2590 O   0  0  0  0  0  0  0  0  0  0  0  0
  182.6220  177.6910  141.2890 O   0  0  0  0  0  0  0  0  0  0  0  0
  183.3010  178.3420  143.5200 C   0  0  0  0  0  2  0  0  0  0  0  0
  185.5450  179.3930  141.9870 C   0  0  0  0  0  0  0  0  0  0  0  0
  185.9840  178.2950  145.5920 C   0  0  2  0  0  3  0  0  0  0  0  0
  185.6470  179.5340  146.1760 O   0  0  0  0  0  0  0  0  0  0  0  0
  186.5710  178.4890  144.1900 C   0  0  2  0  0  3  0  0  0  0  0  0
  184.2690  179.3300  144.2050 C   0  0  2  0  0  3  0  0  0  0  0  0
  185.6250  179.4660  143.4880 C   0  0  2  0  0  3  0  0  0  0  0  0
  184.5880  178.8020  145.5990 C   0  0  1  0  0  3  0  0  0  0  0  0
  183.0280  178.7640  142.0720 C   0  0  1  0  0  0  0  0  0  0  0  0
  183.8250  177.8680  140.6180 C   0  0  1  0  0  0  0  0  0  0  0  0
  184.3110  178.9950  141.4170 N   0  0  0  0  0  0  0  0  0  0  0  0
  186.6410  177.1080  143.5170 C   0  0  2  0  0  3  0  0  0  0  0  0
  188.0620  176.5760  143.2390 C   0  0  1  0  0  3  0  0  0  0  0  0
  187.2470  177.2270  142.1350 C   0  0  0  0  0  2  0  0  0  0  0  0
  189.3190  178.6420  143.0360 O   0  0  0  0  0  1  0  0  0  0  0  0
  189.1300  177.4740  143.6960 N   0  0  0  0  0  0  0  0  0  0  0  0
  191.5620  175.9290  143.7390 F   0  0  0  0  0  0  0  0  0  0  0  0
  190.1230  177.5170  147.3000 C   0  0  0  0  0  0  0  0  0  0  0  0
  189.4160  177.7330  146.1140 C   0  0  0  0  0  3  0  0  0  0  0  0
  189.8920  177.2310  144.8940 C   0  0  0  0  0  0  0  0  0  0  0  0
  191.7890  176.2630  146.0740 C   0  0  0  0  0  3  0  0  0  0  0  0
  191.0890  176.4840  144.8820 C   0  0  0  0  0  0  0  0  0  0  0  0
  191.3080  176.7790  147.2800 C   0  0  0  0  0  3  0  0  0  0  0  0
  189.5970  178.0450  148.5910 C   0  0  0  0  0  2  0  0  0  0  0  0
  187.4140  177.2480  148.8260 C   0  0  0  0  0  1  0  0  0  0  0  0
  188.1990  178.4110  148.4470 N   0  0  0  0  0  2  0  0  0  0  0  0
  182.3200  178.0650  138.5920 S   0  0  0  0  0  0  0  0  0  0  0  0
  183.6120  178.2650  139.1800 C   0  0  0  0  0  0  0  0  0  0  0  0
  184.7370  178.7690  138.3220 C   0  0  0  0  0  2  0  0  0  0  0  0
  185.6720  177.6450  137.8960 C   0  0  0  0  0  2  0  0  0  0  0  0
  187.0990  178.0530  138.0640 C   0  0  0  0  0  3  0  0  0  0  0  0
  188.0420  177.1260  138.2000 C   0  0  0  0  0  2  0  0  0  0  0  0
  1  4  2  0  0  0  0
  2 11  1  0  0  0  0
  5 10  1  0  0  0  0
  5  6  1  1  0  0  0
  7 14  1  6  0  0  0
  7  5  1  0  0  0  0
  8  3  1  6  0  0  0
  8 10  1  0  0  0  0
  9  4  1  6  0  0  0
  9  7  1  0  0  0  0
  9  8  1  0  0  0  0
 10  6  1  1  0  0  0
 11  3  1  1  0  0  0
 12 30  1  6  0  0  0
 12  2  1  0  0  0  0
 12 13  1  0  0  0  0
 12 11  1  0  0  0  0
 13  4  1  0  0  0  0
 13 11  1  0  0  0  0
 14 16  1  6  0  0  0
 15 14  1  0  0  0  0
 15 18  1  1  0  0  0
 16 15  1  0  0  0  0
 17 18  1  0  0  0  0
 18 22  1  0  0  0  0
 19 24  1  0  0  0  0
 20 26  1  0  0  0  0
 21 20  2  0  0  0  0
 22 21  1  0  0  0  0
 23 25  2  0  0  0  0
 24 22  2  0  0  0  0
 24 23  1  0  0  0  0
 25 20  1  0  0  0  0
 28 26  1  0  0  0  0
 28 27  1  0  0  0  0
 29 30  2  0  0  0  0
 31 30  1  0  0  0  0
 32 33  1  0  0  0  0
 32 31  1  0  0  0  0
 33 34  2  0  0  0  0
M  END
>  <MODEL>
3

>  <REMARK>
 VINA RESULT:      -6.8      3.932      6.141
  Name = 
  9 active torsions:
  status: ('A' for Active; 'I' for Inactive)
    1  A    between atoms: C_3  and  C_24
    2  A    between atoms: C_7  and  C_15
    3  A    between atoms: C_8  and  C_17
    4  A    between atoms: C_15  and  N_21
    5  A    between atoms: C_16  and  N_31
    6  A    between atoms: C_18  and  N_31
    7  A    between atoms: C_24  and  C_25
    8  A    between atoms: C_25  and  C_27
    9  A    between atoms: C_27  and  C_33
                            x       y       z     vdW  Elec       q    Type
                         _______ _______ _______ _____ _____    ______ ____

>  <TORSDO>
F 9

$$$$
=
 OpenBabel10272415143D

 34 40  0  0  1  0  0  0  0  0999 V2000
  187.7840  175.9930  143.8660 O   0  0  0  0  0  0  0  0  0  0  0  0
  186.7990  179.1940  146.6960 O   0  0  0  0  0  0  0  0  0  0  0  0
  185.2770  179.1780  144.8140 C   0  0  0  0  0  2  0  0  0  0  0  0
  186.9260  176.8710  144.1430 C   0  0  0  0  0  0  0  0  0  0  0  0
  185.2460  178.9280  141.4330 C   0  0  2  0  0  3  0  0  0  0  0  0
  184.0300  178.2120  141.4240 O   0  0  0  0  0  0  0  0  0  0  0  0
  186.4060  178.0350  141.8850 C   0  0  2  0  0  3  0  0  0  0  0  0
  184.7870  178.2100  143.7160 C   0  0  2  0  0  3  0  0  0  0  0  0
  185.8990  177.3160  143.1370 C   0  0  2  0  0  3  0  0  0  0  0  0
  184.2670  179.0350  142.5450 C   0  0  1  0  0  3  0  0  0  0  0  0
  185.9120  178.4050  145.9760 C   0  0  1  0  0  0  0  0  0  0  0  0
  187.7810  178.3400  146.2090 C   0  0  1  0  0  0  0  0  0  0  0  0
  186.8950  177.4800  145.4210 N   0  0  0  0  0  0  0  0  0  0  0  0
  187.6210  178.9420  142.1450 C   0  0  2  0  0  3  0  0  0  0  0  0
  188.5860  179.1170  140.9540 C   0  0  1  0  0  3  0  0  0  0  0  0
  188.9020  178.1400  142.0730 C   0  0  0  0  0  2  0  0  0  0  0  0
  186.9880  178.7440  139.1660 O   0  0  0  0  0  1  0  0  0  0  0  0
  188.1660  178.4030  139.7420 N   0  0  0  0  0  0  0  0  0  0  0  0
  187.1580  176.3750  137.9600 F   0  0  0  0  0  0  0  0  0  0  0  0
  191.2480  176.5740  138.6760 C   0  0  0  0  0  0  0  0  0  0  0  0
  190.3920  177.4810  139.3100 C   0  0  0  0  0  3  0  0  0  0  0  0
  189.0110  177.4530  139.0660 C   0  0  0  0  0  0  0  0  0  0  0  0
  189.3510  175.5700  137.5610 C   0  0  0  0  0  3  0  0  0  0  0  0
  188.4920  176.4810  138.1850 C   0  0  0  0  0  0  0  0  0  0  0  0
  190.7260  175.6170  137.8040 C   0  0  0  0  0  3  0  0  0  0  0  0
  192.7110  176.6080  138.9560 C   0  0  0  0  0  2  0  0  0  0  0  0
  194.2440  175.2890  137.7860 C   0  0  0  0  0  1  0  0  0  0  0  0
  193.4590  176.5100  137.7140 N   0  0  0  0  0  2  0  0  0  0  0  0
  188.2360  177.9770  148.6730 S   0  0  0  0  0  0  0  0  0  0  0  0
  188.4540  177.5690  147.3160 C   0  0  0  0  0  0  0  0  0  0  0  0
  189.4190  176.4540  147.0320 C   0  0  0  0  0  2  0  0  0  0  0  0
  190.8650  176.9040  147.1840 C   0  0  0  0  0  2  0  0  0  0  0  0
  191.6490  176.5880  145.9520 C   0  0  0  0  0  3  0  0  0  0  0  0
  191.2860  177.1060  144.7840 C   0  0  0  0  0  2  0  0  0  0  0  0
  1  4  2  0  0  0  0
  4 13  1  0  0  0  0
  5  6  1  6  0  0  0
  5  7  1  0  0  0  0
  5 10  1  0  0  0  0
  7 14  1  1  0  0  0
  7  9  1  0  0  0  0
  8  3  1  1  0  0  0
  9  8  1  0  0  0  0
  9  4  1  1  0  0  0
 10  6  1  6  0  0  0
 10  8  1  0  0  0  0
 11  3  1  6  0  0  0
 11 12  1  0  0  0  0
 11  2  1  0  0  0  0
 12  2  1  0  0  0  0
 12 30  1  1  0  0  0
 13 11  1  0  0  0  0
 13 12  1  0  0  0  0
 14 16  1  1  0  0  0
 15 18  1  6  0  0  0
 15 16  1  0  0  0  0
 15 14  1  0  0  0  0
 17 18  1  0  0  0  0
 19 24  1  0  0  0  0
 20 26  1  0  0  0  0
 20 21  1  0  0  0  0
 22 21  2  0  0  0  0
 22 18  1  0  0  0  0
 23 25  1  0  0  0  0
 23 24  2  0  0  0  0
 24 22  1  0  0  0  0
 25 20  2  0  0  0  0
 28 27  1  0  0  0  0
 28 26  1  0  0  0  0
 30 29  2  0  0  0  0
 31 32  1  0  0  0  0
 31 30  1  0  0  0  0
 33 32  1  0  0  0  0
 34 33  2  0  0  0  0
M  END
>  <MODEL>
4

>  <REMARK>
 VINA RESULT:      -6.5      3.491      8.098
  Name = 
  9 active torsions:
  status: ('A' for Active; 'I' for Inactive)
    1  A    between atoms: C_3  and  C_24
    2  A    between atoms: C_7  and  C_15
    3  A    between atoms: C_8  and  C_17
    4  A    between atoms: C_15  and  N_21
    5  A    between atoms: C_16  and  N_31
    6  A    between atoms: C_18  and  N_31
    7  A    between atoms: C_24  and  C_25
    8  A    between atoms: C_25  and  C_27
    9  A    between atoms: C_27  and  C_33
                            x       y       z     vdW  Elec       q    Type
                         _______ _______ _______ _____ _____    ______ ____

>  <TORSDO>
F 9

$$$$
=
 OpenBabel10272415143D

 34 40  0  0  1  0  0  0  0  0999 V2000
  187.6770  175.9290  143.1330 O   0  0  0  0  0  0  0  0  0  0  0  0
  189.6170  178.4290  146.1670 O   0  0  0  0  0  0  0  0  0  0  0  0
  187.2050  178.5480  146.3350 C   0  0  0  0  0  2  0  0  0  0  0  0
  187.4620  176.6270  144.1580 C   0  0  0  0  0  0  0  0  0  0  0  0
  184.4300  178.8940  144.4170 C   0  0  2  0  0  3  0  0  0  0  0  0
  183.6660  178.0400  145.2400 O   0  0  0  0  0  0  0  0  0  0  0  0
  185.4100  178.0930  143.5530 C   0  0  2  0  0  3  0  0  0  0  0  0
  185.9630  177.7330  145.9130 C   0  0  2  0  0  3  0  0  0  0  0  0
  186.0800  177.1050  144.5120 C   0  0  2  0  0  3  0  0  0  0  0  0
  184.7690  178.6770  145.8470 C   0  0  1  0  0  3  0  0  0  0  0  0
  188.4630  177.6720  146.3140 C   0  0  1  0  0  0  0  0  0  0  0  0
  189.7350  177.8080  144.9310 C   0  0  1  0  0  0  0  0  0  0  0  0
  188.5220  176.9940  145.0240 N   0  0  0  0  0  0  0  0  0  0  0  0
  186.3900  179.0890  142.9110 C   0  0  2  0  0  3  0  0  0  0  0  0
  186.0420  179.5310  141.4750 C   0  0  1  0  0  3  0  0  0  0  0  0
  187.0840  178.4540  141.7260 C   0  0  0  0  0  2  0  0  0  0  0  0
  183.6450  179.1780  141.6310 O   0  0  0  0  0  1  0  0  0  0  0  0
  184.7990  178.9420  140.9600 N   0  0  0  0  0  0  0  0  0  0  0  0
  182.7850  176.9720  140.3520 F   0  0  0  0  0  0  0  0  0  0  0  0
  185.6870  177.8300  137.5030 C   0  0  0  0  0  0  0  0  0  0  0  0
  185.7130  178.4920  138.7340 C   0  0  0  0  0  3  0  0  0  0  0  0
  184.7310  178.2410  139.7040 C   0  0  0  0  0  0  0  0  0  0  0  0
  183.7070  176.6270  138.1970 C   0  0  0  0  0  3  0  0  0  0  0  0
  183.7240  177.2930  139.4280 C   0  0  0  0  0  0  0  0  0  0  0  0
  184.6850  176.8950  137.2360 C   0  0  0  0  0  3  0  0  0  0  0  0
  186.7450  178.0970  136.4880 C   0  0  0  0  0  2  0  0  0  0  0  0
  188.9810  178.5660  136.9770 C   0  0  0  0  0  1  0  0  0  0  0  0
  187.6440  179.1340  136.9660 N   0  0  0  0  0  2  0  0  0  0  0  0
  191.6070  176.5390  146.0670 S   0  0  0  0  0  0  0  0  0  0  0  0
  190.9700  176.9490  144.8510 C   0  0  0  0  0  0  0  0  0  0  0  0
  191.6050  176.5950  143.5360 C   0  0  0  0  0  2  0  0  0  0  0  0
  191.3320  177.6500  142.4720 C   0  0  0  0  0  2  0  0  0  0  0  0
  191.2630  177.0280  141.1160 C   0  0  0  0  0  3  0  0  0  0  0  0
  190.2190  177.2660  140.3290 C   0  0  0  0  0  2  0  0  0  0  0  0
  1  4  2  0  0  0  0
  2 11  1  0  0  0  0
  4 13  1  0  0  0  0
  5  6  1  1  0  0  0
  5 10  1  0  0  0  0
  7 14  1  1  0  0  0
  7  5  1  0  0  0  0
  7  9  1  0  0  0  0
  8  3  1  6  0  0  0
  9  4  1  6  0  0  0
  9  8  1  0  0  0  0
 10  6  1  1  0  0  0
 10  8  1  0  0  0  0
 11  3  1  6  0  0  0
 12 30  1  1  0  0  0
 12 13  1  0  0  0  0
 12  2  1  0  0  0  0
 12 11  1  0  0  0  0
 13 11  1  0  0  0  0
 14 16  1  6  0  0  0
 15 18  1  6  0  0  0
 15 16  1  0  0  0  0
 15 14  1  0  0  0  0
 18 17  1  0  0  0  0
 20 21  1  0  0  0  0
 21 22  2  0  0  0  0
 22 18  1  0  0  0  0
 23 24  2  0  0  0  0
 24 22  1  0  0  0  0
 24 19  1  0  0  0  0
 25 20  2  0  0  0  0
 25 23  1  0  0  0  0
 26 28  1  0  0  0  0
 26 20  1  0  0  0  0
 28 27  1  0  0  0  0
 30 29  2  0  0  0  0
 31 30  1  0  0  0  0
 32 31  1  0  0  0  0
 33 32  1  0  0  0  0
 34 33  2  0  0  0  0
M  END
>  <MODEL>
5

>  <REMARK>
 VINA RESULT:      -6.3      3.840      7.374
  Name = 
  9 active torsions:
  status: ('A' for Active; 'I' for Inactive)
    1  A    between atoms: C_3  and  C_24
    2  A    between atoms: C_7  and  C_15
    3  A    between atoms: C_8  and  C_17
    4  A    between atoms: C_15  and  N_21
    5  A    between atoms: C_16  and  N_31
    6  A    between atoms: C_18  and  N_31
    7  A    between atoms: C_24  and  C_25
    8  A    between atoms: C_25  and  C_27
    9  A    between atoms: C_27  and  C_33
                            x       y       z     vdW  Elec       q    Type
                         _______ _______ _______ _____ _____    ______ ____

>  <TORSDO>
F 9

$$$$
=
 OpenBabel10272415143D

 34 40  0  0  1  0  0  0  0  0999 V2000
  187.5720  175.9770  143.8160 O   0  0  0  0  0  0  0  0  0  0  0  0
  186.7330  179.2120  146.6540 O   0  0  0  0  0  0  0  0  0  0  0  0
  185.2100  179.2690  144.7740 C   0  0  0  0  0  2  0  0  0  0  0  0
  186.7550  176.8920  144.0960 C   0  0  0  0  0  0  0  0  0  0  0  0
  185.1660  179.0290  141.3920 C   0  0  2  0  0  3  0  0  0  0  0  0
  183.9190  178.3680  141.3820 O   0  0  0  0  0  0  0  0  0  0  0  0
  186.2850  178.0840  141.8400 C   0  0  2  0  0  3  0  0  0  0  0  0
  184.6770  178.3260  143.6730 C   0  0  2  0  0  3  0  0  0  0  0  0
  185.7480  177.3850  143.0910 C   0  0  2  0  0  3  0  0  0  0  0  0
  184.1930  179.1770  142.5050 C   0  0  1  0  0  3  0  0  0  0  0  0
  185.8110  178.4660  145.9320 C   0  0  1  0  0  0  0  0  0  0  0  0
  187.6750  178.3170  146.1640 C   0  0  1  0  0  0  0  0  0  0  0  0
  186.7520  177.4990  145.3750 N   0  0  0  0  0  0  0  0  0  0  0  0
  187.5390  178.9350  142.1020 C   0  0  2  0  0  3  0  0  0  0  0  0
  188.5120  179.0670  140.9110 C   0  0  1  0  0  3  0  0  0  0  0  0
  188.7830  178.0760  142.0300 C   0  0  0  0  0  2  0  0  0  0  0  0
  186.9160  178.7890  139.1040 O   0  0  0  0  0  1  0  0  0  0  0  0
  188.0610  178.3730  139.6990 N   0  0  0  0  0  0  0  0  0  0  0  0
  190.8870  178.0300  140.1450 F   0  0  0  0  0  0  0  0  0  0  0  0
  188.9570  175.5320  137.4400 C   0  0  0  0  0  0  0  0  0  0  0  0
  188.2280  176.5230  138.1040 C   0  0  0  0  0  3  0  0  0  0  0  0
  188.8480  177.3630  139.0410 C   0  0  0  0  0  0  0  0  0  0  0  0
  190.9550  176.2190  138.6180 C   0  0  0  0  0  3  0  0  0  0  0  0
  190.2280  177.2070  139.2910 C   0  0  0  0  0  0  0  0  0  0  0  0
  190.3210  175.3820  137.6950 C   0  0  0  0  0  3  0  0  0  0  0  0
  188.2860  174.6570  136.4380 C   0  0  0  0  0  2  0  0  0  0  0  0
  186.3710  173.6730  137.3460 C   0  0  0  0  0  1  0  0  0  0  0  0
  186.8440  174.7900  136.5450 N   0  0  0  0  0  2  0  0  0  0  0  0
  187.9040  177.7520  148.6220 S   0  0  0  0  0  0  0  0  0  0  0  0
  188.3130  177.5140  147.2690 C   0  0  0  0  0  0  0  0  0  0  0  0
  189.4320  176.5480  147.0020 C   0  0  0  0  0  2  0  0  0  0  0  0
  190.3470  177.0350  145.8860 C   0  0  0  0  0  2  0  0  0  0  0  0
  191.7080  176.4350  146.0200 C   0  0  0  0  0  3  0  0  0  0  0  0
  192.0420  175.7890  147.1330 C   0  0  0  0  0  2  0  0  0  0  0  0
  1  4  2  0  0  0  0
  4 13  1  0  0  0  0
  5  6  1  6  0  0  0
  5  7  1  0  0  0  0
  5 10  1  0  0  0  0
  7 14  1  1  0  0  0
  7  9  1  0  0  0  0
  8  3  1  1  0  0  0
  9  8  1  0  0  0  0
  9  4  1  1  0  0  0
 10  6  1  6  0  0  0
 10  8  1  0  0  0  0
 11  3  1  6  0  0  0
 11 12  1  0  0  0  0
 11  2  1  0  0  0  0
 12  2  1  0  0  0  0
 12 30  1  1  0  0  0
 13 11  1  0  0  0  0
 13 12  1  0  0  0  0
 14 16  1  1  0  0  0
 15 18  1  6  0  0  0
 15 16  1  0  0  0  0
 15 14  1  0  0  0  0
 17 18  1  0  0  0  0
 20 25  2  0  0  0  0
 20 21  1  0  0  0  0
 21 22  2  0  0  0  0
 22 24  1  0  0  0  0
 22 18  1  0  0  0  0
 23 24  2  0  0  0  0
 24 19  1  0  0  0  0
 25 23  1  0  0  0  0
 26 28  1  0  0  0  0
 26 20  1  0  0  0  0
 28 27  1  0  0  0  0
 30 29  2  0  0  0  0
 31 30  1  0  0  0  0
 32 33  1  0  0  0  0
 32 31  1  0  0  0  0
 33 34  2  0  0  0  0
M  END
>  <MODEL>
6

>  <REMARK>
 VINA RESULT:      -6.3      3.626      7.784
  Name = 
  9 active torsions:
  status: ('A' for Active; 'I' for Inactive)
    1  A    between atoms: C_3  and  C_24
    2  A    between atoms: C_7  and  C_15
    3  A    between atoms: C_8  and  C_17
    4  A    between atoms: C_15  and  N_21
    5  A    between atoms: C_16  and  N_31
    6  A    between atoms: C_18  and  N_31
    7  A    between atoms: C_24  and  C_25
    8  A    between atoms: C_25  and  C_27
    9  A    between atoms: C_27  and  C_33
                            x       y       z     vdW  Elec       q    Type
                         _______ _______ _______ _____ _____    ______ ____

>  <TORSDO>
F 9

$$$$
=
 OpenBabel10272415143D

 34 40  0  0  1  0  0  0  0  0999 V2000
  188.9590  175.5860  142.9660 O   0  0  0  0  0  0  0  0  0  0  0  0
  189.4680  178.2390  146.4200 O   0  0  0  0  0  0  0  0  0  0  0  0
  187.2630  178.4680  145.4460 C   0  0  0  0  0  2  0  0  0  0  0  0
  188.3500  176.3710  143.7380 C   0  0  0  0  0  0  0  0  0  0  0  0
  185.7110  178.7720  142.4470 C   0  0  2  0  0  3  0  0  0  0  0  0
  184.5940  178.0190  142.8660 O   0  0  0  0  0  0  0  0  0  0  0  0
  186.9160  177.8660  142.1770 C   0  0  2  0  0  3  0  0  0  0  0  0
  186.2980  177.6740  144.5410 C   0  0  2  0  0  3  0  0  0  0  0  0
  186.9980  176.9320  143.3870 C   0  0  2  0  0  3  0  0  0  0  0  0
  185.3390  178.6570  143.8800 C   0  0  1  0  0  3  0  0  0  0  0  0
  188.3230  177.5430  146.0550 C   0  0  1  0  0  0  0  0  0  0  0  0
  190.0940  177.5170  145.4120 C   0  0  1  0  0  0  0  0  0  0  0  0
  188.9180  176.7620  144.9750 N   0  0  0  0  0  0  0  0  0  0  0  0
  188.1510  178.7670  142.0100 C   0  0  2  0  0  3  0  0  0  0  0  0
  188.6160  178.9940  140.5570 C   0  0  1  0  0  3  0  0  0  0  0  0
  189.3090  177.9740  141.4450 C   0  0  0  0  0  2  0  0  0  0  0  0
  186.5160  178.7880  139.3570 O   0  0  0  0  0  1  0  0  0  0  0  0
  187.7750  178.3260  139.5560 N   0  0  0  0  0  0  0  0  0  0  0  0
  186.1340  176.9630  137.6180 F   0  0  0  0  0  0  0  0  0  0  0  0
  190.1340  175.8920  137.9780 C   0  0  0  0  0  0  0  0  0  0  0  0
  189.6120  176.8940  138.8030 C   0  0  0  0  0  3  0  0  0  0  0  0
  188.2720  177.2930  138.6840 C   0  0  0  0  0  0  0  0  0  0  0  0
  187.9750  175.6470  136.9170 C   0  0  0  0  0  3  0  0  0  0  0  0
  187.4500  176.6540  137.7330 C   0  0  0  0  0  0  0  0  0  0  0  0
  189.3140  175.2670  137.0380 C   0  0  0  0  0  3  0  0  0  0  0  0
  191.5560  175.4700  138.1260 C   0  0  0  0  0  2  0  0  0  0  0  0
  193.3520  175.9640  136.7150 C   0  0  0  0  0  1  0  0  0  0  0  0
  192.4400  176.5370  137.6920 N   0  0  0  0  0  2  0  0  0  0  0  0
  191.8270  175.7050  145.0600 S   0  0  0  0  0  0  0  0  0  0  0  0
  191.1630  176.6050  145.9570 C   0  0  0  0  0  0  0  0  0  0  0  0
  191.4780  176.5430  147.4240 C   0  0  0  0  0  2  0  0  0  0  0  0
  192.7330  175.7260  147.7010 C   0  0  0  0  0  2  0  0  0  0  0  0
  193.1070  175.8040  149.1450 C   0  0  0  0  0  3  0  0  0  0  0  0
  193.4560  176.9700  149.6770 C   0  0  0  0  0  2  0  0  0  0  0  0
  1  4  2  0  0  0  0
  4 13  1  0  0  0  0
  5  6  1  6  0  0  0
  5 10  1  0  0  0  0
  7 14  1  1  0  0  0
  7  5  1  0  0  0  0
  7  9  1  0  0  0  0
  8  3  1  6  0  0  0
  9  4  1  1  0  0  0
  9  8  1  0  0  0  0
 10  6  1  6  0  0  0
 10  8  1  0  0  0  0
 11  3  1  6  0  0  0
 11  2  1  0  0  0  0
 12 30  1  1  0  0  0
 12 11  1  0  0  0  0
 12  2  1  0  0  0  0
 13 12  1  0  0  0  0
 13 11  1  0  0  0  0
 14 16  1  1  0  0  0
 15 18  1  6  0  0  0
 15 16  1  0  0  0  0
 15 14  1  0  0  0  0
 17 18  1  0  0  0  0
 19 24  1  0  0  0  0
 20 26  1  0  0  0  0
 20 21  1  0  0  0  0
 22 21  2  0  0  0  0
 22 18  1  0  0  0  0
 23 25  1  0  0  0  0
 23 24  2  0  0  0  0
 24 22  1  0  0  0  0
 25 20  2  0  0  0  0
 27 28  1  0  0  0  0
 28 26  1  0  0  0  0
 29 30  2  0  0  0  0
 30 31  1  0  0  0  0
 31 32  1  0  0  0  0
 32 33  1  0  0  0  0
 33 34  2  0  0  0  0
M  END
>  <MODEL>
7

>  <REMARK>
 VINA RESULT:      -6.3      3.201      7.879
  Name = 
  9 active torsions:
  status: ('A' for Active; 'I' for Inactive)
    1  A    between atoms: C_3  and  C_24
    2  A    between atoms: C_7  and  C_15
    3  A    between atoms: C_8  and  C_17
    4  A    between atoms: C_15  and  N_21
    5  A    between atoms: C_16  and  N_31
    6  A    between atoms: C_18  and  N_31
    7  A    between atoms: C_24  and  C_25
    8  A    between atoms: C_25  and  C_27
    9  A    between atoms: C_27  and  C_33
                            x       y       z     vdW  Elec       q    Type
                         _______ _______ _______ _____ _____    ______ ____

>  <TORSDO>
F 9

$$$$
=
 OpenBabel10272415143D

 34 40  0  0  1  0  0  0  0  0999 V2000
  189.0100  175.4420  142.9720 O   0  0  0  0  0  0  0  0  0  0  0  0
  189.5040  178.2540  146.3000 O   0  0  0  0  0  0  0  0  0  0  0  0
  187.3070  178.4420  145.3020 C   0  0  0  0  0  2  0  0  0  0  0  0
  188.3990  176.2640  143.7020 C   0  0  0  0  0  0  0  0  0  0  0  0
  185.7740  178.6080  142.2820 C   0  0  2  0  0  3  0  0  0  0  0  0
  184.6530  177.8780  142.7290 O   0  0  0  0  0  0  0  0  0  0  0  0
  186.9790  177.6870  142.0630 C   0  0  2  0  0  3  0  0  0  0  0  0
  186.3450  177.6080  144.4290 C   0  0  2  0  0  3  0  0  0  0  0  0
  187.0500  176.8110  143.3160 C   0  0  2  0  0  3  0  0  0  0  0  0
  185.3920  178.5610  143.7170 C   0  0  1  0  0  3  0  0  0  0  0  0
  188.3600  177.5440  145.9600 C   0  0  1  0  0  0  0  0  0  0  0  0
  190.1350  177.4840  145.3310 C   0  0  1  0  0  0  0  0  0  0  0  0
  188.9600  176.7120  144.9230 N   0  0  0  0  0  0  0  0  0  0  0  0
  188.2170  178.5760  141.8620 C   0  0  2  0  0  3  0  0  0  0  0  0
  188.5270  178.9630  140.4010 C   0  0  1  0  0  3  0  0  0  0  0  0
  189.2780  177.8320  141.0820 C   0  0  0  0  0  2  0  0  0  0  0  0
  186.2530  178.7670  139.5740 O   0  0  0  0  0  1  0  0  0  0  0  0
  187.5590  178.4350  139.4320 N   0  0  0  0  0  0  0  0  0  0  0  0
  189.3570  179.4690  137.4310 F   0  0  0  0  0  0  0  0  0  0  0  0
  187.7660  175.6620  136.9320 C   0  0  0  0  0  0  0  0  0  0  0  0
  187.4120  176.4150  138.0560 C   0  0  0  0  0  3  0  0  0  0  0  0
  187.9540  177.6920  138.2630 C   0  0  0  0  0  0  0  0  0  0  0  0
  189.1940  177.4640  136.1800 C   0  0  0  0  0  3  0  0  0  0  0  0
  188.8490  178.2180  137.3070 C   0  0  0  0  0  0  0  0  0  0  0  0
  188.6550  176.1880  135.9930 C   0  0  0  0  0  3  0  0  0  0  0  0
  187.1710  174.3120  136.7200 C   0  0  0  0  0  2  0  0  0  0  0  0
  185.4160  173.1390  137.7210 C   0  0  0  0  0  1  0  0  0  0  0  0
  185.7440  174.3490  136.9860 N   0  0  0  0  0  2  0  0  0  0  0  0
  191.9810  175.7740  145.0500 S   0  0  0  0  0  0  0  0  0  0  0  0
  191.1980  176.5960  145.9260 C   0  0  0  0  0  0  0  0  0  0  0  0
  191.3890  176.4750  147.4100 C   0  0  0  0  0  2  0  0  0  0  0  0
  192.4500  175.4410  147.7630 C   0  0  0  0  0  2  0  0  0  0  0  0
  193.1180  175.7880  149.0530 C   0  0  0  0  0  3  0  0  0  0  0  0
  193.1550  177.0520  149.4610 C   0  0  0  0  0  2  0  0  0  0  0  0
  1  4  2  0  0  0  0
  4 13  1  0  0  0  0
  5  6  1  6  0  0  0
  5 10  1  0  0  0  0
  7 14  1  1  0  0  0
  7  5  1  0  0  0  0
  7  9  1  0  0  0  0
  8  3  1  6  0  0  0
  9  4  1  1  0  0  0
  9  8  1  0  0  0  0
 10  6  1  6  0  0  0
 10  8  1  0  0  0  0
 11  3  1  6  0  0  0
 11  2  1  0  0  0  0
 12 30  1  1  0  0  0
 12 11  1  0  0  0  0
 12  2  1  0  0  0  0
 13 12  1  0  0  0  0
 13 11  1  0  0  0  0
 14 16  1  6  0  0  0
 15 18  1  6  0  0  0
 15 16  1  0  0  0  0
 15 14  1  0  0  0  0
 18 17  1  0  0  0  0
 20 21  1  0  0  0  0
 21 22  2  0  0  0  0
 22 18  1  0  0  0  0
 23 24  2  0  0  0  0
 24 19  1  0  0  0  0
 24 22  1  0  0  0  0
 25 23  1  0  0  0  0
 25 20  2  0  0  0  0
 26 20  1  0  0  0  0
 26 28  1  0  0  0  0
 28 27  1  0  0  0  0
 29 30  2  0  0  0  0
 30 31  1  0  0  0  0
 31 32  1  0  0  0  0
 32 33  1  0  0  0  0
 33 34  2  0  0  0  0
M  END
>  <MODEL>
8

>  <REMARK>
 VINA RESULT:      -6.2      3.936      7.738
  Name = 
  9 active torsions:
  status: ('A' for Active; 'I' for Inactive)
    1  A    between atoms: C_3  and  C_24
    2  A    between atoms: C_7  and  C_15
    3  A    between atoms: C_8  and  C_17
    4  A    between atoms: C_15  and  N_21
    5  A    between atoms: C_16  and  N_31
    6  A    between atoms: C_18  and  N_31
    7  A    between atoms: C_24  and  C_25
    8  A    between atoms: C_25  and  C_27
    9  A    between atoms: C_27  and  C_33
                            x       y       z     vdW  Elec       q    Type
                         _______ _______ _______ _____ _____    ______ ____

>  <TORSDO>
F 9

$$$$
=
 OpenBabel10272415143D

 34 40  0  0  1  0  0  0  0  0999 V2000
  183.2890  176.1090  138.6660 O   0  0  0  0  0  0  0  0  0  0  0  0
  180.1430  174.9390  135.8450 O   0  0  0  0  0  0  0  0  0  0  0  0
  180.3370  177.3460  136.0040 C   0  0  0  0  0  2  0  0  0  0  0  0
  182.4900  176.5510  137.8000 C   0  0  0  0  0  0  0  0  0  0  0  0
  180.6520  179.8340  138.2860 C   0  0  2  0  0  3  0  0  0  0  0  0
  181.4790  180.6040  137.4420 O   0  0  0  0  0  0  0  0  0  0  0  0
  181.4220  178.6520  138.8820 C   0  0  2  0  0  3  0  0  0  0  0  0
  181.3670  178.4090  136.4440 C   0  0  2  0  0  3  0  0  0  0  0  0
  182.1630  178.0160  137.7030 C   0  0  2  0  0  3  0  0  0  0  0  0
  180.6170  179.6840  136.8090 C   0  0  1  0  0  3  0  0  0  0  0  0
  181.0250  176.0050  135.7270 C   0  0  1  0  0  0  0  0  0  0  0  0
  180.9090  174.5700  136.9430 C   0  0  1  0  0  0  0  0  0  0  0  0
  181.8630  175.6790  136.8760 N   0  0  0  0  0  0  0  0  0  0  0  0
  180.4010  177.7130  139.5450 C   0  0  2  0  0  3  0  0  0  0  0  0
  180.1400  177.9680  141.0440 C   0  0  1  0  0  3  0  0  0  0  0  0
  181.0750  176.8580  140.5960 C   0  0  0  0  0  2  0  0  0  0  0  0
  180.3540  180.3380  141.5230 O   0  0  0  0  0  1  0  0  0  0  0  0
  180.8990  179.0990  141.5930 N   0  0  0  0  0  0  0  0  0  0  0  0
  181.0230  178.8390  144.4600 F   0  0  0  0  0  0  0  0  0  0  0  0
  184.5600  178.7740  142.2780 C   0  0  0  0  0  0  0  0  0  0  0  0
  183.3410  178.9310  141.6110 C   0  0  0  0  0  3  0  0  0  0  0  0
  182.1310  178.9300  142.3190 C   0  0  0  0  0  0  0  0  0  0  0  0
  183.3830  178.6410  144.3870 C   0  0  0  0  0  3  0  0  0  0  0  0
  182.1600  178.7890  143.7230 C   0  0  0  0  0  0  0  0  0  0  0  0
  184.5800  178.6330  143.6670 C   0  0  0  0  0  3  0  0  0  0  0  0
  185.8380  178.7910  141.5120 C   0  0  0  0  0  2  0  0  0  0  0  0
  188.1400  178.4110  141.6340 C   0  0  0  0  0  1  0  0  0  0  0  0
  186.8650  178.0670  142.2410 N   0  0  0  0  0  2  0  0  0  0  0  0
  180.9490  172.0510  137.1990 S   0  0  0  0  0  0  0  0  0  0  0  0
  181.5920  173.2430  136.7300 C   0  0  0  0  0  0  0  0  0  0  0  0
  182.9670  173.1470  136.1330 C   0  0  0  0  0  2  0  0  0  0  0  0
  183.8890  172.2710  136.9690 C   0  0  0  0  0  2  0  0  0  0  0  0
  184.8730  173.1060  137.7210 C   0  0  0  0  0  3  0  0  0  0  0  0
  186.1460  173.1360  137.3400 C   0  0  0  0  0  2  0  0  0  0  0  0
  2 12  1  0  0  0  0
  4  1  2  0  0  0  0
  5  6  1  6  0  0  0
  5  7  1  0  0  0  0
  7 14  1  6  0  0  0
  8  3  1  1  0  0  0
  8 10  1  0  0  0  0
  8  9  1  0  0  0  0
  9  4  1  1  0  0  0
  9  7  1  0  0  0  0
 10  6  1  6  0  0  0
 10  5  1  0  0  0  0
 11  2  1  0  0  0  0
 11  3  1  1  0  0  0
 11 13  1  0  0  0  0
 11 12  1  0  0  0  0
 12 30  1  6  0  0  0
 13 12  1  0  0  0  0
 13  4  1  0  0  0  0
 14 16  1  1  0  0  0
 14 15  1  0  0  0  0
 15 18  1  1  0  0  0
 16 15  1  0  0  0  0
 17 18  1  0  0  0  0
 18 22  1  0  0  0  0
 20 25  1  0  0  0  0
 21 20  2  0  0  0  0
 21 22  1  0  0  0  0
 22 24  2  0  0  0  0
 24 23  1  0  0  0  0
 24 19  1  0  0  0  0
 25 23  2  0  0  0  0
 26 28  1  0  0  0  0
 26 20  1  0  0  0  0
 27 28  1  0  0  0  0
 30 29  2  0  0  0  0
 31 30  1  0  0  0  0
 31 32  1  0  0  0  0
 32 33  1  0  0  0  0
 34 33  2  0  0  0  0
M  END
>  <MODEL>
9

>  <REMARK>
 VINA RESULT:      -6.2      6.177      8.586
  Name = 
  9 active torsions:
  status: ('A' for Active; 'I' for Inactive)
    1  A    between atoms: C_3  and  C_24
    2  A    between atoms: C_7  and  C_15
    3  A    between atoms: C_8  and  C_17
    4  A    between atoms: C_15  and  N_21
    5  A    between atoms: C_16  and  N_31
    6  A    between atoms: C_18  and  N_31
    7  A    between atoms: C_24  and  C_25
    8  A    between atoms: C_25  and  C_27
    9  A    between atoms: C_27  and  C_33
                            x       y       z     vdW  Elec       q    Type
                         _______ _______ _______ _____ _____    ______ ____

>  <TORSDO>
F 9

$$$$
