=
 OpenBabel10272414113D

 43 47  0  0  1  0  0  0  0  0999 V2000
  192.2510  176.4300  148.1420 C   0  0  0  0  0  0  0  0  0  0  0  0
  188.7880  177.2400  144.5470 C   0  0  0  0  0  0  0  0  0  0  0  0
  189.5830  176.0580  142.1140 C   0  0  1  0  0  3  0  0  0  0  0  0
  190.3220  177.2030  146.8980 C   0  0  0  0  0  0  0  0  0  0  0  0
  192.6870  175.7110  147.0270 C   0  0  0  0  0  3  0  0  0  0  0  0
  192.9910  176.4040  149.3170 O   0  0  0  0  0  1  0  0  0  0  0  0
  190.7610  176.4840  145.7600 C   0  0  0  0  0  0  0  0  0  0  0  0
  191.0710  177.1740  148.0780 C   0  0  0  0  0  3  0  0  0  0  0  0
  191.9480  175.7370  145.8420 C   0  0  0  0  0  3  0  0  0  0  0  0
  190.4870  175.8240  143.3290 C   0  0  0  0  0  2  0  0  0  0  0  0
  190.0050  176.5310  144.5690 C   0  0  0  0  0  0  0  0  0  0  0  0
  188.3840  177.9680  145.6760 C   0  0  0  0  0  3  0  0  0  0  0  0
  187.9970  177.3050  143.2580 C   0  0  1  0  0  3  0  0  0  0  0  0
  188.2110  176.1710  142.4430 O   0  0  0  0  0  0  0  0  0  0  0  0
  189.1440  177.9450  146.8450 C   0  0  0  0  0  3  0  0  0  0  0  0
  190.1030  177.0850  141.0970 C   0  0  1  0  0  3  0  0  0  0  0  0
  191.2650  177.8540  141.7100 C   0  0  0  0  0  1  0  0  0  0  0  0
  190.5010  176.4570  139.8390 N   0  0  0  0  0  2  0  0  0  0  0  0
  189.5930  176.8980  138.7850 C   0  0  1  0  0  3  0  0  0  0  0  0
  189.2090  178.3470  139.0250 C   0  0  0  0  0  1  0  0  0  0  0  0
  190.2710  176.8030  137.4180 C   0  0  0  0  0  2  0  0  0  0  0  0
  190.8210  175.4110  137.0980 C   0  0  1  0  0  3  0  0  0  0  0  0
  190.7270  173.3180  135.2550 C   0  0  0  0  0  2  0  0  0  0  0  0
  189.6470  174.4540  136.8450 C   0  0  0  0  0  2  0  0  0  0  0  0
  191.7700  175.4410  135.9560 N   0  0  0  0  0  0  0  0  0  0  0  0
  192.0260  174.0930  135.4270 C   0  0  0  0  0  2  0  0  0  0  0  0
  190.1170  173.1770  136.5080 O   0  0  0  0  0  0  0  0  0  0  0  0
  193.0930  175.9660  136.3340 C   0  0  0  0  0  3  0  0  0  0  0  0
  194.2290  175.6840  135.3380 C   0  0  0  0  0  2  0  0  0  0  0  0
  195.3020  177.7660  135.7870 O   0  0  0  0  0  1  0  0  0  0  0  0
  194.7760  176.9800  134.7630 C   0  0  0  0  0  2  0  0  0  0  0  0
  193.4330  175.7360  137.8100 C   0  0  0  0  0  2  0  0  0  0  0  0
  195.3030  175.1190  139.1510 O   0  0  0  0  0  1  0  0  0  0  0  0
  194.5820  174.7600  138.0120 C   0  0  0  0  0  2  0  0  0  0  0  0
  186.4950  177.5140  143.4780 C   0  0  0  0  0  2  0  0  0  0  0  0
  183.7960  177.9920  141.5030 C   0  0  0  0  0  2  0  0  0  0  0  0
  184.3960  178.8440  140.0160 P   0  0  1  0  0  0  0  0  0  0  0  0
  184.5940  177.7400  138.7520 O   0  0  0  0  0  0  0  0  0  0  0  0
  186.5310  178.6600  141.2610 C   0  0  0  0  0  2  0  0  0  0  0  0
  184.4070  178.6950  142.7100 C   0  0  0  0  0  2  0  0  0  0  0  0
  185.9480  178.6950  142.6840 C   0  0  1  0  0  3  0  0  0  0  0  0
  183.4040  179.9130  139.6120 O   0  0  0  0  0  1  0  0  0  0  0  0
  185.8840  179.5680  140.4090 O   0  0  0  0  0  0  0  0  0  0  0  0
  1  6  1  0  0  0  0
  2 11  2  0  0  0  0
  2 12  1  0  0  0  0
  3 16  1  1  0  0  0
  3 14  1  0  0  0  0
  3 10  1  0  0  0  0
  4  8  2  0  0  0  0
  5  1  2  0  0  0  0
  7  9  2  0  0  0  0
  7  4  1  0  0  0  0
  8  1  1  0  0  0  0
  9  5  1  0  0  0  0
 10 11  1  0  0  0  0
 11  7  1  0  0  0  0
 12 15  2  0  0  0  0
 13 35  1  1  0  0  0
 13  2  1  0  0  0  0
 14 13  1  0  0  0  0
 15  4  1  0  0  0  0
 16 17  1  1  0  0  0
 18 16  1  0  0  0  0
 19 20  1  1  0  0  0
 19 18  1  0  0  0  0
 21 19  1  0  0  0  0
 22 21  1  6  0  0  0
 23 26  1  0  0  0  0
 23 27  1  0  0  0  0
 24 22  1  0  0  0  0
 25 28  1  0  0  0  0
 25 22  1  0  0  0  0
 26 25  1  0  0  0  0
 27 24  1  0  0  0  0
 28 32  1  0  0  0  0
 29 28  1  0  0  0  0
 31 29  1  0  0  0  0
 31 30  1  0  0  0  0
 32 34  1  0  0  0  0
 34 33  1  0  0  0  0
 36 40  1  0  0  0  0
 37 38  2  6  0  0  0
 37 43  1  0  0  0  0
 37 36  1  0  0  0  0
 39 41  1  0  0  0  0
 41 40  1  0  0  0  0
 41 35  1  1  0  0  0
 42 37  1  0  0  0  0
 43 39  1  0  0  0  0
M  END
>  <MODEL>
1

>  <REMARK>
 VINA RESULT:      -8.0      0.000      0.000
  Name = 
  12 active torsions:
  status: ('A' for Active; 'I' for Inactive)
    1  A    between atoms: C_1  and  C_34
    2  A    between atoms: C_1  and  C_35
    3  A    between atoms: C_2  and  N_6
    4  A    between atoms: C_2  and  C_13
    5  A    between atoms: C_3  and  C_4
    6  A    between atoms: C_3  and  C_12
    7  A    between atoms: N_6  and  C_12
    8  A    between atoms: C_11  and  C_14
    9  A    between atoms: C_11  and  C_36
   10  A    between atoms: C_14  and  N_22
   11  A    between atoms: C_14  and  C_40
   12  A    between atoms: C_31  and  C_40
                            x       y       z     vdW  Elec       q    Type
                         _______ _______ _______ _____ _____    ______ ____

>  <TORSDO>
F 12

$$$$
=
 OpenBabel10272414113D

 43 47  0  0  1  0  0  0  0  0999 V2000
  187.7340  177.5150  147.2930 C   0  0  0  0  0  0  0  0  0  0  0  0
  187.5480  177.9740  142.2600 C   0  0  0  0  0  0  0  0  0  0  0  0
  185.0930  179.1010  141.4540 C   0  0  1  0  0  3  0  0  0  0  0  0
  188.2220  177.3970  144.9240 C   0  0  0  0  0  0  0  0  0  0  0  0
  186.5380  178.1820  147.0170 C   0  0  0  0  0  3  0  0  0  0  0  0
  188.0880  177.2410  148.6070 O   0  0  0  0  0  1  0  0  0  0  0  0
  187.0100  178.0660  144.6340 C   0  0  0  0  0  0  0  0  0  0  0  0
  188.5750  177.1240  146.2490 C   0  0  0  0  0  3  0  0  0  0  0  0
  186.1770  178.4560  145.6960 C   0  0  0  0  0  3  0  0  0  0  0  0
  185.3400  178.9790  142.9610 C   0  0  0  0  0  2  0  0  0  0  0  0
  186.6560  178.3250  143.2930 C   0  0  0  0  0  0  0  0  0  0  0  0
  188.7330  177.2880  142.5650 C   0  0  0  0  0  3  0  0  0  0  0  0
  187.1500  178.2340  140.8230 C   0  0  1  0  0  3  0  0  0  0  0  0
  186.2710  179.3340  140.7030 O   0  0  0  0  0  0  0  0  0  0  0  0
  189.0710  177.0070  143.8890 C   0  0  0  0  0  3  0  0  0  0  0  0
  184.1290  178.0620  140.8600 C   0  0  1  0  0  3  0  0  0  0  0  0
  182.7750  178.1870  141.5420 C   0  0  0  0  0  1  0  0  0  0  0  0
  183.9970  178.2030  139.4110 N   0  0  0  0  0  2  0  0  0  0  0  0
  182.6130  178.5390  139.0950 C   0  0  1  0  0  3  0  0  0  0  0  0
  182.5320  179.9960  138.6750 C   0  0  0  0  0  1  0  0  0  0  0  0
  182.1020  177.6800  137.9390 C   0  0  0  0  0  2  0  0  0  0  0  0
  181.8740  176.2140  138.3160 C   0  0  1  0  0  3  0  0  0  0  0  0
  179.9820  174.1630  138.3530 C   0  0  0  0  0  2  0  0  0  0  0  0
  180.6350  176.1140  139.2190 C   0  0  0  0  0  2  0  0  0  0  0  0
  181.7580  175.3460  137.1160 N   0  0  0  0  0  0  0  0  0  0  0  0
  181.2010  174.0280  137.4500 C   0  0  0  0  0  2  0  0  0  0  0  0
  180.3740  174.7780  139.5490 O   0  0  0  0  0  0  0  0  0  0  0  0
  183.0620  175.0680  136.4900 C   0  0  0  0  0  3  0  0  0  0  0  0
  183.1240  175.2640  134.9670 C   0  0  0  0  0  2  0  0  0  0  0  0
  184.6490  177.0120  135.5190 O   0  0  0  0  0  1  0  0  0  0  0  0
  183.6440  176.6490  134.6230 C   0  0  0  0  0  2  0  0  0  0  0  0
  183.7240  173.7930  137.0220 C   0  0  0  0  0  2  0  0  0  0  0  0
  185.7400  172.7740  137.7820 O   0  0  0  0  0  1  0  0  0  0  0  0
  185.1750  174.0000  137.4290 C   0  0  0  0  0  2  0  0  0  0  0  0
  188.3480  178.4190  139.8850 C   0  0  0  0  0  2  0  0  0  0  0  0
  188.1560  176.0640  137.4700 C   0  0  0  0  0  2  0  0  0  0  0  0
  188.9330  176.7830  135.9950 P   0  0  1  0  0  0  0  0  0  0  0  0
  190.5150  176.2120  135.8320 O   0  0  0  0  0  1  0  0  0  0  0  0
  189.1850  178.6950  137.5510 C   0  0  0  0  0  2  0  0  0  0  0  0
  187.2170  177.1160  138.0490 C   0  0  0  0  0  2  0  0  0  0  0  0
  187.9420  178.4270  138.4160 C   0  0  1  0  0  3  0  0  0  0  0  0
  188.1270  176.4120  134.7690 O   0  0  0  0  0  0  0  0  0  0  0  0
  188.9310  178.4720  136.1890 O   0  0  0  0  0  0  0  0  0  0  0  0
  1  6  1  0  0  0  0
  2 12  2  0  0  0  0
  2 11  1  0  0  0  0
  3 16  1  6  0  0  0
  3 10  1  0  0  0  0
  4  8  1  0  0  0  0
  5  1  1  0  0  0  0
  7  4  1  0  0  0  0
  7  9  1  0  0  0  0
  8  1  2  0  0  0  0
  9  5  2  0  0  0  0
 10 11  1  0  0  0  0
 11  7  2  0  0  0  0
 12 15  1  0  0  0  0
 13 35  1  6  0  0  0
 13  2  1  0  0  0  0
 14 13  1  0  0  0  0
 14  3  1  0  0  0  0
 15  4  2  0  0  0  0
 16 17  1  1  0  0  0
 18 16  1  0  0  0  0
 19 20  1  6  0  0  0
 19 18  1  0  0  0  0
 21 19  1  0  0  0  0
 22 21  1  6  0  0  0
 22 24  1  0  0  0  0
 23 27  1  0  0  0  0
 24 27  1  0  0  0  0
 25 26  1  0  0  0  0
 25 22  1  0  0  0  0
 26 23  1  0  0  0  0
 28 32  1  0  0  0  0
 28 25  1  0  0  0  0
 29 28  1  0  0  0  0
 31 29  1  0  0  0  0
 31 30  1  0  0  0  0
 32 34  1  0  0  0  0
 34 33  1  0  0  0  0
 36 40  1  0  0  0  0
 37 42  2  6  0  0  0
 37 43  1  0  0  0  0
 37 36  1  0  0  0  0
 38 37  1  0  0  0  0
 39 41  1  0  0  0  0
 40 41  1  0  0  0  0
 41 35  1  1  0  0  0
 43 39  1  0  0  0  0
M  END
>  <MODEL>
2

>  <REMARK>
 VINA RESULT:      -8.0      3.990      7.322
  Name = 
  12 active torsions:
  status: ('A' for Active; 'I' for Inactive)
    1  A    between atoms: C_1  and  C_34
    2  A    between atoms: C_1  and  C_35
    3  A    between atoms: C_2  and  N_6
    4  A    between atoms: C_2  and  C_13
    5  A    between atoms: C_3  and  C_4
    6  A    between atoms: C_3  and  C_12
    7  A    between atoms: N_6  and  C_12
    8  A    between atoms: C_11  and  C_14
    9  A    between atoms: C_11  and  C_36
   10  A    between atoms: C_14  and  N_22
   11  A    between atoms: C_14  and  C_40
   12  A    between atoms: C_31  and  C_40
                            x       y       z     vdW  Elec       q    Type
                         _______ _______ _______ _____ _____    ______ ____

>  <TORSDO>
F 12

$$$$
=
 OpenBabel10272414113D

 43 47  0  0  1  0  0  0  0  0999 V2000
  191.9710  176.4360  147.8220 C   0  0  0  0  0  0  0  0  0  0  0  0
  188.3560  177.4970  144.4490 C   0  0  0  0  0  0  0  0  0  0  0  0
  189.0590  176.5250  141.8970 C   0  0  1  0  0  3  0  0  0  0  0  0
  189.9870  177.2860  146.7240 C   0  0  0  0  0  0  0  0  0  0  0  0
  192.3670  175.8160  146.6350 C   0  0  0  0  0  3  0  0  0  0  0  0
  192.7600  176.3230  148.9590 O   0  0  0  0  0  1  0  0  0  0  0  0
  190.3830  176.6670  145.5150 C   0  0  0  0  0  0  0  0  0  0  0  0
  190.7840  177.1690  147.8670 C   0  0  0  0  0  3  0  0  0  0  0  0
  191.5790  175.9300  145.4870 C   0  0  0  0  0  3  0  0  0  0  0  0
  190.0140  176.2040  143.0510 C   0  0  0  0  0  2  0  0  0  0  0  0
  189.5790  176.8020  144.3630 C   0  0  0  0  0  0  0  0  0  0  0  0
  187.9930  178.1260  145.6490 C   0  0  0  0  0  3  0  0  0  0  0  0
  187.5120  177.6570  143.2030 C   0  0  1  0  0  3  0  0  0  0  0  0
  187.7000  176.5950  142.2900 O   0  0  0  0  0  0  0  0  0  0  0  0
  188.8010  178.0160  146.7810 C   0  0  0  0  0  3  0  0  0  0  0  0
  189.5280  177.6380  140.9470 C   0  0  1  0  0  3  0  0  0  0  0  0
  191.0490  177.6560  140.9080 C   0  0  0  0  0  1  0  0  0  0  0  0
  188.9750  177.4800  139.6030 N   0  0  0  0  0  2  0  0  0  0  0  0
  190.0730  177.2940  138.6610 C   0  0  1  0  0  3  0  0  0  0  0  0
  190.2710  175.8100  138.4060 C   0  0  0  0  0  1  0  0  0  0  0  0
  189.7570  177.9690  137.3270 C   0  0  0  0  0  2  0  0  0  0  0  0
  188.5560  177.3610  136.5990 C   0  0  1  0  0  3  0  0  0  0  0  0
  186.5620  177.8770  134.7160 C   0  0  0  0  0  2  0  0  0  0  0  0
  187.3450  178.2910  136.7650 C   0  0  0  0  0  2  0  0  0  0  0  0
  188.8550  177.0890  135.1700 N   0  0  0  0  0  0  0  0  0  0  0  0
  187.6310  176.8410  134.3950 C   0  0  0  0  0  2  0  0  0  0  0  0
  186.2360  177.7830  136.0740 O   0  0  0  0  0  0  0  0  0  0  0  0
  189.6810  175.8840  134.9840 C   0  0  0  0  0  3  0  0  0  0  0  0
  191.0630  176.1160  134.3520 C   0  0  0  0  0  2  0  0  0  0  0  0
  193.3960  176.2510  134.8290 O   0  0  0  0  0  1  0  0  0  0  0  0
  192.1680  175.8620  135.3640 C   0  0  0  0  0  2  0  0  0  0  0  0
  188.8920  174.6920  134.4330 C   0  0  0  0  0  2  0  0  0  0  0  0
  188.2730  173.7530  136.5330 O   0  0  0  0  0  1  0  0  0  0  0  0
  188.9410  173.4730  135.3400 C   0  0  0  0  0  2  0  0  0  0  0  0
  186.0180  177.8300  143.5000 C   0  0  0  0  0  2  0  0  0  0  0  0
  183.3060  177.9400  141.4890 C   0  0  0  0  0  2  0  0  0  0  0  0
  183.8390  178.7560  139.9570 P   0  0  1  0  0  0  0  0  0  0  0  0
  184.1520  177.6040  138.7610 O   0  0  0  0  0  0  0  0  0  0  0  0
  185.9700  178.8440  141.2200 C   0  0  0  0  0  2  0  0  0  0  0  0
  183.8380  178.7670  142.6540 C   0  0  0  0  0  2  0  0  0  0  0  0
  185.3730  178.9070  142.6360 C   0  0  1  0  0  3  0  0  0  0  0  0
  182.7570  179.7030  139.4860 O   0  0  0  0  0  1  0  0  0  0  0  0
  185.2500  179.6360  140.3130 O   0  0  0  0  0  0  0  0  0  0  0  0
  1  8  1  0  0  0  0
  1  6  1  0  0  0  0
  2 12  1  0  0  0  0
  3 16  1  1  0  0  0
  3 14  1  0  0  0  0
  3 10  1  0  0  0  0
  4 15  1  0  0  0  0
  4  8  2  0  0  0  0
  5  1  2  0  0  0  0
  7  4  1  0  0  0  0
  9  7  2  0  0  0  0
  9  5  1  0  0  0  0
 10 11  1  0  0  0  0
 11  2  2  0  0  0  0
 11  7  1  0  0  0  0
 12 15  2  0  0  0  0
 13 35  1  1  0  0  0
 13  2  1  0  0  0  0
 14 13  1  0  0  0  0
 16 17  1  6  0  0  0
 18 16  1  0  0  0  0
 19 20  1  6  0  0  0
 19 18  1  0  0  0  0
 21 19  1  0  0  0  0
 22 24  1  0  0  0  0
 22 21  1  6  0  0  0
 23 27  1  0  0  0  0
 25 22  1  0  0  0  0
 26 23  1  0  0  0  0
 26 25  1  0  0  0  0
 27 24  1  0  0  0  0
 28 25  1  0  0  0  0
 29 28  1  0  0  0  0
 29 31  1  0  0  0  0
 30 31  1  0  0  0  0
 32 28  1  0  0  0  0
 32 34  1  0  0  0  0
 34 33  1  0  0  0  0
 36 40  1  0  0  0  0
 37 38  2  6  0  0  0
 37 43  1  0  0  0  0
 37 36  1  0  0  0  0
 39 41  1  0  0  0  0
 41 40  1  0  0  0  0
 41 35  1  1  0  0  0
 42 37  1  0  0  0  0
 43 39  1  0  0  0  0
M  END
>  <MODEL>
3

>  <REMARK>
 VINA RESULT:      -7.9      1.679      2.802
  Name = 
  12 active torsions:
  status: ('A' for Active; 'I' for Inactive)
    1  A    between atoms: C_1  and  C_34
    2  A    between atoms: C_1  and  C_35
    3  A    between atoms: C_2  and  N_6
    4  A    between atoms: C_2  and  C_13
    5  A    between atoms: C_3  and  C_4
    6  A    between atoms: C_3  and  C_12
    7  A    between atoms: N_6  and  C_12
    8  A    between atoms: C_11  and  C_14
    9  A    between atoms: C_11  and  C_36
   10  A    between atoms: C_14  and  N_22
   11  A    between atoms: C_14  and  C_40
   12  A    between atoms: C_31  and  C_40
                            x       y       z     vdW  Elec       q    Type
                         _______ _______ _______ _____ _____    ______ ____

>  <TORSDO>
F 12

$$$$
=
 OpenBabel10272414113D

 43 47  0  0  1  0  0  0  0  0999 V2000
  192.3050  176.4670  148.1920 C   0  0  0  0  0  0  0  0  0  0  0  0
  188.8690  177.2500  144.5640 C   0  0  0  0  0  0  0  0  0  0  0  0
  189.6410  175.9780  142.1700 C   0  0  1  0  0  3  0  0  0  0  0  0
  190.3970  177.2470  146.9200 C   0  0  0  0  0  0  0  0  0  0  0  0
  192.7270  175.7050  147.0990 C   0  0  0  0  0  3  0  0  0  0  0  0
  193.0410  176.4590  149.3680 O   0  0  0  0  0  1  0  0  0  0  0  0
  190.8210  176.4850  145.8050 C   0  0  0  0  0  0  0  0  0  0  0  0
  191.1430  177.2360  148.1020 C   0  0  0  0  0  3  0  0  0  0  0  0
  191.9900  175.7130  145.9120 C   0  0  0  0  0  3  0  0  0  0  0  0
  190.5370  175.7590  143.3940 C   0  0  0  0  0  2  0  0  0  0  0  0
  190.0690  176.5140  144.6110 C   0  0  0  0  0  0  0  0  0  0  0  0
  188.4790  178.0200  145.6700 C   0  0  0  0  0  3  0  0  0  0  0  0
  188.0820  177.2950  143.2720 C   0  0  1  0  0  3  0  0  0  0  0  0
  188.2710  176.1320  142.4920 O   0  0  0  0  0  0  0  0  0  0  0  0
  189.2360  178.0140  146.8420 C   0  0  0  0  0  3  0  0  0  0  0  0
  190.1870  176.9630  141.1240 C   0  0  1  0  0  3  0  0  0  0  0  0
  191.0810  177.9830  141.8140 C   0  0  0  0  0  1  0  0  0  0  0  0
  190.9090  176.2790  140.0530 N   0  0  0  0  0  2  0  0  0  0  0  0
  190.4080  176.7580  138.7680 C   0  0  1  0  0  3  0  0  0  0  0  0
  191.5370  176.7430  137.7520 C   0  0  0  0  0  1  0  0  0  0  0  0
  189.2920  175.8500  138.2550 C   0  0  0  0  0  2  0  0  0  0  0  0
  188.0360  176.6060  137.8150 C   0  0  1  0  0  3  0  0  0  0  0  0
  187.0700  178.5460  136.0570 C   0  0  0  0  0  2  0  0  0  0  0  0
  188.3180  178.1150  137.8570 C   0  0  0  0  0  2  0  0  0  0  0  0
  187.5650  176.1650  136.4770 N   0  0  0  0  0  0  0  0  0  0  0  0
  186.5920  177.1080  135.9060 C   0  0  0  0  0  2  0  0  0  0  0  0
  187.1990  178.8370  137.4210 O   0  0  0  0  0  0  0  0  0  0  0  0
  186.8680  174.8690  136.5200 C   0  0  0  0  0  3  0  0  0  0  0  0
  187.3870  173.8020  135.5430 C   0  0  0  0  0  2  0  0  0  0  0  0
  187.8830  172.2100  137.2480 O   0  0  0  0  0  1  0  0  0  0  0  0
  188.4500  172.9390  136.2020 C   0  0  0  0  0  2  0  0  0  0  0  0
  185.3450  175.0070  136.6030 C   0  0  0  0  0  2  0  0  0  0  0  0
  184.7070  173.1820  137.9960 O   0  0  0  0  0  1  0  0  0  0  0  0
  184.6280  173.6690  136.6900 C   0  0  0  0  0  2  0  0  0  0  0  0
  186.5850  177.5450  143.4820 C   0  0  0  0  0  2  0  0  0  0  0  0
  183.8180  178.0810  141.6190 C   0  0  0  0  0  2  0  0  0  0  0  0
  184.3870  178.8150  140.0590 P   0  0  1  0  0  0  0  0  0  0  0  0
  184.4550  177.6350  138.8510 O   0  0  0  0  0  0  0  0  0  0  0  0
  186.5710  178.5670  141.2050 C   0  0  0  0  0  2  0  0  0  0  0  0
  184.5320  178.8090  142.7520 C   0  0  0  0  0  2  0  0  0  0  0  0
  186.0670  178.7130  142.6510 C   0  0  1  0  0  3  0  0  0  0  0  0
  183.4390  179.9190  139.6440 O   0  0  0  0  0  1  0  0  0  0  0  0
  185.9340  179.4660  140.3360 O   0  0  0  0  0  0  0  0  0  0  0  0
  1  6  1  0  0  0  0
  2 11  2  0  0  0  0
  2 12  1  0  0  0  0
  3 16  1  1  0  0  0
  3 14  1  0  0  0  0
  3 10  1  0  0  0  0
  4  8  2  0  0  0  0
  5  1  2  0  0  0  0
  7  9  2  0  0  0  0
  7  4  1  0  0  0  0
  8  1  1  0  0  0  0
  9  5  1  0  0  0  0
 10 11  1  0  0  0  0
 11  7  1  0  0  0  0
 12 15  2  0  0  0  0
 13 35  1  1  0  0  0
 13  2  1  0  0  0  0
 14 13  1  0  0  0  0
 15  4  1  0  0  0  0
 16 17  1  1  0  0  0
 18 16  1  0  0  0  0
 19 20  1  6  0  0  0
 19 18  1  0  0  0  0
 21 19  1  0  0  0  0
 22 24  1  0  0  0  0
 22 21  1  6  0  0  0
 23 27  1  0  0  0  0
 25 28  1  0  0  0  0
 25 22  1  0  0  0  0
 26 23  1  0  0  0  0
 26 25  1  0  0  0  0
 27 24  1  0  0  0  0
 28 32  1  0  0  0  0
 29 31  1  0  0  0  0
 29 28  1  0  0  0  0
 31 30  1  0  0  0  0
 32 34  1  0  0  0  0
 34 33  1  0  0  0  0
 36 40  1  0  0  0  0
 37 38  2  6  0  0  0
 37 43  1  0  0  0  0
 37 36  1  0  0  0  0
 39 41  1  0  0  0  0
 41 40  1  0  0  0  0
 41 35  1  1  0  0  0
 42 37  1  0  0  0  0
 43 39  1  0  0  0  0
M  END
>  <MODEL>
4

>  <REMARK>
 VINA RESULT:      -7.8      2.379      4.044
  Name = 
  12 active torsions:
  status: ('A' for Active; 'I' for Inactive)
    1  A    between atoms: C_1  and  C_34
    2  A    between atoms: C_1  and  C_35
    3  A    between atoms: C_2  and  N_6
    4  A    between atoms: C_2  and  C_13
    5  A    between atoms: C_3  and  C_4
    6  A    between atoms: C_3  and  C_12
    7  A    between atoms: N_6  and  C_12
    8  A    between atoms: C_11  and  C_14
    9  A    between atoms: C_11  and  C_36
   10  A    between atoms: C_14  and  N_22
   11  A    between atoms: C_14  and  C_40
   12  A    between atoms: C_31  and  C_40
                            x       y       z     vdW  Elec       q    Type
                         _______ _______ _______ _____ _____    ______ ____

>  <TORSDO>
F 12

$$$$
=
 OpenBabel10272414113D

 43 47  0  0  1  0  0  0  0  0999 V2000
  191.6140  176.4320  147.1930 C   0  0  0  0  0  0  0  0  0  0  0  0
  187.5970  177.6320  144.3660 C   0  0  0  0  0  0  0  0  0  0  0  0
  188.1860  177.3430  141.6250 C   0  0  1  0  0  3  0  0  0  0  0  0
  189.4420  177.1880  146.4350 C   0  0  0  0  0  0  0  0  0  0  0  0
  191.9790  176.1450  145.8760 C   0  0  0  0  0  3  0  0  0  0  0  0
  192.5110  176.1990  148.2270 O   0  0  0  0  0  1  0  0  0  0  0  0
  189.8050  176.9080  145.0960 C   0  0  0  0  0  0  0  0  0  0  0  0
  190.3490  176.9520  147.4730 C   0  0  0  0  0  3  0  0  0  0  0  0
  191.0800  176.3810  144.8320 C   0  0  0  0  0  3  0  0  0  0  0  0
  189.2770  176.9300  142.6180 C   0  0  0  0  0  2  0  0  0  0  0  0
  188.8880  177.1630  144.0550 C   0  0  0  0  0  0  0  0  0  0  0  0
  187.2640  177.9290  145.6960 C   0  0  0  0  0  3  0  0  0  0  0  0
  186.6280  177.9260  143.2410 C   0  0  1  0  0  3  0  0  0  0  0  0
  186.8720  177.1230  142.1040 O   0  0  0  0  0  0  0  0  0  0  0  0
  188.1800  177.7030  146.7250 C   0  0  0  0  0  3  0  0  0  0  0  0
  188.4140  178.6910  140.9210 C   0  0  1  0  0  3  0  0  0  0  0  0
  189.3620  179.5380  141.7570 C   0  0  0  0  0  1  0  0  0  0  0  0
  188.9280  178.5190  139.5640 N   0  0  0  0  0  2  0  0  0  0  0  0
  188.0480  177.6080  138.8390 C   0  0  1  0  0  3  0  0  0  0  0  0
  186.7010  178.2750  138.6240 C   0  0  0  0  0  1  0  0  0  0  0  0
  188.6360  177.2690  137.4700 C   0  0  0  0  0  2  0  0  0  0  0  0
  189.1000  175.8160  137.3430 C   0  0  1  0  0  3  0  0  0  0  0  0
  188.9130  173.5180  135.7710 C   0  0  0  0  0  2  0  0  0  0  0  0
  187.8720  174.9100  137.1720 C   0  0  0  0  0  2  0  0  0  0  0  0
  190.0770  175.6430  136.2370 N   0  0  0  0  0  0  0  0  0  0  0  0
  190.2560  174.2260  135.8870 C   0  0  0  0  0  2  0  0  0  0  0  0
  188.2650  173.5740  137.0110 O   0  0  0  0  0  0  0  0  0  0  0  0
  191.4230  176.1270  136.5890 C   0  0  0  0  0  3  0  0  0  0  0  0
  192.4680  176.0600  135.4640 C   0  0  0  0  0  2  0  0  0  0  0  0
  194.5720  176.9200  136.1850 O   0  0  0  0  0  1  0  0  0  0  0  0
  193.8440  175.7420  136.0260 C   0  0  0  0  0  2  0  0  0  0  0  0
  191.8950  175.6450  137.9640 C   0  0  0  0  0  2  0  0  0  0  0  0
  193.4730  176.8700  139.2630 O   0  0  0  0  0  1  0  0  0  0  0  0
  192.1160  176.7810  138.9510 C   0  0  0  0  0  2  0  0  0  0  0  0
  185.1580  177.8060  143.6580 C   0  0  0  0  0  2  0  0  0  0  0  0
  181.9680  178.8180  144.1140 C   0  0  0  0  0  2  0  0  0  0  0  0
  181.2600  179.0370  142.4570 P   0  0  1  0  0  0  0  0  0  0  0  0
  180.3250  177.6920  142.0400 O   0  0  0  0  0  0  0  0  0  0  0  0
  183.5530  178.3410  141.8240 C   0  0  0  0  0  2  0  0  0  0  0  0
  183.3380  179.4860  144.1170 C   0  0  0  0  0  2  0  0  0  0  0  0
  184.2890  178.9010  143.0530 C   0  0  1  0  0  3  0  0  0  0  0  0
  180.4020  180.2830  142.4340 O   0  0  0  0  0  1  0  0  0  0  0  0
  182.5550  179.2160  141.3690 O   0  0  0  0  0  0  0  0  0  0  0  0
  1  8  1  0  0  0  0
  1  6  1  0  0  0  0
  2 12  1  0  0  0  0
  3 16  1  1  0  0  0
  3 14  1  0  0  0  0
  3 10  1  0  0  0  0
  4 15  1  0  0  0  0
  4  8  2  0  0  0  0
  5  1  2  0  0  0  0
  7  4  1  0  0  0  0
  9  7  2  0  0  0  0
  9  5  1  0  0  0  0
 10 11  1  0  0  0  0
 11  2  2  0  0  0  0
 11  7  1  0  0  0  0
 12 15  2  0  0  0  0
 13 35  1  1  0  0  0
 13  2  1  0  0  0  0
 14 13  1  0  0  0  0
 16 17  1  1  0  0  0
 18 16  1  0  0  0  0
 19 20  1  6  0  0  0
 19 18  1  0  0  0  0
 21 19  1  0  0  0  0
 22 21  1  6  0  0  0
 23 26  1  0  0  0  0
 23 27  1  0  0  0  0
 24 22  1  0  0  0  0
 25 28  1  0  0  0  0
 25 22  1  0  0  0  0
 26 25  1  0  0  0  0
 27 24  1  0  0  0  0
 28 32  1  0  0  0  0
 29 31  1  0  0  0  0
 29 28  1  0  0  0  0
 31 30  1  0  0  0  0
 32 34  1  0  0  0  0
 34 33  1  0  0  0  0
 36 40  1  0  0  0  0
 37 38  2  6  0  0  0
 37 36  1  0  0  0  0
 39 41  1  0  0  0  0
 41 35  1  1  0  0  0
 41 40  1  0  0  0  0
 42 37  1  0  0  0  0
 43 39  1  0  0  0  0
 43 37  1  0  0  0  0
M  END
>  <MODEL>
5

>  <REMARK>
 VINA RESULT:      -7.5      1.865      2.231
  Name = 
  12 active torsions:
  status: ('A' for Active; 'I' for Inactive)
    1  A    between atoms: C_1  and  C_34
    2  A    between atoms: C_1  and  C_35
    3  A    between atoms: C_2  and  N_6
    4  A    between atoms: C_2  and  C_13
    5  A    between atoms: C_3  and  C_4
    6  A    between atoms: C_3  and  C_12
    7  A    between atoms: N_6  and  C_12
    8  A    between atoms: C_11  and  C_14
    9  A    between atoms: C_11  and  C_36
   10  A    between atoms: C_14  and  N_22
   11  A    between atoms: C_14  and  C_40
   12  A    between atoms: C_31  and  C_40
                            x       y       z     vdW  Elec       q    Type
                         _______ _______ _______ _____ _____    ______ ____

>  <TORSDO>
F 12

$$$$
=
 OpenBabel10272414113D

 43 47  0  0  1  0  0  0  0  0999 V2000
  192.3300  176.4860  148.2210 C   0  0  0  0  0  0  0  0  0  0  0  0
  188.8110  177.2960  144.6810 C   0  0  0  0  0  0  0  0  0  0  0  0
  189.5580  176.0970  142.2420 C   0  0  1  0  0  3  0  0  0  0  0  0
  190.3850  177.2630  147.0060 C   0  0  0  0  0  0  0  0  0  0  0  0
  192.7440  175.7590  147.1020 C   0  0  0  0  0  3  0  0  0  0  0  0
  193.0890  176.4620  149.3830 O   0  0  0  0  0  1  0  0  0  0  0  0
  190.7990  176.5360  145.8650 C   0  0  0  0  0  0  0  0  0  0  0  0
  191.1530  177.2360  148.1730 C   0  0  0  0  0  3  0  0  0  0  0  0
  191.9840  175.7830  145.9300 C   0  0  0  0  0  3  0  0  0  0  0  0
  190.4810  175.8650  143.4420 C   0  0  0  0  0  2  0  0  0  0  0  0
  190.0240  176.5810  144.6860 C   0  0  0  0  0  0  0  0  0  0  0  0
  188.4290  178.0320  145.8130 C   0  0  0  0  0  3  0  0  0  0  0  0
  187.9980  177.3590  143.4060 C   0  0  1  0  0  3  0  0  0  0  0  0
  188.1920  176.2190  142.5930 O   0  0  0  0  0  0  0  0  0  0  0  0
  189.2090  178.0110  146.9690 C   0  0  0  0  0  3  0  0  0  0  0  0
  190.0660  177.1160  141.2100 C   0  0  1  0  0  3  0  0  0  0  0  0
  191.2900  177.8280  141.7690 C   0  0  0  0  0  1  0  0  0  0  0  0
  190.3690  176.4900  139.9250 N   0  0  0  0  0  2  0  0  0  0  0  0
  189.5380  177.1040  138.8940 C   0  0  1  0  0  3  0  0  0  0  0  0
  188.9750  178.4140  139.4160 C   0  0  0  0  0  1  0  0  0  0  0  0
  190.3650  177.4040  137.6450 C   0  0  0  0  0  2  0  0  0  0  0  0
  190.3880  176.2580  136.6310 C   0  0  1  0  0  3  0  0  0  0  0  0
  190.6940  173.4980  136.3520 C   0  0  0  0  0  2  0  0  0  0  0  0
  191.6790  175.4470  136.8190 C   0  0  0  0  0  2  0  0  0  0  0  0
  189.1760  175.4050  136.7330 N   0  0  0  0  0  0  0  0  0  0  0  0
  189.3470  174.1290  136.0240 C   0  0  0  0  0  2  0  0  0  0  0  0
  191.7120  174.3630  135.9310 O   0  0  0  0  0  0  0  0  0  0  0  0
  187.9900  176.0300  136.1230 C   0  0  0  0  0  3  0  0  0  0  0  0
  188.2360  177.3740  135.4180 C   0  0  0  0  0  2  0  0  0  0  0  0
  187.4870  179.3040  136.6000 O   0  0  0  0  0  1  0  0  0  0  0  0
  187.0900  178.3360  135.6770 C   0  0  0  0  0  2  0  0  0  0  0  0
  186.7490  175.9700  137.0200 C   0  0  0  0  0  2  0  0  0  0  0  0
  184.5040  175.4670  136.4020 O   0  0  0  0  0  1  0  0  0  0  0  0
  185.7610  174.8940  136.5980 C   0  0  0  0  0  2  0  0  0  0  0  0
  186.5010  177.5770  143.6500 C   0  0  0  0  0  2  0  0  0  0  0  0
  183.7270  178.0420  141.7790 C   0  0  0  0  0  2  0  0  0  0  0  0
  184.2770  178.8320  140.2390 P   0  0  1  0  0  0  0  0  0  0  0  0
  184.4000  177.6830  139.0060 O   0  0  0  0  0  0  0  0  0  0  0  0
  186.4610  178.6470  141.3960 C   0  0  0  0  0  2  0  0  0  0  0  0
  184.4030  178.7730  142.9330 C   0  0  0  0  0  2  0  0  0  0  0  0
  185.9420  178.7410  142.8400 C   0  0  1  0  0  3  0  0  0  0  0  0
  183.2880  179.9060  139.8410 O   0  0  0  0  0  1  0  0  0  0  0  0
  185.7940  179.5390  140.5420 O   0  0  0  0  0  0  0  0  0  0  0  0
  1  6  1  0  0  0  0
  2 11  2  0  0  0  0
  2 12  1  0  0  0  0
  3 16  1  1  0  0  0
  3 14  1  0  0  0  0
  3 10  1  0  0  0  0
  4  8  2  0  0  0  0
  5  1  2  0  0  0  0
  7  9  2  0  0  0  0
  7  4  1  0  0  0  0
  8  1  1  0  0  0  0
  9  5  1  0  0  0  0
 10 11  1  0  0  0  0
 11  7  1  0  0  0  0
 12 15  2  0  0  0  0
 13 35  1  1  0  0  0
 13  2  1  0  0  0  0
 14 13  1  0  0  0  0
 15  4  1  0  0  0  0
 16 17  1  1  0  0  0
 18 16  1  0  0  0  0
 19 20  1  1  0  0  0
 19 18  1  0  0  0  0
 21 19  1  0  0  0  0
 22 25  1  0  0  0  0
 22 24  1  0  0  0  0
 22 21  1  1  0  0  0
 26 23  1  0  0  0  0
 26 25  1  0  0  0  0
 27 23  1  0  0  0  0
 27 24  1  0  0  0  0
 28 25  1  0  0  0  0
 28 32  1  0  0  0  0
 29 31  1  0  0  0  0
 29 28  1  0  0  0  0
 31 30  1  0  0  0  0
 33 34  1  0  0  0  0
 34 32  1  0  0  0  0
 36 40  1  0  0  0  0
 37 38  2  6  0  0  0
 37 43  1  0  0  0  0
 37 36  1  0  0  0  0
 39 41  1  0  0  0  0
 41 40  1  0  0  0  0
 41 35  1  1  0  0  0
 42 37  1  0  0  0  0
 43 39  1  0  0  0  0
M  END
>  <MODEL>
6

>  <REMARK>
 VINA RESULT:      -7.5      1.594      3.300
  Name = 
  12 active torsions:
  status: ('A' for Active; 'I' for Inactive)
    1  A    between atoms: C_1  and  C_34
    2  A    between atoms: C_1  and  C_35
    3  A    between atoms: C_2  and  N_6
    4  A    between atoms: C_2  and  C_13
    5  A    between atoms: C_3  and  C_4
    6  A    between atoms: C_3  and  C_12
    7  A    between atoms: N_6  and  C_12
    8  A    between atoms: C_11  and  C_14
    9  A    between atoms: C_11  and  C_36
   10  A    between atoms: C_14  and  N_22
   11  A    between atoms: C_14  and  C_40
   12  A    between atoms: C_31  and  C_40
                            x       y       z     vdW  Elec       q    Type
                         _______ _______ _______ _____ _____    ______ ____

>  <TORSDO>
F 12

$$$$
=
 OpenBabel10272414113D

 43 47  0  0  1  0  0  0  0  0999 V2000
  192.3090  176.4800  148.2090 C   0  0  0  0  0  0  0  0  0  0  0  0
  188.8100  177.3130  144.6540 C   0  0  0  0  0  0  0  0  0  0  0  0
  189.5770  176.1390  142.2080 C   0  0  1  0  0  3  0  0  0  0  0  0
  190.3690  177.2630  146.9880 C   0  0  0  0  0  0  0  0  0  0  0  0
  192.7320  175.7650  147.0860 C   0  0  0  0  0  3  0  0  0  0  0  0
  193.0610  176.4480  149.3760 O   0  0  0  0  0  1  0  0  0  0  0  0
  190.7940  176.5480  145.8430 C   0  0  0  0  0  0  0  0  0  0  0  0
  191.1300  177.2270  148.1610 C   0  0  0  0  0  3  0  0  0  0  0  0
  191.9800  175.7980  145.9100 C   0  0  0  0  0  3  0  0  0  0  0  0
  190.4930  175.8980  143.4130 C   0  0  0  0  0  2  0  0  0  0  0  0
  190.0260  176.6020  144.6600 C   0  0  0  0  0  0  0  0  0  0  0  0
  188.4190  178.0370  145.7900 C   0  0  0  0  0  3  0  0  0  0  0  0
  188.0060  177.3850  143.3740 C   0  0  1  0  0  3  0  0  0  0  0  0
  188.2080  176.2540  142.5520 O   0  0  0  0  0  0  0  0  0  0  0  0
  189.1920  178.0080  146.9510 C   0  0  0  0  0  3  0  0  0  0  0  0
  190.0880  177.1700  141.1890 C   0  0  1  0  0  3  0  0  0  0  0  0
  191.4520  177.6800  141.6340 C   0  0  0  0  0  1  0  0  0  0  0  0
  190.1540  176.6170  139.8380 N   0  0  0  0  0  2  0  0  0  0  0  0
  189.1260  177.2520  139.0190 C   0  0  1  0  0  3  0  0  0  0  0  0
  189.1430  178.7510  139.2640 C   0  0  0  0  0  1  0  0  0  0  0  0
  189.3940  177.0070  137.5350 C   0  0  0  0  0  2  0  0  0  0  0  0
  188.2760  176.2400  136.8260 C   0  0  1  0  0  3  0  0  0  0  0  0
  186.5670  176.2710  134.6200 C   0  0  0  0  0  2  0  0  0  0  0  0
  187.0900  177.1860  136.5880 C   0  0  0  0  0  2  0  0  0  0  0  0
  188.7500  175.6140  135.5640 N   0  0  0  0  0  0  0  0  0  0  0  0
  187.6280  175.1830  134.7170 C   0  0  0  0  0  2  0  0  0  0  0  0
  186.0630  176.5250  135.9020 O   0  0  0  0  0  0  0  0  0  0  0  0
  189.5460  174.3980  135.7990 C   0  0  0  0  0  3  0  0  0  0  0  0
  189.0980  173.5280  136.9840 C   0  0  0  0  0  2  0  0  0  0  0  0
  186.7770  173.0040  137.1520 O   0  0  0  0  0  1  0  0  0  0  0  0
  187.9760  172.5910  136.5700 C   0  0  0  0  0  2  0  0  0  0  0  0
  191.0550  174.6370  135.6860 C   0  0  0  0  0  2  0  0  0  0  0  0
  192.8100  175.3100  137.1510 O   0  0  0  0  0  1  0  0  0  0  0  0
  191.8020  174.3600  136.9810 C   0  0  0  0  0  2  0  0  0  0  0  0
  186.5060  177.5970  143.6100 C   0  0  0  0  0  2  0  0  0  0  0  0
  183.7440  178.0300  141.7150 C   0  0  0  0  0  2  0  0  0  0  0  0
  184.3000  178.8180  140.1760 P   0  0  1  0  0  0  0  0  0  0  0  0
  184.4420  177.6640  138.9490 O   0  0  0  0  0  0  0  0  0  0  0  0
  186.4760  178.6560  141.3510 C   0  0  0  0  0  2  0  0  0  0  0  0
  184.4050  178.7720  142.8710 C   0  0  0  0  0  2  0  0  0  0  0  0
  185.9440  178.7530  142.7910 C   0  0  1  0  0  3  0  0  0  0  0  0
  183.3050  179.8820  139.7650 O   0  0  0  0  0  1  0  0  0  0  0  0
  185.8080  179.5380  140.4880 O   0  0  0  0  0  0  0  0  0  0  0  0
  1  6  1  0  0  0  0
  2 11  2  0  0  0  0
  2 12  1  0  0  0  0
  3 16  1  1  0  0  0
  3 14  1  0  0  0  0
  3 10  1  0  0  0  0
  4  8  2  0  0  0  0
  5  1  2  0  0  0  0
  7  9  2  0  0  0  0
  7  4  1  0  0  0  0
  8  1  1  0  0  0  0
  9  5  1  0  0  0  0
 10 11  1  0  0  0  0
 11  7  1  0  0  0  0
 12 15  2  0  0  0  0
 13 35  1  1  0  0  0
 13  2  1  0  0  0  0
 14 13  1  0  0  0  0
 15  4  1  0  0  0  0
 16 17  1  1  0  0  0
 18 16  1  0  0  0  0
 19 20  1  6  0  0  0
 19 18  1  0  0  0  0
 21 19  1  0  0  0  0
 22 21  1  6  0  0  0
 23 26  1  0  0  0  0
 23 27  1  0  0  0  0
 24 22  1  0  0  0  0
 25 28  1  0  0  0  0
 25 22  1  0  0  0  0
 26 25  1  0  0  0  0
 27 24  1  0  0  0  0
 28 29  1  0  0  0  0
 31 29  1  0  0  0  0
 31 30  1  0  0  0  0
 32 28  1  0  0  0  0
 32 34  1  0  0  0  0
 34 33  1  0  0  0  0
 36 40  1  0  0  0  0
 37 38  2  6  0  0  0
 37 43  1  0  0  0  0
 37 36  1  0  0  0  0
 39 41  1  0  0  0  0
 41 40  1  0  0  0  0
 41 35  1  1  0  0  0
 42 37  1  0  0  0  0
 43 39  1  0  0  0  0
M  END
>  <MODEL>
7

>  <REMARK>
 VINA RESULT:      -7.4      1.550      2.869
  Name = 
  12 active torsions:
  status: ('A' for Active; 'I' for Inactive)
    1  A    between atoms: C_1  and  C_34
    2  A    between atoms: C_1  and  C_35
    3  A    between atoms: C_2  and  N_6
    4  A    between atoms: C_2  and  C_13
    5  A    between atoms: C_3  and  C_4
    6  A    between atoms: C_3  and  C_12
    7  A    between atoms: N_6  and  C_12
    8  A    between atoms: C_11  and  C_14
    9  A    between atoms: C_11  and  C_36
   10  A    between atoms: C_14  and  N_22
   11  A    between atoms: C_14  and  C_40
   12  A    between atoms: C_31  and  C_40
                            x       y       z     vdW  Elec       q    Type
                         _______ _______ _______ _____ _____    ______ ____

>  <TORSDO>
F 12

$$$$
=
 OpenBabel10272414113D

 43 47  0  0  1  0  0  0  0  0999 V2000
  187.8890  178.1180  148.9790 C   0  0  0  0  0  0  0  0  0  0  0  0
  186.7840  177.9190  144.0480 C   0  0  0  0  0  0  0  0  0  0  0  0
  188.9320  176.8190  142.5910 C   0  0  1  0  0  3  0  0  0  0  0  0
  186.8180  178.3610  146.8210 C   0  0  0  0  0  0  0  0  0  0  0  0
  188.9630  177.4590  148.3770 C   0  0  0  0  0  3  0  0  0  0  0  0
  187.8850  178.3260  150.3520 O   0  0  0  0  0  1  0  0  0  0  0  0
  187.9050  177.7010  146.2000 C   0  0  0  0  0  0  0  0  0  0  0  0
  186.8190  178.5680  148.2030 C   0  0  0  0  0  3  0  0  0  0  0  0
  188.9720  177.2500  146.9950 C   0  0  0  0  0  3  0  0  0  0  0  0
  189.0770  176.8640  144.1150 C   0  0  0  0  0  2  0  0  0  0  0  0
  187.9020  177.5090  144.8020 C   0  0  0  0  0  0  0  0  0  0  0  0
  185.7290  178.5960  144.6770 C   0  0  0  0  0  3  0  0  0  0  0  0
  186.8000  177.7310  142.5470 C   0  0  1  0  0  3  0  0  0  0  0  0
  187.5980  176.6330  142.1540 O   0  0  0  0  0  0  0  0  0  0  0  0
  185.7430  178.8100  146.0550 C   0  0  0  0  0  3  0  0  0  0  0  0
  189.7340  177.8810  141.8220 C   0  0  1  0  0  3  0  0  0  0  0  0
  190.4800  178.7610  142.8150 C   0  0  0  0  0  1  0  0  0  0  0  0
  190.6580  177.2810  140.8620 N   0  0  0  0  0  2  0  0  0  0  0  0
  189.9660  177.1100  139.5880 C   0  0  1  0  0  3  0  0  0  0  0  0
  189.1400  178.3500  139.2940 C   0  0  0  0  0  1  0  0  0  0  0  0
  190.9720  176.9260  138.4520 C   0  0  0  0  0  2  0  0  0  0  0  0
  190.8040  175.6110  137.6880 C   0  0  1  0  0  3  0  0  0  0  0  0
  189.6170  174.4370  135.4510 C   0  0  0  0  0  2  0  0  0  0  0  0
  189.3070  175.3460  137.4670 C   0  0  0  0  0  2  0  0  0  0  0  0
  191.5630  175.6130  136.4100 N   0  0  0  0  0  0  0  0  0  0  0  0
  191.1360  174.5220  135.5230 C   0  0  0  0  0  2  0  0  0  0  0  0
  189.1200  174.1680  136.7320 O   0  0  0  0  0  0  0  0  0  0  0  0
  193.0070  175.4080  136.6090 C   0  0  0  0  0  3  0  0  0  0  0  0
  193.8380  175.2410  135.3270 C   0  0  0  0  0  2  0  0  0  0  0  0
  194.8460  177.2300  136.1700 O   0  0  0  0  0  1  0  0  0  0  0  0
  194.5840  176.5230  134.9980 C   0  0  0  0  0  2  0  0  0  0  0  0
  193.3250  174.4210  137.7380 C   0  0  0  0  0  2  0  0  0  0  0  0
  195.0230  173.1600  138.8360 O   0  0  0  0  0  1  0  0  0  0  0  0
  194.7410  173.8720  137.6690 C   0  0  0  0  0  2  0  0  0  0  0  0
  185.4000  177.6030  141.9360 C   0  0  0  0  0  2  0  0  0  0  0  0
  182.4930  178.6290  140.5540 C   0  0  0  0  0  2  0  0  0  0  0  0
  182.9330  179.4650  139.0030 P   0  0  1  0  0  0  0  0  0  0  0  0
  182.6960  178.4240  137.6930 O   0  0  0  0  0  0  0  0  0  0  0  0
  185.2040  178.8640  139.7920 C   0  0  0  0  0  2  0  0  0  0  0  0
  183.4340  179.1490  141.6350 C   0  0  0  0  0  2  0  0  0  0  0  0
  184.9190  178.9030  141.3020 C   0  0  1  0  0  3  0  0  0  0  0  0
  182.0770  180.7020  138.8360 O   0  0  0  0  0  1  0  0  0  0  0  0
  184.5690  179.9150  139.1130 O   0  0  0  0  0  0  0  0  0  0  0  0
  1  6  1  0  0  0  0
  2 12  2  0  0  0  0
  2 11  1  0  0  0  0
  3 16  1  6  0  0  0
  3 10  1  0  0  0  0
  4  8  1  0  0  0  0
  5  1  1  0  0  0  0
  7  4  1  0  0  0  0
  7  9  1  0  0  0  0
  8  1  2  0  0  0  0
  9  5  2  0  0  0  0
 10 11  1  0  0  0  0
 11  7  2  0  0  0  0
 12 15  1  0  0  0  0
 13 35  1  1  0  0  0
 13  2  1  0  0  0  0
 14 13  1  0  0  0  0
 14  3  1  0  0  0  0
 15  4  2  0  0  0  0
 16 17  1  1  0  0  0
 18 16  1  0  0  0  0
 19 20  1  6  0  0  0
 19 18  1  0  0  0  0
 21 19  1  0  0  0  0
 22 21  1  6  0  0  0
 23 26  1  0  0  0  0
 23 27  1  0  0  0  0
 24 22  1  0  0  0  0
 25 28  1  0  0  0  0
 25 22  1  0  0  0  0
 26 25  1  0  0  0  0
 27 24  1  0  0  0  0
 28 32  1  0  0  0  0
 29 28  1  0  0  0  0
 31 29  1  0  0  0  0
 31 30  1  0  0  0  0
 34 32  1  0  0  0  0
 34 33  1  0  0  0  0
 36 40  1  0  0  0  0
 37 38  2  6  0  0  0
 37 43  1  0  0  0  0
 37 36  1  0  0  0  0
 39 41  1  0  0  0  0
 41 40  1  0  0  0  0
 41 35  1  6  0  0  0
 42 37  1  0  0  0  0
 43 39  1  0  0  0  0
M  END
>  <MODEL>
8

>  <REMARK>
 VINA RESULT:      -7.0      1.792      2.275
  Name = 
  12 active torsions:
  status: ('A' for Active; 'I' for Inactive)
    1  A    between atoms: C_1  and  C_34
    2  A    between atoms: C_1  and  C_35
    3  A    between atoms: C_2  and  N_6
    4  A    between atoms: C_2  and  C_13
    5  A    between atoms: C_3  and  C_4
    6  A    between atoms: C_3  and  C_12
    7  A    between atoms: N_6  and  C_12
    8  A    between atoms: C_11  and  C_14
    9  A    between atoms: C_11  and  C_36
   10  A    between atoms: C_14  and  N_22
   11  A    between atoms: C_14  and  C_40
   12  A    between atoms: C_31  and  C_40
                            x       y       z     vdW  Elec       q    Type
                         _______ _______ _______ _____ _____    ______ ____

>  <TORSDO>
F 12

$$$$
=
 OpenBabel10272414113D

 43 47  0  0  1  0  0  0  0  0999 V2000
  193.9570  174.3220  137.7060 C   0  0  0  0  0  0  0  0  0  0  0  0
  189.2020  175.6630  136.6240 C   0  0  0  0  0  0  0  0  0  0  0  0
  188.6680  178.2710  137.5530 C   0  0  1  0  0  3  0  0  0  0  0  0
  191.6430  174.3260  136.9890 C   0  0  0  0  0  0  0  0  0  0  0  0
  193.8400  175.6560  138.1040 C   0  0  0  0  0  3  0  0  0  0  0  0
  195.1640  173.6550  137.8640 O   0  0  0  0  0  1  0  0  0  0  0  0
  191.5130  175.6750  137.3960 C   0  0  0  0  0  0  0  0  0  0  0  0
  192.8610  173.6580  137.1500 C   0  0  0  0  0  3  0  0  0  0  0  0
  192.6250  176.3290  137.9500 C   0  0  0  0  0  3  0  0  0  0  0  0
  190.0990  177.7510  137.7260 C   0  0  0  0  0  2  0  0  0  0  0  0
  190.2750  176.3350  137.2420 C   0  0  0  0  0  0  0  0  0  0  0  0
  189.3430  174.3180  136.2520 C   0  0  0  0  0  3  0  0  0  0  0  0
  187.8720  176.3720  136.4860 C   0  0  1  0  0  3  0  0  0  0  0  0
  188.0200  177.7740  136.3960 O   0  0  0  0  0  0  0  0  0  0  0  0
  190.5570  173.6550  136.4280 C   0  0  0  0  0  3  0  0  0  0  0  0
  187.8140  178.2820  138.8310 C   0  0  1  0  0  3  0  0  0  0  0  0
  186.3570  178.0410  138.4630 C   0  0  0  0  0  1  0  0  0  0  0  0
  188.2750  177.2950  139.8060 N   0  0  0  0  0  2  0  0  0  0  0  0
  188.3410  177.9270  141.1200 C   0  0  1  0  0  3  0  0  0  0  0  0
  187.1110  178.7950  141.3230 C   0  0  0  0  0  1  0  0  0  0  0  0
  188.3660  176.8700  142.2230 C   0  0  0  0  0  2  0  0  0  0  0  0
  189.5800  176.9740  143.1480 C   0  0  1  0  0  3  0  0  0  0  0  0
  191.7910  178.5480  143.8000 C   0  0  0  0  0  2  0  0  0  0  0  0
  190.8410  177.1950  142.2990 C   0  0  0  0  0  2  0  0  0  0  0  0
  189.4060  178.0370  144.1710 N   0  0  0  0  0  0  0  0  0  0  0  0
  190.6780  178.3760  144.8250 C   0  0  0  0  0  2  0  0  0  0  0  0
  191.9680  177.3360  143.1200 O   0  0  0  0  0  0  0  0  0  0  0  0
  188.5060  177.6300  145.2630 C   0  0  0  0  0  3  0  0  0  0  0  0
  187.0330  178.0400  145.0990 C   0  0  0  0  0  2  0  0  0  0  0  0
  185.5960  179.1290  146.6590 O   0  0  0  0  0  1  0  0  0  0  0  0
  186.2970  177.9470  146.4250 C   0  0  0  0  0  2  0  0  0  0  0  0
  189.1060  177.8580  146.6540 C   0  0  0  0  0  2  0  0  0  0  0  0
  190.8170  176.4160  147.4740 O   0  0  0  0  0  1  0  0  0  0  0  0
  189.4330  176.5630  147.3820 C   0  0  0  0  0  2  0  0  0  0  0  0
  187.0310  175.8600  135.3100 C   0  0  0  0  0  2  0  0  0  0  0  0
  186.1040  173.2640  137.2630 C   0  0  0  0  0  2  0  0  0  0  0  0
  184.7870  172.3940  136.3640 P   0  0  1  0  0  0  0  0  0  0  0  0
  185.4160  171.0320  135.5850 O   0  0  0  0  0  0  0  0  0  0  0  0
  185.2360  174.2200  134.7490 C   0  0  0  0  0  2  0  0  0  0  0  0
  185.7890  174.7540  137.2020 C   0  0  0  0  0  2  0  0  0  0  0  0
  185.6920  175.2860  135.7580 C   0  0  1  0  0  3  0  0  0  0  0  0
  183.7050  171.9750  137.3340 O   0  0  0  0  0  1  0  0  0  0  0  0
  184.1430  173.4810  135.2260 O   0  0  0  0  0  0  0  0  0  0  0  0
  1  6  1  0  0  0  0
  1  5  1  0  0  0  0
  2 11  1  0  0  0  0
  3 10  1  0  0  0  0
  3 16  1  1  0  0  0
  4  8  1  0  0  0  0
  4  7  1  0  0  0  0
  7  9  1  0  0  0  0
  8  1  2  0  0  0  0
  9  5  2  0  0  0  0
 11  7  2  0  0  0  0
 11 10  1  0  0  0  0
 12 15  1  0  0  0  0
 12  2  2  0  0  0  0
 13 35  1  6  0  0  0
 13  2  1  0  0  0  0
 14 13  1  0  0  0  0
 14  3  1  0  0  0  0
 15  4  2  0  0  0  0
 16 17  1  6  0  0  0
 16 18  1  0  0  0  0
 18 19  1  0  0  0  0
 19 20  1  1  0  0  0
 19 21  1  0  0  0  0
 22 21  1  6  0  0  0
 22 25  1  0  0  0  0
 23 26  1  0  0  0  0
 24 27  1  0  0  0  0
 24 22  1  0  0  0  0
 25 26  1  0  0  0  0
 25 28  1  0  0  0  0
 27 23  1  0  0  0  0
 28 32  1  0  0  0  0
 29 28  1  0  0  0  0
 29 31  1  0  0  0  0
 31 30  1  0  0  0  0
 32 34  1  0  0  0  0
 34 33  1  0  0  0  0
 37 38  2  6  0  0  0
 37 36  1  0  0  0  0
 37 42  1  0  0  0  0
 39 43  1  0  0  0  0
 39 41  1  0  0  0  0
 40 36  1  0  0  0  0
 41 35  1  6  0  0  0
 41 40  1  0  0  0  0
 43 37  1  0  0  0  0
M  END
>  <MODEL>
9

>  <REMARK>
 VINA RESULT:      -7.0      3.039      8.720
  Name = 
  12 active torsions:
  status: ('A' for Active; 'I' for Inactive)
    1  A    between atoms: C_1  and  C_34
    2  A    between atoms: C_1  and  C_35
    3  A    between atoms: C_2  and  N_6
    4  A    between atoms: C_2  and  C_13
    5  A    between atoms: C_3  and  C_4
    6  A    between atoms: C_3  and  C_12
    7  A    between atoms: N_6  and  C_12
    8  A    between atoms: C_11  and  C_14
    9  A    between atoms: C_11  and  C_36
   10  A    between atoms: C_14  and  N_22
   11  A    between atoms: C_14  and  C_40
   12  A    between atoms: C_31  and  C_40
                            x       y       z     vdW  Elec       q    Type
                         _______ _______ _______ _____ _____    ______ ____

>  <TORSDO>
F 12

$$$$
