=
 OpenBabel10272400133D

 31 34  0  0  1  0  0  0  0  0999 V2000
  185.5060  178.3460  146.1960 C   0  0  0  0  0  0  0  0  0  0  0  0
  188.6540  177.4260  144.3330 C   0  0  0  0  0  0  0  0  0  0  0  0
  189.6350  177.1050  145.3310 C   0  0  0  0  0  0  0  0  0  0  0  0
  190.3390  176.8380  147.6620 C   0  0  0  0  0  3  0  0  0  0  0  0
  187.3150  177.8270  144.6310 C   0  0  0  0  0  0  0  0  0  0  0  0
  184.6510  178.6310  145.1340 C   0  0  0  0  0  3  0  0  0  0  0  0
  189.3660  177.1550  146.7120 C   0  0  0  0  0  3  0  0  0  0  0  0
  188.0950  177.6480  141.9370 C   0  0  0  0  0  0  0  0  0  0  0  0
  185.0640  178.4520  147.4710 F   0  0  0  0  0  0  0  0  0  0  0  0
  191.2810  176.6460  143.5940 C   0  0  0  0  0  3  0  0  0  0  0  0
  191.6160  176.4610  147.2490 C   0  0  0  0  0  0  0  0  0  0  0  0
  186.8430  178.0250  142.2840 N   0  0  0  0  0  0  0  0  0  0  0  0
  189.0350  177.3390  142.9570 C   0  0  0  0  0  0  0  0  0  0  0  0
  186.8220  177.9480  145.9440 C   0  0  0  0  0  3  0  0  0  0  0  0
  192.6090  176.1380  148.2140 N   0  0  0  0  0  1  0  0  0  0  0  0
  186.4290  178.1220  143.5670 C   0  0  0  0  0  0  0  0  0  0  0  0
  185.1130  178.5190  143.8230 C   0  0  0  0  0  3  0  0  0  0  0  0
  190.3400  176.9530  142.6240 C   0  0  0  0  0  3  0  0  0  0  0  0
  190.9430  176.7170  144.9360 C   0  0  0  0  0  0  0  0  0  0  0  0
  191.9160  176.4000  145.8890 C   0  0  0  0  0  3  0  0  0  0  0  0
  188.7300  178.6240  139.7180 C   0  0  0  0  0  3  0  0  0  0  0  0
  188.3680  177.5970  140.4810 C   0  0  0  0  0  3  0  0  0  0  0  0
  188.9710  178.4490  138.2570 C   0  0  0  0  0  2  0  0  0  0  0  0
  188.8000  176.5850  136.6860 N   0  0  0  0  0  1  0  0  0  0  0  0
  188.0750  177.3630  137.6790 C   0  0  2  0  0  3  0  0  0  0  0  0
  186.5400  177.6750  135.8750 O   0  0  0  0  0  0  0  0  0  0  0  0
  186.8550  177.9730  137.0580 C   0  0  0  0  0  0  0  0  0  0  0  0
  186.0610  178.8820  137.7640 O   0  0  0  0  0  0  0  0  0  0  0  0
  185.1630  178.4840  138.7910 C   0  0  2  0  0  3  0  0  0  0  0  0
  183.7890  178.2570  138.1980 C   0  0  0  0  0  1  0  0  0  0  0  0
  185.0860  179.4810  139.7650 O   0  0  0  0  0  1  0  0  0  0  0  0
  1  9  1  0  0  0  0
  2  5  1  0  0  0  0
  2  3  1  0  0  0  0
  3  7  1  0  0  0  0
  5 14  2  0  0  0  0
  6  1  2  0  0  0  0
  7  4  2  0  0  0  0
  8 12  2  0  0  0  0
  8 13  1  0  0  0  0
 10 19  1  0  0  0  0
 11  4  1  0  0  0  0
 11 15  1  0  0  0  0
 12 16  1  0  0  0  0
 13  2  2  0  0  0  0
 14  1  1  0  0  0  0
 16 17  2  0  0  0  0
 16  5  1  0  0  0  0
 17  6  1  0  0  0  0
 18 13  1  0  0  0  0
 18 10  2  0  0  0  0
 19  3  2  0  0  0  0
 19 20  1  0  0  0  0
 20 11  2  0  0  0  0
 21 22  2  0  0  0  0
 22  8  1  0  0  0  0
 23 21  1  0  0  0  0
 25 24  1  6  0  0  0
 25 23  1  0  0  0  0
 26 27  2  0  0  0  0
 27 25  1  0  0  0  0
 27 28  1  0  0  0  0
 28 29  1  0  0  0  0
 29 30  1  6  0  0  0
 29 31  1  0  0  0  0
M  END
>  <MODEL>
1

>  <REMARK>
 VINA RESULT:     -10.5      0.000      0.000
  Name = 
  6 active torsions:
  status: ('A' for Active; 'I' for Inactive)
    1  A    between atoms: C_1  and  O_24
    2  A    between atoms: C_3  and  C_9
    3  A    between atoms: C_3  and  C_22
    4  A    between atoms: C_15  and  C_23
    5  A    between atoms: C_19  and  C_22
    6  A    between atoms: C_19  and  O_24
                            x       y       z     vdW  Elec       q    Type
                         _______ _______ _______ _____ _____    ______ ____

>  <TORSDO>
F 6

$$$$
=
 OpenBabel10272400133D

 31 34  0  0  1  0  0  0  0  0999 V2000
  185.1610  178.3450  146.2000 C   0  0  0  0  0  0  0  0  0  0  0  0
  188.2860  177.6600  144.2020 C   0  0  0  0  0  0  0  0  0  0  0  0
  189.3000  177.2940  145.1500 C   0  0  0  0  0  0  0  0  0  0  0  0
  190.0690  176.8740  147.4370 C   0  0  0  0  0  3  0  0  0  0  0  0
  186.9440  177.9990  144.5600 C   0  0  0  0  0  0  0  0  0  0  0  0
  184.2730  178.6840  145.1820 C   0  0  0  0  0  3  0  0  0  0  0  0
  189.0630  177.2330  146.5370 C   0  0  0  0  0  3  0  0  0  0  0  0
  187.6620  178.0440  141.8430 C   0  0  0  0  0  0  0  0  0  0  0  0
  184.7480  178.3440  147.4890 F   0  0  0  0  0  0  0  0  0  0  0  0
  190.9140  177.0150  143.3470 C   0  0  0  0  0  3  0  0  0  0  0  0
  191.3440  176.5670  146.9680 C   0  0  0  0  0  0  0  0  0  0  0  0
  186.4080  178.3570  142.2460 N   0  0  0  0  0  0  0  0  0  0  0  0
  188.6350  177.6880  142.8150 C   0  0  0  0  0  0  0  0  0  0  0  0
  186.4800  178.0070  145.8890 C   0  0  0  0  0  3  0  0  0  0  0  0
  192.3700  176.2020  147.8830 N   0  0  0  0  0  1  0  0  0  0  0  0
  186.0240  178.3460  143.5410 C   0  0  0  0  0  0  0  0  0  0  0  0
  184.7040  178.6850  143.8570 C   0  0  0  0  0  3  0  0  0  0  0  0
  189.9410  177.3660  142.4240 C   0  0  0  0  0  3  0  0  0  0  0  0
  190.6070  176.9760  144.6980 C   0  0  0  0  0  0  0  0  0  0  0  0
  191.6120  176.6170  145.6010 C   0  0  0  0  0  3  0  0  0  0  0  0
  186.9680  178.0420  139.4350 C   0  0  0  0  0  3  0  0  0  0  0  0
  187.8990  178.1110  140.3810 C   0  0  0  0  0  3  0  0  0  0  0  0
  187.3320  178.1150  137.9910 C   0  0  0  0  0  2  0  0  0  0  0  0
  188.9610  179.8130  137.3320 N   0  0  0  0  0  1  0  0  0  0  0  0
  188.8060  178.4490  137.8120 C   0  0  2  0  0  3  0  0  0  0  0  0
  188.9320  177.3270  135.7070 O   0  0  0  0  0  0  0  0  0  0  0  0
  189.4400  177.4930  136.8480 C   0  0  0  0  0  0  0  0  0  0  0  0
  190.5830  176.7660  137.1940 O   0  0  0  0  0  0  0  0  0  0  0  0
  190.7130  176.0760  138.4300 C   0  0  2  0  0  3  0  0  0  0  0  0
  191.7310  176.7850  139.2970 C   0  0  0  0  0  1  0  0  0  0  0  0
  191.1360  174.7670  138.1990 O   0  0  0  0  0  1  0  0  0  0  0  0
  1  9  1  0  0  0  0
  2  5  1  0  0  0  0
  2  3  1  0  0  0  0
  3  7  1  0  0  0  0
  5 14  2  0  0  0  0
  6  1  2  0  0  0  0
  7  4  2  0  0  0  0
  8 12  2  0  0  0  0
  8 13  1  0  0  0  0
 10 19  1  0  0  0  0
 11  4  1  0  0  0  0
 11 15  1  0  0  0  0
 12 16  1  0  0  0  0
 13  2  2  0  0  0  0
 14  1  1  0  0  0  0
 16 17  2  0  0  0  0
 16  5  1  0  0  0  0
 17  6  1  0  0  0  0
 18 13  1  0  0  0  0
 18 10  2  0  0  0  0
 19  3  2  0  0  0  0
 19 20  1  0  0  0  0
 20 11  2  0  0  0  0
 21 22  2  0  0  0  0
 22  8  1  0  0  0  0
 23 21  1  0  0  0  0
 25 24  1  6  0  0  0
 25 23  1  0  0  0  0
 26 27  2  0  0  0  0
 27 28  1  0  0  0  0
 27 25  1  0  0  0  0
 28 29  1  0  0  0  0
 29 30  1  1  0  0  0
 31 29  1  0  0  0  0
M  END
>  <MODEL>
2

>  <REMARK>
 VINA RESULT:     -10.4      1.820      2.701
  Name = 
  6 active torsions:
  status: ('A' for Active; 'I' for Inactive)
    1  A    between atoms: C_1  and  O_24
    2  A    between atoms: C_3  and  C_9
    3  A    between atoms: C_3  and  C_22
    4  A    between atoms: C_15  and  C_23
    5  A    between atoms: C_19  and  C_22
    6  A    between atoms: C_19  and  O_24
                            x       y       z     vdW  Elec       q    Type
                         _______ _______ _______ _____ _____    ______ ____

>  <TORSDO>
F 6

$$$$
=
 OpenBabel10272400133D

 31 34  0  0  1  0  0  0  0  0999 V2000
  189.9830  177.6630  140.6780 C   0  0  0  0  0  0  0  0  0  0  0  0
  188.3020  177.6740  144.0550 C   0  0  0  0  0  0  0  0  0  0  0  0
  189.3130  177.3200  145.0110 C   0  0  0  0  0  0  0  0  0  0  0  0
  191.6080  176.7020  145.5990 C   0  0  0  0  0  3  0  0  0  0  0  0
  188.5360  177.7820  142.6480 C   0  0  0  0  0  0  0  0  0  0  0  0
  188.9140  178.0140  139.8560 C   0  0  0  0  0  3  0  0  0  0  0  0
  190.6450  177.0450  144.6480 C   0  0  0  0  0  3  0  0  0  0  0  0
  185.9490  178.2900  143.6220 C   0  0  0  0  0  0  0  0  0  0  0  0
  191.2040  177.4330  140.1430 F   0  0  0  0  0  0  0  0  0  0  0  0
  187.6900  177.4940  146.8200 C   0  0  0  0  0  3  0  0  0  0  0  0
  191.2590  176.6260  146.9460 C   0  0  0  0  0  0  0  0  0  0  0  0
  186.2340  178.3730  142.3010 N   0  0  0  0  0  0  0  0  0  0  0  0
  186.9790  177.9360  144.5340 C   0  0  0  0  0  0  0  0  0  0  0  0
  189.7920  177.5500  142.0580 C   0  0  0  0  0  3  0  0  0  0  0  0
  192.2380  176.2770  147.9170 N   0  0  0  0  0  1  0  0  0  0  0  0
  187.4650  178.1370  141.7950 C   0  0  0  0  0  0  0  0  0  0  0  0
  187.6590  178.2500  140.4140 C   0  0  0  0  0  3  0  0  0  0  0  0
  186.7080  177.8380  145.9050 C   0  0  0  0  0  3  0  0  0  0  0  0
  188.9820  177.2370  146.3890 C   0  0  0  0  0  0  0  0  0  0  0  0
  189.9490  176.8940  147.3390 C   0  0  0  0  0  3  0  0  0  0  0  0
  183.5380  178.7810  143.1460 C   0  0  0  0  0  3  0  0  0  0  0  0
  184.5440  178.5840  143.9920 C   0  0  0  0  0  3  0  0  0  0  0  0
  182.1630  179.0760  143.6410 C   0  0  0  0  0  2  0  0  0  0  0  0
  180.2170  180.3940  142.9720 N   0  0  0  0  0  1  0  0  0  0  0  0
  181.2410  179.4770  142.4980 C   0  0  2  0  0  3  0  0  0  0  0  0
  179.9830  177.4520  142.6370 O   0  0  0  0  0  0  0  0  0  0  0  0
  180.6020  178.2620  141.8970 C   0  0  0  0  0  0  0  0  0  0  0  0
  180.6880  178.0000  140.5270 O   0  0  0  0  0  0  0  0  0  0  0  0
  181.2080  176.7840  140.0060 C   0  0  2  0  0  3  0  0  0  0  0  0
  182.6930  176.9390  139.7540 C   0  0  0  0  0  1  0  0  0  0  0  0
  180.5670  176.4700  138.8070 O   0  0  0  0  0  1  0  0  0  0  0  0
  1 14  1  0  0  0  0
  2 13  2  0  0  0  0
  2  3  1  0  0  0  0
  3 19  1  0  0  0  0
  4 11  2  0  0  0  0
  5  2  1  0  0  0  0
  6 17  1  0  0  0  0
  6  1  2  0  0  0  0
  7  3  2  0  0  0  0
  7  4  1  0  0  0  0
  8 22  1  0  0  0  0
  8 13  1  0  0  0  0
  9  1  1  0  0  0  0
 11 20  1  0  0  0  0
 11 15  1  0  0  0  0
 12  8  2  0  0  0  0
 13 18  1  0  0  0  0
 14  5  2  0  0  0  0
 16 12  1  0  0  0  0
 16  5  1  0  0  0  0
 17 16  2  0  0  0  0
 18 10  2  0  0  0  0
 19 10  1  0  0  0  0
 19 20  2  0  0  0  0
 21 23  1  0  0  0  0
 21 22  2  0  0  0  0
 25 24  1  1  0  0  0
 25 23  1  0  0  0  0
 27 25  1  0  0  0  0
 27 26  2  0  0  0  0
 28 27  1  0  0  0  0
 29 30  1  6  0  0  0
 29 28  1  0  0  0  0
 31 29  1  0  0  0  0
M  END
>  <MODEL>
3

>  <REMARK>
 VINA RESULT:     -10.0      3.189      5.448
  Name = 
  6 active torsions:
  status: ('A' for Active; 'I' for Inactive)
    1  A    between atoms: C_1  and  O_24
    2  A    between atoms: C_3  and  C_9
    3  A    between atoms: C_3  and  C_22
    4  A    between atoms: C_15  and  C_23
    5  A    between atoms: C_19  and  C_22
    6  A    between atoms: C_19  and  O_24
                            x       y       z     vdW  Elec       q    Type
                         _______ _______ _______ _____ _____    ______ ____

>  <TORSDO>
F 6

$$$$
=
 OpenBabel10272400133D

 31 34  0  0  1  0  0  0  0  0999 V2000
  188.6070  177.3650  147.6630 C   0  0  0  0  0  0  0  0  0  0  0  0
  187.4540  177.9530  144.1210 C   0  0  0  0  0  0  0  0  0  0  0  0
  186.0500  178.2440  144.1960 C   0  0  0  0  0  0  0  0  0  0  0  0
  183.9750  178.5650  145.4550 C   0  0  0  0  0  3  0  0  0  0  0  0
  188.2720  177.6700  145.2580 C   0  0  0  0  0  0  0  0  0  0  0  0
  189.9580  177.0970  147.4540 C   0  0  0  0  0  3  0  0  0  0  0  0
  185.3410  178.2800  145.4110 C   0  0  0  0  0  3  0  0  0  0  0  0
  189.4630  177.6630  142.7130 C   0  0  0  0  0  0  0  0  0  0  0  0
  188.0990  177.3520  148.9170 F   0  0  0  0  0  0  0  0  0  0  0  0
  185.9530  178.4940  141.7740 C   0  0  0  0  0  3  0  0  0  0  0  0
  183.2810  178.8230  144.2740 C   0  0  0  0  0  0  0  0  0  0  0  0
  190.1830  177.4000  143.8280 N   0  0  0  0  0  0  0  0  0  0  0  0
  188.0760  177.9450  142.8320 C   0  0  0  0  0  0  0  0  0  0  0  0
  187.7770  177.6480  146.5760 C   0  0  0  0  0  3  0  0  0  0  0  0
  181.8890  179.1140  144.3160 N   0  0  0  0  0  1  0  0  0  0  0  0
  189.6470  177.3940  145.0690 C   0  0  0  0  0  0  0  0  0  0  0  0
  190.4760  177.1120  146.1600 C   0  0  0  0  0  3  0  0  0  0  0  0
  187.3080  178.2150  141.6920 C   0  0  0  0  0  3  0  0  0  0  0  0
  185.3210  178.5120  143.0070 C   0  0  0  0  0  0  0  0  0  0  0  0
  183.9530  178.7970  143.0540 C   0  0  0  0  0  3  0  0  0  0  0  0
  190.3520  176.5700  140.6400 C   0  0  0  0  0  3  0  0  0  0  0  0
  190.2210  177.6240  141.4390 C   0  0  0  0  0  3  0  0  0  0  0  0
  191.1480  176.6520  139.3820 C   0  0  0  0  0  2  0  0  0  0  0  0
  191.1760  174.6300  138.0100 N   0  0  0  0  0  1  0  0  0  0  0  0
  190.4760  175.8810  138.2550 C   0  0  2  0  0  3  0  0  0  0  0  0
  191.0460  176.2970  135.9730 O   0  0  0  0  0  0  0  0  0  0  0  0
  190.4510  176.7070  137.0050 C   0  0  0  0  0  0  0  0  0  0  0  0
  189.7880  177.9370  136.9620 O   0  0  0  0  0  0  0  0  0  0  0  0
  188.5370  178.1610  137.5990 C   0  0  2  0  0  3  0  0  0  0  0  0
  187.5470  178.6990  136.5890 C   0  0  0  0  0  1  0  0  0  0  0  0
  188.6900  179.0860  138.6320 O   0  0  0  0  0  1  0  0  0  0  0  0
  1  9  1  0  0  0  0
  2  3  1  0  0  0  0
  2  5  1  0  0  0  0
  3  7  2  0  0  0  0
  5 14  1  0  0  0  0
  6  1  1  0  0  0  0
  7  4  1  0  0  0  0
  8 13  1  0  0  0  0
  8 12  2  0  0  0  0
 10 19  1  0  0  0  0
 11 15  1  0  0  0  0
 11  4  2  0  0  0  0
 12 16  1  0  0  0  0
 13  2  2  0  0  0  0
 14  1  2  0  0  0  0
 16  5  2  0  0  0  0
 16 17  1  0  0  0  0
 17  6  2  0  0  0  0
 18 10  2  0  0  0  0
 18 13  1  0  0  0  0
 19 20  2  0  0  0  0
 19  3  1  0  0  0  0
 20 11  1  0  0  0  0
 21 22  2  0  0  0  0
 22  8  1  0  0  0  0
 23 21  1  0  0  0  0
 25 24  1  6  0  0  0
 25 23  1  0  0  0  0
 26 27  2  0  0  0  0
 27 25  1  0  0  0  0
 28 27  1  0  0  0  0
 28 29  1  0  0  0  0
 29 30  1  6  0  0  0
 29 31  1  0  0  0  0
M  END
>  <MODEL>
4

>  <REMARK>
 VINA RESULT:      -9.9      2.273      4.880
  Name = 
  6 active torsions:
  status: ('A' for Active; 'I' for Inactive)
    1  A    between atoms: C_1  and  O_24
    2  A    between atoms: C_3  and  C_9
    3  A    between atoms: C_3  and  C_22
    4  A    between atoms: C_15  and  C_23
    5  A    between atoms: C_19  and  C_22
    6  A    between atoms: C_19  and  O_24
                            x       y       z     vdW  Elec       q    Type
                         _______ _______ _______ _____ _____    ______ ____

>  <TORSDO>
F 6

$$$$
=
 OpenBabel10272400133D

 31 34  0  0  1  0  0  0  0  0999 V2000
  190.1020  177.2130  147.3110 C   0  0  0  0  0  0  0  0  0  0  0  0
  188.2350  177.5520  144.0520 C   0  0  0  0  0  0  0  0  0  0  0  0
  186.9080  177.9870  144.3890 C   0  0  0  0  0  0  0  0  0  0  0  0
  185.1960  178.6370  146.0150 C   0  0  0  0  0  3  0  0  0  0  0  0
  189.2620  177.3050  145.0140 C   0  0  0  0  0  0  0  0  0  0  0  0
  191.3480  176.7930  146.8520 C   0  0  0  0  0  3  0  0  0  0  0  0
  186.4930  178.2150  145.7150 C   0  0  0  0  0  3  0  0  0  0  0  0
  189.8510  176.9240  142.2930 C   0  0  0  0  0  0  0  0  0  0  0  0
  189.8870  177.3770  148.6370 F   0  0  0  0  0  0  0  0  0  0  0  0
  186.2920  178.0000  142.0320 C   0  0  0  0  0  3  0  0  0  0  0  0
  184.2770  178.8420  144.9870 C   0  0  0  0  0  0  0  0  0  0  0  0
  190.7800  176.7050  143.2520 N   0  0  0  0  0  0  0  0  0  0  0  0
  188.5510  177.3540  142.6710 C   0  0  0  0  0  0  0  0  0  0  0  0
  189.0740  177.4660  146.4000 C   0  0  0  0  0  3  0  0  0  0  0  0
  182.9560  179.2720  145.2900 N   0  0  0  0  0  1  0  0  0  0  0  0
  190.5360  176.8780  144.5700 C   0  0  0  0  0  0  0  0  0  0  0  0
  191.5640  176.6250  145.4850 C   0  0  0  0  0  3  0  0  0  0  0  0
  187.5700  177.5820  141.6970 C   0  0  0  0  0  3  0  0  0  0  0  0
  185.9540  178.2040  143.3610 C   0  0  0  0  0  0  0  0  0  0  0  0
  184.6560  178.6270  143.6640 C   0  0  0  0  0  3  0  0  0  0  0  0
  191.3720  177.2160  140.3220 C   0  0  0  0  0  3  0  0  0  0  0  0
  190.3000  176.6830  140.9010 C   0  0  0  0  0  3  0  0  0  0  0  0
  191.7200  176.9000  138.9070 C   0  0  0  0  0  2  0  0  0  0  0  0
  191.3400  174.6790  137.9590 N   0  0  0  0  0  1  0  0  0  0  0  0
  190.7060  175.9450  138.2930 C   0  0  2  0  0  3  0  0  0  0  0  0
  190.7760  176.6190  136.0020 O   0  0  0  0  0  0  0  0  0  0  0  0
  190.1010  176.5530  137.0640 C   0  0  0  0  0  0  0  0  0  0  0  0
  188.7990  177.0630  137.0740 O   0  0  0  0  0  0  0  0  0  0  0  0
  188.2970  177.8720  138.1290 C   0  0  2  0  0  3  0  0  0  0  0  0
  186.8030  178.0510  137.9580 C   0  0  0  0  0  1  0  0  0  0  0  0
  188.9160  179.1220  138.1040 O   0  0  0  0  0  1  0  0  0  0  0  0
  1  9  1  0  0  0  0
  2  3  1  0  0  0  0
  2  5  1  0  0  0  0
  3  7  2  0  0  0  0
  5 14  1  0  0  0  0
  6  1  1  0  0  0  0
  7  4  1  0  0  0  0
  8 13  1  0  0  0  0
  8 12  2  0  0  0  0
 10 19  1  0  0  0  0
 11 15  1  0  0  0  0
 11  4  2  0  0  0  0
 12 16  1  0  0  0  0
 13  2  2  0  0  0  0
 14  1  2  0  0  0  0
 16  5  2  0  0  0  0
 16 17  1  0  0  0  0
 17  6  2  0  0  0  0
 18 10  2  0  0  0  0
 18 13  1  0  0  0  0
 19 20  2  0  0  0  0
 19  3  1  0  0  0  0
 20 11  1  0  0  0  0
 21 22  2  0  0  0  0
 22  8  1  0  0  0  0
 23 21  1  0  0  0  0
 25 24  1  6  0  0  0
 25 23  1  0  0  0  0
 26 27  2  0  0  0  0
 27 28  1  0  0  0  0
 27 25  1  0  0  0  0
 28 29  1  0  0  0  0
 29 30  1  6  0  0  0
 31 29  1  0  0  0  0
M  END
>  <MODEL>
5

>  <REMARK>
 VINA RESULT:      -9.8      2.259      4.698
  Name = 
  6 active torsions:
  status: ('A' for Active; 'I' for Inactive)
    1  A    between atoms: C_1  and  O_24
    2  A    between atoms: C_3  and  C_9
    3  A    between atoms: C_3  and  C_22
    4  A    between atoms: C_15  and  C_23
    5  A    between atoms: C_19  and  C_22
    6  A    between atoms: C_19  and  O_24
                            x       y       z     vdW  Elec       q    Type
                         _______ _______ _______ _____ _____    ______ ____

>  <TORSDO>
F 6

$$$$
=
 OpenBabel10272400133D

 31 34  0  0  1  0  0  0  0  0999 V2000
  185.2110  178.3060  146.1320 C   0  0  0  0  0  0  0  0  0  0  0  0
  188.3500  177.5860  144.1680 C   0  0  0  0  0  0  0  0  0  0  0  0
  189.3540  177.2250  145.1290 C   0  0  0  0  0  0  0  0  0  0  0  0
  190.1010  176.8230  147.4270 C   0  0  0  0  0  3  0  0  0  0  0  0
  187.0070  177.9350  144.5110 C   0  0  0  0  0  0  0  0  0  0  0  0
  184.3330  178.6380  145.1030 C   0  0  0  0  0  3  0  0  0  0  0  0
  189.1050  177.1780  146.5140 C   0  0  0  0  0  3  0  0  0  0  0  0
  187.7480  177.9500  141.8000 C   0  0  0  0  0  0  0  0  0  0  0  0
  184.7870  178.3180  147.4170 F   0  0  0  0  0  0  0  0  0  0  0  0
  190.9820  176.9200  143.3420 C   0  0  0  0  0  3  0  0  0  0  0  0
  191.3790  176.5060  146.9710 C   0  0  0  0  0  0  0  0  0  0  0  0
  186.4930  178.2730  142.1890 N   0  0  0  0  0  0  0  0  0  0  0  0
  188.7110  177.5990  142.7840 C   0  0  0  0  0  0  0  0  0  0  0  0
  186.5320  177.9580  145.8360 C   0  0  0  0  0  3  0  0  0  0  0  0
  192.3950  176.1440  147.8990 N   0  0  0  0  0  1  0  0  0  0  0  0
  186.0980  178.2760  143.4810 C   0  0  0  0  0  0  0  0  0  0  0  0
  184.7760  178.6240  143.7820 C   0  0  0  0  0  3  0  0  0  0  0  0
  190.0190  177.2670  142.4070 C   0  0  0  0  0  3  0  0  0  0  0  0
  190.6640  176.8950  144.6910 C   0  0  0  0  0  0  0  0  0  0  0  0
  191.6590  176.5410  145.6070 C   0  0  0  0  0  3  0  0  0  0  0  0
  188.9850  178.6590  139.7390 C   0  0  0  0  0  3  0  0  0  0  0  0
  187.9990  178.0010  140.3400 C   0  0  0  0  0  3  0  0  0  0  0  0
  189.1310  178.6400  138.2550 C   0  0  0  0  0  2  0  0  0  0  0  0
  190.3360  176.8290  137.1420 N   0  0  0  0  0  1  0  0  0  0  0  0
  189.0570  177.2190  137.7140 C   0  0  2  0  0  3  0  0  0  0  0  0
  187.0310  177.9450  136.6770 O   0  0  0  0  0  0  0  0  0  0  0  0
  187.9800  177.1150  136.6780 C   0  0  0  0  0  0  0  0  0  0  0  0
  187.9970  176.1040  135.7130 O   0  0  0  0  0  0  0  0  0  0  0  0
  186.9900  175.1050  135.6260 C   0  0  2  0  0  3  0  0  0  0  0  0
  186.8300  174.4330  136.9730 C   0  0  0  0  0  1  0  0  0  0  0  0
  187.3500  174.1500  134.6750 O   0  0  0  0  0  1  0  0  0  0  0  0
  1  9  1  0  0  0  0
  2  5  1  0  0  0  0
  2  3  1  0  0  0  0
  3  7  1  0  0  0  0
  5 14  2  0  0  0  0
  6  1  2  0  0  0  0
  7  4  2  0  0  0  0
  8 12  2  0  0  0  0
  8 13  1  0  0  0  0
 10 19  1  0  0  0  0
 11  4  1  0  0  0  0
 11 15  1  0  0  0  0
 12 16  1  0  0  0  0
 13  2  2  0  0  0  0
 14  1  1  0  0  0  0
 16 17  2  0  0  0  0
 16  5  1  0  0  0  0
 17  6  1  0  0  0  0
 18 13  1  0  0  0  0
 18 10  2  0  0  0  0
 19  3  2  0  0  0  0
 19 20  1  0  0  0  0
 20 11  2  0  0  0  0
 21 22  2  0  0  0  0
 22  8  1  0  0  0  0
 23 21  1  0  0  0  0
 25 24  1  6  0  0  0
 25 23  1  0  0  0  0
 26 27  2  0  0  0  0
 27 25  1  0  0  0  0
 28 27  1  0  0  0  0
 29 28  1  0  0  0  0
 29 30  1  1  0  0  0
 31 29  1  0  0  0  0
M  END
>  <MODEL>
6

>  <REMARK>
 VINA RESULT:      -9.5      1.399      2.090
  Name = 
  6 active torsions:
  status: ('A' for Active; 'I' for Inactive)
    1  A    between atoms: C_1  and  O_24
    2  A    between atoms: C_3  and  C_9
    3  A    between atoms: C_3  and  C_22
    4  A    between atoms: C_15  and  C_23
    5  A    between atoms: C_19  and  C_22
    6  A    between atoms: C_19  and  O_24
                            x       y       z     vdW  Elec       q    Type
                         _______ _______ _______ _____ _____    ______ ____

>  <TORSDO>
F 6

$$$$
=
 OpenBabel10272400133D

 31 34  0  0  1  0  0  0  0  0999 V2000
  188.8160  177.1740  147.4620 C   0  0  0  0  0  0  0  0  0  0  0  0
  187.9480  177.8080  143.8470 C   0  0  0  0  0  0  0  0  0  0  0  0
  186.5520  178.1440  143.8200 C   0  0  0  0  0  0  0  0  0  0  0  0
  184.4000  178.5260  144.9230 C   0  0  0  0  0  3  0  0  0  0  0  0
  188.6700  177.4960  145.0410 C   0  0  0  0  0  0  0  0  0  0  0  0
  190.1690  176.8630  147.3530 C   0  0  0  0  0  3  0  0  0  0  0  0
  185.7560  178.1980  144.9790 C   0  0  0  0  0  3  0  0  0  0  0  0
  190.0460  177.4590  142.5910 C   0  0  0  0  0  0  0  0  0  0  0  0
  188.2150  177.1730  148.6750 F   0  0  0  0  0  0  0  0  0  0  0  0
  186.6430  178.4030  141.3990 C   0  0  0  0  0  3  0  0  0  0  0  0
  183.8040  178.8100  143.6960 C   0  0  0  0  0  0  0  0  0  0  0  0
  190.6730  177.1700  143.7550 N   0  0  0  0  0  0  0  0  0  0  0  0
  188.6630  177.7850  142.6080 C   0  0  0  0  0  0  0  0  0  0  0  0
  188.0780  177.4860  146.3180 C   0  0  0  0  0  3  0  0  0  0  0  0
  182.4230  179.1450  143.6360 N   0  0  0  0  0  1  0  0  0  0  0  0
  190.0460  177.1780  144.9530 C   0  0  0  0  0  0  0  0  0  0  0  0
  190.7820  176.8650  146.1010 C   0  0  0  0  0  3  0  0  0  0  0  0
  187.9910  178.0820  141.4160 C   0  0  0  0  0  3  0  0  0  0  0  0
  185.9220  178.4380  142.5820 C   0  0  0  0  0  0  0  0  0  0  0  0
  184.5640  178.7660  142.5290 C   0  0  0  0  0  3  0  0  0  0  0  0
  190.5640  176.8360  140.2190 C   0  0  0  0  0  3  0  0  0  0  0  0
  190.8940  177.4000  141.3760 C   0  0  0  0  0  3  0  0  0  0  0  0
  191.5080  176.8350  139.0660 C   0  0  0  0  0  2  0  0  0  0  0  0
  189.4440  176.1090  137.9780 N   0  0  0  0  0  1  0  0  0  0  0  0
  190.8920  176.1560  137.8510 C   0  0  2  0  0  3  0  0  0  0  0  0
  190.6600  173.8170  137.4240 O   0  0  0  0  0  0  0  0  0  0  0  0
  191.4390  174.7690  137.7010 C   0  0  0  0  0  0  0  0  0  0  0  0
  192.8000  174.5030  137.8740 O   0  0  0  0  0  0  0  0  0  0  0  0
  193.7610  174.7090  136.8470 C   0  0  2  0  0  3  0  0  0  0  0  0
  194.4440  173.3960  136.5280 C   0  0  0  0  0  1  0  0  0  0  0  0
  194.7170  175.6340  137.2700 O   0  0  0  0  0  1  0  0  0  0  0  0
  1  9  1  0  0  0  0
  2  5  1  0  0  0  0
  3  2  1  0  0  0  0
  3  7  2  0  0  0  0
  4  7  1  0  0  0  0
  5 14  1  0  0  0  0
  6  1  1  0  0  0  0
  8 13  1  0  0  0  0
  8 12  2  0  0  0  0
 10 18  2  0  0  0  0
 10 19  1  0  0  0  0
 11  4  2  0  0  0  0
 12 16  1  0  0  0  0
 13  2  2  0  0  0  0
 14  1  2  0  0  0  0
 15 11  1  0  0  0  0
 16  5  2  0  0  0  0
 16 17  1  0  0  0  0
 17  6  2  0  0  0  0
 18 13  1  0  0  0  0
 19  3  1  0  0  0  0
 20 19  2  0  0  0  0
 20 11  1  0  0  0  0
 21 22  2  0  0  0  0
 22  8  1  0  0  0  0
 23 21  1  0  0  0  0
 25 24  1  1  0  0  0
 25 23  1  0  0  0  0
 26 27  2  0  0  0  0
 27 25  1  0  0  0  0
 27 28  1  0  0  0  0
 29 30  1  1  0  0  0
 29 31  1  0  0  0  0
 29 28  1  0  0  0  0
M  END
>  <MODEL>
7

>  <REMARK>
 VINA RESULT:      -9.2      3.473      5.933
  Name = 
  6 active torsions:
  status: ('A' for Active; 'I' for Inactive)
    1  A    between atoms: C_1  and  O_24
    2  A    between atoms: C_3  and  C_9
    3  A    between atoms: C_3  and  C_22
    4  A    between atoms: C_15  and  C_23
    5  A    between atoms: C_19  and  C_22
    6  A    between atoms: C_19  and  O_24
                            x       y       z     vdW  Elec       q    Type
                         _______ _______ _______ _____ _____    ______ ____

>  <TORSDO>
F 6

$$$$
=
 OpenBabel10272400133D

 31 34  0  0  1  0  0  0  0  0999 V2000
  190.8660  177.2900  141.3920 C   0  0  0  0  0  0  0  0  0  0  0  0
  187.5510  178.0360  143.0290 C   0  0  0  0  0  0  0  0  0  0  0  0
  187.7430  177.8400  144.4390 C   0  0  0  0  0  0  0  0  0  0  0  0
  189.1340  177.2620  146.3700 C   0  0  0  0  0  3  0  0  0  0  0  0
  188.5770  177.8530  142.0510 C   0  0  0  0  0  0  0  0  0  0  0  0
  190.5490  177.5110  140.0540 C   0  0  0  0  0  3  0  0  0  0  0  0
  188.9750  177.4460  144.9950 C   0  0  0  0  0  3  0  0  0  0  0  0
  186.0230  178.6450  141.1860 C   0  0  0  0  0  0  0  0  0  0  0  0
  192.1180  176.9100  141.7400 F   0  0  0  0  0  0  0  0  0  0  0  0
  185.4170  178.4320  144.8580 C   0  0  0  0  0  3  0  0  0  0  0  0
  188.0550  177.4680  147.2280 C   0  0  0  0  0  0  0  0  0  0  0  0
  187.0360  178.4530  140.3090 N   0  0  0  0  0  0  0  0  0  0  0  0
  186.2570  178.4390  142.5720 C   0  0  0  0  0  0  0  0  0  0  0  0
  189.8890  177.4600  142.3770 C   0  0  0  0  0  3  0  0  0  0  0  0
  188.2140  177.2810  148.6290 N   0  0  0  0  0  1  0  0  0  0  0  0
  188.2780  178.0730  140.6860 C   0  0  0  0  0  0  0  0  0  0  0  0
  189.2580  177.9020  139.7030 C   0  0  0  0  0  3  0  0  0  0  0  0
  185.2230  178.6250  143.4990 C   0  0  0  0  0  3  0  0  0  0  0  0
  186.6600  178.0450  145.3340 C   0  0  0  0  0  0  0  0  0  0  0  0
  186.8220  177.8590  146.7100 C   0  0  0  0  0  3  0  0  0  0  0  0
  184.4740  179.1820  139.2910 C   0  0  0  0  0  3  0  0  0  0  0  0
  184.7310  179.0600  140.5900 C   0  0  0  0  0  3  0  0  0  0  0  0
  183.1310  179.6160  138.8110 C   0  0  0  0  0  2  0  0  0  0  0  0
  181.6240  178.5930  137.1800 N   0  0  0  0  0  1  0  0  0  0  0  0
  182.2520  178.4170  138.4810 C   0  0  2  0  0  3  0  0  0  0  0  0
  179.9840  178.2540  139.2130 O   0  0  0  0  0  0  0  0  0  0  0  0
  181.2030  178.2390  139.5350 C   0  0  0  0  0  0  0  0  0  0  0  0
  181.5480  178.0670  140.8790 O   0  0  0  0  0  0  0  0  0  0  0  0
  180.7840  178.6130  141.9460 C   0  0  2  0  0  3  0  0  0  0  0  0
  181.7180  179.1620  143.0030 C   0  0  0  0  0  1  0  0  0  0  0  0
  179.9820  177.6210  142.5110 O   0  0  0  0  0  1  0  0  0  0  0  0
  1  9  1  0  0  0  0
  1 14  1  0  0  0  0
  2  3  1  0  0  0  0
  3  7  2  0  0  0  0
  3 19  1  0  0  0  0
  4 11  2  0  0  0  0
  5 14  2  0  0  0  0
  5  2  1  0  0  0  0
  6  1  2  0  0  0  0
  7  4  1  0  0  0  0
  8 13  1  0  0  0  0
 10 19  1  0  0  0  0
 11 15  1  0  0  0  0
 12 16  1  0  0  0  0
 12  8  2  0  0  0  0
 13  2  2  0  0  0  0
 13 18  1  0  0  0  0
 16  5  1  0  0  0  0
 17  6  1  0  0  0  0
 17 16  2  0  0  0  0
 18 10  2  0  0  0  0
 19 20  2  0  0  0  0
 20 11  1  0  0  0  0
 21 22  2  0  0  0  0
 22  8  1  0  0  0  0
 23 21  1  0  0  0  0
 25 24  1  6  0  0  0
 25 23  1  0  0  0  0
 25 27  1  0  0  0  0
 26 27  2  0  0  0  0
 27 28  1  0  0  0  0
 28 29  1  0  0  0  0
 29 31  1  0  0  0  0
 29 30  1  1  0  0  0
M  END
>  <MODEL>
8

>  <REMARK>
 VINA RESULT:      -9.1      3.210      5.211
  Name = 
  6 active torsions:
  status: ('A' for Active; 'I' for Inactive)
    1  A    between atoms: C_1  and  O_24
    2  A    between atoms: C_3  and  C_9
    3  A    between atoms: C_3  and  C_22
    4  A    between atoms: C_15  and  C_23
    5  A    between atoms: C_19  and  C_22
    6  A    between atoms: C_19  and  O_24
                            x       y       z     vdW  Elec       q    Type
                         _______ _______ _______ _____ _____    ______ ____

>  <TORSDO>
F 6

$$$$
=
 OpenBabel10272400133D

 31 34  0  0  1  0  0  0  0  0999 V2000
  189.2800  177.0610  147.0870 C   0  0  0  0  0  0  0  0  0  0  0  0
  187.3450  177.9390  143.9710 C   0  0  0  0  0  0  0  0  0  0  0  0
  188.2310  177.7050  142.8650 C   0  0  0  0  0  0  0  0  0  0  0  0
  190.3890  177.0170  141.9340 C   0  0  0  0  0  3  0  0  0  0  0  0
  187.7010  177.7240  145.3390 C   0  0  0  0  0  0  0  0  0  0  0  0
  188.3270  177.3280  148.0670 C   0  0  0  0  0  3  0  0  0  0  0  0
  189.5480  177.2350  143.0270 C   0  0  0  0  0  3  0  0  0  0  0  0
  185.1160  178.6590  144.7560 C   0  0  0  0  0  0  0  0  0  0  0  0
  190.5080  176.6120  147.4380 F   0  0  0  0  0  0  0  0  0  0  0  0
  186.5000  178.4130  141.3040 C   0  0  0  0  0  3  0  0  0  0  0  0
  189.9280  177.2660  140.6430 C   0  0  0  0  0  0  0  0  0  0  0  0
  185.5150  178.4380  146.0300 N   0  0  0  0  0  0  0  0  0  0  0  0
  186.0250  178.4150  143.6910 C   0  0  0  0  0  0  0  0  0  0  0  0
  188.9670  177.2580  145.7390 C   0  0  0  0  0  3  0  0  0  0  0  0
  190.7820  177.0440  139.5270 N   0  0  0  0  0  1  0  0  0  0  0  0
  186.7480  177.9880  146.3510 C   0  0  0  0  0  0  0  0  0  0  0  0
  187.0650  177.7910  147.6990 C   0  0  0  0  0  3  0  0  0  0  0  0
  185.6370  178.6410  142.3640 C   0  0  0  0  0  3  0  0  0  0  0  0
  187.7850  177.9500  141.5400 C   0  0  0  0  0  0  0  0  0  0  0  0
  188.6280  177.7310  140.4470 C   0  0  0  0  0  3  0  0  0  0  0  0
  182.6800  178.4270  144.2130 C   0  0  0  0  0  3  0  0  0  0  0  0
  183.7270  179.1520  144.5970 C   0  0  0  0  0  3  0  0  0  0  0  0
  181.3270  179.0390  144.0840 C   0  0  0  0  0  2  0  0  0  0  0  0
  180.0390  180.5670  142.6770 N   0  0  0  0  0  1  0  0  0  0  0  0
  181.0940  179.5650  142.6750 C   0  0  2  0  0  3  0  0  0  0  0  0
  179.9820  177.5120  142.1710 O   0  0  0  0  0  0  0  0  0  0  0  0
  180.7280  178.4390  141.7560 C   0  0  0  0  0  0  0  0  0  0  0  0
  181.2100  178.3880  140.4450 O   0  0  0  0  0  0  0  0  0  0  0  0
  182.3340  177.6040  140.0670 C   0  0  2  0  0  3  0  0  0  0  0  0
  183.1240  178.3370  139.0040 C   0  0  0  0  0  1  0  0  0  0  0  0
  181.9070  176.3770  139.5600 O   0  0  0  0  0  1  0  0  0  0  0  0
  1  9  1  0  0  0  0
  1  6  1  0  0  0  0
  2  5  1  0  0  0  0
  3  7  2  0  0  0  0
  3  2  1  0  0  0  0
  4  7  1  0  0  0  0
  5 14  1  0  0  0  0
  5 16  2  0  0  0  0
  8 12  2  0  0  0  0
 10 19  1  0  0  0  0
 10 18  2  0  0  0  0
 11  4  2  0  0  0  0
 12 16  1  0  0  0  0
 13  2  2  0  0  0  0
 13  8  1  0  0  0  0
 14  1  2  0  0  0  0
 15 11  1  0  0  0  0
 16 17  1  0  0  0  0
 17  6  2  0  0  0  0
 18 13  1  0  0  0  0
 19  3  1  0  0  0  0
 20 11  1  0  0  0  0
 20 19  2  0  0  0  0
 21 22  2  0  0  0  0
 22  8  1  0  0  0  0
 23 21  1  0  0  0  0
 25 24  1  1  0  0  0
 25 23  1  0  0  0  0
 27 26  2  0  0  0  0
 27 25  1  0  0  0  0
 28 27  1  0  0  0  0
 29 30  1  6  0  0  0
 29 28  1  0  0  0  0
 31 29  1  0  0  0  0
M  END
>  <MODEL>
9

>  <REMARK>
 VINA RESULT:      -9.1      2.961      5.844
  Name = 
  6 active torsions:
  status: ('A' for Active; 'I' for Inactive)
    1  A    between atoms: C_1  and  O_24
    2  A    between atoms: C_3  and  C_9
    3  A    between atoms: C_3  and  C_22
    4  A    between atoms: C_15  and  C_23
    5  A    between atoms: C_19  and  C_22
    6  A    between atoms: C_19  and  O_24
                            x       y       z     vdW  Elec       q    Type
                         _______ _______ _______ _____ _____    ______ ____

>  <TORSDO>
F 6

$$$$
