=
 OpenBabel10272414083D

 43 48  0  0  1  0  0  0  0  0999 V2000
  191.6300  176.1850  147.0230 C   0  0  0  0  0  0  0  0  0  0  0  0
  187.4920  177.3820  144.2000 C   0  0  1  0  0  3  0  0  0  0  0  0
  188.6250  178.4140  141.7960 C   0  0  2  0  0  3  0  0  0  0  0  0
  189.5030  177.0630  146.2470 C   0  0  0  0  0  0  0  0  0  0  0  0
  191.9670  175.8350  145.7130 C   0  0  0  0  0  3  0  0  0  0  0  0
  192.5770  175.9080  148.1360 C   0  0  0  0  0  1  0  0  0  0  0  0
  189.8360  176.6920  144.9260 C   0  0  0  0  0  0  0  0  0  0  0  0
  190.3980  176.7910  147.2900 C   0  0  0  0  0  3  0  0  0  0  0  0
  191.0730  176.0860  144.6700 C   0  0  0  0  0  3  0  0  0  0  0  0
  189.5110  178.0300  142.9160 N   0  0  0  0  0  2  0  0  0  0  0  0
  188.9200  176.9910  143.7680 C   0  0  2  0  0  3  0  0  0  0  0  0
  187.5290  178.3400  145.3830 C   0  0  0  0  0  2  0  0  0  0  0  0
  186.7680  178.0550  143.0320 C   0  0  1  0  0  3  0  0  0  0  0  0
  187.3930  177.7230  141.8170 O   0  0  0  0  0  0  0  0  0  0  0  0
  188.1610  177.6460  146.5820 C   0  0  0  0  0  2  0  0  0  0  0  0
  189.3260  178.1780  140.4590 C   0  0  1  0  0  3  0  0  0  0  0  0
  190.5160  177.2520  140.6520 C   0  0  0  0  0  1  0  0  0  0  0  0
  188.3660  177.5580  139.4520 C   0  0  0  0  0  2  0  0  0  0  0  0
  188.0390  178.5330  138.3670 C   0  0  0  0  0  0  0  0  0  0  0  0
  188.9640  179.2230  137.8660 O   0  0  0  0  0  0  0  0  0  0  0  0
  186.7340  178.7000  137.8990 O   0  0  0  0  0  0  0  0  0  0  0  0
  185.7190  177.7140  138.0770 C   0  0  1  0  0  3  0  0  0  0  0  0
  184.2320  176.2960  136.8310 C   0  0  0  0  0  2  0  0  0  0  0  0
  184.3500  178.3650  138.1250 C   0  0  0  0  0  2  0  0  0  0  0  0
  185.6900  176.6980  136.9270 C   0  0  1  0  0  0  0  0  0  0  0  0
  186.0860  177.3090  135.5770 C   0  0  0  0  0  1  0  0  0  0  0  0
  183.4050  177.4520  137.3690 C   0  0  0  0  0  2  0  0  0  0  0  0
  186.4470  175.5360  137.2200 O   0  0  0  0  0  0  0  0  0  0  0  0
  187.3830  175.3060  136.1960 C   0  0  2  0  0  3  0  0  0  0  0  0
  190.7030  173.7500  136.8670 C   0  0  0  0  0  1  0  0  0  0  0  0
  188.5260  173.2510  135.9070 N   0  0  0  0  0  0  0  0  0  0  0  0
  189.3040  174.0880  136.4950 C   0  0  0  0  0  0  0  0  0  0  0  0
  187.2330  173.8750  135.6710 C   0  0  0  0  0  2  0  0  0  0  0  0
  188.7290  175.3570  136.7410 N   0  0  0  0  0  2  0  0  0  0  0  0
  185.4340  177.6450  142.9990 O   0  0  0  0  0  0  0  0  0  0  0  0
  182.5540  179.5880  144.2130 C   0  0  0  0  0  2  0  0  0  0  0  0
  181.6610  179.0050  143.1050 C   0  0  1  0  0  0  0  0  0  0  0  0
  180.7490  177.9540  143.7070 C   0  0  0  0  0  1  0  0  0  0  0  0
  183.8420  178.9970  141.8110 C   0  0  0  0  0  2  0  0  0  0  0  0
  183.8520  178.8000  144.3700 C   0  0  0  0  0  2  0  0  0  0  0  0
  184.6860  178.8220  143.0820 C   0  0  1  0  0  3  0  0  0  0  0  0
  180.8760  180.0280  142.5790 O   0  0  0  0  0  1  0  0  0  0  0  0
  182.4660  178.3580  141.9670 C   0  0  0  0  0  2  0  0  0  0  0  0
  1  8  1  0  0  0  0
  1  6  1  0  0  0  0
  2 12  1  1  0  0  0
  3 16  1  6  0  0  0
  3 14  1  0  0  0  0
  3 10  1  0  0  0  0
  4 15  1  0  0  0  0
  4  8  2  0  0  0  0
  5  1  2  0  0  0  0
  7  4  1  0  0  0  0
  9  7  2  0  0  0  0
  9  5  1  0  0  0  0
 11 10  1  1  0  0  0
 11  2  1  0  0  0  0
 11  7  1  0  0  0  0
 12 15  1  0  0  0  0
 13 35  1  6  0  0  0
 13  2  1  0  0  0  0
 14 13  1  0  0  0  0
 16 17  1  1  0  0  0
 18 16  1  0  0  0  0
 19 18  1  0  0  0  0
 20 19  2  0  0  0  0
 21 19  1  0  0  0  0
 22 21  1  6  0  0  0
 22 24  1  0  0  0  0
 23 25  1  0  0  0  0
 23 27  1  0  0  0  0
 25 26  1  6  0  0  0
 25 28  1  0  0  0  0
 25 22  1  0  0  0  0
 27 24  1  0  0  0  0
 29 34  1  0  0  0  0
 29 28  1  1  0  0  0
 31 32  2  0  0  0  0
 32 34  1  0  0  0  0
 32 30  1  0  0  0  0
 33 31  1  0  0  0  0
 33 29  1  0  0  0  0
 36 40  1  0  0  0  0
 37 38  1  1  0  0  0
 37 36  1  0  0  0  0
 39 43  1  0  0  0  0
 39 41  1  0  0  0  0
 41 35  1  6  0  0  0
 41 40  1  0  0  0  0
 42 37  1  0  0  0  0
 43 37  1  0  0  0  0
M  END
>  <MODEL>
1

>  <REMARK>
 VINA RESULT:      -9.3      0.000      0.000
  Name = 
  9 active torsions:
  status: ('A' for Active; 'I' for Inactive)
    1  A    between atoms: O_1  and  C_34
    2  A    between atoms: O_1  and  C_35
    3  A    between atoms: C_2  and  C_6
    4  A    between atoms: C_2  and  C_13
    5  A    between atoms: O_3  and  C_4
    6  A    between atoms: O_3  and  C_12
    7  A    between atoms: C_6  and  C_12
    8  A    between atoms: C_11  and  O_14
    9  A    between atoms: O_14  and  C_22
                            x       y       z     vdW  Elec       q    Type
                         _______ _______ _______ _____ _____    ______ ____

>  <TORSDO>
F 9

$$$$
=
 OpenBabel10272414083D

 43 48  0  0  1  0  0  0  0  0999 V2000
  191.1980  176.4240  146.6850 C   0  0  0  0  0  0  0  0  0  0  0  0
  187.0500  177.4730  143.8180 C   0  0  1  0  0  3  0  0  0  0  0  0
  188.1640  178.6560  141.4760 C   0  0  2  0  0  3  0  0  0  0  0  0
  189.0380  177.2010  145.8950 C   0  0  0  0  0  0  0  0  0  0  0  0
  191.5810  176.1410  145.3710 C   0  0  0  0  0  3  0  0  0  0  0  0
  192.1400  176.1630  147.8060 C   0  0  0  0  0  1  0  0  0  0  0  0
  189.4170  176.8980  144.5690 C   0  0  0  0  0  0  0  0  0  0  0  0
  189.9270  176.9460  146.9460 C   0  0  0  0  0  3  0  0  0  0  0  0
  190.6930  176.3760  144.3180 C   0  0  0  0  0  3  0  0  0  0  0  0
  189.0510  178.2840  142.6000 N   0  0  0  0  0  2  0  0  0  0  0  0
  188.5070  177.1830  143.4030 C   0  0  2  0  0  3  0  0  0  0  0  0
  187.0080  178.3890  145.0350 C   0  0  0  0  0  2  0  0  0  0  0  0
  186.3100  178.1430  142.6590 C   0  0  1  0  0  3  0  0  0  0  0  0
  186.9760  177.8920  141.4470 O   0  0  0  0  0  0  0  0  0  0  0  0
  187.6570  177.6920  146.2220 C   0  0  0  0  0  2  0  0  0  0  0  0
  188.9030  178.5090  140.1460 C   0  0  1  0  0  3  0  0  0  0  0  0
  190.0040  177.4680  140.2750 C   0  0  0  0  0  1  0  0  0  0  0  0
  187.9430  178.0880  139.0420 C   0  0  0  0  0  2  0  0  0  0  0  0
  188.5130  178.4100  137.6980 C   0  0  0  0  0  0  0  0  0  0  0  0
  188.9570  179.5680  137.4830 O   0  0  0  0  0  0  0  0  0  0  0  0
  188.5620  177.4610  136.6740 O   0  0  0  0  0  0  0  0  0  0  0  0
  188.9990  176.1200  136.8870 C   0  0  1  0  0  3  0  0  0  0  0  0
  189.4820  174.0870  135.7020 C   0  0  0  0  0  2  0  0  0  0  0  0
  187.8110  175.2020  137.0920 C   0  0  0  0  0  2  0  0  0  0  0  0
  189.7880  175.5700  135.6910 C   0  0  1  0  0  0  0  0  0  0  0  0
  189.3020  176.1270  134.3460 C   0  0  0  0  0  1  0  0  0  0  0  0
  188.1310  173.9050  136.3730 C   0  0  0  0  0  2  0  0  0  0  0  0
  191.1870  175.7310  135.8510 O   0  0  0  0  0  0  0  0  0  0  0  0
  191.5470  175.4730  137.1860 C   0  0  2  0  0  3  0  0  0  0  0  0
  194.6830  173.6630  138.0700 C   0  0  0  0  0  1  0  0  0  0  0  0
  193.7090  175.8910  138.0610 N   0  0  0  0  0  0  0  0  0  0  0  0
  193.5930  174.6380  137.7990 C   0  0  0  0  0  0  0  0  0  0  0  0
  192.4800  176.5770  137.6910 C   0  0  0  0  0  2  0  0  0  0  0  0
  192.3450  174.2610  137.2530 N   0  0  0  0  0  2  0  0  0  0  0  0
  185.0030  177.6560  142.5850 O   0  0  0  0  0  0  0  0  0  0  0  0
  181.8260  179.4000  143.2250 C   0  0  0  0  0  2  0  0  0  0  0  0
  181.2240  178.8310  141.9300 C   0  0  1  0  0  0  0  0  0  0  0  0
  180.2650  177.7100  142.2810 C   0  0  0  0  0  1  0  0  0  0  0  0
  183.6270  178.9890  141.1350 C   0  0  0  0  0  2  0  0  0  0  0  0
  183.1040  178.6670  143.6270 C   0  0  0  0  0  2  0  0  0  0  0  0
  184.1900  178.7920  142.5490 C   0  0  1  0  0  3  0  0  0  0  0  0
  180.5110  179.8410  141.2860 O   0  0  0  0  0  1  0  0  0  0  0  0
  182.2860  178.2790  140.9670 C   0  0  0  0  0  2  0  0  0  0  0  0
  1  8  1  0  0  0  0
  1  6  1  0  0  0  0
  2 12  1  1  0  0  0
  3 16  1  6  0  0  0
  3 10  1  0  0  0  0
  4 15  1  0  0  0  0
  4  8  2  0  0  0  0
  5  1  2  0  0  0  0
  7  4  1  0  0  0  0
  9  7  2  0  0  0  0
  9  5  1  0  0  0  0
 11 10  1  1  0  0  0
 11  2  1  0  0  0  0
 11  7  1  0  0  0  0
 12 15  1  0  0  0  0
 13 35  1  6  0  0  0
 13  2  1  0  0  0  0
 14  3  1  0  0  0  0
 14 13  1  0  0  0  0
 16 17  1  1  0  0  0
 18 16  1  0  0  0  0
 19 18  1  0  0  0  0
 20 19  2  0  0  0  0
 21 19  1  0  0  0  0
 22 21  1  6  0  0  0
 22 24  1  0  0  0  0
 23 27  1  0  0  0  0
 25 26  1  6  0  0  0
 25 23  1  0  0  0  0
 25 28  1  0  0  0  0
 25 22  1  0  0  0  0
 27 24  1  0  0  0  0
 29 28  1  6  0  0  0
 29 34  1  0  0  0  0
 29 33  1  0  0  0  0
 32 31  2  0  0  0  0
 32 30  1  0  0  0  0
 33 31  1  0  0  0  0
 34 32  1  0  0  0  0
 36 40  1  0  0  0  0
 37 38  1  1  0  0  0
 37 36  1  0  0  0  0
 39 41  1  0  0  0  0
 41 35  1  6  0  0  0
 41 40  1  0  0  0  0
 42 37  1  0  0  0  0
 43 39  1  0  0  0  0
 43 37  1  0  0  0  0
M  END
>  <MODEL>
2

>  <REMARK>
 VINA RESULT:      -9.3      1.837      2.802
  Name = 
  9 active torsions:
  status: ('A' for Active; 'I' for Inactive)
    1  A    between atoms: O_1  and  C_34
    2  A    between atoms: O_1  and  C_35
    3  A    between atoms: C_2  and  C_6
    4  A    between atoms: C_2  and  C_13
    5  A    between atoms: O_3  and  C_4
    6  A    between atoms: O_3  and  C_12
    7  A    between atoms: C_6  and  C_12
    8  A    between atoms: C_11  and  O_14
    9  A    between atoms: O_14  and  C_22
                            x       y       z     vdW  Elec       q    Type
                         _______ _______ _______ _____ _____    ______ ____

>  <TORSDO>
F 9

$$$$
=
 OpenBabel10272414083D

 43 48  0  0  1  0  0  0  0  0999 V2000
  191.4420  176.3890  146.7720 C   0  0  0  0  0  0  0  0  0  0  0  0
  189.2520  177.9630  142.3840 C   0  0  1  0  0  3  0  0  0  0  0  0
  186.4670  177.6410  142.8990 C   0  0  2  0  0  3  0  0  0  0  0  0
  190.8440  176.7070  144.4410 C   0  0  0  0  0  0  0  0  0  0  0  0
  190.2960  177.0860  147.1650 C   0  0  0  0  0  3  0  0  0  0  0  0
  192.3710  175.8470  147.7990 C   0  0  0  0  0  1  0  0  0  0  0  0
  189.6960  177.4280  144.8370 C   0  0  0  0  0  0  0  0  0  0  0  0
  191.7180  176.2070  145.4140 C   0  0  0  0  0  3  0  0  0  0  0  0
  189.4280  177.6040  146.2010 C   0  0  0  0  0  3  0  0  0  0  0  0
  187.4530  177.2080  143.9140 N   0  0  0  0  0  2  0  0  0  0  0  0
  188.7100  177.9590  143.8290 C   0  0  2  0  0  3  0  0  0  0  0  0
  189.9970  176.6680  142.0840 C   0  0  0  0  0  2  0  0  0  0  0  0
  188.0900  178.1130  141.4010 C   0  0  1  0  0  3  0  0  0  0  0  0
  186.9690  178.6550  142.0530 O   0  0  0  0  0  0  0  0  0  0  0  0
  191.2130  176.5560  142.9930 C   0  0  0  0  0  2  0  0  0  0  0  0
  185.1850  178.1230  143.5770 C   0  0  1  0  0  3  0  0  0  0  0  0
  185.5030  178.6830  144.9540 C   0  0  0  0  0  1  0  0  0  0  0  0
  184.5090  179.2030  142.7410 C   0  0  0  0  0  2  0  0  0  0  0  0
  183.0470  178.9230  142.6030 C   0  0  0  0  0  0  0  0  0  0  0  0
  182.3970  178.5520  143.6150 O   0  0  0  0  0  0  0  0  0  0  0  0
  182.3850  179.0610  141.3810 O   0  0  0  0  0  0  0  0  0  0  0  0
  182.9430  178.6130  140.1480 C   0  0  1  0  0  3  0  0  0  0  0  0
  182.3110  177.7110  138.0120 C   0  0  0  0  0  2  0  0  0  0  0  0
  183.2210  177.1230  140.2020 C   0  0  0  0  0  2  0  0  0  0  0  0
  181.9960  178.8480  138.9640 C   0  0  1  0  0  0  0  0  0  0  0  0
  180.5150  178.7260  139.3470 C   0  0  0  0  0  1  0  0  0  0  0  0
  182.8540  176.5600  138.8420 C   0  0  0  0  0  2  0  0  0  0  0  0
  182.2660  180.0680  138.2950 O   0  0  0  0  0  0  0  0  0  0  0  0
  181.0650  180.7590  138.0580 C   0  0  2  0  0  3  0  0  0  0  0  0
  181.0070  184.3920  137.2260 C   0  0  0  0  0  1  0  0  0  0  0  0
  180.7280  182.2010  136.2090 N   0  0  0  0  0  0  0  0  0  0  0  0
  180.9830  182.9050  137.2530 C   0  0  0  0  0  0  0  0  0  0  0  0
  180.7730  180.7890  136.5560 C   0  0  0  0  0  2  0  0  0  0  0  0
  181.2210  182.1550  138.4280 N   0  0  0  0  0  2  0  0  0  0  0  0
  188.4650  178.9460  140.3450 O   0  0  0  0  0  0  0  0  0  0  0  0
  189.1920  178.1090  136.8360 C   0  0  0  0  0  2  0  0  0  0  0  0
  187.7380  177.6630  136.6140 C   0  0  1  0  0  0  0  0  0  0  0  0
  187.0050  178.7350  135.8320 C   0  0  0  0  0  1  0  0  0  0  0  0
  187.9210  176.9950  139.0540 C   0  0  0  0  0  2  0  0  0  0  0  0
  189.3500  178.9130  138.1240 C   0  0  0  0  0  2  0  0  0  0  0  0
  188.9550  178.0880  139.3570 C   0  0  1  0  0  3  0  0  0  0  0  0
  187.7390  176.4880  135.8660 O   0  0  0  0  0  1  0  0  0  0  0  0
  186.9810  177.4160  137.9280 C   0  0  0  0  0  2  0  0  0  0  0  0
  1  5  1  0  0  0  0
  1  6  1  0  0  0  0
  2 12  1  6  0  0  0
  2 11  1  0  0  0  0
  3 16  1  1  0  0  0
  3 10  1  0  0  0  0
  4  7  2  0  0  0  0
  4  8  1  0  0  0  0
  7  9  1  0  0  0  0
  8  1  2  0  0  0  0
  9  5  2  0  0  0  0
 11 10  1  6  0  0  0
 11  7  1  0  0  0  0
 12 15  1  0  0  0  0
 13 35  1  6  0  0  0
 13 14  1  0  0  0  0
 13  2  1  0  0  0  0
 14  3  1  0  0  0  0
 15  4  1  0  0  0  0
 16 17  1  1  0  0  0
 18 16  1  0  0  0  0
 19 18  1  0  0  0  0
 19 20  2  0  0  0  0
 21 19  1  0  0  0  0
 22 24  1  0  0  0  0
 22 21  1  1  0  0  0
 23 27  1  0  0  0  0
 23 25  1  0  0  0  0
 25 26  1  1  0  0  0
 25 22  1  0  0  0  0
 27 24  1  0  0  0  0
 28 25  1  0  0  0  0
 29 28  1  6  0  0  0
 29 34  1  0  0  0  0
 30 32  1  0  0  0  0
 31 33  1  0  0  0  0
 31 32  2  0  0  0  0
 32 34  1  0  0  0  0
 33 29  1  0  0  0  0
 36 40  1  0  0  0  0
 37 38  1  6  0  0  0
 37 36  1  0  0  0  0
 37 43  1  0  0  0  0
 39 41  1  0  0  0  0
 40 41  1  0  0  0  0
 41 35  1  1  0  0  0
 42 37  1  0  0  0  0
 43 39  1  0  0  0  0
M  END
>  <MODEL>
3

>  <REMARK>
 VINA RESULT:      -9.1      3.207      6.512
  Name = 
  9 active torsions:
  status: ('A' for Active; 'I' for Inactive)
    1  A    between atoms: O_1  and  C_34
    2  A    between atoms: O_1  and  C_35
    3  A    between atoms: C_2  and  C_6
    4  A    between atoms: C_2  and  C_13
    5  A    between atoms: O_3  and  C_4
    6  A    between atoms: O_3  and  C_12
    7  A    between atoms: C_6  and  C_12
    8  A    between atoms: C_11  and  O_14
    9  A    between atoms: O_14  and  C_22
                            x       y       z     vdW  Elec       q    Type
                         _______ _______ _______ _____ _____    ______ ____

>  <TORSDO>
F 9

$$$$
=
 OpenBabel10272414083D

 43 48  0  0  1  0  0  0  0  0999 V2000
  188.0240  177.7200  147.1780 C   0  0  0  0  0  0  0  0  0  0  0  0
  185.2860  178.0900  142.8310 C   0  0  1  0  0  3  0  0  0  0  0  0
  187.2520  178.7770  140.8850 C   0  0  2  0  0  3  0  0  0  0  0  0
  186.3560  178.2840  145.5070 C   0  0  0  0  0  0  0  0  0  0  0  0
  188.8420  177.1760  146.1840 C   0  0  0  0  0  3  0  0  0  0  0  0
  188.4720  177.7120  148.5970 C   0  0  0  0  0  1  0  0  0  0  0  0
  187.1740  177.7180  144.5040 C   0  0  0  0  0  0  0  0  0  0  0  0
  186.7810  178.2660  146.8410 C   0  0  0  0  0  3  0  0  0  0  0  0
  188.4170  177.1750  144.8530 C   0  0  0  0  0  3  0  0  0  0  0  0
  187.6410  178.6610  142.3080 N   0  0  0  0  0  2  0  0  0  0  0  0
  186.7730  177.7420  143.0520 C   0  0  2  0  0  3  0  0  0  0  0  0
  184.8600  179.2370  143.7390 C   0  0  0  0  0  2  0  0  0  0  0  0
  185.0650  178.4940  141.3730 C   0  0  1  0  0  3  0  0  0  0  0  0
  186.1100  178.0070  140.5700 O   0  0  0  0  0  0  0  0  0  0  0  0
  184.9850  178.8110  145.1950 C   0  0  0  0  0  2  0  0  0  0  0  0
  188.4150  178.3700  139.9820 C   0  0  1  0  0  3  0  0  0  0  0  0
  189.3410  177.4190  140.7230 C   0  0  0  0  0  1  0  0  0  0  0  0
  187.9020  177.6870  138.7210 C   0  0  0  0  0  2  0  0  0  0  0  0
  188.5300  178.2870  137.5040 C   0  0  0  0  0  0  0  0  0  0  0  0
  188.9940  179.4550  137.5690 O   0  0  0  0  0  0  0  0  0  0  0  0
  188.6120  177.5870  136.2980 O   0  0  0  0  0  0  0  0  0  0  0  0
  188.5550  176.1640  136.2280 C   0  0  1  0  0  3  0  0  0  0  0  0
  189.3290  174.3120  134.9080 C   0  0  0  0  0  2  0  0  0  0  0  0
  187.3880  175.7220  135.3670 C   0  0  0  0  0  2  0  0  0  0  0  0
  189.8230  175.5640  135.6050 C   0  0  1  0  0  0  0  0  0  0  0  0
  190.4500  176.4660  134.5340 C   0  0  0  0  0  1  0  0  0  0  0  0
  187.8670  174.5310  134.5600 C   0  0  0  0  0  2  0  0  0  0  0  0
  190.7700  175.1760  136.5850 O   0  0  0  0  0  0  0  0  0  0  0  0
  191.8000  176.1300  136.6570 C   0  0  2  0  0  3  0  0  0  0  0  0
  193.2450  177.2350  139.9100 C   0  0  0  0  0  1  0  0  0  0  0  0
  193.7500  175.8530  137.9750 N   0  0  0  0  0  0  0  0  0  0  0  0
  192.9270  176.6240  138.5930 C   0  0  0  0  0  0  0  0  0  0  0  0
  193.1570  175.4220  136.7180 C   0  0  0  0  0  2  0  0  0  0  0  0
  191.7100  176.8560  137.9120 N   0  0  0  0  0  2  0  0  0  0  0  0
  183.8480  177.9820  140.9170 O   0  0  0  0  0  0  0  0  0  0  0  0
  180.7650  179.5610  139.6740 C   0  0  0  0  0  2  0  0  0  0  0  0
  181.1340  179.2010  138.2260 C   0  0  1  0  0  0  0  0  0  0  0  0
  180.2870  178.0260  137.7770 C   0  0  0  0  0  1  0  0  0  0  0  0
  183.4940  179.5140  139.1010 C   0  0  0  0  0  2  0  0  0  0  0  0
  181.6090  178.7880  140.6850 C   0  0  0  0  0  2  0  0  0  0  0  0
  183.1040  179.0980  140.5260 C   0  0  1  0  0  3  0  0  0  0  0  0
  180.8510  180.2920  137.4080 O   0  0  0  0  0  1  0  0  0  0  0  0
  182.6140  178.8240  138.0620 C   0  0  0  0  0  2  0  0  0  0  0  0
  1  6  1  0  0  0  0
  2 11  1  0  0  0  0
  2 12  1  1  0  0  0
  3 16  1  6  0  0  0
  3 10  1  0  0  0  0
  4  8  2  0  0  0  0
  5  1  2  0  0  0  0
  7  9  2  0  0  0  0
  7  4  1  0  0  0  0
  8  1  1  0  0  0  0
  9  5  1  0  0  0  0
 11 10  1  6  0  0  0
 11  7  1  0  0  0  0
 12 15  1  0  0  0  0
 13 35  1  6  0  0  0
 13  2  1  0  0  0  0
 14  3  1  0  0  0  0
 14 13  1  0  0  0  0
 15  4  1  0  0  0  0
 16 17  1  1  0  0  0
 18 16  1  0  0  0  0
 19 20  2  0  0  0  0
 19 18  1  0  0  0  0
 21 19  1  0  0  0  0
 22 21  1  6  0  0  0
 23 25  1  0  0  0  0
 24 22  1  0  0  0  0
 25 26  1  6  0  0  0
 25 22  1  0  0  0  0
 25 28  1  0  0  0  0
 27 23  1  0  0  0  0
 27 24  1  0  0  0  0
 29 28  1  1  0  0  0
 29 33  1  0  0  0  0
 29 34  1  0  0  0  0
 31 32  2  0  0  0  0
 32 30  1  0  0  0  0
 33 31  1  0  0  0  0
 34 32  1  0  0  0  0
 36 40  1  0  0  0  0
 37 38  1  6  0  0  0
 37 36  1  0  0  0  0
 39 41  1  0  0  0  0
 41 40  1  0  0  0  0
 41 35  1  6  0  0  0
 42 37  1  0  0  0  0
 43 37  1  0  0  0  0
 43 39  1  0  0  0  0
M  END
>  <MODEL>
4

>  <REMARK>
 VINA RESULT:      -9.0      2.278      3.900
  Name = 
  9 active torsions:
  status: ('A' for Active; 'I' for Inactive)
    1  A    between atoms: O_1  and  C_34
    2  A    between atoms: O_1  and  C_35
    3  A    between atoms: C_2  and  C_6
    4  A    between atoms: C_2  and  C_13
    5  A    between atoms: O_3  and  C_4
    6  A    between atoms: O_3  and  C_12
    7  A    between atoms: C_6  and  C_12
    8  A    between atoms: C_11  and  O_14
    9  A    between atoms: O_14  and  C_22
                            x       y       z     vdW  Elec       q    Type
                         _______ _______ _______ _____ _____    ______ ____

>  <TORSDO>
F 9

$$$$
=
 OpenBabel10272414083D

 43 48  0  0  1  0  0  0  0  0999 V2000
  191.4830  176.3380  147.0760 C   0  0  0  0  0  0  0  0  0  0  0  0
  187.3210  177.4420  144.2500 C   0  0  1  0  0  3  0  0  0  0  0  0
  188.4290  178.5960  141.8900 C   0  0  2  0  0  3  0  0  0  0  0  0
  189.3270  177.1470  146.3060 C   0  0  0  0  0  0  0  0  0  0  0  0
  191.8470  176.0430  145.7590 C   0  0  0  0  0  3  0  0  0  0  0  0
  192.4330  176.0670  148.1880 C   0  0  0  0  0  1  0  0  0  0  0  0
  189.6870  176.8320  144.9770 C   0  0  0  0  0  0  0  0  0  0  0  0
  190.2240  176.8820  147.3480 C   0  0  0  0  0  3  0  0  0  0  0  0
  190.9510  176.2880  144.7150 C   0  0  0  0  0  3  0  0  0  0  0  0
  189.3220  178.2160  143.0070 N   0  0  0  0  0  2  0  0  0  0  0  0
  188.7690  177.1270  143.8200 C   0  0  2  0  0  3  0  0  0  0  0  0
  187.3080  178.3630  145.4630 C   0  0  0  0  0  2  0  0  0  0  0  0
  186.5800  178.1190  143.0960 C   0  0  1  0  0  3  0  0  0  0  0  0
  187.2280  177.8520  141.8780 O   0  0  0  0  0  0  0  0  0  0  0  0
  187.9580  177.6610  146.6460 C   0  0  0  0  0  2  0  0  0  0  0  0
  189.1510  178.4320  140.5530 C   0  0  1  0  0  3  0  0  0  0  0  0
  190.1350  177.2760  140.6320 C   0  0  0  0  0  1  0  0  0  0  0  0
  188.1530  178.1650  139.4340 C   0  0  0  0  0  2  0  0  0  0  0  0
  188.7970  178.3580  138.0980 C   0  0  0  0  0  0  0  0  0  0  0  0
  188.8210  179.5100  137.5920 O   0  0  0  0  0  0  0  0  0  0  0  0
  189.3690  177.2940  137.3980 O   0  0  0  0  0  0  0  0  0  0  0  0
  189.0790  177.0280  136.0270 C   0  0  1  0  0  3  0  0  0  0  0  0
  188.3960  175.2560  134.5560 C   0  0  0  0  0  2  0  0  0  0  0  0
  190.3240  176.5550  135.3040 C   0  0  0  0  0  2  0  0  0  0  0  0
  188.0210  175.9290  135.8610 C   0  0  1  0  0  0  0  0  0  0  0  0
  188.0860  174.8620  136.9610 C   0  0  0  0  0  1  0  0  0  0  0  0
  189.8870  175.4600  134.3500 C   0  0  0  0  0  2  0  0  0  0  0  0
  186.7140  176.4590  135.7210 O   0  0  0  0  0  0  0  0  0  0  0  0
  185.9490  176.1500  136.8590 C   0  0  2  0  0  3  0  0  0  0  0  0
  182.8750  178.0580  137.7530 C   0  0  0  0  0  1  0  0  0  0  0  0
  183.5900  175.9270  136.8290 N   0  0  0  0  0  0  0  0  0  0  0  0
  183.9000  177.0850  137.2930 C   0  0  0  0  0  0  0  0  0  0  0  0
  184.8050  175.2090  136.4720 C   0  0  0  0  0  2  0  0  0  0  0  0
  185.2880  177.3480  137.3480 N   0  0  0  0  0  2  0  0  0  0  0  0
  185.2640  177.6520  143.0380 O   0  0  0  0  0  0  0  0  0  0  0  0
  182.1770  179.5320  143.7280 C   0  0  0  0  0  2  0  0  0  0  0  0
  181.4690  178.8550  142.5430 C   0  0  1  0  0  0  0  0  0  0  0  0
  180.5180  177.7990  143.0720 C   0  0  0  0  0  1  0  0  0  0  0  0
  183.8090  178.8720  141.5660 C   0  0  0  0  0  2  0  0  0  0  0  0
  183.4660  178.8090  144.1090 C   0  0  0  0  0  2  0  0  0  0  0  0
  184.4720  178.8000  142.9480 C   0  0  1  0  0  3  0  0  0  0  0  0
  180.7300  179.8150  141.8560 O   0  0  0  0  0  1  0  0  0  0  0  0
  182.4470  178.1840  141.5660 C   0  0  0  0  0  2  0  0  0  0  0  0
  1  8  1  0  0  0  0
  1  6  1  0  0  0  0
  2 12  1  1  0  0  0
  3 16  1  6  0  0  0
  3 10  1  0  0  0  0
  4 15  1  0  0  0  0
  4  8  2  0  0  0  0
  5  1  2  0  0  0  0
  7  4  1  0  0  0  0
  9  7  2  0  0  0  0
  9  5  1  0  0  0  0
 11 10  1  1  0  0  0
 11  2  1  0  0  0  0
 11  7  1  0  0  0  0
 12 15  1  0  0  0  0
 13 35  1  6  0  0  0
 13  2  1  0  0  0  0
 14  3  1  0  0  0  0
 14 13  1  0  0  0  0
 16 17  1  1  0  0  0
 18 16  1  0  0  0  0
 19 18  1  0  0  0  0
 20 19  2  0  0  0  0
 21 19  1  0  0  0  0
 22 21  1  1  0  0  0
 23 25  1  0  0  0  0
 24 22  1  0  0  0  0
 25 22  1  0  0  0  0
 25 26  1  1  0  0  0
 27 23  1  0  0  0  0
 27 24  1  0  0  0  0
 28 25  1  0  0  0  0
 29 28  1  6  0  0  0
 29 34  1  0  0  0  0
 31 32  2  0  0  0  0
 32 34  1  0  0  0  0
 32 30  1  0  0  0  0
 33 31  1  0  0  0  0
 33 29  1  0  0  0  0
 36 40  1  0  0  0  0
 37 38  1  1  0  0  0
 37 36  1  0  0  0  0
 39 43  1  0  0  0  0
 39 41  1  0  0  0  0
 41 35  1  6  0  0  0
 41 40  1  0  0  0  0
 42 37  1  0  0  0  0
 43 37  1  0  0  0  0
M  END
>  <MODEL>
5

>  <REMARK>
 VINA RESULT:      -8.9      1.408      2.882
  Name = 
  9 active torsions:
  status: ('A' for Active; 'I' for Inactive)
    1  A    between atoms: O_1  and  C_34
    2  A    between atoms: O_1  and  C_35
    3  A    between atoms: C_2  and  C_6
    4  A    between atoms: C_2  and  C_13
    5  A    between atoms: O_3  and  C_4
    6  A    between atoms: O_3  and  C_12
    7  A    between atoms: C_6  and  C_12
    8  A    between atoms: C_11  and  O_14
    9  A    between atoms: O_14  and  C_22
                            x       y       z     vdW  Elec       q    Type
                         _______ _______ _______ _____ _____    ______ ____

>  <TORSDO>
F 9

$$$$
=
 OpenBabel10272414083D

 43 48  0  0  1  0  0  0  0  0999 V2000
  191.2450  176.5490  146.7600 C   0  0  0  0  0  0  0  0  0  0  0  0
  189.2750  178.0430  142.2410 C   0  0  1  0  0  3  0  0  0  0  0  0
  186.4750  177.6440  142.5930 C   0  0  2  0  0  3  0  0  0  0  0  0
  190.7780  176.8400  144.3950 C   0  0  0  0  0  0  0  0  0  0  0  0
  190.0590  177.2150  147.0800 C   0  0  0  0  0  3  0  0  0  0  0  0
  192.1270  176.0370  147.8430 C   0  0  0  0  0  1  0  0  0  0  0  0
  189.5890  177.5300  144.7190 C   0  0  0  0  0  0  0  0  0  0  0  0
  191.6060  176.3690  145.4210 C   0  0  0  0  0  3  0  0  0  0  0  0
  189.2360  177.7040  146.0630 C   0  0  0  0  0  3  0  0  0  0  0  0
  187.4110  177.2430  143.6660 N   0  0  0  0  0  2  0  0  0  0  0  0
  188.6500  178.0290  143.6510 C   0  0  2  0  0  3  0  0  0  0  0  0
  190.0730  176.7680  141.9930 C   0  0  0  0  0  2  0  0  0  0  0  0
  188.1700  178.1560  141.1900 C   0  0  1  0  0  3  0  0  0  0  0  0
  186.9980  178.6680  141.7720 O   0  0  0  0  0  0  0  0  0  0  0  0
  191.2360  176.6940  142.9730 C   0  0  0  0  0  2  0  0  0  0  0  0
  185.1420  178.0930  143.1910 C   0  0  1  0  0  3  0  0  0  0  0  0
  185.3780  178.8030  144.5140 C   0  0  0  0  0  1  0  0  0  0  0  0
  184.4160  179.0350  142.2390 C   0  0  0  0  0  2  0  0  0  0  0  0
  183.0460  178.5210  141.9340 C   0  0  0  0  0  0  0  0  0  0  0  0
  182.1030  178.7880  142.7230 O   0  0  0  0  0  0  0  0  0  0  0  0
  182.7870  177.7520  140.7980 O   0  0  0  0  0  0  0  0  0  0  0  0
  181.8850  178.1670  139.7740 C   0  0  1  0  0  3  0  0  0  0  0  0
  181.8130  179.4120  137.7200 C   0  0  0  0  0  2  0  0  0  0  0  0
  181.2970  179.5250  140.1050 C   0  0  0  0  0  2  0  0  0  0  0  0
  182.5770  178.3020  138.4110 C   0  0  1  0  0  0  0  0  0  0  0  0
  184.0390  178.7540  138.5230 C   0  0  0  0  0  1  0  0  0  0  0  0
  181.2190  180.2980  138.8030 C   0  0  0  0  0  2  0  0  0  0  0  0
  182.4500  177.1280  137.6270 O   0  0  0  0  0  0  0  0  0  0  0  0
  183.7110  176.5300  137.4540 C   0  0  2  0  0  3  0  0  0  0  0  0
  184.1430  172.8300  137.3420 C   0  0  0  0  0  1  0  0  0  0  0  0
  184.1300  174.7890  135.9030 N   0  0  0  0  0  0  0  0  0  0  0  0
  184.0000  174.2860  137.0780 C   0  0  0  0  0  0  0  0  0  0  0  0
  183.9400  176.2300  135.9700 C   0  0  0  0  0  2  0  0  0  0  0  0
  183.7290  175.2270  138.0980 N   0  0  0  0  0  2  0  0  0  0  0  0
  188.5840  178.9950  140.1540 O   0  0  0  0  0  0  0  0  0  0  0  0
  189.2360  178.0620  136.6540 C   0  0  0  0  0  2  0  0  0  0  0  0
  187.8280  177.4580  136.5260 C   0  0  1  0  0  0  0  0  0  0  0  0
  186.9520  178.4080  135.7330 C   0  0  0  0  0  1  0  0  0  0  0  0
  188.1900  176.9350  138.9810 C   0  0  0  0  0  2  0  0  0  0  0  0
  189.3660  178.9410  137.8950 C   0  0  0  0  0  2  0  0  0  0  0  0
  189.1160  178.1430  139.1830 C   0  0  1  0  0  3  0  0  0  0  0  0
  187.9190  176.2530  135.8320 O   0  0  0  0  0  1  0  0  0  0  0  0
  187.1610  177.2010  137.8860 C   0  0  0  0  0  2  0  0  0  0  0  0
  1  5  1  0  0  0  0
  1  6  1  0  0  0  0
  2 12  1  6  0  0  0
  2 11  1  0  0  0  0
  3 16  1  1  0  0  0
  3 10  1  0  0  0  0
  4  7  2  0  0  0  0
  4  8  1  0  0  0  0
  7  9  1  0  0  0  0
  8  1  2  0  0  0  0
  9  5  2  0  0  0  0
 11 10  1  6  0  0  0
 11  7  1  0  0  0  0
 12 15  1  0  0  0  0
 13 35  1  6  0  0  0
 13 14  1  0  0  0  0
 13  2  1  0  0  0  0
 14  3  1  0  0  0  0
 15  4  1  0  0  0  0
 16 17  1  1  0  0  0
 18 16  1  0  0  0  0
 19 18  1  0  0  0  0
 19 20  2  0  0  0  0
 21 19  1  0  0  0  0
 22 24  1  0  0  0  0
 22 21  1  1  0  0  0
 23 25  1  0  0  0  0
 23 27  1  0  0  0  0
 25 26  1  1  0  0  0
 25 22  1  0  0  0  0
 27 24  1  0  0  0  0
 28 25  1  0  0  0  0
 29 28  1  6  0  0  0
 29 34  1  0  0  0  0
 31 33  1  0  0  0  0
 31 32  2  0  0  0  0
 32 30  1  0  0  0  0
 32 34  1  0  0  0  0
 33 29  1  0  0  0  0
 36 40  1  0  0  0  0
 37 38  1  6  0  0  0
 37 36  1  0  0  0  0
 37 43  1  0  0  0  0
 39 41  1  0  0  0  0
 40 41  1  0  0  0  0
 41 35  1  1  0  0  0
 42 37  1  0  0  0  0
 43 39  1  0  0  0  0
M  END
>  <MODEL>
6

>  <REMARK>
 VINA RESULT:      -8.7      2.070      5.259
  Name = 
  9 active torsions:
  status: ('A' for Active; 'I' for Inactive)
    1  A    between atoms: O_1  and  C_34
    2  A    between atoms: O_1  and  C_35
    3  A    between atoms: C_2  and  C_6
    4  A    between atoms: C_2  and  C_13
    5  A    between atoms: O_3  and  C_4
    6  A    between atoms: O_3  and  C_12
    7  A    between atoms: C_6  and  C_12
    8  A    between atoms: C_11  and  O_14
    9  A    between atoms: O_14  and  C_22
                            x       y       z     vdW  Elec       q    Type
                         _______ _______ _______ _____ _____    ______ ____

>  <TORSDO>
F 9

$$$$
=
 OpenBabel10272414083D

 43 48  0  0  1  0  0  0  0  0999 V2000
  183.6900  177.0510  135.6490 C   0  0  0  0  0  0  0  0  0  0  0  0
  188.4490  175.4110  136.7390 C   0  0  1  0  0  3  0  0  0  0  0  0
  189.4060  177.3730  138.5730 C   0  0  2  0  0  3  0  0  0  0  0  0
  185.9800  176.2560  135.5040 C   0  0  0  0  0  0  0  0  0  0  0  0
  183.8630  177.3090  137.0120 C   0  0  0  0  0  3  0  0  0  0  0  0
  182.3840  177.3360  134.9980 C   0  0  0  0  0  1  0  0  0  0  0  0
  186.1480  176.4980  136.8850 C   0  0  0  0  0  0  0  0  0  0  0  0
  184.7440  176.5190  134.9000 C   0  0  0  0  0  3  0  0  0  0  0  0
  185.0860  177.0320  137.6260 C   0  0  0  0  0  3  0  0  0  0  0  0
  188.0740  177.5400  137.9520 N   0  0  0  0  0  2  0  0  0  0  0  0
  187.4670  176.2600  137.5730 C   0  0  2  0  0  3  0  0  0  0  0  0
  188.4410  175.8530  135.2820 C   0  0  0  0  0  2  0  0  0  0  0  0
  189.8630  175.5620  137.3020 C   0  0  1  0  0  3  0  0  0  0  0  0
  189.8120  176.0200  138.6300 O   0  0  0  0  0  0  0  0  0  0  0  0
  187.0620  175.6160  134.6830 C   0  0  0  0  0  2  0  0  0  0  0  0
  189.4150  177.9730  139.9780 C   0  0  1  0  0  3  0  0  0  0  0  0
  188.0040  178.3650  140.3870 C   0  0  0  0  0  1  0  0  0  0  0  0
  189.9690  176.9740  140.9850 C   0  0  0  0  0  2  0  0  0  0  0  0
  191.4070  177.2640  141.2780 C   0  0  0  0  0  0  0  0  0  0  0  0
  192.1460  177.6870  140.3520 O   0  0  0  0  0  0  0  0  0  0  0  0
  191.9490  177.0750  142.5510 O   0  0  0  0  0  0  0  0  0  0  0  0
  191.1730  176.6300  143.6620 C   0  0  1  0  0  3  0  0  0  0  0  0
  190.6490  177.1920  145.9380 C   0  0  0  0  0  2  0  0  0  0  0  0
  191.9890  175.7030  144.5410 C   0  0  0  0  0  2  0  0  0  0  0  0
  190.7100  177.7930  144.5490 C   0  0  1  0  0  0  0  0  0  0  0  0
  191.7170  178.9500  144.5960 C   0  0  0  0  0  1  0  0  0  0  0  0
  191.6310  176.0340  145.9770 C   0  0  0  0  0  2  0  0  0  0  0  0
  189.4100  178.2430  144.2070 O   0  0  0  0  0  0  0  0  0  0  0  0
  188.4460  177.3900  144.7730 C   0  0  2  0  0  3  0  0  0  0  0  0
  185.1330  178.6450  145.9300 C   0  0  0  0  0  1  0  0  0  0  0  0
  186.1660  177.3830  144.1270 N   0  0  0  0  0  0  0  0  0  0  0  0
  186.2940  178.0430  145.2230 C   0  0  0  0  0  0  0  0  0  0  0  0
  187.4740  176.9190  143.6870 C   0  0  0  0  0  2  0  0  0  0  0  0
  187.6190  178.1340  145.7070 N   0  0  0  0  0  2  0  0  0  0  0  0
  190.5270  174.3340  137.2570 O   0  0  0  0  0  0  0  0  0  0  0  0
  193.9900  173.6480  136.2180 C   0  0  0  0  0  2  0  0  0  0  0  0
  194.5300  174.5880  137.3080 C   0  0  1  0  0  0  0  0  0  0  0  0
  195.0870  173.7560  138.4470 C   0  0  0  0  0  1  0  0  0  0  0  0
  192.3660  175.8260  136.8470 C   0  0  0  0  0  2  0  0  0  0  0  0
  192.5230  173.2950  136.4480 C   0  0  0  0  0  2  0  0  0  0  0  0
  191.6310  174.5450  136.4270 C   0  0  1  0  0  3  0  0  0  0  0  0
  195.5630  175.3510  136.7690 O   0  0  0  0  0  1  0  0  0  0  0  0
  193.4560  175.5290  137.8730 C   0  0  0  0  0  2  0  0  0  0  0  0
  1  5  1  0  0  0  0
  2 12  1  6  0  0  0
  2 13  1  0  0  0  0
  2 11  1  0  0  0  0
  3 14  1  0  0  0  0
  3 16  1  1  0  0  0
  4  7  2  0  0  0  0
  5  9  2  0  0  0  0
  6  1  1  0  0  0  0
  7  9  1  0  0  0  0
  8  4  1  0  0  0  0
  8  1  2  0  0  0  0
 10  3  1  0  0  0  0
 11  7  1  6  0  0  0
 11 10  1  0  0  0  0
 13 35  1  1  0  0  0
 13 14  1  0  0  0  0
 15 12  1  0  0  0  0
 15  4  1  0  0  0  0
 16 17  1  1  0  0  0
 16 18  1  0  0  0  0
 18 19  1  0  0  0  0
 19 21  1  0  0  0  0
 20 19  2  0  0  0  0
 22 21  1  6  0  0  0
 22 24  1  0  0  0  0
 22 25  1  0  0  0  0
 23 27  1  0  0  0  0
 24 27  1  0  0  0  0
 25 26  1  6  0  0  0
 25 23  1  0  0  0  0
 28 25  1  0  0  0  0
 29 28  1  6  0  0  0
 29 34  1  0  0  0  0
 31 32  2  0  0  0  0
 32 34  1  0  0  0  0
 32 30  1  0  0  0  0
 33 31  1  0  0  0  0
 33 29  1  0  0  0  0
 36 40  1  0  0  0  0
 36 37  1  0  0  0  0
 37 43  1  0  0  0  0
 37 38  1  1  0  0  0
 39 43  1  0  0  0  0
 41 40  1  0  0  0  0
 41 39  1  0  0  0  0
 41 35  1  1  0  0  0
 42 37  1  0  0  0  0
M  END
>  <MODEL>
7

>  <REMARK>
 VINA RESULT:      -8.2      2.832     10.239
  Name = 
  9 active torsions:
  status: ('A' for Active; 'I' for Inactive)
    1  A    between atoms: O_1  and  C_34
    2  A    between atoms: O_1  and  C_35
    3  A    between atoms: C_2  and  C_6
    4  A    between atoms: C_2  and  C_13
    5  A    between atoms: O_3  and  C_4
    6  A    between atoms: O_3  and  C_12
    7  A    between atoms: C_6  and  C_12
    8  A    between atoms: C_11  and  O_14
    9  A    between atoms: O_14  and  C_22
                            x       y       z     vdW  Elec       q    Type
                         _______ _______ _______ _____ _____    ______ ____

>  <TORSDO>
F 9

$$$$
=
 OpenBabel10272414083D

 43 48  0  0  1  0  0  0  0  0999 V2000
  193.6500  175.9160  135.7160 C   0  0  0  0  0  0  0  0  0  0  0  0
  190.5710  176.7360  139.7620 C   0  0  1  0  0  3  0  0  0  0  0  0
  188.3880  178.1800  138.6320 C   0  0  2  0  0  3  0  0  0  0  0  0
  192.7610  176.5240  137.8910 C   0  0  0  0  0  0  0  0  0  0  0  0
  192.3510  175.7620  135.2230 C   0  0  0  0  0  3  0  0  0  0  0  0
  194.8170  175.6760  134.8240 C   0  0  0  0  0  1  0  0  0  0  0  0
  191.4480  176.3510  137.3990 C   0  0  0  0  0  0  0  0  0  0  0  0
  193.8540  176.2890  137.0480 C   0  0  0  0  0  3  0  0  0  0  0  0
  191.2560  175.9780  136.0630 C   0  0  0  0  0  3  0  0  0  0  0  0
  189.5470  177.8240  137.7840 N   0  0  0  0  0  2  0  0  0  0  0  0
  190.2410  176.6220  138.2590 C   0  0  2  0  0  3  0  0  0  0  0  0
  191.8350  177.5580  139.9760 C   0  0  0  0  0  2  0  0  0  0  0  0
  189.4060  177.4050  140.4930 C   0  0  1  0  0  3  0  0  0  0  0  0
  188.2310  177.3050  139.7300 O   0  0  0  0  0  0  0  0  0  0  0  0
  193.0200  176.8500  139.3340 C   0  0  0  0  0  2  0  0  0  0  0  0
  187.1070  178.1990  137.7990 C   0  0  1  0  0  3  0  0  0  0  0  0
  187.2730  179.1320  136.6110 C   0  0  0  0  0  1  0  0  0  0  0  0
  186.7740  176.8010  137.2960 C   0  0  0  0  0  2  0  0  0  0  0  0
  185.3630  176.7400  136.8040 C   0  0  0  0  0  0  0  0  0  0  0  0
  185.1400  176.8420  135.5700 O   0  0  0  0  0  0  0  0  0  0  0  0
  184.2870  176.5770  137.6800 O   0  0  0  0  0  0  0  0  0  0  0  0
  183.6690  177.6710  138.3540 C   0  0  1  0  0  3  0  0  0  0  0  0
  181.7280  178.2260  139.6570 C   0  0  0  0  0  2  0  0  0  0  0  0
  182.7110  178.3930  137.4270 C   0  0  0  0  0  2  0  0  0  0  0  0
  182.8540  177.2160  139.5720 C   0  0  1  0  0  0  0  0  0  0  0  0
  182.2140  175.8340  139.3830 C   0  0  0  0  0  1  0  0  0  0  0  0
  181.5010  178.7740  138.2580 C   0  0  0  0  0  2  0  0  0  0  0  0
  183.6000  177.2880  140.7740 O   0  0  0  0  0  0  0  0  0  0  0  0
  183.6660  178.6220  141.2160 C   0  0  2  0  0  3  0  0  0  0  0  0
  184.8550  179.5150  144.6330 C   0  0  0  0  0  1  0  0  0  0  0  0
  185.5550  179.5470  142.3050 N   0  0  0  0  0  0  0  0  0  0  0  0
  184.6640  179.2510  143.1830 C   0  0  0  0  0  0  0  0  0  0  0  0
  185.0750  179.1740  140.9830 C   0  0  0  0  0  2  0  0  0  0  0  0
  183.4860  178.6710  142.6570 N   0  0  0  0  0  2  0  0  0  0  0  0
  189.2110  176.7950  141.7350 O   0  0  0  0  0  0  0  0  0  0  0  0
  190.4230  178.7090  144.6350 C   0  0  0  0  0  2  0  0  0  0  0  0
  189.7750  177.7030  145.6010 C   0  0  1  0  0  0  0  0  0  0  0  0
  190.8550  176.8160  146.1890 C   0  0  0  0  0  1  0  0  0  0  0  0
  188.0760  177.5060  143.7290 C   0  0  0  0  0  2  0  0  0  0  0  0
  190.5040  178.1590  143.2130 C   0  0  0  0  0  2  0  0  0  0  0  0
  189.1100  177.8480  142.6480 C   0  0  1  0  0  3  0  0  0  0  0  0
  189.1660  178.4070  146.6370 O   0  0  0  0  0  1  0  0  0  0  0  0
  188.7280  176.8090  144.9210 C   0  0  0  0  0  2  0  0  0  0  0  0
  1  8  1  0  0  0  0
  2 12  1  6  0  0  0
  2 13  1  0  0  0  0
  3 16  1  6  0  0  0
  3 14  1  0  0  0  0
  4 15  1  0  0  0  0
  5  1  2  0  0  0  0
  5  9  1  0  0  0  0
  6  1  1  0  0  0  0
  7  4  1  0  0  0  0
  8  4  2  0  0  0  0
  9  7  2  0  0  0  0
 10 11  1  0  0  0  0
 10  3  1  0  0  0  0
 11  7  1  6  0  0  0
 11  2  1  0  0  0  0
 13 35  1  1  0  0  0
 14 13  1  0  0  0  0
 15 12  1  0  0  0  0
 16 17  1  6  0  0  0
 18 16  1  0  0  0  0
 19 18  1  0  0  0  0
 19 21  1  0  0  0  0
 20 19  2  0  0  0  0
 22 21  1  6  0  0  0
 22 25  1  0  0  0  0
 24 27  1  0  0  0  0
 24 22  1  0  0  0  0
 25 26  1  6  0  0  0
 25 23  1  0  0  0  0
 25 28  1  0  0  0  0
 27 23  1  0  0  0  0
 29 28  1  1  0  0  0
 29 34  1  0  0  0  0
 31 32  2  0  0  0  0
 32 30  1  0  0  0  0
 33 29  1  0  0  0  0
 33 31  1  0  0  0  0
 34 32  1  0  0  0  0
 36 37  1  0  0  0  0
 37 38  1  1  0  0  0
 37 42  1  0  0  0  0
 39 43  1  0  0  0  0
 40 36  1  0  0  0  0
 41 35  1  6  0  0  0
 41 40  1  0  0  0  0
 41 39  1  0  0  0  0
 43 37  1  0  0  0  0
M  END
>  <MODEL>
8

>  <REMARK>
 VINA RESULT:      -8.2      2.566      7.130
  Name = 
  9 active torsions:
  status: ('A' for Active; 'I' for Inactive)
    1  A    between atoms: O_1  and  C_34
    2  A    between atoms: O_1  and  C_35
    3  A    between atoms: C_2  and  C_6
    4  A    between atoms: C_2  and  C_13
    5  A    between atoms: O_3  and  C_4
    6  A    between atoms: O_3  and  C_12
    7  A    between atoms: C_6  and  C_12
    8  A    between atoms: C_11  and  O_14
    9  A    between atoms: O_14  and  C_22
                            x       y       z     vdW  Elec       q    Type
                         _______ _______ _______ _____ _____    ______ ____

>  <TORSDO>
F 9

$$$$
=
 OpenBabel10272414083D

 43 48  0  0  1  0  0  0  0  0999 V2000
  186.4060  171.8070  135.7580 C   0  0  0  0  0  0  0  0  0  0  0  0
  191.2640  173.3350  136.5250 C   0  0  1  0  0  3  0  0  0  0  0  0
  190.9760  176.0840  137.2230 C   0  0  2  0  0  3  0  0  0  0  0  0
  188.7820  172.2470  135.5270 C   0  0  0  0  0  0  0  0  0  0  0  0
  186.3470  172.6770  136.8510 C   0  0  0  0  0  3  0  0  0  0  0  0
  185.1760  171.1100  135.2960 C   0  0  0  0  0  1  0  0  0  0  0  0
  188.7280  173.1110  136.6430 C   0  0  0  0  0  0  0  0  0  0  0  0
  187.6220  171.5880  135.1030 C   0  0  0  0  0  3  0  0  0  0  0  0
  187.5040  173.3240  137.2910 C   0  0  0  0  0  3  0  0  0  0  0  0
  189.7830  175.2970  136.8390 N   0  0  0  0  0  2  0  0  0  0  0  0
  189.9420  173.8660  137.1170 C   0  0  2  0  0  3  0  0  0  0  0  0
  191.1090  173.0360  135.0400 C   0  0  0  0  0  2  0  0  0  0  0  0
  192.3670  174.3780  136.7150 C   0  0  1  0  0  3  0  0  0  0  0  0
  192.0160  175.2760  137.7370 O   0  0  0  0  0  0  0  0  0  0  0  0
  190.0820  171.9290  134.8460 C   0  0  0  0  0  2  0  0  0  0  0  0
  190.6000  177.1530  138.2470 C   0  0  1  0  0  3  0  0  0  0  0  0
  189.2360  177.7360  137.9140 C   0  0  0  0  0  1  0  0  0  0  0  0
  190.5630  176.5640  139.6510 C   0  0  0  0  0  2  0  0  0  0  0  0
  191.4830  177.3130  140.5610 C   0  0  0  0  0  0  0  0  0  0  0  0
  192.7010  177.4070  140.2580 O   0  0  0  0  0  0  0  0  0  0  0  0
  191.0260  177.9080  141.7390 O   0  0  0  0  0  0  0  0  0  0  0  0
  190.6050  177.1510  142.8720 C   0  0  1  0  0  3  0  0  0  0  0  0
  190.8850  177.0150  145.2540 C   0  0  0  0  0  2  0  0  0  0  0  0
  191.5700  176.0110  143.1350 C   0  0  0  0  0  2  0  0  0  0  0  0
  190.5570  177.9990  144.1500 C   0  0  1  0  0  0  0  0  0  0  0  0
  191.6280  179.0970  144.1830 C   0  0  0  0  0  1  0  0  0  0  0  0
  191.7190  175.9030  144.6410 C   0  0  0  0  0  2  0  0  0  0  0  0
  189.2630  178.5210  144.3980 O   0  0  0  0  0  0  0  0  0  0  0  0
  188.4690  177.5490  145.0320 C   0  0  2  0  0  3  0  0  0  0  0  0
  185.4470  178.4540  147.0180 C   0  0  0  0  0  1  0  0  0  0  0  0
  186.1050  177.4910  144.8850 N   0  0  0  0  0  0  0  0  0  0  0  0
  186.4460  178.0140  146.0080 C   0  0  0  0  0  0  0  0  0  0  0  0
  187.3000  177.1620  144.1220 C   0  0  0  0  0  2  0  0  0  0  0  0
  187.8410  178.1210  146.2110 N   0  0  0  0  0  2  0  0  0  0  0  0
  193.5690  173.7450  137.0400 O   0  0  0  0  0  0  0  0  0  0  0  0
  196.9150  175.1640  136.4600 C   0  0  0  0  0  2  0  0  0  0  0  0
  197.4690  174.4260  137.6890 C   0  0  1  0  0  0  0  0  0  0  0  0
  198.2860  173.2360  137.2240 C   0  0  0  0  0  1  0  0  0  0  0  0
  195.1130  174.7890  138.5560 C   0  0  0  0  0  2  0  0  0  0  0  0
  195.5550  174.6170  136.0340 C   0  0  0  0  0  2  0  0  0  0  0  0
  194.5080  174.7740  137.1460 C   0  0  1  0  0  3  0  0  0  0  0  0
  198.3030  175.2910  138.3930 O   0  0  0  0  0  1  0  0  0  0  0  0
  196.3660  173.9200  138.6320 C   0  0  0  0  0  2  0  0  0  0  0  0
  1  5  1  0  0  0  0
  2 12  1  6  0  0  0
  2 13  1  0  0  0  0
  2 11  1  0  0  0  0
  3 14  1  0  0  0  0
  3 16  1  1  0  0  0
  4  7  2  0  0  0  0
  5  9  2  0  0  0  0
  6  1  1  0  0  0  0
  7  9  1  0  0  0  0
  8  4  1  0  0  0  0
  8  1  2  0  0  0  0
 10 11  1  0  0  0  0
 10  3  1  0  0  0  0
 11  7  1  6  0  0  0
 13 35  1  1  0  0  0
 13 14  1  0  0  0  0
 15 12  1  0  0  0  0
 15  4  1  0  0  0  0
 16 17  1  6  0  0  0
 16 18  1  0  0  0  0
 18 19  1  0  0  0  0
 19 21  1  0  0  0  0
 20 19  2  0  0  0  0
 22 21  1  6  0  0  0
 22 24  1  0  0  0  0
 22 25  1  0  0  0  0
 24 27  1  0  0  0  0
 25 26  1  6  0  0  0
 25 28  1  0  0  0  0
 25 23  1  0  0  0  0
 27 23  1  0  0  0  0
 29 28  1  6  0  0  0
 29 34  1  0  0  0  0
 31 32  2  0  0  0  0
 32 34  1  0  0  0  0
 32 30  1  0  0  0  0
 33 31  1  0  0  0  0
 33 29  1  0  0  0  0
 36 37  1  0  0  0  0
 37 38  1  6  0  0  0
 37 42  1  0  0  0  0
 37 43  1  0  0  0  0
 39 43  1  0  0  0  0
 40 36  1  0  0  0  0
 40 41  1  0  0  0  0
 41 35  1  1  0  0  0
 41 39  1  0  0  0  0
M  END
>  <MODEL>
9

>  <REMARK>
 VINA RESULT:      -7.8      3.737     11.012
  Name = 
  9 active torsions:
  status: ('A' for Active; 'I' for Inactive)
    1  A    between atoms: O_1  and  C_34
    2  A    between atoms: O_1  and  C_35
    3  A    between atoms: C_2  and  C_6
    4  A    between atoms: C_2  and  C_13
    5  A    between atoms: O_3  and  C_4
    6  A    between atoms: O_3  and  C_12
    7  A    between atoms: C_6  and  C_12
    8  A    between atoms: C_11  and  O_14
    9  A    between atoms: O_14  and  C_22
                            x       y       z     vdW  Elec       q    Type
                         _______ _______ _______ _____ _____    ______ ____

>  <TORSDO>
F 9

$$$$
