=
 OpenBabel10272413443D

 30 32  0  0  1  0  0  0  0  0999 V2000
  184.3510  178.5410  140.8820 N   0  0  1  0  0  0  0  0  0  0  0  0
  183.6720  179.5380  140.0210 C   0  0  1  0  0  3  0  0  0  0  0  0
  184.8460  178.7890  139.5090 C   0  0  2  0  0  3  0  0  0  0  0  0
  186.5910  178.4040  141.7610 C   0  0  0  0  0  0  0  0  0  0  0  0
  186.9850  177.5700  142.9130 C   0  0  0  0  0  3  0  0  0  0  0  0
  187.3120  178.4230  140.7260 O   0  0  0  0  0  0  0  0  0  0  0  0
  184.7500  179.3150  143.1990 C   0  0  0  0  0  3  0  0  0  0  0  0
  184.5810  178.7900  145.5790 C   0  0  0  0  0  1  0  0  0  0  0  0
  185.3010  179.1880  141.7860 C   0  0  2  0  0  3  0  0  0  0  0  0
  186.3220  177.6620  144.0720 C   0  0  0  0  0  3  0  0  0  0  0  0
  185.1980  178.5960  144.2320 C   0  0  0  0  0  0  0  0  0  0  0  0
  185.0710  176.2250  136.6890 C   0  0  0  0  0  3  0  0  0  0  0  0
  185.3290  177.3710  137.4610 C   0  0  0  0  0  0  0  0  0  0  0  0
  183.6010  176.6540  139.0170 C   0  0  0  0  0  3  0  0  0  0  0  0
  184.5630  177.6020  138.6200 C   0  0  0  0  0  0  0  0  0  0  0  0
  184.0940  175.3020  137.0810 C   0  0  0  0  0  3  0  0  0  0  0  0
  183.3630  175.5110  138.2500 C   0  0  0  0  0  3  0  0  0  0  0  0
  186.3500  178.2760  137.1140 O   0  0  0  0  0  0  0  0  0  0  0  0
  188.0130  177.6620  135.4550 C   0  0  0  0  0  1  0  0  0  0  0  0
  188.5780  179.1300  137.3450 C   0  0  0  0  0  1  0  0  0  0  0  0
  188.1280  176.7550  137.7750 C   0  0  0  0  0  1  0  0  0  0  0  0
  187.7310  177.9490  136.9190 C   0  0  0  0  0  0  0  0  0  0  0  0
  182.2880  179.0010  139.6260 C   0  0  2  0  0  3  0  0  0  0  0  0
  181.6500  178.4020  136.8080 O   0  0  0  0  0  0  0  0  0  0  0  0
  181.3650  179.5380  137.2760 C   0  0  0  0  0  0  0  0  0  0  0  0
  180.7320  180.5470  136.3910 C   0  0  0  0  0  1  0  0  0  0  0  0
  181.6280  179.8710  138.6480 N   0  0  0  0  0  2  0  0  0  0  0  0
  180.7370  179.8460  141.2940 O   0  0  0  0  0  1  0  0  0  0  0  0
  180.3860  177.6150  140.5030 C   0  0  0  0  0  1  0  0  0  0  0  0
  181.3990  178.6980  140.8420 C   0  0  1  0  0  3  0  0  0  0  0  0
  1  9  1  1  0  0  0
  2 23  1  6  0  0  0
  2  1  1  0  0  0  0
  3 15  1  6  0  0  0
  3  2  1  0  0  0  0
  3  1  1  0  0  0  0
  4  9  1  0  0  0  0
  4  5  1  0  0  0  0
  5 10  2  0  0  0  0
  6  4  2  0  0  0  0
  7 11  2  0  0  0  0
  9  7  1  1  0  0  0
 10 11  1  0  0  0  0
 11  8  1  0  0  0  0
 12 16  2  0  0  0  0
 12 13  1  0  0  0  0
 13 15  2  0  0  0  0
 15 14  1  0  0  0  0
 16 17  1  0  0  0  0
 17 14  2  0  0  0  0
 18 13  1  0  0  0  0
 19 22  1  0  0  0  0
 22 18  1  0  0  0  0
 22 20  1  0  0  0  0
 22 21  1  0  0  0  0
 23 27  1  6  0  0  0
 23 30  1  0  0  0  0
 24 25  2  0  0  0  0
 25 27  1  0  0  0  0
 26 25  1  0  0  0  0
 30 29  1  6  0  0  0
 30 28  1  0  0  0  0
M  END
>  <MODEL>
1

>  <REMARK>
 VINA RESULT:      -6.1      0.000      0.000
  Name = 
  7 active torsions:
  status: ('A' for Active; 'I' for Inactive)
    1  A    between atoms: N_1  and  C_22
    2  A    between atoms: C_4  and  C_23
    3  A    between atoms: C_5  and  C_12
    4  A    between atoms: C_8  and  O_13
    5  A    between atoms: O_13  and  C_30
    6  A    between atoms: C_23  and  N_25
    7  A    between atoms: C_23  and  C_26
                            x       y       z     vdW  Elec       q    Type
                         _______ _______ _______ _____ _____    ______ ____

>  <TORSDO>
F 7

$$$$
=
 OpenBabel10272413443D

 30 32  0  0  1  0  0  0  0  0999 V2000
  188.3550  177.1720  137.1920 N   0  0  1  0  0  0  0  0  0  0  0  0
  187.8450  175.9710  137.8940 C   0  0  1  0  0  3  0  0  0  0  0  0
  186.9980  177.1850  137.7840 C   0  0  2  0  0  3  0  0  0  0  0  0
  190.4210  177.1700  138.4340 C   0  0  0  0  0  0  0  0  0  0  0  0
  190.5790  176.6060  139.7890 C   0  0  0  0  0  3  0  0  0  0  0  0
  191.2910  176.9320  137.5520 O   0  0  0  0  0  0  0  0  0  0  0  0
  188.4470  178.4380  139.3170 C   0  0  0  0  0  3  0  0  0  0  0  0
  187.8830  178.4720  141.6940 C   0  0  0  0  0  1  0  0  0  0  0  0
  189.1970  177.9780  138.0750 C   0  0  2  0  0  3  0  0  0  0  0  0
  189.7540  176.9790  140.7760 C   0  0  0  0  0  3  0  0  0  0  0  0
  188.6840  177.9590  140.5410 C   0  0  0  0  0  0  0  0  0  0  0  0
  183.6260  177.1640  135.9930 C   0  0  0  0  0  3  0  0  0  0  0  0
  184.5780  177.1030  137.0250 C   0  0  0  0  0  0  0  0  0  0  0  0
  186.3310  177.3900  135.3620 C   0  0  0  0  0  3  0  0  0  0  0  0
  185.9460  177.1860  136.7020 C   0  0  0  0  0  0  0  0  0  0  0  0
  184.0240  177.3420  134.6620 C   0  0  0  0  0  3  0  0  0  0  0  0
  185.3760  177.4630  134.3460 C   0  0  0  0  0  3  0  0  0  0  0  0
  184.1920  176.9870  138.3750 O   0  0  0  0  0  0  0  0  0  0  0  0
  184.1680  179.3690  138.8480 C   0  0  0  0  0  1  0  0  0  0  0  0
  182.0920  178.0530  138.8190 C   0  0  0  0  0  1  0  0  0  0  0  0
  183.6960  177.7040  140.6440 C   0  0  0  0  0  1  0  0  0  0  0  0
  183.5670  178.0090  139.1590 C   0  0  0  0  0  0  0  0  0  0  0  0
  187.5900  174.8590  136.8650 C   0  0  2  0  0  3  0  0  0  0  0  0
  185.0770  173.9390  135.6200 O   0  0  0  0  0  0  0  0  0  0  0  0
  185.4210  173.4650  136.7370 C   0  0  0  0  0  0  0  0  0  0  0  0
  184.5440  172.4690  137.4020 C   0  0  0  0  0  1  0  0  0  0  0  0
  186.6480  173.8560  137.3730 N   0  0  0  0  0  2  0  0  0  0  0  0
  189.6680  173.7070  137.3680 O   0  0  0  0  0  1  0  0  0  0  0  0
  188.5750  173.1450  135.3160 C   0  0  0  0  0  1  0  0  0  0  0  0
  188.8880  174.2330  136.3320 C   0  0  1  0  0  3  0  0  0  0  0  0
  1  3  1  0  0  0  0
  1  2  1  0  0  0  0
  1  9  1  1  0  0  0
  2 23  1  6  0  0  0
  3 15  1  6  0  0  0
  3  2  1  0  0  0  0
  4  5  1  0  0  0  0
  5 10  2  0  0  0  0
  6  4  2  0  0  0  0
  7 11  2  0  0  0  0
  9  4  1  0  0  0  0
  9  7  1  1  0  0  0
 11 10  1  0  0  0  0
 11  8  1  0  0  0  0
 12 13  1  0  0  0  0
 13 18  1  0  0  0  0
 14 15  1  0  0  0  0
 15 13  2  0  0  0  0
 16 12  2  0  0  0  0
 17 16  1  0  0  0  0
 17 14  2  0  0  0  0
 18 22  1  0  0  0  0
 19 22  1  0  0  0  0
 20 22  1  0  0  0  0
 22 21  1  0  0  0  0
 23 27  1  1  0  0  0
 24 25  2  0  0  0  0
 25 27  1  0  0  0  0
 25 26  1  0  0  0  0
 30 29  1  6  0  0  0
 30 23  1  0  0  0  0
 30 28  1  0  0  0  0
M  END
>  <MODEL>
2

>  <REMARK>
 VINA RESULT:      -6.0      3.058      6.098
  Name = 
  7 active torsions:
  status: ('A' for Active; 'I' for Inactive)
    1  A    between atoms: N_1  and  C_22
    2  A    between atoms: C_4  and  C_23
    3  A    between atoms: C_5  and  C_12
    4  A    between atoms: C_8  and  O_13
    5  A    between atoms: O_13  and  C_30
    6  A    between atoms: C_23  and  N_25
    7  A    between atoms: C_23  and  C_26
                            x       y       z     vdW  Elec       q    Type
                         _______ _______ _______ _____ _____    ______ ____

>  <TORSDO>
F 7

$$$$
=
 OpenBabel10272413443D

 30 32  0  0  1  0  0  0  0  0999 V2000
  189.0950  177.6620  138.2040 N   0  0  1  0  0  0  0  0  0  0  0  0
  188.6580  176.2720  138.4700 C   0  0  1  0  0  3  0  0  0  0  0  0
  187.6510  177.3430  138.2640 C   0  0  2  0  0  3  0  0  0  0  0  0
  190.4690  177.5640  140.1830 C   0  0  0  0  0  0  0  0  0  0  0  0
  190.1260  176.8020  141.3990 C   0  0  0  0  0  3  0  0  0  0  0  0
  191.6420  177.5100  139.7200 O   0  0  0  0  0  0  0  0  0  0  0  0
  188.1820  178.5810  140.3140 C   0  0  0  0  0  3  0  0  0  0  0  0
  186.7040  178.2120  142.2240 C   0  0  0  0  0  1  0  0  0  0  0  0
  189.4150  178.3590  139.4500 C   0  0  2  0  0  3  0  0  0  0  0  0
  188.9370  176.9750  141.9910 C   0  0  0  0  0  3  0  0  0  0  0  0
  187.9530  177.9270  141.4560 C   0  0  0  0  0  0  0  0  0  0  0  0
  185.0950  177.3860  135.4280 C   0  0  0  0  0  3  0  0  0  0  0  0
  185.6470  177.2330  136.7120 C   0  0  0  0  0  0  0  0  0  0  0  0
  187.8170  177.8550  135.8020 C   0  0  0  0  0  3  0  0  0  0  0  0
  187.0290  177.4390  136.8930 C   0  0  0  0  0  0  0  0  0  0  0  0
  185.8950  177.7750  134.3460 C   0  0  0  0  0  3  0  0  0  0  0  0
  187.2550  178.0180  134.5340 C   0  0  0  0  0  3  0  0  0  0  0  0
  184.8460  176.9030  137.8220 O   0  0  0  0  0  0  0  0  0  0  0  0
  182.7190  178.0310  137.5090 C   0  0  0  0  0  1  0  0  0  0  0  0
  183.3470  177.0730  139.6840 C   0  0  0  0  0  1  0  0  0  0  0  0
  184.5270  179.0690  138.8770 C   0  0  0  0  0  1  0  0  0  0  0  0
  183.8830  177.7600  138.4450 C   0  0  0  0  0  0  0  0  0  0  0  0
  188.9930  175.3990  137.2500 C   0  0  2  0  0  3  0  0  0  0  0  0
  187.0580  174.3440  135.2880 O   0  0  0  0  0  0  0  0  0  0  0  0
  187.3240  173.6650  136.3160 C   0  0  0  0  0  0  0  0  0  0  0  0
  186.6450  172.3620  136.5190 C   0  0  0  0  0  1  0  0  0  0  0  0
  188.2790  174.1190  137.2880 N   0  0  0  0  0  2  0  0  0  0  0  0
  191.1010  174.5570  138.1130 O   0  0  0  0  0  1  0  0  0  0  0  0
  190.7780  174.4770  135.7440 C   0  0  0  0  0  1  0  0  0  0  0  0
  190.5050  175.2270  137.0390 C   0  0  1  0  0  3  0  0  0  0  0  0
  1  3  1  0  0  0  0
  1  2  1  0  0  0  0
  1  9  1  1  0  0  0
  2 23  1  6  0  0  0
  3 15  1  6  0  0  0
  3  2  1  0  0  0  0
  4  5  1  0  0  0  0
  5 10  2  0  0  0  0
  6  4  2  0  0  0  0
  7 11  2  0  0  0  0
  9  4  1  0  0  0  0
  9  7  1  1  0  0  0
 11 10  1  0  0  0  0
 11  8  1  0  0  0  0
 12 13  1  0  0  0  0
 13 15  2  0  0  0  0
 13 18  1  0  0  0  0
 14 15  1  0  0  0  0
 16 17  1  0  0  0  0
 16 12  2  0  0  0  0
 17 14  2  0  0  0  0
 18 22  1  0  0  0  0
 19 22  1  0  0  0  0
 22 21  1  0  0  0  0
 22 20  1  0  0  0  0
 23 27  1  1  0  0  0
 24 25  2  0  0  0  0
 25 26  1  0  0  0  0
 25 27  1  0  0  0  0
 30 29  1  6  0  0  0
 30 23  1  0  0  0  0
 30 28  1  0  0  0  0
M  END
>  <MODEL>
3

>  <REMARK>
 VINA RESULT:      -5.9      3.034      6.279
  Name = 
  7 active torsions:
  status: ('A' for Active; 'I' for Inactive)
    1  A    between atoms: N_1  and  C_22
    2  A    between atoms: C_4  and  C_23
    3  A    between atoms: C_5  and  C_12
    4  A    between atoms: C_8  and  O_13
    5  A    between atoms: O_13  and  C_30
    6  A    between atoms: C_23  and  N_25
    7  A    between atoms: C_23  and  C_26
                            x       y       z     vdW  Elec       q    Type
                         _______ _______ _______ _____ _____    ______ ____

>  <TORSDO>
F 7

$$$$
=
 OpenBabel10272413443D

 30 32  0  0  1  0  0  0  0  0999 V2000
  192.5040  175.8040  137.0310 N   0  0  1  0  0  0  0  0  0  0  0  0
  191.7900  174.5800  137.4630 C   0  0  1  0  0  3  0  0  0  0  0  0
  191.7430  175.8040  138.3010 C   0  0  2  0  0  3  0  0  0  0  0  0
  194.7430  176.0430  136.1700 C   0  0  0  0  0  0  0  0  0  0  0  0
  195.4940  174.9690  135.4900 C   0  0  0  0  0  3  0  0  0  0  0  0
  194.7480  177.2100  135.6920 O   0  0  0  0  0  0  0  0  0  0  0  0
  194.2940  174.4030  138.0120 C   0  0  0  0  0  3  0  0  0  0  0  0
  195.3510  172.2010  138.0770 C   0  0  0  0  0  1  0  0  0  0  0  0
  193.9180  175.7450  137.3990 C   0  0  2  0  0  3  0  0  0  0  0  0
  195.6300  173.7700  136.0690 C   0  0  0  0  0  3  0  0  0  0  0  0
  195.0490  173.4940  137.3910 C   0  0  0  0  0  0  0  0  0  0  0  0
  188.5420  177.7070  139.1450 C   0  0  0  0  0  3  0  0  0  0  0  0
  189.6510  176.8540  139.2810 C   0  0  0  0  0  0  0  0  0  0  0  0
  190.2770  177.3800  136.9880 C   0  0  0  0  0  3  0  0  0  0  0  0
  190.5090  176.6650  138.1800 C   0  0  0  0  0  0  0  0  0  0  0  0
  188.3090  178.3930  137.9460 C   0  0  0  0  0  3  0  0  0  0  0  0
  189.1810  178.2370  136.8690 C   0  0  0  0  0  3  0  0  0  0  0  0
  189.9350  176.2060  140.4980 O   0  0  0  0  0  0  0  0  0  0  0  0
  189.2470  177.8900  142.1060 C   0  0  0  0  0  1  0  0  0  0  0  0
  190.3370  175.8070  142.8270 C   0  0  0  0  0  1  0  0  0  0  0  0
  191.6620  177.4910  141.6280 C   0  0  0  0  0  1  0  0  0  0  0  0
  190.2860  176.8490  141.7290 C   0  0  0  0  0  0  0  0  0  0  0  0
  190.5950  174.3390  136.5280 C   0  0  2  0  0  3  0  0  0  0  0  0
  187.7390  174.0630  135.8390 O   0  0  0  0  0  0  0  0  0  0  0  0
  188.2170  173.3670  136.7750 C   0  0  0  0  0  0  0  0  0  0  0  0
  187.3260  172.4390  137.5150 C   0  0  0  0  0  1  0  0  0  0  0  0
  189.6060  173.4410  137.1320 N   0  0  0  0  0  2  0  0  0  0  0  0
  191.4620  174.9670  134.3470 O   0  0  0  0  0  1  0  0  0  0  0  0
  192.1140  172.8330  135.2120 C   0  0  0  0  0  1  0  0  0  0  0  0
  191.0220  173.8880  135.1220 C   0  0  1  0  0  3  0  0  0  0  0  0
  1  9  1  1  0  0  0
  1  2  1  0  0  0  0
  1  3  1  0  0  0  0
  2 23  1  6  0  0  0
  2  3  1  0  0  0  0
  3 15  1  6  0  0  0
  4  9  1  0  0  0  0
  5 10  2  0  0  0  0
  5  4  1  0  0  0  0
  6  4  2  0  0  0  0
  9  7  1  6  0  0  0
 10 11  1  0  0  0  0
 11  7  2  0  0  0  0
 11  8  1  0  0  0  0
 12 13  1  0  0  0  0
 13 18  1  0  0  0  0
 14 15  1  0  0  0  0
 15 13  2  0  0  0  0
 16 12  2  0  0  0  0
 17 14  2  0  0  0  0
 17 16  1  0  0  0  0
 18 22  1  0  0  0  0
 21 22  1  0  0  0  0
 22 19  1  0  0  0  0
 22 20  1  0  0  0  0
 23 27  1  1  0  0  0
 24 25  2  0  0  0  0
 25 27  1  0  0  0  0
 25 26  1  0  0  0  0
 28 30  1  0  0  0  0
 30 29  1  1  0  0  0
 30 23  1  0  0  0  0
M  END
>  <MODEL>
4

>  <REMARK>
 VINA RESULT:      -5.9      5.556      9.528
  Name = 
  7 active torsions:
  status: ('A' for Active; 'I' for Inactive)
    1  A    between atoms: N_1  and  C_22
    2  A    between atoms: C_4  and  C_23
    3  A    between atoms: C_5  and  C_12
    4  A    between atoms: C_8  and  O_13
    5  A    between atoms: O_13  and  C_30
    6  A    between atoms: C_23  and  N_25
    7  A    between atoms: C_23  and  C_26
                            x       y       z     vdW  Elec       q    Type
                         _______ _______ _______ _____ _____    ______ ____

>  <TORSDO>
F 7

$$$$
=
 OpenBabel10272413443D

 30 32  0  0  1  0  0  0  0  0999 V2000
  186.0790  173.9240  136.2650 N   0  0  1  0  0  0  0  0  0  0  0  0
  185.7170  174.8730  137.3420 C   0  0  1  0  0  3  0  0  0  0  0  0
  187.1270  174.4470  137.1700 C   0  0  2  0  0  3  0  0  0  0  0  0
  186.1760  171.6330  135.5220 C   0  0  0  0  0  0  0  0  0  0  0  0
  185.1110  170.9610  134.7510 C   0  0  0  0  0  3  0  0  0  0  0  0
  187.3820  171.4880  135.1820 O   0  0  0  0  0  0  0  0  0  0  0  0
  184.3980  172.3340  137.1440 C   0  0  0  0  0  3  0  0  0  0  0  0
  182.1040  171.5060  136.9950 C   0  0  0  0  0  1  0  0  0  0  0  0
  185.8310  172.5430  136.6760 C   0  0  2  0  0  3  0  0  0  0  0  0
  183.8470  170.9730  135.1930 C   0  0  0  0  0  3  0  0  0  0  0  0
  183.4890  171.6430  136.4510 C   0  0  0  0  0  0  0  0  0  0  0  0
  189.6510  177.2100  136.4110 C   0  0  0  0  0  3  0  0  0  0  0  0
  188.7690  176.3820  137.1260 C   0  0  0  0  0  0  0  0  0  0  0  0
  188.2540  175.2180  135.0510 C   0  0  0  0  0  3  0  0  0  0  0  0
  188.0400  175.3960  136.4320 C   0  0  0  0  0  0  0  0  0  0  0  0
  189.8360  177.0390  135.0340 C   0  0  0  0  0  3  0  0  0  0  0  0
  189.1440  176.0380  134.3530 C   0  0  0  0  0  3  0  0  0  0  0  0
  188.6180  176.4990  138.5210 O   0  0  0  0  0  0  0  0  0  0  0  0
  189.3540  178.7890  138.8560 C   0  0  0  0  0  1  0  0  0  0  0  0
  188.7530  177.3510  140.7580 C   0  0  0  0  0  1  0  0  0  0  0  0
  190.8090  176.8710  139.5060 C   0  0  0  0  0  1  0  0  0  0  0  0
  189.3750  177.3620  139.3770 C   0  0  0  0  0  0  0  0  0  0  0  0
  185.3220  176.2200  136.7150 C   0  0  2  0  0  3  0  0  0  0  0  0
  186.3210  178.7900  137.7650 O   0  0  0  0  0  0  0  0  0  0  0  0
  185.2240  178.3360  138.1890 C   0  0  0  0  0  0  0  0  0  0  0  0
  184.4730  179.1000  139.2160 C   0  0  0  0  0  1  0  0  0  0  0  0
  184.6780  177.1050  137.6900 N   0  0  0  0  0  2  0  0  0  0  0  0
  183.1300  176.2440  135.6690 O   0  0  0  0  0  1  0  0  0  0  0  0
  184.9740  177.0320  134.3640 C   0  0  0  0  0  1  0  0  0  0  0  0
  184.4960  176.0570  135.4290 C   0  0  1  0  0  3  0  0  0  0  0  0
  1  9  1  1  0  0  0
  1  3  1  0  0  0  0
  1  2  1  0  0  0  0
  2 23  1  6  0  0  0
  3 15  1  6  0  0  0
  3  2  1  0  0  0  0
  4  9  1  0  0  0  0
  5 10  2  0  0  0  0
  5  4  1  0  0  0  0
  6  4  2  0  0  0  0
  9  7  1  6  0  0  0
 10 11  1  0  0  0  0
 11  8  1  0  0  0  0
 11  7  2  0  0  0  0
 12 13  1  0  0  0  0
 13 18  1  0  0  0  0
 14 15  1  0  0  0  0
 15 13  2  0  0  0  0
 16 12  2  0  0  0  0
 17 16  1  0  0  0  0
 17 14  2  0  0  0  0
 18 22  1  0  0  0  0
 19 22  1  0  0  0  0
 22 21  1  0  0  0  0
 22 20  1  0  0  0  0
 23 27  1  1  0  0  0
 24 25  2  0  0  0  0
 25 26  1  0  0  0  0
 27 25  1  0  0  0  0
 30 29  1  6  0  0  0
 30 28  1  0  0  0  0
 30 23  1  0  0  0  0
M  END
>  <MODEL>
5

>  <REMARK>
 VINA RESULT:      -5.4      3.275      6.888
  Name = 
  7 active torsions:
  status: ('A' for Active; 'I' for Inactive)
    1  A    between atoms: N_1  and  C_22
    2  A    between atoms: C_4  and  C_23
    3  A    between atoms: C_5  and  C_12
    4  A    between atoms: C_8  and  O_13
    5  A    between atoms: O_13  and  C_30
    6  A    between atoms: C_23  and  N_25
    7  A    between atoms: C_23  and  C_26
                            x       y       z     vdW  Elec       q    Type
                         _______ _______ _______ _____ _____    ______ ____

>  <TORSDO>
F 7

$$$$
=
 OpenBabel10272413443D

 30 32  0  0  1  0  0  0  0  0999 V2000
  186.9730  178.4970  138.1310 N   0  0  1  0  0  0  0  0  0  0  0  0
  186.6870  177.0550  138.3160 C   0  0  1  0  0  3  0  0  0  0  0  0
  186.3510  178.0240  139.3880 C   0  0  2  0  0  3  0  0  0  0  0  0
  189.2490  178.0940  137.4480 C   0  0  0  0  0  0  0  0  0  0  0  0
  190.0430  176.9140  137.8440 C   0  0  0  0  0  3  0  0  0  0  0  0
  189.2670  178.4870  136.2490 O   0  0  0  0  0  0  0  0  0  0  0  0
  188.7250  178.4130  139.8780 C   0  0  0  0  0  3  0  0  0  0  0  0
  189.7990  177.0840  141.6240 C   0  0  0  0  0  1  0  0  0  0  0  0
  188.3680  178.8000  138.4500 C   0  0  2  0  0  3  0  0  0  0  0  0
  190.1620  176.5840  139.1360 C   0  0  0  0  0  3  0  0  0  0  0  0
  189.5190  177.3850  140.1870 C   0  0  0  0  0  0  0  0  0  0  0  0
  182.8520  178.7850  140.7140 C   0  0  0  0  0  3  0  0  0  0  0  0
  184.1700  178.3010  140.6560 C   0  0  0  0  0  0  0  0  0  0  0  0
  184.3470  179.1880  138.3960 C   0  0  0  0  0  3  0  0  0  0  0  0
  184.9140  178.4770  139.4720 C   0  0  0  0  0  0  0  0  0  0  0  0
  182.2920  179.4690  139.6280 C   0  0  0  0  0  3  0  0  0  0  0  0
  183.0420  179.6780  138.4710 C   0  0  0  0  0  3  0  0  0  0  0  0
  184.7700  177.6670  141.7610 O   0  0  0  0  0  0  0  0  0  0  0  0
  186.5320  177.5970  143.4300 C   0  0  0  0  0  1  0  0  0  0  0  0
  185.7010  179.7330  142.5410 C   0  0  0  0  0  1  0  0  0  0  0  0
  184.2490  178.4130  144.0150 C   0  0  0  0  0  1  0  0  0  0  0  0
  185.3000  178.3230  142.9190 C   0  0  0  0  0  0  0  0  0  0  0  0
  185.5420  176.6460  137.3760 C   0  0  2  0  0  3  0  0  0  0  0  0
  183.1740  175.0420  138.1020 O   0  0  0  0  0  0  0  0  0  0  0  0
  184.2180  174.4540  137.7050 C   0  0  0  0  0  0  0  0  0  0  0  0
  184.2310  172.9730  137.6300 C   0  0  0  0  0  1  0  0  0  0  0  0
  185.3880  175.1890  137.3120 N   0  0  0  0  0  2  0  0  0  0  0  0
  186.6580  176.6820  135.2190 O   0  0  0  0  0  1  0  0  0  0  0  0
  184.3250  177.2110  135.2530 C   0  0  0  0  0  1  0  0  0  0  0  0
  185.6570  177.2890  135.9850 C   0  0  1  0  0  3  0  0  0  0  0  0
  1  2  1  0  0  0  0
  1  9  1  1  0  0  0
  1  3  1  0  0  0  0
  2 23  1  6  0  0  0
  2  3  1  0  0  0  0
  3 15  1  6  0  0  0
  4  5  1  0  0  0  0
  4  9  1  0  0  0  0
  5 10  2  0  0  0  0
  6  4  2  0  0  0  0
  7 11  2  0  0  0  0
  9  7  1  1  0  0  0
 10 11  1  0  0  0  0
 11  8  1  0  0  0  0
 13 12  1  0  0  0  0
 13 18  1  0  0  0  0
 14 17  2  0  0  0  0
 14 15  1  0  0  0  0
 15 13  2  0  0  0  0
 16 12  2  0  0  0  0
 17 16  1  0  0  0  0
 18 22  1  0  0  0  0
 20 22  1  0  0  0  0
 22 19  1  0  0  0  0
 22 21  1  0  0  0  0
 23 27  1  6  0  0  0
 25 24  2  0  0  0  0
 26 25  1  0  0  0  0
 27 25  1  0  0  0  0
 28 30  1  0  0  0  0
 30 29  1  6  0  0  0
 30 23  1  0  0  0  0
M  END
>  <MODEL>
6

>  <REMARK>
 VINA RESULT:      -5.2      2.281      5.652
  Name = 
  7 active torsions:
  status: ('A' for Active; 'I' for Inactive)
    1  A    between atoms: N_1  and  C_22
    2  A    between atoms: C_4  and  C_23
    3  A    between atoms: C_5  and  C_12
    4  A    between atoms: C_8  and  O_13
    5  A    between atoms: O_13  and  C_30
    6  A    between atoms: C_23  and  N_25
    7  A    between atoms: C_23  and  C_26
                            x       y       z     vdW  Elec       q    Type
                         _______ _______ _______ _____ _____    ______ ____

>  <TORSDO>
F 7

$$$$
=
 OpenBabel10272413443D

 30 32  0  0  1  0  0  0  0  0999 V2000
  188.7960  173.9200  136.1320 N   0  0  1  0  0  0  0  0  0  0  0  0
  188.1750  174.9380  137.0110 C   0  0  1  0  0  3  0  0  0  0  0  0
  189.4520  174.2950  137.4050 C   0  0  2  0  0  3  0  0  0  0  0  0
  188.0260  171.9310  135.0100 C   0  0  0  0  0  0  0  0  0  0  0  0
  186.6850  171.7760  134.4120 C   0  0  0  0  0  3  0  0  0  0  0  0
  189.0440  171.5430  134.3730 O   0  0  0  0  0  0  0  0  0  0  0  0
  186.8780  172.6930  137.1040 C   0  0  0  0  0  3  0  0  0  0  0  0
  184.4510  172.5850  137.3670 C   0  0  0  0  0  1  0  0  0  0  0  0
  188.1970  172.6040  136.3510 C   0  0  2  0  0  3  0  0  0  0  0  0
  185.5890  172.0320  135.1370 C   0  0  0  0  0  3  0  0  0  0  0  0
  185.6890  172.4610  136.5400 C   0  0  0  0  0  0  0  0  0  0  0  0
  192.5510  176.4720  137.8960 C   0  0  0  0  0  3  0  0  0  0  0  0
  191.3440  175.8050  138.1680 C   0  0  0  0  0  0  0  0  0  0  0  0
  191.3410  174.9750  135.8800 C   0  0  0  0  0  3  0  0  0  0  0  0
  190.7180  175.0740  137.1390 C   0  0  0  0  0  0  0  0  0  0  0  0
  193.1480  176.3850  136.6320 C   0  0  0  0  0  3  0  0  0  0  0  0
  192.5480  175.6300  135.6250 C   0  0  0  0  0  3  0  0  0  0  0  0
  190.7630  175.8300  139.4510 O   0  0  0  0  0  0  0  0  0  0  0  0
  189.7960  178.0570  139.4740 C   0  0  0  0  0  1  0  0  0  0  0  0
  189.7290  176.6170  141.4650 C   0  0  0  0  0  1  0  0  0  0  0  0
  191.8810  177.5560  140.7480 C   0  0  0  0  0  1  0  0  0  0  0  0
  190.5540  176.9980  140.2540 C   0  0  0  0  0  0  0  0  0  0  0  0
  188.2760  176.3150  136.3350 C   0  0  2  0  0  3  0  0  0  0  0  0
  185.4980  176.2110  137.3220 O   0  0  0  0  0  0  0  0  0  0  0  0
  186.1830  177.2510  137.5190 C   0  0  0  0  0  0  0  0  0  0  0  0
  185.5680  178.4000  138.2290 C   0  0  0  0  0  1  0  0  0  0  0  0
  187.5490  177.3430  137.0850 N   0  0  0  0  0  2  0  0  0  0  0  0
  186.7810  175.4430  134.6300 O   0  0  0  0  0  1  0  0  0  0  0  0
  187.5800  177.6810  134.3460 C   0  0  0  0  0  1  0  0  0  0  0  0
  187.8830  176.2780  134.8500 C   0  0  1  0  0  3  0  0  0  0  0  0
  1  9  1  1  0  0  0
  1  2  1  0  0  0  0
  1  3  1  0  0  0  0
  2 23  1  6  0  0  0
  2  3  1  0  0  0  0
  3 15  1  6  0  0  0
  4  9  1  0  0  0  0
  5  4  1  0  0  0  0
  5 10  2  0  0  0  0
  6  4  2  0  0  0  0
  9  7  1  6  0  0  0
 10 11  1  0  0  0  0
 11  7  2  0  0  0  0
 11  8  1  0  0  0  0
 12 13  1  0  0  0  0
 13 18  1  0  0  0  0
 14 15  1  0  0  0  0
 15 13  2  0  0  0  0
 16 12  2  0  0  0  0
 17 14  2  0  0  0  0
 17 16  1  0  0  0  0
 18 22  1  0  0  0  0
 19 22  1  0  0  0  0
 22 21  1  0  0  0  0
 22 20  1  0  0  0  0
 23 27  1  1  0  0  0
 24 25  2  0  0  0  0
 25 26  1  0  0  0  0
 27 25  1  0  0  0  0
 28 30  1  0  0  0  0
 30 29  1  1  0  0  0
 30 23  1  0  0  0  0
M  END
>  <MODEL>
7

>  <REMARK>
 VINA RESULT:      -5.2      4.108      7.933
  Name = 
  7 active torsions:
  status: ('A' for Active; 'I' for Inactive)
    1  A    between atoms: N_1  and  C_22
    2  A    between atoms: C_4  and  C_23
    3  A    between atoms: C_5  and  C_12
    4  A    between atoms: C_8  and  O_13
    5  A    between atoms: O_13  and  C_30
    6  A    between atoms: C_23  and  N_25
    7  A    between atoms: C_23  and  C_26
                            x       y       z     vdW  Elec       q    Type
                         _______ _______ _______ _____ _____    ______ ____

>  <TORSDO>
F 7

$$$$
=
 OpenBabel10272413443D

 30 32  0  0  1  0  0  0  0  0999 V2000
  183.6910  177.6620  136.9210 N   0  0  1  0  0  0  0  0  0  0  0  0
  184.2870  177.2790  138.2220 C   0  0  1  0  0  3  0  0  0  0  0  0
  184.5520  176.4610  137.0120 C   0  0  2  0  0  3  0  0  0  0  0  0
  181.3890  178.3660  136.8030 C   0  0  0  0  0  0  0  0  0  0  0  0
  180.5490  178.6700  137.9780 C   0  0  0  0  0  3  0  0  0  0  0  0
  181.3700  179.1360  135.8050 O   0  0  0  0  0  0  0  0  0  0  0  0
  181.9640  176.1970  137.9210 C   0  0  0  0  0  3  0  0  0  0  0  0
  180.8580  175.4590  139.9710 C   0  0  0  0  0  1  0  0  0  0  0  0
  182.3170  177.1750  136.8090 C   0  0  2  0  0  3  0  0  0  0  0  0
  180.4350  177.7830  138.9750 C   0  0  0  0  0  3  0  0  0  0  0  0
  181.1290  176.4880  138.9220 C   0  0  0  0  0  0  0  0  0  0  0  0
  188.1200  176.0090  135.7290 C   0  0  0  0  0  3  0  0  0  0  0  0
  186.9320  175.7860  136.4460 C   0  0  0  0  0  0  0  0  0  0  0  0
  185.9860  177.7730  135.4060 C   0  0  0  0  0  3  0  0  0  0  0  0
  185.8660  176.6960  136.3060 C   0  0  0  0  0  0  0  0  0  0  0  0
  188.2360  177.0980  134.8570 C   0  0  0  0  0  3  0  0  0  0  0  0
  187.1660  177.9770  134.6880 C   0  0  0  0  0  3  0  0  0  0  0  0
  186.7770  174.6620  137.2800 O   0  0  0  0  0  0  0  0  0  0  0  0
  187.6500  172.4160  136.9830 C   0  0  0  0  0  1  0  0  0  0  0  0
  185.3360  172.7970  137.7210 C   0  0  0  0  0  1  0  0  0  0  0  0
  185.9530  173.3450  135.4090 C   0  0  0  0  0  1  0  0  0  0  0  0
  186.4500  173.3360  136.8470 C   0  0  0  0  0  0  0  0  0  0  0  0
  185.3600  178.3090  138.6060 C   0  0  2  0  0  3  0  0  0  0  0  0
  188.1680  179.0510  138.0830 O   0  0  0  0  0  0  0  0  0  0  0  0
  187.9200  178.0510  138.8100 C   0  0  0  0  0  0  0  0  0  0  0  0
  189.0480  177.2650  139.3690 C   0  0  0  0  0  1  0  0  0  0  0  0
  186.5720  177.6640  139.1190 N   0  0  0  0  0  2  0  0  0  0  0  0
  184.1330  180.3910  138.8460 O   0  0  0  0  0  1  0  0  0  0  0  0
  183.9260  178.7890  140.6110 C   0  0  0  0  0  1  0  0  0  0  0  0
  184.8270  179.4000  139.5480 C   0  0  1  0  0  3  0  0  0  0  0  0
  1  9  1  1  0  0  0
  1  3  1  0  0  0  0
  1  2  1  0  0  0  0
  2 23  1  6  0  0  0
  3 15  1  6  0  0  0
  3  2  1  0  0  0  0
  4  9  1  0  0  0  0
  4  5  1  0  0  0  0
  5 10  2  0  0  0  0
  6  4  2  0  0  0  0
  7 11  2  0  0  0  0
  9  7  1  1  0  0  0
 11 10  1  0  0  0  0
 11  8  1  0  0  0  0
 12 13  1  0  0  0  0
 13 18  1  0  0  0  0
 14 15  1  0  0  0  0
 15 13  2  0  0  0  0
 16 12  2  0  0  0  0
 17 16  1  0  0  0  0
 17 14  2  0  0  0  0
 21 22  1  0  0  0  0
 22 19  1  0  0  0  0
 22 18  1  0  0  0  0
 22 20  1  0  0  0  0
 23 27  1  1  0  0  0
 23 30  1  0  0  0  0
 24 25  2  0  0  0  0
 25 27  1  0  0  0  0
 25 26  1  0  0  0  0
 28 30  1  0  0  0  0
 30 29  1  1  0  0  0
M  END
>  <MODEL>
8

>  <REMARK>
 VINA RESULT:      -5.2      2.493      5.698
  Name = 
  7 active torsions:
  status: ('A' for Active; 'I' for Inactive)
    1  A    between atoms: N_1  and  C_22
    2  A    between atoms: C_4  and  C_23
    3  A    between atoms: C_5  and  C_12
    4  A    between atoms: C_8  and  O_13
    5  A    between atoms: O_13  and  C_30
    6  A    between atoms: C_23  and  N_25
    7  A    between atoms: C_23  and  C_26
                            x       y       z     vdW  Elec       q    Type
                         _______ _______ _______ _____ _____    ______ ____

>  <TORSDO>
F 7

$$$$
=
 OpenBabel10272413443D

 30 32  0  0  1  0  0  0  0  0999 V2000
  189.5880  177.7360  138.8730 N   0  0  1  0  0  0  0  0  0  0  0  0
  189.3810  176.2700  138.8830 C   0  0  1  0  0  3  0  0  0  0  0  0
  188.2250  177.1840  138.7100 C   0  0  2  0  0  3  0  0  0  0  0  0
  190.5280  177.3460  141.0590 C   0  0  0  0  0  0  0  0  0  0  0  0
  189.9320  176.4590  142.0760 C   0  0  0  0  0  3  0  0  0  0  0  0
  191.7700  177.3000  140.8380 O   0  0  0  0  0  0  0  0  0  0  0  0
  188.2780  178.4320  140.8550 C   0  0  0  0  0  3  0  0  0  0  0  0
  186.4370  177.8990  142.3690 C   0  0  0  0  0  1  0  0  0  0  0  0
  189.6580  178.2650  140.2350 C   0  0  2  0  0  3  0  0  0  0  0  0
  188.6510  176.6080  142.4350 C   0  0  0  0  0  3  0  0  0  0  0  0
  187.8110  177.6570  141.8370 C   0  0  0  0  0  0  0  0  0  0  0  0
  186.3090  176.7890  135.4310 C   0  0  0  0  0  3  0  0  0  0  0  0
  186.7860  176.5250  136.7260 C   0  0  0  0  0  0  0  0  0  0  0  0
  188.1290  178.5500  136.5940 C   0  0  0  0  0  3  0  0  0  0  0  0
  187.7310  177.3980  137.3000 C   0  0  0  0  0  0  0  0  0  0  0  0
  186.7320  177.9250  134.7300 C   0  0  0  0  0  3  0  0  0  0  0  0
  187.6370  178.8110  135.3140 C   0  0  0  0  0  3  0  0  0  0  0  0
  186.3240  175.4220  137.4690 O   0  0  0  0  0  0  0  0  0  0  0  0
  185.5350  173.1390  137.7210 C   0  0  0  0  0  1  0  0  0  0  0  0
  183.9630  175.0090  137.4410 C   0  0  0  0  0  1  0  0  0  0  0  0
  185.3470  174.3220  135.5330 C   0  0  0  0  0  1  0  0  0  0  0  0
  185.3270  174.4840  137.0460 C   0  0  0  0  0  0  0  0  0  0  0  0
  189.9810  175.6690  137.6020 C   0  0  2  0  0  3  0  0  0  0  0  0
  189.0980  174.4300  135.0730 O   0  0  0  0  0  0  0  0  0  0  0  0
  189.0810  173.7460  136.1330 C   0  0  0  0  0  0  0  0  0  0  0  0
  188.6020  172.3430  136.0820 C   0  0  0  0  0  1  0  0  0  0  0  0
  189.5270  174.2920  137.3850 N   0  0  0  0  0  2  0  0  0  0  0  0
  192.1460  174.6480  138.0100 O   0  0  0  0  0  1  0  0  0  0  0  0
  191.9620  176.1040  136.1210 C   0  0  0  0  0  1  0  0  0  0  0  0
  191.5100  175.8030  137.5420 C   0  0  1  0  0  3  0  0  0  0  0  0
  1  2  1  0  0  0  0
  1  9  1  1  0  0  0
  2 23  1  6  0  0  0
  3 15  1  6  0  0  0
  3  1  1  0  0  0  0
  3  2  1  0  0  0  0
  4  5  1  0  0  0  0
  5 10  2  0  0  0  0
  6  4  2  0  0  0  0
  7 11  2  0  0  0  0
  9  7  1  1  0  0  0
  9  4  1  0  0  0  0
 11  8  1  0  0  0  0
 11 10  1  0  0  0  0
 12 13  1  0  0  0  0
 13 15  2  0  0  0  0
 13 18  1  0  0  0  0
 14 15  1  0  0  0  0
 16 17  1  0  0  0  0
 16 12  2  0  0  0  0
 17 14  2  0  0  0  0
 21 22  1  0  0  0  0
 22 20  1  0  0  0  0
 22 18  1  0  0  0  0
 22 19  1  0  0  0  0
 23 27  1  1  0  0  0
 24 25  2  0  0  0  0
 25 27  1  0  0  0  0
 26 25  1  0  0  0  0
 30 29  1  6  0  0  0
 30 23  1  0  0  0  0
 30 28  1  0  0  0  0
M  END
>  <MODEL>
9

>  <REMARK>
 VINA RESULT:      -5.1      3.924      6.711
  Name = 
  7 active torsions:
  status: ('A' for Active; 'I' for Inactive)
    1  A    between atoms: N_1  and  C_22
    2  A    between atoms: C_4  and  C_23
    3  A    between atoms: C_5  and  C_12
    4  A    between atoms: C_8  and  O_13
    5  A    between atoms: O_13  and  C_30
    6  A    between atoms: C_23  and  N_25
    7  A    between atoms: C_23  and  C_26
                            x       y       z     vdW  Elec       q    Type
                         _______ _______ _______ _____ _____    ______ ____

>  <TORSDO>
F 7

$$$$
