=
 OpenBabel10272413163D

 32 35  0  0  1  0  0  0  0  0999 V2000
  186.6050  177.3610  144.9990 C   0  0  0  0  0  2  0  0  0  0  0  0
  186.1600  178.0590  146.2540 C   0  0  0  0  0  0  0  0  0  0  0  0
  188.1190  177.4670  144.7610 C   0  0  1  0  0  3  0  0  0  0  0  0
  188.9180  177.3470  146.0430 C   0  0  0  0  0  0  0  0  0  0  0  0
  188.3890  177.7520  147.2040 C   0  0  0  0  0  3  0  0  0  0  0  0
  186.9860  178.1880  147.2930 C   0  0  0  0  0  3  0  0  0  0  0  0
  188.5310  176.4080  143.7470 C   0  0  0  0  0  2  0  0  0  0  0  0
  188.8950  177.0410  142.4480 C   0  0  0  0  0  0  0  0  0  0  0  0
  190.0250  177.1080  138.2220 C   0  0  0  0  0  3  0  0  0  0  0  0
  190.0370  176.6660  141.6860 N   0  0  0  0  0  0  0  0  0  0  0  0
  188.0050  178.0300  139.3050 C   0  0  0  0  0  3  0  0  0  0  0  0
  188.8090  178.2850  140.5550 C   0  0  1  0  0  3  0  0  0  0  0  0
  188.1130  177.9100  141.8190 C   0  0  0  0  0  2  0  0  0  0  0  0
  189.9870  177.3700  140.6080 C   0  0  2  0  0  3  0  0  0  0  0  0
  188.5990  177.5360  138.2050 C   0  0  0  0  0  3  0  0  0  0  0  0
  190.6970  177.0020  139.3780 C   0  0  0  0  0  3  0  0  0  0  0  0
  190.3770  177.0270  145.9950 C   0  0  0  0  0  2  0  0  0  0  0  0
  190.9020  176.7220  147.3860 C   0  0  0  0  0  2  0  0  0  0  0  0
  192.1680  175.9000  147.2760 C   0  0  0  0  0  2  0  0  0  0  0  0
  192.1570  175.1300  145.9730 C   0  0  0  0  0  1  0  0  0  0  0  0
  184.7360  178.4810  146.3790 C   0  0  0  0  0  2  0  0  0  0  0  0
  184.4170  179.4030  145.3760 O   0  0  0  0  0  0  0  0  0  0  0  0
  183.1250  179.2270  145.1610 O   0  0  0  0  0  0  0  0  0  0  0  0
  181.6060  178.9760  143.2030 C   0  0  2  0  0  0  0  0  0  0  0  0
  182.7240  178.7740  140.9920 N   0  0  0  0  0  2  0  0  0  0  0  0
  180.6260  178.3410  143.9680 O   0  0  0  0  0  1  0  0  0  0  0  0
  184.1850  178.9510  142.9490 C   0  0  0  0  0  2  0  0  0  0  0  0
  181.5750  178.3510  141.7980 C   0  0  0  0  0  2  0  0  0  0  0  0
  182.9790  178.6980  143.8610 C   0  0  1  0  0  3  0  0  0  0  0  0
  183.9480  178.2650  141.6080 C   0  0  0  0  0  2  0  0  0  0  0  0
  181.2890  180.3510  143.1480 O   0  0  0  0  0  0  0  0  0  0  0  0
  179.9870  180.4970  143.3640 F   0  0  0  0  0  0  0  0  0  0  0  0
  1  2  1  0  0  0  0
  2 21  1  0  0  0  0
  2  6  2  0  0  0  0
  3  7  1  6  0  0  0
  3  1  1  0  0  0  0
  3  4  1  0  0  0  0
  4  5  2  0  0  0  0
  5  6  1  0  0  0  0
  8  7  1  0  0  0  0
  9 16  2  0  0  0  0
 10  8  2  0  0  0  0
 12 11  1  6  0  0  0
 12 14  1  0  0  0  0
 12 13  1  0  0  0  0
 13  8  1  0  0  0  0
 14 16  1  6  0  0  0
 14 10  1  0  0  0  0
 15  9  1  0  0  0  0
 15 11  2  0  0  0  0
 17  4  1  0  0  0  0
 17 18  1  0  0  0  0
 19 18  1  0  0  0  0
 20 19  1  0  0  0  0
 22 21  1  0  0  0  0
 23 22  1  0  0  0  0
 24 29  1  0  0  0  0
 24 26  1  1  0  0  0
 25 30  1  0  0  0  0
 25 28  1  0  0  0  0
 27 29  1  0  0  0  0
 28 24  1  0  0  0  0
 29 23  1  1  0  0  0
 30 27  1  0  0  0  0
 31 24  1  0  0  0  0
 31 32  1  0  0  0  0
M  END
>  <MODEL>
1

>  <REMARK>
 VINA RESULT:      -8.9      0.000      0.000
  Name = 
  10 active torsions:
  status: ('A' for Active; 'I' for Inactive)
    1  A    between atoms: C_2  and  C_5
    2  A    between atoms: C_2  and  C_6
    3  A    between atoms: C_3  and  O_22
    4  A    between atoms: C_4  and  C_27
    5  A    between atoms: C_13  and  C_29
    6  A    between atoms: C_14  and  C_18
    7  A    between atoms: O_16  and  C_20
    8  A    between atoms: O_16  and  O_24
    9  A    between atoms: C_18  and  C_29
   10  A    between atoms: O_24  and  C_27
                            x       y       z     vdW  Elec       q    Type
                         _______ _______ _______ _____ _____    ______ ____

>  <TORSDO>
F 10

$$$$
=
 OpenBabel10272413163D

 32 35  0  0  1  0  0  0  0  0999 V2000
  186.0610  177.6870  143.3680 C   0  0  0  0  0  2  0  0  0  0  0  0
  185.2230  178.5010  144.3130 C   0  0  0  0  0  0  0  0  0  0  0  0
  187.5380  177.6170  143.7880 C   0  0  1  0  0  3  0  0  0  0  0  0
  187.7090  177.4890  145.2880 C   0  0  0  0  0  0  0  0  0  0  0  0
  186.7990  178.0160  146.1150 C   0  0  0  0  0  3  0  0  0  0  0  0
  185.5510  178.6030  145.6020 C   0  0  0  0  0  3  0  0  0  0  0  0
  188.2030  176.4610  143.0510 C   0  0  0  0  0  2  0  0  0  0  0  0
  189.0010  176.9660  141.8990 C   0  0  0  0  0  0  0  0  0  0  0  0
  191.0090  176.7100  138.0200 C   0  0  0  0  0  3  0  0  0  0  0  0
  190.1370  176.2870  141.3750 N   0  0  0  0  0  2  0  0  0  0  0  0
  189.1280  178.1580  138.7030 C   0  0  0  0  0  3  0  0  0  0  0  0
  189.6750  178.1820  140.1080 C   0  0  1  0  0  3  0  0  0  0  0  0
  188.6430  178.0170  141.1710 C   0  0  0  0  0  3  0  0  0  0  0  0
  190.5180  176.9760  140.3540 C   0  0  2  0  0  3  0  0  0  0  0  0
  189.7930  177.5170  137.7260 C   0  0  0  0  0  3  0  0  0  0  0  0
  191.3550  176.4230  139.2840 C   0  0  0  0  0  3  0  0  0  0  0  0
  189.0060  177.0140  145.8610 C   0  0  0  0  0  2  0  0  0  0  0  0
  190.0680  178.0920  145.7430 C   0  0  0  0  0  2  0  0  0  0  0  0
  191.2050  177.5850  144.8830 C   0  0  0  0  0  2  0  0  0  0  0  0
  191.5960  178.6540  143.8850 C   0  0  0  0  0  1  0  0  0  0  0  0
  183.9390  179.0790  143.8240 C   0  0  0  0  0  2  0  0  0  0  0  0
  183.5280  178.4230  142.6590 O   0  0  0  0  0  0  0  0  0  0  0  0
  183.8500  179.2500  141.6800 O   0  0  0  0  0  0  0  0  0  0  0  0
  184.2300  179.0410  139.2270 C   0  0  2  0  0  0  0  0  0  0  0  0
  183.4420  176.9240  138.1910 N   0  0  0  0  0  2  0  0  0  0  0  0
  184.1450  180.4220  139.0360 O   0  0  0  0  0  1  0  0  0  0  0  0
  183.0230  177.1970  140.5890 C   0  0  0  0  0  2  0  0  0  0  0  0
  183.6250  178.3640  137.9860 C   0  0  0  0  0  2  0  0  0  0  0  0
  183.3880  178.6810  140.4740 C   0  0  1  0  0  3  0  0  0  0  0  0
  182.4600  176.7170  139.2540 C   0  0  0  0  0  2  0  0  0  0  0  0
  185.5940  178.7070  139.3670 O   0  0  0  0  0  0  0  0  0  0  0  0
  186.1320  178.5960  138.1580 F   0  0  0  0  0  0  0  0  0  0  0  0
  1  3  1  0  0  0  0
  1  2  1  0  0  0  0
  2  6  2  0  0  0  0
  3  7  1  6  0  0  0
  3  4  1  0  0  0  0
  4 17  1  0  0  0  0
  4  5  2  0  0  0  0
  6  5  1  0  0  0  0
  8  7  1  0  0  0  0
  9 16  2  0  0  0  0
 10  8  1  0  0  0  0
 12 11  1  6  0  0  0
 12 14  1  0  0  0  0
 12 13  1  0  0  0  0
 13  8  2  0  0  0  0
 14 16  1  6  0  0  0
 14 10  1  0  0  0  0
 15  9  1  0  0  0  0
 15 11  2  0  0  0  0
 18 17  1  0  0  0  0
 19 18  1  0  0  0  0
 20 19  1  0  0  0  0
 21  2  1  0  0  0  0
 22 21  1  0  0  0  0
 23 22  1  0  0  0  0
 24 26  1  6  0  0  0
 24 31  1  0  0  0  0
 24 29  1  0  0  0  0
 25 30  1  0  0  0  0
 28 25  1  0  0  0  0
 28 24  1  0  0  0  0
 29 27  1  0  0  0  0
 29 23  1  1  0  0  0
 30 27  1  0  0  0  0
 32 31  1  0  0  0  0
M  END
>  <MODEL>
2

>  <REMARK>
 VINA RESULT:      -8.8      2.629      3.171
  Name = 
  10 active torsions:
  status: ('A' for Active; 'I' for Inactive)
    1  A    between atoms: C_2  and  C_5
    2  A    between atoms: C_2  and  C_6
    3  A    between atoms: C_3  and  O_22
    4  A    between atoms: C_4  and  C_27
    5  A    between atoms: C_13  and  C_29
    6  A    between atoms: C_14  and  C_18
    7  A    between atoms: O_16  and  C_20
    8  A    between atoms: O_16  and  O_24
    9  A    between atoms: C_18  and  C_29
   10  A    between atoms: O_24  and  C_27
                            x       y       z     vdW  Elec       q    Type
                         _______ _______ _______ _____ _____    ______ ____

>  <TORSDO>
F 10

$$$$
=
 OpenBabel10272413163D

 32 35  0  0  1  0  0  0  0  0999 V2000
  186.6230  177.2950  144.9390 C   0  0  0  0  0  2  0  0  0  0  0  0
  186.2330  178.0530  146.1760 C   0  0  0  0  0  0  0  0  0  0  0  0
  188.1250  177.3920  144.6280 C   0  0  1  0  0  3  0  0  0  0  0  0
  188.9810  177.3360  145.8770 C   0  0  0  0  0  0  0  0  0  0  0  0
  188.5030  177.7950  147.0390 C   0  0  0  0  0  3  0  0  0  0  0  0
  187.1040  178.2340  147.1700 C   0  0  0  0  0  3  0  0  0  0  0  0
  188.4950  176.2850  143.6490 C   0  0  0  0  0  2  0  0  0  0  0  0
  189.0870  176.8600  142.4090 C   0  0  0  0  0  0  0  0  0  0  0  0
  190.3030  176.8790  138.2060 C   0  0  0  0  0  3  0  0  0  0  0  0
  190.0620  176.1870  141.6200 N   0  0  0  0  0  0  0  0  0  0  0  0
  188.6730  178.3340  139.3580 C   0  0  0  0  0  3  0  0  0  0  0  0
  189.4770  178.2070  140.6270 C   0  0  1  0  0  3  0  0  0  0  0  0
  188.6590  177.9880  141.8530 C   0  0  0  0  0  2  0  0  0  0  0  0
  190.2820  176.9500  140.6050 C   0  0  2  0  0  3  0  0  0  0  0  0
  189.1020  177.7580  138.2210 C   0  0  0  0  0  3  0  0  0  0  0  0
  190.8660  176.4640  139.3500 C   0  0  0  0  0  3  0  0  0  0  0  0
  190.4380  177.0160  145.7790 C   0  0  0  0  0  2  0  0  0  0  0  0
  191.0200  176.7530  147.1560 C   0  0  0  0  0  2  0  0  0  0  0  0
  192.1500  175.7530  147.0410 C   0  0  0  0  0  2  0  0  0  0  0  0
  192.9020  175.6910  148.3530 C   0  0  0  0  0  1  0  0  0  0  0  0
  184.8140  178.4780  146.3450 C   0  0  0  0  0  2  0  0  0  0  0  0
  184.1090  178.2900  145.1510 O   0  0  0  0  0  0  0  0  0  0  0  0
  184.3870  179.3620  144.4290 O   0  0  0  0  0  0  0  0  0  0  0  0
  183.9670  178.8960  142.0180 C   0  0  2  0  0  0  0  0  0  0  0  0
  181.6110  178.3830  141.4150 N   0  0  0  0  0  2  0  0  0  0  0  0
  185.0200  179.7190  141.6140 O   0  0  0  0  0  1  0  0  0  0  0  0
  182.0530  178.9170  143.7640 C   0  0  0  0  0  2  0  0  0  0  0  0
  182.8540  179.0150  140.9640 C   0  0  0  0  0  2  0  0  0  0  0  0
  183.4470  179.4210  143.3780 C   0  0  1  0  0  3  0  0  0  0  0  0
  181.1090  179.1070  142.5810 C   0  0  0  0  0  2  0  0  0  0  0  0
  184.4540  177.5730  142.0880 O   0  0  0  0  0  0  0  0  0  0  0  0
  185.7810  177.6070  142.1250 F   0  0  0  0  0  0  0  0  0  0  0  0
  1  2  1  0  0  0  0
  2 21  1  0  0  0  0
  2  6  2  0  0  0  0
  3  7  1  6  0  0  0
  3  1  1  0  0  0  0
  3  4  1  0  0  0  0
  4  5  2  0  0  0  0
  5  6  1  0  0  0  0
  8  7  1  0  0  0  0
  9 15  1  0  0  0  0
  9 16  2  0  0  0  0
 10  8  2  0  0  0  0
 12 11  1  6  0  0  0
 12 13  1  0  0  0  0
 13  8  1  0  0  0  0
 14 16  1  6  0  0  0
 14 12  1  0  0  0  0
 14 10  1  0  0  0  0
 15 11  2  0  0  0  0
 17  4  1  0  0  0  0
 17 18  1  0  0  0  0
 19 18  1  0  0  0  0
 19 20  1  0  0  0  0
 22 21  1  0  0  0  0
 23 22  1  0  0  0  0
 24 26  1  6  0  0  0
 24 31  1  0  0  0  0
 24 29  1  0  0  0  0
 25 30  1  0  0  0  0
 28 25  1  0  0  0  0
 28 24  1  0  0  0  0
 29 27  1  0  0  0  0
 29 23  1  1  0  0  0
 30 27  1  0  0  0  0
 31 32  1  0  0  0  0
M  END
>  <MODEL>
3

>  <REMARK>
 VINA RESULT:      -8.6      1.634      2.011
  Name = 
  10 active torsions:
  status: ('A' for Active; 'I' for Inactive)
    1  A    between atoms: C_2  and  C_5
    2  A    between atoms: C_2  and  C_6
    3  A    between atoms: C_3  and  O_22
    4  A    between atoms: C_4  and  C_27
    5  A    between atoms: C_13  and  C_29
    6  A    between atoms: C_14  and  C_18
    7  A    between atoms: O_16  and  C_20
    8  A    between atoms: O_16  and  O_24
    9  A    between atoms: C_18  and  C_29
   10  A    between atoms: O_24  and  C_27
                            x       y       z     vdW  Elec       q    Type
                         _______ _______ _______ _____ _____    ______ ____

>  <TORSDO>
F 10

$$$$
=
 OpenBabel10272413163D

 32 35  0  0  1  0  0  0  0  0999 V2000
  188.5640  178.2280  141.5940 C   0  0  0  0  0  2  0  0  0  0  0  0
  189.6510  177.2190  141.8360 C   0  0  0  0  0  0  0  0  0  0  0  0
  187.2620  177.8940  142.3400 C   0  0  1  0  0  3  0  0  0  0  0  0
  187.5150  177.3400  143.7270 C   0  0  0  0  0  0  0  0  0  0  0  0
  188.6320  176.6490  143.9810 C   0  0  0  0  0  3  0  0  0  0  0  0
  189.7000  176.5270  142.9750 C   0  0  0  0  0  3  0  0  0  0  0  0
  186.3920  179.1430  142.3890 C   0  0  0  0  0  2  0  0  0  0  0  0
  185.1680  178.9610  141.5600 C   0  0  0  0  0  0  0  0  0  0  0  0
  182.9120  178.0240  137.9300 C   0  0  0  0  0  3  0  0  0  0  0  0
  184.9920  179.5560  140.2790 N   0  0  0  0  0  0  0  0  0  0  0  0
  182.8690  176.8880  140.1230 C   0  0  0  0  0  3  0  0  0  0  0  0
  183.1730  178.2030  140.7950 C   0  0  1  0  0  3  0  0  0  0  0  0
  184.1930  178.1160  141.8780 C   0  0  0  0  0  2  0  0  0  0  0  0
  183.8600  179.1230  139.8420 C   0  0  2  0  0  3  0  0  0  0  0  0
  182.6910  176.8300  138.7910 C   0  0  0  0  0  3  0  0  0  0  0  0
  183.4970  179.1270  138.4210 C   0  0  0  0  0  3  0  0  0  0  0  0
  186.4200  177.3280  144.7450 C   0  0  0  0  0  2  0  0  0  0  0  0
  186.8320  178.1080  145.9800 C   0  0  0  0  0  2  0  0  0  0  0  0
  185.6230  178.8110  146.5570 C   0  0  0  0  0  2  0  0  0  0  0  0
  184.4890  178.7670  145.5550 C   0  0  0  0  0  1  0  0  0  0  0  0
  190.7600  177.1020  140.8460 C   0  0  0  0  0  2  0  0  0  0  0  0
  190.3860  176.2470  139.8030 O   0  0  0  0  0  0  0  0  0  0  0  0
  190.1560  177.0520  138.7810 O   0  0  0  0  0  0  0  0  0  0  0  0
  188.1470  177.7030  137.4610 C   0  0  2  0  0  0  0  0  0  0  0  0
  187.2730  175.9740  135.9040 N   0  0  0  0  0  2  0  0  0  0  0  0
  187.6960  178.5680  138.4600 O   0  0  0  0  0  1  0  0  0  0  0  0
  189.2060  175.3460  137.2710 C   0  0  0  0  0  2  0  0  0  0  0  0
  186.9090  177.0760  136.7980 C   0  0  0  0  0  2  0  0  0  0  0  0
  188.9880  176.5930  138.1350 C   0  0  1  0  0  3  0  0  0  0  0  0
  187.8660  174.8980  136.6960 C   0  0  0  0  0  2  0  0  0  0  0  0
  188.8830  178.4650  136.5290 O   0  0  0  0  0  0  0  0  0  0  0  0
  189.2730  179.5930  137.1130 F   0  0  0  0  0  0  0  0  0  0  0  0
  1  2  1  0  0  0  0
  1  3  1  0  0  0  0
  2  6  2  0  0  0  0
  3  7  1  1  0  0  0
  3  4  1  0  0  0  0
  4  5  2  0  0  0  0
  4 17  1  0  0  0  0
  6  5  1  0  0  0  0
  8 13  1  0  0  0  0
  8  7  1  0  0  0  0
  9 16  2  0  0  0  0
  9 15  1  0  0  0  0
 10  8  2  0  0  0  0
 12 11  1  6  0  0  0
 12 13  1  0  0  0  0
 14 16  1  6  0  0  0
 14 10  1  0  0  0  0
 14 12  1  0  0  0  0
 15 11  2  0  0  0  0
 17 18  1  0  0  0  0
 18 19  1  0  0  0  0
 20 19  1  0  0  0  0
 21  2  1  0  0  0  0
 22 21  1  0  0  0  0
 23 22  1  0  0  0  0
 24 29  1  0  0  0  0
 24 26  1  1  0  0  0
 25 30  1  0  0  0  0
 25 28  1  0  0  0  0
 27 29  1  0  0  0  0
 28 24  1  0  0  0  0
 29 23  1  6  0  0  0
 30 27  1  0  0  0  0
 31 32  1  0  0  0  0
 31 24  1  0  0  0  0
M  END
>  <MODEL>
4

>  <REMARK>
 VINA RESULT:      -8.4      4.239      6.909
  Name = 
  10 active torsions:
  status: ('A' for Active; 'I' for Inactive)
    1  A    between atoms: C_2  and  C_5
    2  A    between atoms: C_2  and  C_6
    3  A    between atoms: C_3  and  O_22
    4  A    between atoms: C_4  and  C_27
    5  A    between atoms: C_13  and  C_29
    6  A    between atoms: C_14  and  C_18
    7  A    between atoms: O_16  and  C_20
    8  A    between atoms: O_16  and  O_24
    9  A    between atoms: C_18  and  C_29
   10  A    between atoms: O_24  and  C_27
                            x       y       z     vdW  Elec       q    Type
                         _______ _______ _______ _____ _____    ______ ____

>  <TORSDO>
F 10

$$$$
=
 OpenBabel10272413163D

 32 35  0  0  1  0  0  0  0  0999 V2000
  185.6590  177.9060  142.9660 C   0  0  0  0  0  2  0  0  0  0  0  0
  184.6280  178.9030  142.5180 C   0  0  0  0  0  0  0  0  0  0  0  0
  186.1030  178.1180  144.4220 C   0  0  1  0  0  3  0  0  0  0  0  0
  184.9530  178.5100  145.3280 C   0  0  0  0  0  0  0  0  0  0  0  0
  183.9120  179.1910  144.8360 C   0  0  0  0  0  3  0  0  0  0  0  0
  183.7860  179.4560  143.3940 C   0  0  0  0  0  3  0  0  0  0  0  0
  186.7930  176.8520  144.9130 C   0  0  0  0  0  2  0  0  0  0  0  0
  188.2670  176.9540  144.7250 C   0  0  0  0  0  0  0  0  0  0  0  0
  191.9820  177.2940  142.4380 C   0  0  0  0  0  3  0  0  0  0  0  0
  189.0030  176.1230  143.8330 N   0  0  0  0  0  0  0  0  0  0  0  0
  191.0300  178.8570  144.0960 C   0  0  0  0  0  3  0  0  0  0  0  0
  190.4100  177.6900  144.8210 C   0  0  1  0  0  3  0  0  0  0  0  0
  189.0050  177.9180  145.2630 C   0  0  0  0  0  2  0  0  0  0  0  0
  190.2200  176.5430  143.8850 C   0  0  2  0  0  3  0  0  0  0  0  0
  191.8100  178.6530  143.0200 C   0  0  0  0  0  3  0  0  0  0  0  0
  191.2040  176.2740  142.8300 C   0  0  0  0  0  3  0  0  0  0  0  0
  185.0820  178.3750  146.8110 C   0  0  0  0  0  2  0  0  0  0  0  0
  186.4130  178.9310  147.2830 C   0  0  0  0  0  2  0  0  0  0  0  0
  187.0390  177.9690  148.2700 C   0  0  0  0  0  2  0  0  0  0  0  0
  188.4520  178.4130  148.5780 C   0  0  0  0  0  1  0  0  0  0  0  0
  184.4610  179.1630  141.0600 C   0  0  0  0  0  2  0  0  0  0  0  0
  185.1220  178.1790  140.3170 O   0  0  0  0  0  0  0  0  0  0  0  0
  185.9600  178.8510  139.5470 O   0  0  0  0  0  0  0  0  0  0  0  0
  187.5560  177.9150  137.8800 C   0  0  2  0  0  0  0  0  0  0  0  0
  189.8500  177.4580  138.7230 N   0  0  0  0  0  2  0  0  0  0  0  0
  186.5350  177.2870  137.1650 O   0  0  0  0  0  1  0  0  0  0  0  0
  188.2310  178.3120  140.3500 C   0  0  0  0  0  2  0  0  0  0  0  0
  188.7980  177.0110  137.8050 C   0  0  0  0  0  2  0  0  0  0  0  0
  187.0990  178.0410  139.3530 C   0  0  1  0  0  3  0  0  0  0  0  0
  189.3670  177.3260  140.0960 C   0  0  0  0  0  2  0  0  0  0  0  0
  187.8070  179.1630  137.2710 O   0  0  0  0  0  0  0  0  0  0  0  0
  189.0310  179.1500  136.7570 F   0  0  0  0  0  0  0  0  0  0  0  0
  1  3  1  0  0  0  0
  2  1  1  0  0  0  0
  2  6  2  0  0  0  0
  3  7  1  1  0  0  0
  3  4  1  0  0  0  0
  4 17  1  0  0  0  0
  5  4  2  0  0  0  0
  6  5  1  0  0  0  0
  8  7  1  0  0  0  0
  8 13  1  0  0  0  0
  9 16  2  0  0  0  0
  9 15  1  0  0  0  0
 10 14  1  0  0  0  0
 10  8  2  0  0  0  0
 12 11  1  6  0  0  0
 12 13  1  0  0  0  0
 14 16  1  6  0  0  0
 14 12  1  0  0  0  0
 15 11  2  0  0  0  0
 17 18  1  0  0  0  0
 18 19  1  0  0  0  0
 19 20  1  0  0  0  0
 21  2  1  0  0  0  0
 22 21  1  0  0  0  0
 23 22  1  0  0  0  0
 24 26  1  6  0  0  0
 24 29  1  0  0  0  0
 25 30  1  0  0  0  0
 28 24  1  0  0  0  0
 28 25  1  0  0  0  0
 29 23  1  6  0  0  0
 29 27  1  0  0  0  0
 30 27  1  0  0  0  0
 31 24  1  0  0  0  0
 32 31  1  0  0  0  0
M  END
>  <MODEL>
5

>  <REMARK>
 VINA RESULT:      -8.2      3.591      5.732
  Name = 
  10 active torsions:
  status: ('A' for Active; 'I' for Inactive)
    1  A    between atoms: C_2  and  C_5
    2  A    between atoms: C_2  and  C_6
    3  A    between atoms: C_3  and  O_22
    4  A    between atoms: C_4  and  C_27
    5  A    between atoms: C_13  and  C_29
    6  A    between atoms: C_14  and  C_18
    7  A    between atoms: O_16  and  C_20
    8  A    between atoms: O_16  and  O_24
    9  A    between atoms: C_18  and  C_29
   10  A    between atoms: O_24  and  C_27
                            x       y       z     vdW  Elec       q    Type
                         _______ _______ _______ _____ _____    ______ ____

>  <TORSDO>
F 10

$$$$
=
 OpenBabel10272413163D

 32 35  0  0  1  0  0  0  0  0999 V2000
  188.0470  177.4600  143.2100 C   0  0  0  0  0  2  0  0  0  0  0  0
  189.3390  177.8270  142.5370 C   0  0  0  0  0  0  0  0  0  0  0  0
  188.2330  177.0560  144.6820 C   0  0  1  0  0  3  0  0  0  0  0  0
  189.2660  177.9080  145.3910 C   0  0  0  0  0  0  0  0  0  0  0  0
  190.2840  178.4390  144.7050 C   0  0  0  0  0  3  0  0  0  0  0  0
  190.3560  178.3310  143.2390 C   0  0  0  0  0  3  0  0  0  0  0  0
  186.8820  177.1190  145.3820 C   0  0  0  0  0  2  0  0  0  0  0  0
  185.9260  177.9500  144.5980 C   0  0  0  0  0  0  0  0  0  0  0  0
  182.4950  178.6880  141.9860 C   0  0  0  0  0  3  0  0  0  0  0  0
  185.6010  177.6980  143.2360 N   0  0  0  0  0  0  0  0  0  0  0  0
  182.8640  179.4320  144.3120 C   0  0  0  0  0  3  0  0  0  0  0  0
  184.3480  179.4820  144.0460 C   0  0  1  0  0  3  0  0  0  0  0  0
  185.1860  178.9120  145.1390 C   0  0  0  0  0  2  0  0  0  0  0  0
  184.7010  178.5650  142.9220 C   0  0  2  0  0  3  0  0  0  0  0  0
  182.0070  179.1180  143.3250 C   0  0  0  0  0  3  0  0  0  0  0  0
  183.7890  178.3960  141.7860 C   0  0  0  0  0  3  0  0  0  0  0  0
  189.3100  177.9510  146.8840 C   0  0  0  0  0  2  0  0  0  0  0  0
  189.8530  176.6470  147.4390 C   0  0  0  0  0  2  0  0  0  0  0  0
  191.3510  176.7600  147.6160 C   0  0  0  0  0  2  0  0  0  0  0  0
  192.0410  175.7540  146.7200 C   0  0  0  0  0  1  0  0  0  0  0  0
  189.4250  177.7560  141.0500 C   0  0  0  0  0  2  0  0  0  0  0  0
  188.5590  178.6920  140.4730 O   0  0  0  0  0  0  0  0  0  0  0  0
  188.9380  178.7590  139.2090 O   0  0  0  0  0  0  0  0  0  0  0  0
  187.1470  178.0890  137.6120 C   0  0  2  0  0  0  0  0  0  0  0  0
  187.6180  176.0620  136.2540 N   0  0  0  0  0  2  0  0  0  0  0  0
  186.1430  178.6260  138.4210 O   0  0  0  0  0  1  0  0  0  0  0  0
  189.3250  176.7110  137.8860 C   0  0  0  0  0  2  0  0  0  0  0  0
  186.5740  176.8350  136.9310 C   0  0  0  0  0  2  0  0  0  0  0  0
  188.3290  177.6840  138.5260 C   0  0  1  0  0  3  0  0  0  0  0  0
  188.5560  175.5550  137.2540 C   0  0  0  0  0  2  0  0  0  0  0  0
  187.4990  179.0640  136.6550 O   0  0  0  0  0  0  0  0  0  0  0  0
  186.7530  178.8860  135.5700 F   0  0  0  0  0  0  0  0  0  0  0  0
  1  3  1  0  0  0  0
  2  1  1  0  0  0  0
  2  6  2  0  0  0  0
  3  7  1  1  0  0  0
  3  4  1  0  0  0  0
  4 17  1  0  0  0  0
  5  4  2  0  0  0  0
  6  5  1  0  0  0  0
  8 13  1  0  0  0  0
  8  7  1  0  0  0  0
  9 15  1  0  0  0  0
 10  8  2  0  0  0  0
 12 11  1  1  0  0  0
 12 13  1  0  0  0  0
 14 16  1  1  0  0  0
 14 10  1  0  0  0  0
 14 12  1  0  0  0  0
 15 11  2  0  0  0  0
 16  9  2  0  0  0  0
 17 18  1  0  0  0  0
 18 19  1  0  0  0  0
 20 19  1  0  0  0  0
 21  2  1  0  0  0  0
 22 21  1  0  0  0  0
 23 22  1  0  0  0  0
 24 26  1  1  0  0  0
 24 29  1  0  0  0  0
 25 28  1  0  0  0  0
 25 30  1  0  0  0  0
 27 29  1  0  0  0  0
 28 24  1  0  0  0  0
 29 23  1  6  0  0  0
 30 27  1  0  0  0  0
 31 24  1  0  0  0  0
 32 31  1  0  0  0  0
M  END
>  <MODEL>
6

>  <REMARK>
 VINA RESULT:      -8.0      3.657      6.140
  Name = 
  10 active torsions:
  status: ('A' for Active; 'I' for Inactive)
    1  A    between atoms: C_2  and  C_5
    2  A    between atoms: C_2  and  C_6
    3  A    between atoms: C_3  and  O_22
    4  A    between atoms: C_4  and  C_27
    5  A    between atoms: C_13  and  C_29
    6  A    between atoms: C_14  and  C_18
    7  A    between atoms: O_16  and  C_20
    8  A    between atoms: O_16  and  O_24
    9  A    between atoms: C_18  and  C_29
   10  A    between atoms: O_24  and  C_27
                            x       y       z     vdW  Elec       q    Type
                         _______ _______ _______ _____ _____    ______ ____

>  <TORSDO>
F 10

$$$$
=
 OpenBabel10272413163D

 32 35  0  0  1  0  0  0  0  0999 V2000
  188.6280  178.2470  141.8300 C   0  0  0  0  0  2  0  0  0  0  0  0
  189.7780  177.3520  142.1940 C   0  0  0  0  0  0  0  0  0  0  0  0
  187.3130  177.8390  142.5140 C   0  0  1  0  0  3  0  0  0  0  0  0
  187.5220  177.3810  143.9430 C   0  0  0  0  0  0  0  0  0  0  0  0
  188.6740  176.8050  144.3030 C   0  0  0  0  0  3  0  0  0  0  0  0
  189.8120  176.7260  143.3720 C   0  0  0  0  0  3  0  0  0  0  0  0
  186.3390  179.0070  142.4390 C   0  0  0  0  0  2  0  0  0  0  0  0
  185.3190  178.7700  141.3800 C   0  0  0  0  0  0  0  0  0  0  0  0
  183.7120  177.0080  137.7120 C   0  0  0  0  0  3  0  0  0  0  0  0
  185.5970  178.8690  139.9870 N   0  0  0  0  0  0  0  0  0  0  0  0
  182.8820  176.7990  140.0290 C   0  0  0  0  0  3  0  0  0  0  0  0
  183.4000  178.1840  140.3250 C   0  0  1  0  0  3  0  0  0  0  0  0
  184.0990  178.3110  141.6350 C   0  0  0  0  0  2  0  0  0  0  0  0
  184.5080  178.5320  139.3870 C   0  0  2  0  0  3  0  0  0  0  0  0
  182.9820  176.2870  138.7900 C   0  0  0  0  0  3  0  0  0  0  0  0
  184.4710  178.0790  137.9920 C   0  0  0  0  0  3  0  0  0  0  0  0
  186.3680  177.3250  144.8920 C   0  0  0  0  0  2  0  0  0  0  0  0
  186.7130  178.0290  146.1930 C   0  0  0  0  0  2  0  0  0  0  0  0
  185.6040  178.9940  146.5510 C   0  0  0  0  0  2  0  0  0  0  0  0
  184.4450  178.8070  145.5960 C   0  0  0  0  0  1  0  0  0  0  0  0
  190.9550  177.2810  141.2810 C   0  0  0  0  0  2  0  0  0  0  0  0
  190.5840  177.6620  139.9870 O   0  0  0  0  0  0  0  0  0  0  0  0
  191.0160  176.6810  139.2150 O   0  0  0  0  0  0  0  0  0  0  0  0
  190.4510  175.4420  137.1290 C   0  0  2  0  0  0  0  0  0  0  0  0
  188.0750  175.5690  136.4100 N   0  0  0  0  0  2  0  0  0  0  0  0
  191.7360  175.6110  136.6100 O   0  0  0  0  0  1  0  0  0  0  0  0
  188.6850  176.8320  138.4180 C   0  0  0  0  0  2  0  0  0  0  0  0
  189.4650  175.4920  135.9500 C   0  0  0  0  0  2  0  0  0  0  0  0
  190.1670  176.6220  138.0890 C   0  0  1  0  0  3  0  0  0  0  0  0
  187.8810  176.8310  137.1220 C   0  0  0  0  0  2  0  0  0  0  0  0
  190.4050  174.1860  137.7700 O   0  0  0  0  0  0  0  0  0  0  0  0
  190.2840  173.2400  136.8450 F   0  0  0  0  0  0  0  0  0  0  0  0
  1  2  1  0  0  0  0
  1  3  1  0  0  0  0
  2  6  2  0  0  0  0
  3  7  1  1  0  0  0
  3  4  1  0  0  0  0
  4  5  2  0  0  0  0
  4 17  1  0  0  0  0
  6  5  1  0  0  0  0
  8 13  1  0  0  0  0
  8  7  1  0  0  0  0
  9 16  2  0  0  0  0
  9 15  1  0  0  0  0
 10  8  2  0  0  0  0
 12 11  1  6  0  0  0
 12 13  1  0  0  0  0
 14 16  1  6  0  0  0
 14 10  1  0  0  0  0
 14 12  1  0  0  0  0
 15 11  2  0  0  0  0
 17 18  1  0  0  0  0
 18 19  1  0  0  0  0
 20 19  1  0  0  0  0
 21  2  1  0  0  0  0
 22 21  1  0  0  0  0
 23 22  1  0  0  0  0
 24 26  1  6  0  0  0
 24 31  1  0  0  0  0
 24 29  1  0  0  0  0
 25 30  1  0  0  0  0
 28 25  1  0  0  0  0
 28 24  1  0  0  0  0
 29 27  1  0  0  0  0
 29 23  1  1  0  0  0
 30 27  1  0  0  0  0
 32 31  1  0  0  0  0
M  END
>  <MODEL>
7

>  <REMARK>
 VINA RESULT:      -8.0      4.860      7.452
  Name = 
  10 active torsions:
  status: ('A' for Active; 'I' for Inactive)
    1  A    between atoms: C_2  and  C_5
    2  A    between atoms: C_2  and  C_6
    3  A    between atoms: C_3  and  O_22
    4  A    between atoms: C_4  and  C_27
    5  A    between atoms: C_13  and  C_29
    6  A    between atoms: C_14  and  C_18
    7  A    between atoms: O_16  and  C_20
    8  A    between atoms: O_16  and  O_24
    9  A    between atoms: C_18  and  C_29
   10  A    between atoms: O_24  and  C_27
                            x       y       z     vdW  Elec       q    Type
                         _______ _______ _______ _____ _____    ______ ____

>  <TORSDO>
F 10

$$$$
=
 OpenBabel10272413163D

 32 35  0  0  1  0  0  0  0  0999 V2000
  186.2350  179.0430  144.2620 C   0  0  0  0  0  2  0  0  0  0  0  0
  185.9430  178.5250  145.6420 C   0  0  0  0  0  0  0  0  0  0  0  0
  185.1390  178.6860  143.2450 C   0  0  1  0  0  3  0  0  0  0  0  0
  183.7470  178.7830  143.8350 C   0  0  0  0  0  0  0  0  0  0  0  0
  183.5530  178.5600  145.1400 C   0  0  0  0  0  3  0  0  0  0  0  0
  184.6860  178.3530  146.0560 C   0  0  0  0  0  3  0  0  0  0  0  0
  185.2910  179.5840  142.0250 C   0  0  0  0  0  2  0  0  0  0  0  0
  186.0840  178.8990  140.9660 C   0  0  0  0  0  0  0  0  0  0  0  0
  187.9350  178.4550  137.0270 C   0  0  0  0  0  3  0  0  0  0  0  0
  185.6240  178.7250  139.6310 N   0  0  0  0  0  0  0  0  0  0  0  0
  189.0120  178.5430  139.2480 C   0  0  0  0  0  3  0  0  0  0  0  0
  187.7880  177.9010  139.8520 C   0  0  1  0  0  3  0  0  0  0  0  0
  187.3440  178.5140  141.1360 C   0  0  0  0  0  2  0  0  0  0  0  0
  186.5940  178.1620  138.9950 C   0  0  2  0  0  3  0  0  0  0  0  0
  189.0910  178.7400  137.9210 C   0  0  0  0  0  3  0  0  0  0  0  0
  186.7210  178.1980  137.5350 C   0  0  0  0  0  3  0  0  0  0  0  0
  182.5530  178.8690  142.9400 C   0  0  0  0  0  2  0  0  0  0  0  0
  181.2720  178.7900  143.7500 C   0  0  0  0  0  2  0  0  0  0  0  0
  180.0830  178.9670  142.8290 C   0  0  0  0  0  2  0  0  0  0  0  0
  180.5650  179.0530  141.3970 C   0  0  0  0  0  1  0  0  0  0  0  0
  187.0730  178.3390  146.5970 C   0  0  0  0  0  2  0  0  0  0  0  0
  187.9480  177.3550  146.1230 O   0  0  0  0  0  0  0  0  0  0  0  0
  189.0740  178.0020  145.8780 O   0  0  0  0  0  0  0  0  0  0  0  0
  191.0970  177.1060  144.7350 C   0  0  2  0  0  0  0  0  0  0  0  0
  190.6690  175.5000  142.8880 N   0  0  0  0  0  2  0  0  0  0  0  0
  191.8310  178.2650  144.9960 O   0  0  0  0  0  1  0  0  0  0  0  0
  188.7020  176.4570  143.9890 C   0  0  0  0  0  2  0  0  0  0  0  0
  191.5470  176.5710  143.3650 C   0  0  0  0  0  2  0  0  0  0  0  0
  189.6010  177.4940  144.6710 C   0  0  1  0  0  3  0  0  0  0  0  0
  189.3320  176.0470  142.6620 C   0  0  0  0  0  2  0  0  0  0  0  0
  191.3820  176.1740  145.7560 O   0  0  0  0  0  0  0  0  0  0  0  0
  191.9080  176.8210  146.7900 F   0  0  0  0  0  0  0  0  0  0  0  0
  1  2  1  0  0  0  0
  2  6  2  0  0  0  0
  2 21  1  0  0  0  0
  3  7  1  6  0  0  0
  3  4  1  0  0  0  0
  3  1  1  0  0  0  0
  4  5  2  0  0  0  0
  5  6  1  0  0  0  0
  8 13  1  0  0  0  0
  8  7  1  0  0  0  0
  9 16  2  0  0  0  0
  9 15  1  0  0  0  0
 10  8  2  0  0  0  0
 12 11  1  6  0  0  0
 12 13  1  0  0  0  0
 14 16  1  6  0  0  0
 14 10  1  0  0  0  0
 14 12  1  0  0  0  0
 15 11  2  0  0  0  0
 17 18  1  0  0  0  0
 17  4  1  0  0  0  0
 19 18  1  0  0  0  0
 20 19  1  0  0  0  0
 22 21  1  0  0  0  0
 23 22  1  0  0  0  0
 24 26  1  1  0  0  0
 24 31  1  0  0  0  0
 25 28  1  0  0  0  0
 27 29  1  0  0  0  0
 28 24  1  0  0  0  0
 29 24  1  0  0  0  0
 29 23  1  1  0  0  0
 30 25  1  0  0  0  0
 30 27  1  0  0  0  0
 31 32  1  0  0  0  0
M  END
>  <MODEL>
8

>  <REMARK>
 VINA RESULT:      -7.9      3.577      7.065
  Name = 
  10 active torsions:
  status: ('A' for Active; 'I' for Inactive)
    1  A    between atoms: C_2  and  C_5
    2  A    between atoms: C_2  and  C_6
    3  A    between atoms: C_3  and  O_22
    4  A    between atoms: C_4  and  C_27
    5  A    between atoms: C_13  and  C_29
    6  A    between atoms: C_14  and  C_18
    7  A    between atoms: O_16  and  C_20
    8  A    between atoms: O_16  and  O_24
    9  A    between atoms: C_18  and  C_29
   10  A    between atoms: O_24  and  C_27
                            x       y       z     vdW  Elec       q    Type
                         _______ _______ _______ _____ _____    ______ ____

>  <TORSDO>
F 10

$$$$
=
 OpenBabel10272413163D

 32 35  0  0  1  0  0  0  0  0999 V2000
  188.2110  177.5740  141.3730 C   0  0  0  0  0  2  0  0  0  0  0  0
  187.7330  178.4250  140.2300 C   0  0  0  0  0  0  0  0  0  0  0  0
  187.4670  177.8650  142.6860 C   0  0  1  0  0  3  0  0  0  0  0  0
  185.9900  178.1220  142.4710 C   0  0  0  0  0  0  0  0  0  0  0  0
  185.5610  178.6580  141.3230 C   0  0  0  0  0  3  0  0  0  0  0  0
  186.4800  178.8810  140.1950 C   0  0  0  0  0  3  0  0  0  0  0  0
  187.6980  176.7060  143.6470 C   0  0  0  0  0  2  0  0  0  0  0  0
  188.9460  176.9170  144.4320 C   0  0  0  0  0  0  0  0  0  0  0  0
  191.6370  176.4430  147.8490 C   0  0  0  0  0  3  0  0  0  0  0  0
  188.9550  177.3270  145.7950 N   0  0  0  0  0  2  0  0  0  0  0  0
  191.9820  175.7770  145.4950 C   0  0  0  0  0  3  0  0  0  0  0  0
  191.1260  176.9370  145.0560 C   0  0  1  0  0  3  0  0  0  0  0  0
  190.1540  176.6070  143.9750 C   0  0  0  0  0  3  0  0  0  0  0  0
  190.1940  177.3350  146.1520 C   0  0  2  0  0  3  0  0  0  0  0  0
  192.2610  175.5940  146.7980 C   0  0  0  0  0  3  0  0  0  0  0  0
  190.6230  177.2690  147.5530 C   0  0  0  0  0  3  0  0  0  0  0  0
  185.0340  178.0300  143.6180 C   0  0  0  0  0  2  0  0  0  0  0  0
  184.8860  179.3780  144.2980 C   0  0  0  0  0  2  0  0  0  0  0  0
  185.6020  179.3510  145.6310 C   0  0  0  0  0  2  0  0  0  0  0  0
  184.9350  178.3400  146.5390 C   0  0  0  0  0  1  0  0  0  0  0  0
  188.6360  178.6370  139.0620 C   0  0  0  0  0  2  0  0  0  0  0  0
  188.5270  177.5660  138.1690 O   0  0  0  0  0  0  0  0  0  0  0  0
  189.5860  177.6780  137.3860 O   0  0  0  0  0  0  0  0  0  0  0  0
  191.1380  175.7870  137.8540 C   0  0  2  0  0  0  0  0  0  0  0  0
  190.2760  173.5230  137.3010 N   0  0  0  0  0  2  0  0  0  0  0  0
  192.2660  176.5830  137.6430 O   0  0  0  0  0  1  0  0  0  0  0  0
  188.8050  175.4140  136.7900 C   0  0  0  0  0  2  0  0  0  0  0  0
  191.4690  174.3720  137.3510 C   0  0  0  0  0  2  0  0  0  0  0  0
  189.9780  176.3740  137.0150 C   0  0  1  0  0  3  0  0  0  0  0  0
  189.3460  174.0690  136.3130 C   0  0  0  0  0  2  0  0  0  0  0  0
  190.8680  175.7770  139.2390 O   0  0  0  0  0  0  0  0  0  0  0  0
  191.2940  176.9200  139.7650 F   0  0  0  0  0  0  0  0  0  0  0  0
  1  3  1  0  0  0  0
  2  1  1  0  0  0  0
  3  7  1  1  0  0  0
  4  3  1  0  0  0  0
  4 17  1  0  0  0  0
  5  4  2  0  0  0  0
  6  2  2  0  0  0  0
  6  5  1  0  0  0  0
  7  8  1  0  0  0  0
  8 10  1  0  0  0  0
 10 14  1  0  0  0  0
 11 15  2  0  0  0  0
 12 13  1  6  0  0  0
 12 11  1  0  0  0  0
 12 14  1  0  0  0  0
 13  8  2  0  0  0  0
 14 16  1  1  0  0  0
 15  9  1  0  0  0  0
 16  9  2  0  0  0  0
 17 18  1  0  0  0  0
 18 19  1  0  0  0  0
 19 20  1  0  0  0  0
 21  2  1  0  0  0  0
 22 21  1  0  0  0  0
 23 22  1  0  0  0  0
 24 26  1  6  0  0  0
 24 31  1  0  0  0  0
 25 28  1  0  0  0  0
 27 29  1  0  0  0  0
 28 24  1  0  0  0  0
 29 23  1  1  0  0  0
 29 24  1  0  0  0  0
 30 27  1  0  0  0  0
 30 25  1  0  0  0  0
 31 32  1  0  0  0  0
M  END
>  <MODEL>
9

>  <REMARK>
 VINA RESULT:      -7.9      4.518      8.109
  Name = 
  10 active torsions:
  status: ('A' for Active; 'I' for Inactive)
    1  A    between atoms: C_2  and  C_5
    2  A    between atoms: C_2  and  C_6
    3  A    between atoms: C_3  and  O_22
    4  A    between atoms: C_4  and  C_27
    5  A    between atoms: C_13  and  C_29
    6  A    between atoms: C_14  and  C_18
    7  A    between atoms: O_16  and  C_20
    8  A    between atoms: O_16  and  O_24
    9  A    between atoms: C_18  and  C_29
   10  A    between atoms: O_24  and  C_27
                            x       y       z     vdW  Elec       q    Type
                         _______ _______ _______ _____ _____    ______ ____

>  <TORSDO>
F 10

$$$$
