=
 OpenBabel10272413453D

 30 32  0  0  1  0  0  0  0  0999 V2000
  188.5740  177.7210  140.2270 C   0  0  1  0  0  3  0  0  0  0  0  0
  189.3500  178.2730  139.0170 C   0  0  2  0  0  3  0  0  0  0  0  0
  191.4560  177.2480  138.3920 O   0  0  0  0  0  0  0  0  0  0  0  0
  189.3510  175.9010  138.0990 C   0  0  2  0  0  3  0  0  0  0  0  0
  188.5580  178.7150  137.7890 C   0  0  2  0  0  3  0  0  0  0  0  0
  187.8940  175.9740  137.5650 C   0  0  0  0  0  2  0  0  0  0  0  0
  193.4710  176.4770  137.6370 O   0  0  0  0  0  1  0  0  0  0  0  0
  192.0900  176.3970  137.4670 C   0  0  1  0  0  3  0  0  0  0  0  0
  189.9880  174.9880  135.9510 O   0  0  0  0  0  1  0  0  0  0  0  0
  191.6390  174.9540  137.6730 C   0  0  0  0  0  2  0  0  0  0  0  0
  190.0680  177.2770  138.1230 C   0  0  1  0  0  0  0  0  0  0  0  0
  187.0680  177.6420  137.5920 S   0  0  0  0  0  0  0  0  0  0  0  0
  190.1580  174.8440  137.3310 C   0  0  1  0  0  3  0  0  0  0  0  0
  189.6480  178.1040  136.9170 C   0  0  0  0  0  2  0  0  0  0  0  0
  189.4140  176.9240  141.0100 O   0  0  0  0  0  0  0  0  0  0  0  0
  189.7380  177.7120  142.1180 C   0  0  0  0  0  2  0  0  0  0  0  0
  191.0940  177.3040  142.6690 C   0  0  1  0  0  3  0  0  0  0  0  0
  191.5660  178.4060  144.0350 S   0  0  0  0  0  1  0  0  0  0  0  0
  191.0290  175.9900  143.1330 O   0  0  0  0  0  0  0  0  0  0  0  0
  191.6240  176.0280  144.3950 C   0  0  0  0  0  1  0  0  0  0  0  0
  187.9780  178.8500  141.0700 C   0  0  0  0  0  2  0  0  0  0  0  0
  186.1630  178.7330  141.2020 S   0  0  0  0  0  0  0  0  0  0  0  0
  186.2380  177.9770  142.8530 C   0  0  0  0  0  2  0  0  0  0  0  0
  185.1970  178.5990  143.7690 C   0  0  0  0  0  2  0  0  0  0  0  0
  185.4170  178.1860  145.2170 C   0  0  0  0  0  2  0  0  0  0  0  0
  185.1400  179.2500  146.0790 O   0  0  0  0  0  0  0  0  0  0  0  0
  186.0120  179.0750  147.1560 C   0  0  0  0  0  2  0  0  0  0  0  0
  186.9700  177.9310  146.8660 C   0  0  0  0  0  2  0  0  0  0  0  0
  189.2550  177.0740  147.3940 C   0  0  0  0  0  1  0  0  0  0  0  0
  188.0590  177.8410  147.9240 C   0  0  0  0  0  2  0  0  0  0  0  0
  1 15  1  0  0  0  0
  1 21  1  1  0  0  0
  2  1  1  1  0  0  0
  4  6  1  6  0  0  0
  4 11  1  0  0  0  0
  5 14  1  6  0  0  0
  5  2  1  0  0  0  0
  6 12  1  0  0  0  0
  8  7  1  1  0  0  0
  8 10  1  0  0  0  0
  8  3  1  0  0  0  0
 11 14  1  6  0  0  0
 11  3  1  0  0  0  0
 11  2  1  0  0  0  0
 12  5  1  0  0  0  0
 13  9  1  6  0  0  0
 13 10  1  0  0  0  0
 13  4  1  0  0  0  0
 15 16  1  0  0  0  0
 16 17  1  0  0  0  0
 17 19  1  0  0  0  0
 17 18  1  1  0  0  0
 19 20  1  0  0  0  0
 21 22  1  0  0  0  0
 22 23  1  0  0  0  0
 23 24  1  0  0  0  0
 24 25  1  0  0  0  0
 25 26  1  0  0  0  0
 26 27  1  0  0  0  0
 28 27  1  0  0  0  0
 28 30  1  0  0  0  0
 29 30  1  0  0  0  0
M  END
>  <MODEL>
1

>  <REMARK>
 VINA RESULT:      -6.1      0.000      0.000
  Name = 
  14 active torsions:
  status: ('A' for Active; 'I' for Inactive)
    1  A    between atoms: C_1  and  C_4
    2  A    between atoms: C_4  and  O_10
    3  A    between atoms: C_4  and  C_23
    4  A    between atoms: C_7  and  O_15
    5  A    between atoms: C_7  and  C_25
    6  A    between atoms: C_8  and  O_12
    7  A    between atoms: C_8  and  C_13
    8  A    between atoms: C_9  and  O_12
    9  A    between atoms: C_9  and  C_21
   10  A    between atoms: O_10  and  C_25
   11  A    between atoms: C_13  and  C_30
   12  A    between atoms: C_17  and  C_21
   13  A    between atoms: C_23  and  S_27
   14  A    between atoms: S_27  and  C_30
                            x       y       z     vdW  Elec       q    Type
                         _______ _______ _______ _____ _____    ______ ____

>  <TORSDO>
F 14

$$$$
=
 OpenBabel10272413453D

 30 32  0  0  1  0  0  0  0  0999 V2000
  189.1900  177.3710  140.2860 C   0  0  1  0  0  3  0  0  0  0  0  0
  189.7950  177.9700  139.0030 C   0  0  2  0  0  3  0  0  0  0  0  0
  191.5120  176.7350  137.8150 O   0  0  0  0  0  0  0  0  0  0  0  0
  189.1810  175.7870  137.8500 C   0  0  2  0  0  3  0  0  0  0  0  0
  188.8680  178.7040  138.0380 C   0  0  2  0  0  3  0  0  0  0  0  0
  187.6860  176.1620  137.6640 C   0  0  0  0  0  2  0  0  0  0  0  0
  193.1610  175.7830  136.5510 O   0  0  0  0  0  1  0  0  0  0  0  0
  191.7830  175.9430  136.6840 C   0  0  1  0  0  3  0  0  0  0  0  0
  189.2000  175.1140  135.5250 O   0  0  0  0  0  1  0  0  0  0  0  0
  191.1270  174.5720  136.8230 C   0  0  0  0  0  2  0  0  0  0  0  0
  190.1270  177.0180  137.8660 C   0  0  1  0  0  0  0  0  0  0  0  0
  187.1990  177.9150  138.0590 S   0  0  0  0  0  0  0  0  0  0  0  0
  189.6130  174.7440  136.8090 C   0  0  1  0  0  3  0  0  0  0  0  0
  189.6320  178.0680  136.8830 C   0  0  0  0  0  2  0  0  0  0  0  0
  190.1550  176.6220  140.9650 O   0  0  0  0  0  0  0  0  0  0  0  0
  191.1900  177.5200  141.2400 C   0  0  0  0  0  2  0  0  0  0  0  0
  191.7680  177.2450  142.6170 C   0  0  1  0  0  3  0  0  0  0  0  0
  191.4030  178.6320  143.7320 S   0  0  0  0  0  1  0  0  0  0  0  0
  191.2060  176.0760  143.1310 O   0  0  0  0  0  0  0  0  0  0  0  0
  191.4180  176.1530  144.5070 C   0  0  0  0  0  1  0  0  0  0  0  0
  188.6280  178.4620  141.1980 C   0  0  0  0  0  2  0  0  0  0  0  0
  187.0770  177.9530  142.0120 S   0  0  0  0  0  0  0  0  0  0  0  0
  187.9520  177.1400  143.3820 C   0  0  0  0  0  2  0  0  0  0  0  0
  187.6430  177.8370  144.6970 C   0  0  0  0  0  2  0  0  0  0  0  0
  186.4860  177.1640  145.4210 C   0  0  0  0  0  2  0  0  0  0  0  0
  185.8880  178.0490  146.3200 O   0  0  0  0  0  0  0  0  0  0  0  0
  185.4340  179.1090  145.5320 C   0  0  0  0  0  2  0  0  0  0  0  0
  183.9470  178.9500  145.2580 C   0  0  0  0  0  2  0  0  0  0  0  0
  182.1750  178.9630  143.4980 C   0  0  0  0  0  1  0  0  0  0  0  0
  183.6660  178.8790  143.7650 C   0  0  0  0  0  2  0  0  0  0  0  0
  1 15  1  0  0  0  0
  1 21  1  1  0  0  0
  2  1  1  1  0  0  0
  3 11  1  0  0  0  0
  4  6  1  6  0  0  0
  4 11  1  0  0  0  0
  5 14  1  6  0  0  0
  5 12  1  0  0  0  0
  5  2  1  0  0  0  0
  6 12  1  0  0  0  0
  8  7  1  1  0  0  0
  8 10  1  0  0  0  0
  8  3  1  0  0  0  0
 11 14  1  6  0  0  0
 11  2  1  0  0  0  0
 13  9  1  6  0  0  0
 13 10  1  0  0  0  0
 13  4  1  0  0  0  0
 15 16  1  0  0  0  0
 16 17  1  0  0  0  0
 17 19  1  0  0  0  0
 17 18  1  1  0  0  0
 19 20  1  0  0  0  0
 21 22  1  0  0  0  0
 22 23  1  0  0  0  0
 23 24  1  0  0  0  0
 24 25  1  0  0  0  0
 25 26  1  0  0  0  0
 27 26  1  0  0  0  0
 28 27  1  0  0  0  0
 29 30  1  0  0  0  0
 30 28  1  0  0  0  0
M  END
>  <MODEL>
2

>  <REMARK>
 VINA RESULT:      -5.9      1.278      2.253
  Name = 
  14 active torsions:
  status: ('A' for Active; 'I' for Inactive)
    1  A    between atoms: C_1  and  C_4
    2  A    between atoms: C_4  and  O_10
    3  A    between atoms: C_4  and  C_23
    4  A    between atoms: C_7  and  O_15
    5  A    between atoms: C_7  and  C_25
    6  A    between atoms: C_8  and  O_12
    7  A    between atoms: C_8  and  C_13
    8  A    between atoms: C_9  and  O_12
    9  A    between atoms: C_9  and  C_21
   10  A    between atoms: O_10  and  C_25
   11  A    between atoms: C_13  and  C_30
   12  A    between atoms: C_17  and  C_21
   13  A    between atoms: C_23  and  S_27
   14  A    between atoms: S_27  and  C_30
                            x       y       z     vdW  Elec       q    Type
                         _______ _______ _______ _____ _____    ______ ____

>  <TORSDO>
F 14

$$$$
=
 OpenBabel10272413453D

 30 32  0  0  1  0  0  0  0  0999 V2000
  188.7750  177.3050  142.7030 C   0  0  1  0  0  3  0  0  0  0  0  0
  189.4610  178.3860  143.5590 C   0  0  2  0  0  3  0  0  0  0  0  0
  189.1570  178.3620  145.9640 O   0  0  0  0  0  0  0  0  0  0  0  0
  190.4690  176.4880  144.9180 C   0  0  2  0  0  3  0  0  0  0  0  0
  190.8730  178.8230  143.1800 C   0  0  2  0  0  3  0  0  0  0  0  0
  191.5910  176.1810  143.8890 C   0  0  0  0  0  2  0  0  0  0  0  0
  188.9890  178.5690  148.2350 O   0  0  0  0  0  1  0  0  0  0  0  0
  189.7650  178.0570  147.1960 C   0  0  1  0  0  3  0  0  0  0  0  0
  192.1710  176.4440  146.6380 O   0  0  0  0  0  1  0  0  0  0  0  0
  189.9010  176.5470  147.3650 C   0  0  0  0  0  2  0  0  0  0  0  0
  190.0160  177.9720  144.9110 C   0  0  1  0  0  0  0  0  0  0  0  0
  191.8030  177.3870  142.4860 S   0  0  0  0  0  0  0  0  0  0  0  0
  190.8770  176.0170  146.3220 C   0  0  1  0  0  3  0  0  0  0  0  0
  191.2110  178.8810  144.6640 C   0  0  0  0  0  2  0  0  0  0  0  0
  187.6740  176.7810  143.3870 O   0  0  0  0  0  0  0  0  0  0  0  0
  186.6070  177.6230  143.0610 C   0  0  0  0  0  2  0  0  0  0  0  0
  186.0530  178.2730  144.3170 C   0  0  1  0  0  3  0  0  0  0  0  0
  184.3130  178.7320  144.0630 S   0  0  0  0  0  1  0  0  0  0  0  0
  186.1460  177.3770  145.3820 O   0  0  0  0  0  0  0  0  0  0  0  0
  185.7130  178.0990  146.4950 C   0  0  0  0  0  1  0  0  0  0  0  0
  188.3410  177.8600  141.3460 C   0  0  0  0  0  2  0  0  0  0  0  0
  189.2950  177.1430  139.9670 S   0  0  0  0  0  0  0  0  0  0  0  0
  188.9990  178.5780  138.8910 C   0  0  0  0  0  2  0  0  0  0  0  0
  188.4220  178.1330  137.5580 C   0  0  0  0  0  2  0  0  0  0  0  0
  186.9150  177.9390  137.6440 C   0  0  0  0  0  2  0  0  0  0  0  0
  186.3650  178.7880  138.6070 O   0  0  0  0  0  0  0  0  0  0  0  0
  185.0040  178.4730  138.6270 C   0  0  0  0  0  2  0  0  0  0  0  0
  184.4160  178.8070  139.9890 C   0  0  0  0  0  2  0  0  0  0  0  0
  182.1440  178.4360  140.9550 C   0  0  0  0  0  1  0  0  0  0  0  0
  183.3940  177.7660  140.4180 C   0  0  0  0  0  2  0  0  0  0  0  0
  1 21  1  6  0  0  0
  1 15  1  0  0  0  0
  2  1  1  6  0  0  0
  2 11  1  0  0  0  0
  3  8  1  0  0  0  0
  4  6  1  6  0  0  0
  4 13  1  0  0  0  0
  5  2  1  0  0  0  0
  5 14  1  1  0  0  0
  8 10  1  0  0  0  0
  8  7  1  1  0  0  0
 11 14  1  1  0  0  0
 11  4  1  0  0  0  0
 11  3  1  0  0  0  0
 12  5  1  0  0  0  0
 12  6  1  0  0  0  0
 13  9  1  1  0  0  0
 13 10  1  0  0  0  0
 16 15  1  0  0  0  0
 16 17  1  0  0  0  0
 17 18  1  6  0  0  0
 17 19  1  0  0  0  0
 19 20  1  0  0  0  0
 22 21  1  0  0  0  0
 23 22  1  0  0  0  0
 24 25  1  0  0  0  0
 24 23  1  0  0  0  0
 25 26  1  0  0  0  0
 26 27  1  0  0  0  0
 27 28  1  0  0  0  0
 28 30  1  0  0  0  0
 30 29  1  0  0  0  0
M  END
>  <MODEL>
3

>  <REMARK>
 VINA RESULT:      -5.8      2.920      7.320
  Name = 
  14 active torsions:
  status: ('A' for Active; 'I' for Inactive)
    1  A    between atoms: C_1  and  C_4
    2  A    between atoms: C_4  and  O_10
    3  A    between atoms: C_4  and  C_23
    4  A    between atoms: C_7  and  O_15
    5  A    between atoms: C_7  and  C_25
    6  A    between atoms: C_8  and  O_12
    7  A    between atoms: C_8  and  C_13
    8  A    between atoms: C_9  and  O_12
    9  A    between atoms: C_9  and  C_21
   10  A    between atoms: O_10  and  C_25
   11  A    between atoms: C_13  and  C_30
   12  A    between atoms: C_17  and  C_21
   13  A    between atoms: C_23  and  S_27
   14  A    between atoms: S_27  and  C_30
                            x       y       z     vdW  Elec       q    Type
                         _______ _______ _______ _____ _____    ______ ____

>  <TORSDO>
F 14

$$$$
=
 OpenBabel10272413453D

 30 32  0  0  1  0  0  0  0  0999 V2000
  188.7540  177.3110  142.7310 C   0  0  1  0  0  3  0  0  0  0  0  0
  189.4300  178.3920  143.5940 C   0  0  2  0  0  3  0  0  0  0  0  0
  189.1280  178.3470  145.9990 O   0  0  0  0  0  0  0  0  0  0  0  0
  190.4560  176.4920  144.9390 C   0  0  2  0  0  3  0  0  0  0  0  0
  190.8390  178.8440  143.2180 C   0  0  2  0  0  3  0  0  0  0  0  0
  191.5800  176.2030  143.9070 C   0  0  0  0  0  2  0  0  0  0  0  0
  188.9590  178.5360  148.2710 O   0  0  0  0  0  1  0  0  0  0  0  0
  189.7390  178.0380  147.2290 C   0  0  1  0  0  3  0  0  0  0  0  0
  192.1590  176.4510  146.6580 O   0  0  0  0  0  1  0  0  0  0  0  0
  189.8890  176.5280  147.3860 C   0  0  0  0  0  2  0  0  0  0  0  0
  189.9900  177.9730  144.9430 C   0  0  1  0  0  0  0  0  0  0  0  0
  191.7810  177.4210  142.5130 S   0  0  0  0  0  0  0  0  0  0  0  0
  190.8690  176.0150  146.3390 C   0  0  1  0  0  3  0  0  0  0  0  0
  191.1770  178.8940  144.7020 C   0  0  0  0  0  2  0  0  0  0  0  0
  187.6590  176.7710  143.4120 O   0  0  0  0  0  0  0  0  0  0  0  0
  186.5690  177.5630  143.0390 C   0  0  0  0  0  2  0  0  0  0  0  0
  186.0060  178.2810  144.2530 C   0  0  1  0  0  3  0  0  0  0  0  0
  184.2670  178.7200  143.9640 S   0  0  0  0  0  1  0  0  0  0  0  0
  186.0960  177.4460  145.3680 O   0  0  0  0  0  0  0  0  0  0  0  0
  185.6680  178.2330  146.4380 C   0  0  0  0  0  1  0  0  0  0  0  0
  188.3120  177.8730  141.3790 C   0  0  0  0  0  2  0  0  0  0  0  0
  189.2320  177.1350  139.9880 S   0  0  0  0  0  0  0  0  0  0  0  0
  189.0660  178.6270  138.9630 C   0  0  0  0  0  2  0  0  0  0  0  0
  189.2010  178.2770  137.4900 C   0  0  0  0  0  2  0  0  0  0  0  0
  190.2100  177.1580  137.2780 C   0  0  0  0  0  2  0  0  0  0  0  0
  189.9910  176.5240  136.0530 O   0  0  0  0  0  0  0  0  0  0  0  0
  190.9440  175.5040  136.0010 C   0  0  0  0  0  2  0  0  0  0  0  0
  191.2040  174.9670  137.4000 C   0  0  0  0  0  2  0  0  0  0  0  0
  193.5920  175.5830  137.7890 C   0  0  0  0  0  1  0  0  0  0  0  0
  192.6260  174.4430  137.5340 C   0  0  0  0  0  2  0  0  0  0  0  0
  1 21  1  6  0  0  0
  1 15  1  0  0  0  0
  2  1  1  6  0  0  0
  2 11  1  0  0  0  0
  3  8  1  0  0  0  0
  4  6  1  6  0  0  0
  4 11  1  0  0  0  0
  4 13  1  0  0  0  0
  5  2  1  0  0  0  0
  5 14  1  1  0  0  0
  8 10  1  0  0  0  0
  8  7  1  1  0  0  0
 11 14  1  1  0  0  0
 11  3  1  0  0  0  0
 12  5  1  0  0  0  0
 12  6  1  0  0  0  0
 13  9  1  1  0  0  0
 13 10  1  0  0  0  0
 16 15  1  0  0  0  0
 16 17  1  0  0  0  0
 17 18  1  6  0  0  0
 17 19  1  0  0  0  0
 19 20  1  0  0  0  0
 22 21  1  0  0  0  0
 23 22  1  0  0  0  0
 24 23  1  0  0  0  0
 25 24  1  0  0  0  0
 26 25  1  0  0  0  0
 27 26  1  0  0  0  0
 27 28  1  0  0  0  0
 28 30  1  0  0  0  0
 30 29  1  0  0  0  0
M  END
>  <MODEL>
4

>  <REMARK>
 VINA RESULT:      -5.5      2.107      8.070
  Name = 
  14 active torsions:
  status: ('A' for Active; 'I' for Inactive)
    1  A    between atoms: C_1  and  C_4
    2  A    between atoms: C_4  and  O_10
    3  A    between atoms: C_4  and  C_23
    4  A    between atoms: C_7  and  O_15
    5  A    between atoms: C_7  and  C_25
    6  A    between atoms: C_8  and  O_12
    7  A    between atoms: C_8  and  C_13
    8  A    between atoms: C_9  and  O_12
    9  A    between atoms: C_9  and  C_21
   10  A    between atoms: O_10  and  C_25
   11  A    between atoms: C_13  and  C_30
   12  A    between atoms: C_17  and  C_21
   13  A    between atoms: C_23  and  S_27
   14  A    between atoms: S_27  and  C_30
                            x       y       z     vdW  Elec       q    Type
                         _______ _______ _______ _____ _____    ______ ____

>  <TORSDO>
F 14

$$$$
=
 OpenBabel10272413453D

 30 32  0  0  1  0  0  0  0  0999 V2000
  188.6340  177.5490  139.9500 C   0  0  1  0  0  3  0  0  0  0  0  0
  189.4520  177.9980  138.7250 C   0  0  2  0  0  3  0  0  0  0  0  0
  191.2510  176.5860  137.9190 O   0  0  0  0  0  0  0  0  0  0  0  0
  188.8910  175.7450  137.6860 C   0  0  2  0  0  3  0  0  0  0  0  0
  188.7180  178.6780  137.5730 C   0  0  2  0  0  3  0  0  0  0  0  0
  187.4620  176.1640  137.2470 C   0  0  0  0  0  2  0  0  0  0  0  0
  193.0110  175.4510  137.0030 O   0  0  0  0  0  1  0  0  0  0  0  0
  191.6390  175.6800  136.9140 C   0  0  1  0  0  3  0  0  0  0  0  0
  189.2090  174.8580  135.4570 O   0  0  0  0  0  1  0  0  0  0  0  0
  190.8940  174.3580  137.0710 C   0  0  0  0  0  2  0  0  0  0  0  0
  189.8920  176.9310  137.7370 C   0  0  1  0  0  0  0  0  0  0  0  0
  187.0220  177.9660  137.4120 S   0  0  0  0  0  0  0  0  0  0  0  0
  189.4100  174.5920  136.8150 C   0  0  1  0  0  3  0  0  0  0  0  0
  189.6050  177.9050  136.6040 C   0  0  0  0  0  2  0  0  0  0  0  0
  189.4150  176.7300  140.7720 O   0  0  0  0  0  0  0  0  0  0  0  0
  190.4330  177.5590  141.2530 C   0  0  0  0  0  2  0  0  0  0  0  0
  190.5920  177.3720  142.7520 C   0  0  1  0  0  3  0  0  0  0  0  0
  189.3840  176.1570  143.3580 S   0  0  0  0  0  1  0  0  0  0  0  0
  191.8830  176.9230  143.0290 O   0  0  0  0  0  0  0  0  0  0  0  0
  191.7060  175.8330  143.8820 C   0  0  0  0  0  1  0  0  0  0  0  0
  188.1110  178.7480  140.7410 C   0  0  0  0  0  2  0  0  0  0  0  0
  186.7880  178.2850  141.9070 S   0  0  0  0  0  0  0  0  0  0  0  0
  185.4870  179.0190  140.8710 C   0  0  0  0  0  2  0  0  0  0  0  0
  184.1130  178.6670  141.4160 C   0  0  0  0  0  2  0  0  0  0  0  0
  184.1710  178.3520  142.9030 C   0  0  0  0  0  2  0  0  0  0  0  0
  183.7060  179.4340  143.6530 O   0  0  0  0  0  0  0  0  0  0  0  0
  183.9610  179.0850  144.9820 C   0  0  0  0  0  2  0  0  0  0  0  0
  185.2890  178.3520  145.0790 C   0  0  0  0  0  2  0  0  0  0  0  0
  185.9970  179.3670  147.2470 C   0  0  0  0  0  1  0  0  0  0  0  0
  185.6620  178.0750  146.5270 C   0  0  0  0  0  2  0  0  0  0  0  0
  1 21  1  1  0  0  0
  1 15  1  0  0  0  0
  2  1  1  1  0  0  0
  4  6  1  6  0  0  0
  4 11  1  0  0  0  0
  5 14  1  6  0  0  0
  5  2  1  0  0  0  0
  6 12  1  0  0  0  0
  8  7  1  1  0  0  0
  8 10  1  0  0  0  0
  8  3  1  0  0  0  0
 11 14  1  6  0  0  0
 11  3  1  0  0  0  0
 11  2  1  0  0  0  0
 12  5  1  0  0  0  0
 13  9  1  6  0  0  0
 13 10  1  0  0  0  0
 13  4  1  0  0  0  0
 15 16  1  0  0  0  0
 16 17  1  0  0  0  0
 17 19  1  0  0  0  0
 17 18  1  6  0  0  0
 19 20  1  0  0  0  0
 21 22  1  0  0  0  0
 23 24  1  0  0  0  0
 23 22  1  0  0  0  0
 24 25  1  0  0  0  0
 25 26  1  0  0  0  0
 26 27  1  0  0  0  0
 27 28  1  0  0  0  0
 28 30  1  0  0  0  0
 30 29  1  0  0  0  0
M  END
>  <MODEL>
5

>  <REMARK>
 VINA RESULT:      -5.4      1.423      1.723
  Name = 
  14 active torsions:
  status: ('A' for Active; 'I' for Inactive)
    1  A    between atoms: C_1  and  C_4
    2  A    between atoms: C_4  and  O_10
    3  A    between atoms: C_4  and  C_23
    4  A    between atoms: C_7  and  O_15
    5  A    between atoms: C_7  and  C_25
    6  A    between atoms: C_8  and  O_12
    7  A    between atoms: C_8  and  C_13
    8  A    between atoms: C_9  and  O_12
    9  A    between atoms: C_9  and  C_21
   10  A    between atoms: O_10  and  C_25
   11  A    between atoms: C_13  and  C_30
   12  A    between atoms: C_17  and  C_21
   13  A    between atoms: C_23  and  S_27
   14  A    between atoms: S_27  and  C_30
                            x       y       z     vdW  Elec       q    Type
                         _______ _______ _______ _____ _____    ______ ____

>  <TORSDO>
F 14

$$$$
=
 OpenBabel10272413453D

 30 32  0  0  1  0  0  0  0  0999 V2000
  188.7760  177.3940  142.6440 C   0  0  1  0  0  3  0  0  0  0  0  0
  189.4770  178.4470  143.5230 C   0  0  2  0  0  3  0  0  0  0  0  0
  189.1810  178.3680  145.9290 O   0  0  0  0  0  0  0  0  0  0  0  0
  190.4680  176.5040  144.8330 C   0  0  2  0  0  3  0  0  0  0  0  0
  190.8930  178.8770  143.1500 C   0  0  2  0  0  3  0  0  0  0  0  0
  191.5830  176.2100  143.7930 C   0  0  0  0  0  2  0  0  0  0  0  0
  189.0220  178.5220  148.2040 O   0  0  0  0  0  1  0  0  0  0  0  0
  189.7900  178.0260  147.1510 C   0  0  1  0  0  3  0  0  0  0  0  0
  192.1750  176.4000  146.5450 O   0  0  0  0  0  1  0  0  0  0  0  0
  189.9090  176.5110  147.2820 C   0  0  0  0  0  2  0  0  0  0  0  0
  190.0320  177.9940  144.8630 C   0  0  1  0  0  0  0  0  0  0  0  0
  191.8040  177.4470  142.4190 S   0  0  0  0  0  0  0  0  0  0  0  0
  190.8760  175.9960  146.2230 C   0  0  1  0  0  3  0  0  0  0  0  0
  191.2360  178.8950  144.6340 C   0  0  0  0  0  2  0  0  0  0  0  0
  187.6740  176.8640  143.3200 O   0  0  0  0  0  0  0  0  0  0  0  0
  186.5990  177.6870  142.9700 C   0  0  0  0  0  2  0  0  0  0  0  0
  185.9910  178.3090  144.2150 C   0  0  1  0  0  3  0  0  0  0  0  0
  184.2420  178.7030  143.9220 S   0  0  0  0  0  1  0  0  0  0  0  0
  186.0940  177.4120  145.2790 O   0  0  0  0  0  0  0  0  0  0  0  0
  185.7240  178.1500  146.4040 C   0  0  0  0  0  1  0  0  0  0  0  0
  188.3410  177.9880  141.3040 C   0  0  0  0  0  2  0  0  0  0  0  0
  189.2010  177.2180  139.8920 S   0  0  0  0  0  0  0  0  0  0  0  0
  188.1660  178.0780  138.6710 C   0  0  0  0  0  2  0  0  0  0  0  0
  189.0340  178.7840  137.6420 C   0  0  0  0  0  2  0  0  0  0  0  0
  188.9920  178.0690  136.2990 C   0  0  0  0  0  2  0  0  0  0  0  0
  189.9040  177.0120  136.2760 O   0  0  0  0  0  0  0  0  0  0  0  0
  189.1810  175.9260  135.7770 C   0  0  0  0  0  2  0  0  0  0  0  0
  189.0130  174.8740  136.8620 C   0  0  0  0  0  2  0  0  0  0  0  0
  186.5960  175.3310  136.4370 C   0  0  0  0  0  1  0  0  0  0  0  0
  187.6120  174.2820  136.8450 C   0  0  0  0  0  2  0  0  0  0  0  0
  1 21  1  6  0  0  0
  1 15  1  0  0  0  0
  2  1  1  6  0  0  0
  2 11  1  0  0  0  0
  3  8  1  0  0  0  0
  4  6  1  6  0  0  0
  4 11  1  0  0  0  0
  4 13  1  0  0  0  0
  5  2  1  0  0  0  0
  5 14  1  1  0  0  0
  8 10  1  0  0  0  0
  8  7  1  1  0  0  0
 11 14  1  1  0  0  0
 11  3  1  0  0  0  0
 12  5  1  0  0  0  0
 12  6  1  0  0  0  0
 13  9  1  1  0  0  0
 13 10  1  0  0  0  0
 16 15  1  0  0  0  0
 16 17  1  0  0  0  0
 17 18  1  6  0  0  0
 17 19  1  0  0  0  0
 19 20  1  0  0  0  0
 22 21  1  0  0  0  0
 23 22  1  0  0  0  0
 24 23  1  0  0  0  0
 25 24  1  0  0  0  0
 26 25  1  0  0  0  0
 27 26  1  0  0  0  0
 27 28  1  0  0  0  0
 29 30  1  0  0  0  0
 30 28  1  0  0  0  0
M  END
>  <MODEL>
6

>  <REMARK>
 VINA RESULT:      -5.4      2.151      8.004
  Name = 
  14 active torsions:
  status: ('A' for Active; 'I' for Inactive)
    1  A    between atoms: C_1  and  C_4
    2  A    between atoms: C_4  and  O_10
    3  A    between atoms: C_4  and  C_23
    4  A    between atoms: C_7  and  O_15
    5  A    between atoms: C_7  and  C_25
    6  A    between atoms: C_8  and  O_12
    7  A    between atoms: C_8  and  C_13
    8  A    between atoms: C_9  and  O_12
    9  A    between atoms: C_9  and  C_21
   10  A    between atoms: O_10  and  C_25
   11  A    between atoms: C_13  and  C_30
   12  A    between atoms: C_17  and  C_21
   13  A    between atoms: C_23  and  S_27
   14  A    between atoms: S_27  and  C_30
                            x       y       z     vdW  Elec       q    Type
                         _______ _______ _______ _____ _____    ______ ____

>  <TORSDO>
F 14

$$$$
=
 OpenBabel10272413453D

 30 32  0  0  1  0  0  0  0  0999 V2000
  187.5000  178.3460  141.8070 C   0  0  1  0  0  3  0  0  0  0  0  0
  188.3780  177.0830  141.8830 C   0  0  2  0  0  3  0  0  0  0  0  0
  190.7620  177.2720  141.4800 O   0  0  0  0  0  0  0  0  0  0  0  0
  189.8240  178.3460  143.5530 C   0  0  2  0  0  3  0  0  0  0  0  0
  188.0770  176.0550  142.9700 C   0  0  2  0  0  3  0  0  0  0  0  0
  188.8670  178.1040  144.7520 C   0  0  0  0  0  2  0  0  0  0  0  0
  193.0150  177.1910  141.1010 O   0  0  0  0  0  1  0  0  0  0  0  0
  192.0320  177.2880  142.0860 C   0  0  1  0  0  3  0  0  0  0  0  0
  191.6420  177.6440  144.9880 O   0  0  0  0  0  1  0  0  0  0  0  0
  192.2310  178.5790  142.8730 C   0  0  0  0  0  2  0  0  0  0  0  0
  189.7670  177.2220  142.4830 C   0  0  1  0  0  0  0  0  0  0  0  0
  187.4610  176.9130  144.4840 S   0  0  0  0  0  0  0  0  0  0  0  0
  191.2560  178.6010  144.0440 C   0  0  1  0  0  3  0  0  0  0  0  0
  189.5770  175.8710  143.1570 C   0  0  0  0  0  2  0  0  0  0  0  0
  187.5700  178.9000  140.5260 O   0  0  0  0  0  0  0  0  0  0  0  0
  187.8410  177.8240  139.6760 C   0  0  0  0  0  2  0  0  0  0  0  0
  187.2280  178.0710  138.3080 C   0  0  1  0  0  3  0  0  0  0  0  0
  185.4510  178.4130  138.4770 S   0  0  0  0  0  1  0  0  0  0  0  0
  187.8560  179.1630  137.7090 O   0  0  0  0  0  0  0  0  0  0  0  0
  189.1030  178.6820  137.3090 C   0  0  0  0  0  1  0  0  0  0  0  0
  186.0480  178.0380  142.1730 C   0  0  0  0  0  2  0  0  0  0  0  0
  185.1590  179.5100  142.7800 S   0  0  0  0  0  0  0  0  0  0  0  0
  183.8110  178.5190  143.4920 C   0  0  0  0  0  2  0  0  0  0  0  0
  183.6840  178.7910  144.9820 C   0  0  0  0  0  2  0  0  0  0  0  0
  185.0390  179.0830  145.6090 C   0  0  0  0  0  2  0  0  0  0  0  0
  185.0230  178.7870  146.9740 O   0  0  0  0  0  0  0  0  0  0  0  0
  186.2710  179.2020  147.4460 C   0  0  0  0  0  2  0  0  0  0  0  0
  187.0960  177.9940  147.8570 C   0  0  0  0  0  2  0  0  0  0  0  0
  189.5630  177.6640  148.0590 C   0  0  0  0  0  1  0  0  0  0  0  0
  188.3580  178.4130  148.5950 C   0  0  0  0  0  2  0  0  0  0  0  0
  1 21  1  6  0  0  0
  2  1  1  1  0  0  0
  2 11  1  0  0  0  0
  2  5  1  0  0  0  0
  3  8  1  0  0  0  0
  3 11  1  0  0  0  0
  4 13  1  0  0  0  0
  4  6  1  1  0  0  0
  5 14  1  1  0  0  0
  5 12  1  0  0  0  0
  8  7  1  6  0  0  0
  8 10  1  0  0  0  0
 10 13  1  0  0  0  0
 11 14  1  1  0  0  0
 11  4  1  0  0  0  0
 12  6  1  0  0  0  0
 13  9  1  1  0  0  0
 15  1  1  0  0  0  0
 16 15  1  0  0  0  0
 17 18  1  1  0  0  0
 17 16  1  0  0  0  0
 19 17  1  0  0  0  0
 20 19  1  0  0  0  0
 21 22  1  0  0  0  0
 22 23  1  0  0  0  0
 23 24  1  0  0  0  0
 24 25  1  0  0  0  0
 25 26  1  0  0  0  0
 26 27  1  0  0  0  0
 27 28  1  0  0  0  0
 28 30  1  0  0  0  0
 29 30  1  0  0  0  0
M  END
>  <MODEL>
7

>  <REMARK>
 VINA RESULT:      -5.2      2.383      4.995
  Name = 
  14 active torsions:
  status: ('A' for Active; 'I' for Inactive)
    1  A    between atoms: C_1  and  C_4
    2  A    between atoms: C_4  and  O_10
    3  A    between atoms: C_4  and  C_23
    4  A    between atoms: C_7  and  O_15
    5  A    between atoms: C_7  and  C_25
    6  A    between atoms: C_8  and  O_12
    7  A    between atoms: C_8  and  C_13
    8  A    between atoms: C_9  and  O_12
    9  A    between atoms: C_9  and  C_21
   10  A    between atoms: O_10  and  C_25
   11  A    between atoms: C_13  and  C_30
   12  A    between atoms: C_17  and  C_21
   13  A    between atoms: C_23  and  S_27
   14  A    between atoms: S_27  and  C_30
                            x       y       z     vdW  Elec       q    Type
                         _______ _______ _______ _____ _____    ______ ____

>  <TORSDO>
F 14

$$$$
=
 OpenBabel10272413453D

 30 32  0  0  1  0  0  0  0  0999 V2000
  184.3210  178.4590  141.5780 C   0  0  1  0  0  3  0  0  0  0  0  0
  183.9820  179.0680  140.2050 C   0  0  2  0  0  3  0  0  0  0  0  0
  184.8720  178.0360  138.2000 O   0  0  0  0  0  0  0  0  0  0  0  0
  183.1600  176.7580  139.5290 C   0  0  2  0  0  3  0  0  0  0  0  0
  182.5710  179.6020  139.9780 C   0  0  2  0  0  3  0  0  0  0  0  0
  181.7920  176.8970  140.2510 C   0  0  0  0  0  2  0  0  0  0  0  0
  185.6210  177.2680  136.1810 O   0  0  0  0  0  1  0  0  0  0  0  0
  184.5630  177.2300  137.0880 C   0  0  1  0  0  3  0  0  0  0  0  0
  181.9450  175.9670  137.5910 O   0  0  0  0  0  1  0  0  0  0  0  0
  184.3230  175.7880  137.5240 C   0  0  0  0  0  2  0  0  0  0  0  0
  183.7430  178.1130  139.0470 C   0  0  1  0  0  0  0  0  0  0  0  0
  181.3590  178.5790  140.9220 S   0  0  0  0  0  0  0  0  0  0  0  0
  183.0700  175.7330  138.3890 C   0  0  1  0  0  3  0  0  0  0  0  0
  182.6210  179.0230  138.5690 C   0  0  0  0  0  2  0  0  0  0  0  0
  185.6470  178.0160  141.5900 O   0  0  0  0  0  0  0  0  0  0  0  0
  186.4180  179.1610  141.3680 C   0  0  0  0  0  2  0  0  0  0  0  0
  187.8700  178.7760  141.1440 C   0  0  1  0  0  3  0  0  0  0  0  0
  188.2410  177.2200  142.0070 S   0  0  0  0  0  1  0  0  0  0  0  0
  188.1020  178.6160  139.7770 O   0  0  0  0  0  0  0  0  0  0  0  0
  189.0340  177.5820  139.6920 C   0  0  0  0  0  1  0  0  0  0  0  0
  184.0890  179.4650  142.7070 C   0  0  0  0  0  2  0  0  0  0  0  0
  183.2630  178.7110  144.1470 S   0  0  0  0  0  0  0  0  0  0  0  0
  184.6040  179.1820  145.2810 C   0  0  0  0  0  2  0  0  0  0  0  0
  185.4900  177.9840  145.5810 C   0  0  0  0  0  2  0  0  0  0  0  0
  186.9610  178.3220  145.3860 C   0  0  0  0  0  2  0  0  0  0  0  0
  187.7450  177.1690  145.4720 O   0  0  0  0  0  0  0  0  0  0  0  0
  189.0240  177.6290  145.7930 C   0  0  0  0  0  2  0  0  0  0  0  0
  189.4770  177.0200  147.1100 C   0  0  0  0  0  2  0  0  0  0  0  0
  187.9730  178.0240  148.8310 C   0  0  0  0  0  1  0  0  0  0  0  0
  189.3730  178.0250  148.2470 C   0  0  0  0  0  2  0  0  0  0  0  0
  1 15  1  0  0  0  0
  1 21  1  1  0  0  0
  2  1  1  1  0  0  0
  3 11  1  0  0  0  0
  4  6  1  6  0  0  0
  5 14  1  6  0  0  0
  5  2  1  0  0  0  0
  5 12  1  0  0  0  0
  6 12  1  0  0  0  0
  8  7  1  6  0  0  0
  8 10  1  0  0  0  0
  8  3  1  0  0  0  0
 10 13  1  0  0  0  0
 11 14  1  6  0  0  0
 11  4  1  0  0  0  0
 11  2  1  0  0  0  0
 13  9  1  6  0  0  0
 13  4  1  0  0  0  0
 16 15  1  0  0  0  0
 17 16  1  0  0  0  0
 17 18  1  1  0  0  0
 19 17  1  0  0  0  0
 20 19  1  0  0  0  0
 21 22  1  0  0  0  0
 22 23  1  0  0  0  0
 23 24  1  0  0  0  0
 25 26  1  0  0  0  0
 25 24  1  0  0  0  0
 26 27  1  0  0  0  0
 27 28  1  0  0  0  0
 28 30  1  0  0  0  0
 30 29  1  0  0  0  0
M  END
>  <MODEL>
8

>  <REMARK>
 VINA RESULT:      -5.1      3.707      5.377
  Name = 
  14 active torsions:
  status: ('A' for Active; 'I' for Inactive)
    1  A    between atoms: C_1  and  C_4
    2  A    between atoms: C_4  and  O_10
    3  A    between atoms: C_4  and  C_23
    4  A    between atoms: C_7  and  O_15
    5  A    between atoms: C_7  and  C_25
    6  A    between atoms: C_8  and  O_12
    7  A    between atoms: C_8  and  C_13
    8  A    between atoms: C_9  and  O_12
    9  A    between atoms: C_9  and  C_21
   10  A    between atoms: O_10  and  C_25
   11  A    between atoms: C_13  and  C_30
   12  A    between atoms: C_17  and  C_21
   13  A    between atoms: C_23  and  S_27
   14  A    between atoms: S_27  and  C_30
                            x       y       z     vdW  Elec       q    Type
                         _______ _______ _______ _____ _____    ______ ____

>  <TORSDO>
F 14

$$$$
=
 OpenBabel10272413453D

 30 32  0  0  1  0  0  0  0  0999 V2000
  189.7750  176.6680  138.4180 C   0  0  1  0  0  3  0  0  0  0  0  0
  190.4860  176.8180  137.0600 C   0  0  2  0  0  3  0  0  0  0  0  0
  192.8760  176.4320  136.9250 O   0  0  0  0  0  0  0  0  0  0  0  0
  191.3850  174.4650  137.4160 C   0  0  2  0  0  3  0  0  0  0  0  0
  189.7690  176.3210  135.8080 C   0  0  2  0  0  3  0  0  0  0  0  0
  190.0710  173.7630  136.9770 C   0  0  0  0  0  2  0  0  0  0  0  0
  195.1160  176.1600  136.5560 O   0  0  0  0  0  1  0  0  0  0  0  0
  193.8730  175.5300  136.5060 C   0  0  1  0  0  3  0  0  0  0  0  0
  192.5720  172.9400  135.9590 O   0  0  0  0  0  1  0  0  0  0  0  0
  193.8920  174.3000  137.4080 C   0  0  0  0  0  2  0  0  0  0  0  0
  191.6050  175.8430  136.7350 C   0  0  1  0  0  0  0  0  0  0  0  0
  188.7510  174.8370  136.2220 S   0  0  0  0  0  0  0  0  0  0  0  0
  192.5890  173.5320  137.2260 C   0  0  1  0  0  3  0  0  0  0  0  0
  191.1070  175.7990  135.2980 C   0  0  0  0  0  2  0  0  0  0  0  0
  190.7090  176.3750  139.4160 O   0  0  0  0  0  0  0  0  0  0  0  0
  190.5060  177.3440  140.4030 C   0  0  0  0  0  2  0  0  0  0  0  0
  191.0250  176.8450  141.7400 C   0  0  1  0  0  3  0  0  0  0  0  0
  190.9940  178.1910  142.9600 S   0  0  0  0  0  1  0  0  0  0  0  0
  190.2220  175.7950  142.1860 O   0  0  0  0  0  0  0  0  0  0  0  0
  189.1690  176.4130  142.8610 C   0  0  0  0  0  1  0  0  0  0  0  0
  188.9910  177.9300  138.7790 C   0  0  0  0  0  2  0  0  0  0  0  0
  188.7170  179.0120  137.3380 S   0  0  0  0  0  0  0  0  0  0  0  0
  186.9850  178.4920  137.1560 C   0  0  0  0  0  2  0  0  0  0  0  0
  186.4310  178.0180  138.4890 C   0  0  0  0  0  2  0  0  0  0  0  0
  184.9860  178.4590  138.6750 C   0  0  0  0  0  2  0  0  0  0  0  0
  184.9040  179.4890  139.6150 O   0  0  0  0  0  0  0  0  0  0  0  0
  184.5720  178.8550  140.8140 C   0  0  0  0  0  2  0  0  0  0  0  0
  185.6130  179.1770  141.8750 C   0  0  0  0  0  2  0  0  0  0  0  0
  185.1610  178.5610  144.2520 C   0  0  0  0  0  1  0  0  0  0  0  0
  185.6960  178.0740  142.9190 C   0  0  0  0  0  2  0  0  0  0  0  0
  1 21  1  1  0  0  0
  1 15  1  0  0  0  0
  2  1  1  1  0  0  0
  4  6  1  6  0  0  0
  5 14  1  6  0  0  0
  5 12  1  0  0  0  0
  5  2  1  0  0  0  0
  8  7  1  1  0  0  0
  8  3  1  0  0  0  0
  8 10  1  0  0  0  0
 11 14  1  6  0  0  0
 11  3  1  0  0  0  0
 11  2  1  0  0  0  0
 11  4  1  0  0  0  0
 12  6  1  0  0  0  0
 13  9  1  6  0  0  0
 13 10  1  0  0  0  0
 13  4  1  0  0  0  0
 15 16  1  0  0  0  0
 16 17  1  0  0  0  0
 17 19  1  0  0  0  0
 17 18  1  1  0  0  0
 19 20  1  0  0  0  0
 22 21  1  0  0  0  0
 23 22  1  0  0  0  0
 23 24  1  0  0  0  0
 24 25  1  0  0  0  0
 25 26  1  0  0  0  0
 26 27  1  0  0  0  0
 27 28  1  0  0  0  0
 28 30  1  0  0  0  0
 30 29  1  0  0  0  0
M  END
>  <MODEL>
9

>  <REMARK>
 VINA RESULT:      -5.1      2.499      3.809
  Name = 
  14 active torsions:
  status: ('A' for Active; 'I' for Inactive)
    1  A    between atoms: C_1  and  C_4
    2  A    between atoms: C_4  and  O_10
    3  A    between atoms: C_4  and  C_23
    4  A    between atoms: C_7  and  O_15
    5  A    between atoms: C_7  and  C_25
    6  A    between atoms: C_8  and  O_12
    7  A    between atoms: C_8  and  C_13
    8  A    between atoms: C_9  and  O_12
    9  A    between atoms: C_9  and  C_21
   10  A    between atoms: O_10  and  C_25
   11  A    between atoms: C_13  and  C_30
   12  A    between atoms: C_17  and  C_21
   13  A    between atoms: C_23  and  S_27
   14  A    between atoms: S_27  and  C_30
                            x       y       z     vdW  Elec       q    Type
                         _______ _______ _______ _____ _____    ______ ____

>  <TORSDO>
F 14

$$$$
