=
 OpenBabel10272400493D

 25 28  0  0  1  0  0  0  0  0999 V2000
  188.3520  176.9610  143.0060 C   0  0  0  0  0  0  0  0  0  0  0  0
  186.9720  177.2930  142.5190 C   0  0  1  0  0  3  0  0  0  0  0  0
  189.4580  177.8950  141.0070 C   0  0  0  0  0  2  0  0  0  0  0  0
  188.7890  176.9950  144.2470 C   0  0  0  0  0  3  0  0  0  0  0  0
  188.0600  178.1180  140.4100 C   0  0  0  0  0  2  0  0  0  0  0  0
  190.2600  176.7460  144.2240 C   0  0  1  0  0  3  0  0  0  0  0  0
  185.7000  178.8480  141.0330 C   0  0  0  0  0  0  0  0  0  0  0  0
  185.5800  179.5300  140.0270 O   0  0  0  0  0  0  0  0  0  0  0  0
  185.9670  177.6000  143.5930 C   0  0  0  0  0  3  0  0  0  0  0  0
  189.4520  176.7540  142.0320 C   0  0  1  0  0  3  0  0  0  0  0  0
  190.6850  176.7690  142.8190 N   0  0  0  0  0  2  0  0  0  0  0  0
  184.4660  178.4290  141.7970 C   0  0  0  0  0  2  0  0  0  0  0  0
  184.7720  178.1130  143.2490 C   0  0  0  0  0  0  0  0  0  0  0  0
  187.0720  178.4620  141.5320 C   0  0  1  0  0  3  0  0  0  0  0  0
  183.8730  179.8930  144.7790 C   0  0  0  0  0  2  0  0  0  0  0  0
  183.7550  178.4540  144.3110 C   0  0  2  0  0  3  0  0  0  0  0  0
  184.3400  178.7840  145.6960 C   0  0  1  0  0  3  0  0  0  0  0  0
  185.8610  178.8490  145.7810 C   0  0  0  0  0  2  0  0  0  0  0  0
  186.2770  178.8280  147.1740 N   0  0  0  0  0  2  0  0  0  0  0  0
  187.4090  177.9220  147.2760 C   0  0  0  0  0  2  0  0  0  0  0  0
  188.1240  178.1430  148.5960 C   0  0  0  0  0  1  0  0  0  0  0  0
  191.6480  178.9180  144.2320 C   0  0  0  0  0  1  0  0  0  0  0  0
  191.0650  177.7650  145.0480 C   0  0  2  0  0  3  0  0  0  0  0  0
  191.9550  177.2040  145.9930 O   0  0  0  0  0  0  0  0  0  0  0  0
  191.2250  176.6810  147.0710 C   0  0  0  0  0  1  0  0  0  0  0  0
  1  4  2  0  0  0  0
  2  1  1  0  0  0  0
  2  9  1  1  0  0  0
  5  3  1  0  0  0  0
  6  4  1  0  0  0  0
  6 23  1  1  0  0  0
  7 14  1  0  0  0  0
  7 12  1  0  0  0  0
  8  7  2  0  0  0  0
 10  3  1  6  0  0  0
 10 11  1  0  0  0  0
 10  1  1  0  0  0  0
 11  6  1  0  0  0  0
 12 13  1  0  0  0  0
 13  9  2  0  0  0  0
 14  5  1  6  0  0  0
 14  2  1  0  0  0  0
 15 17  1  0  0  0  0
 16 13  1  6  0  0  0
 16 15  1  0  0  0  0
 16 17  1  0  0  0  0
 17 18  1  6  0  0  0
 18 19  1  0  0  0  0
 19 20  1  0  0  0  0
 20 21  1  0  0  0  0
 23 22  1  6  0  0  0
 23 24  1  0  0  0  0
 24 25  1  0  0  0  0
M  END
>  <MODEL>
1

>  <REMARK>
 VINA RESULT:      -8.2      0.000      0.000
  Name = 
  6 active torsions:
  status: ('A' for Active; 'I' for Inactive)
    1  A    between atoms: C_2  and  N_12
    2  A    between atoms: C_10  and  C_11
    3  A    between atoms: C_11  and  O_17
    4  A    between atoms: N_12  and  C_25
    5  A    between atoms: C_15  and  C_23
    6  A    between atoms: C_21  and  C_25
                            x       y       z     vdW  Elec       q    Type
                         _______ _______ _______ _____ _____    ______ ____

>  <TORSDO>
F 6

$$$$
=
 OpenBabel10272400493D

 25 28  0  0  1  0  0  0  0  0999 V2000
  187.6160  177.1790  143.0030 C   0  0  0  0  0  0  0  0  0  0  0  0
  188.7050  177.0500  141.9800 C   0  0  1  0  0  3  0  0  0  0  0  0
  189.1780  177.1060  144.9130 C   0  0  0  0  0  2  0  0  0  0  0  0
  186.5100  177.8870  142.9060 C   0  0  0  0  0  3  0  0  0  0  0  0
  190.3040  176.8260  143.9040 C   0  0  0  0  0  2  0  0  0  0  0  0
  185.8160  177.8410  144.2260 C   0  0  1  0  0  3  0  0  0  0  0  0
  191.1360  177.4780  141.5870 C   0  0  0  0  0  0  0  0  0  0  0  0
  192.2980  177.5410  141.9540 O   0  0  0  0  0  0  0  0  0  0  0  0
  188.4380  177.7320  140.6680 C   0  0  0  0  0  3  0  0  0  0  0  0
  187.8170  176.6460  144.3730 C   0  0  1  0  0  3  0  0  0  0  0  0
  186.7340  177.2040  145.1800 N   0  0  0  0  0  2  0  0  0  0  0  0
  190.8300  177.3540  140.1120 C   0  0  0  0  0  2  0  0  0  0  0  0
  189.4370  177.8520  139.7740 C   0  0  0  0  0  0  0  0  0  0  0  0
  190.0130  177.5660  142.5920 C   0  0  1  0  0  3  0  0  0  0  0  0
  187.8050  178.3040  137.9160 C   0  0  0  0  0  2  0  0  0  0  0  0
  189.2010  178.5540  138.4590 C   0  0  2  0  0  3  0  0  0  0  0  0
  188.9830  177.6270  137.2500 C   0  0  1  0  0  3  0  0  0  0  0  0
  188.9090  176.1350  137.5570 C   0  0  0  0  0  2  0  0  0  0  0  0
  189.6690  175.3900  136.5670 N   0  0  0  0  0  2  0  0  0  0  0  0
  191.0630  175.7760  136.7080 C   0  0  0  0  0  2  0  0  0  0  0  0
  191.7870  174.7670  137.5790 C   0  0  0  0  0  1  0  0  0  0  0  0
  185.4690  179.3960  146.2530 C   0  0  0  0  0  1  0  0  0  0  0  0
  185.3820  179.2250  144.7370 C   0  0  2  0  0  3  0  0  0  0  0  0
  184.1990  179.7360  144.1550 O   0  0  0  0  0  0  0  0  0  0  0  0
  183.1110  178.9260  144.5170 C   0  0  0  0  0  1  0  0  0  0  0  0
  1 10  1  0  0  0  0
  2  9  1  6  0  0  0
  2 14  1  0  0  0  0
  2  1  1  0  0  0  0
  4  1  2  0  0  0  0
  4  6  1  0  0  0  0
  5  3  1  0  0  0  0
  6 23  1  1  0  0  0
  6 11  1  0  0  0  0
  7  8  2  0  0  0  0
  7 14  1  0  0  0  0
 10  3  1  1  0  0  0
 10 11  1  0  0  0  0
 12  7  1  0  0  0  0
 13 12  1  0  0  0  0
 13  9  2  0  0  0  0
 14  5  1  1  0  0  0
 15 16  1  0  0  0  0
 16 13  1  1  0  0  0
 17 18  1  1  0  0  0
 17 15  1  0  0  0  0
 17 16  1  0  0  0  0
 19 20  1  0  0  0  0
 19 18  1  0  0  0  0
 20 21  1  0  0  0  0
 23 22  1  1  0  0  0
 24 25  1  0  0  0  0
 24 23  1  0  0  0  0
M  END
>  <MODEL>
2

>  <REMARK>
 VINA RESULT:      -8.0      2.749      7.011
  Name = 
  6 active torsions:
  status: ('A' for Active; 'I' for Inactive)
    1  A    between atoms: C_2  and  N_12
    2  A    between atoms: C_10  and  C_11
    3  A    between atoms: C_11  and  O_17
    4  A    between atoms: N_12  and  C_25
    5  A    between atoms: C_15  and  C_23
    6  A    between atoms: C_21  and  C_25
                            x       y       z     vdW  Elec       q    Type
                         _______ _______ _______ _____ _____    ______ ____

>  <TORSDO>
F 6

$$$$
=
 OpenBabel10272400493D

 25 28  0  0  1  0  0  0  0  0999 V2000
  188.0540  176.9700  144.7640 C   0  0  0  0  0  0  0  0  0  0  0  0
  189.0320  176.8040  143.6380 C   0  0  1  0  0  3  0  0  0  0  0  0
  189.7460  177.8740  146.3170 C   0  0  0  0  0  2  0  0  0  0  0  0
  186.7880  177.3200  144.6760 C   0  0  0  0  0  3  0  0  0  0  0  0
  190.8040  177.5830  145.2400 C   0  0  0  0  0  2  0  0  0  0  0  0
  186.2660  177.5130  146.0600 C   0  0  1  0  0  3  0  0  0  0  0  0
  191.1900  177.6740  142.7240 C   0  0  0  0  0  0  0  0  0  0  0  0
  192.3150  178.1300  142.8510 O   0  0  0  0  0  0  0  0  0  0  0  0
  188.4580  176.9620  142.2590 C   0  0  0  0  0  3  0  0  0  0  0  0
  188.5300  176.9510  146.1690 C   0  0  1  0  0  3  0  0  0  0  0  0
  187.4140  177.4460  146.9730 N   0  0  0  0  0  2  0  0  0  0  0  0
  190.7930  177.0310  141.4150 C   0  0  0  0  0  2  0  0  0  0  0  0
  189.2900  177.0430  141.2050 C   0  0  0  0  0  0  0  0  0  0  0  0
  190.1900  177.7880  143.8490 C   0  0  1  0  0  3  0  0  0  0  0  0
  188.9060  178.6490  139.3100 C   0  0  0  0  0  2  0  0  0  0  0  0
  188.7390  177.2260  139.8120 C   0  0  2  0  0  3  0  0  0  0  0  0
  187.5270  178.1690  139.7050 C   0  0  1  0  0  3  0  0  0  0  0  0
  187.1240  178.8880  140.9880 C   0  0  0  0  0  2  0  0  0  0  0  0
  185.7390  179.3170  140.8990 N   0  0  0  0  0  2  0  0  0  0  0  0
  185.1840  178.7430  139.6840 C   0  0  0  0  0  2  0  0  0  0  0  0
  183.9070  179.4720  139.3110 C   0  0  0  0  0  1  0  0  0  0  0  0
  186.0570  179.7340  147.3520 C   0  0  0  0  0  1  0  0  0  0  0  0
  185.5040  178.8360  146.2460 C   0  0  2  0  0  3  0  0  0  0  0  0
  184.0940  178.7250  146.2280 O   0  0  0  0  0  0  0  0  0  0  0  0
  183.6160  179.0430  144.9470 C   0  0  0  0  0  1  0  0  0  0  0  0
  1 10  1  0  0  0  0
  2  9  1  6  0  0  0
  2 14  1  0  0  0  0
  2  1  1  0  0  0  0
  4  1  2  0  0  0  0
  4  6  1  0  0  0  0
  5  3  1  0  0  0  0
  6 23  1  6  0  0  0
  6 11  1  0  0  0  0
  7  8  2  0  0  0  0
  7 14  1  0  0  0  0
 10  3  1  6  0  0  0
 10 11  1  0  0  0  0
 12  7  1  0  0  0  0
 13 12  1  0  0  0  0
 13  9  2  0  0  0  0
 14  5  1  1  0  0  0
 15 17  1  0  0  0  0
 15 16  1  0  0  0  0
 16 13  1  1  0  0  0
 17 16  1  0  0  0  0
 17 18  1  1  0  0  0
 19 18  1  0  0  0  0
 20 19  1  0  0  0  0
 21 20  1  0  0  0  0
 23 22  1  1  0  0  0
 24 23  1  0  0  0  0
 25 24  1  0  0  0  0
M  END
>  <MODEL>
3

>  <REMARK>
 VINA RESULT:      -7.9      2.273      6.037
  Name = 
  6 active torsions:
  status: ('A' for Active; 'I' for Inactive)
    1  A    between atoms: C_2  and  N_12
    2  A    between atoms: C_10  and  C_11
    3  A    between atoms: C_11  and  O_17
    4  A    between atoms: N_12  and  C_25
    5  A    between atoms: C_15  and  C_23
    6  A    between atoms: C_21  and  C_25
                            x       y       z     vdW  Elec       q    Type
                         _______ _______ _______ _____ _____    ______ ____

>  <TORSDO>
F 6

$$$$
=
 OpenBabel10272400493D

 25 28  0  0  1  0  0  0  0  0999 V2000
  186.0840  177.5590  144.2700 C   0  0  0  0  0  0  0  0  0  0  0  0
  186.9710  177.2570  145.4420 C   0  0  1  0  0  3  0  0  0  0  0  0
  184.8560  179.3440  145.4530 C   0  0  0  0  0  2  0  0  0  0  0  0
  186.4090  177.5280  142.9950 C   0  0  0  0  0  3  0  0  0  0  0  0
  185.6430  178.9650  146.7180 C   0  0  0  0  0  2  0  0  0  0  0  0
  185.2560  178.0600  142.2120 C   0  0  1  0  0  3  0  0  0  0  0  0
  187.9580  178.2560  147.5090 C   0  0  0  0  0  0  0  0  0  0  0  0
  187.9180  178.9930  148.4820 O   0  0  0  0  0  0  0  0  0  0  0  0
  188.3490  176.7690  145.0960 C   0  0  0  0  0  3  0  0  0  0  0  0
  184.7430  178.1560  144.4890 C   0  0  1  0  0  3  0  0  0  0  0  0
  184.2910  178.6070  143.1740 N   0  0  0  0  0  2  0  0  0  0  0  0
  188.9490  177.1160  147.4820 C   0  0  0  0  0  2  0  0  0  0  0  0
  189.2770  176.6780  146.0660 C   0  0  0  0  0  0  0  0  0  0  0  0
  187.0530  178.5070  146.3260 C   0  0  1  0  0  3  0  0  0  0  0  0
  191.7330  176.9940  146.5030 C   0  0  0  0  0  2  0  0  0  0  0  0
  190.6760  176.2150  145.7400 C   0  0  2  0  0  3  0  0  0  0  0  0
  191.5590  177.2510  145.0220 C   0  0  1  0  0  3  0  0  0  0  0  0
  190.9540  178.6400  144.8490 C   0  0  0  0  0  2  0  0  0  0  0  0
  190.9490  179.0030  143.4420 N   0  0  0  0  0  2  0  0  0  0  0  0
  191.3500  177.8270  142.6870 C   0  0  0  0  0  2  0  0  0  0  0  0
  190.2390  177.4250  141.7370 C   0  0  0  0  0  1  0  0  0  0  0  0
  184.6590  179.3150  140.0410 C   0  0  0  0  0  1  0  0  0  0  0  0
  185.6580  179.1290  141.1820 C   0  0  2  0  0  3  0  0  0  0  0  0
  187.0130  179.0940  140.7780 O   0  0  0  0  0  0  0  0  0  0  0  0
  187.1310  178.3380  139.6020 C   0  0  0  0  0  1  0  0  0  0  0  0
  1 10  1  0  0  0  0
  1  2  1  0  0  0  0
  2  9  1  6  0  0  0
  2 14  1  0  0  0  0
  3  5  1  0  0  0  0
  4  1  2  0  0  0  0
  6 23  1  6  0  0  0
  6  4  1  0  0  0  0
  6 11  1  0  0  0  0
  7  8  2  0  0  0  0
  9 13  2  0  0  0  0
 10  3  1  1  0  0  0
 11 10  1  0  0  0  0
 12  7  1  0  0  0  0
 13 12  1  0  0  0  0
 14  5  1  1  0  0  0
 14  7  1  0  0  0  0
 16 13  1  1  0  0  0
 16 15  1  0  0  0  0
 17 18  1  1  0  0  0
 17 16  1  0  0  0  0
 17 15  1  0  0  0  0
 19 18  1  0  0  0  0
 20 19  1  0  0  0  0
 21 20  1  0  0  0  0
 23 22  1  6  0  0  0
 24 23  1  0  0  0  0
 25 24  1  0  0  0  0
M  END
>  <MODEL>
4

>  <REMARK>
 VINA RESULT:      -7.8      1.843      6.437
  Name = 
  6 active torsions:
  status: ('A' for Active; 'I' for Inactive)
    1  A    between atoms: C_2  and  N_12
    2  A    between atoms: C_10  and  C_11
    3  A    between atoms: C_11  and  O_17
    4  A    between atoms: N_12  and  C_25
    5  A    between atoms: C_15  and  C_23
    6  A    between atoms: C_21  and  C_25
                            x       y       z     vdW  Elec       q    Type
                         _______ _______ _______ _____ _____    ______ ____

>  <TORSDO>
F 6

$$$$
=
 OpenBabel10272400493D

 25 28  0  0  1  0  0  0  0  0999 V2000
  184.7130  177.9200  142.8200 C   0  0  0  0  0  0  0  0  0  0  0  0
  185.4780  177.7200  144.0950 C   0  0  1  0  0  3  0  0  0  0  0  0
  183.1390  179.5330  143.8260 C   0  0  0  0  0  2  0  0  0  0  0  0
  185.1950  177.9370  141.5950 C   0  0  0  0  0  3  0  0  0  0  0  0
  183.8030  179.2450  145.1820 C   0  0  0  0  0  2  0  0  0  0  0  0
  184.0920  178.3300  140.6710 C   0  0  1  0  0  3  0  0  0  0  0  0
  186.0720  178.8190  146.2600 C   0  0  0  0  0  0  0  0  0  0  0  0
  185.8220  179.5380  147.2150 O   0  0  0  0  0  0  0  0  0  0  0  0
  186.9380  177.4080  143.9270 C   0  0  0  0  0  3  0  0  0  0  0  0
  183.2930  178.3470  142.8650 C   0  0  1  0  0  3  0  0  0  0  0  0
  182.9560  178.7490  141.5010 N   0  0  0  0  0  2  0  0  0  0  0  0
  187.1900  177.8090  146.3650 C   0  0  0  0  0  2  0  0  0  0  0  0
  187.7430  177.4240  145.0050 C   0  0  0  0  0  0  0  0  0  0  0  0
  185.2970  178.9650  144.9720 C   0  0  1  0  0  3  0  0  0  0  0  0
  190.0400  178.4070  144.7280 C   0  0  0  0  0  2  0  0  0  0  0  0
  189.2180  177.1370  144.8590 C   0  0  2  0  0  3  0  0  0  0  0  0
  189.8320  177.5390  143.5060 C   0  0  1  0  0  3  0  0  0  0  0  0
  188.9090  178.2830  142.5470 C   0  0  0  0  0  2  0  0  0  0  0  0
  189.0600  177.7480  141.2040 N   0  0  0  0  0  2  0  0  0  0  0  0
  190.2510  176.9150  141.1990 C   0  0  0  0  0  2  0  0  0  0  0  0
  191.1310  177.2870  140.0210 C   0  0  0  0  0  1  0  0  0  0  0  0
  183.3080  180.0830  138.9520 C   0  0  0  0  0  1  0  0  0  0  0  0
  184.4850  179.4470  139.6900 C   0  0  2  0  0  3  0  0  0  0  0  0
  185.6060  179.1640  138.8760 O   0  0  0  0  0  0  0  0  0  0  0  0
  185.2810  178.1440  137.9690 C   0  0  0  0  0  1  0  0  0  0  0  0
  1 10  1  0  0  0  0
  1  2  1  0  0  0  0
  2  9  1  6  0  0  0
  2 14  1  0  0  0  0
  3  5  1  0  0  0  0
  4  1  2  0  0  0  0
  6 23  1  6  0  0  0
  6 11  1  0  0  0  0
  6  4  1  0  0  0  0
  7 12  1  0  0  0  0
  7  8  2  0  0  0  0
  9 13  2  0  0  0  0
 10  3  1  1  0  0  0
 11 10  1  0  0  0  0
 13 12  1  0  0  0  0
 14  5  1  1  0  0  0
 14  7  1  0  0  0  0
 15 16  1  0  0  0  0
 16 13  1  6  0  0  0
 17 18  1  6  0  0  0
 17 15  1  0  0  0  0
 17 16  1  0  0  0  0
 19 18  1  0  0  0  0
 20 19  1  0  0  0  0
 21 20  1  0  0  0  0
 23 22  1  6  0  0  0
 24 23  1  0  0  0  0
 25 24  1  0  0  0  0
M  END
>  <MODEL>
5

>  <REMARK>
 VINA RESULT:      -7.8      2.404      6.694
  Name = 
  6 active torsions:
  status: ('A' for Active; 'I' for Inactive)
    1  A    between atoms: C_2  and  N_12
    2  A    between atoms: C_10  and  C_11
    3  A    between atoms: C_11  and  O_17
    4  A    between atoms: N_12  and  C_25
    5  A    between atoms: C_15  and  C_23
    6  A    between atoms: C_21  and  C_25
                            x       y       z     vdW  Elec       q    Type
                         _______ _______ _______ _____ _____    ______ ____

>  <TORSDO>
F 6

$$$$
=
 OpenBabel10272400493D

 25 28  0  0  1  0  0  0  0  0999 V2000
  187.2300  177.1180  144.5200 C   0  0  0  0  0  0  0  0  0  0  0  0
  188.6370  176.6760  144.2470 C   0  0  1  0  0  3  0  0  0  0  0  0
  187.8250  178.2680  146.6210 C   0  0  0  0  0  2  0  0  0  0  0  0
  186.3260  177.4890  143.6380 C   0  0  0  0  0  3  0  0  0  0  0  0
  189.2480  177.7120  146.4530 C   0  0  0  0  0  2  0  0  0  0  0  0
  185.1360  177.9950  144.3830 C   0  0  1  0  0  3  0  0  0  0  0  0
  191.0300  177.2440  144.6940 C   0  0  0  0  0  0  0  0  0  0  0  0
  191.9280  177.6720  145.4020 O   0  0  0  0  0  0  0  0  0  0  0  0
  189.0040  176.5560  142.7950 C   0  0  0  0  0  3  0  0  0  0  0  0
  186.7920  177.3830  145.9130 C   0  0  1  0  0  3  0  0  0  0  0  0
  185.5130  178.0820  145.8000 N   0  0  0  0  0  2  0  0  0  0  0  0
  191.3700  176.3510  143.5240 C   0  0  0  0  0  2  0  0  0  0  0  0
  190.2930  176.3760  142.4550 C   0  0  0  0  0  0  0  0  0  0  0  0
  189.5970  177.6360  144.9610 C   0  0  1  0  0  3  0  0  0  0  0  0
  191.4570  177.4990  140.5300 C   0  0  0  0  0  2  0  0  0  0  0  0
  190.6900  176.2760  141.0020 C   0  0  2  0  0  3  0  0  0  0  0  0
  190.0280  177.3060  140.0700 C   0  0  1  0  0  3  0  0  0  0  0  0
  189.1640  178.3640  140.7480 C   0  0  0  0  0  2  0  0  0  0  0  0
  187.9050  178.5030  140.0360 N   0  0  0  0  0  2  0  0  0  0  0  0
  188.1170  178.0220  138.6810 C   0  0  0  0  0  2  0  0  0  0  0  0
  186.7930  177.9730  137.9430 C   0  0  0  0  0  1  0  0  0  0  0  0
  183.1490  179.6180  144.1370 C   0  0  0  0  0  1  0  0  0  0  0  0
  184.6310  179.3560  143.8750 C   0  0  2  0  0  3  0  0  0  0  0  0
  185.0720  179.7140  142.5790 O   0  0  0  0  0  0  0  0  0  0  0  0
  184.2470  179.1080  141.6200 C   0  0  0  0  0  1  0  0  0  0  0  0
  1 10  1  0  0  0  0
  2  9  1  6  0  0  0
  2  1  1  0  0  0  0
  2 14  1  0  0  0  0
  4  6  1  0  0  0  0
  4  1  2  0  0  0  0
  5  3  1  0  0  0  0
  6 23  1  6  0  0  0
  6 11  1  0  0  0  0
  7 14  1  0  0  0  0
  7  8  2  0  0  0  0
 10  3  1  6  0  0  0
 11 10  1  0  0  0  0
 12  7  1  0  0  0  0
 13  9  2  0  0  0  0
 13 12  1  0  0  0  0
 14  5  1  1  0  0  0
 15 16  1  0  0  0  0
 16 13  1  1  0  0  0
 17 15  1  0  0  0  0
 17 18  1  1  0  0  0
 17 16  1  0  0  0  0
 19 18  1  0  0  0  0
 20 19  1  0  0  0  0
 21 20  1  0  0  0  0
 23 22  1  6  0  0  0
 24 23  1  0  0  0  0
 25 24  1  0  0  0  0
M  END
>  <MODEL>
6

>  <REMARK>
 VINA RESULT:      -7.7      1.662      6.845
  Name = 
  6 active torsions:
  status: ('A' for Active; 'I' for Inactive)
    1  A    between atoms: C_2  and  N_12
    2  A    between atoms: C_10  and  C_11
    3  A    between atoms: C_11  and  O_17
    4  A    between atoms: N_12  and  C_25
    5  A    between atoms: C_15  and  C_23
    6  A    between atoms: C_21  and  C_25
                            x       y       z     vdW  Elec       q    Type
                         _______ _______ _______ _____ _____    ______ ____

>  <TORSDO>
F 6

$$$$
=
 OpenBabel10272400493D

 25 28  0  0  1  0  0  0  0  0999 V2000
  188.1170  177.1080  143.3100 C   0  0  0  0  0  0  0  0  0  0  0  0
  186.7830  177.5750  142.8060 C   0  0  1  0  0  3  0  0  0  0  0  0
  189.2450  177.4740  141.1450 C   0  0  0  0  0  2  0  0  0  0  0  0
  188.6230  177.2890  144.5110 C   0  0  0  0  0  3  0  0  0  0  0  0
  187.8690  177.8190  140.5540 C   0  0  0  0  0  2  0  0  0  0  0  0
  190.0310  176.7960  144.4970 C   0  0  1  0  0  3  0  0  0  0  0  0
  185.6950  179.0330  141.0920 C   0  0  0  0  0  0  0  0  0  0  0  0
  185.6300  179.5360  139.9810 O   0  0  0  0  0  0  0  0  0  0  0  0
  185.9020  178.2330  143.8310 C   0  0  0  0  0  3  0  0  0  0  0  0
  189.1140  176.5500  142.3630 C   0  0  1  0  0  3  0  0  0  0  0  0
  190.3740  176.4970  143.1010 N   0  0  0  0  0  2  0  0  0  0  0  0
  184.4540  178.9700  141.9520 C   0  0  0  0  0  2  0  0  0  0  0  0
  184.7880  178.8700  143.4290 C   0  0  0  0  0  0  0  0  0  0  0  0
  187.0130  178.5180  141.6180 C   0  0  1  0  0  3  0  0  0  0  0  0
  182.9690  178.5880  145.1420 C   0  0  0  0  0  2  0  0  0  0  0  0
  183.9000  179.5590  144.4370 C   0  0  2  0  0  3  0  0  0  0  0  0
  182.3960  179.5350  144.1100 C   0  0  1  0  0  3  0  0  0  0  0  0
  181.9900  178.7170  142.8890 C   0  0  0  0  0  2  0  0  0  0  0  0
  180.5480  178.7690  142.7180 N   0  0  0  0  0  2  0  0  0  0  0  0
  180.2290  178.0610  141.4900 C   0  0  0  0  0  2  0  0  0  0  0  0
  180.9960  178.6720  140.3330 C   0  0  0  0  0  1  0  0  0  0  0  0
  191.6150  178.7890  144.0930 C   0  0  0  0  0  1  0  0  0  0  0  0
  191.0340  177.7950  145.0980 C   0  0  2  0  0  3  0  0  0  0  0  0
  191.9820  177.2350  145.9860 O   0  0  0  0  0  0  0  0  0  0  0  0
  191.3140  176.5380  147.0040 C   0  0  0  0  0  1  0  0  0  0  0  0
  1  4  2  0  0  0  0
  2  1  1  0  0  0  0
  2  9  1  1  0  0  0
  5  3  1  0  0  0  0
  6  4  1  0  0  0  0
  6 23  1  6  0  0  0
  7 14  1  0  0  0  0
  7 12  1  0  0  0  0
  8  7  2  0  0  0  0
 10  3  1  6  0  0  0
 10 11  1  0  0  0  0
 10  1  1  0  0  0  0
 11  6  1  0  0  0  0
 12 13  1  0  0  0  0
 13  9  2  0  0  0  0
 14  5  1  6  0  0  0
 14  2  1  0  0  0  0
 16 13  1  6  0  0  0
 16 15  1  0  0  0  0
 17 18  1  6  0  0  0
 17 16  1  0  0  0  0
 17 15  1  0  0  0  0
 19 18  1  0  0  0  0
 20 19  1  0  0  0  0
 21 20  1  0  0  0  0
 23 22  1  6  0  0  0
 23 24  1  0  0  0  0
 24 25  1  0  0  0  0
M  END
>  <MODEL>
7

>  <REMARK>
 VINA RESULT:      -7.6      1.977      3.431
  Name = 
  6 active torsions:
  status: ('A' for Active; 'I' for Inactive)
    1  A    between atoms: C_2  and  N_12
    2  A    between atoms: C_10  and  C_11
    3  A    between atoms: C_11  and  O_17
    4  A    between atoms: N_12  and  C_25
    5  A    between atoms: C_15  and  C_23
    6  A    between atoms: C_21  and  C_25
                            x       y       z     vdW  Elec       q    Type
                         _______ _______ _______ _____ _____    ______ ____

>  <TORSDO>
F 6

$$$$
=
 OpenBabel10272400493D

 25 28  0  0  1  0  0  0  0  0999 V2000
  188.6110  178.1540  140.0690 C   0  0  0  0  0  0  0  0  0  0  0  0
  188.9180  177.9080  141.5170 C   0  0  1  0  0  3  0  0  0  0  0  0
  190.7380  177.1820  139.2830 C   0  0  0  0  0  2  0  0  0  0  0  0
  187.4360  178.0800  139.4800 C   0  0  0  0  0  3  0  0  0  0  0  0
  191.1520  177.0460  140.7570 C   0  0  0  0  0  2  0  0  0  0  0  0
  187.6450  178.2450  138.0120 C   0  0  1  0  0  3  0  0  0  0  0  0
  190.2360  176.4450  143.0560 C   0  0  0  0  0  0  0  0  0  0  0  0
  191.2210  175.7830  143.3440 O   0  0  0  0  0  0  0  0  0  0  0  0
  187.7260  177.6460  142.3920 C   0  0  0  0  0  3  0  0  0  0  0  0
  189.7160  178.3090  139.0910 C   0  0  1  0  0  3  0  0  0  0  0  0
  189.0940  178.2140  137.7720 N   0  0  0  0  0  2  0  0  0  0  0  0
  189.3190  176.9260  144.1570 C   0  0  0  0  0  2  0  0  0  0  0  0
  187.9160  177.2060  143.6490 C   0  0  0  0  0  0  0  0  0  0  0  0
  189.9150  176.7460  141.6120 C   0  0  1  0  0  3  0  0  0  0  0  0
  185.9610  178.1690  144.9020 C   0  0  0  0  0  2  0  0  0  0  0  0
  186.7340  176.9130  144.5410 C   0  0  2  0  0  3  0  0  0  0  0  0
  186.8180  177.5060  145.9580 C   0  0  1  0  0  3  0  0  0  0  0  0
  188.0140  178.4110  146.2340 C   0  0  0  0  0  2  0  0  0  0  0  0
  188.5000  178.1870  147.5850 N   0  0  0  0  0  2  0  0  0  0  0  0
  189.0560  176.8440  147.6300 C   0  0  0  0  0  2  0  0  0  0  0  0
  190.5630  176.9090  147.4700 C   0  0  0  0  0  1  0  0  0  0  0  0
  185.4110  177.2640  137.1830 C   0  0  0  0  0  1  0  0  0  0  0  0
  186.9360  177.1720  137.1690 C   0  0  2  0  0  3  0  0  0  0  0  0
  187.4480  175.8610  137.3110 O   0  0  0  0  0  0  0  0  0  0  0  0
  186.4530  174.9310  136.9740 C   0  0  0  0  0  1  0  0  0  0  0  0
  1  2  1  0  0  0  0
  2 14  1  0  0  0  0
  2  9  1  1  0  0  0
  3  5  1  0  0  0  0
  4  1  2  0  0  0  0
  6 23  1  6  0  0  0
  6  4  1  0  0  0  0
  7  8  2  0  0  0  0
  7 12  1  0  0  0  0
  9 13  2  0  0  0  0
 10  3  1  1  0  0  0
 10  1  1  0  0  0  0
 11  6  1  0  0  0  0
 11 10  1  0  0  0  0
 13 12  1  0  0  0  0
 14  5  1  6  0  0  0
 14  7  1  0  0  0  0
 15 17  1  0  0  0  0
 16 13  1  6  0  0  0
 16 15  1  0  0  0  0
 16 17  1  0  0  0  0
 17 18  1  6  0  0  0
 18 19  1  0  0  0  0
 19 20  1  0  0  0  0
 21 20  1  0  0  0  0
 23 22  1  1  0  0  0
 23 24  1  0  0  0  0
 25 24  1  0  0  0  0
M  END
>  <MODEL>
8

>  <REMARK>
 VINA RESULT:      -7.5      2.528      5.429
  Name = 
  6 active torsions:
  status: ('A' for Active; 'I' for Inactive)
    1  A    between atoms: C_2  and  N_12
    2  A    between atoms: C_10  and  C_11
    3  A    between atoms: C_11  and  O_17
    4  A    between atoms: N_12  and  C_25
    5  A    between atoms: C_15  and  C_23
    6  A    between atoms: C_21  and  C_25
                            x       y       z     vdW  Elec       q    Type
                         _______ _______ _______ _____ _____    ______ ____

>  <TORSDO>
F 6

$$$$
=
 OpenBabel10272400493D

 25 28  0  0  1  0  0  0  0  0999 V2000
  186.9650  177.4640  143.1760 C   0  0  0  0  0  0  0  0  0  0  0  0
  186.7610  177.4450  144.6620 C   0  0  1  0  0  3  0  0  0  0  0  0
  185.4740  179.4010  142.8330 C   0  0  0  0  0  2  0  0  0  0  0  0
  188.0710  177.1860  142.5190 C   0  0  0  0  0  3  0  0  0  0  0  0
  185.1260  179.3230  144.3280 C   0  0  0  0  0  2  0  0  0  0  0  0
  187.8420  177.4980  141.0780 C   0  0  1  0  0  3  0  0  0  0  0  0
  186.1630  178.8860  146.6140 C   0  0  0  0  0  0  0  0  0  0  0  0
  185.5490  179.8040  147.1360 O   0  0  0  0  0  0  0  0  0  0  0  0
  187.9320  176.9540  145.4650 C   0  0  0  0  0  3  0  0  0  0  0  0
  185.9210  178.0380  142.2910 C   0  0  1  0  0  3  0  0  0  0  0  0
  186.5510  178.1910  140.9810 N   0  0  0  0  0  2  0  0  0  0  0  0
  186.7630  177.8060  147.4840 C   0  0  0  0  0  2  0  0  0  0  0  0
  187.9210  177.1020  146.8020 C   0  0  0  0  0  0  0  0  0  0  0  0
  186.3550  178.8520  145.1170 C   0  0  1  0  0  3  0  0  0  0  0  0
  189.9900  177.7910  148.0530 C   0  0  0  0  0  2  0  0  0  0  0  0
  189.0970  176.6390  147.6290 C   0  0  2  0  0  3  0  0  0  0  0  0
  190.4760  176.8430  146.9790 C   0  0  1  0  0  3  0  0  0  0  0  0
  190.4850  177.5950  145.6520 C   0  0  0  0  0  2  0  0  0  0  0  0
  191.5570  177.0930  144.8090 N   0  0  0  0  0  2  0  0  0  0  0  0
  191.7180  178.0270  143.7070 C   0  0  0  0  0  2  0  0  0  0  0  0
  190.9440  179.2980  143.9970 C   0  0  0  0  0  1  0  0  0  0  0  0
  188.7470  178.6880  138.9780 C   0  0  0  0  0  1  0  0  0  0  0  0
  188.9600  178.3490  140.4520 C   0  0  2  0  0  3  0  0  0  0  0  0
  190.2760  177.9470  140.7790 O   0  0  0  0  0  0  0  0  0  0  0  0
  190.7100  176.9770  139.8620 C   0  0  0  0  0  1  0  0  0  0  0  0
  1  2  1  0  0  0  0
  2 14  1  0  0  0  0
  2  9  1  1  0  0  0
  3  5  1  0  0  0  0
  4  1  2  0  0  0  0
  6 23  1  1  0  0  0
  6  4  1  0  0  0  0
  7  8  2  0  0  0  0
  7 12  1  0  0  0  0
  9 13  2  0  0  0  0
 10  3  1  1  0  0  0
 10  1  1  0  0  0  0
 11  6  1  0  0  0  0
 11 10  1  0  0  0  0
 13 12  1  0  0  0  0
 14  5  1  6  0  0  0
 14  7  1  0  0  0  0
 16 13  1  6  0  0  0
 16 15  1  0  0  0  0
 17 18  1  6  0  0  0
 17 16  1  0  0  0  0
 17 15  1  0  0  0  0
 19 18  1  0  0  0  0
 20 21  1  0  0  0  0
 20 19  1  0  0  0  0
 23 22  1  6  0  0  0
 23 24  1  0  0  0  0
 25 24  1  0  0  0  0
M  END
>  <MODEL>
9

>  <REMARK>
 VINA RESULT:      -7.5      2.322      5.214
  Name = 
  6 active torsions:
  status: ('A' for Active; 'I' for Inactive)
    1  A    between atoms: C_2  and  N_12
    2  A    between atoms: C_10  and  C_11
    3  A    between atoms: C_11  and  O_17
    4  A    between atoms: N_12  and  C_25
    5  A    between atoms: C_15  and  C_23
    6  A    between atoms: C_21  and  C_25
                            x       y       z     vdW  Elec       q    Type
                         _______ _______ _______ _____ _____    ______ ____

>  <TORSDO>
F 6

$$$$
