=
 OpenBabel10262423513D

 34 38  0  0  1  0  0  0  0  0999 V2000
  191.1230  173.8730  136.6690 C   0  0  0  0  0  0  0  0  0  0  0  0
  188.7030  173.7690  135.8770 C   0  0  2  0  0  3  0  0  0  0  0  0
  189.5300  175.4510  137.6050 C   0  0  0  0  0  0  0  0  0  0  0  0
  189.2890  178.7760  138.0650 C   0  0  0  0  0  2  0  0  0  0  0  0
  190.5060  172.5610  134.6310 C   0  0  0  0  0  2  0  0  0  0  0  0
  189.0990  172.4620  135.1920 C   0  0  0  0  0  2  0  0  0  0  0  0
  187.7660  176.8130  136.4720 C   0  0  0  0  0  2  0  0  0  0  0  0
  189.7970  174.3510  136.7580 C   0  0  0  0  0  0  0  0  0  0  0  0
  187.9090  179.2020  137.5740 C   0  0  0  0  0  2  0  0  0  0  0  0
  191.4830  172.7120  135.7880 C   0  0  0  0  0  2  0  0  0  0  0  0
  190.5690  175.9980  138.3960 C   0  0  0  0  0  0  0  0  0  0  0  0
  192.0950  174.4200  137.4420 N   0  0  0  0  0  0  0  0  0  0  0  0
  187.5520  173.5460  136.6130 F   0  0  0  0  0  0  0  0  0  0  0  0
  189.1640  177.9140  139.2310 N   0  0  0  0  0  2  0  0  0  0  0  0
  190.4120  177.1600  139.3670 C   0  0  1  0  0  3  0  0  0  0  0  0
  187.0590  178.0980  136.9160 C   0  0  2  0  0  3  0  0  0  0  0  0
  188.2300  176.0440  137.6180 N   0  0  0  0  0  2  0  0  0  0  0  0
  191.8490  175.4500  138.2860 C   0  0  0  0  0  3  0  0  0  0  0  0
  189.6970  176.3040  142.9680 C   0  0  2  0  0  3  0  0  0  0  0  0
  191.0710  176.3310  143.3250 O   0  0  0  0  0  0  0  0  0  0  0  0
  190.6470  176.7310  140.7520 N   0  0  2  0  0  0  0  0  0  0  0  0
  191.6470  177.5380  142.8780 C   0  0  0  0  0  2  0  0  0  0  0  0
  189.4190  176.8190  141.5460 C   0  0  0  0  0  2  0  0  0  0  0  0
  191.6910  177.5780  141.3440 C   0  0  0  0  0  2  0  0  0  0  0  0
  188.8480  177.0290  143.9950 C   0  0  0  0  0  1  0  0  0  0  0  0
  185.7070  177.8750  137.5910 C   0  0  0  0  0  2  0  0  0  0  0  0
  185.3670  178.9450  138.4680 O   0  0  0  0  0  0  0  0  0  0  0  0
  182.6150  178.7900  139.2090 C   0  0  0  0  0  1  0  0  0  0  0  0
  185.0550  178.7690  139.8210 C   0  0  0  0  0  0  0  0  0  0  0  0
  183.7100  178.6790  140.2140 C   0  0  0  0  0  0  0  0  0  0  0  0
  184.3900  178.3950  142.5220 C   0  0  0  0  0  3  0  0  0  0  0  0
  185.7300  178.4910  142.1410 C   0  0  0  0  0  3  0  0  0  0  0  0
  186.0610  178.6800  140.7960 C   0  0  0  0  0  3  0  0  0  0  0  0
  183.3830  178.4920  141.5600 C   0  0  0  0  0  3  0  0  0  0  0  0
  1  8  2  0  0  0  0
  1 12  1  0  0  0  0
  2 13  1  1  0  0  0
  2  8  1  0  0  0  0
  3 17  1  0  0  0  0
  3 11  2  0  0  0  0
  4 14  1  0  0  0  0
  5  6  1  0  0  0  0
  5 10  1  0  0  0  0
  6  2  1  0  0  0  0
  7 16  1  0  0  0  0
  7 17  1  0  0  0  0
  8  3  1  0  0  0  0
  9  4  1  0  0  0  0
 10  1  1  0  0  0  0
 12 18  2  0  0  0  0
 14 15  1  0  0  0  0
 15 11  1  6  0  0  0
 15 21  1  0  0  0  0
 16  9  1  0  0  0  0
 16 26  1  1  0  0  0
 18 11  1  0  0  0  0
 19 20  1  0  0  0  0
 19 25  1  1  0  0  0
 21 24  1  1  0  0  0
 21 23  1  0  0  0  0
 22 20  1  0  0  0  0
 23 19  1  0  0  0  0
 24 22  1  0  0  0  0
 26 27  1  0  0  0  0
 27 29  1  0  0  0  0
 28 30  1  0  0  0  0
 29 30  2  0  0  0  0
 29 33  1  0  0  0  0
 30 34  1  0  0  0  0
 32 31  1  0  0  0  0
 33 32  2  0  0  0  0
 34 31  2  0  0  0  0
M  END
>  <MODEL>
1

>  <REMARK>
 VINA RESULT:      -7.8      0.000      0.000
  Name = 
  4 active torsions:
  status: ('A' for Active; 'I' for Inactive)
    1  A    between atoms: O_3  and  C_13
    2  A    between atoms: O_3  and  C_17
    3  A    between atoms: N_12  and  C_28
    4  A    between atoms: C_17  and  C_29
                            x       y       z     vdW  Elec       q    Type
                         _______ _______ _______ _____ _____    ______ ____

>  <TORSDO>
F 4

$$$$
=
 OpenBabel10262423513D

 34 38  0  0  1  0  0  0  0  0999 V2000
  193.5150  175.6620  138.0040 C   0  0  0  0  0  0  0  0  0  0  0  0
  191.8650  174.3520  136.5700 C   0  0  2  0  0  3  0  0  0  0  0  0
  191.1390  175.9190  138.4430 C   0  0  0  0  0  0  0  0  0  0  0  0
  188.9230  178.4290  138.7880 C   0  0  0  0  0  2  0  0  0  0  0  0
  194.2640  174.5620  135.8870 C   0  0  0  0  0  2  0  0  0  0  0  0
  193.0900  173.6110  136.0340 C   0  0  0  0  0  2  0  0  0  0  0  0
  189.2350  176.2230  136.8520 C   0  0  0  0  0  2  0  0  0  0  0  0
  192.1800  175.3010  137.7150 C   0  0  0  0  0  0  0  0  0  0  0  0
  187.7110  178.0830  137.9280 C   0  0  0  0  0  2  0  0  0  0  0  0
  194.6720  175.0510  137.2690 C   0  0  0  0  0  2  0  0  0  0  0  0
  191.4520  176.8230  139.4890 C   0  0  0  0  0  0  0  0  0  0  0  0
  193.7790  176.5320  139.0120 N   0  0  0  0  0  0  0  0  0  0  0  0
  190.9230  173.4160  136.9580 F   0  0  0  0  0  0  0  0  0  0  0  0
  189.0520  177.4760  139.8810 N   0  0  0  0  0  2  0  0  0  0  0  0
  190.4320  177.5340  140.3660 C   0  0  1  0  0  3  0  0  0  0  0  0
  187.8360  176.8100  137.0690 C   0  0  2  0  0  3  0  0  0  0  0  0
  189.7770  175.6770  138.0880 N   0  0  0  0  0  2  0  0  0  0  0  0
  192.7960  177.1050  139.7440 C   0  0  0  0  0  3  0  0  0  0  0  0
  189.3810  176.5380  143.8470 C   0  0  2  0  0  3  0  0  0  0  0  0
  190.6920  176.6920  144.3680 O   0  0  0  0  0  0  0  0  0  0  0  0
  190.5410  177.1020  141.7660 N   0  0  2  0  0  0  0  0  0  0  0  0
  191.1950  177.9590  144.0050 C   0  0  0  0  0  2  0  0  0  0  0  0
  189.2240  177.0530  142.4060 C   0  0  0  0  0  2  0  0  0  0  0  0
  191.4180  178.0350  142.4870 C   0  0  0  0  0  2  0  0  0  0  0  0
  188.3460  177.1550  144.7700 C   0  0  0  0  0  1  0  0  0  0  0  0
  186.7500  175.7720  137.3430 C   0  0  0  0  0  2  0  0  0  0  0  0
  187.1490  174.4660  136.9390 O   0  0  0  0  0  0  0  0  0  0  0  0
  187.7720  172.5850  134.8850 C   0  0  0  0  0  1  0  0  0  0  0  0
  186.2510  173.4190  136.7060 C   0  0  0  0  0  0  0  0  0  0  0  0
  186.5350  172.4730  135.7080 C   0  0  0  0  0  0  0  0  0  0  0  0
  184.4810  171.2940  136.2220 C   0  0  0  0  0  3  0  0  0  0  0  0
  184.1870  172.2350  137.2110 C   0  0  0  0  0  3  0  0  0  0  0  0
  185.0660  173.2950  137.4500 C   0  0  0  0  0  3  0  0  0  0  0  0
  185.6520  171.4150  135.4710 C   0  0  0  0  0  3  0  0  0  0  0  0
  1 12  1  0  0  0  0
  2 13  1  1  0  0  0
  2  8  1  0  0  0  0
  3 11  2  0  0  0  0
  4 14  1  0  0  0  0
  5  6  1  0  0  0  0
  5 10  1  0  0  0  0
  6  2  1  0  0  0  0
  7 16  1  0  0  0  0
  7 17  1  0  0  0  0
  8  1  2  0  0  0  0
  8  3  1  0  0  0  0
  9  4  1  0  0  0  0
 10  1  1  0  0  0  0
 11 18  1  0  0  0  0
 12 18  2  0  0  0  0
 14 15  1  0  0  0  0
 15 11  1  6  0  0  0
 15 21  1  0  0  0  0
 16 26  1  1  0  0  0
 16  9  1  0  0  0  0
 17  3  1  0  0  0  0
 19 20  1  0  0  0  0
 19 25  1  1  0  0  0
 21 23  1  1  0  0  0
 21 24  1  0  0  0  0
 22 20  1  0  0  0  0
 23 19  1  0  0  0  0
 24 22  1  0  0  0  0
 27 26  1  0  0  0  0
 28 30  1  0  0  0  0
 29 27  1  0  0  0  0
 29 33  1  0  0  0  0
 30 29  2  0  0  0  0
 31 32  1  0  0  0  0
 32 33  2  0  0  0  0
 34 30  1  0  0  0  0
 34 31  2  0  0  0  0
M  END
>  <MODEL>
2

>  <REMARK>
 VINA RESULT:      -7.0      2.587      4.368
  Name = 
  4 active torsions:
  status: ('A' for Active; 'I' for Inactive)
    1  A    between atoms: O_3  and  C_13
    2  A    between atoms: O_3  and  C_17
    3  A    between atoms: N_12  and  C_28
    4  A    between atoms: C_17  and  C_29
                            x       y       z     vdW  Elec       q    Type
                         _______ _______ _______ _____ _____    ______ ____

>  <TORSDO>
F 4

$$$$
=
 OpenBabel10262423513D

 34 38  0  0  1  0  0  0  0  0999 V2000
  193.5540  175.4840  137.7550 C   0  0  0  0  0  0  0  0  0  0  0  0
  191.9410  174.4600  136.0680 C   0  0  2  0  0  3  0  0  0  0  0  0
  191.1850  175.9850  137.9650 C   0  0  0  0  0  0  0  0  0  0  0  0
  189.2270  178.7060  138.2600 C   0  0  0  0  0  2  0  0  0  0  0  0
  194.4100  174.4350  135.6530 C   0  0  0  0  0  2  0  0  0  0  0  0
  193.1310  173.6180  135.6090 C   0  0  0  0  0  2  0  0  0  0  0  0
  189.5130  176.6000  136.2120 C   0  0  0  0  0  2  0  0  0  0  0  0
  192.2280  175.2960  137.3050 C   0  0  0  0  0  0  0  0  0  0  0  0
  188.0870  178.5530  137.2570 C   0  0  0  0  0  2  0  0  0  0  0  0
  194.7130  174.7900  137.1010 C   0  0  0  0  0  2  0  0  0  0  0  0
  191.4760  176.7810  139.0990 C   0  0  0  0  0  0  0  0  0  0  0  0
  193.7970  176.2550  138.8450 N   0  0  0  0  0  0  0  0  0  0  0  0
  190.8670  173.6160  136.2880 F   0  0  0  0  0  0  0  0  0  0  0  0
  189.1320  177.6800  139.2890 N   0  0  0  0  0  2  0  0  0  0  0  0
  190.4490  177.5510  139.9160 C   0  0  1  0  0  3  0  0  0  0  0  0
  188.1700  177.3290  136.3260 C   0  0  2  0  0  3  0  0  0  0  0  0
  189.8530  175.9220  137.4550 N   0  0  0  0  0  2  0  0  0  0  0  0
  192.8060  176.8920  139.5120 C   0  0  0  0  0  3  0  0  0  0  0  0
  188.9090  176.2590  143.1060 C   0  0  2  0  0  3  0  0  0  0  0  0
  190.1080  176.4380  143.8450 O   0  0  0  0  0  0  0  0  0  0  0  0
  190.3560  177.0260  141.2850 N   0  0  2  0  0  0  0  0  0  0  0  0
  190.5860  177.7500  143.6500 C   0  0  0  0  0  2  0  0  0  0  0  0
  188.9570  176.8670  141.6950 C   0  0  0  0  0  2  0  0  0  0  0  0
  191.0470  177.9450  142.1980 C   0  0  0  0  0  2  0  0  0  0  0  0
  187.7050  176.7570  143.8820 C   0  0  0  0  0  1  0  0  0  0  0  0
  186.9550  176.4070  136.4110 C   0  0  0  0  0  2  0  0  0  0  0  0
  186.1020  176.7490  137.4980 O   0  0  0  0  0  0  0  0  0  0  0  0
  185.0520  178.6100  139.3910 C   0  0  0  0  0  1  0  0  0  0  0  0
  184.7800  177.1800  137.3400 C   0  0  0  0  0  0  0  0  0  0  0  0
  184.2400  178.1030  138.2500 C   0  0  0  0  0  0  0  0  0  0  0  0
  182.1390  178.0830  137.0420 C   0  0  0  0  0  3  0  0  0  0  0  0
  182.6660  177.1590  136.1370 C   0  0  0  0  0  3  0  0  0  0  0  0
  183.9790  176.7070  136.2870 C   0  0  0  0  0  3  0  0  0  0  0  0
  182.9240  178.5510  138.0980 C   0  0  0  0  0  3  0  0  0  0  0  0
  1 12  1  0  0  0  0
  2 13  1  1  0  0  0
  2  8  1  0  0  0  0
  3 11  2  0  0  0  0
  4 14  1  0  0  0  0
  5 10  1  0  0  0  0
  6  5  1  0  0  0  0
  6  2  1  0  0  0  0
  7 16  1  0  0  0  0
  7 17  1  0  0  0  0
  8  1  2  0  0  0  0
  8  3  1  0  0  0  0
  9  4  1  0  0  0  0
 10  1  1  0  0  0  0
 11 18  1  0  0  0  0
 12 18  2  0  0  0  0
 14 15  1  0  0  0  0
 15 11  1  6  0  0  0
 15 21  1  0  0  0  0
 16 26  1  1  0  0  0
 16  9  1  0  0  0  0
 17  3  1  0  0  0  0
 19 20  1  0  0  0  0
 19 25  1  1  0  0  0
 21 23  1  1  0  0  0
 21 24  1  0  0  0  0
 22 20  1  0  0  0  0
 23 19  1  0  0  0  0
 24 22  1  0  0  0  0
 26 27  1  0  0  0  0
 29 27  1  0  0  0  0
 29 30  1  0  0  0  0
 30 28  1  0  0  0  0
 31 34  1  0  0  0  0
 32 33  1  0  0  0  0
 32 31  2  0  0  0  0
 33 29  2  0  0  0  0
 34 30  2  0  0  0  0
M  END
>  <MODEL>
3

>  <REMARK>
 VINA RESULT:      -7.0      1.835      2.873
  Name = 
  4 active torsions:
  status: ('A' for Active; 'I' for Inactive)
    1  A    between atoms: O_3  and  C_13
    2  A    between atoms: O_3  and  C_17
    3  A    between atoms: N_12  and  C_28
    4  A    between atoms: C_17  and  C_29
                            x       y       z     vdW  Elec       q    Type
                         _______ _______ _______ _____ _____    ______ ____

>  <TORSDO>
F 4

$$$$
=
 OpenBabel10262423513D

 34 38  0  0  1  0  0  0  0  0999 V2000
  186.2430  178.5120  140.2630 C   0  0  0  0  0  0  0  0  0  0  0  0
  186.7940  177.9220  142.6800 C   0  0  2  0  0  3  0  0  0  0  0  0
  188.3180  177.3350  140.7240 C   0  0  0  0  0  0  0  0  0  0  0  0
  191.5900  177.6720  140.0090 C   0  0  0  0  0  2  0  0  0  0  0  0
  184.9730  179.5550  142.1470 C   0  0  0  0  0  2  0  0  0  0  0  0
  185.3630  178.3590  142.9960 C   0  0  0  0  0  2  0  0  0  0  0  0
  190.0230  177.7270  142.5100 C   0  0  0  0  0  2  0  0  0  0  0  0
  187.1070  177.8920  141.1930 C   0  0  0  0  0  0  0  0  0  0  0  0
  192.3590  177.4900  141.3140 C   0  0  0  0  0  2  0  0  0  0  0  0
  184.9410  179.1290  140.6870 C   0  0  0  0  0  2  0  0  0  0  0  0
  188.6050  177.3410  139.3370 C   0  0  0  0  0  0  0  0  0  0  0  0
  186.5490  178.5010  138.9410 N   0  0  0  0  0  0  0  0  0  0  0  0
  187.0070  176.6790  143.2480 F   0  0  0  0  0  0  0  0  0  0  0  0
  190.9330  176.4280  139.6350 N   0  0  0  0  0  2  0  0  0  0  0  0
  189.8550  176.7540  138.6990 C   0  0  1  0  0  3  0  0  0  0  0  0
  191.5010  177.3280  142.5830 C   0  0  2  0  0  3  0  0  0  0  0  0
  189.2740  176.8200  141.6520 N   0  0  0  0  0  2  0  0  0  0  0  0
  187.6870  177.9390  138.4700 C   0  0  0  0  0  3  0  0  0  0  0  0
  190.2740  173.5400  136.7710 C   0  0  2  0  0  3  0  0  0  0  0  0
  189.1120  173.7710  135.9890 O   0  0  0  0  0  0  0  0  0  0  0  0
  189.5240  175.6190  137.8270 N   0  0  2  0  0  0  0  0  0  0  0  0
  189.1720  175.0640  135.4300 C   0  0  0  0  0  2  0  0  0  0  0  0
  190.6830  174.7430  137.6370 C   0  0  0  0  0  2  0  0  0  0  0  0
  189.0630  176.1310  136.5300 C   0  0  0  0  0  2  0  0  0  0  0  0
  191.4280  173.0590  135.9130 C   0  0  0  0  0  1  0  0  0  0  0  0
  191.7700  176.0340  143.3480 C   0  0  0  0  0  2  0  0  0  0  0  0
  191.9820  176.2700  144.7360 O   0  0  0  0  0  0  0  0  0  0  0  0
  192.3590  175.7890  147.5240 C   0  0  0  0  0  1  0  0  0  0  0  0
  190.9690  176.6620  145.6190 C   0  0  0  0  0  0  0  0  0  0  0  0
  191.1310  176.4470  146.9970 C   0  0  0  0  0  0  0  0  0  0  0  0
  188.9680  177.4540  147.4210 C   0  0  0  0  0  3  0  0  0  0  0  0
  188.7960  177.6640  146.0510 C   0  0  0  0  0  3  0  0  0  0  0  0
  189.7900  177.2680  145.1540 C   0  0  0  0  0  3  0  0  0  0  0  0
  190.1330  176.8440  147.8920 C   0  0  0  0  0  3  0  0  0  0  0  0
  1 10  1  0  0  0  0
  1  8  1  0  0  0  0
  2  6  1  0  0  0  0
  2 13  1  6  0  0  0
  3  8  2  0  0  0  0
  3 17  1  0  0  0  0
  4  9  1  0  0  0  0
  5  6  1  0  0  0  0
  7 16  1  0  0  0  0
  8  2  1  0  0  0  0
  9 16  1  0  0  0  0
 10  5  1  0  0  0  0
 11  3  1  0  0  0  0
 12  1  2  0  0  0  0
 14  4  1  0  0  0  0
 15 11  1  1  0  0  0
 15 14  1  0  0  0  0
 16 26  1  6  0  0  0
 17  7  1  0  0  0  0
 18 12  1  0  0  0  0
 18 11  2  0  0  0  0
 19 25  1  6  0  0  0
 19 23  1  0  0  0  0
 20 19  1  0  0  0  0
 21 24  1  6  0  0  0
 21 15  1  0  0  0  0
 22 20  1  0  0  0  0
 22 24  1  0  0  0  0
 23 21  1  0  0  0  0
 26 27  1  0  0  0  0
 27 29  1  0  0  0  0
 29 30  1  0  0  0  0
 30 28  1  0  0  0  0
 30 34  2  0  0  0  0
 31 34  1  0  0  0  0
 32 31  2  0  0  0  0
 33 29  2  0  0  0  0
 33 32  1  0  0  0  0
M  END
>  <MODEL>
4

>  <REMARK>
 VINA RESULT:      -7.0      2.600      7.424
  Name = 
  4 active torsions:
  status: ('A' for Active; 'I' for Inactive)
    1  A    between atoms: O_3  and  C_13
    2  A    between atoms: O_3  and  C_17
    3  A    between atoms: N_12  and  C_28
    4  A    between atoms: C_17  and  C_29
                            x       y       z     vdW  Elec       q    Type
                         _______ _______ _______ _____ _____    ______ ____

>  <TORSDO>
F 4

$$$$
=
 OpenBabel10262423513D

 34 38  0  0  1  0  0  0  0  0999 V2000
  186.4430  178.4270  139.2920 C   0  0  0  0  0  0  0  0  0  0  0  0
  186.0620  178.1970  141.8010 C   0  0  2  0  0  3  0  0  0  0  0  0
  188.2390  177.5270  140.6590 C   0  0  0  0  0  0  0  0  0  0  0  0
  191.5180  178.0940  141.1590 C   0  0  0  0  0  2  0  0  0  0  0  0
  184.5080  179.5640  140.3930 C   0  0  0  0  0  2  0  0  0  0  0  0
  184.6000  178.5260  141.4960 C   0  0  0  0  0  2  0  0  0  0  0  0
  189.1190  178.3020  142.8660 C   0  0  0  0  0  2  0  0  0  0  0  0
  186.9160  178.0150  140.5570 C   0  0  0  0  0  0  0  0  0  0  0  0
  191.7420  178.1510  142.6670 C   0  0  0  0  0  2  0  0  0  0  0  0
  185.0510  178.9600  139.1070 C   0  0  0  0  0  2  0  0  0  0  0  0
  189.0300  177.3900  139.4920 C   0  0  0  0  0  0  0  0  0  0  0  0
  187.2280  178.2830  138.1940 N   0  0  0  0  0  0  0  0  0  0  0  0
  186.0990  177.0600  142.5890 F   0  0  0  0  0  0  0  0  0  0  0  0
  191.1090  176.7540  140.7620 N   0  0  0  0  0  2  0  0  0  0  0  0
  190.4540  176.8540  139.4560 C   0  0  1  0  0  3  0  0  0  0  0  0
  190.4750  178.0630  143.5390 C   0  0  2  0  0  3  0  0  0  0  0  0
  188.7930  177.2270  141.9400 N   0  0  0  0  0  2  0  0  0  0  0  0
  188.4840  177.7820  138.2670 C   0  0  0  0  0  3  0  0  0  0  0  0
  191.8870  174.0880  137.3330 C   0  0  2  0  0  3  0  0  0  0  0  0
  190.6080  173.5410  137.0510 O   0  0  0  0  0  0  0  0  0  0  0  0
  190.5290  175.5930  138.7070 N   0  0  2  0  0  0  0  0  0  0  0  0
  189.7550  174.5620  136.5830 C   0  0  0  0  0  2  0  0  0  0  0  0
  191.8320  175.4460  138.0530 C   0  0  0  0  0  2  0  0  0  0  0  0
  189.4570  175.5690  137.7030 C   0  0  0  0  0  2  0  0  0  0  0  0
  192.7440  174.1590  136.0830 C   0  0  0  0  0  1  0  0  0  0  0  0
  190.4910  176.9060  144.5360 C   0  0  0  0  0  2  0  0  0  0  0  0
  189.2160  176.7040  145.1380 O   0  0  0  0  0  0  0  0  0  0  0  0
  186.4920  177.4870  145.4710 C   0  0  0  0  0  1  0  0  0  0  0  0
  188.8370  177.2770  146.3570 C   0  0  0  0  0  0  0  0  0  0  0  0
  187.5010  177.6630  146.5530 C   0  0  0  0  0  0  0  0  0  0  0  0
  188.0330  178.4120  148.7950 C   0  0  0  0  0  3  0  0  0  0  0  0
  189.3650  178.0380  148.6050 C   0  0  0  0  0  3  0  0  0  0  0  0
  189.7660  177.4760  147.3910 C   0  0  0  0  0  3  0  0  0  0  0  0
  187.1040  178.2270  147.7700 C   0  0  0  0  0  3  0  0  0  0  0  0
  1  8  1  0  0  0  0
  2 13  1  6  0  0  0
  3 17  1  0  0  0  0
  4  9  1  0  0  0  0
  5  6  1  0  0  0  0
  6  2  1  0  0  0  0
  7 16  1  0  0  0  0
  8  3  2  0  0  0  0
  8  2  1  0  0  0  0
  9 16  1  0  0  0  0
 10  1  1  0  0  0  0
 10  5  1  0  0  0  0
 11  3  1  0  0  0  0
 12 18  1  0  0  0  0
 12  1  2  0  0  0  0
 14  4  1  0  0  0  0
 15 11  1  1  0  0  0
 15 14  1  0  0  0  0
 16 26  1  6  0  0  0
 17  7  1  0  0  0  0
 18 11  2  0  0  0  0
 19 25  1  6  0  0  0
 19 23  1  0  0  0  0
 20 19  1  0  0  0  0
 21 24  1  6  0  0  0
 21 15  1  0  0  0  0
 22 20  1  0  0  0  0
 22 24  1  0  0  0  0
 23 21  1  0  0  0  0
 26 27  1  0  0  0  0
 27 29  1  0  0  0  0
 28 30  1  0  0  0  0
 29 30  2  0  0  0  0
 29 33  1  0  0  0  0
 30 34  1  0  0  0  0
 32 31  1  0  0  0  0
 33 32  2  0  0  0  0
 34 31  2  0  0  0  0
M  END
>  <MODEL>
5

>  <REMARK>
 VINA RESULT:      -6.7      2.702      6.788
  Name = 
  4 active torsions:
  status: ('A' for Active; 'I' for Inactive)
    1  A    between atoms: O_3  and  C_13
    2  A    between atoms: O_3  and  C_17
    3  A    between atoms: N_12  and  C_28
    4  A    between atoms: C_17  and  C_29
                            x       y       z     vdW  Elec       q    Type
                         _______ _______ _______ _____ _____    ______ ____

>  <TORSDO>
F 4

$$$$
=
 OpenBabel10262423513D

 34 38  0  0  1  0  0  0  0  0999 V2000
  183.0310  175.3440  135.6980 C   0  0  0  0  0  0  0  0  0  0  0  0
  181.6660  174.8950  137.8030 C   0  0  2  0  0  3  0  0  0  0  0  0
  183.6270  176.5210  137.7390 C   0  0  0  0  0  0  0  0  0  0  0  0
  184.1850  179.6920  138.7190 C   0  0  0  0  0  2  0  0  0  0  0  0
  180.8390  174.1480  135.5610 C   0  0  0  0  0  2  0  0  0  0  0  0
  181.0320  173.7500  137.0130 C   0  0  0  0  0  2  0  0  0  0  0  0
  182.1690  177.6550  139.4230 C   0  0  0  0  0  2  0  0  0  0  0  0
  182.8160  175.5720  137.0750 C   0  0  0  0  0  0  0  0  0  0  0  0
  183.3940  179.9140  140.0040 C   0  0  0  0  0  2  0  0  0  0  0  0
  182.2060  174.3550  134.9260 C   0  0  0  0  0  2  0  0  0  0  0  0
  184.6770  177.1620  137.0370 C   0  0  0  0  0  0  0  0  0  0  0  0
  184.0450  175.9770  135.0560 N   0  0  0  0  0  0  0  0  0  0  0  0
  182.0850  174.4030  139.0260 F   0  0  0  0  0  0  0  0  0  0  0  0
  185.2400  178.7120  138.9400 N   0  0  0  0  0  2  0  0  0  0  0  0
  185.6380  178.1790  137.6350 C   0  0  1  0  0  3  0  0  0  0  0  0
  182.4920  178.7470  140.4480 C   0  0  2  0  0  3  0  0  0  0  0  0
  183.3520  176.8720  139.0960 N   0  0  0  0  0  2  0  0  0  0  0  0
  184.8550  176.8610  135.6850 C   0  0  0  0  0  3  0  0  0  0  0  0
  188.9730  177.0490  138.9820 C   0  0  2  0  0  3  0  0  0  0  0  0
  189.5920  177.1090  137.7060 O   0  0  0  0  0  0  0  0  0  0  0  0
  187.0140  177.6670  137.6480 N   0  0  2  0  0  0  0  0  0  0  0  0
  189.3390  178.3670  137.1210 C   0  0  0  0  0  2  0  0  0  0  0  0
  187.5570  177.6490  139.0100 C   0  0  0  0  0  2  0  0  0  0  0  0
  187.8480  178.5140  136.7850 C   0  0  0  0  0  2  0  0  0  0  0  0
  189.8550  177.6660  140.0520 C   0  0  0  0  0  1  0  0  0  0  0  0
  182.8030  178.2260  141.8500 C   0  0  0  0  0  2  0  0  0  0  0  0
  184.1370  178.5280  142.2460 O   0  0  0  0  0  0  0  0  0  0  0  0
  186.8130  177.6700  142.7440 C   0  0  0  0  0  1  0  0  0  0  0  0
  184.5810  178.4790  143.5730 C   0  0  0  0  0  0  0  0  0  0  0  0
  185.8960  178.0710  143.8470 C   0  0  0  0  0  0  0  0  0  0  0  0
  185.5130  178.3880  146.2190 C   0  0  0  0  0  3  0  0  0  0  0  0
  184.2010  178.7880  145.9550 C   0  0  0  0  0  3  0  0  0  0  0  0
  183.7360  178.8310  144.6380 C   0  0  0  0  0  3  0  0  0  0  0  0
  186.3570  178.0270  145.1670 C   0  0  0  0  0  3  0  0  0  0  0  0
  1  8  1  0  0  0  0
  2 13  1  1  0  0  0
  3 17  1  0  0  0  0
  4 14  1  0  0  0  0
  4  9  1  0  0  0  0
  5  6  1  0  0  0  0
  6  2  1  0  0  0  0
  7 16  1  0  0  0  0
  8  3  2  0  0  0  0
  8  2  1  0  0  0  0
  9 16  1  0  0  0  0
 10  5  1  0  0  0  0
 10  1  1  0  0  0  0
 11  3  1  0  0  0  0
 12 18  1  0  0  0  0
 12  1  2  0  0  0  0
 15 11  1  1  0  0  0
 15 21  1  0  0  0  0
 15 14  1  0  0  0  0
 16 26  1  1  0  0  0
 17  7  1  0  0  0  0
 18 11  2  0  0  0  0
 19 23  1  0  0  0  0
 19 25  1  1  0  0  0
 20 19  1  0  0  0  0
 21 24  1  6  0  0  0
 21 23  1  0  0  0  0
 22 20  1  0  0  0  0
 24 22  1  0  0  0  0
 26 27  1  0  0  0  0
 27 29  1  0  0  0  0
 28 30  1  0  0  0  0
 29 30  2  0  0  0  0
 29 33  1  0  0  0  0
 30 34  1  0  0  0  0
 32 31  1  0  0  0  0
 33 32  2  0  0  0  0
 34 31  2  0  0  0  0
M  END
>  <MODEL>
6

>  <REMARK>
 VINA RESULT:      -6.7      3.437      6.010
  Name = 
  4 active torsions:
  status: ('A' for Active; 'I' for Inactive)
    1  A    between atoms: O_3  and  C_13
    2  A    between atoms: O_3  and  C_17
    3  A    between atoms: N_12  and  C_28
    4  A    between atoms: C_17  and  C_29
                            x       y       z     vdW  Elec       q    Type
                         _______ _______ _______ _____ _____    ______ ____

>  <TORSDO>
F 4

$$$$
=
 OpenBabel10262423513D

 34 38  0  0  1  0  0  0  0  0999 V2000
  182.5850  178.4560  138.0820 C   0  0  0  0  0  0  0  0  0  0  0  0
  183.1540  178.6250  140.5600 C   0  0  2  0  0  3  0  0  0  0  0  0
  184.7800  177.7200  138.8190 C   0  0  0  0  0  0  0  0  0  0  0  0
  187.9980  178.2540  137.9930 C   0  0  0  0  0  2  0  0  0  0  0  0
  181.1560  179.8080  139.6250 C   0  0  0  0  0  2  0  0  0  0  0  0
  181.6740  178.9490  140.7640 C   0  0  0  0  0  2  0  0  0  0  0  0
  186.3850  178.7960  140.4040 C   0  0  0  0  0  2  0  0  0  0  0  0
  183.4990  178.2280  139.1340 C   0  0  0  0  0  0  0  0  0  0  0  0
  188.7570  178.5340  139.2860 C   0  0  0  0  0  2  0  0  0  0  0  0
  181.2080  178.9980  138.3390 C   0  0  0  0  0  2  0  0  0  0  0  0
  185.0920  177.3810  137.4790 C   0  0  0  0  0  0  0  0  0  0  0  0
  182.9170  178.1210  136.8090 N   0  0  0  0  0  0  0  0  0  0  0  0
  183.5080  177.6220  141.4450 F   0  0  0  0  0  0  0  0  0  0  0  0
  187.5090  176.8830  137.9840 N   0  0  0  0  0  2  0  0  0  0  0  0
  186.4190  176.8020  137.0090 C   0  0  1  0  0  3  0  0  0  0  0  0
  187.8990  178.6210  140.5630 C   0  0  2  0  0  3  0  0  0  0  0  0
  185.7720  177.6020  139.8390 N   0  0  0  0  0  2  0  0  0  0  0  0
  184.1260  177.5980  136.4950 C   0  0  0  0  0  3  0  0  0  0  0  0
  186.6700  173.0470  136.7920 C   0  0  2  0  0  3  0  0  0  0  0  0
  186.2980  173.0260  135.4220 O   0  0  0  0  0  0  0  0  0  0  0  0
  186.2490  175.4400  136.4870 N   0  0  2  0  0  0  0  0  0  0  0  0
  187.1040  173.9350  134.7050 C   0  0  0  0  0  2  0  0  0  0  0  0
  186.9260  174.4600  137.3410 C   0  0  0  0  0  2  0  0  0  0  0  0
  186.7910  175.3790  135.1240 C   0  0  0  0  0  2  0  0  0  0  0  0
  187.8490  172.1290  137.0560 C   0  0  0  0  0  1  0  0  0  0  0  0
  188.3100  177.6290  141.6500 C   0  0  0  0  0  2  0  0  0  0  0  0
  187.2790  177.4390  142.6140 O   0  0  0  0  0  0  0  0  0  0  0  0
  185.1330  178.3910  144.2360 C   0  0  0  0  0  1  0  0  0  0  0  0
  187.4830  177.5290  143.9950 C   0  0  0  0  0  0  0  0  0  0  0  0
  186.4420  177.9840  144.8200 C   0  0  0  0  0  0  0  0  0  0  0  0
  187.8500  177.7040  146.7720 C   0  0  0  0  0  3  0  0  0  0  0  0
  188.8930  177.2570  145.9590 C   0  0  0  0  0  3  0  0  0  0  0  0
  188.7120  177.1730  144.5760 C   0  0  0  0  0  3  0  0  0  0  0  0
  186.6280  178.0690  146.2030 C   0  0  0  0  0  3  0  0  0  0  0  0
  1 10  1  0  0  0  0
  1  8  1  0  0  0  0
  2  6  1  0  0  0  0
  2 13  1  1  0  0  0
  3  8  2  0  0  0  0
  3 17  1  0  0  0  0
  4  9  1  0  0  0  0
  5  6  1  0  0  0  0
  7 16  1  0  0  0  0
  8  2  1  0  0  0  0
  9 16  1  0  0  0  0
 10  5  1  0  0  0  0
 11  3  1  0  0  0  0
 12  1  2  0  0  0  0
 14  4  1  0  0  0  0
 15 11  1  1  0  0  0
 15 14  1  0  0  0  0
 16 26  1  6  0  0  0
 17  7  1  0  0  0  0
 18 12  1  0  0  0  0
 18 11  2  0  0  0  0
 19 25  1  6  0  0  0
 19 23  1  0  0  0  0
 20 19  1  0  0  0  0
 21 24  1  6  0  0  0
 21 15  1  0  0  0  0
 21 23  1  0  0  0  0
 22 24  1  0  0  0  0
 22 20  1  0  0  0  0
 26 27  1  0  0  0  0
 27 29  1  0  0  0  0
 28 30  1  0  0  0  0
 29 33  2  0  0  0  0
 29 30  1  0  0  0  0
 30 34  2  0  0  0  0
 32 31  2  0  0  0  0
 33 32  1  0  0  0  0
 34 31  1  0  0  0  0
M  END
>  <MODEL>
7

>  <REMARK>
 VINA RESULT:      -6.6      2.969      7.178
  Name = 
  4 active torsions:
  status: ('A' for Active; 'I' for Inactive)
    1  A    between atoms: O_3  and  C_13
    2  A    between atoms: O_3  and  C_17
    3  A    between atoms: N_12  and  C_28
    4  A    between atoms: C_17  and  C_29
                            x       y       z     vdW  Elec       q    Type
                         _______ _______ _______ _____ _____    ______ ____

>  <TORSDO>
F 4

$$$$
=
 OpenBabel10262423513D

 34 38  0  0  1  0  0  0  0  0999 V2000
  189.4500  176.7910  135.2270 C   0  0  0  0  0  0  0  0  0  0  0  0
  187.9260  176.6390  137.2640 C   0  0  2  0  0  3  0  0  0  0  0  0
  190.4380  176.2230  137.3730 C   0  0  0  0  0  0  0  0  0  0  0  0
  192.9910  177.2700  139.2990 C   0  0  0  0  0  2  0  0  0  0  0  0
  187.1220  177.7000  135.1450 C   0  0  0  0  0  2  0  0  0  0  0  0
  186.7700  176.7430  136.2690 C   0  0  0  0  0  2  0  0  0  0  0  0
  190.0590  177.2260  139.6310 C   0  0  0  0  0  2  0  0  0  0  0  0
  189.2890  176.5150  136.6030 C   0  0  0  0  0  0  0  0  0  0  0  0
  192.4510  177.4340  140.7160 C   0  0  0  0  0  2  0  0  0  0  0  0
  188.2770  177.1140  134.3470 C   0  0  0  0  0  2  0  0  0  0  0  0
  191.7040  176.1390  136.7430 C   0  0  0  0  0  0  0  0  0  0  0  0
  190.6780  176.7030  134.6560 N   0  0  0  0  0  0  0  0  0  0  0  0
  187.6890  175.5600  138.0980 F   0  0  0  0  0  0  0  0  0  0  0  0
  192.9600  175.8680  138.9090 N   0  0  0  0  0  2  0  0  0  0  0  0
  193.0120  175.8080  137.4470 C   0  0  1  0  0  3  0  0  0  0  0  0
  190.9360  177.2140  140.8880 C   0  0  2  0  0  3  0  0  0  0  0  0
  190.3290  176.0690  138.7880 N   0  0  0  0  0  2  0  0  0  0  0  0
  191.7830  176.3880  135.3710 C   0  0  0  0  0  3  0  0  0  0  0  0
  194.9580  172.5780  137.4520 C   0  0  2  0  0  3  0  0  0  0  0  0
  194.8750  172.4390  136.0420 O   0  0  0  0  0  0  0  0  0  0  0  0
  193.5650  174.5330  136.9690 N   0  0  2  0  0  0  0  0  0  0  0  0
  195.2950  173.6370  135.4270 C   0  0  0  0  0  2  0  0  0  0  0  0
  194.4540  173.9360  137.9690 C   0  0  0  0  0  2  0  0  0  0  0  0
  194.2990  174.7690  135.7190 C   0  0  0  0  0  2  0  0  0  0  0  0
  196.3600  172.2830  137.9520 C   0  0  0  0  0  1  0  0  0  0  0  0
  190.5810  176.1230  141.8960 C   0  0  0  0  0  2  0  0  0  0  0  0
  190.8060  176.5440  143.2370 O   0  0  0  0  0  0  0  0  0  0  0  0
  191.4360  176.7660  146.0120 C   0  0  0  0  0  1  0  0  0  0  0  0
  189.7790  176.8850  144.1250 C   0  0  0  0  0  0  0  0  0  0  0  0
  190.0610  177.0110  145.4940 C   0  0  0  0  0  0  0  0  0  0  0  0
  187.7480  177.5860  145.9310 C   0  0  0  0  0  3  0  0  0  0  0  0
  187.4570  177.4550  144.5710 C   0  0  0  0  0  3  0  0  0  0  0  0
  188.4670  177.1030  143.6720 C   0  0  0  0  0  3  0  0  0  0  0  0
  189.0470  177.3620  146.3910 C   0  0  0  0  0  3  0  0  0  0  0  0
  1  8  1  0  0  0  0
  2 13  1  1  0  0  0
  3 17  1  0  0  0  0
  4  9  1  0  0  0  0
  5  6  1  0  0  0  0
  6  2  1  0  0  0  0
  7 16  1  0  0  0  0
  8  2  1  0  0  0  0
  8  3  2  0  0  0  0
  9 16  1  0  0  0  0
 10  5  1  0  0  0  0
 10  1  1  0  0  0  0
 11  3  1  0  0  0  0
 12  1  2  0  0  0  0
 12 18  1  0  0  0  0
 14  4  1  0  0  0  0
 15 11  1  6  0  0  0
 15 14  1  0  0  0  0
 16 26  1  6  0  0  0
 17  7  1  0  0  0  0
 18 11  2  0  0  0  0
 19 25  1  6  0  0  0
 19 23  1  0  0  0  0
 20 19  1  0  0  0  0
 21 24  1  6  0  0  0
 21 15  1  0  0  0  0
 21 23  1  0  0  0  0
 22 24  1  0  0  0  0
 22 20  1  0  0  0  0
 26 27  1  0  0  0  0
 27 29  1  0  0  0  0
 29 30  1  0  0  0  0
 30 28  1  0  0  0  0
 30 34  2  0  0  0  0
 31 34  1  0  0  0  0
 32 31  2  0  0  0  0
 33 29  2  0  0  0  0
 33 32  1  0  0  0  0
M  END
>  <MODEL>
8

>  <REMARK>
 VINA RESULT:      -6.5      3.100      5.998
  Name = 
  4 active torsions:
  status: ('A' for Active; 'I' for Inactive)
    1  A    between atoms: O_3  and  C_13
    2  A    between atoms: O_3  and  C_17
    3  A    between atoms: N_12  and  C_28
    4  A    between atoms: C_17  and  C_29
                            x       y       z     vdW  Elec       q    Type
                         _______ _______ _______ _____ _____    ______ ____

>  <TORSDO>
F 4

$$$$
=
 OpenBabel10262423513D

 34 38  0  0  1  0  0  0  0  0999 V2000
  180.8520  177.4120  140.3220 C   0  0  0  0  0  0  0  0  0  0  0  0
  183.0530  178.3570  141.1920 C   0  0  2  0  0  3  0  0  0  0  0  0
  182.8980  176.8700  139.1280 C   0  0  0  0  0  0  0  0  0  0  0  0
  184.0440  176.9800  135.9650 C   0  0  0  0  0  2  0  0  0  0  0  0
  180.8650  179.2480  142.0190 C   0  0  0  0  0  2  0  0  0  0  0  0
  182.2540  178.7870  142.4220 C   0  0  0  0  0  2  0  0  0  0  0  0
  184.8090  178.3410  138.4700 C   0  0  0  0  0  2  0  0  0  0  0  0
  182.2570  177.5030  140.2170 C   0  0  0  0  0  0  0  0  0  0  0  0
  185.4200  177.6360  136.0060 C   0  0  0  0  0  2  0  0  0  0  0  0
  180.1030  178.0610  141.4500 C   0  0  0  0  0  2  0  0  0  0  0  0
  182.1350  176.1020  138.2140 C   0  0  0  0  0  0  0  0  0  0  0  0
  180.1520  176.6680  139.4280 N   0  0  0  0  0  0  0  0  0  0  0  0
  184.1840  177.6830  141.6190 F   0  0  0  0  0  0  0  0  0  0  0  0
  184.0760  175.7010  136.6600 N   0  0  0  0  0  2  0  0  0  0  0  0
  182.7000  175.3500  137.0180 C   0  0  1  0  0  3  0  0  0  0  0  0
  185.8720  178.1670  137.3790 C   0  0  2  0  0  3  0  0  0  0  0  0
  184.2990  177.0530  138.9180 N   0  0  0  0  0  2  0  0  0  0  0  0
  180.7530  176.0250  138.4000 C   0  0  0  0  0  3  0  0  0  0  0  0
  183.5180  171.6700  136.9710 C   0  0  2  0  0  3  0  0  0  0  0  0
  182.1540  171.2890  137.0720 O   0  0  0  0  0  0  0  0  0  0  0  0
  182.5260  173.9000  137.1710 N   0  0  2  0  0  0  0  0  0  0  0  0
  181.4050  171.9650  136.0870 C   0  0  0  0  0  2  0  0  0  0  0  0
  183.7230  173.1750  136.7350 C   0  0  0  0  0  2  0  0  0  0  0  0
  181.3630  173.4720  136.3820 C   0  0  0  0  0  2  0  0  0  0  0  0
  184.2430  170.8430  135.9260 C   0  0  0  0  0  1  0  0  0  0  0  0
  187.1890  177.5690  137.8690 C   0  0  0  0  0  2  0  0  0  0  0  0
  187.8570  178.4310  138.7850 O   0  0  0  0  0  0  0  0  0  0  0  0
  187.1180  178.7890  141.5180 C   0  0  0  0  0  1  0  0  0  0  0  0
  188.7380  177.9770  139.7740 C   0  0  0  0  0  0  0  0  0  0  0  0
  188.3960  178.1310  141.1270 C   0  0  0  0  0  0  0  0  0  0  0  0
  190.4700  177.0630  141.7840 C   0  0  0  0  0  3  0  0  0  0  0  0
  190.8210  176.9130  140.4410 C   0  0  0  0  0  3  0  0  0  0  0  0
  189.9600  177.3710  139.4400 C   0  0  0  0  0  3  0  0  0  0  0  0
  189.2610  177.6730  142.1260 C   0  0  0  0  0  3  0  0  0  0  0  0
  1 10  1  0  0  0  0
  2 13  1  1  0  0  0
  2  6  1  0  0  0  0
  3  8  2  0  0  0  0
  4  9  1  0  0  0  0
  4 14  1  0  0  0  0
  5  6  1  0  0  0  0
  7 17  1  0  0  0  0
  8  1  1  0  0  0  0
  8  2  1  0  0  0  0
  9 16  1  0  0  0  0
 10  5  1  0  0  0  0
 11 18  2  0  0  0  0
 11  3  1  0  0  0  0
 12  1  2  0  0  0  0
 15 14  1  1  0  0  0
 15 21  1  0  0  0  0
 15 11  1  0  0  0  0
 16 26  1  1  0  0  0
 16  7  1  0  0  0  0
 17  3  1  0  0  0  0
 18 12  1  0  0  0  0
 19 25  1  6  0  0  0
 19 20  1  0  0  0  0
 21 24  1  6  0  0  0
 22 24  1  0  0  0  0
 22 20  1  0  0  0  0
 23 19  1  0  0  0  0
 23 21  1  0  0  0  0
 26 27  1  0  0  0  0
 27 29  1  0  0  0  0
 29 30  1  0  0  0  0
 30 28  1  0  0  0  0
 30 34  2  0  0  0  0
 31 34  1  0  0  0  0
 32 31  2  0  0  0  0
 33 29  2  0  0  0  0
 33 32  1  0  0  0  0
M  END
>  <MODEL>
9

>  <REMARK>
 VINA RESULT:      -6.5      4.007      8.566
  Name = 
  4 active torsions:
  status: ('A' for Active; 'I' for Inactive)
    1  A    between atoms: O_3  and  C_13
    2  A    between atoms: O_3  and  C_17
    3  A    between atoms: N_12  and  C_28
    4  A    between atoms: C_17  and  C_29
                            x       y       z     vdW  Elec       q    Type
                         _______ _______ _______ _____ _____    ______ ____

>  <TORSDO>
F 4

$$$$
