=
 OpenBabel10272414313D

 43 49  0  0  1  0  0  0  0  0999 V2000
  186.6220  178.4470  138.2480 C   0  0  0  0  0  0  0  0  0  0  0  0
  184.7000  178.5110  145.6030 C   0  0  0  0  0  0  0  0  0  0  0  0
  186.4600  178.3750  136.9950 O   0  0  0  0  0  0  0  0  0  0  0  0
  183.2410  178.8260  140.7190 C   0  0  0  0  0  0  0  0  0  0  0  0
  185.4880  178.6150  139.0960 N   0  0  0  0  0  0  0  0  0  0  0  0
  183.4570  178.9060  143.5780 C   0  0  0  0  0  0  0  0  0  0  0  0
  185.8590  178.0690  144.7770 C   0  0  0  0  0  3  0  0  0  0  0  0
  184.8120  178.5040  147.0860 C   0  0  0  0  0  1  0  0  0  0  0  0
  184.7510  179.0650  142.8060 C   0  0  1  0  0  3  0  0  0  0  0  0
  183.5480  178.8450  145.0460 C   0  0  0  0  0  3  0  0  0  0  0  0
  185.8670  178.2640  143.4600 C   0  0  0  0  0  3  0  0  0  0  0  0
  185.6550  178.7420  140.5190 C   0  0  0  0  0  3  0  0  0  0  0  0
  184.5910  178.8200  141.3220 C   0  0  0  0  0  0  0  0  0  0  0  0
  182.1580  178.8700  141.5030 C   0  0  0  0  0  3  0  0  0  0  0  0
  183.1230  178.7740  139.2420 C   0  0  0  0  0  0  0  0  0  0  0  0
  184.2020  178.6620  138.5210 N   0  0  0  0  0  0  0  0  0  0  0  0
  182.2720  178.8720  142.9740 C   0  0  0  0  0  3  0  0  0  0  0  0
  187.9280  178.3480  138.8210 N   0  0  0  0  0  0  0  0  0  0  0  0
  188.3280  177.2840  139.4340 C   0  0  0  0  0  3  0  0  0  0  0  0
  190.5700  176.2680  139.2440 C   0  0  0  0  0  2  0  0  0  0  0  0
  189.5900  176.8180  141.4260 N   0  0  1  0  0  0  0  0  0  0  0  0
  192.2760  176.9240  141.5920 C   0  0  0  0  0  2  0  0  0  0  0  0
  189.6900  177.2300  140.0270 C   0  0  2  0  0  3  0  0  0  0  0  0
  191.9810  176.8310  139.0920 C   0  0  0  0  0  2  0  0  0  0  0  0
  190.8610  176.7930  142.2090 C   0  0  1  0  0  0  0  0  0  0  0  0
  190.0400  177.9920  142.2130 C   0  0  0  0  0  2  0  0  0  0  0  0
  192.4130  177.6880  140.2800 C   0  0  0  0  0  2  0  0  0  0  0  0
  190.7580  176.0900  143.4230 O   0  0  0  0  0  0  0  0  0  0  0  0
  190.8490  177.0470  144.4450 C   0  0  2  0  0  3  0  0  0  0  0  0
  188.8670  177.8050  147.3210 N   0  0  0  0  0  1  0  0  0  0  0  0
  191.0360  176.8710  146.8510 C   0  0  0  0  0  2  0  0  0  0  0  0
  189.5710  176.8600  146.4970 C   0  0  2  0  0  3  0  0  0  0  0  0
  191.7400  176.5300  145.5640 C   0  0  0  0  0  2  0  0  0  0  0  0
  189.4790  177.2750  145.0460 C   0  0  0  0  0  2  0  0  0  0  0  0
  181.8020  178.8040  138.5620 C   0  0  0  0  0  2  0  0  0  0  0  0
  180.4990  182.2430  138.2030 C   0  0  0  0  0  2  0  0  0  0  0  0
  180.5540  182.3060  136.7450 N   0  0  0  0  0  0  0  0  0  0  0  0
  180.6860  183.7510  134.9250 O   0  0  0  0  0  0  0  0  0  0  0  0
  180.9610  179.8180  136.6320 C   0  0  0  0  0  2  0  0  0  0  0  0
  180.6140  180.8120  138.7190 C   0  0  0  0  0  2  0  0  0  0  0  0
  181.5920  180.0910  137.9240 N   0  0  0  0  0  0  0  0  0  0  0  0
  180.6600  183.5990  136.1740 C   0  0  0  0  0  3  0  0  0  0  0  0
  180.6720  181.1160  135.8690 C   0  0  0  0  0  2  0  0  0  0  0  0
  1 18  1  0  0  0  0
  1  5  1  0  0  0  0
  2  8  1  0  0  0  0
  3  1  2  0  0  0  0
  4 13  1  0  0  0  0
  4 14  2  0  0  0  0
  5 12  1  0  0  0  0
  6 10  1  0  0  0  0
  7  2  1  0  0  0  0
  9 11  1  1  0  0  0
  9  6  1  0  0  0  0
 10  2  2  0  0  0  0
 11  7  2  0  0  0  0
 12 13  2  0  0  0  0
 13  9  1  0  0  0  0
 14 17  1  0  0  0  0
 15  4  1  0  0  0  0
 16  5  1  0  0  0  0
 16 15  2  0  0  0  0
 17  6  2  0  0  0  0
 18 19  2  0  0  0  0
 20 23  1  0  0  0  0
 21 25  1  0  0  0  0
 21 26  1  1  0  0  0
 22 25  1  0  0  0  0
 23 19  1  6  0  0  0
 23 21  1  0  0  0  0
 24 20  1  0  0  0  0
 24 27  1  0  0  0  0
 25 26  1  0  0  0  0
 25 28  1  1  0  0  0
 27 22  1  0  0  0  0
 29 28  1  6  0  0  0
 29 34  1  0  0  0  0
 29 33  1  0  0  0  0
 32 31  1  0  0  0  0
 32 30  1  1  0  0  0
 33 31  1  0  0  0  0
 34 32  1  0  0  0  0
 35 15  1  0  0  0  0
 36 40  1  0  0  0  0
 37 36  1  0  0  0  0
 38 42  2  0  0  0  0
 39 41  1  0  0  0  0
 41 35  1  0  0  0  0
 41 40  1  0  0  0  0
 42 37  1  0  0  0  0
 43 39  1  0  0  0  0
 43 37  1  0  0  0  0
M  END
>  <MODEL>
1

>  <REMARK>
 VINA RESULT:     -10.9      0.000      0.000
  Name = 
  6 active torsions:
  status: ('A' for Active; 'I' for Inactive)
    1  A    between atoms: C_1  and  C_34
    2  A    between atoms: C_1  and  N_35
    3  A    between atoms: C_2  and  N_6
    4  A    between atoms: C_11  and  O_14
    5  A    between atoms: C_12  and  C_17
    6  A    between atoms: O_14  and  C_22
                            x       y       z     vdW  Elec       q    Type
                         _______ _______ _______ _____ _____    ______ ____

>  <TORSDO>
F 6

$$$$
=
 OpenBabel10272414313D

 43 49  0  0  1  0  0  0  0  0999 V2000
  186.5690  178.3730  138.2170 C   0  0  0  0  0  0  0  0  0  0  0  0
  184.6310  178.5370  145.5670 C   0  0  0  0  0  0  0  0  0  0  0  0
  186.4100  178.2820  136.9650 O   0  0  0  0  0  0  0  0  0  0  0  0
  183.1810  178.7730  140.6760 C   0  0  0  0  0  0  0  0  0  0  0  0
  185.4320  178.5490  139.0610 N   0  0  0  0  0  0  0  0  0  0  0  0
  183.3910  178.8960  143.5340 C   0  0  0  0  0  0  0  0  0  0  0  0
  185.7940  178.0880  144.7500 C   0  0  0  0  0  3  0  0  0  0  0  0
  184.7410  178.5520  147.0500 C   0  0  0  0  0  1  0  0  0  0  0  0
  184.6850  179.0490  142.7620 C   0  0  1  0  0  3  0  0  0  0  0  0
  183.4790  178.8580  145.0020 C   0  0  0  0  0  3  0  0  0  0  0  0
  185.8040  178.2640  143.4310 C   0  0  0  0  0  3  0  0  0  0  0  0
  185.5960  178.6970  140.4820 C   0  0  0  0  0  3  0  0  0  0  0  0
  184.5300  178.7820  141.2820 C   0  0  0  0  0  0  0  0  0  0  0  0
  182.0970  178.8240  141.4570 C   0  0  0  0  0  3  0  0  0  0  0  0
  183.0670  178.6990  139.2000 C   0  0  0  0  0  0  0  0  0  0  0  0
  184.1470  178.5810  138.4820 N   0  0  0  0  0  0  0  0  0  0  0  0
  182.2070  178.8480  142.9280 C   0  0  0  0  0  3  0  0  0  0  0  0
  187.8740  178.2880  138.7940 N   0  0  0  0  0  0  0  0  0  0  0  0
  188.2520  177.2660  139.4870 C   0  0  0  0  0  3  0  0  0  0  0  0
  190.5050  176.2720  139.2980 C   0  0  0  0  0  2  0  0  0  0  0  0
  189.5180  176.8160  141.4790 N   0  0  1  0  0  0  0  0  0  0  0  0
  192.2030  176.9480  141.6460 C   0  0  0  0  0  2  0  0  0  0  0  0
  189.6140  177.2260  140.0800 C   0  0  2  0  0  3  0  0  0  0  0  0
  191.9090  176.8500  139.1460 C   0  0  0  0  0  2  0  0  0  0  0  0
  190.7890  176.8040  142.2630 C   0  0  1  0  0  0  0  0  0  0  0  0
  189.9560  177.9940  142.2650 C   0  0  0  0  0  2  0  0  0  0  0  0
  192.3330  177.7120  140.3330 C   0  0  0  0  0  2  0  0  0  0  0  0
  190.6930  176.1010  143.4770 O   0  0  0  0  0  0  0  0  0  0  0  0
  190.8200  177.0550  144.4990 C   0  0  2  0  0  3  0  0  0  0  0  0
  188.9530  177.7900  147.4560 N   0  0  0  0  0  1  0  0  0  0  0  0
  191.1070  176.8700  146.8950 C   0  0  0  0  0  2  0  0  0  0  0  0
  189.6290  176.8520  146.6010 C   0  0  2  0  0  3  0  0  0  0  0  0
  191.7600  176.5390  145.5790 C   0  0  0  0  0  2  0  0  0  0  0  0
  189.4750  177.2730  145.1560 C   0  0  0  0  0  2  0  0  0  0  0  0
  181.7470  178.7120  138.5170 C   0  0  0  0  0  2  0  0  0  0  0  0
  180.4210  176.5280  135.8480 C   0  0  0  0  0  2  0  0  0  0  0  0
  180.5310  175.2660  136.5750 N   0  0  0  0  0  0  0  0  0  0  0  0
  180.7180  172.9590  136.3280 O   0  0  0  0  0  0  0  0  0  0  0  0
  180.9700  176.5180  138.7220 C   0  0  0  0  0  2  0  0  0  0  0  0
  180.5310  177.7340  136.7750 C   0  0  0  0  0  2  0  0  0  0  0  0
  181.5480  177.4780  137.7800 N   0  0  0  0  0  0  0  0  0  0  0  0
  180.6450  174.0930  135.7870 C   0  0  0  0  0  3  0  0  0  0  0  0
  180.6960  175.1700  138.0450 C   0  0  0  0  0  2  0  0  0  0  0  0
  1 18  1  0  0  0  0
  1  5  1  0  0  0  0
  2  8  1  0  0  0  0
  3  1  2  0  0  0  0
  4 13  1  0  0  0  0
  4 14  2  0  0  0  0
  5 12  1  0  0  0  0
  6 10  1  0  0  0  0
  7  2  1  0  0  0  0
  9 11  1  1  0  0  0
  9  6  1  0  0  0  0
 10  2  2  0  0  0  0
 11  7  2  0  0  0  0
 12 13  2  0  0  0  0
 13  9  1  0  0  0  0
 14 17  1  0  0  0  0
 15  4  1  0  0  0  0
 16  5  1  0  0  0  0
 16 15  2  0  0  0  0
 17  6  2  0  0  0  0
 18 19  2  0  0  0  0
 20 23  1  0  0  0  0
 21 25  1  0  0  0  0
 21 26  1  1  0  0  0
 22 25  1  0  0  0  0
 23 19  1  6  0  0  0
 23 21  1  0  0  0  0
 24 20  1  0  0  0  0
 24 27  1  0  0  0  0
 25 26  1  0  0  0  0
 25 28  1  1  0  0  0
 27 22  1  0  0  0  0
 29 28  1  6  0  0  0
 29 34  1  0  0  0  0
 29 33  1  0  0  0  0
 32 31  1  0  0  0  0
 32 30  1  1  0  0  0
 33 31  1  0  0  0  0
 34 32  1  0  0  0  0
 35 15  1  0  0  0  0
 36 37  1  0  0  0  0
 36 40  1  0  0  0  0
 37 43  1  0  0  0  0
 40 41  1  0  0  0  0
 41 35  1  0  0  0  0
 41 39  1  0  0  0  0
 42 38  2  0  0  0  0
 42 37  1  0  0  0  0
 43 39  1  0  0  0  0
M  END
>  <MODEL>
2

>  <REMARK>
 VINA RESULT:     -10.2      1.968      2.943
  Name = 
  6 active torsions:
  status: ('A' for Active; 'I' for Inactive)
    1  A    between atoms: C_1  and  C_34
    2  A    between atoms: C_1  and  N_35
    3  A    between atoms: C_2  and  N_6
    4  A    between atoms: C_11  and  O_14
    5  A    between atoms: C_12  and  C_17
    6  A    between atoms: O_14  and  C_22
                            x       y       z     vdW  Elec       q    Type
                         _______ _______ _______ _____ _____    ______ ____

>  <TORSDO>
F 6

$$$$
=
 OpenBabel10272414313D

 43 49  0  0  1  0  0  0  0  0999 V2000
  185.1890  177.8390  137.8860 C   0  0  0  0  0  0  0  0  0  0  0  0
  185.0990  178.5590  145.4530 C   0  0  0  0  0  0  0  0  0  0  0  0
  184.7270  177.7010  136.7160 O   0  0  0  0  0  0  0  0  0  0  0  0
  182.5390  178.6940  141.0360 C   0  0  0  0  0  0  0  0  0  0  0  0
  184.3080  178.1680  138.9580 N   0  0  0  0  0  0  0  0  0  0  0  0
  183.4410  178.9370  143.7480 C   0  0  0  0  0  0  0  0  0  0  0  0
  185.9890  177.9580  144.4200 C   0  0  0  0  0  3  0  0  0  0  0  0
  185.5630  178.6370  146.8640 C   0  0  0  0  0  1  0  0  0  0  0  0
  184.5190  178.9230  142.6850 C   0  0  1  0  0  3  0  0  0  0  0  0
  183.8760  178.9640  145.1540 C   0  0  0  0  0  3  0  0  0  0  0  0
  185.6950  178.0650  143.1270 C   0  0  0  0  0  3  0  0  0  0  0  0
  184.8210  178.3700  140.2860 C   0  0  0  0  0  3  0  0  0  0  0  0
  183.9900  178.5990  141.3060 C   0  0  0  0  0  0  0  0  0  0  0  0
  181.6830  178.8900  142.0450 C   0  0  0  0  0  3  0  0  0  0  0  0
  182.0670  178.5580  139.6380 C   0  0  0  0  0  0  0  0  0  0  0  0
  182.9290  178.2980  138.6970 N   0  0  0  0  0  0  0  0  0  0  0  0
  182.1460  178.9770  143.4430 C   0  0  0  0  0  3  0  0  0  0  0  0
  186.5830  177.6540  138.1440 N   0  0  0  0  0  0  0  0  0  0  0  0
  187.3200  176.8870  137.4120 C   0  0  0  0  0  3  0  0  0  0  0  0
  189.2980  175.4460  137.0770 C   0  0  0  0  0  2  0  0  0  0  0  0
  188.9370  176.6660  139.1760 N   0  0  1  0  0  0  0  0  0  0  0  0
  191.5770  176.2930  138.7920 C   0  0  0  0  0  2  0  0  0  0  0  0
  188.7630  176.7140  137.7260 C   0  0  2  0  0  3  0  0  0  0  0  0
  190.6970  175.6800  136.5130 C   0  0  0  0  0  2  0  0  0  0  0  0
  190.3400  176.5820  139.6800 C   0  0  1  0  0  0  0  0  0  0  0  0
  189.7130  177.8820  139.5190 C   0  0  0  0  0  2  0  0  0  0  0  0
  191.5060  176.6900  137.3220 C   0  0  0  0  0  2  0  0  0  0  0  0
  190.4290  176.2120  141.0340 O   0  0  0  0  0  0  0  0  0  0  0  0
  190.4730  177.4070  141.7690 C   0  0  2  0  0  3  0  0  0  0  0  0
  189.6220  178.2920  145.1260 N   0  0  0  0  0  1  0  0  0  0  0  0
  191.6190  178.0460  143.8020 C   0  0  0  0  0  2  0  0  0  0  0  0
  190.2960  177.4350  144.1870 C   0  0  2  0  0  3  0  0  0  0  0  0
  191.8520  177.5870  142.3870 C   0  0  0  0  0  2  0  0  0  0  0  0
  189.4860  177.3330  142.9140 C   0  0  0  0  0  2  0  0  0  0  0  0
  180.6280  178.6680  139.2850 C   0  0  0  0  0  2  0  0  0  0  0  0
  180.0380  180.8170  136.3370 C   0  0  0  0  0  2  0  0  0  0  0  0
  180.5070  182.0680  136.9290 N   0  0  0  0  0  0  0  0  0  0  0  0
  180.3500  184.3870  136.8010 O   0  0  0  0  0  0  0  0  0  0  0  0
  181.4890  180.8020  138.8790 C   0  0  0  0  0  2  0  0  0  0  0  0
  180.4810  179.6020  137.1450 C   0  0  0  0  0  2  0  0  0  0  0  0
  180.3790  179.9020  138.5620 N   0  0  0  0  0  0  0  0  0  0  0  0
  179.9820  183.2620  136.3720 C   0  0  0  0  0  3  0  0  0  0  0  0
  181.3410  182.1440  138.1510 C   0  0  0  0  0  2  0  0  0  0  0  0
  1 18  1  0  0  0  0
  1  5  1  0  0  0  0
  2  8  1  0  0  0  0
  3  1  2  0  0  0  0
  4 13  1  0  0  0  0
  4 14  2  0  0  0  0
  5 12  1  0  0  0  0
  6 10  1  0  0  0  0
  7  2  1  0  0  0  0
  9 11  1  1  0  0  0
  9  6  1  0  0  0  0
 10  2  2  0  0  0  0
 11  7  2  0  0  0  0
 12 13  2  0  0  0  0
 13  9  1  0  0  0  0
 14 17  1  0  0  0  0
 15  4  1  0  0  0  0
 16  5  1  0  0  0  0
 16 15  2  0  0  0  0
 17  6  2  0  0  0  0
 19 18  2  0  0  0  0
 20 23  1  0  0  0  0
 21 26  1  1  0  0  0
 21 25  1  0  0  0  0
 22 25  1  0  0  0  0
 23 19  1  1  0  0  0
 23 21  1  0  0  0  0
 24 20  1  0  0  0  0
 24 27  1  0  0  0  0
 25 28  1  1  0  0  0
 26 25  1  0  0  0  0
 27 22  1  0  0  0  0
 29 28  1  1  0  0  0
 29 33  1  0  0  0  0
 29 34  1  0  0  0  0
 31 32  1  0  0  0  0
 32 30  1  1  0  0  0
 33 31  1  0  0  0  0
 34 32  1  0  0  0  0
 35 15  1  0  0  0  0
 36 37  1  0  0  0  0
 36 40  1  0  0  0  0
 37 43  1  0  0  0  0
 40 41  1  0  0  0  0
 41 39  1  0  0  0  0
 41 35  1  0  0  0  0
 42 38  2  0  0  0  0
 42 37  1  0  0  0  0
 43 39  1  0  0  0  0
M  END
>  <MODEL>
3

>  <REMARK>
 VINA RESULT:     -10.1      1.330      1.976
  Name = 
  6 active torsions:
  status: ('A' for Active; 'I' for Inactive)
    1  A    between atoms: C_1  and  C_34
    2  A    between atoms: C_1  and  N_35
    3  A    between atoms: C_2  and  N_6
    4  A    between atoms: C_11  and  O_14
    5  A    between atoms: C_12  and  C_17
    6  A    between atoms: O_14  and  C_22
                            x       y       z     vdW  Elec       q    Type
                         _______ _______ _______ _____ _____    ______ ____

>  <TORSDO>
F 6

$$$$
=
 OpenBabel10272414313D

 43 49  0  0  1  0  0  0  0  0999 V2000
  190.7980  177.5270  140.9060 C   0  0  0  0  0  0  0  0  0  0  0  0
  183.2930  178.5960  141.4750 C   0  0  0  0  0  0  0  0  0  0  0  0
  191.9090  177.2870  140.3490 O   0  0  0  0  0  0  0  0  0  0  0  0
  187.4290  178.2570  138.4980 C   0  0  0  0  0  0  0  0  0  0  0  0
  189.6550  177.8150  140.1030 N   0  0  0  0  0  0  0  0  0  0  0  0
  184.8330  178.7210  139.6280 C   0  0  0  0  0  0  0  0  0  0  0  0
  184.3880  178.0400  142.3200 C   0  0  0  0  0  3  0  0  0  0  0  0
  181.9400  178.7880  142.0640 C   0  0  0  0  0  1  0  0  0  0  0  0
  186.0000  178.7660  140.5940 C   0  0  0  0  0  0  0  0  0  0  0  0
  183.4810  178.8590  140.1930 C   0  0  0  0  0  2  0  0  0  0  0  0
  185.6480  178.0550  141.8920 C   0  0  0  0  0  3  0  0  0  0  0  0
  188.3940  178.1320  140.7190 C   0  0  0  0  0  3  0  0  0  0  0  0
  187.3050  178.3240  139.9710 C   0  0  0  0  0  0  0  0  0  0  0  0
  186.3460  178.4130  137.7290 C   0  0  0  0  0  3  0  0  0  0  0  0
  188.7650  178.0060  137.9100 C   0  0  0  0  0  0  0  0  0  0  0  0
  189.7790  177.7920  138.6990 N   0  0  0  0  0  0  0  0  0  0  0  0
  185.0070  178.6130  138.3140 C   0  0  0  0  0  3  0  0  0  0  0  0
  190.6760  177.4980  142.3300 N   0  0  0  0  0  0  0  0  0  0  0  0
  191.2610  176.6000  143.0500 C   0  0  0  0  0  3  0  0  0  0  0  0
  191.6050  175.2950  145.1180 C   0  0  0  0  0  2  0  0  0  0  0  0
  189.6850  176.7990  144.8520 N   0  0  1  0  0  0  0  0  0  0  0  0
  190.3140  176.5920  147.4630 C   0  0  0  0  0  2  0  0  0  0  0  0
  191.0950  176.6000  144.5270 C   0  0  2  0  0  3  0  0  0  0  0  0
  192.3570  175.5520  146.4210 C   0  0  0  0  0  2  0  0  0  0  0  0
  189.3410  176.9150  146.3010 C   0  0  1  0  0  0  0  0  0  0  0  0
  189.6200  178.1150  145.5330 C   0  0  0  0  0  2  0  0  0  0  0  0
  191.8080  176.7420  147.2030 C   0  0  0  0  0  2  0  0  0  0  0  0
  187.9660  176.7750  146.5650 O   0  0  0  0  0  0  0  0  0  0  0  0
  187.3910  178.0370  146.3490 C   0  0  2  0  0  3  0  0  0  0  0  0
  184.0840  179.1630  145.5960 N   0  0  0  0  0  1  0  0  0  0  0  0
  185.6100  179.2440  147.4580 C   0  0  0  0  0  2  0  0  0  0  0  0
  184.9910  178.3780  146.3900 C   0  0  2  0  0  3  0  0  0  0  0  0
  186.9780  178.6540  147.6770 C   0  0  0  0  0  2  0  0  0  0  0  0
  186.1300  177.8830  145.5270 C   0  0  0  0  0  2  0  0  0  0  0  0
  188.9740  177.9520  136.4400 C   0  0  0  0  0  2  0  0  0  0  0  0
  190.9400  175.6110  134.3630 C   0  0  0  0  0  2  0  0  0  0  0  0
  190.2960  174.3820  134.8170 N   0  0  0  0  0  0  0  0  0  0  0  0
  190.5760  172.0820  135.0490 O   0  0  0  0  0  0  0  0  0  0  0  0
  188.4770  175.7240  135.9390 C   0  0  0  0  0  2  0  0  0  0  0  0
  190.1300  176.8500  134.7310 C   0  0  0  0  0  2  0  0  0  0  0  0
  189.5740  176.6850  136.0620 N   0  0  0  0  0  0  0  0  0  0  0  0
  191.0600  173.1920  134.7070 C   0  0  0  0  0  3  0  0  0  0  0  0
  188.9930  174.3410  135.5220 C   0  0  0  0  0  2  0  0  0  0  0  0
  1 18  1  0  0  0  0
  2  8  1  0  0  0  0
  2  7  2  0  0  0  0
  3  1  2  0  0  0  0
  4 13  1  0  0  0  0
  5 12  1  0  0  0  0
  5  1  1  0  0  0  0
  6 10  1  0  0  0  0
  6  9  1  0  0  0  0
  9 11  2  0  0  0  0
 10  2  1  0  0  0  0
 11  7  1  0  0  0  0
 13  9  1  0  0  0  0
 13 12  2  0  0  0  0
 14 17  1  0  0  0  0
 14  4  2  0  0  0  0
 15  4  1  0  0  0  0
 15 16  2  0  0  0  0
 16  5  1  0  0  0  0
 17  6  2  0  0  0  0
 18 19  2  0  0  0  0
 20 24  1  0  0  0  0
 21 26  1  6  0  0  0
 21 25  1  0  0  0  0
 23 19  1  6  0  0  0
 23 21  1  0  0  0  0
 23 20  1  0  0  0  0
 24 27  1  0  0  0  0
 25 28  1  1  0  0  0
 25 22  1  0  0  0  0
 26 25  1  0  0  0  0
 27 22  1  0  0  0  0
 29 28  1  1  0  0  0
 29 33  1  0  0  0  0
 31 33  1  0  0  0  0
 32 30  1  6  0  0  0
 32 31  1  0  0  0  0
 34 29  1  0  0  0  0
 34 32  1  0  0  0  0
 35 15  1  0  0  0  0
 36 40  1  0  0  0  0
 36 37  1  0  0  0  0
 37 43  1  0  0  0  0
 39 41  1  0  0  0  0
 40 41  1  0  0  0  0
 41 35  1  0  0  0  0
 42 37  1  0  0  0  0
 42 38  2  0  0  0  0
 43 39  1  0  0  0  0
M  END
>  <MODEL>
4

>  <REMARK>
 VINA RESULT:     -10.1      3.946      6.896
  Name = 
  6 active torsions:
  status: ('A' for Active; 'I' for Inactive)
    1  A    between atoms: C_1  and  C_34
    2  A    between atoms: C_1  and  N_35
    3  A    between atoms: C_2  and  N_6
    4  A    between atoms: C_11  and  O_14
    5  A    between atoms: C_12  and  C_17
    6  A    between atoms: O_14  and  C_22
                            x       y       z     vdW  Elec       q    Type
                         _______ _______ _______ _____ _____    ______ ____

>  <TORSDO>
F 6

$$$$
=
 OpenBabel10272414313D

 43 49  0  0  1  0  0  0  0  0999 V2000
  187.7020  178.1650  138.4670 C   0  0  0  0  0  0  0  0  0  0  0  0
  188.9390  177.3720  145.9260 C   0  0  0  0  0  0  0  0  0  0  0  0
  187.9820  178.2930  137.2390 O   0  0  0  0  0  0  0  0  0  0  0  0
  190.7690  177.1620  141.1620 C   0  0  0  0  0  0  0  0  0  0  0  0
  188.7230  177.7870  139.3870 N   0  0  0  0  0  0  0  0  0  0  0  0
  190.2920  176.9350  143.9820 C   0  0  0  0  0  0  0  0  0  0  0  0
  187.9270  178.0220  145.0460 C   0  0  0  0  0  3  0  0  0  0  0  0
  188.6980  177.3020  147.3920 C   0  0  0  0  0  1  0  0  0  0  0  0
  189.0620  177.0070  143.1000 C   0  0  1  0  0  3  0  0  0  0  0  0
  190.0810  176.9150  145.4380 C   0  0  0  0  0  3  0  0  0  0  0  0
  188.0100  177.9130  143.7220 C   0  0  0  0  0  3  0  0  0  0  0  0
  188.4150  177.5960  140.7790 C   0  0  0  0  0  3  0  0  0  0  0  0
  189.3840  177.3200  141.6560 C   0  0  0  0  0  0  0  0  0  0  0  0
  191.7620  176.9180  142.0240 C   0  0  0  0  0  3  0  0  0  0  0  0
  191.0230  177.2900  139.7080 C   0  0  0  0  0  0  0  0  0  0  0  0
  190.0370  177.5970  138.9130 N   0  0  0  0  0  0  0  0  0  0  0  0
  191.5190  176.8400  143.4780 C   0  0  0  0  0  3  0  0  0  0  0  0
  186.3750  178.4110  138.9410 N   0  0  0  0  0  0  0  0  0  0  0  0
  185.3650  178.4910  138.1400 C   0  0  0  0  0  3  0  0  0  0  0  0
  183.8070  180.2540  138.8910 C   0  0  0  0  0  2  0  0  0  0  0  0
  183.8280  178.0300  139.9290 N   0  0  1  0  0  0  0  0  0  0  0  0
  181.3660  179.1020  140.1420 C   0  0  0  0  0  2  0  0  0  0  0  0
  184.0050  178.7610  138.6760 C   0  0  2  0  0  3  0  0  0  0  0  0
  182.4020  180.6760  138.4710 C   0  0  0  0  0  2  0  0  0  0  0  0
  182.4820  178.1140  140.5680 C   0  0  1  0  0  0  0  0  0  0  0  0
  182.7720  177.0260  139.6510 C   0  0  0  0  0  2  0  0  0  0  0  0
  181.3570  179.5850  138.6960 C   0  0  0  0  0  2  0  0  0  0  0  0
  182.4670  177.6760  141.9050 O   0  0  0  0  0  0  0  0  0  0  0  0
  182.8330  178.7820  142.6890 C   0  0  2  0  0  3  0  0  0  0  0  0
  184.1050  179.1640  146.0060 N   0  0  0  0  0  1  0  0  0  0  0  0
  184.9080  179.4290  143.7510 C   0  0  0  0  0  2  0  0  0  0  0  0
  184.1510  178.5440  144.7090 C   0  0  2  0  0  3  0  0  0  0  0  0
  184.2800  179.1600  142.4090 C   0  0  0  0  0  2  0  0  0  0  0  0
  182.7510  178.4120  144.1530 C   0  0  0  0  0  2  0  0  0  0  0  0
  192.3820  177.1190  139.1340 C   0  0  0  0  0  2  0  0  0  0  0  0
  193.9680  174.0950  137.7210 C   0  0  0  0  0  2  0  0  0  0  0  0
  193.0500  173.9160  136.6000 N   0  0  0  0  0  0  0  0  0  0  0  0
  192.1820  172.3560  135.1050 O   0  0  0  0  0  0  0  0  0  0  0  0
  192.0770  176.2100  137.0030 C   0  0  0  0  0  2  0  0  0  0  0  0
  193.8550  175.4860  138.3360 C   0  0  0  0  0  2  0  0  0  0  0  0
  192.4580  175.8820  138.3770 N   0  0  0  0  0  0  0  0  0  0  0  0
  192.9300  172.5990  136.0880 C   0  0  0  0  0  3  0  0  0  0  0  0
  192.1390  174.9730  136.0980 C   0  0  0  0  0  2  0  0  0  0  0  0
  1 18  1  0  0  0  0
  1  5  1  0  0  0  0
  2  8  1  0  0  0  0
  3  1  2  0  0  0  0
  4 13  1  0  0  0  0
  4 14  2  0  0  0  0
  5 12  1  0  0  0  0
  6 10  1  0  0  0  0
  7  2  1  0  0  0  0
  9 11  1  1  0  0  0
  9  6  1  0  0  0  0
 10  2  2  0  0  0  0
 11  7  2  0  0  0  0
 12 13  2  0  0  0  0
 13  9  1  0  0  0  0
 14 17  1  0  0  0  0
 15  4  1  0  0  0  0
 16  5  1  0  0  0  0
 16 15  2  0  0  0  0
 17  6  2  0  0  0  0
 19 18  2  0  0  0  0
 21 26  1  6  0  0  0
 21 25  1  0  0  0  0
 22 25  1  0  0  0  0
 23 19  1  1  0  0  0
 23 20  1  0  0  0  0
 23 21  1  0  0  0  0
 24 27  1  0  0  0  0
 24 20  1  0  0  0  0
 25 28  1  1  0  0  0
 26 25  1  0  0  0  0
 27 22  1  0  0  0  0
 29 28  1  6  0  0  0
 29 34  1  0  0  0  0
 31 32  1  0  0  0  0
 32 30  1  1  0  0  0
 33 29  1  0  0  0  0
 33 31  1  0  0  0  0
 34 32  1  0  0  0  0
 35 15  1  0  0  0  0
 36 40  1  0  0  0  0
 37 36  1  0  0  0  0
 38 42  2  0  0  0  0
 39 41  1  0  0  0  0
 40 41  1  0  0  0  0
 41 35  1  0  0  0  0
 42 37  1  0  0  0  0
 43 37  1  0  0  0  0
 43 39  1  0  0  0  0
M  END
>  <MODEL>
5

>  <REMARK>
 VINA RESULT:      -9.3      2.732      8.833
  Name = 
  6 active torsions:
  status: ('A' for Active; 'I' for Inactive)
    1  A    between atoms: C_1  and  C_34
    2  A    between atoms: C_1  and  N_35
    3  A    between atoms: C_2  and  N_6
    4  A    between atoms: C_11  and  O_14
    5  A    between atoms: C_12  and  C_17
    6  A    between atoms: O_14  and  C_22
                            x       y       z     vdW  Elec       q    Type
                         _______ _______ _______ _____ _____    ______ ____

>  <TORSDO>
F 6

$$$$
=
 OpenBabel10272414313D

 43 49  0  0  1  0  0  0  0  0999 V2000
  188.6120  178.0880  137.7910 C   0  0  0  0  0  0  0  0  0  0  0  0
  191.0120  176.5720  144.8430 C   0  0  0  0  0  0  0  0  0  0  0  0
  187.7910  178.3430  136.8610 O   0  0  0  0  0  0  0  0  0  0  0  0
  187.2820  178.2360  141.7770 C   0  0  0  0  0  0  0  0  0  0  0  0
  188.1860  178.1720  139.1490 N   0  0  0  0  0  0  0  0  0  0  0  0
  189.0100  177.5890  143.9740 C   0  0  0  0  0  0  0  0  0  0  0  0
  191.4070  176.2160  143.4510 C   0  0  0  0  0  3  0  0  0  0  0  0
  191.8970  176.1890  145.9760 C   0  0  0  0  0  1  0  0  0  0  0  0
  189.6820  177.7830  142.6300 C   0  0  1  0  0  3  0  0  0  0  0  0
  189.8560  177.1620  145.0990 C   0  0  0  0  0  3  0  0  0  0  0  0
  190.7520  176.7240  142.4100 C   0  0  0  0  0  3  0  0  0  0  0  0
  189.1140  177.9270  140.2200 C   0  0  0  0  0  3  0  0  0  0  0  0
  188.7000  177.9270  141.4890 C   0  0  0  0  0  0  0  0  0  0  0  0
  186.8350  178.2100  143.0380 C   0  0  0  0  0  3  0  0  0  0  0  0
  186.3820  178.5600  140.6450 C   0  0  0  0  0  0  0  0  0  0  0  0
  186.8450  178.5050  139.4280 N   0  0  0  0  0  0  0  0  0  0  0  0
  187.7170  177.8400  144.1610 C   0  0  0  0  0  3  0  0  0  0  0  0
  189.9550  177.7030  137.4910 N   0  0  0  0  0  0  0  0  0  0  0  0
  190.2270  176.7440  136.6700 C   0  0  0  0  0  3  0  0  0  0  0  0
  191.7860  175.8500  134.9760 C   0  0  0  0  0  2  0  0  0  0  0  0
  192.0610  175.3560  137.3640 N   0  0  1  0  0  0  0  0  0  0  0  0
  194.4610  175.2700  136.1430 C   0  0  0  0  0  2  0  0  0  0  0  0
  191.6390  176.3680  136.3990 C   0  0  2  0  0  3  0  0  0  0  0  0
  193.0770  176.3660  134.3460 C   0  0  0  0  0  2  0  0  0  0  0  0
  193.4880  174.9210  137.2970 C   0  0  1  0  0  0  0  0  0  0  0  0
  193.1120  176.0090  138.1830 C   0  0  0  0  0  2  0  0  0  0  0  0
  194.2040  176.5520  135.3590 C   0  0  0  0  0  2  0  0  0  0  0  0
  193.7480  173.7360  138.0110 O   0  0  0  0  0  0  0  0  0  0  0  0
  194.5510  172.9400  137.1790 C   0  0  2  0  0  3  0  0  0  0  0  0
  196.4920  169.9840  137.6910 N   0  0  0  0  0  1  0  0  0  0  0  0
  194.4610  170.6040  136.5540 C   0  0  0  0  0  2  0  0  0  0  0  0
  195.2610  170.7150  137.8270 C   0  0  2  0  0  3  0  0  0  0  0  0
  193.6950  171.8980  136.4740 C   0  0  0  0  0  2  0  0  0  0  0  0
  195.5560  172.1850  138.0200 C   0  0  0  0  0  2  0  0  0  0  0  0
  184.9530  178.9050  140.8560 C   0  0  0  0  0  2  0  0  0  0  0  0
  182.5700  178.8600  138.0330 C   0  0  0  0  0  2  0  0  0  0  0  0
  182.0940  177.4920  138.2200 N   0  0  0  0  0  0  0  0  0  0  0  0
  181.1150  175.6740  137.1440 O   0  0  0  0  0  0  0  0  0  0  0  0
  183.2180  177.3870  140.4770 C   0  0  0  0  0  2  0  0  0  0  0  0
  183.3110  179.3800  139.2600 C   0  0  0  0  0  2  0  0  0  0  0  0
  184.1320  178.3180  139.8140 N   0  0  0  0  0  0  0  0  0  0  0  0
  181.5730  176.8440  137.0710 C   0  0  0  0  0  3  0  0  0  0  0  0
  182.2800  176.7140  139.4670 C   0  0  0  0  0  2  0  0  0  0  0  0
  1  5  1  0  0  0  0
  2 10  2  0  0  0  0
  2  8  1  0  0  0  0
  3  1  2  0  0  0  0
  4 14  2  0  0  0  0
  5 16  1  0  0  0  0
  5 12  1  0  0  0  0
  6 17  2  0  0  0  0
  6 10  1  0  0  0  0
  7  2  1  0  0  0  0
  9 11  1  6  0  0  0
  9  6  1  0  0  0  0
 11  7  2  0  0  0  0
 12 13  2  0  0  0  0
 13  4  1  0  0  0  0
 13  9  1  0  0  0  0
 14 17  1  0  0  0  0
 15 35  1  0  0  0  0
 15  4  1  0  0  0  0
 16 15  2  0  0  0  0
 18  1  1  0  0  0  0
 19 18  2  0  0  0  0
 20 23  1  0  0  0  0
 21 26  1  1  0  0  0
 22 25  1  0  0  0  0
 23 19  1  1  0  0  0
 23 21  1  0  0  0  0
 24 20  1  0  0  0  0
 24 27  1  0  0  0  0
 25 21  1  0  0  0  0
 25 28  1  1  0  0  0
 25 26  1  0  0  0  0
 27 22  1  0  0  0  0
 29 28  1  1  0  0  0
 29 34  1  0  0  0  0
 31 32  1  0  0  0  0
 32 30  1  6  0  0  0
 32 34  1  0  0  0  0
 33 31  1  0  0  0  0
 33 29  1  0  0  0  0
 36 37  1  0  0  0  0
 36 40  1  0  0  0  0
 37 43  1  0  0  0  0
 40 41  1  0  0  0  0
 41 39  1  0  0  0  0
 41 35  1  0  0  0  0
 42 38  2  0  0  0  0
 42 37  1  0  0  0  0
 43 39  1  0  0  0  0
M  END
>  <MODEL>
6

>  <REMARK>
 VINA RESULT:      -9.3      3.632      6.398
  Name = 
  6 active torsions:
  status: ('A' for Active; 'I' for Inactive)
    1  A    between atoms: C_1  and  C_34
    2  A    between atoms: C_1  and  N_35
    3  A    between atoms: C_2  and  N_6
    4  A    between atoms: C_11  and  O_14
    5  A    between atoms: C_12  and  C_17
    6  A    between atoms: O_14  and  C_22
                            x       y       z     vdW  Elec       q    Type
                         _______ _______ _______ _____ _____    ______ ____

>  <TORSDO>
F 6

$$$$
=
 OpenBabel10272414313D

 43 49  0  0  1  0  0  0  0  0999 V2000
  193.0000  177.1860  140.0050 C   0  0  0  0  0  0  0  0  0  0  0  0
  186.8020  175.7350  135.8490 C   0  0  0  0  0  0  0  0  0  0  0  0
  194.2300  177.2190  140.3040 O   0  0  0  0  0  0  0  0  0  0  0  0
  191.8860  176.1590  136.0820 C   0  0  0  0  0  0  0  0  0  0  0  0
  192.6080  176.8780  138.6690 N   0  0  0  0  0  0  0  0  0  0  0  0
  189.1350  175.9550  135.2950 C   0  0  0  0  0  0  0  0  0  0  0  0
  187.1640  175.7910  137.2940 C   0  0  0  0  0  3  0  0  0  0  0  0
  185.3750  175.5830  135.4580 C   0  0  0  0  0  1  0  0  0  0  0  0
  189.4000  176.6120  136.6340 C   0  0  0  0  0  0  0  0  0  0  0  0
  187.7310  175.7480  134.9080 C   0  0  0  0  0  2  0  0  0  0  0  0
  188.3930  176.1370  137.6710 C   0  0  0  0  0  3  0  0  0  0  0  0
  191.2180  176.8770  138.3000 C   0  0  0  0  0  3  0  0  0  0  0  0
  190.8440  176.5110  137.0710 C   0  0  0  0  0  0  0  0  0  0  0  0
  191.5350  175.7590  134.8560 C   0  0  0  0  0  3  0  0  0  0  0  0
  193.3090  176.2520  136.4880 C   0  0  0  0  0  0  0  0  0  0  0  0
  193.6020  176.5800  137.7140 N   0  0  0  0  0  0  0  0  0  0  0  0
  190.1190  175.6180  134.4660 C   0  0  0  0  0  3  0  0  0  0  0  0
  192.0020  177.4400  140.9960 N   0  0  0  0  0  0  0  0  0  0  0  0
  192.0650  176.9270  142.1790 C   0  0  0  0  0  3  0  0  0  0  0  0
  191.0500  176.1960  144.3090 C   0  0  0  0  0  2  0  0  0  0  0  0
  189.6970  177.1700  142.5080 N   0  0  1  0  0  0  0  0  0  0  0  0
  188.5260  177.6630  144.8840 C   0  0  0  0  0  2  0  0  0  0  0  0
  190.9970  177.2080  143.1750 C   0  0  2  0  0  3  0  0  0  0  0  0
  190.7930  176.8780  145.6500 C   0  0  0  0  0  2  0  0  0  0  0  0
  188.5070  177.5170  143.3410 C   0  0  1  0  0  0  0  0  0  0  0  0
  189.1780  178.5570  142.5810 C   0  0  0  0  0  2  0  0  0  0  0  0
  189.8400  178.0650  145.5450 C   0  0  0  0  0  2  0  0  0  0  0  0
  187.2830  177.1510  142.7520 O   0  0  0  0  0  0  0  0  0  0  0  0
  186.5550  178.3390  142.5810 C   0  0  2  0  0  3  0  0  0  0  0  0
  184.4780  179.6250  139.9720 N   0  0  0  0  0  1  0  0  0  0  0  0
  184.2050  178.7880  142.2140 C   0  0  0  0  0  2  0  0  0  0  0  0
  184.8520  178.5650  140.8700 C   0  0  2  0  0  3  0  0  0  0  0  0
  185.1740  178.1950  143.2030 C   0  0  0  0  0  2  0  0  0  0  0  0
  186.3460  178.5940  141.1050 C   0  0  0  0  0  2  0  0  0  0  0  0
  194.4120  175.9410  135.5430 C   0  0  0  0  0  2  0  0  0  0  0  0
  197.5390  174.0700  136.1580 C   0  0  0  0  0  2  0  0  0  0  0  0
  196.9230  172.7720  136.4250 N   0  0  0  0  0  0  0  0  0  0  0  0
  197.2320  170.7230  137.4860 O   0  0  0  0  0  0  0  0  0  0  0  0
  194.7070  173.6230  135.5680 C   0  0  0  0  0  2  0  0  0  0  0  0
  196.5680  175.0350  135.4870 C   0  0  0  0  0  2  0  0  0  0  0  0
  195.2500  174.8830  136.0780 N   0  0  0  0  0  0  0  0  0  0  0  0
  197.6720  171.8730  137.2270 C   0  0  0  0  0  3  0  0  0  0  0  0
  195.5310  172.4250  136.0560 C   0  0  0  0  0  2  0  0  0  0  0  0
  1  3  2  0  0  0  0
  1 18  1  0  0  0  0
  2  7  2  0  0  0  0
  4 15  1  0  0  0  0
  4 13  1  0  0  0  0
  5  1  1  0  0  0  0
  6  9  1  0  0  0  0
  7 11  1  0  0  0  0
  8  2  1  0  0  0  0
  9 13  1  0  0  0  0
  9 11  2  0  0  0  0
 10  6  1  0  0  0  0
 10  2  1  0  0  0  0
 12  5  1  0  0  0  0
 13 12  2  0  0  0  0
 14  4  2  0  0  0  0
 15 16  2  0  0  0  0
 16  5  1  0  0  0  0
 17 14  1  0  0  0  0
 17  6  2  0  0  0  0
 18 19  2  0  0  0  0
 20 24  1  0  0  0  0
 21 26  1  6  0  0  0
 21 23  1  0  0  0  0
 21 25  1  0  0  0  0
 22 27  1  0  0  0  0
 23 19  1  6  0  0  0
 23 20  1  0  0  0  0
 25 28  1  6  0  0  0
 25 22  1  0  0  0  0
 26 25  1  0  0  0  0
 27 24  1  0  0  0  0
 29 28  1  6  0  0  0
 29 33  1  0  0  0  0
 31 33  1  0  0  0  0
 32 30  1  6  0  0  0
 32 34  1  0  0  0  0
 32 31  1  0  0  0  0
 34 29  1  0  0  0  0
 35 41  1  0  0  0  0
 35 15  1  0  0  0  0
 36 37  1  0  0  0  0
 37 42  1  0  0  0  0
 39 43  1  0  0  0  0
 39 41  1  0  0  0  0
 40 41  1  0  0  0  0
 40 36  1  0  0  0  0
 42 38  2  0  0  0  0
 43 37  1  0  0  0  0
M  END
>  <MODEL>
7

>  <REMARK>
 VINA RESULT:      -9.1      4.221     10.642
  Name = 
  6 active torsions:
  status: ('A' for Active; 'I' for Inactive)
    1  A    between atoms: C_1  and  C_34
    2  A    between atoms: C_1  and  N_35
    3  A    between atoms: C_2  and  N_6
    4  A    between atoms: C_11  and  O_14
    5  A    between atoms: C_12  and  C_17
    6  A    between atoms: O_14  and  C_22
                            x       y       z     vdW  Elec       q    Type
                         _______ _______ _______ _____ _____    ______ ____

>  <TORSDO>
F 6

$$$$
=
 OpenBabel10272414313D

 43 49  0  0  1  0  0  0  0  0999 V2000
  190.4500  176.8280  141.3950 C   0  0  0  0  0  0  0  0  0  0  0  0
  186.0120  176.8350  135.2230 C   0  0  0  0  0  0  0  0  0  0  0  0
  191.5020  176.6760  142.0820 O   0  0  0  0  0  0  0  0  0  0  0  0
  190.7170  176.6740  137.2010 C   0  0  0  0  0  0  0  0  0  0  0  0
  190.5300  176.8170  139.9710 N   0  0  0  0  0  0  0  0  0  0  0  0
  188.3990  176.9090  135.5280 C   0  0  0  0  0  0  0  0  0  0  0  0
  185.8570  176.5830  136.6830 C   0  0  0  0  0  3  0  0  0  0  0  0
  184.8020  176.9090  134.3600 C   0  0  0  0  0  1  0  0  0  0  0  0
  188.2100  177.2730  136.9860 C   0  0  0  0  0  0  0  0  0  0  0  0
  187.2070  176.9270  134.6650 C   0  0  0  0  0  2  0  0  0  0  0  0
  186.8920  176.7220  137.5080 C   0  0  0  0  0  3  0  0  0  0  0  0
  189.3530  177.0310  139.1730 C   0  0  0  0  0  3  0  0  0  0  0  0
  189.4110  176.9420  137.8420 C   0  0  0  0  0  0  0  0  0  0  0  0
  190.7960  176.5480  135.8720 C   0  0  0  0  0  3  0  0  0  0  0  0
  191.9160  176.5400  138.0620 C   0  0  0  0  0  0  0  0  0  0  0  0
  191.7810  176.6010  139.3560 N   0  0  0  0  0  0  0  0  0  0  0  0
  189.5960  176.6310  135.0170 C   0  0  0  0  0  3  0  0  0  0  0  0
  189.1810  176.9960  142.0320 N   0  0  0  0  0  0  0  0  0  0  0  0
  188.9320  177.9970  142.8090 C   0  0  0  0  0  3  0  0  0  0  0  0
  187.4540  177.0910  144.5680 C   0  0  0  0  0  2  0  0  0  0  0  0
  186.5550  177.9610  142.4560 N   0  0  1  0  0  0  0  0  0  0  0  0
  184.7160  178.2450  144.4040 C   0  0  0  0  0  2  0  0  0  0  0  0
  187.6020  178.1250  143.4620 C   0  0  2  0  0  3  0  0  0  0  0  0
  186.7530  177.6980  145.7800 C   0  0  0  0  0  2  0  0  0  0  0  0
  185.1480  178.1460  142.9180 C   0  0  1  0  0  0  0  0  0  0  0  0
  185.8780  179.2780  142.3760 C   0  0  0  0  0  2  0  0  0  0  0  0
  185.7350  178.7730  145.4070 C   0  0  0  0  0  2  0  0  0  0  0  0
  184.1900  177.6620  142.0090 O   0  0  0  0  0  0  0  0  0  0  0  0
  183.4820  178.7820  141.5450 C   0  0  2  0  0  3  0  0  0  0  0  0
  181.4580  179.4260  138.6710 N   0  0  0  0  0  1  0  0  0  0  0  0
  181.1450  179.1590  141.0440 C   0  0  0  0  0  2  0  0  0  0  0  0
  181.8040  178.6100  139.8040 C   0  0  2  0  0  3  0  0  0  0  0  0
  182.0920  178.8110  142.1620 C   0  0  0  0  0  2  0  0  0  0  0  0
  183.2950  178.6760  140.0470 C   0  0  0  0  0  2  0  0  0  0  0  0
  193.2650  176.2960  137.4910 C   0  0  0  0  0  2  0  0  0  0  0  0
  195.2910  173.3910  138.5460 C   0  0  0  0  0  2  0  0  0  0  0  0
  194.8330  172.4660  137.5130 N   0  0  0  0  0  0  0  0  0  0  0  0
  194.5740  170.2150  136.9790 O   0  0  0  0  0  0  0  0  0  0  0  0
  193.7500  174.3700  136.2590 C   0  0  0  0  0  2  0  0  0  0  0  0
  194.9470  174.8390  138.2110 C   0  0  0  0  0  2  0  0  0  0  0  0
  193.6220  174.8940  137.6190 N   0  0  0  0  0  0  0  0  0  0  0  0
  194.9210  171.0850  137.8210 C   0  0  0  0  0  3  0  0  0  0  0  0
  194.1460  172.8880  136.2690 C   0  0  0  0  0  2  0  0  0  0  0  0
  1 18  1  0  0  0  0
  1  3  2  0  0  0  0
  2  7  2  0  0  0  0
  4 13  1  0  0  0  0
  4 15  1  0  0  0  0
  5  1  1  0  0  0  0
  6  9  1  0  0  0  0
  7 11  1  0  0  0  0
  8  2  1  0  0  0  0
  9 11  2  0  0  0  0
  9 13  1  0  0  0  0
 10  2  1  0  0  0  0
 10  6  1  0  0  0  0
 12  5  1  0  0  0  0
 13 12  2  0  0  0  0
 14  4  2  0  0  0  0
 15 16  2  0  0  0  0
 16  5  1  0  0  0  0
 17  6  2  0  0  0  0
 17 14  1  0  0  0  0
 18 19  2  0  0  0  0
 20 24  1  0  0  0  0
 21 26  1  6  0  0  0
 21 25  1  0  0  0  0
 21 23  1  0  0  0  0
 22 27  1  0  0  0  0
 23 19  1  6  0  0  0
 23 20  1  0  0  0  0
 25 28  1  6  0  0  0
 25 22  1  0  0  0  0
 26 25  1  0  0  0  0
 27 24  1  0  0  0  0
 29 28  1  1  0  0  0
 29 33  1  0  0  0  0
 31 33  1  0  0  0  0
 32 30  1  6  0  0  0
 32 34  1  0  0  0  0
 32 31  1  0  0  0  0
 34 29  1  0  0  0  0
 35 41  1  0  0  0  0
 35 15  1  0  0  0  0
 37 42  1  0  0  0  0
 37 36  1  0  0  0  0
 38 42  2  0  0  0  0
 39 43  1  0  0  0  0
 39 41  1  0  0  0  0
 40 36  1  0  0  0  0
 41 40  1  0  0  0  0
 43 37  1  0  0  0  0
M  END
>  <MODEL>
8

>  <REMARK>
 VINA RESULT:      -8.9      3.455     10.379
  Name = 
  6 active torsions:
  status: ('A' for Active; 'I' for Inactive)
    1  A    between atoms: C_1  and  C_34
    2  A    between atoms: C_1  and  N_35
    3  A    between atoms: C_2  and  N_6
    4  A    between atoms: C_11  and  O_14
    5  A    between atoms: C_12  and  C_17
    6  A    between atoms: O_14  and  C_22
                            x       y       z     vdW  Elec       q    Type
                         _______ _______ _______ _____ _____    ______ ____

>  <TORSDO>
F 6

$$$$
=
 OpenBabel10272414313D

 43 49  0  0  1  0  0  0  0  0999 V2000
  186.6740  177.0010  137.0720 C   0  0  0  0  0  0  0  0  0  0  0  0
  191.0100  177.9880  143.2380 C   0  0  0  0  0  0  0  0  0  0  0  0
  186.3940  176.8700  135.8450 O   0  0  0  0  0  0  0  0  0  0  0  0
  190.7020  176.8490  138.2690 C   0  0  0  0  0  0  0  0  0  0  0  0
  188.0320  176.9120  137.4980 N   0  0  0  0  0  0  0  0  0  0  0  0
  191.4830  177.2250  141.0030 C   0  0  0  0  0  0  0  0  0  0  0  0
  189.6330  178.3510  142.7970 C   0  0  0  0  0  3  0  0  0  0  0  0
  191.4140  178.2310  144.6490 C   0  0  0  0  0  1  0  0  0  0  0  0
  190.0050  177.0100  140.7550 C   0  0  1  0  0  3  0  0  0  0  0  0
  191.9030  177.5160  142.3840 C   0  0  0  0  0  3  0  0  0  0  0  0
  189.1750  177.9540  141.6120 C   0  0  0  0  0  3  0  0  0  0  0  0
  188.3660  177.0160  138.8930 C   0  0  0  0  0  3  0  0  0  0  0  0
  189.6420  177.0140  139.2870 C   0  0  0  0  0  0  0  0  0  0  0  0
  191.9890  176.8760  138.6340 C   0  0  0  0  0  3  0  0  0  0  0  0
  190.3040  176.6660  136.8530 C   0  0  0  0  0  0  0  0  0  0  0  0
  189.0420  176.7150  136.5350 N   0  0  0  0  0  0  0  0  0  0  0  0
  192.3880  177.1070  140.0350 C   0  0  0  0  0  3  0  0  0  0  0  0
  185.6440  177.2500  138.0320 N   0  0  0  0  0  0  0  0  0  0  0  0
  185.2410  178.4450  138.3100 C   0  0  0  0  0  3  0  0  0  0  0  0
  183.3070  179.8450  138.9390 C   0  0  0  0  0  2  0  0  0  0  0  0
  184.7940  178.8730  140.6320 N   0  0  1  0  0  0  0  0  0  0  0  0
  182.3350  179.2090  141.6780 C   0  0  0  0  0  2  0  0  0  0  0  0
  184.1760  178.6590  139.3250 C   0  0  2  0  0  3  0  0  0  0  0  0
  181.8380  179.5540  139.2330 C   0  0  0  0  0  2  0  0  0  0  0  0
  183.8680  179.0190  141.7940 C   0  0  1  0  0  0  0  0  0  0  0  0
  184.3890  177.7060  141.4530 C   0  0  0  0  0  2  0  0  0  0  0  0
  181.6390  178.6450  140.4440 C   0  0  0  0  0  2  0  0  0  0  0  0
  184.4880  179.5410  142.9440 O   0  0  0  0  0  0  0  0  0  0  0  0
  184.4800  178.5130  143.9000 C   0  0  2  0  0  3  0  0  0  0  0  0
  186.7530  177.4830  146.4580 N   0  0  0  0  0  1  0  0  0  0  0  0
  184.5820  178.5160  146.3180 C   0  0  0  0  0  2  0  0  0  0  0  0
  185.9950  178.5090  145.7930 C   0  0  2  0  0  3  0  0  0  0  0  0
  183.7470  178.9740  145.1510 C   0  0  0  0  0  2  0  0  0  0  0  0
  185.9010  178.1990  144.3150 C   0  0  0  0  0  2  0  0  0  0  0  0
  191.3100  176.4680  135.7780 C   0  0  0  0  0  2  0  0  0  0  0  0
  193.8380  173.7740  135.6940 C   0  0  0  0  0  2  0  0  0  0  0  0
  192.9560  172.7130  135.2160 N   0  0  0  0  0  0  0  0  0  0  0  0
  192.6520  170.4060  135.1410 O   0  0  0  0  0  0  0  0  0  0  0  0
  191.1700  174.4120  134.6760 C   0  0  0  0  0  2  0  0  0  0  0  0
  193.2270  175.1570  135.4970 C   0  0  0  0  0  2  0  0  0  0  0  0
  191.8070  175.1040  135.7970 N   0  0  0  0  0  0  0  0  0  0  0  0
  193.3380  171.3850  135.5350 C   0  0  0  0  0  3  0  0  0  0  0  0
  191.6380  172.9540  134.5840 C   0  0  0  0  0  2  0  0  0  0  0  0
  1  5  1  0  0  0  0
  1 18  1  0  0  0  0
  2  8  1  0  0  0  0
  3  1  2  0  0  0  0
  4 14  2  0  0  0  0
  4 13  1  0  0  0  0
  5 12  1  0  0  0  0
  6 10  1  0  0  0  0
  7  2  1  0  0  0  0
  9  6  1  0  0  0  0
  9 11  1  1  0  0  0
 10  2  2  0  0  0  0
 11  7  2  0  0  0  0
 12 13  2  0  0  0  0
 13  9  1  0  0  0  0
 14 17  1  0  0  0  0
 15  4  1  0  0  0  0
 16 15  2  0  0  0  0
 16  5  1  0  0  0  0
 17  6  2  0  0  0  0
 18 19  2  0  0  0  0
 20 24  1  0  0  0  0
 20 23  1  0  0  0  0
 21 26  1  1  0  0  0
 21 25  1  0  0  0  0
 22 25  1  0  0  0  0
 23 19  1  6  0  0  0
 23 21  1  0  0  0  0
 24 27  1  0  0  0  0
 25 28  1  1  0  0  0
 26 25  1  0  0  0  0
 27 22  1  0  0  0  0
 29 28  1  6  0  0  0
 29 34  1  0  0  0  0
 29 33  1  0  0  0  0
 32 31  1  0  0  0  0
 32 30  1  1  0  0  0
 33 31  1  0  0  0  0
 34 32  1  0  0  0  0
 35 41  1  0  0  0  0
 35 15  1  0  0  0  0
 37 42  1  0  0  0  0
 37 36  1  0  0  0  0
 38 42  2  0  0  0  0
 39 41  1  0  0  0  0
 40 36  1  0  0  0  0
 40 41  1  0  0  0  0
 43 39  1  0  0  0  0
 43 37  1  0  0  0  0
M  END
>  <MODEL>
9

>  <REMARK>
 VINA RESULT:      -8.8      3.282      8.985
  Name = 
  6 active torsions:
  status: ('A' for Active; 'I' for Inactive)
    1  A    between atoms: C_1  and  C_34
    2  A    between atoms: C_1  and  N_35
    3  A    between atoms: C_2  and  N_6
    4  A    between atoms: C_11  and  O_14
    5  A    between atoms: C_12  and  C_17
    6  A    between atoms: O_14  and  C_22
                            x       y       z     vdW  Elec       q    Type
                         _______ _______ _______ _____ _____    ______ ____

>  <TORSDO>
F 6

$$$$
