=
 OpenBabel10272400573D

 25 24  0  0  1  0  0  0  0  0999 V2000
  188.7400  177.6590  140.1660 C   0  0  1  0  0  3  0  0  0  0  0  0
  189.1790  179.2660  138.4380 O   0  0  0  0  0  0  0  0  0  0  0  0
  188.8390  178.0860  138.7320 C   0  0  0  0  0  0  0  0  0  0  0  0
  188.5170  177.1710  137.7300 O   0  0  0  0  0  0  0  0  0  0  0  0
  189.1390  177.2050  136.4550 C   0  0  0  0  0  1  0  0  0  0  0  0
  190.0430  177.0250  140.6940 C   0  0  1  0  0  3  0  0  0  0  0  0
  191.0840  176.7910  139.5940 C   0  0  0  0  0  2  0  0  0  0  0  0
  192.4010  177.4380  139.9750 C   0  0  0  0  0  1  0  0  0  0  0  0
  190.5790  177.6970  141.8200 O   0  0  0  0  0  0  0  0  0  0  0  0
  190.6060  176.8120  142.9130 C   0  0  0  0  0  2  0  0  0  0  0  0
  190.7450  178.9680  144.2080 C   0  0  0  0  0  1  0  0  0  0  0  0
  190.9570  177.5340  144.1230 N   0  0  0  0  0  0  0  0  0  0  0  0
  191.8350  176.2300  146.2010 C   0  0  0  0  0  3  0  0  0  0  0  0
  191.4280  176.8340  145.2390 C   0  0  0  0  0  0  0  0  0  0  0  0
  188.2290  178.8020  141.0470 C   0  0  0  0  0  2  0  0  0  0  0  0
  186.9790  178.2490  142.2570 S   0  0  0  0  0  0  0  0  0  0  0  0
  185.6120  178.9520  141.2920 C   0  0  0  0  0  2  0  0  0  0  0  0
  184.2960  178.6910  142.0010 C   0  0  0  0  0  2  0  0  0  0  0  0
  184.5420  178.2390  143.4300 C   0  0  0  0  0  2  0  0  0  0  0  0
  183.7330  179.3640  144.6050 S   0  0  0  0  0  0  0  0  0  0  0  0
  184.4140  178.4850  146.0390 C   0  0  0  0  0  2  0  0  0  0  0  0
  185.8390  178.0690  145.7450 C   0  0  0  0  0  2  0  0  0  0  0  0
  186.7310  178.4820  146.8960 C   0  0  0  0  0  2  0  0  0  0  0  0
  188.1010  177.8600  146.7210 C   0  0  0  0  0  2  0  0  0  0  0  0
  188.3990  176.9570  147.8970 C   0  0  0  0  0  1  0  0  0  0  0  0
  1  6  1  0  0  0  0
  1 15  1  1  0  0  0
  2  3  2  0  0  0  0
  3  1  1  0  0  0  0
  4  3  1  0  0  0  0
  5  4  1  0  0  0  0
  6  7  1  6  0  0  0
  6  9  1  0  0  0  0
  7  8  1  0  0  0  0
  9 10  1  0  0  0  0
 10 12  1  0  0  0  0
 12 11  1  0  0  0  0
 12 14  1  0  0  0  0
 14 13  3  0  0  0  0
 15 16  1  0  0  0  0
 17 18  1  0  0  0  0
 17 16  1  0  0  0  0
 18 19  1  0  0  0  0
 19 20  1  0  0  0  0
 20 21  1  0  0  0  0
 22 21  1  0  0  0  0
 22 23  1  0  0  0  0
 24 23  1  0  0  0  0
 24 25  1  0  0  0  0
M  END
>  <MODEL>
1

>  <REMARK>
 VINA RESULT:      -5.2      0.000      0.000
  Name = 
  18 active torsions:
  status: ('A' for Active; 'I' for Inactive)
    1  A    between atoms: C_1  and  C_3
    2  A    between atoms: C_1  and  C_18
    3  A    between atoms: C_1  and  C_24
    4  A    between atoms: C_2  and  C_7
    5  A    between atoms: C_2  and  C_25
    6  A    between atoms: C_3  and  S_16
    7  A    between atoms: O_4  and  C_18
    8  A    between atoms: O_4  and  C_19
    9  A    between atoms: S_6  and  C_15
   10  A    between atoms: S_6  and  C_21
   11  A    between atoms: N_10  and  C_11
   12  A    between atoms: N_10  and  C_19
   13  A    between atoms: O_13  and  C_24
   14  A    between atoms: C_15  and  C_20
   15  A    between atoms: S_16  and  C_23
   16  A    between atoms: C_17  and  C_18
   17  A    between atoms: C_20  and  C_23
   18  A    between atoms: C_21  and  C_25
                            x       y       z     vdW  Elec       q    Type
                         _______ _______ _______ _____ _____    ______ ____

>  <TORSDO>
F 18

$$$$
=
 OpenBabel10272400573D

 25 24  0  0  1  0  0  0  0  0999 V2000
  185.9230  178.4020  141.7380 C   0  0  1  0  0  3  0  0  0  0  0  0
  183.7620  177.8280  140.8670 O   0  0  0  0  0  0  0  0  0  0  0  0
  184.7350  178.6320  140.8520 C   0  0  0  0  0  0  0  0  0  0  0  0
  184.7370  179.7270  139.9890 O   0  0  0  0  0  0  0  0  0  0  0  0
  183.7590  179.8830  138.9720 C   0  0  0  0  0  1  0  0  0  0  0  0
  187.2570  178.7680  141.0580 C   0  0  1  0  0  3  0  0  0  0  0  0
  188.4830  178.3560  141.8790 C   0  0  0  0  0  2  0  0  0  0  0  0
  188.3670  176.9030  142.2970 C   0  0  0  0  0  1  0  0  0  0  0  0
  187.3350  178.3440  139.7090 O   0  0  0  0  0  0  0  0  0  0  0  0
  188.6580  178.4930  139.2540 C   0  0  0  0  0  2  0  0  0  0  0  0
  188.1640  176.5000  137.7950 C   0  0  0  0  0  1  0  0  0  0  0  0
  189.0940  177.2730  138.5980 N   0  0  0  0  0  0  0  0  0  0  0  0
  191.5920  176.5470  138.7430 C   0  0  0  0  0  3  0  0  0  0  0  0
  190.4360  176.8830  138.6760 C   0  0  0  0  0  0  0  0  0  0  0  0
  185.7360  179.0790  143.0970 C   0  0  0  0  0  2  0  0  0  0  0  0
  185.6560  177.8820  144.4730 S   0  0  0  0  0  0  0  0  0  0  0  0
  185.4160  179.1890  145.7080 C   0  0  0  0  0  2  0  0  0  0  0  0
  186.0440  178.7730  147.0250 C   0  0  0  0  0  2  0  0  0  0  0  0
  187.3330  178.0090  146.7820 C   0  0  0  0  0  2  0  0  0  0  0  0
  188.3040  177.8880  148.3130 S   0  0  0  0  0  0  0  0  0  0  0  0
  189.7690  177.2810  147.4310 C   0  0  0  0  0  2  0  0  0  0  0  0
  189.6900  177.6960  145.9780 C   0  0  0  0  0  2  0  0  0  0  0  0
  190.6440  176.8500  145.1620 C   0  0  0  0  0  2  0  0  0  0  0  0
  191.5710  177.7530  144.3750 C   0  0  0  0  0  2  0  0  0  0  0  0
  190.9750  179.1410  144.2940 C   0  0  0  0  0  1  0  0  0  0  0  0
  1 15  1  1  0  0  0
  3  2  2  0  0  0  0
  3  1  1  0  0  0  0
  4  3  1  0  0  0  0
  5  4  1  0  0  0  0
  6  1  1  0  0  0  0
  6  7  1  1  0  0  0
  7  8  1  0  0  0  0
  9  6  1  0  0  0  0
 10  9  1  0  0  0  0
 11 12  1  0  0  0  0
 12 14  1  0  0  0  0
 12 10  1  0  0  0  0
 14 13  3  0  0  0  0
 15 16  1  0  0  0  0
 16 17  1  0  0  0  0
 17 18  1  0  0  0  0
 19 18  1  0  0  0  0
 19 20  1  0  0  0  0
 21 20  1  0  0  0  0
 22 21  1  0  0  0  0
 23 22  1  0  0  0  0
 24 23  1  0  0  0  0
 25 24  1  0  0  0  0
M  END
>  <MODEL>
2

>  <REMARK>
 VINA RESULT:      -5.1      2.645      5.059
  Name = 
  18 active torsions:
  status: ('A' for Active; 'I' for Inactive)
    1  A    between atoms: C_1  and  C_3
    2  A    between atoms: C_1  and  C_18
    3  A    between atoms: C_1  and  C_24
    4  A    between atoms: C_2  and  C_7
    5  A    between atoms: C_2  and  C_25
    6  A    between atoms: C_3  and  S_16
    7  A    between atoms: O_4  and  C_18
    8  A    between atoms: O_4  and  C_19
    9  A    between atoms: S_6  and  C_15
   10  A    between atoms: S_6  and  C_21
   11  A    between atoms: N_10  and  C_11
   12  A    between atoms: N_10  and  C_19
   13  A    between atoms: O_13  and  C_24
   14  A    between atoms: C_15  and  C_20
   15  A    between atoms: S_16  and  C_23
   16  A    between atoms: C_17  and  C_18
   17  A    between atoms: C_20  and  C_23
   18  A    between atoms: C_21  and  C_25
                            x       y       z     vdW  Elec       q    Type
                         _______ _______ _______ _____ _____    ______ ____

>  <TORSDO>
F 18

$$$$
=
 OpenBabel10272400573D

 25 24  0  0  1  0  0  0  0  0999 V2000
  190.5330  177.6940  140.3560 C   0  0  1  0  0  3  0  0  0  0  0  0
  190.4760  175.6470  139.1050 O   0  0  0  0  0  0  0  0  0  0  0  0
  191.1440  176.6560  139.4620 C   0  0  0  0  0  0  0  0  0  0  0  0
  192.4720  176.8070  139.0600 O   0  0  0  0  0  0  0  0  0  0  0  0
  193.0690  175.9410  138.1080 C   0  0  0  0  0  1  0  0  0  0  0  0
  188.9950  177.7480  140.2460 C   0  0  1  0  0  3  0  0  0  0  0  0
  188.2960  177.7420  141.6090 C   0  0  0  0  0  2  0  0  0  0  0  0
  187.0590  178.6180  141.5660 C   0  0  0  0  0  1  0  0  0  0  0  0
  188.5290  178.7810  139.3970 O   0  0  0  0  0  0  0  0  0  0  0  0
  188.7380  178.4050  138.0570 C   0  0  0  0  0  2  0  0  0  0  0  0
  187.7630  176.4950  136.7370 C   0  0  0  0  0  1  0  0  0  0  0  0
  187.5840  177.6740  137.5640 N   0  0  0  0  0  0  0  0  0  0  0  0
  185.1880  178.3970  138.2880 C   0  0  0  0  0  3  0  0  0  0  0  0
  186.2980  178.0630  137.9520 C   0  0  0  0  0  0  0  0  0  0  0  0
  191.0270  177.5410  141.7960 C   0  0  0  0  0  2  0  0  0  0  0  0
  190.5180  175.9590  142.5480 S   0  0  0  0  0  0  0  0  0  0  0  0
  191.4210  176.3020  144.0850 C   0  0  0  0  0  2  0  0  0  0  0  0
  190.8370  177.5300  144.7600 C   0  0  0  0  0  2  0  0  0  0  0  0
  189.4640  177.2210  145.3300 C   0  0  0  0  0  2  0  0  0  0  0  0
  189.5350  177.1060  147.1420 S   0  0  0  0  0  0  0  0  0  0  0  0
  187.7550  177.4150  147.3110 C   0  0  0  0  0  2  0  0  0  0  0  0
  187.1440  177.6080  145.9400 C   0  0  0  0  0  2  0  0  0  0  0  0
  185.9760  178.5650  146.0410 C   0  0  0  0  0  2  0  0  0  0  0  0
  185.1620  178.5030  144.7650 C   0  0  0  0  0  2  0  0  0  0  0  0
  183.7560  178.9890  145.0400 C   0  0  0  0  0  1  0  0  0  0  0  0
  1 15  1  1  0  0  0
  2  3  2  0  0  0  0
  3  1  1  0  0  0  0
  4  3  1  0  0  0  0
  5  4  1  0  0  0  0
  6  1  1  0  0  0  0
  6  7  1  1  0  0  0
  8  7  1  0  0  0  0
  9  6  1  0  0  0  0
 10  9  1  0  0  0  0
 11 12  1  0  0  0  0
 12 14  1  0  0  0  0
 12 10  1  0  0  0  0
 14 13  3  0  0  0  0
 15 16  1  0  0  0  0
 16 17  1  0  0  0  0
 17 18  1  0  0  0  0
 18 19  1  0  0  0  0
 19 20  1  0  0  0  0
 20 21  1  0  0  0  0
 22 23  1  0  0  0  0
 22 21  1  0  0  0  0
 24 25  1  0  0  0  0
 24 23  1  0  0  0  0
M  END
>  <MODEL>
3

>  <REMARK>
 VINA RESULT:      -5.0      2.615      5.424
  Name = 
  18 active torsions:
  status: ('A' for Active; 'I' for Inactive)
    1  A    between atoms: C_1  and  C_3
    2  A    between atoms: C_1  and  C_18
    3  A    between atoms: C_1  and  C_24
    4  A    between atoms: C_2  and  C_7
    5  A    between atoms: C_2  and  C_25
    6  A    between atoms: C_3  and  S_16
    7  A    between atoms: O_4  and  C_18
    8  A    between atoms: O_4  and  C_19
    9  A    between atoms: S_6  and  C_15
   10  A    between atoms: S_6  and  C_21
   11  A    between atoms: N_10  and  C_11
   12  A    between atoms: N_10  and  C_19
   13  A    between atoms: O_13  and  C_24
   14  A    between atoms: C_15  and  C_20
   15  A    between atoms: S_16  and  C_23
   16  A    between atoms: C_17  and  C_18
   17  A    between atoms: C_20  and  C_23
   18  A    between atoms: C_21  and  C_25
                            x       y       z     vdW  Elec       q    Type
                         _______ _______ _______ _____ _____    ______ ____

>  <TORSDO>
F 18

$$$$
=
 OpenBabel10272400573D

 25 24  0  0  1  0  0  0  0  0999 V2000
  189.4010  178.1460  142.1000 C   0  0  1  0  0  3  0  0  0  0  0  0
  190.3090  176.0400  141.3920 O   0  0  0  0  0  0  0  0  0  0  0  0
  190.4600  177.2910  141.4690 C   0  0  0  0  0  0  0  0  0  0  0  0
  191.6260  177.8950  140.9990 O   0  0  0  0  0  0  0  0  0  0  0  0
  192.5190  177.2230  140.1240 C   0  0  0  0  0  1  0  0  0  0  0  0
  188.1270  178.2550  141.2380 C   0  0  1  0  0  3  0  0  0  0  0  0
  186.9670  178.9400  141.9670 C   0  0  0  0  0  2  0  0  0  0  0  0
  185.6550  178.6180  141.2800 C   0  0  0  0  0  1  0  0  0  0  0  0
  188.3640  178.8020  139.9530 O   0  0  0  0  0  0  0  0  0  0  0  0
  187.8460  177.9290  138.9790 C   0  0  0  0  0  2  0  0  0  0  0  0
  189.0980  178.7800  136.9660 C   0  0  0  0  0  1  0  0  0  0  0  0
  188.8260  177.7260  137.9270 N   0  0  0  0  0  0  0  0  0  0  0  0
  190.2060  175.5180  137.8510 C   0  0  0  0  0  3  0  0  0  0  0  0
  189.5670  176.5400  137.8860 C   0  0  0  0  0  0  0  0  0  0  0  0
  189.1190  177.7010  143.5370 C   0  0  0  0  0  2  0  0  0  0  0  0
  190.4190  178.2290  144.7030 S   0  0  0  0  0  0  0  0  0  0  0  0
  190.4130  176.6310  145.5640 C   0  0  0  0  0  2  0  0  0  0  0  0
  190.2400  176.8510  147.0550 C   0  0  0  0  0  2  0  0  0  0  0  0
  189.3530  178.0560  147.3160 C   0  0  0  0  0  2  0  0  0  0  0  0
  187.7660  177.5380  148.0330 S   0  0  0  0  0  0  0  0  0  0  0  0
  186.9380  177.5600  146.4190 C   0  0  0  0  0  2  0  0  0  0  0  0
  185.7130  178.4450  146.4930 C   0  0  0  0  0  2  0  0  0  0  0  0
  185.1080  178.5810  145.1130 C   0  0  0  0  0  2  0  0  0  0  0  0
  183.6940  179.1110  145.2320 C   0  0  0  0  0  2  0  0  0  0  0  0
  182.9310  178.8020  143.9620 C   0  0  0  0  0  1  0  0  0  0  0  0
  1 15  1  1  0  0  0
  2  3  2  0  0  0  0
  3  1  1  0  0  0  0
  4  3  1  0  0  0  0
  5  4  1  0  0  0  0
  6  7  1  1  0  0  0
  6  1  1  0  0  0  0
  8  7  1  0  0  0  0
  9  6  1  0  0  0  0
 10  9  1  0  0  0  0
 11 12  1  0  0  0  0
 12 10  1  0  0  0  0
 13 14  3  0  0  0  0
 14 12  1  0  0  0  0
 15 16  1  0  0  0  0
 16 17  1  0  0  0  0
 17 18  1  0  0  0  0
 18 19  1  0  0  0  0
 19 20  1  0  0  0  0
 21 22  1  0  0  0  0
 21 20  1  0  0  0  0
 23 24  1  0  0  0  0
 23 22  1  0  0  0  0
 25 24  1  0  0  0  0
M  END
>  <MODEL>
4

>  <REMARK>
 VINA RESULT:      -5.0      2.348      5.358
  Name = 
  18 active torsions:
  status: ('A' for Active; 'I' for Inactive)
    1  A    between atoms: C_1  and  C_3
    2  A    between atoms: C_1  and  C_18
    3  A    between atoms: C_1  and  C_24
    4  A    between atoms: C_2  and  C_7
    5  A    between atoms: C_2  and  C_25
    6  A    between atoms: C_3  and  S_16
    7  A    between atoms: O_4  and  C_18
    8  A    between atoms: O_4  and  C_19
    9  A    between atoms: S_6  and  C_15
   10  A    between atoms: S_6  and  C_21
   11  A    between atoms: N_10  and  C_11
   12  A    between atoms: N_10  and  C_19
   13  A    between atoms: O_13  and  C_24
   14  A    between atoms: C_15  and  C_20
   15  A    between atoms: S_16  and  C_23
   16  A    between atoms: C_17  and  C_18
   17  A    between atoms: C_20  and  C_23
   18  A    between atoms: C_21  and  C_25
                            x       y       z     vdW  Elec       q    Type
                         _______ _______ _______ _____ _____    ______ ____

>  <TORSDO>
F 18

$$$$
=
 OpenBabel10272400573D

 25 24  0  0  1  0  0  0  0  0999 V2000
  188.5200  177.7570  144.6560 C   0  0  1  0  0  3  0  0  0  0  0  0
  188.2180  177.1730  146.9640 O   0  0  0  0  0  0  0  0  0  0  0  0
  189.0250  177.4650  146.0380 C   0  0  0  0  0  0  0  0  0  0  0  0
  190.3940  177.5540  146.2920 O   0  0  0  0  0  0  0  0  0  0  0  0
  191.0680  176.6080  147.1070 C   0  0  0  0  0  1  0  0  0  0  0  0
  189.5890  177.5280  143.5680 C   0  0  1  0  0  3  0  0  0  0  0  0
  189.8300  176.0450  143.2670 C   0  0  0  0  0  2  0  0  0  0  0  0
  191.2890  175.6980  143.4850 C   0  0  0  0  0  1  0  0  0  0  0  0
  189.3710  178.2950  142.3970 O   0  0  0  0  0  0  0  0  0  0  0  0
  188.9070  177.4510  141.3730 C   0  0  0  0  0  2  0  0  0  0  0  0
  188.9600  178.3480  139.0200 C   0  0  0  0  0  1  0  0  0  0  0  0
  189.6320  177.7210  140.1440 N   0  0  0  0  0  0  0  0  0  0  0  0
  192.1840  177.2140  140.0080 C   0  0  0  0  0  3  0  0  0  0  0  0
  191.0020  177.4490  140.0710 C   0  0  0  0  0  0  0  0  0  0  0  0
  187.2120  177.0140  144.3790 C   0  0  0  0  0  2  0  0  0  0  0  0
  185.9120  178.1070  143.7100 S   0  0  0  0  0  0  0  0  0  0  0  0
  185.3050  178.5370  145.3650 C   0  0  0  0  0  2  0  0  0  0  0  0
  183.8570  178.9850  145.2810 C   0  0  0  0  0  2  0  0  0  0  0  0
  183.4060  179.0550  143.8330 C   0  0  0  0  0  2  0  0  0  0  0  0
  181.6240  178.7210  143.7020 S   0  0  0  0  0  0  0  0  0  0  0  0
  181.6680  178.7680  141.8890 C   0  0  0  0  0  2  0  0  0  0  0  0
  183.0940  178.5950  141.4140 C   0  0  0  0  0  2  0  0  0  0  0  0
  183.0960  178.2720  139.9350 C   0  0  0  0  0  2  0  0  0  0  0  0
  183.7650  179.3970  139.1740 C   0  0  0  0  0  2  0  0  0  0  0  0
  182.7180  180.3910  138.7200 C   0  0  0  0  0  1  0  0  0  0  0  0
  1 15  1  6  0  0  0
  1  3  1  0  0  0  0
  3  4  1  0  0  0  0
  3  2  2  0  0  0  0
  4  5  1  0  0  0  0
  6  7  1  6  0  0  0
  6  1  1  0  0  0  0
  7  8  1  0  0  0  0
  9  6  1  0  0  0  0
 10  9  1  0  0  0  0
 11 12  1  0  0  0  0
 12 10  1  0  0  0  0
 13 14  3  0  0  0  0
 14 12  1  0  0  0  0
 16 15  1  0  0  0  0
 16 17  1  0  0  0  0
 18 17  1  0  0  0  0
 19 18  1  0  0  0  0
 20 19  1  0  0  0  0
 21 20  1  0  0  0  0
 22 21  1  0  0  0  0
 23 22  1  0  0  0  0
 24 23  1  0  0  0  0
 25 24  1  0  0  0  0
M  END
>  <MODEL>
5

>  <REMARK>
 VINA RESULT:      -5.0      2.400      5.946
  Name = 
  18 active torsions:
  status: ('A' for Active; 'I' for Inactive)
    1  A    between atoms: C_1  and  C_3
    2  A    between atoms: C_1  and  C_18
    3  A    between atoms: C_1  and  C_24
    4  A    between atoms: C_2  and  C_7
    5  A    between atoms: C_2  and  C_25
    6  A    between atoms: C_3  and  S_16
    7  A    between atoms: O_4  and  C_18
    8  A    between atoms: O_4  and  C_19
    9  A    between atoms: S_6  and  C_15
   10  A    between atoms: S_6  and  C_21
   11  A    between atoms: N_10  and  C_11
   12  A    between atoms: N_10  and  C_19
   13  A    between atoms: O_13  and  C_24
   14  A    between atoms: C_15  and  C_20
   15  A    between atoms: S_16  and  C_23
   16  A    between atoms: C_17  and  C_18
   17  A    between atoms: C_20  and  C_23
   18  A    between atoms: C_21  and  C_25
                            x       y       z     vdW  Elec       q    Type
                         _______ _______ _______ _____ _____    ______ ____

>  <TORSDO>
F 18

$$$$
=
 OpenBabel10272400573D

 25 24  0  0  1  0  0  0  0  0999 V2000
  189.3390  177.3960  143.0530 C   0  0  1  0  0  3  0  0  0  0  0  0
  190.6850  179.1990  143.8890 O   0  0  0  0  0  0  0  0  0  0  0  0
  190.6190  177.9770  143.5760 C   0  0  0  0  0  0  0  0  0  0  0  0
  191.7420  177.1560  143.6810 O   0  0  0  0  0  0  0  0  0  0  0  0
  191.6330  175.7440  143.7670 C   0  0  0  0  0  1  0  0  0  0  0  0
  188.1600  177.5640  144.0340 C   0  0  1  0  0  3  0  0  0  0  0  0
  186.8170  177.1340  143.4350 C   0  0  0  0  0  2  0  0  0  0  0  0
  185.7970  178.2440  143.5900 C   0  0  0  0  0  1  0  0  0  0  0  0
  188.4020  176.9880  145.3050 O   0  0  0  0  0  0  0  0  0  0  0  0
  188.0380  177.9090  146.3040 C   0  0  0  0  0  2  0  0  0  0  0  0
  188.2820  177.9520  148.8110 C   0  0  0  0  0  1  0  0  0  0  0  0
  188.8370  177.6850  147.4960 N   0  0  0  0  0  0  0  0  0  0  0  0
  191.2230  176.6610  147.2820 C   0  0  0  0  0  3  0  0  0  0  0  0
  190.1180  177.1350  147.3810 C   0  0  0  0  0  0  0  0  0  0  0  0
  189.0300  177.9190  141.6480 C   0  0  0  0  0  2  0  0  0  0  0  0
  190.0070  177.0780  140.3570 S   0  0  0  0  0  0  0  0  0  0  0  0
  188.8000  177.4810  139.0630 C   0  0  0  0  0  2  0  0  0  0  0  0
  189.2790  178.6840  138.2710 C   0  0  0  0  0  2  0  0  0  0  0  0
  188.4940  178.8160  136.9780 C   0  0  0  0  0  2  0  0  0  0  0  0
  189.0780  177.6100  135.7490 S   0  0  0  0  0  0  0  0  0  0  0  0
  187.3900  177.0840  135.3460 C   0  0  0  0  0  2  0  0  0  0  0  0
  187.1030  175.7540  136.0090 C   0  0  0  0  0  2  0  0  0  0  0  0
  185.9550  175.9150  136.9820 C   0  0  0  0  0  2  0  0  0  0  0  0
  185.2910  177.2580  136.7610 C   0  0  0  0  0  2  0  0  0  0  0  0
  185.0910  177.9470  138.0930 C   0  0  0  0  0  1  0  0  0  0  0  0
  1 15  1  6  0  0  0
  1  3  1  0  0  0  0
  1  6  1  0  0  0  0
  3  4  1  0  0  0  0
  3  2  2  0  0  0  0
  4  5  1  0  0  0  0
  6  7  1  6  0  0  0
  6  9  1  0  0  0  0
  7  8  1  0  0  0  0
  9 10  1  0  0  0  0
 10 12  1  0  0  0  0
 12 11  1  0  0  0  0
 13 14  3  0  0  0  0
 14 12  1  0  0  0  0
 16 15  1  0  0  0  0
 17 16  1  0  0  0  0
 18 17  1  0  0  0  0
 19 18  1  0  0  0  0
 20 19  1  0  0  0  0
 21 20  1  0  0  0  0
 21 22  1  0  0  0  0
 22 23  1  0  0  0  0
 24 23  1  0  0  0  0
 24 25  1  0  0  0  0
M  END
>  <MODEL>
6

>  <REMARK>
 VINA RESULT:      -4.9      3.116      6.803
  Name = 
  18 active torsions:
  status: ('A' for Active; 'I' for Inactive)
    1  A    between atoms: C_1  and  C_3
    2  A    between atoms: C_1  and  C_18
    3  A    between atoms: C_1  and  C_24
    4  A    between atoms: C_2  and  C_7
    5  A    between atoms: C_2  and  C_25
    6  A    between atoms: C_3  and  S_16
    7  A    between atoms: O_4  and  C_18
    8  A    between atoms: O_4  and  C_19
    9  A    between atoms: S_6  and  C_15
   10  A    between atoms: S_6  and  C_21
   11  A    between atoms: N_10  and  C_11
   12  A    between atoms: N_10  and  C_19
   13  A    between atoms: O_13  and  C_24
   14  A    between atoms: C_15  and  C_20
   15  A    between atoms: S_16  and  C_23
   16  A    between atoms: C_17  and  C_18
   17  A    between atoms: C_20  and  C_23
   18  A    between atoms: C_21  and  C_25
                            x       y       z     vdW  Elec       q    Type
                         _______ _______ _______ _____ _____    ______ ____

>  <TORSDO>
F 18

$$$$
=
 OpenBabel10272400573D

 25 24  0  0  1  0  0  0  0  0999 V2000
  188.1190  178.8610  140.8680 C   0  0  1  0  0  3  0  0  0  0  0  0
  189.0770  179.1990  138.6940 O   0  0  0  0  0  0  0  0  0  0  0  0
  188.7600  178.3800  139.6010 C   0  0  0  0  0  0  0  0  0  0  0  0
  188.9700  177.0120  139.4260 O   0  0  0  0  0  0  0  0  0  0  0  0
  190.0320  176.5120  138.6300 C   0  0  0  0  0  1  0  0  0  0  0  0
  186.6320  178.4670  140.9750 C   0  0  1  0  0  3  0  0  0  0  0  0
  185.9120  179.1510  142.1410 C   0  0  0  0  0  2  0  0  0  0  0  0
  185.4070  178.1130  143.1240 C   0  0  0  0  0  1  0  0  0  0  0  0
  185.9290  178.5910  139.7510 O   0  0  0  0  0  0  0  0  0  0  0  0
  184.7160  179.2640  139.9820 C   0  0  0  0  0  2  0  0  0  0  0  0
  183.9460  177.7880  138.0910 C   0  0  0  0  0  1  0  0  0  0  0  0
  183.7800  178.9760  138.9100 N   0  0  0  0  0  0  0  0  0  0  0  0
  181.7120  180.5190  138.5470 C   0  0  0  0  0  3  0  0  0  0  0  0
  182.6700  179.8050  138.7150 C   0  0  0  0  0  0  0  0  0  0  0  0
  188.9390  178.4480  142.0920 C   0  0  0  0  0  2  0  0  0  0  0  0
  188.8350  176.6570  142.4330 S   0  0  0  0  0  0  0  0  0  0  0  0
  190.6390  176.4640  142.4110 C   0  0  0  0  0  2  0  0  0  0  0  0
  191.1180  175.9510  143.7570 C   0  0  0  0  0  2  0  0  0  0  0  0
  191.3990  177.1090  144.6980 C   0  0  0  0  0  2  0  0  0  0  0  0
  190.5760  176.8490  146.2970 S   0  0  0  0  0  0  0  0  0  0  0  0
  189.3380  178.1310  145.9600 C   0  0  0  0  0  2  0  0  0  0  0  0
  187.9540  177.5230  146.0140 C   0  0  0  0  0  2  0  0  0  0  0  0
  187.2150  178.0620  147.2200 C   0  0  0  0  0  2  0  0  0  0  0  0
  186.0970  178.9750  146.7600 C   0  0  0  0  0  2  0  0  0  0  0  0
  184.7980  178.2000  146.7190 C   0  0  0  0  0  1  0  0  0  0  0  0
  1  6  1  0  0  0  0
  1 15  1  1  0  0  0
  2  3  2  0  0  0  0
  3  1  1  0  0  0  0
  4  3  1  0  0  0  0
  5  4  1  0  0  0  0
  6  7  1  1  0  0  0
  7  8  1  0  0  0  0
  9 10  1  0  0  0  0
  9  6  1  0  0  0  0
 11 12  1  0  0  0  0
 12 10  1  0  0  0  0
 13 14  3  0  0  0  0
 14 12  1  0  0  0  0
 15 16  1  0  0  0  0
 17 16  1  0  0  0  0
 17 18  1  0  0  0  0
 18 19  1  0  0  0  0
 19 20  1  0  0  0  0
 21 22  1  0  0  0  0
 21 20  1  0  0  0  0
 22 23  1  0  0  0  0
 24 23  1  0  0  0  0
 25 24  1  0  0  0  0
M  END
>  <MODEL>
7

>  <REMARK>
 VINA RESULT:      -4.9      2.846      6.093
  Name = 
  18 active torsions:
  status: ('A' for Active; 'I' for Inactive)
    1  A    between atoms: C_1  and  C_3
    2  A    between atoms: C_1  and  C_18
    3  A    between atoms: C_1  and  C_24
    4  A    between atoms: C_2  and  C_7
    5  A    between atoms: C_2  and  C_25
    6  A    between atoms: C_3  and  S_16
    7  A    between atoms: O_4  and  C_18
    8  A    between atoms: O_4  and  C_19
    9  A    between atoms: S_6  and  C_15
   10  A    between atoms: S_6  and  C_21
   11  A    between atoms: N_10  and  C_11
   12  A    between atoms: N_10  and  C_19
   13  A    between atoms: O_13  and  C_24
   14  A    between atoms: C_15  and  C_20
   15  A    between atoms: S_16  and  C_23
   16  A    between atoms: C_17  and  C_18
   17  A    between atoms: C_20  and  C_23
   18  A    between atoms: C_21  and  C_25
                            x       y       z     vdW  Elec       q    Type
                         _______ _______ _______ _____ _____    ______ ____

>  <TORSDO>
F 18

$$$$
=
 OpenBabel10272400573D

 25 24  0  0  1  0  0  0  0  0999 V2000
  189.0560  176.8140  144.9870 C   0  0  1  0  0  3  0  0  0  0  0  0
  191.1630  177.2740  146.0400 O   0  0  0  0  0  0  0  0  0  0  0  0
  190.2660  177.6630  145.2410 C   0  0  0  0  0  0  0  0  0  0  0  0
  190.3690  178.9010  144.6080 O   0  0  0  0  0  0  0  0  0  0  0  0
  191.5640  179.3190  143.9660 C   0  0  0  0  0  1  0  0  0  0  0  0
  187.7730  177.3980  145.6120 C   0  0  1  0  0  3  0  0  0  0  0  0
  188.0250  178.1030  146.9490 C   0  0  0  0  0  2  0  0  0  0  0  0
  188.0720  177.0880  148.0740 C   0  0  0  0  0  1  0  0  0  0  0  0
  187.0190  178.1890  144.7110 O   0  0  0  0  0  0  0  0  0  0  0  0
  185.6520  178.0550  145.0130 C   0  0  0  0  0  2  0  0  0  0  0  0
  183.5940  179.3700  144.3950 C   0  0  0  0  0  1  0  0  0  0  0  0
  184.8560  178.7570  144.0210 N   0  0  0  0  0  0  0  0  0  0  0  0
  185.7670  179.0410  141.5970 C   0  0  0  0  0  3  0  0  0  0  0  0
  185.3450  178.9090  142.7200 C   0  0  0  0  0  0  0  0  0  0  0  0
  188.9080  176.4970  143.4970 C   0  0  0  0  0  2  0  0  0  0  0  0
  190.4000  175.7150  142.7950 S   0  0  0  0  0  0  0  0  0  0  0  0
  190.4330  176.8520  141.3810 C   0  0  0  0  0  2  0  0  0  0  0  0
  189.0440  177.4160  141.1430 C   0  0  0  0  0  2  0  0  0  0  0  0
  188.6440  177.2470  139.6880 C   0  0  0  0  0  2  0  0  0  0  0  0
  189.0770  178.7290  138.7290 S   0  0  0  0  0  0  0  0  0  0  0  0
  189.1390  177.8020  137.1720 C   0  0  0  0  0  2  0  0  0  0  0  0
  189.6950  176.4180  137.4300 C   0  0  0  0  0  2  0  0  0  0  0  0
  191.0000  176.2530  136.6810 C   0  0  0  0  0  2  0  0  0  0  0  0
  192.1300  176.0670  137.6720 C   0  0  0  0  0  2  0  0  0  0  0  0
  192.5730  174.6210  137.6670 C   0  0  0  0  0  1  0  0  0  0  0  0
  1 15  1  6  0  0  0
  1  3  1  0  0  0  0
  1  6  1  0  0  0  0
  3  2  2  0  0  0  0
  4  3  1  0  0  0  0
  5  4  1  0  0  0  0
  6  7  1  1  0  0  0
  7  8  1  0  0  0  0
  9 10  1  0  0  0  0
  9  6  1  0  0  0  0
 12 11  1  0  0  0  0
 12 10  1  0  0  0  0
 13 14  3  0  0  0  0
 14 12  1  0  0  0  0
 16 15  1  0  0  0  0
 17 16  1  0  0  0  0
 18 17  1  0  0  0  0
 19 18  1  0  0  0  0
 20 19  1  0  0  0  0
 21 22  1  0  0  0  0
 21 20  1  0  0  0  0
 23 22  1  0  0  0  0
 23 24  1  0  0  0  0
 25 24  1  0  0  0  0
M  END
>  <MODEL>
8

>  <REMARK>
 VINA RESULT:      -4.9      3.183      7.515
  Name = 
  18 active torsions:
  status: ('A' for Active; 'I' for Inactive)
    1  A    between atoms: C_1  and  C_3
    2  A    between atoms: C_1  and  C_18
    3  A    between atoms: C_1  and  C_24
    4  A    between atoms: C_2  and  C_7
    5  A    between atoms: C_2  and  C_25
    6  A    between atoms: C_3  and  S_16
    7  A    between atoms: O_4  and  C_18
    8  A    between atoms: O_4  and  C_19
    9  A    between atoms: S_6  and  C_15
   10  A    between atoms: S_6  and  C_21
   11  A    between atoms: N_10  and  C_11
   12  A    between atoms: N_10  and  C_19
   13  A    between atoms: O_13  and  C_24
   14  A    between atoms: C_15  and  C_20
   15  A    between atoms: S_16  and  C_23
   16  A    between atoms: C_17  and  C_18
   17  A    between atoms: C_20  and  C_23
   18  A    between atoms: C_21  and  C_25
                            x       y       z     vdW  Elec       q    Type
                         _______ _______ _______ _____ _____    ______ ____

>  <TORSDO>
F 18

$$$$
=
 OpenBabel10272400573D

 25 24  0  0  1  0  0  0  0  0999 V2000
  189.3480  177.2690  143.8370 C   0  0  1  0  0  3  0  0  0  0  0  0
  190.6840  179.2290  144.2020 O   0  0  0  0  0  0  0  0  0  0  0  0
  190.5520  177.9860  144.3740 C   0  0  0  0  0  0  0  0  0  0  0  0
  191.5370  177.2520  145.0360 O   0  0  0  0  0  0  0  0  0  0  0  0
  191.8180  175.9020  144.7020 C   0  0  0  0  0  1  0  0  0  0  0  0
  188.2600  177.0430  144.9060 C   0  0  1  0  0  3  0  0  0  0  0  0
  188.4740  177.8850  146.1680 C   0  0  0  0  0  2  0  0  0  0  0  0
  188.8020  176.9880  147.3450 C   0  0  0  0  0  1  0  0  0  0  0  0
  186.9420  177.1470  144.3960 O   0  0  0  0  0  0  0  0  0  0  0  0
  186.2280  178.0910  145.1560 C   0  0  0  0  0  2  0  0  0  0  0  0
  183.8470  178.9140  145.1210 C   0  0  0  0  0  1  0  0  0  0  0  0
  185.0590  178.5350  144.4170 N   0  0  0  0  0  0  0  0  0  0  0  0
  185.1860  178.7930  141.8270 C   0  0  0  0  0  3  0  0  0  0  0  0
  185.1270  178.6740  143.0260 C   0  0  0  0  0  0  0  0  0  0  0  0
  188.8180  177.9530  142.5750 C   0  0  0  0  0  2  0  0  0  0  0  0
  189.7070  177.4310  141.0690 S   0  0  0  0  0  0  0  0  0  0  0  0
  188.3880  178.0370  139.9800 C   0  0  0  0  0  2  0  0  0  0  0  0
  188.3830  177.2410  138.6870 C   0  0  0  0  0  2  0  0  0  0  0  0
  188.7990  178.1190  137.5200 C   0  0  0  0  0  2  0  0  0  0  0  0
  187.3910  178.4200  136.4120 S   0  0  0  0  0  0  0  0  0  0  0  0
  186.4960  176.9660  137.0230 C   0  0  0  0  0  2  0  0  0  0  0  0
  185.0110  177.2560  137.0400 C   0  0  0  0  0  2  0  0  0  0  0  0
  184.6890  178.1640  138.2070 C   0  0  0  0  0  2  0  0  0  0  0  0
  183.2140  178.0590  138.5360 C   0  0  0  0  0  2  0  0  0  0  0  0
  182.9680  176.8140  139.3590 C   0  0  0  0  0  1  0  0  0  0  0  0
  1 15  1  6  0  0  0
  1  3  1  0  0  0  0
  1  6  1  0  0  0  0
  2  3  2  0  0  0  0
  3  4  1  0  0  0  0
  5  4  1  0  0  0  0
  6  7  1  1  0  0  0
  7  8  1  0  0  0  0
  9  6  1  0  0  0  0
  9 10  1  0  0  0  0
 12 11  1  0  0  0  0
 12 10  1  0  0  0  0
 13 14  3  0  0  0  0
 14 12  1  0  0  0  0
 16 15  1  0  0  0  0
 17 16  1  0  0  0  0
 18 17  1  0  0  0  0
 19 18  1  0  0  0  0
 20 21  1  0  0  0  0
 20 19  1  0  0  0  0
 21 22  1  0  0  0  0
 22 23  1  0  0  0  0
 23 24  1  0  0  0  0
 24 25  1  0  0  0  0
M  END
>  <MODEL>
9

>  <REMARK>
 VINA RESULT:      -4.8      3.082      7.034
  Name = 
  18 active torsions:
  status: ('A' for Active; 'I' for Inactive)
    1  A    between atoms: C_1  and  C_3
    2  A    between atoms: C_1  and  C_18
    3  A    between atoms: C_1  and  C_24
    4  A    between atoms: C_2  and  C_7
    5  A    between atoms: C_2  and  C_25
    6  A    between atoms: C_3  and  S_16
    7  A    between atoms: O_4  and  C_18
    8  A    between atoms: O_4  and  C_19
    9  A    between atoms: S_6  and  C_15
   10  A    between atoms: S_6  and  C_21
   11  A    between atoms: N_10  and  C_11
   12  A    between atoms: N_10  and  C_19
   13  A    between atoms: O_13  and  C_24
   14  A    between atoms: C_15  and  C_20
   15  A    between atoms: S_16  and  C_23
   16  A    between atoms: C_17  and  C_18
   17  A    between atoms: C_20  and  C_23
   18  A    between atoms: C_21  and  C_25
                            x       y       z     vdW  Elec       q    Type
                         _______ _______ _______ _____ _____    ______ ____

>  <TORSDO>
F 18

$$$$
