=
 OpenBabel10272414473D

 37 42  0  0  1  0  0  0  0  0999 V2000
  189.3960  173.1100  135.5800 C   0  0  0  0  0  0  0  0  0  0  0  0
  188.8660  175.9970  137.0280 C   0  0  0  0  0  0  0  0  0  0  0  0
  190.4880  175.1630  134.7930 O   0  0  0  0  0  0  0  0  0  0  0  0
  188.2360  176.0840  138.2080 C   0  0  0  0  0  3  0  0  0  0  0  0
  188.2110  175.2510  135.8610 C   0  0  2  0  0  3  0  0  0  0  0  0
  188.6450  176.9400  139.3730 C   0  0  1  0  0  3  0  0  0  0  0  0
  190.2250  176.4670  134.3460 C   0  0  0  0  0  2  0  0  0  0  0  0
  187.2730  174.0880  136.2040 C   0  0  1  0  0  3  0  0  0  0  0  0
  190.6390  172.9700  136.4450 C   0  0  0  0  0  1  0  0  0  0  0  0
  191.2450  176.5300  137.6350 C   0  0  0  0  0  2  0  0  0  0  0  0
  190.3000  177.4390  135.5240 C   0  0  0  0  0  2  0  0  0  0  0  0
  188.1690  172.8870  136.4520 C   0  0  0  0  0  2  0  0  0  0  0  0
  190.0720  176.7570  136.7970 N   0  0  0  0  0  0  0  0  0  0  0  0
  189.2450  174.5170  134.9810 C   0  0  2  0  0  3  0  0  0  0  0  0
  190.0740  176.6490  139.8430 C   0  0  1  0  0  3  0  0  0  0  0  0
  189.4320  172.0810  134.4690 C   0  0  0  0  0  1  0  0  0  0  0  0
  191.1390  177.2800  138.9500 C   0  0  0  0  0  2  0  0  0  0  0  0
  185.4100  173.0030  137.6340 C   0  0  0  0  0  2  0  0  0  0  0  0
  184.5770  172.2930  136.5250 C   0  0  1  0  0  3  0  0  0  0  0  0
  183.1090  174.3850  136.5590 C   0  0  2  0  0  0  0  0  0  0  0  0
  183.2020  172.9180  136.1730 C   0  0  0  0  0  2  0  0  0  0  0  0
  182.8770  175.6170  135.7050 C   0  0  0  0  0  2  0  0  0  0  0  0
  185.2550  175.5020  136.8850 C   0  0  0  0  0  2  0  0  0  0  0  0
  184.2760  175.0560  135.8200 C   0  0  1  0  0  3  0  0  0  0  0  0
  183.0040  174.6500  137.9320 O   0  0  0  0  0  1  0  0  0  0  0  0
  186.1660  174.3090  137.2460 C   0  0  2  0  0  3  0  0  0  0  0  0
  185.3300  172.0850  135.3670 O   0  0  0  0  0  0  0  0  0  0  0  0
  184.6690  171.1620  134.7000 O   0  0  0  0  0  1  0  0  0  0  0  0
  191.4960  177.5070  141.7550 C   0  0  0  0  0  3  0  0  0  0  0  0
  190.2670  177.0190  141.2820 C   0  0  0  0  0  0  0  0  0  0  0  0
  189.1860  176.9050  142.1630 C   0  0  0  0  0  3  0  0  0  0  0  0
  187.9740  177.1160  144.6020 Cl  0  0  0  0  0  0  0  0  0  0  0  0
  190.5580  177.7410  143.9750 C   0  0  0  0  0  3  0  0  0  0  0  0
  189.3310  177.2630  143.5070 C   0  0  0  0  0  0  0  0  0  0  0  0
  191.6400  177.8640  143.1000 C   0  0  0  0  0  3  0  0  0  0  0  0
  188.3860  178.4220  139.1020 C   0  0  0  0  0  2  0  0  0  0  0  0
  187.1490  178.5960  138.2410 C   0  0  0  0  0  1  0  0  0  0  0  0
  1  9  1  0  0  0  0
  1 12  1  0  0  0  0
  2  4  2  0  0  0  0
  4  6  1  0  0  0  0
  5  8  1  0  0  0  0
  5  2  1  1  0  0  0
  6 36  1  6  0  0  0
  6 15  1  0  0  0  0
  7  3  1  0  0  0  0
  7 11  1  0  0  0  0
  8 12  1  1  0  0  0
  8 26  1  0  0  0  0
 10 17  1  0  0  0  0
 11 13  1  0  0  0  0
 13  2  1  0  0  0  0
 13 10  1  0  0  0  0
 14  3  1  1  0  0  0
 14  1  1  0  0  0  0
 14  5  1  0  0  0  0
 15 30  1  1  0  0  0
 16  1  1  0  0  0  0
 17 15  1  0  0  0  0
 19 27  1  6  0  0  0
 19 18  1  0  0  0  0
 20 25  1  1  0  0  0
 21 19  1  0  0  0  0
 21 20  1  0  0  0  0
 22 20  1  0  0  0  0
 24 22  1  1  0  0  0
 24 20  1  0  0  0  0
 24 23  1  0  0  0  0
 26 23  1  6  0  0  0
 26 18  1  0  0  0  0
 28 27  1  0  0  0  0
 29 35  1  0  0  0  0
 30 29  2  0  0  0  0
 30 31  1  0  0  0  0
 31 34  2  0  0  0  0
 34 33  1  0  0  0  0
 34 32  1  0  0  0  0
 35 33  2  0  0  0  0
 37 36  1  0  0  0  0
M  END
>  <MODEL>
1

>  <REMARK>
 VINA RESULT:      -6.0      0.000      0.000
  Name = 
  4 active torsions:
  status: ('A' for Active; 'I' for Inactive)
    1  A    between atoms: C_5  and  O_12
    2  A    between atoms: C_6  and  C_31
    3  A    between atoms: C_7  and  C_14
    4  A    between atoms: C_20  and  C_36
                            x       y       z     vdW  Elec       q    Type
                         _______ _______ _______ _____ _____    ______ ____

>  <TORSDO>
F 4

$$$$
=
 OpenBabel10272414473D

 37 42  0  0  1  0  0  0  0  0999 V2000
  186.9630  173.9870  136.2010 C   0  0  0  0  0  0  0  0  0  0  0  0
  184.4450  176.0080  136.7390 C   0  0  0  0  0  0  0  0  0  0  0  0
  186.8460  176.2030  135.1510 O   0  0  0  0  0  0  0  0  0  0  0  0
  183.5530  175.7720  137.7120 C   0  0  0  0  0  3  0  0  0  0  0  0
  184.7450  174.9280  135.6940 C   0  0  2  0  0  3  0  0  0  0  0  0
  183.0050  176.7820  138.6780 C   0  0  1  0  0  3  0  0  0  0  0  0
  186.0330  177.0150  134.3460 C   0  0  0  0  0  2  0  0  0  0  0  0
  184.6020  173.4640  136.1280 C   0  0  1  0  0  3  0  0  0  0  0  0
  187.7130  174.7230  137.3000 C   0  0  0  0  0  1  0  0  0  0  0  0
  185.7430  177.9570  137.6460 C   0  0  0  0  0  2  0  0  0  0  0  0
  185.1620  177.9080  135.2310 C   0  0  0  0  0  2  0  0  0  0  0  0
  185.8950  173.1130  136.8430 C   0  0  0  0  0  2  0  0  0  0  0  0
  184.9880  177.3340  136.5650 N   0  0  0  0  0  0  0  0  0  0  0  0
  186.2220  174.9380  135.2480 C   0  0  2  0  0  3  0  0  0  0  0  0
  184.1060  177.4880  139.4780 C   0  0  1  0  0  3  0  0  0  0  0  0
  187.9300  173.1250  135.4160 C   0  0  0  0  0  1  0  0  0  0  0  0
  184.8220  178.5750  138.6820 C   0  0  0  0  0  2  0  0  0  0  0  0
  183.3130  171.5180  137.2420 C   0  0  0  0  0  2  0  0  0  0  0  0
  183.3410  170.4650  136.0940 C   0  0  1  0  0  3  0  0  0  0  0  0
  181.0340  171.3720  135.4690 C   0  0  2  0  0  0  0  0  0  0  0  0
  182.0070  170.2110  135.3440 C   0  0  0  0  0  2  0  0  0  0  0  0
  180.4190  172.2620  134.4060 C   0  0  0  0  0  2  0  0  0  0  0  0
  182.0460  173.5010  136.1030 C   0  0  0  0  0  2  0  0  0  0  0  0
  181.8030  172.5840  134.9230 C   0  0  1  0  0  3  0  0  0  0  0  0
  180.4280  171.5290  136.7240 O   0  0  0  0  0  1  0  0  0  0  0  0
  183.3160  173.0240  136.8420 C   0  0  2  0  0  3  0  0  0  0  0  0
  184.3710  170.7180  135.1860 O   0  0  0  0  0  0  0  0  0  0  0  0
  185.2130  169.7200  135.3500 O   0  0  0  0  0  1  0  0  0  0  0  0
  182.2390  178.3550  140.9540 C   0  0  0  0  0  3  0  0  0  0  0  0
  183.5890  178.0070  140.7850 C   0  0  0  0  0  0  0  0  0  0  0  0
  184.4690  178.1160  141.8680 C   0  0  0  0  0  3  0  0  0  0  0  0
  185.1180  178.7120  144.4530 Cl  0  0  0  0  0  0  0  0  0  0  0  0
  182.6670  178.9300  143.2670 C   0  0  0  0  0  3  0  0  0  0  0  0
  184.0100  178.5780  143.1050 C   0  0  0  0  0  0  0  0  0  0  0  0
  181.7820  178.8170  142.1910 C   0  0  0  0  0  3  0  0  0  0  0  0
  182.0370  177.7490  137.9960 C   0  0  0  0  0  2  0  0  0  0  0  0
  180.9370  176.9850  137.2840 C   0  0  0  0  0  1  0  0  0  0  0  0
  1 12  1  0  0  0  0
  1  9  1  0  0  0  0
  2  4  2  0  0  0  0
  4  6  1  0  0  0  0
  5  8  1  0  0  0  0
  5  2  1  1  0  0  0
  6 36  1  6  0  0  0
  6 15  1  0  0  0  0
  7  3  1  0  0  0  0
  7 11  1  0  0  0  0
  8 26  1  0  0  0  0
  8 12  1  1  0  0  0
 10 17  1  0  0  0  0
 11 13  1  0  0  0  0
 13  2  1  0  0  0  0
 13 10  1  0  0  0  0
 14  3  1  1  0  0  0
 14  5  1  0  0  0  0
 14  1  1  0  0  0  0
 15 30  1  1  0  0  0
 16  1  1  0  0  0  0
 17 15  1  0  0  0  0
 19 27  1  6  0  0  0
 19 18  1  0  0  0  0
 20 25  1  1  0  0  0
 21 20  1  0  0  0  0
 21 19  1  0  0  0  0
 22 20  1  0  0  0  0
 24 22  1  6  0  0  0
 24 20  1  0  0  0  0
 24 23  1  0  0  0  0
 26 23  1  6  0  0  0
 26 18  1  0  0  0  0
 27 28  1  0  0  0  0
 29 35  1  0  0  0  0
 30 29  2  0  0  0  0
 30 31  1  0  0  0  0
 31 34  2  0  0  0  0
 34 33  1  0  0  0  0
 34 32  1  0  0  0  0
 35 33  2  0  0  0  0
 37 36  1  0  0  0  0
M  END
>  <MODEL>
2

>  <REMARK>
 VINA RESULT:      -5.6      3.437      4.902
  Name = 
  4 active torsions:
  status: ('A' for Active; 'I' for Inactive)
    1  A    between atoms: C_5  and  O_12
    2  A    between atoms: C_6  and  C_31
    3  A    between atoms: C_7  and  C_14
    4  A    between atoms: C_20  and  C_36
                            x       y       z     vdW  Elec       q    Type
                         _______ _______ _______ _____ _____    ______ ____

>  <TORSDO>
F 4

$$$$
=
 OpenBabel10272414473D

 37 42  0  0  1  0  0  0  0  0999 V2000
  184.5100  175.2520  135.1390 C   0  0  0  0  0  0  0  0  0  0  0  0
  183.6800  177.0180  137.7660 C   0  0  0  0  0  0  0  0  0  0  0  0
  182.9820  174.3740  136.8470 O   0  0  0  0  0  0  0  0  0  0  0  0
  183.9630  178.3250  137.8500 C   0  0  0  0  0  3  0  0  0  0  0  0
  184.7930  176.0080  137.4650 C   0  0  2  0  0  3  0  0  0  0  0  0
  183.0380  179.4060  138.3320 C   0  0  1  0  0  3  0  0  0  0  0  0
  182.8720  174.1190  138.2220 C   0  0  0  0  0  2  0  0  0  0  0  0
  185.9730  176.4910  136.6140 C   0  0  1  0  0  3  0  0  0  0  0  0
  183.2330  175.7450  134.4760 C   0  0  0  0  0  1  0  0  0  0  0  0
  181.1920  177.0160  137.4220 C   0  0  0  0  0  2  0  0  0  0  0  0
  182.2080  175.3100  138.9150 C   0  0  0  0  0  2  0  0  0  0  0  0
  185.5140  176.3960  135.1700 C   0  0  0  0  0  2  0  0  0  0  0  0
  182.3690  176.5390  138.1380 N   0  0  0  0  0  0  0  0  0  0  0  0
  184.2970  174.8300  136.6010 C   0  0  2  0  0  3  0  0  0  0  0  0
  181.7300  179.4580  137.5350 C   0  0  1  0  0  3  0  0  0  0  0  0
  185.0780  174.0920  134.3480 C   0  0  0  0  0  1  0  0  0  0  0  0
  180.7390  178.3690  137.9390 C   0  0  0  0  0  2  0  0  0  0  0  0
  187.8190  178.2010  136.0150 C   0  0  0  0  0  2  0  0  0  0  0  0
  189.0600  177.2620  135.9320 C   0  0  1  0  0  3  0  0  0  0  0  0
  189.4950  177.9410  138.3570 C   0  0  2  0  0  0  0  0  0  0  0  0
  190.0920  177.3600  137.0860 C   0  0  0  0  0  2  0  0  0  0  0  0
  189.3500  177.3420  139.7430 C   0  0  0  0  0  2  0  0  0  0  0  0
  187.0600  177.8450  138.4910 C   0  0  0  0  0  2  0  0  0  0  0  0
  188.3140  177.0200  138.6900 C   0  0  1  0  0  3  0  0  0  0  0  0
  189.2270  179.3180  138.3320 O   0  0  0  0  0  1  0  0  0  0  0  0
  186.6760  177.8030  136.9960 C   0  0  2  0  0  3  0  0  0  0  0  0
  188.6890  175.9330  135.7200 O   0  0  0  0  0  0  0  0  0  0  0  0
  189.6970  175.4060  135.0580 O   0  0  0  0  0  1  0  0  0  0  0  0
  180.5710  181.3370  138.7750 C   0  0  0  0  0  3  0  0  0  0  0  0
  181.1080  180.8200  137.5850 C   0  0  0  0  0  0  0  0  0  0  0  0
  181.0940  181.6020  136.4250 C   0  0  0  0  0  3  0  0  0  0  0  0
  180.5240  183.8560  134.9930 Cl  0  0  0  0  0  0  0  0  0  0  0  0
  179.9980  183.3940  137.6330 C   0  0  0  0  0  3  0  0  0  0  0  0
  180.5380  182.8860  136.4480 C   0  0  0  0  0  0  0  0  0  0  0  0
  180.0150  182.6200  138.7960 C   0  0  0  0  0  3  0  0  0  0  0  0
  182.8240  179.3340  139.8440 C   0  0  0  0  0  2  0  0  0  0  0  0
  184.1420  179.0880  140.5550 C   0  0  0  0  0  1  0  0  0  0  0  0
  1 12  1  0  0  0  0
  1 14  1  0  0  0  0
  2  4  2  0  0  0  0
  2 13  1  0  0  0  0
  3  7  1  0  0  0  0
  4  6  1  0  0  0  0
  5  2  1  6  0  0  0
  6 36  1  1  0  0  0
  7 11  1  0  0  0  0
  8 12  1  6  0  0  0
  8 26  1  0  0  0  0
  8  5  1  0  0  0  0
  9  1  1  0  0  0  0
 10 17  1  0  0  0  0
 10 13  1  0  0  0  0
 13 11  1  0  0  0  0
 14  3  1  6  0  0  0
 14  5  1  0  0  0  0
 15 30  1  1  0  0  0
 15 17  1  0  0  0  0
 15  6  1  0  0  0  0
 16  1  1  0  0  0  0
 19 27  1  1  0  0  0
 19 18  1  0  0  0  0
 19 21  1  0  0  0  0
 20 25  1  6  0  0  0
 20 24  1  0  0  0  0
 20 22  1  0  0  0  0
 21 20  1  0  0  0  0
 24 23  1  1  0  0  0
 24 22  1  0  0  0  0
 26 18  1  6  0  0  0
 26 23  1  0  0  0  0
 28 27  1  0  0  0  0
 29 35  1  0  0  0  0
 30 29  2  0  0  0  0
 31 34  2  0  0  0  0
 31 30  1  0  0  0  0
 32 34  1  0  0  0  0
 33 35  2  0  0  0  0
 34 33  1  0  0  0  0
 36 37  1  0  0  0  0
M  END
>  <MODEL>
3

>  <REMARK>
 VINA RESULT:      -5.3      4.546      8.113
  Name = 
  4 active torsions:
  status: ('A' for Active; 'I' for Inactive)
    1  A    between atoms: C_5  and  O_12
    2  A    between atoms: C_6  and  C_31
    3  A    between atoms: C_7  and  C_14
    4  A    between atoms: C_20  and  C_36
                            x       y       z     vdW  Elec       q    Type
                         _______ _______ _______ _____ _____    ______ ____

>  <TORSDO>
F 4

$$$$
=
 OpenBabel10272414473D

 37 42  0  0  1  0  0  0  0  0999 V2000
  186.9070  174.7330  136.4650 C   0  0  0  0  0  0  0  0  0  0  0  0
  185.6590  177.4750  137.7430 C   0  0  0  0  0  0  0  0  0  0  0  0
  188.0270  176.9010  136.2000 O   0  0  0  0  0  0  0  0  0  0  0  0
  184.6490  177.4410  138.6240 C   0  0  0  0  0  3  0  0  0  0  0  0
  185.5210  176.7680  136.3900 C   0  0  2  0  0  3  0  0  0  0  0  0
  184.5480  178.2430  139.8900 C   0  0  1  0  0  3  0  0  0  0  0  0
  187.8290  178.2110  135.7400 C   0  0  0  0  0  2  0  0  0  0  0  0
  184.6250  175.5250  136.3310 C   0  0  1  0  0  3  0  0  0  0  0  0
  187.7730  174.6170  137.7090 C   0  0  0  0  0  1  0  0  0  0  0  0
  187.6170  178.1210  139.1760 C   0  0  0  0  0  2  0  0  0  0  0  0
  187.4020  179.1060  136.9050 C   0  0  0  0  0  2  0  0  0  0  0  0
  185.4750  174.3720  136.8340 C   0  0  0  0  0  2  0  0  0  0  0  0
  186.7990  178.3260  137.9860 N   0  0  0  0  0  0  0  0  0  0  0  0
  186.8570  176.1640  135.9070 C   0  0  2  0  0  3  0  0  0  0  0  0
  185.7400  178.0150  140.8270 C   0  0  1  0  0  3  0  0  0  0  0  0
  187.4180  173.7850  135.3990 C   0  0  0  0  0  1  0  0  0  0  0  0
  186.9930  178.7720  140.3970 C   0  0  0  0  0  2  0  0  0  0  0  0
  182.4830  174.2250  136.9730 C   0  0  0  0  0  2  0  0  0  0  0  0
  182.1580  173.5260  135.6190 C   0  0  1  0  0  3  0  0  0  0  0  0
  180.5930  175.5020  135.1940 C   0  0  2  0  0  0  0  0  0  0  0  0
  180.9450  174.0710  134.8210 C   0  0  0  0  0  2  0  0  0  0  0  0
  180.5670  176.7630  134.3520 C   0  0  0  0  0  2  0  0  0  0  0  0
  182.3800  176.7480  136.2950 C   0  0  0  0  0  2  0  0  0  0  0  0
  181.8810  176.2980  134.9390 C   0  0  1  0  0  3  0  0  0  0  0  0
  179.9900  175.6750  136.4480 O   0  0  0  0  0  1  0  0  0  0  0  0
  183.2080  175.6040  136.9190 C   0  0  2  0  0  3  0  0  0  0  0  0
  183.2850  173.4430  134.7970 O   0  0  0  0  0  0  0  0  0  0  0  0
  183.2780  172.2060  134.3460 O   0  0  0  0  0  1  0  0  0  0  0  0
  184.1140  178.7920  142.6060 C   0  0  0  0  0  3  0  0  0  0  0  0
  185.3810  178.3000  142.2530 C   0  0  0  0  0  0  0  0  0  0  0  0
  186.3220  178.0380  143.2550 C   0  0  0  0  0  3  0  0  0  0  0  0
  187.1910  177.9460  145.8420 Cl  0  0  0  0  0  0  0  0  0  0  0  0
  184.7480  178.7730  144.9430 C   0  0  0  0  0  3  0  0  0  0  0  0
  186.0080  178.2760  144.5970 C   0  0  0  0  0  0  0  0  0  0  0  0
  183.8010  179.0300  143.9480 C   0  0  0  0  0  3  0  0  0  0  0  0
  184.2750  179.7200  139.6040 C   0  0  0  0  0  2  0  0  0  0  0  0
  182.9760  179.8810  138.8380 C   0  0  0  0  0  1  0  0  0  0  0  0
  1 12  1  0  0  0  0
  1  9  1  0  0  0  0
  2 13  1  0  0  0  0
  2  4  2  0  0  0  0
  4  6  1  0  0  0  0
  5  2  1  1  0  0  0
  6 36  1  6  0  0  0
  6 15  1  0  0  0  0
  7  3  1  0  0  0  0
  7 11  1  0  0  0  0
  8  5  1  0  0  0  0
  8 12  1  1  0  0  0
  8 26  1  0  0  0  0
 10 17  1  0  0  0  0
 11 13  1  0  0  0  0
 13 10  1  0  0  0  0
 14  3  1  1  0  0  0
 14  5  1  0  0  0  0
 14  1  1  0  0  0  0
 15 30  1  1  0  0  0
 16  1  1  0  0  0  0
 17 15  1  0  0  0  0
 19 27  1  6  0  0  0
 19 18  1  0  0  0  0
 20 25  1  1  0  0  0
 21 20  1  0  0  0  0
 21 19  1  0  0  0  0
 22 20  1  0  0  0  0
 24 22  1  6  0  0  0
 24 20  1  0  0  0  0
 24 23  1  0  0  0  0
 26 23  1  6  0  0  0
 26 18  1  0  0  0  0
 28 27  1  0  0  0  0
 29 35  1  0  0  0  0
 30 29  2  0  0  0  0
 30 31  1  0  0  0  0
 31 34  2  0  0  0  0
 34 33  1  0  0  0  0
 34 32  1  0  0  0  0
 35 33  2  0  0  0  0
 37 36  1  0  0  0  0
M  END
>  <MODEL>
4

>  <REMARK>
 VINA RESULT:      -5.3      2.797      3.918
  Name = 
  4 active torsions:
  status: ('A' for Active; 'I' for Inactive)
    1  A    between atoms: C_5  and  O_12
    2  A    between atoms: C_6  and  C_31
    3  A    between atoms: C_7  and  C_14
    4  A    between atoms: C_20  and  C_36
                            x       y       z     vdW  Elec       q    Type
                         _______ _______ _______ _____ _____    ______ ____

>  <TORSDO>
F 4

$$$$
=
 OpenBabel10272414473D

 37 42  0  0  1  0  0  0  0  0999 V2000
  187.9420  175.2350  136.1580 C   0  0  0  0  0  0  0  0  0  0  0  0
  187.4310  177.5610  138.4020 C   0  0  0  0  0  0  0  0  0  0  0  0
  189.1590  177.3660  136.1010 O   0  0  0  0  0  0  0  0  0  0  0  0
  186.7310  177.3160  139.5190 C   0  0  0  0  0  3  0  0  0  0  0  0
  186.8240  177.2480  137.0300 C   0  0  2  0  0  3  0  0  0  0  0  0
  187.0970  177.7490  140.9100 C   0  0  1  0  0  3  0  0  0  0  0  0
  188.9750  178.7560  136.0670 C   0  0  0  0  0  2  0  0  0  0  0  0
  185.8220  176.0900  136.9490 C   0  0  1  0  0  3  0  0  0  0  0  0
  189.1210  174.7660  136.9960 C   0  0  0  0  0  1  0  0  0  0  0  0
  189.7850  177.7490  139.2590 C   0  0  0  0  0  2  0  0  0  0  0  0
  189.0120  179.3140  137.4910 C   0  0  0  0  0  2  0  0  0  0  0  0
  186.6540  174.8230  136.8560 C   0  0  0  0  0  2  0  0  0  0  0  0
  188.6770  178.2870  138.4770 N   0  0  0  0  0  0  0  0  0  0  0  0
  187.8830  176.7640  136.0180 C   0  0  2  0  0  3  0  0  0  0  0  0
  188.4820  177.2480  141.3360 C   0  0  1  0  0  3  0  0  0  0  0  0
  188.0090  174.5970  134.7850 C   0  0  0  0  0  1  0  0  0  0  0  0
  189.6240  178.0620  140.7360 C   0  0  0  0  0  2  0  0  0  0  0  0
  183.7540  174.7840  137.7920 C   0  0  0  0  0  2  0  0  0  0  0  0
  182.9500  174.6380  136.4660 C   0  0  1  0  0  3  0  0  0  0  0  0
  181.6920  176.7300  137.2240 C   0  0  2  0  0  0  0  0  0  0  0  0
  181.6740  175.5080  136.3200 C   0  0  0  0  0  2  0  0  0  0  0  0
  181.6480  178.2080  136.8860 C   0  0  0  0  0  2  0  0  0  0  0  0
  183.9000  177.3830  138.0310 C   0  0  0  0  0  2  0  0  0  0  0  0
  182.9730  177.4820  136.8380 C   0  0  1  0  0  3  0  0  0  0  0  0
  181.5000  176.4810  138.5910 O   0  0  0  0  0  1  0  0  0  0  0  0
  184.6610  176.0420  137.9540 C   0  0  2  0  0  3  0  0  0  0  0  0
  183.7710  174.7830  135.3460 O   0  0  0  0  0  0  0  0  0  0  0  0
  182.9570  175.1550  134.3800 O   0  0  0  0  0  1  0  0  0  0  0  0
  187.4570  177.0520  143.6430 C   0  0  0  0  0  3  0  0  0  0  0  0
  188.5960  177.1470  142.8260 C   0  0  0  0  0  0  0  0  0  0  0  0
  189.8670  177.1150  143.4100 C   0  0  0  0  0  3  0  0  0  0  0  0
  191.5970  176.9640  145.5170 Cl  0  0  0  0  0  0  0  0  0  0  0  0
  188.8680  176.9140  145.6070 C   0  0  0  0  0  3  0  0  0  0  0  0
  190.0030  177.0010  144.7970 C   0  0  0  0  0  0  0  0  0  0  0  0
  187.5950  176.9380  145.0300 C   0  0  0  0  0  3  0  0  0  0  0  0
  186.9120  179.2550  141.1000 C   0  0  0  0  0  2  0  0  0  0  0  0
  185.6050  179.5430  141.8130 C   0  0  0  0  0  1  0  0  0  0  0  0
  1 12  1  0  0  0  0
  1  9  1  0  0  0  0
  2 13  1  0  0  0  0
  2  4  2  0  0  0  0
  4  6  1  0  0  0  0
  5  2  1  1  0  0  0
  6 36  1  6  0  0  0
  6 15  1  0  0  0  0
  7  3  1  0  0  0  0
  7 11  1  0  0  0  0
  8 12  1  1  0  0  0
  8  5  1  0  0  0  0
  8 26  1  0  0  0  0
 10 17  1  0  0  0  0
 11 13  1  0  0  0  0
 13 10  1  0  0  0  0
 14  3  1  1  0  0  0
 14  1  1  0  0  0  0
 14  5  1  0  0  0  0
 15 30  1  1  0  0  0
 16  1  1  0  0  0  0
 17 15  1  0  0  0  0
 19 27  1  6  0  0  0
 19 18  1  0  0  0  0
 20 25  1  1  0  0  0
 21 19  1  0  0  0  0
 21 20  1  0  0  0  0
 22 20  1  0  0  0  0
 24 22  1  1  0  0  0
 24 20  1  0  0  0  0
 24 23  1  0  0  0  0
 26 18  1  6  0  0  0
 26 23  1  0  0  0  0
 28 27  1  0  0  0  0
 29 35  1  0  0  0  0
 30 31  1  0  0  0  0
 30 29  2  0  0  0  0
 31 34  2  0  0  0  0
 34 32  1  0  0  0  0
 34 33  1  0  0  0  0
 35 33  2  0  0  0  0
 36 37  1  0  0  0  0
M  END
>  <MODEL>
5

>  <REMARK>
 VINA RESULT:      -5.0      2.077      2.887
  Name = 
  4 active torsions:
  status: ('A' for Active; 'I' for Inactive)
    1  A    between atoms: C_5  and  O_12
    2  A    between atoms: C_6  and  C_31
    3  A    between atoms: C_7  and  C_14
    4  A    between atoms: C_20  and  C_36
                            x       y       z     vdW  Elec       q    Type
                         _______ _______ _______ _____ _____    ______ ____

>  <TORSDO>
F 4

$$$$
=
 OpenBabel10272414473D

 37 42  0  0  1  0  0  0  0  0999 V2000
  190.6780  177.1060  139.9900 C   0  0  0  0  0  0  0  0  0  0  0  0
  189.0930  176.4840  137.1950 C   0  0  0  0  0  0  0  0  0  0  0  0
  189.1620  178.7500  138.9770 O   0  0  0  0  0  0  0  0  0  0  0  0
  189.0530  175.2500  136.6720 C   0  0  0  0  0  3  0  0  0  0  0  0
  190.4400  177.1280  137.5390 C   0  0  2  0  0  3  0  0  0  0  0  0
  187.8440  174.5670  136.0990 C   0  0  1  0  0  3  0  0  0  0  0  0
  188.9170  179.4620  137.7940 C   0  0  0  0  0  2  0  0  0  0  0  0
  191.5880  176.1950  137.9410 C   0  0  1  0  0  3  0  0  0  0  0  0
  189.4310  176.6490  140.7310 C   0  0  0  0  0  1  0  0  0  0  0  0
  186.7490  176.7980  138.0400 C   0  0  0  0  0  2  0  0  0  0  0  0
  187.9040  178.7020  136.9370 C   0  0  0  0  0  2  0  0  0  0  0  0
  191.3760  175.8830  139.4130 C   0  0  0  0  0  2  0  0  0  0  0  0
  187.8880  177.2760  137.2650 N   0  0  0  0  0  0  0  0  0  0  0  0
  190.3580  178.0200  138.7960 C   0  0  2  0  0  3  0  0  0  0  0  0
  186.6880  174.4790  137.1020 C   0  0  1  0  0  3  0  0  0  0  0  0
  191.6060  177.8230  140.9500 C   0  0  0  0  0  1  0  0  0  0  0  0
  185.9270  175.7930  137.2540 C   0  0  0  0  0  2  0  0  0  0  0  0
  192.9180  173.9900  137.6980 C   0  0  0  0  0  2  0  0  0  0  0  0
  194.3660  174.5010  137.9620 C   0  0  1  0  0  3  0  0  0  0  0  0
  194.5640  174.6700  135.4190 C   0  0  2  0  0  0  0  0  0  0  0  0
  195.3150  174.5830  136.7370 C   0  0  0  0  0  2  0  0  0  0  0  0
  194.5610  175.7490  134.3540 C   0  0  0  0  0  2  0  0  0  0  0  0
  192.2410  175.3980  135.6020 C   0  0  0  0  0  2  0  0  0  0  0  0
  193.6670  175.9070  135.5620 C   0  0  1  0  0  3  0  0  0  0  0  0
  193.9370  173.4890  134.9950 O   0  0  0  0  0  1  0  0  0  0  0  0
  191.9070  174.9850  137.0510 C   0  0  2  0  0  3  0  0  0  0  0  0
  194.3680  175.7090  138.6630 O   0  0  0  0  0  0  0  0  0  0  0  0
  195.2800  175.5510  139.5980 O   0  0  0  0  0  1  0  0  0  0  0  0
  184.4630  173.2870  137.2970 C   0  0  0  0  0  3  0  0  0  0  0  0
  185.7690  173.3390  136.7850 C   0  0  0  0  0  0  0  0  0  0  0  0
  186.2170  172.3220  135.9350 C   0  0  0  0  0  3  0  0  0  0  0  0
  185.9430  169.9890  134.5430 Cl  0  0  0  0  0  0  0  0  0  0  0  0
  184.0770  171.2040  136.1240 C   0  0  0  0  0  3  0  0  0  0  0  0
  185.3740  171.2560  135.6060 C   0  0  0  0  0  0  0  0  0  0  0  0
  183.6210  172.2200  136.9680 C   0  0  0  0  0  3  0  0  0  0  0  0
  187.4370  175.1710  134.7560 C   0  0  0  0  0  2  0  0  0  0  0  0
  188.4110  176.2590  134.3460 C   0  0  0  0  0  1  0  0  0  0  0  0
  1  9  1  0  0  0  0
  1 16  1  0  0  0  0
  2 13  1  0  0  0  0
  4  2  2  0  0  0  0
  5  2  1  1  0  0  0
  5  8  1  0  0  0  0
  5 14  1  0  0  0  0
  6 36  1  6  0  0  0
  6  4  1  0  0  0  0
  6 15  1  0  0  0  0
  7  3  1  0  0  0  0
  8 12  1  1  0  0  0
 11 13  1  0  0  0  0
 11  7  1  0  0  0  0
 12  1  1  0  0  0  0
 13 10  1  0  0  0  0
 14  3  1  1  0  0  0
 14  1  1  0  0  0  0
 15 30  1  6  0  0  0
 15 17  1  0  0  0  0
 17 10  1  0  0  0  0
 18 19  1  0  0  0  0
 19 27  1  6  0  0  0
 20 25  1  6  0  0  0
 20 24  1  0  0  0  0
 20 21  1  0  0  0  0
 21 19  1  0  0  0  0
 22 20  1  0  0  0  0
 24 22  1  6  0  0  0
 24 23  1  0  0  0  0
 26 23  1  6  0  0  0
 26 18  1  0  0  0  0
 26  8  1  0  0  0  0
 27 28  1  0  0  0  0
 30 29  2  0  0  0  0
 31 30  1  0  0  0  0
 32 34  1  0  0  0  0
 33 35  2  0  0  0  0
 34 31  2  0  0  0  0
 34 33  1  0  0  0  0
 35 29  1  0  0  0  0
 37 36  1  0  0  0  0
M  END
>  <MODEL>
6

>  <REMARK>
 VINA RESULT:      -5.0      3.660      8.000
  Name = 
  4 active torsions:
  status: ('A' for Active; 'I' for Inactive)
    1  A    between atoms: C_5  and  O_12
    2  A    between atoms: C_6  and  C_31
    3  A    between atoms: C_7  and  C_14
    4  A    between atoms: C_20  and  C_36
                            x       y       z     vdW  Elec       q    Type
                         _______ _______ _______ _____ _____    ______ ____

>  <TORSDO>
F 4

$$$$
=
 OpenBabel10272414473D

 37 42  0  0  1  0  0  0  0  0999 V2000
  186.6240  176.4990  135.3450 C   0  0  0  0  0  0  0  0  0  0  0  0
  184.7820  177.0230  137.9990 C   0  0  0  0  0  0  0  0  0  0  0  0
  184.9280  174.8810  136.0730 O   0  0  0  0  0  0  0  0  0  0  0  0
  184.7480  178.2190  138.6040 C   0  0  0  0  0  3  0  0  0  0  0  0
  186.1240  176.3260  137.7500 C   0  0  2  0  0  3  0  0  0  0  0  0
  183.5200  178.9300  139.0970 C   0  0  1  0  0  3  0  0  0  0  0  0
  184.5220  174.1060  137.1700 C   0  0  0  0  0  2  0  0  0  0  0  0
  187.3540  177.2170  137.5380 C   0  0  1  0  0  3  0  0  0  0  0  0
  185.4880  177.0760  134.5150 C   0  0  0  0  0  1  0  0  0  0  0  0
  182.5290  176.9010  136.8960 C   0  0  0  0  0  2  0  0  0  0  0  0
  183.4620  174.8640  137.9700 C   0  0  0  0  0  2  0  0  0  0  0  0
  187.3170  177.6390  136.0790 C   0  0  0  0  0  2  0  0  0  0  0  0
  183.5530  176.3070  137.7470 N   0  0  0  0  0  0  0  0  0  0  0  0
  186.1330  175.5270  136.4300 C   0  0  2  0  0  3  0  0  0  0  0  0
  182.4840  179.1510  137.9890 C   0  0  1  0  0  3  0  0  0  0  0  0
  187.6120  175.7970  134.4370 C   0  0  0  0  0  1  0  0  0  0  0  0
  181.6790  177.8970  137.6630 C   0  0  0  0  0  2  0  0  0  0  0  0
  189.1000  178.8740  138.4830 C   0  0  0  0  0  2  0  0  0  0  0  0
  190.2420  177.8900  138.8780 C   0  0  1  0  0  3  0  0  0  0  0  0
  189.2160  177.9440  141.2180 C   0  0  2  0  0  0  0  0  0  0  0  0
  190.4540  177.6350  140.3930 C   0  0  0  0  0  2  0  0  0  0  0  0
  188.3710  177.0490  142.1030 C   0  0  0  0  0  2  0  0  0  0  0  0
  187.1260  178.0050  139.9590 C   0  0  0  0  0  2  0  0  0  0  0  0
  188.1140  177.0630  140.6140 C   0  0  1  0  0  3  0  0  0  0  0  0
  188.9120  179.3040  141.3760 O   0  0  0  0  0  1  0  0  0  0  0  0
  187.6360  178.3450  138.5420 C   0  0  2  0  0  3  0  0  0  0  0  0
  190.1420  176.6800  138.1870 O   0  0  0  0  0  0  0  0  0  0  0  0
  190.8750  175.8370  138.8830 O   0  0  0  0  0  1  0  0  0  0  0  0
  180.8430  180.3780  139.4760 C   0  0  0  0  0  3  0  0  0  0  0  0
  181.5950  180.3180  138.2910 C   0  0  0  0  0  0  0  0  0  0  0  0
  181.5400  181.3830  137.3860 C   0  0  0  0  0  3  0  0  0  0  0  0
  180.6720  183.8210  136.5130 Cl  0  0  0  0  0  0  0  0  0  0  0  0
  179.9820  182.5470  138.8290 C   0  0  0  0  0  3  0  0  0  0  0  0
  180.7350  182.4950  137.6520 C   0  0  0  0  0  0  0  0  0  0  0  0
  180.0370  181.4900  139.7410 C   0  0  0  0  0  3  0  0  0  0  0  0
  182.9410  178.2610  140.3430 C   0  0  0  0  0  2  0  0  0  0  0  0
  183.9380  178.3150  141.4860 C   0  0  0  0  0  1  0  0  0  0  0  0
  1 12  1  0  0  0  0
  1 14  1  0  0  0  0
  2  4  2  0  0  0  0
  3  7  1  0  0  0  0
  4  6  1  0  0  0  0
  5  2  1  6  0  0  0
  6 36  1  1  0  0  0
  7 11  1  0  0  0  0
  8 12  1  6  0  0  0
  8  5  1  0  0  0  0
  8 26  1  0  0  0  0
  9  1  1  0  0  0  0
 10 17  1  0  0  0  0
 10 13  1  0  0  0  0
 13 11  1  0  0  0  0
 13  2  1  0  0  0  0
 14  3  1  6  0  0  0
 14  5  1  0  0  0  0
 15 30  1  1  0  0  0
 15  6  1  0  0  0  0
 16  1  1  0  0  0  0
 17 15  1  0  0  0  0
 18 19  1  0  0  0  0
 19 27  1  6  0  0  0
 19 21  1  0  0  0  0
 20 25  1  1  0  0  0
 20 22  1  0  0  0  0
 21 20  1  0  0  0  0
 24 23  1  1  0  0  0
 24 20  1  0  0  0  0
 24 22  1  0  0  0  0
 26 18  1  1  0  0  0
 26 23  1  0  0  0  0
 27 28  1  0  0  0  0
 29 35  1  0  0  0  0
 30 29  2  0  0  0  0
 31 34  2  0  0  0  0
 31 30  1  0  0  0  0
 32 34  1  0  0  0  0
 33 35  2  0  0  0  0
 34 33  1  0  0  0  0
 36 37  1  0  0  0  0
M  END
>  <MODEL>
7

>  <REMARK>
 VINA RESULT:      -4.4      4.467      7.804
  Name = 
  4 active torsions:
  status: ('A' for Active; 'I' for Inactive)
    1  A    between atoms: C_5  and  O_12
    2  A    between atoms: C_6  and  C_31
    3  A    between atoms: C_7  and  C_14
    4  A    between atoms: C_20  and  C_36
                            x       y       z     vdW  Elec       q    Type
                         _______ _______ _______ _____ _____    ______ ____

>  <TORSDO>
F 4

$$$$
=
 OpenBabel10272414473D

 37 42  0  0  1  0  0  0  0  0999 V2000
  189.2660  174.7680  136.3740 C   0  0  0  0  0  0  0  0  0  0  0  0
  187.6580  177.2000  137.8610 C   0  0  0  0  0  0  0  0  0  0  0  0
  189.9790  177.1060  136.1510 O   0  0  0  0  0  0  0  0  0  0  0  0
  186.7320  176.9570  138.7990 C   0  0  0  0  0  3  0  0  0  0  0  0
  187.5510  176.5320  136.4860 C   0  0  2  0  0  3  0  0  0  0  0  0
  186.5820  177.6790  140.1080 C   0  0  1  0  0  3  0  0  0  0  0  0
  189.5280  178.3790  135.7700 C   0  0  0  0  0  2  0  0  0  0  0  0
  186.8780  175.1560  136.4190 C   0  0  1  0  0  3  0  0  0  0  0  0
  190.2230  174.7550  137.5560 C   0  0  0  0  0  1  0  0  0  0  0  0
  189.5710  178.1200  139.2030 C   0  0  0  0  0  2  0  0  0  0  0  0
  189.0360  179.1400  137.0020 C   0  0  0  0  0  2  0  0  0  0  0  0
  187.9450  174.1490  136.8110 C   0  0  0  0  0  2  0  0  0  0  0  0
  188.6510  178.2260  138.0770 N   0  0  0  0  0  0  0  0  0  0  0  0
  188.9340  176.1890  135.8930 C   0  0  2  0  0  3  0  0  0  0  0  0
  187.8570  177.6260  140.9580 C   0  0  1  0  0  3  0  0  0  0  0  0
  189.8580  173.9650  135.2340 C   0  0  0  0  0  1  0  0  0  0  0  0
  188.9300  178.6050  140.4910 C   0  0  0  0  0  2  0  0  0  0  0  0
  185.0580  173.4750  137.1620 C   0  0  0  0  0  2  0  0  0  0  0  0
  184.7800  172.7430  135.8140 C   0  0  1  0  0  3  0  0  0  0  0  0
  182.8540  174.4010  135.5340 C   0  0  2  0  0  0  0  0  0  0  0  0
  183.4380  173.0640  135.1070 C   0  0  0  0  0  2  0  0  0  0  0  0
  182.5420  175.6450  134.7250 C   0  0  0  0  0  2  0  0  0  0  0  0
  184.4490  175.9430  136.5510 C   0  0  0  0  0  2  0  0  0  0  0  0
  183.9540  175.4240  135.2180 C   0  0  1  0  0  3  0  0  0  0  0  0
  182.3120  174.4450  136.8260 O   0  0  0  0  0  1  0  0  0  0  0  0
  185.5130  174.9640  137.0950 C   0  0  2  0  0  3  0  0  0  0  0  0
  185.8470  172.8790  134.9230 O   0  0  0  0  0  0  0  0  0  0  0  0
  186.2410  171.6460  134.6840 O   0  0  0  0  0  1  0  0  0  0  0  0
  186.2480  178.0360  142.8690 C   0  0  0  0  0  3  0  0  0  0  0  0
  187.5540  177.7880  142.4160 C   0  0  0  0  0  0  0  0  0  0  0  0
  188.5920  177.6580  143.3440 C   0  0  0  0  0  3  0  0  0  0  0  0
  189.6400  177.6220  145.8660 Cl  0  0  0  0  0  0  0  0  0  0  0  0
  187.0350  178.0390  145.1590 C   0  0  0  0  0  3  0  0  0  0  0  0
  188.3340  177.7850  144.7130 C   0  0  0  0  0  0  0  0  0  0  0  0
  185.9910  178.1640  144.2380 C   0  0  0  0  0  3  0  0  0  0  0  0
  186.0430  179.0960  139.9130 C   0  0  0  0  0  2  0  0  0  0  0  0
  184.5890  179.0550  139.4810 C   0  0  0  0  0  1  0  0  0  0  0  0
  1 12  1  0  0  0  0
  1  9  1  0  0  0  0
  2 13  1  0  0  0  0
  2  4  2  0  0  0  0
  4  6  1  0  0  0  0
  5  2  1  1  0  0  0
  6 36  1  6  0  0  0
  6 15  1  0  0  0  0
  7  3  1  0  0  0  0
  7 11  1  0  0  0  0
  8  5  1  0  0  0  0
  8 12  1  1  0  0  0
  8 26  1  0  0  0  0
 10 17  1  0  0  0  0
 11 13  1  0  0  0  0
 13 10  1  0  0  0  0
 14  3  1  1  0  0  0
 14  1  1  0  0  0  0
 14  5  1  0  0  0  0
 15 30  1  1  0  0  0
 16  1  1  0  0  0  0
 17 15  1  0  0  0  0
 19 27  1  6  0  0  0
 19 18  1  0  0  0  0
 20 25  1  1  0  0  0
 21 20  1  0  0  0  0
 21 19  1  0  0  0  0
 22 20  1  0  0  0  0
 24 22  1  6  0  0  0
 24 20  1  0  0  0  0
 24 23  1  0  0  0  0
 26 23  1  6  0  0  0
 26 18  1  0  0  0  0
 28 27  1  0  0  0  0
 29 35  1  0  0  0  0
 30 29  2  0  0  0  0
 30 31  1  0  0  0  0
 31 34  2  0  0  0  0
 34 33  1  0  0  0  0
 34 32  1  0  0  0  0
 35 33  2  0  0  0  0
 37 36  1  0  0  0  0
M  END
>  <MODEL>
8

>  <REMARK>
 VINA RESULT:      -4.4      1.755      2.355
  Name = 
  4 active torsions:
  status: ('A' for Active; 'I' for Inactive)
    1  A    between atoms: C_5  and  O_12
    2  A    between atoms: C_6  and  C_31
    3  A    between atoms: C_7  and  C_14
    4  A    between atoms: C_20  and  C_36
                            x       y       z     vdW  Elec       q    Type
                         _______ _______ _______ _____ _____    ______ ____

>  <TORSDO>
F 4

$$$$
=
 OpenBabel10272414473D

 37 42  0  0  1  0  0  0  0  0999 V2000
  185.7860  175.7660  136.6270 C   0  0  0  0  0  0  0  0  0  0  0  0
  187.2500  177.9540  138.5720 C   0  0  0  0  0  0  0  0  0  0  0  0
  187.7590  177.0270  135.8890 O   0  0  0  0  0  0  0  0  0  0  0  0
  186.9540  178.0410  139.8770 C   0  0  0  0  0  3  0  0  0  0  0  0
  186.1330  178.0330  137.5250 C   0  0  2  0  0  3  0  0  0  0  0  0
  187.9380  178.1840  141.0030 C   0  0  1  0  0  3  0  0  0  0  0  0
  188.2550  178.3290  135.7240 C   0  0  0  0  0  2  0  0  0  0  0  0
  184.7470  177.5200  137.9300 C   0  0  1  0  0  3  0  0  0  0  0  0
  186.8110  174.7470  137.1000 C   0  0  0  0  0  1  0  0  0  0  0  0
  189.5430  176.9300  138.5950 C   0  0  0  0  0  2  0  0  0  0  0  0
  189.0420  178.7400  136.9690 C   0  0  0  0  0  2  0  0  0  0  0  0
  184.7910  176.0120  137.7520 C   0  0  0  0  0  2  0  0  0  0  0  0
  188.6280  177.9720  138.1430 N   0  0  0  0  0  0  0  0  0  0  0  0
  186.4120  177.1320  136.3030 C   0  0  2  0  0  3  0  0  0  0  0  0
  188.9710  177.0520  141.0280 C   0  0  1  0  0  3  0  0  0  0  0  0
  185.0630  175.2320  135.4080 C   0  0  0  0  0  1  0  0  0  0  0  0
  190.0730  177.2240  139.9870 C   0  0  0  0  0  2  0  0  0  0  0  0
  182.9730  177.1020  139.7660 C   0  0  0  0  0  2  0  0  0  0  0  0
  181.6810  177.0160  138.8990 C   0  0  1  0  0  3  0  0  0  0  0  0
  181.3790  179.4940  139.4500 C   0  0  2  0  0  0  0  0  0  0  0  0
  180.7030  178.2170  138.9790 C   0  0  0  0  0  2  0  0  0  0  0  0
  181.5470  180.8340  138.7600 C   0  0  0  0  0  2  0  0  0  0  0  0
  183.8090  179.5180  139.2210 C   0  0  0  0  0  2  0  0  0  0  0  0
  182.5220  179.7210  138.4500 C   0  0  1  0  0  3  0  0  0  0  0  0
  181.7200  179.5390  140.8090 O   0  0  0  0  0  1  0  0  0  0  0  0
  184.1310  178.0080  139.2500 C   0  0  2  0  0  3  0  0  0  0  0  0
  181.9720  176.7100  137.5680 O   0  0  0  0  0  0  0  0  0  0  0  0
  180.8280  176.3010  137.0620 O   0  0  0  0  0  1  0  0  0  0  0  0
  190.8710  176.4720  142.5980 C   0  0  0  0  0  3  0  0  0  0  0  0
  189.5330  176.8490  142.4020 C   0  0  0  0  0  0  0  0  0  0  0  0
  188.7110  177.0730  143.5120 C   0  0  0  0  0  3  0  0  0  0  0  0
  188.1780  177.1920  146.1880 Cl  0  0  0  0  0  0  0  0  0  0  0  0
  190.5450  176.5290  144.9970 C   0  0  0  0  0  3  0  0  0  0  0  0
  189.2140  176.9110  144.8060 C   0  0  0  0  0  0  0  0  0  0  0  0
  191.3740  176.3100  143.8930 C   0  0  0  0  0  3  0  0  0  0  0  0
  188.5650  179.5770  141.0320 C   0  0  0  0  0  2  0  0  0  0  0  0
  189.0720  179.9020  142.4240 C   0  0  0  0  0  1  0  0  0  0  0  0
  1  9  1  0  0  0  0
  1 12  1  0  0  0  0
  2  4  2  0  0  0  0
  4  6  1  0  0  0  0
  5  8  1  0  0  0  0
  5  2  1  1  0  0  0
  6 15  1  0  0  0  0
  6 36  1  6  0  0  0
  7  3  1  0  0  0  0
  7 11  1  0  0  0  0
  8 12  1  1  0  0  0
  8 26  1  0  0  0  0
 10 17  1  0  0  0  0
 11 13  1  0  0  0  0
 13  2  1  0  0  0  0
 13 10  1  0  0  0  0
 14  3  1  1  0  0  0
 14  1  1  0  0  0  0
 14  5  1  0  0  0  0
 15 30  1  1  0  0  0
 16  1  1  0  0  0  0
 17 15  1  0  0  0  0
 19 27  1  6  0  0  0
 19 21  1  0  0  0  0
 19 18  1  0  0  0  0
 20 25  1  1  0  0  0
 21 20  1  0  0  0  0
 22 20  1  0  0  0  0
 24 22  1  1  0  0  0
 24 23  1  0  0  0  0
 24 20  1  0  0  0  0
 26 23  1  6  0  0  0
 26 18  1  0  0  0  0
 28 27  1  0  0  0  0
 29 35  1  0  0  0  0
 30 29  2  0  0  0  0
 30 31  1  0  0  0  0
 31 34  2  0  0  0  0
 34 33  1  0  0  0  0
 34 32  1  0  0  0  0
 35 33  2  0  0  0  0
 36 37  1  0  0  0  0
M  END
>  <MODEL>
9

>  <REMARK>
 VINA RESULT:      -4.2      2.808      4.122
  Name = 
  4 active torsions:
  status: ('A' for Active; 'I' for Inactive)
    1  A    between atoms: C_5  and  O_12
    2  A    between atoms: C_6  and  C_31
    3  A    between atoms: C_7  and  C_14
    4  A    between atoms: C_20  and  C_36
                            x       y       z     vdW  Elec       q    Type
                         _______ _______ _______ _____ _____    ______ ____

>  <TORSDO>
F 4

$$$$
