=
 OpenBabel10272401483D

 28 30  0  0  1  0  0  0  0  0999 V2000
  190.3500  175.7220  143.6410 O   0  0  0  0  0  0  0  0  0  0  0  0
  190.5280  176.9840  143.0590 C   0  0  2  0  0  3  0  0  0  0  0  0
  191.7220  177.1010  145.8720 C   0  0  0  0  0  2  0  0  0  0  0  0
  190.9840  179.3600  143.7450 C   0  0  0  0  0  1  0  0  0  0  0  0
  191.7640  175.6030  145.5640 C   0  0  0  0  0  2  0  0  0  0  0  0
  190.3680  177.7570  145.5460 C   0  0  1  0  0  3  0  0  0  0  0  0
  191.6250  175.3390  144.0720 C   0  0  0  0  0  2  0  0  0  0  0  0
  190.1840  178.1080  144.0620 C   0  0  2  0  0  3  0  0  0  0  0  0
  189.6650  177.0890  141.7920 C   0  0  1  0  0  3  0  0  0  0  0  0
  188.5140  177.8080  139.2840 C   0  0  0  0  0  3  0  0  0  0  0  0
  188.9410  178.4310  141.6910 C   0  0  0  0  0  2  0  0  0  0  0  0
  191.5810  177.7260  140.4700 O   0  0  0  0  0  1  0  0  0  0  0  0
  190.4810  176.8640  140.5060 C   0  0  2  0  0  3  0  0  0  0  0  0
  189.6450  177.0850  139.2710 C   0  0  0  0  0  3  0  0  0  0  0  0
  187.9240  178.3720  140.5530 C   0  0  0  0  0  2  0  0  0  0  0  0
  189.2420  176.9660  146.0340 N   0  0  0  0  0  2  0  0  0  0  0  0
  188.1360  177.5140  148.4120 S   0  0  0  0  0  0  0  0  0  0  0  0
  188.1390  177.5050  146.7740 C   0  0  0  0  0  0  0  0  0  0  0  0
  186.8420  177.9610  144.7570 C   0  0  0  0  0  3  0  0  0  0  0  0
  186.9970  178.0930  146.0700 C   0  0  0  0  0  3  0  0  0  0  0  0
  184.5620  178.8420  145.0730 C   0  0  0  0  0  2  0  0  0  0  0  0
  185.1810  177.5930  142.9980 C   0  0  0  0  0  2  0  0  0  0  0  0
  182.6080  179.0800  143.4620 C   0  0  1  0  0  3  0  0  0  0  0  0
  185.6710  178.5650  144.0620 C   0  0  2  0  0  3  0  0  0  0  0  0
  183.2870  178.9750  142.1250 C   0  0  0  0  0  3  0  0  0  0  0  0
  184.4330  178.3130  141.9160 C   0  0  0  0  0  3  0  0  0  0  0  0
  182.1730  177.8400  143.9000 F   0  0  0  0  0  0  0  0  0  0  0  0
  183.4860  179.7670  144.5070 C   0  0  0  0  0  2  0  0  0  0  0  0
  1  7  1  0  0  0  0
  2  1  1  1  0  0  0
  2  8  1  0  0  0  0
  5  3  1  0  0  0  0
  6  3  1  0  0  0  0
  6 16  1  6  0  0  0
  7  5  1  0  0  0  0
  8  4  1  6  0  0  0
  8  6  1  0  0  0  0
  9 11  1  6  0  0  0
  9  2  1  0  0  0  0
 10 15  1  0  0  0  0
 13 12  1  6  0  0  0
 13  9  1  0  0  0  0
 14 10  2  0  0  0  0
 14 13  1  0  0  0  0
 15 11  1  0  0  0  0
 16 18  1  0  0  0  0
 18 17  2  0  0  0  0
 19 20  2  0  0  0  0
 20 18  1  0  0  0  0
 22 24  1  0  0  0  0
 23 27  1  1  0  0  0
 23 28  1  0  0  0  0
 24 19  1  1  0  0  0
 24 21  1  0  0  0  0
 25 23  1  0  0  0  0
 26 25  2  0  0  0  0
 26 22  1  0  0  0  0
 28 21  1  0  0  0  0
M  END
>  <MODEL>
1

>  <REMARK>
 VINA RESULT:      -8.5      0.000      0.000
  Name = 
  5 active torsions:
  status: ('A' for Active; 'I' for Inactive)
    1  A    between atoms: C_2  and  C_3
    2  A    between atoms: N_5  and  C_20
    3  A    between atoms: N_5  and  C_21
    4  A    between atoms: C_10  and  C_13
    5  A    between atoms: C_20  and  C_25
                            x       y       z     vdW  Elec       q    Type
                         _______ _______ _______ _____ _____    ______ ____

>  <TORSDO>
F 5

$$$$
=
 OpenBabel10272401483D

 28 30  0  0  1  0  0  0  0  0999 V2000
  190.6620  176.1030  143.3370 O   0  0  0  0  0  0  0  0  0  0  0  0
  190.9350  177.4310  142.9820 C   0  0  2  0  0  3  0  0  0  0  0  0
  191.4160  177.1740  145.9900 C   0  0  0  0  0  2  0  0  0  0  0  0
  191.1410  179.6960  144.0560 C   0  0  0  0  0  1  0  0  0  0  0  0
  191.5770  175.7310  145.5120 C   0  0  0  0  0  2  0  0  0  0  0  0
  190.1600  177.8690  145.4340 C   0  0  1  0  0  3  0  0  0  0  0  0
  191.8080  175.6660  144.0110 C   0  0  0  0  0  2  0  0  0  0  0  0
  190.3260  178.4130  144.0070 C   0  0  2  0  0  3  0  0  0  0  0  0
  190.3990  177.7030  141.5670 C   0  0  1  0  0  3  0  0  0  0  0  0
  189.0240  177.6230  139.0710 C   0  0  0  0  0  3  0  0  0  0  0  0
  190.7510  176.5840  140.5870 C   0  0  0  0  0  2  0  0  0  0  0  0
  188.2220  176.8490  142.1660 O   0  0  0  0  0  1  0  0  0  0  0  0
  188.8740  177.9200  141.5490 C   0  0  2  0  0  3  0  0  0  0  0  0
  188.3520  178.0700  140.1440 C   0  0  0  0  0  3  0  0  0  0  0  0
  190.4080  177.0300  139.1680 C   0  0  0  0  0  2  0  0  0  0  0  0
  188.9750  177.0220  145.5290 N   0  0  0  0  0  2  0  0  0  0  0  0
  187.5370  178.1720  147.4760 S   0  0  0  0  0  0  0  0  0  0  0  0
  187.6990  177.4710  146.0040 C   0  0  0  0  0  0  0  0  0  0  0  0
  185.9320  178.3940  144.5960 C   0  0  0  0  0  3  0  0  0  0  0  0
  186.5100  177.3380  145.1590 C   0  0  0  0  0  3  0  0  0  0  0  0
  185.1440  178.1580  142.2720 C   0  0  0  0  0  2  0  0  0  0  0  0
  183.8090  179.4320  143.9590 C   0  0  0  0  0  2  0  0  0  0  0  0
  182.9030  178.6840  141.1900 C   0  0  1  0  0  3  0  0  0  0  0  0
  184.7240  178.2360  143.7370 C   0  0  2  0  0  3  0  0  0  0  0  0
  181.9890  178.7600  142.3800 C   0  0  0  0  0  3  0  0  0  0  0  0
  182.3900  179.0940  143.6150 C   0  0  0  0  0  3  0  0  0  0  0  0
  183.4160  179.9320  140.8740 F   0  0  0  0  0  0  0  0  0  0  0  0
  184.0150  177.6530  141.3770 C   0  0  0  0  0  2  0  0  0  0  0  0
  1  7  1  0  0  0  0
  2  1  1  1  0  0  0
  2  8  1  0  0  0  0
  5  3  1  0  0  0  0
  6 16  1  6  0  0  0
  6  3  1  0  0  0  0
  7  5  1  0  0  0  0
  8  4  1  1  0  0  0
  8  6  1  0  0  0  0
  9 11  1  6  0  0  0
  9  2  1  0  0  0  0
 10 15  1  0  0  0  0
 10 14  2  0  0  0  0
 13  9  1  0  0  0  0
 13 12  1  6  0  0  0
 14 13  1  0  0  0  0
 15 11  1  0  0  0  0
 16 18  1  0  0  0  0
 18 17  2  0  0  0  0
 19 20  2  0  0  0  0
 20 18  1  0  0  0  0
 21 24  1  0  0  0  0
 23 27  1  1  0  0  0
 23 28  1  0  0  0  0
 23 25  1  0  0  0  0
 24 22  1  0  0  0  0
 24 19  1  1  0  0  0
 25 26  2  0  0  0  0
 26 22  1  0  0  0  0
 28 21  1  0  0  0  0
M  END
>  <MODEL>
2

>  <REMARK>
 VINA RESULT:      -8.1      1.211      1.978
  Name = 
  5 active torsions:
  status: ('A' for Active; 'I' for Inactive)
    1  A    between atoms: C_2  and  C_3
    2  A    between atoms: N_5  and  C_20
    3  A    between atoms: N_5  and  C_21
    4  A    between atoms: C_10  and  C_13
    5  A    between atoms: C_20  and  C_25
                            x       y       z     vdW  Elec       q    Type
                         _______ _______ _______ _____ _____    ______ ____

>  <TORSDO>
F 5

$$$$
=
 OpenBabel10272401483D

 28 30  0  0  1  0  0  0  0  0999 V2000
  190.3350  178.6100  143.7330 O   0  0  0  0  0  0  0  0  0  0  0  0
  189.6510  177.5190  144.2850 C   0  0  2  0  0  3  0  0  0  0  0  0
  190.8360  176.5990  141.6200 C   0  0  0  0  0  2  0  0  0  0  0  0
  188.6560  175.3220  143.5680 C   0  0  0  0  0  1  0  0  0  0  0  0
  191.7370  177.7790  141.9850 C   0  0  0  0  0  2  0  0  0  0  0  0
  189.3340  176.9030  141.7690 C   0  0  1  0  0  3  0  0  0  0  0  0
  191.6210  178.1310  143.4600 C   0  0  0  0  0  2  0  0  0  0  0  0
  188.8130  176.7910  143.2100 C   0  0  2  0  0  3  0  0  0  0  0  0
  188.7650  178.0030  145.4440 C   0  0  1  0  0  3  0  0  0  0  0  0
  187.1340  178.2160  147.7730 C   0  0  0  0  0  3  0  0  0  0  0  0
  187.3650  177.3930  145.3990 C   0  0  0  0  0  2  0  0  0  0  0  0
  189.7170  176.3590  146.9340 O   0  0  0  0  0  1  0  0  0  0  0  0
  189.3910  177.7140  146.8210 C   0  0  2  0  0  3  0  0  0  0  0  0
  188.4590  178.0900  147.9440 C   0  0  0  0  0  3  0  0  0  0  0  0
  186.4740  178.0980  146.4200 C   0  0  0  0  0  2  0  0  0  0  0  0
  188.9740  178.1930  141.1890 N   0  0  0  0  0  2  0  0  0  0  0  0
  188.3700  178.1580  138.5780 S   0  0  0  0  0  0  0  0  0  0  0  0
  187.9930  178.3680  140.1580 C   0  0  0  0  0  0  0  0  0  0  0  0
  186.1950  178.7300  141.7690 C   0  0  0  0  0  3  0  0  0  0  0  0
  186.6110  178.7100  140.5080 C   0  0  0  0  0  3  0  0  0  0  0  0
  184.6460  179.2640  143.6110 C   0  0  0  0  0  2  0  0  0  0  0  0
  183.8760  177.9610  141.6210 C   0  0  0  0  0  2  0  0  0  0  0  0
  182.1180  179.0560  143.8020 C   0  0  1  0  0  3  0  0  0  0  0  0
  184.7860  179.0830  142.1020 C   0  0  2  0  0  3  0  0  0  0  0  0
  181.7010  178.9500  142.3620 C   0  0  0  0  0  3  0  0  0  0  0  0
  182.4820  178.4620  141.3880 C   0  0  0  0  0  3  0  0  0  0  0  0
  182.3220  177.8030  144.3560 F   0  0  0  0  0  0  0  0  0  0  0  0
  183.3390  179.9570  143.9880 C   0  0  0  0  0  2  0  0  0  0  0  0
  2  1  1  6  0  0  0
  2  9  1  0  0  0  0
  3  6  1  0  0  0  0
  3  5  1  0  0  0  0
  5  7  1  0  0  0  0
  6 16  1  1  0  0  0
  6  8  1  0  0  0  0
  7  1  1  0  0  0  0
  8  4  1  1  0  0  0
  8  2  1  0  0  0  0
  9 11  1  1  0  0  0
  9 13  1  0  0  0  0
 10 14  2  0  0  0  0
 11 15  1  0  0  0  0
 13 12  1  6  0  0  0
 13 14  1  0  0  0  0
 15 10  1  0  0  0  0
 17 18  2  0  0  0  0
 18 20  1  0  0  0  0
 18 16  1  0  0  0  0
 20 19  2  0  0  0  0
 21 28  1  0  0  0  0
 22 24  1  0  0  0  0
 23 28  1  0  0  0  0
 23 27  1  6  0  0  0
 24 19  1  1  0  0  0
 24 21  1  0  0  0  0
 25 23  1  0  0  0  0
 26 22  1  0  0  0  0
 26 25  2  0  0  0  0
M  END
>  <MODEL>
3

>  <REMARK>
 VINA RESULT:      -7.6      2.668      4.759
  Name = 
  5 active torsions:
  status: ('A' for Active; 'I' for Inactive)
    1  A    between atoms: C_2  and  C_3
    2  A    between atoms: N_5  and  C_20
    3  A    between atoms: N_5  and  C_21
    4  A    between atoms: C_10  and  C_13
    5  A    between atoms: C_20  and  C_25
                            x       y       z     vdW  Elec       q    Type
                         _______ _______ _______ _____ _____    ______ ____

>  <TORSDO>
F 5

$$$$
=
 OpenBabel10272401483D

 28 30  0  0  1  0  0  0  0  0999 V2000
  188.6790  175.4750  137.9050 O   0  0  0  0  0  0  0  0  0  0  0  0
  188.2860  176.7300  137.4240 C   0  0  2  0  0  3  0  0  0  0  0  0
  191.2450  176.9250  138.1680 C   0  0  0  0  0  2  0  0  0  0  0  0
  189.0410  179.1290  137.4930 C   0  0  0  0  0  1  0  0  0  0  0  0
  191.0670  175.4240  137.9350 C   0  0  0  0  0  2  0  0  0  0  0  0
  190.1510  177.5420  139.0570 C   0  0  1  0  0  3  0  0  0  0  0  0
  189.8010  175.1300  137.1450 C   0  0  0  0  0  2  0  0  0  0  0  0
  188.8460  177.8630  138.3120 C   0  0  2  0  0  3  0  0  0  0  0  0
  186.7520  176.7930  137.3490 C   0  0  1  0  0  3  0  0  0  0  0  0
  184.0360  177.5020  136.8460 C   0  0  0  0  0  3  0  0  0  0  0  0
  186.1850  178.0190  138.0630 C   0  0  0  0  0  2  0  0  0  0  0  0
  186.8420  177.7890  135.1520 O   0  0  0  0  0  1  0  0  0  0  0  0
  186.2340  176.7760  135.8980 C   0  0  2  0  0  3  0  0  0  0  0  0
  184.7380  176.9540  135.8410 C   0  0  0  0  0  3  0  0  0  0  0  0
  184.6660  177.8880  138.1620 C   0  0  0  0  0  2  0  0  0  0  0  0
  189.8840  176.7330  140.2420 N   0  0  0  0  0  2  0  0  0  0  0  0
  191.2910  177.3860  142.4280 S   0  0  0  0  0  0  0  0  0  0  0  0
  189.8950  177.2400  141.5840 C   0  0  0  0  0  0  0  0  0  0  0  0
  187.9410  176.8580  142.9970 C   0  0  0  0  0  3  0  0  0  0  0  0
  188.6470  177.6710  142.2180 C   0  0  0  0  0  3  0  0  0  0  0  0
  185.8660  178.1360  142.6320 C   0  0  0  0  0  2  0  0  0  0  0  0
  187.0230  178.1690  144.8480 C   0  0  0  0  0  2  0  0  0  0  0  0
  184.3090  179.3230  144.2560 C   0  0  1  0  0  3  0  0  0  0  0  0
  186.6760  177.3180  143.6340 C   0  0  2  0  0  3  0  0  0  0  0  0
  184.6860  178.6960  145.5690 C   0  0  0  0  0  3  0  0  0  0  0  0
  185.8950  178.1810  145.8350 C   0  0  0  0  0  3  0  0  0  0  0  0
  185.0420  180.4750  144.0240 F   0  0  0  0  0  0  0  0  0  0  0  0
  184.4240  178.3420  143.0900 C   0  0  0  0  0  2  0  0  0  0  0  0
  2  1  1  1  0  0  0
  2  8  1  0  0  0  0
  3  6  1  0  0  0  0
  5  3  1  0  0  0  0
  6 16  1  1  0  0  0
  7  1  1  0  0  0  0
  7  5  1  0  0  0  0
  8  4  1  6  0  0  0
  8  6  1  0  0  0  0
  9  2  1  0  0  0  0
  9 11  1  6  0  0  0
 10 15  1  0  0  0  0
 11 15  1  0  0  0  0
 13 12  1  6  0  0  0
 13  9  1  0  0  0  0
 14 13  1  0  0  0  0
 14 10  2  0  0  0  0
 16 18  1  0  0  0  0
 18 20  1  0  0  0  0
 18 17  2  0  0  0  0
 20 19  2  0  0  0  0
 21 28  1  0  0  0  0
 21 24  1  0  0  0  0
 22 26  1  0  0  0  0
 23 27  1  6  0  0  0
 23 25  1  0  0  0  0
 24 19  1  6  0  0  0
 24 22  1  0  0  0  0
 25 26  2  0  0  0  0
 28 23  1  0  0  0  0
M  END
>  <MODEL>
4

>  <REMARK>
 VINA RESULT:      -7.5      3.315      5.300
  Name = 
  5 active torsions:
  status: ('A' for Active; 'I' for Inactive)
    1  A    between atoms: C_2  and  C_3
    2  A    between atoms: N_5  and  C_20
    3  A    between atoms: N_5  and  C_21
    4  A    between atoms: C_10  and  C_13
    5  A    between atoms: C_20  and  C_25
                            x       y       z     vdW  Elec       q    Type
                         _______ _______ _______ _____ _____    ______ ____

>  <TORSDO>
F 5

$$$$
=
 OpenBabel10272401483D

 28 30  0  0  1  0  0  0  0  0999 V2000
  189.9990  178.6300  143.9820 O   0  0  0  0  0  0  0  0  0  0  0  0
  189.1570  177.6030  144.4280 C   0  0  2  0  0  3  0  0  0  0  0  0
  190.9110  176.4450  142.2070 C   0  0  0  0  0  2  0  0  0  0  0  0
  188.2750  175.3790  143.6520 C   0  0  0  0  0  1  0  0  0  0  0  0
  191.7450  177.6300  142.6940 C   0  0  0  0  0  2  0  0  0  0  0  0
  189.4320  176.7940  141.9630 C   0  0  1  0  0  3  0  0  0  0  0  0
  191.2920  178.1020  144.0670 C   0  0  0  0  0  2  0  0  0  0  0  0
  188.5740  176.8100  143.2370 C   0  0  2  0  0  3  0  0  0  0  0  0
  188.0390  178.1990  145.2980 C   0  0  1  0  0  3  0  0  0  0  0  0
  185.8710  178.6280  147.1000 C   0  0  0  0  0  3  0  0  0  0  0  0
  186.6550  177.6930  144.8920 C   0  0  0  0  0  2  0  0  0  0  0  0
  188.4220  176.5520  147.0210 O   0  0  0  0  0  1  0  0  0  0  0  0
  188.2510  177.9210  146.7980 C   0  0  2  0  0  3  0  0  0  0  0  0
  187.0890  178.4120  147.6230 C   0  0  0  0  0  3  0  0  0  0  0  0
  185.5870  178.5030  145.6230 C   0  0  0  0  0  2  0  0  0  0  0  0
  189.2770  178.0410  141.2200 N   0  0  0  0  0  2  0  0  0  0  0  0
  189.3780  177.9160  138.5450 S   0  0  0  0  0  0  0  0  0  0  0  0
  188.5940  178.1510  139.9640 C   0  0  0  0  0  0  0  0  0  0  0  0
  186.4920  178.7960  141.0240 C   0  0  0  0  0  3  0  0  0  0  0  0
  187.1600  178.4480  139.9290 C   0  0  0  0  0  3  0  0  0  0  0  0
  184.2990  178.2740  142.0210 C   0  0  0  0  0  2  0  0  0  0  0  0
  184.5200  178.7450  139.5760 C   0  0  0  0  0  2  0  0  0  0  0  0
  181.9380  178.4550  141.0920 C   0  0  1  0  0  3  0  0  0  0  0  0
  185.0340  179.0950  140.9650 C   0  0  2  0  0  3  0  0  0  0  0  0
  182.1280  179.3880  139.9290 C   0  0  0  0  0  3  0  0  0  0  0  0
  183.2770  179.5180  139.2510 C   0  0  0  0  0  3  0  0  0  0  0  0
  182.0570  177.1330  140.6960 F   0  0  0  0  0  0  0  0  0  0  0  0
  182.8770  178.7780  142.2540 C   0  0  0  0  0  2  0  0  0  0  0  0
  1  7  1  0  0  0  0
  2  1  1  6  0  0  0
  2  9  1  0  0  0  0
  3  5  1  0  0  0  0
  5  7  1  0  0  0  0
  6 16  1  1  0  0  0
  6  3  1  0  0  0  0
  6  8  1  0  0  0  0
  8  4  1  1  0  0  0
  8  2  1  0  0  0  0
  9 11  1  6  0  0  0
  9 13  1  0  0  0  0
 10 14  2  0  0  0  0
 11 15  1  0  0  0  0
 13 12  1  6  0  0  0
 13 14  1  0  0  0  0
 15 10  1  0  0  0  0
 17 18  2  0  0  0  0
 18 16  1  0  0  0  0
 20 18  1  0  0  0  0
 20 19  2  0  0  0  0
 21 28  1  0  0  0  0
 22 24  1  0  0  0  0
 23 27  1  6  0  0  0
 23 28  1  0  0  0  0
 24 19  1  6  0  0  0
 24 21  1  0  0  0  0
 25 23  1  0  0  0  0
 26 22  1  0  0  0  0
 26 25  2  0  0  0  0
M  END
>  <MODEL>
5

>  <REMARK>
 VINA RESULT:      -7.4      2.768      4.988
  Name = 
  5 active torsions:
  status: ('A' for Active; 'I' for Inactive)
    1  A    between atoms: C_2  and  C_3
    2  A    between atoms: N_5  and  C_20
    3  A    between atoms: N_5  and  C_21
    4  A    between atoms: C_10  and  C_13
    5  A    between atoms: C_20  and  C_25
                            x       y       z     vdW  Elec       q    Type
                         _______ _______ _______ _____ _____    ______ ____

>  <TORSDO>
F 5

$$$$
=
 OpenBabel10272401483D

 28 30  0  0  1  0  0  0  0  0999 V2000
  189.6520  175.2260  138.1040 O   0  0  0  0  0  0  0  0  0  0  0  0
  189.0020  176.4220  137.7730 C   0  0  2  0  0  3  0  0  0  0  0  0
  191.7230  177.1600  138.9560 C   0  0  0  0  0  2  0  0  0  0  0  0
  189.1080  178.8740  138.3240 C   0  0  0  0  0  1  0  0  0  0  0  0
  191.9590  175.7300  138.4690 C   0  0  0  0  0  2  0  0  0  0  0  0
  190.4240  177.3280  139.7640 C   0  0  1  0  0  3  0  0  0  0  0  0
  190.8960  175.3010  137.4690 C   0  0  0  0  0  2  0  0  0  0  0  0
  189.1620  177.4680  138.8990 C   0  0  2  0  0  3  0  0  0  0  0  0
  187.5190  176.1360  137.4890 C   0  0  1  0  0  3  0  0  0  0  0  0
  184.9540  175.7680  136.2980 C   0  0  0  0  0  3  0  0  0  0  0  0
  186.7760  177.3730  136.9840 C   0  0  0  0  0  2  0  0  0  0  0  0
  188.0480  175.2430  135.3100 O   0  0  0  0  0  1  0  0  0  0  0  0
  187.3250  174.9910  136.4780 C   0  0  2  0  0  3  0  0  0  0  0  0
  185.8710  174.8030  136.1250 C   0  0  0  0  0  3  0  0  0  0  0  0
  185.2760  177.0850  136.9600 C   0  0  0  0  0  2  0  0  0  0  0  0
  190.2540  176.2720  140.7580 N   0  0  0  0  0  2  0  0  0  0  0  0
  190.9870  176.3190  143.3350 S   0  0  0  0  0  0  0  0  0  0  0  0
  189.8960  176.5030  142.1270 C   0  0  0  0  0  0  0  0  0  0  0  0
  188.0810  176.8820  143.7140 C   0  0  0  0  0  3  0  0  0  0  0  0
  188.5420  176.9440  142.4690 C   0  0  0  0  0  3  0  0  0  0  0  0
  186.1150  178.0930  142.8490 C   0  0  0  0  0  2  0  0  0  0  0  0
  186.7640  178.2490  145.2590 C   0  0  0  0  0  2  0  0  0  0  0  0
  184.2270  179.3110  144.0410 C   0  0  1  0  0  3  0  0  0  0  0  0
  186.7010  177.3390  144.0400 C   0  0  2  0  0  3  0  0  0  0  0  0
  184.3190  178.7510  145.4320 C   0  0  0  0  0  3  0  0  0  0  0  0
  185.4490  178.2770  145.9780 C   0  0  0  0  0  3  0  0  0  0  0  0
  184.9760  180.4690  143.9180 F   0  0  0  0  0  0  0  0  0  0  0  0
  184.6060  178.2830  142.9750 C   0  0  0  0  0  2  0  0  0  0  0  0
  2  1  1  1  0  0  0
  2  8  1  0  0  0  0
  3  6  1  0  0  0  0
  5  3  1  0  0  0  0
  6 16  1  1  0  0  0
  7  1  1  0  0  0  0
  7  5  1  0  0  0  0
  8  4  1  6  0  0  0
  8  6  1  0  0  0  0
  9 11  1  6  0  0  0
  9  2  1  0  0  0  0
 10 15  1  0  0  0  0
 13 12  1  6  0  0  0
 13  9  1  0  0  0  0
 14 10  2  0  0  0  0
 14 13  1  0  0  0  0
 15 11  1  0  0  0  0
 16 18  1  0  0  0  0
 18 20  1  0  0  0  0
 18 17  2  0  0  0  0
 20 19  2  0  0  0  0
 21 28  1  0  0  0  0
 21 24  1  0  0  0  0
 22 26  1  0  0  0  0
 23 27  1  1  0  0  0
 23 25  1  0  0  0  0
 24 19  1  6  0  0  0
 24 22  1  0  0  0  0
 25 26  2  0  0  0  0
 28 23  1  0  0  0  0
M  END
>  <MODEL>
6

>  <REMARK>
 VINA RESULT:      -7.4      3.162      4.947
  Name = 
  5 active torsions:
  status: ('A' for Active; 'I' for Inactive)
    1  A    between atoms: C_2  and  C_3
    2  A    between atoms: N_5  and  C_20
    3  A    between atoms: N_5  and  C_21
    4  A    between atoms: C_10  and  C_13
    5  A    between atoms: C_20  and  C_25
                            x       y       z     vdW  Elec       q    Type
                         _______ _______ _______ _____ _____    ______ ____

>  <TORSDO>
F 5

$$$$
=
 OpenBabel10272401483D

 28 30  0  0  1  0  0  0  0  0999 V2000
  188.7850  178.8970  138.3180 O   0  0  0  0  0  0  0  0  0  0  0  0
  188.8260  177.4980  138.3830 C   0  0  2  0  0  3  0  0  0  0  0  0
  186.8330  178.2500  136.1910 C   0  0  0  0  0  2  0  0  0  0  0  0
  187.4460  175.5090  137.7020 C   0  0  0  0  0  1  0  0  0  0  0  0
  187.7150  179.4970  136.2680 C   0  0  0  0  0  2  0  0  0  0  0  0
  186.3610  177.7450  137.5660 C   0  0  1  0  0  3  0  0  0  0  0  0
  189.0290  179.2040  136.9750 C   0  0  0  0  0  2  0  0  0  0  0  0
  187.4030  176.8990  138.3130 C   0  0  2  0  0  3  0  0  0  0  0  0
  189.5460  177.0670  139.6710 C   0  0  1  0  0  3  0  0  0  0  0  0
  190.8480  176.9600  142.2050 C   0  0  0  0  0  3  0  0  0  0  0  0
  190.9420  177.6770  139.7880 C   0  0  0  0  0  2  0  0  0  0  0  0
  188.4080  178.7720  140.9470 O   0  0  0  0  0  1  0  0  0  0  0  0
  188.7410  177.4150  140.9380 C   0  0  2  0  0  3  0  0  0  0  0  0
  189.5120  177.0900  142.1910 C   0  0  0  0  0  3  0  0  0  0  0  0
  191.6840  177.0200  140.9500 C   0  0  0  0  0  2  0  0  0  0  0  0
  185.8720  178.8290  138.4120 N   0  0  0  0  0  2  0  0  0  0  0  0
  183.2390  178.8590  138.9100 S   0  0  0  0  0  0  0  0  0  0  0  0
  184.8060  178.6940  139.3600 C   0  0  0  0  0  0  0  0  0  0  0  0
  184.2070  178.5650  141.7240 C   0  0  0  0  0  3  0  0  0  0  0  0
  185.1000  178.3700  140.7590 C   0  0  0  0  0  3  0  0  0  0  0  0
  183.8290  179.2120  144.0720 C   0  0  0  0  0  2  0  0  0  0  0  0
  186.0360  178.3000  143.3290 C   0  0  0  0  0  2  0  0  0  0  0  0
  185.2020  178.8070  146.1740 C   0  0  1  0  0  3  0  0  0  0  0  0
  184.5270  178.2260  143.1390 C   0  0  2  0  0  3  0  0  0  0  0  0
  186.1010  177.6790  145.7510 C   0  0  0  0  0  3  0  0  0  0  0  0
  186.4740  177.4510  144.4840 C   0  0  0  0  0  3  0  0  0  0  0  0
  185.8020  180.0350  145.9470 F   0  0  0  0  0  0  0  0  0  0  0  0
  183.8240  178.7280  145.5200 C   0  0  0  0  0  2  0  0  0  0  0  0
  2  1  1  1  0  0  0
  2  9  1  0  0  0  0
  3  5  1  0  0  0  0
  3  6  1  0  0  0  0
  5  7  1  0  0  0  0
  6  8  1  0  0  0  0
  6 16  1  1  0  0  0
  7  1  1  0  0  0  0
  8  4  1  6  0  0  0
  8  2  1  0  0  0  0
  9 11  1  1  0  0  0
  9 13  1  0  0  0  0
 11 15  1  0  0  0  0
 13 12  1  6  0  0  0
 13 14  1  0  0  0  0
 14 10  2  0  0  0  0
 15 10  1  0  0  0  0
 16 18  1  0  0  0  0
 17 18  2  0  0  0  0
 18 20  1  0  0  0  0
 20 19  2  0  0  0  0
 21 28  1  0  0  0  0
 22 26  1  0  0  0  0
 23 27  1  6  0  0  0
 24 19  1  6  0  0  0
 24 22  1  0  0  0  0
 24 21  1  0  0  0  0
 25 23  1  0  0  0  0
 26 25  2  0  0  0  0
 28 23  1  0  0  0  0
M  END
>  <MODEL>
7

>  <REMARK>
 VINA RESULT:      -7.1      3.396      6.008
  Name = 
  5 active torsions:
  status: ('A' for Active; 'I' for Inactive)
    1  A    between atoms: C_2  and  C_3
    2  A    between atoms: N_5  and  C_20
    3  A    between atoms: N_5  and  C_21
    4  A    between atoms: C_10  and  C_13
    5  A    between atoms: C_20  and  C_25
                            x       y       z     vdW  Elec       q    Type
                         _______ _______ _______ _____ _____    ______ ____

>  <TORSDO>
F 5

$$$$
=
 OpenBabel10272401483D

 28 30  0  0  1  0  0  0  0  0999 V2000
  188.2440  175.4950  137.8210 O   0  0  0  0  0  0  0  0  0  0  0  0
  187.8540  176.7070  137.2360 C   0  0  2  0  0  3  0  0  0  0  0  0
  190.8200  176.9470  137.9350 C   0  0  0  0  0  2  0  0  0  0  0  0
  188.6220  179.0980  137.0930 C   0  0  0  0  0  1  0  0  0  0  0  0
  190.6330  175.4330  137.8340 C   0  0  0  0  0  2  0  0  0  0  0  0
  189.7380  177.6450  138.7780 C   0  0  1  0  0  3  0  0  0  0  0  0
  189.3580  175.0800  137.0830 C   0  0  0  0  0  2  0  0  0  0  0  0
  188.4280  177.9090  138.0190 C   0  0  2  0  0  3  0  0  0  0  0  0
  186.3190  176.7720  137.1700 C   0  0  1  0  0  3  0  0  0  0  0  0
  183.6020  177.4800  136.6720 C   0  0  0  0  0  3  0  0  0  0  0  0
  185.7600  178.0120  137.8670 C   0  0  0  0  0  2  0  0  0  0  0  0
  186.3980  177.7320  134.9560 O   0  0  0  0  0  1  0  0  0  0  0  0
  185.7930  176.7330  135.7230 C   0  0  2  0  0  3  0  0  0  0  0  0
  184.2970  176.9130  135.6720 C   0  0  0  0  0  3  0  0  0  0  0  0
  184.2410  177.8860  137.9770 C   0  0  0  0  0  2  0  0  0  0  0  0
  189.4780  176.9430  140.0300 N   0  0  0  0  0  2  0  0  0  0  0  0
  191.7590  177.2860  141.3940 S   0  0  0  0  0  0  0  0  0  0  0  0
  190.1260  177.2430  141.2730 C   0  0  0  0  0  0  0  0  0  0  0  0
  189.8860  177.6770  143.6640 C   0  0  0  0  0  3  0  0  0  0  0  0
  189.3290  177.5530  142.4630 C   0  0  0  0  0  3  0  0  0  0  0  0
  189.8110  177.5960  146.1260 C   0  0  0  0  0  2  0  0  0  0  0  0
  187.7480  177.2240  144.7640 C   0  0  0  0  0  2  0  0  0  0  0  0
  187.8560  177.5480  147.7530 C   0  0  1  0  0  3  0  0  0  0  0  0
  189.0570  177.9940  144.8600 C   0  0  2  0  0  3  0  0  0  0  0  0
  186.7220  178.0370  146.8970 C   0  0  0  0  0  3  0  0  0  0  0  0
  186.6710  177.8930  145.5650 C   0  0  0  0  0  3  0  0  0  0  0  0
  187.9440  176.1660  147.7250 F   0  0  0  0  0  0  0  0  0  0  0  0
  189.1870  178.2010  147.3810 C   0  0  0  0  0  2  0  0  0  0  0  0
  2  1  1  1  0  0  0
  2  8  1  0  0  0  0
  3  6  1  0  0  0  0
  5  3  1  0  0  0  0
  6 16  1  1  0  0  0
  7  1  1  0  0  0  0
  7  5  1  0  0  0  0
  8  4  1  6  0  0  0
  8  6  1  0  0  0  0
  9  2  1  0  0  0  0
  9 11  1  6  0  0  0
 10 15  1  0  0  0  0
 11 15  1  0  0  0  0
 13 12  1  6  0  0  0
 13  9  1  0  0  0  0
 14 13  1  0  0  0  0
 14 10  2  0  0  0  0
 16 18  1  0  0  0  0
 18 17  2  0  0  0  0
 18 20  1  0  0  0  0
 20 19  2  0  0  0  0
 21 28  1  0  0  0  0
 22 24  1  0  0  0  0
 22 26  1  0  0  0  0
 23 27  1  6  0  0  0
 24 19  1  6  0  0  0
 24 21  1  0  0  0  0
 25 23  1  0  0  0  0
 26 25  2  0  0  0  0
 28 23  1  0  0  0  0
M  END
>  <MODEL>
8

>  <REMARK>
 VINA RESULT:      -7.0      3.729      6.146
  Name = 
  5 active torsions:
  status: ('A' for Active; 'I' for Inactive)
    1  A    between atoms: C_2  and  C_3
    2  A    between atoms: N_5  and  C_20
    3  A    between atoms: N_5  and  C_21
    4  A    between atoms: C_10  and  C_13
    5  A    between atoms: C_20  and  C_25
                            x       y       z     vdW  Elec       q    Type
                         _______ _______ _______ _____ _____    ______ ____

>  <TORSDO>
F 5

$$$$
=
 OpenBabel10272401483D

 28 30  0  0  1  0  0  0  0  0999 V2000
  188.7900  175.9080  137.8170 O   0  0  0  0  0  0  0  0  0  0  0  0
  188.7040  177.0470  137.0060 C   0  0  2  0  0  3  0  0  0  0  0  0
  190.4030  177.7860  139.4380 C   0  0  0  0  0  2  0  0  0  0  0  0
  189.0090  179.5390  137.1670 C   0  0  0  0  0  1  0  0  0  0  0  0
  190.5560  176.2650  139.3850 C   0  0  0  0  0  2  0  0  0  0  0  0
  188.9450  178.2610  139.3020 C   0  0  1  0  0  3  0  0  0  0  0  0
  190.1600  175.7140  138.0250 C   0  0  0  0  0  2  0  0  0  0  0  0
  188.4350  178.3100  137.8540 C   0  0  2  0  0  3  0  0  0  0  0  0
  187.6040  176.8430  135.9520 C   0  0  1  0  0  3  0  0  0  0  0  0
  185.2500  176.1050  134.5210 C   0  0  0  0  0  3  0  0  0  0  0  0
  187.4180  175.3710  135.5840 C   0  0  0  0  0  2  0  0  0  0  0  0
  185.8870  176.9070  137.6480 O   0  0  0  0  0  1  0  0  0  0  0  0
  186.2480  177.4210  136.3990 C   0  0  2  0  0  3  0  0  0  0  0  0
  185.1580  177.1100  135.4060 C   0  0  0  0  0  3  0  0  0  0  0  0
  186.4970  175.2670  134.3700 C   0  0  0  0  0  2  0  0  0  0  0  0
  188.0350  177.4920  140.1450 N   0  0  0  0  0  2  0  0  0  0  0  0
  186.1840  178.9050  141.4700 S   0  0  0  0  0  0  0  0  0  0  0  0
  187.5140  177.9510  141.3990 C   0  0  0  0  0  0  0  0  0  0  0  0
  187.5640  177.7430  143.8310 C   0  0  0  0  0  3  0  0  0  0  0  0
  188.1500  177.5450  142.6540 C   0  0  0  0  0  3  0  0  0  0  0  0
  187.4040  177.7920  146.2900 C   0  0  0  0  0  2  0  0  0  0  0  0
  189.6210  177.9320  145.1430 C   0  0  0  0  0  2  0  0  0  0  0  0
  189.1800  177.5950  148.0990 C   0  0  1  0  0  3  0  0  0  0  0  0
  188.2280  177.3190  145.0950 C   0  0  2  0  0  3  0  0  0  0  0  0
  190.3300  176.9850  147.3480 C   0  0  0  0  0  3  0  0  0  0  0  0
  190.5290  177.1340  146.0300 C   0  0  0  0  0  3  0  0  0  0  0  0
  189.2560  178.9780  148.0920 F   0  0  0  0  0  0  0  0  0  0  0  0
  187.8260  177.1050  147.5870 C   0  0  0  0  0  2  0  0  0  0  0  0
  1  7  1  0  0  0  0
  2  1  1  1  0  0  0
  2  8  1  0  0  0  0
  5  3  1  0  0  0  0
  6  3  1  0  0  0  0
  6 16  1  1  0  0  0
  7  5  1  0  0  0  0
  8  4  1  6  0  0  0
  8  6  1  0  0  0  0
  9 11  1  1  0  0  0
  9 13  1  0  0  0  0
  9  2  1  0  0  0  0
 10 14  2  0  0  0  0
 13 12  1  1  0  0  0
 14 13  1  0  0  0  0
 15 10  1  0  0  0  0
 15 11  1  0  0  0  0
 16 18  1  0  0  0  0
 18 17  2  0  0  0  0
 18 20  1  0  0  0  0
 20 19  2  0  0  0  0
 21 28  1  0  0  0  0
 22 26  1  0  0  0  0
 23 27  1  6  0  0  0
 24 19  1  6  0  0  0
 24 22  1  0  0  0  0
 24 21  1  0  0  0  0
 25 23  1  0  0  0  0
 26 25  2  0  0  0  0
 28 23  1  0  0  0  0
M  END
>  <MODEL>
9

>  <REMARK>
 VINA RESULT:      -6.7      3.792      6.269
  Name = 
  5 active torsions:
  status: ('A' for Active; 'I' for Inactive)
    1  A    between atoms: C_2  and  C_3
    2  A    between atoms: N_5  and  C_20
    3  A    between atoms: N_5  and  C_21
    4  A    between atoms: C_10  and  C_13
    5  A    between atoms: C_20  and  C_25
                            x       y       z     vdW  Elec       q    Type
                         _______ _______ _______ _____ _____    ______ ____

>  <TORSDO>
F 5

$$$$
