=
 OpenBabel10272400253D

 31 34  0  0  0  0  0  0  0  0999 V2000
  191.0080  176.5910  147.4540 C   0  0  0  0  0  3  0  0  0  0  0  0
  188.2420  177.8340  143.9440 C   0  0  0  0  0  0  0  0  0  0  0  0
  186.8790  178.1410  144.3180 C   0  0  0  0  0  0  0  0  0  0  0  0
  185.0580  178.3300  145.9900 C   0  0  0  0  0  3  0  0  0  0  0  0
  189.2840  177.4550  144.8780 C   0  0  0  0  0  0  0  0  0  0  0  0
  191.7730  176.3210  146.4490 N   0  0  0  0  0  0  0  0  0  0  0  0
  186.4420  178.0440  145.5860 C   0  0  0  0  0  3  0  0  0  0  0  0
  189.8560  177.5520  142.0980 C   0  0  0  0  0  0  0  0  0  0  0  0
  189.7130  177.2490  147.3950 C   0  0  0  0  0  3  0  0  0  0  0  0
  186.3080  178.5720  141.9920 C   0  0  0  0  0  3  0  0  0  0  0  0
  184.1540  178.7150  145.0950 C   0  0  0  0  0  0  0  0  0  0  0  0
  190.7940  177.1050  143.0060 C   0  0  0  0  0  3  0  0  0  0  0  0
  188.5690  177.8940  142.5510 C   0  0  0  0  0  0  0  0  0  0  0  0
  189.0170  177.5970  146.3250 C   0  0  0  0  0  3  0  0  0  0  0  0
  182.8870  178.9720  145.5000 F   0  0  0  0  0  0  0  0  0  0  0  0
  190.5490  177.0420  144.3710 C   0  0  0  0  0  0  0  0  0  0  0  0
  191.5980  176.5660  145.0520 C   0  0  0  0  0  3  0  0  0  0  0  0
  187.5970  178.2520  141.6130 C   0  0  0  0  0  3  0  0  0  0  0  0
  185.9400  178.5230  143.3250 C   0  0  0  0  0  0  0  0  0  0  0  0
  184.5100  178.8870  143.6480 C   0  0  0  0  0  2  0  0  0  0  0  0
  190.2440  177.5970  140.7520 O   0  0  0  0  0  0  0  0  0  0  0  0
  190.8310  176.5020  140.0640 C   0  0  0  0  0  2  0  0  0  0  0  0
  190.3890  176.5210  138.6140 C   0  0  0  0  0  2  0  0  0  0  0  0
  189.3870  177.6420  138.3620 C   0  0  0  0  0  2  0  0  0  0  0  0
  187.9630  177.1230  138.1650 C   0  0  0  0  0  2  0  0  0  0  0  0
  187.1840  178.0430  135.7540 S   0  0  0  0  0  0  0  0  0  0  0  0
  187.1200  178.0810  137.3920 C   0  0  0  0  0  0  0  0  0  0  0  0
  184.8280  178.4530  138.5080 C   0  0  0  0  0  0  0  0  0  0  0  0
  184.2770  177.3850  138.0350 N   0  0  0  0  0  2  0  0  0  0  0  0
  184.0200  179.3740  139.3490 C   0  0  0  0  0  1  0  0  0  0  0  0
  186.1420  178.8560  138.1020 N   0  0  0  0  0  2  0  0  0  0  0  0
  2  3  1  0  0  0  0
  2  5  2  0  0  0  0
  3  7  2  0  0  0  0
  5 14  1  0  0  0  0
  6  1  2  0  0  0  0
  7  4  1  0  0  0  0
  8 13  1  0  0  0  0
  8 12  2  0  0  0  0
  9  1  1  0  0  0  0
 10 19  2  0  0  0  0
 11 15  1  0  0  0  0
 11  4  2  0  0  0  0
 12 16  1  0  0  0  0
 13  2  1  0  0  0  0
 14  9  2  0  0  0  0
 16  5  1  0  0  0  0
 16 17  2  0  0  0  0
 17  6  1  0  0  0  0
 18 10  1  0  0  0  0
 18 13  2  0  0  0  0
 19 20  1  0  0  0  0
 19  3  1  0  0  0  0
 20 11  1  0  0  0  0
 21  8  1  0  0  0  0
 22 21  1  0  0  0  0
 23 22  1  0  0  0  0
 24 23  1  0  0  0  0
 25 24  1  0  0  0  0
 26 27  2  0  0  0  0
 27 31  1  0  0  0  0
 27 25  1  0  0  0  0
 28 30  1  0  0  0  0
 29 28  2  0  0  0  0
 31 28  1  0  0  0  0
M  END
>  <MODEL>
1

>  <REMARK>
 VINA RESULT:      -9.6      0.000      0.000
  Name = 
  7 active torsions:
  status: ('A' for Active; 'I' for Inactive)
    1  A    between atoms: C_3  and  C_19
    2  A    between atoms: C_3  and  C_22
    3  A    between atoms: C_7  and  C_9
    4  A    between atoms: C_7  and  C_22
    5  A    between atoms: C_9  and  O_23
    6  A    between atoms: C_15  and  O_23
    7  A    between atoms: C_19  and  N_24
                            x       y       z     vdW  Elec       q    Type
                         _______ _______ _______ _____ _____    ______ ____

>  <TORSDO>
F 7

$$$$
=
 OpenBabel10272400253D

 31 34  0  0  0  0  0  0  0  0999 V2000
  191.1410  176.5640  147.4420 C   0  0  0  0  0  3  0  0  0  0  0  0
  188.2880  177.6640  143.9540 C   0  0  0  0  0  0  0  0  0  0  0  0
  186.9460  178.0300  144.3540 C   0  0  0  0  0  0  0  0  0  0  0  0
  185.1890  178.3690  146.0690 C   0  0  0  0  0  3  0  0  0  0  0  0
  189.3510  177.3150  144.8750 C   0  0  0  0  0  0  0  0  0  0  0  0
  191.8640  176.2130  146.4320 N   0  0  0  0  0  0  0  0  0  0  0  0
  186.5510  178.0220  145.6380 C   0  0  0  0  0  3  0  0  0  0  0  0
  189.8300  177.2270  142.0780 C   0  0  0  0  0  0  0  0  0  0  0  0
  189.8620  177.2510  147.3850 C   0  0  0  0  0  3  0  0  0  0  0  0
  186.3070  178.3330  142.0250 C   0  0  0  0  0  3  0  0  0  0  0  0
  184.2640  178.7230  145.1820 C   0  0  0  0  0  0  0  0  0  0  0  0
  190.7870  176.8120  142.9800 C   0  0  0  0  0  3  0  0  0  0  0  0
  188.5680  177.6300  142.5500 C   0  0  0  0  0  0  0  0  0  0  0  0
  189.1380  177.5520  146.3190 C   0  0  0  0  0  3  0  0  0  0  0  0
  183.0180  179.0380  145.6120 F   0  0  0  0  0  0  0  0  0  0  0  0
  190.5870  176.8380  144.3540 C   0  0  0  0  0  0  0  0  0  0  0  0
  191.6470  176.3770  145.0280 C   0  0  0  0  0  3  0  0  0  0  0  0
  187.5730  177.9570  141.6250 C   0  0  0  0  0  3  0  0  0  0  0  0
  185.9830  178.3760  143.3700 C   0  0  0  0  0  0  0  0  0  0  0  0
  184.5750  178.7970  143.7170 C   0  0  0  0  0  2  0  0  0  0  0  0
  190.1720  177.1800  140.7200 O   0  0  0  0  0  0  0  0  0  0  0  0
  191.5040  177.2900  140.2380 C   0  0  0  0  0  2  0  0  0  0  0  0
  191.5540  176.8540  138.7870 C   0  0  0  0  0  2  0  0  0  0  0  0
  190.4050  175.9080  138.4600 C   0  0  0  0  0  2  0  0  0  0  0  0
  190.2620  175.6560  136.9590 C   0  0  0  0  0  2  0  0  0  0  0  0
  189.5760  177.1070  134.7920 S   0  0  0  0  0  0  0  0  0  0  0  0
  189.2910  176.5950  136.3240 C   0  0  0  0  0  0  0  0  0  0  0  0
  187.6440  178.0540  137.6640 C   0  0  0  0  0  0  0  0  0  0  0  0
  188.4950  178.9820  137.9510 N   0  0  0  0  0  2  0  0  0  0  0  0
  186.2580  178.1540  138.1900 C   0  0  0  0  0  1  0  0  0  0  0  0
  188.0490  176.8520  136.9980 N   0  0  0  0  0  2  0  0  0  0  0  0
  2  3  1  0  0  0  0
  2  5  2  0  0  0  0
  3  7  2  0  0  0  0
  5 14  1  0  0  0  0
  6  1  2  0  0  0  0
  7  4  1  0  0  0  0
  8 13  1  0  0  0  0
  8 12  2  0  0  0  0
  9  1  1  0  0  0  0
 10 19  2  0  0  0  0
 11 15  1  0  0  0  0
 11  4  2  0  0  0  0
 12 16  1  0  0  0  0
 13  2  1  0  0  0  0
 14  9  2  0  0  0  0
 16  5  1  0  0  0  0
 16 17  2  0  0  0  0
 17  6  1  0  0  0  0
 18 10  1  0  0  0  0
 18 13  2  0  0  0  0
 19 20  1  0  0  0  0
 19  3  1  0  0  0  0
 20 11  1  0  0  0  0
 21  8  1  0  0  0  0
 22 21  1  0  0  0  0
 23 22  1  0  0  0  0
 24 23  1  0  0  0  0
 25 24  1  0  0  0  0
 26 27  2  0  0  0  0
 27 25  1  0  0  0  0
 27 31  1  0  0  0  0
 28 29  2  0  0  0  0
 28 30  1  0  0  0  0
 31 28  1  0  0  0  0
M  END
>  <MODEL>
2

>  <REMARK>
 VINA RESULT:      -9.4      1.225      1.586
  Name = 
  7 active torsions:
  status: ('A' for Active; 'I' for Inactive)
    1  A    between atoms: C_3  and  C_19
    2  A    between atoms: C_3  and  C_22
    3  A    between atoms: C_7  and  C_9
    4  A    between atoms: C_7  and  C_22
    5  A    between atoms: C_9  and  O_23
    6  A    between atoms: C_15  and  O_23
    7  A    between atoms: C_19  and  N_24
                            x       y       z     vdW  Elec       q    Type
                         _______ _______ _______ _____ _____    ______ ____

>  <TORSDO>
F 7

$$$$
=
 OpenBabel10272400253D

 31 34  0  0  0  0  0  0  0  0999 V2000
  191.1090  176.4930  147.1700 C   0  0  0  0  0  3  0  0  0  0  0  0
  188.2580  177.8110  143.7560 C   0  0  0  0  0  0  0  0  0  0  0  0
  186.9130  178.1410  144.1750 C   0  0  0  0  0  0  0  0  0  0  0  0
  185.1490  178.3520  145.9040 C   0  0  0  0  0  3  0  0  0  0  0  0
  189.3210  177.4060  144.6540 C   0  0  0  0  0  0  0  0  0  0  0  0
  191.8360  176.2150  146.1400 N   0  0  0  0  0  0  0  0  0  0  0  0
  186.5150  178.0440  145.4550 C   0  0  0  0  0  3  0  0  0  0  0  0
  189.8080  177.5110  141.8590 C   0  0  0  0  0  0  0  0  0  0  0  0
  189.8250  177.1750  147.1560 C   0  0  0  0  0  3  0  0  0  0  0  0
  186.2780  178.5980  141.8700 C   0  0  0  0  0  3  0  0  0  0  0  0
  184.2250  178.7610  145.0410 C   0  0  0  0  0  0  0  0  0  0  0  0
  190.7650  177.0410  142.7340 C   0  0  0  0  0  3  0  0  0  0  0  0
  188.5420  177.8740  142.3540 C   0  0  0  0  0  0  0  0  0  0  0  0
  189.1020  177.5430  146.1100 C   0  0  0  0  0  3  0  0  0  0  0  0
  182.9760  179.0390  145.4870 F   0  0  0  0  0  0  0  0  0  0  0  0
  190.5610  176.9730  144.1050 C   0  0  0  0  0  0  0  0  0  0  0  0
  191.6220  176.4730  144.7500 C   0  0  0  0  0  3  0  0  0  0  0  0
  187.5480  178.2570  141.4500 C   0  0  0  0  0  3  0  0  0  0  0  0
  185.9500  178.5470  143.2140 C   0  0  0  0  0  0  0  0  0  0  0  0
  184.5390  178.9350  143.5850 C   0  0  0  0  0  2  0  0  0  0  0  0
  190.1540  177.5580  140.5020 O   0  0  0  0  0  0  0  0  0  0  0  0
  190.5180  176.4150  139.7410 C   0  0  0  0  0  2  0  0  0  0  0  0
  191.3700  176.8430  138.5620 C   0  0  0  0  0  2  0  0  0  0  0  0
  191.3940  175.7640  137.4850 C   0  0  0  0  0  2  0  0  0  0  0  0
  192.4780  174.7140  137.7320 C   0  0  0  0  0  2  0  0  0  0  0  0
  194.0740  175.7590  135.8280 S   0  0  0  0  0  0  0  0  0  0  0  0
  193.8330  175.2100  137.3540 C   0  0  0  0  0  0  0  0  0  0  0  0
  195.6440  174.3670  138.9820 C   0  0  0  0  0  0  0  0  0  0  0  0
  195.4030  173.1100  138.8060 N   0  0  0  0  0  2  0  0  0  0  0  0
  196.6880  174.7750  139.9570 C   0  0  0  0  0  1  0  0  0  0  0  0
  194.8140  175.3740  138.3900 N   0  0  0  0  0  2  0  0  0  0  0  0
  2  3  1  0  0  0  0
  2  5  2  0  0  0  0
  3  7  2  0  0  0  0
  5 14  1  0  0  0  0
  6  1  2  0  0  0  0
  7  4  1  0  0  0  0
  8 13  1  0  0  0  0
  8 12  2  0  0  0  0
  9  1  1  0  0  0  0
 10 19  2  0  0  0  0
 11 15  1  0  0  0  0
 11  4  2  0  0  0  0
 12 16  1  0  0  0  0
 13  2  1  0  0  0  0
 14  9  2  0  0  0  0
 16  5  1  0  0  0  0
 16 17  2  0  0  0  0
 17  6  1  0  0  0  0
 18 10  1  0  0  0  0
 18 13  2  0  0  0  0
 19 20  1  0  0  0  0
 19  3  1  0  0  0  0
 20 11  1  0  0  0  0
 21  8  1  0  0  0  0
 22 21  1  0  0  0  0
 23 22  1  0  0  0  0
 24 25  1  0  0  0  0
 24 23  1  0  0  0  0
 26 27  2  0  0  0  0
 27 25  1  0  0  0  0
 27 31  1  0  0  0  0
 28 30  1  0  0  0  0
 29 28  2  0  0  0  0
 31 28  1  0  0  0  0
M  END
>  <MODEL>
3

>  <REMARK>
 VINA RESULT:      -9.3      3.182      4.714
  Name = 
  7 active torsions:
  status: ('A' for Active; 'I' for Inactive)
    1  A    between atoms: C_3  and  C_19
    2  A    between atoms: C_3  and  C_22
    3  A    between atoms: C_7  and  C_9
    4  A    between atoms: C_7  and  C_22
    5  A    between atoms: C_9  and  O_23
    6  A    between atoms: C_15  and  O_23
    7  A    between atoms: C_19  and  N_24
                            x       y       z     vdW  Elec       q    Type
                         _______ _______ _______ _____ _____    ______ ____

>  <TORSDO>
F 7

$$$$
=
 OpenBabel10272400253D

 31 34  0  0  1  0  0  0  0  0999 V2000
  184.1990  178.8800  145.1970 C   0  0  0  0  0  3  0  0  0  0  0  0
  188.4630  177.6580  143.8360 C   0  0  0  0  0  0  0  0  0  0  0  0
  189.3640  177.2890  144.9060 C   0  0  2  0  0  3  0  0  0  0  0  0
  189.9010  176.9770  147.3060 C   0  0  0  0  0  3  0  0  0  0  0  0
  187.0780  178.0420  144.0260 C   0  0  0  0  0  0  0  0  0  0  0  0
  184.1490  179.2120  143.9510 N   0  0  0  0  0  0  0  0  0  0  0  0
  188.9990  177.3260  146.1980 C   0  0  0  0  0  3  0  0  0  0  0  0
  188.1960  178.0610  141.4160 C   0  0  0  0  0  0  0  0  0  0  0  0
  185.2890  178.1780  145.8550 C   0  0  0  0  0  3  0  0  0  0  0  0
  191.1570  176.9180  143.3030 C   0  0  0  0  0  3  0  0  0  0  0  0
  191.1500  176.5900  147.0690 C   0  0  0  0  0  0  0  0  0  0  0  0
  186.9120  178.5110  141.6470 C   0  0  0  0  0  3  0  0  0  0  0  0
  188.9900  177.6580  142.5050 C   0  0  0  0  0  0  0  0  0  0  0  0
  186.4680  177.8420  145.3580 C   0  0  0  0  0  3  0  0  0  0  0  0
  191.9560  176.2730  148.1110 F   0  0  0  0  0  0  0  0  0  0  0  0
  186.3340  178.5180  142.9090 C   0  0  0  0  0  0  0  0  0  0  0  0
  185.0890  179.0080  142.8920 C   0  0  0  0  0  3  0  0  0  0  0  0
  190.3190  177.2970  142.2730 C   0  0  0  0  0  3  0  0  0  0  0  0
  190.6980  176.9070  144.6090 C   0  0  0  0  0  0  0  0  0  0  0  0
  191.6830  176.4810  145.6710 C   0  0  0  0  0  3  0  0  0  0  0  0
  188.6460  178.0770  140.0890 O   0  0  0  0  0  0  0  0  0  0  0  0
  187.7840  177.9950  138.9630 C   0  0  0  0  0  2  0  0  0  0  0  0
  188.5610  178.3340  137.7060 C   0  0  0  0  0  2  0  0  0  0  0  0
  188.6710  177.1240  136.7870 C   0  0  0  0  0  2  0  0  0  0  0  0
  190.1210  176.7590  136.4690 C   0  0  0  0  0  2  0  0  0  0  0  0
  190.5980  174.1500  136.9520 S   0  0  0  0  0  0  0  0  0  0  0  0
  190.6570  175.7260  137.4020 C   0  0  0  0  0  0  0  0  0  0  0  0
  192.7200  176.6720  138.6220 C   0  0  0  0  0  0  0  0  0  0  0  0
  193.5310  176.5470  137.6240 N   0  0  0  0  0  2  0  0  0  0  0  0
  193.2370  177.1890  139.9150 C   0  0  0  0  0  1  0  0  0  0  0  0
  191.3820  176.1630  138.5620 N   0  0  0  0  0  2  0  0  0  0  0  0
  1  9  1  0  0  0  0
  2  5  2  0  0  0  0
  2  3  1  0  0  0  0
  3  7  1  1  0  0  0
  5 14  1  0  0  0  0
  6  1  2  0  0  0  0
  7  4  2  0  0  0  0
  8 12  2  0  0  0  0
  8 13  1  0  0  0  0
 10 19  2  0  0  0  0
 11  4  1  0  0  0  0
 11 15  1  0  0  0  0
 12 16  1  0  0  0  0
 13  2  1  0  0  0  0
 14  9  2  0  0  0  0
 16  5  1  0  0  0  0
 17 16  2  0  0  0  0
 17  6  1  0  0  0  0
 18 13  2  0  0  0  0
 18 10  1  0  0  0  0
 19  3  1  0  0  0  0
 19 20  1  0  0  0  0
 20 11  2  0  0  0  0
 21  8  1  0  0  0  0
 22 21  1  0  0  0  0
 23 22  1  0  0  0  0
 24 23  1  0  0  0  0
 25 24  1  0  0  0  0
 25 27  1  0  0  0  0
 26 27  2  0  0  0  0
 27 31  1  0  0  0  0
 28 30  1  0  0  0  0
 29 28  2  0  0  0  0
 31 28  1  0  0  0  0
M  END
>  <MODEL>
4

>  <REMARK>
 VINA RESULT:      -9.2      3.131      5.511
  Name = 
  7 active torsions:
  status: ('A' for Active; 'I' for Inactive)
    1  A    between atoms: C_3  and  C_19
    2  A    between atoms: C_3  and  C_22
    3  A    between atoms: C_7  and  C_9
    4  A    between atoms: C_7  and  C_22
    5  A    between atoms: C_9  and  O_23
    6  A    between atoms: C_15  and  O_23
    7  A    between atoms: C_19  and  N_24
                            x       y       z     vdW  Elec       q    Type
                         _______ _______ _______ _____ _____    ______ ____

>  <TORSDO>
F 7

$$$$
=
 OpenBabel10272400253D

 31 34  0  0  1  0  0  0  0  0999 V2000
  184.2270  178.8230  145.2210 C   0  0  0  0  0  3  0  0  0  0  0  0
  188.4560  177.4470  143.8990 C   0  0  0  0  0  0  0  0  0  0  0  0
  189.3680  177.1500  144.9820 C   0  0  2  0  0  3  0  0  0  0  0  0
  189.9370  177.0180  147.3910 C   0  0  0  0  0  3  0  0  0  0  0  0
  187.0780  177.8620  144.0780 C   0  0  0  0  0  0  0  0  0  0  0  0
  184.1620  179.0580  143.9530 N   0  0  0  0  0  0  0  0  0  0  0  0
  189.0230  177.2920  146.2730 C   0  0  0  0  0  3  0  0  0  0  0  0
  188.1580  177.6650  141.4600 C   0  0  0  0  0  0  0  0  0  0  0  0
  185.3180  178.1600  145.9160 C   0  0  0  0  0  3  0  0  0  0  0  0
  191.1340  176.6340  143.3880 C   0  0  0  0  0  3  0  0  0  0  0  0
  191.1780  176.5980  147.1680 C   0  0  0  0  0  0  0  0  0  0  0  0
  186.8820  178.1470  141.6730 C   0  0  0  0  0  3  0  0  0  0  0  0
  188.9630  177.3370  142.5650 C   0  0  0  0  0  0  0  0  0  0  0  0
  186.4860  177.7720  145.4300 C   0  0  0  0  0  3  0  0  0  0  0  0
  191.9960  176.3530  148.2210 F   0  0  0  0  0  0  0  0  0  0  0  0
  186.3230  178.2590  142.9380 C   0  0  0  0  0  0  0  0  0  0  0  0
  185.0840  178.7620  142.9010 C   0  0  0  0  0  3  0  0  0  0  0  0
  190.2850  176.9420  142.3440 C   0  0  0  0  0  3  0  0  0  0  0  0
  190.6940  176.7300  144.6970 C   0  0  0  0  0  0  0  0  0  0  0  0
  191.6890  176.3750  145.7760 C   0  0  0  0  0  3  0  0  0  0  0  0
  188.5890  177.5720  140.1290 O   0  0  0  0  0  0  0  0  0  0  0  0
  189.1510  178.6570  139.4050 C   0  0  0  0  0  2  0  0  0  0  0  0
  189.3570  178.2470  137.9600 C   0  0  0  0  0  2  0  0  0  0  0  0
  188.4280  179.0220  137.0340 C   0  0  0  0  0  2  0  0  0  0  0  0
  187.5320  178.1060  136.2010 C   0  0  0  0  0  2  0  0  0  0  0  0
  186.6430  175.6790  136.9710 S   0  0  0  0  0  0  0  0  0  0  0  0
  186.5930  177.3170  137.0520 C   0  0  0  0  0  0  0  0  0  0  0  0
  184.4030  178.0540  138.1910 C   0  0  0  0  0  0  0  0  0  0  0  0
  183.6220  177.6580  137.2420 N   0  0  0  0  0  2  0  0  0  0  0  0
  183.8180  178.7320  139.3770 C   0  0  0  0  0  1  0  0  0  0  0  0
  185.8290  178.0100  138.0500 N   0  0  0  0  0  2  0  0  0  0  0  0
  1  9  1  0  0  0  0
  2  5  2  0  0  0  0
  2  3  1  0  0  0  0
  3  7  1  1  0  0  0
  5 14  1  0  0  0  0
  6  1  2  0  0  0  0
  7  4  2  0  0  0  0
  8 12  2  0  0  0  0
  8 13  1  0  0  0  0
 10 19  2  0  0  0  0
 11  4  1  0  0  0  0
 11 15  1  0  0  0  0
 12 16  1  0  0  0  0
 13  2  1  0  0  0  0
 14  9  2  0  0  0  0
 16  5  1  0  0  0  0
 17 16  2  0  0  0  0
 17  6  1  0  0  0  0
 18 13  2  0  0  0  0
 18 10  1  0  0  0  0
 19  3  1  0  0  0  0
 19 20  1  0  0  0  0
 20 11  2  0  0  0  0
 21  8  1  0  0  0  0
 22 21  1  0  0  0  0
 23 22  1  0  0  0  0
 24 23  1  0  0  0  0
 25 24  1  0  0  0  0
 25 27  1  0  0  0  0
 26 27  2  0  0  0  0
 27 31  1  0  0  0  0
 28 30  1  0  0  0  0
 29 28  2  0  0  0  0
 31 28  1  0  0  0  0
M  END
>  <MODEL>
5

>  <REMARK>
 VINA RESULT:      -9.1      2.558      4.477
  Name = 
  7 active torsions:
  status: ('A' for Active; 'I' for Inactive)
    1  A    between atoms: C_3  and  C_19
    2  A    between atoms: C_3  and  C_22
    3  A    between atoms: C_7  and  C_9
    4  A    between atoms: C_7  and  C_22
    5  A    between atoms: C_9  and  O_23
    6  A    between atoms: C_15  and  O_23
    7  A    between atoms: C_19  and  N_24
                            x       y       z     vdW  Elec       q    Type
                         _______ _______ _______ _____ _____    ______ ____

>  <TORSDO>
F 7

$$$$
=
 OpenBabel10272400253D

 31 34  0  0  1  0  0  0  0  0999 V2000
  184.5520  178.7880  145.7310 C   0  0  0  0  0  3  0  0  0  0  0  0
  188.6640  177.2930  144.1890 C   0  0  0  0  0  0  0  0  0  0  0  0
  189.6330  176.9950  145.2210 C   0  0  2  0  0  3  0  0  0  0  0  0
  190.3410  176.8930  147.5940 C   0  0  0  0  0  3  0  0  0  0  0  0
  187.3090  177.7420  144.4410 C   0  0  0  0  0  0  0  0  0  0  0  0
  184.4170  179.0020  144.4650 N   0  0  0  0  0  0  0  0  0  0  0  0
  189.3680  177.1680  146.5270 C   0  0  0  0  0  3  0  0  0  0  0  0
  188.2260  177.4740  141.7670 C   0  0  0  0  0  0  0  0  0  0  0  0
  185.6680  178.1140  146.3730 C   0  0  0  0  0  3  0  0  0  0  0  0
  191.2890  176.4100  143.5360 C   0  0  0  0  0  3  0  0  0  0  0  0
  191.5570  176.4410  147.3060 C   0  0  0  0  0  0  0  0  0  0  0  0
  186.9760  177.9880  142.0460 C   0  0  0  0  0  3  0  0  0  0  0  0
  189.0890  177.1480  142.8290 C   0  0  0  0  0  0  0  0  0  0  0  0
  186.7970  177.6910  145.8270 C   0  0  0  0  0  3  0  0  0  0  0  0
  192.4310  176.1960  148.3130 F   0  0  0  0  0  0  0  0  0  0  0  0
  186.4960  178.1360  143.3400 C   0  0  0  0  0  0  0  0  0  0  0  0
  185.2680  178.6660  143.3660 C   0  0  0  0  0  3  0  0  0  0  0  0
  190.3860  176.7190  142.5370 C   0  0  0  0  0  3  0  0  0  0  0  0
  190.9300  176.5390  144.8660 C   0  0  0  0  0  0  0  0  0  0  0  0
  191.9790  176.1810  145.8910 C   0  0  0  0  0  3  0  0  0  0  0  0
  188.5750  177.3470  140.4160 O   0  0  0  0  0  0  0  0  0  0  0  0
  188.4980  178.4120  139.4780 C   0  0  0  0  0  2  0  0  0  0  0  0
  189.3570  178.0870  138.2730 C   0  0  0  0  0  2  0  0  0  0  0  0
  188.9830  178.9620  137.0820 C   0  0  0  0  0  2  0  0  0  0  0  0
  187.5550  178.7110  136.5960 C   0  0  0  0  0  2  0  0  0  0  0  0
  188.6650  177.3180  134.5730 S   0  0  0  0  0  0  0  0  0  0  0  0
  187.4740  177.5370  135.6790 C   0  0  0  0  0  0  0  0  0  0  0  0
  186.5480  175.4270  136.8320 C   0  0  0  0  0  0  0  0  0  0  0  0
  187.6730  175.0530  137.3440 N   0  0  0  0  0  2  0  0  0  0  0  0
  185.3420  174.5830  137.0360 C   0  0  0  0  0  1  0  0  0  0  0  0
  186.4730  176.5400  135.9320 N   0  0  0  0  0  2  0  0  0  0  0  0
  1  9  1  0  0  0  0
  2  5  2  0  0  0  0
  2  3  1  0  0  0  0
  3  7  1  6  0  0  0
  5 14  1  0  0  0  0
  6  1  2  0  0  0  0
  7  4  2  0  0  0  0
  8 12  2  0  0  0  0
  8 13  1  0  0  0  0
 10 19  2  0  0  0  0
 11  4  1  0  0  0  0
 11 15  1  0  0  0  0
 12 16  1  0  0  0  0
 13  2  1  0  0  0  0
 14  9  2  0  0  0  0
 16 17  2  0  0  0  0
 16  5  1  0  0  0  0
 17  6  1  0  0  0  0
 18 13  2  0  0  0  0
 18 10  1  0  0  0  0
 19  3  1  0  0  0  0
 19 20  1  0  0  0  0
 20 11  2  0  0  0  0
 21  8  1  0  0  0  0
 22 21  1  0  0  0  0
 23 22  1  0  0  0  0
 24 23  1  0  0  0  0
 25 24  1  0  0  0  0
 26 27  2  0  0  0  0
 27 31  1  0  0  0  0
 27 25  1  0  0  0  0
 28 30  1  0  0  0  0
 28 29  2  0  0  0  0
 31 28  1  0  0  0  0
M  END
>  <MODEL>
6

>  <REMARK>
 VINA RESULT:      -8.9      2.856      4.751
  Name = 
  7 active torsions:
  status: ('A' for Active; 'I' for Inactive)
    1  A    between atoms: C_3  and  C_19
    2  A    between atoms: C_3  and  C_22
    3  A    between atoms: C_7  and  C_9
    4  A    between atoms: C_7  and  C_22
    5  A    between atoms: C_9  and  O_23
    6  A    between atoms: C_15  and  O_23
    7  A    between atoms: C_19  and  N_24
                            x       y       z     vdW  Elec       q    Type
                         _______ _______ _______ _____ _____    ______ ____

>  <TORSDO>
F 7

$$$$
=
 OpenBabel10272400253D

 31 34  0  0  0  0  0  0  0  0999 V2000
  191.8630  176.5020  146.8470 C   0  0  0  0  0  3  0  0  0  0  0  0
  188.8050  177.4360  143.4870 C   0  0  0  0  0  0  0  0  0  0  0  0
  189.3540  177.4570  142.1490 C   0  0  0  0  0  0  0  0  0  0  0  0
  191.2470  177.2880  140.5570 C   0  0  0  0  0  3  0  0  0  0  0  0
  189.5680  177.1360  144.6820 C   0  0  0  0  0  0  0  0  0  0  0  0
  190.8390  176.8450  147.5540 N   0  0  0  0  0  0  0  0  0  0  0  0
  190.6590  177.2510  141.9040 C   0  0  0  0  0  3  0  0  0  0  0  0
  186.8190  177.8120  144.9030 C   0  0  0  0  0  0  0  0  0  0  0  0
  191.8930  176.3370  145.4040 C   0  0  0  0  0  3  0  0  0  0  0  0
  187.1740  178.0370  141.2340 C   0  0  0  0  0  3  0  0  0  0  0  0
  190.4890  177.5260  139.4900 C   0  0  0  0  0  0  0  0  0  0  0  0
  187.5990  177.6130  146.0240 C   0  0  0  0  0  3  0  0  0  0  0  0
  187.4160  177.7530  143.6310 C   0  0  0  0  0  0  0  0  0  0  0  0
  190.9390  176.6040  144.5270 C   0  0  0  0  0  3  0  0  0  0  0  0
  191.0610  177.5520  138.2620 F   0  0  0  0  0  0  0  0  0  0  0  0
  188.9460  177.2840  145.9540 C   0  0  0  0  0  0  0  0  0  0  0  0
  189.4980  177.1530  147.1660 C   0  0  0  0  0  3  0  0  0  0  0  0
  186.6400  178.0500  142.5070 C   0  0  0  0  0  2  0  0  0  0  0  0
  188.5130  177.7430  141.0410 C   0  0  0  0  0  0  0  0  0  0  0  0
  189.0120  177.7520  139.6160 C   0  0  0  0  0  3  0  0  0  0  0  0
  185.4650  178.1060  145.1140 O   0  0  0  0  0  0  0  0  0  0  0  0
  184.8320  179.2860  144.6390 C   0  0  0  0  0  2  0  0  0  0  0  0
  183.3350  179.1760  144.8490 C   0  0  0  0  0  2  0  0  0  0  0  0
  182.6440  178.6540  143.5950 C   0  0  0  0  0  2  0  0  0  0  0  0
  183.5160  178.7880  142.3460 C   0  0  0  0  0  2  0  0  0  0  0  0
  181.1730  178.8260  141.0130 S   0  0  0  0  0  0  0  0  0  0  0  0
  182.7670  178.4490  141.1010 C   0  0  0  0  0  0  0  0  0  0  0  0
  184.4230  178.7430  139.1500 C   0  0  0  0  0  0  0  0  0  0  0  0
  184.4820  180.0310  139.2210 N   0  0  0  0  0  2  0  0  0  0  0  0
  185.1850  178.0400  138.0860 C   0  0  0  0  0  1  0  0  0  0  0  0
  183.5090  177.9930  139.9600 N   0  0  0  0  0  2  0  0  0  0  0  0
  1  6  1  0  0  0  0
  2 13  1  0  0  0  0
  2  5  1  0  0  0  0
  3  2  2  0  0  0  0
  4  7  2  0  0  0  0
  5 16  1  0  0  0  0
  7  3  1  0  0  0  0
  8 21  1  0  0  0  0
  8 12  1  0  0  0  0
  9  1  2  0  0  0  0
 10 18  1  0  0  0  0
 11 20  2  0  0  0  0
 11  4  1  0  0  0  0
 13  8  2  0  0  0  0
 14  5  2  0  0  0  0
 14  9  1  0  0  0  0
 15 11  1  0  0  0  0
 16 12  2  0  0  0  0
 16 17  1  0  0  0  0
 17  6  2  0  0  0  0
 18 13  1  0  0  0  0
 19 10  2  0  0  0  0
 19  3  1  0  0  0  0
 20 19  1  0  0  0  0
 22 23  1  0  0  0  0
 22 21  1  0  0  0  0
 24 23  1  0  0  0  0
 25 24  1  0  0  0  0
 26 27  2  0  0  0  0
 27 25  1  0  0  0  0
 28 29  2  0  0  0  0
 28 31  1  0  0  0  0
 30 28  1  0  0  0  0
 31 27  1  0  0  0  0
M  END
>  <MODEL>
7

>  <REMARK>
 VINA RESULT:      -8.9      2.944      5.310
  Name = 
  7 active torsions:
  status: ('A' for Active; 'I' for Inactive)
    1  A    between atoms: C_3  and  C_19
    2  A    between atoms: C_3  and  C_22
    3  A    between atoms: C_7  and  C_9
    4  A    between atoms: C_7  and  C_22
    5  A    between atoms: C_9  and  O_23
    6  A    between atoms: C_15  and  O_23
    7  A    between atoms: C_19  and  N_24
                            x       y       z     vdW  Elec       q    Type
                         _______ _______ _______ _____ _____    ______ ____

>  <TORSDO>
F 7

$$$$
=
 OpenBabel10272400253D

 31 34  0  0  0  0  0  0  0  0999 V2000
  191.1520  176.5890  147.4830 C   0  0  0  0  0  3  0  0  0  0  0  0
  188.1990  177.7330  144.0930 C   0  0  0  0  0  0  0  0  0  0  0  0
  186.8610  178.0610  144.5340 C   0  0  0  0  0  0  0  0  0  0  0  0
  185.1370  178.3150  146.2970 C   0  0  0  0  0  3  0  0  0  0  0  0
  189.2900  177.3780  144.9800 C   0  0  0  0  0  0  0  0  0  0  0  0
  191.8580  176.2810  146.4470 N   0  0  0  0  0  0  0  0  0  0  0  0
  186.4950  178.0080  145.8260 C   0  0  0  0  0  3  0  0  0  0  0  0
  189.7060  177.3800  142.1710 C   0  0  0  0  0  0  0  0  0  0  0  0
  189.8590  177.2520  147.4750 C   0  0  0  0  0  3  0  0  0  0  0  0
  186.1620  178.4180  142.2290 C   0  0  0  0  0  3  0  0  0  0  0  0
  184.1860  178.6770  145.4420 C   0  0  0  0  0  0  0  0  0  0  0  0
  190.6920  176.9570  143.0400 C   0  0  0  0  0  3  0  0  0  0  0  0
  188.4480  177.7440  142.6840 C   0  0  0  0  0  0  0  0  0  0  0  0
  189.1050  177.5690  146.4350 C   0  0  0  0  0  3  0  0  0  0  0  0
  182.9440  178.9550  145.9080 F   0  0  0  0  0  0  0  0  0  0  0  0
  190.5230  176.9410  144.4170 C   0  0  0  0  0  0  0  0  0  0  0  0
  191.6060  176.4810  145.0540 C   0  0  0  0  0  3  0  0  0  0  0  0
  187.4260  178.0780  141.7900 C   0  0  0  0  0  3  0  0  0  0  0  0
  185.8690  178.4150  143.5820 C   0  0  0  0  0  0  0  0  0  0  0  0
  184.4610  178.7980  143.9730 C   0  0  0  0  0  2  0  0  0  0  0  0
  190.0180  177.3780  140.8050 O   0  0  0  0  0  0  0  0  0  0  0  0
  191.3370  177.2370  140.2980 C   0  0  0  0  0  2  0  0  0  0  0  0
  191.2770  176.9050  138.8200 C   0  0  0  0  0  2  0  0  0  0  0  0
  189.8530  177.0210  138.2900 C   0  0  0  0  0  2  0  0  0  0  0  0
  189.8070  177.3220  136.7920 C   0  0  0  0  0  2  0  0  0  0  0  0
  187.8900  176.0780  135.3620 S   0  0  0  0  0  0  0  0  0  0  0  0
  189.4030  176.1280  135.9940 C   0  0  0  0  0  0  0  0  0  0  0  0
  190.6390  173.8790  136.2250 C   0  0  0  0  0  0  0  0  0  0  0  0
  190.0890  173.5420  137.3440 N   0  0  0  0  0  2  0  0  0  0  0  0
  191.6620  172.9870  135.6230 C   0  0  0  0  0  1  0  0  0  0  0  0
  190.4110  175.1680  135.6420 N   0  0  0  0  0  2  0  0  0  0  0  0
  2  3  1  0  0  0  0
  2  5  2  0  0  0  0
  3  7  2  0  0  0  0
  5 14  1  0  0  0  0
  6  1  2  0  0  0  0
  7  4  1  0  0  0  0
  8 13  1  0  0  0  0
  8 12  2  0  0  0  0
  9  1  1  0  0  0  0
 10 19  2  0  0  0  0
 11 15  1  0  0  0  0
 11  4  2  0  0  0  0
 12 16  1  0  0  0  0
 13  2  1  0  0  0  0
 14  9  2  0  0  0  0
 16  5  1  0  0  0  0
 16 17  2  0  0  0  0
 17  6  1  0  0  0  0
 18 10  1  0  0  0  0
 18 13  2  0  0  0  0
 19 20  1  0  0  0  0
 19  3  1  0  0  0  0
 20 11  1  0  0  0  0
 21  8  1  0  0  0  0
 22 21  1  0  0  0  0
 23 22  1  0  0  0  0
 24 23  1  0  0  0  0
 25 24  1  0  0  0  0
 26 27  2  0  0  0  0
 27 25  1  0  0  0  0
 28 29  2  0  0  0  0
 30 28  1  0  0  0  0
 31 27  1  0  0  0  0
 31 28  1  0  0  0  0
M  END
>  <MODEL>
8

>  <REMARK>
 VINA RESULT:      -8.8      2.101      3.029
  Name = 
  7 active torsions:
  status: ('A' for Active; 'I' for Inactive)
    1  A    between atoms: C_3  and  C_19
    2  A    between atoms: C_3  and  C_22
    3  A    between atoms: C_7  and  C_9
    4  A    between atoms: C_7  and  C_22
    5  A    between atoms: C_9  and  O_23
    6  A    between atoms: C_15  and  O_23
    7  A    between atoms: C_19  and  N_24
                            x       y       z     vdW  Elec       q    Type
                         _______ _______ _______ _____ _____    ______ ____

>  <TORSDO>
F 7

$$$$
=
 OpenBabel10272400253D

 31 34  0  0  1  0  0  0  0  0999 V2000
  183.7780  178.9400  142.2700 C   0  0  0  0  0  3  0  0  0  0  0  0
  188.0140  177.8500  143.8130 C   0  0  0  0  0  0  0  0  0  0  0  0
  188.1420  177.7820  145.2530 C   0  0  2  0  0  3  0  0  0  0  0  0
  187.2240  178.0040  147.5450 C   0  0  0  0  0  3  0  0  0  0  0  0
  186.7790  178.1410  143.1120 C   0  0  0  0  0  0  0  0  0  0  0  0
  184.4500  179.0110  141.1710 N   0  0  0  0  0  0  0  0  0  0  0  0
  187.1160  178.0450  146.0790 C   0  0  0  0  0  3  0  0  0  0  0  0
  189.1710  177.7370  141.6360 C   0  0  0  0  0  0  0  0  0  0  0  0
  184.2790  178.4820  143.5550 C   0  0  0  0  0  3  0  0  0  0  0  0
  190.5100  177.2570  145.0440 C   0  0  0  0  0  3  0  0  0  0  0  0
  188.3730  177.6880  148.1330 C   0  0  0  0  0  0  0  0  0  0  0  0
  187.9980  178.1090  141.0110 C   0  0  0  0  0  3  0  0  0  0  0  0
  189.1980  177.6300  143.0390 C   0  0  0  0  0  0  0  0  0  0  0  0
  185.5190  178.1580  143.8850 C   0  0  0  0  0  3  0  0  0  0  0  0
  188.4400  177.6580  149.4860 F   0  0  0  0  0  0  0  0  0  0  0  0
  186.8120  178.3180  141.7000 C   0  0  0  0  0  0  0  0  0  0  0  0
  185.8130  178.6830  140.8880 C   0  0  0  0  0  3  0  0  0  0  0  0
  190.4120  177.3480  143.6700 C   0  0  0  0  0  3  0  0  0  0  0  0
  189.3960  177.4670  145.8390 C   0  0  0  0  0  0  0  0  0  0  0  0
  189.5940  177.3500  147.3310 C   0  0  0  0  0  3  0  0  0  0  0  0
  190.2900  177.5260  140.8190 O   0  0  0  0  0  0  0  0  0  0  0  0
  190.2270  177.4500  139.4020 C   0  0  0  0  0  2  0  0  0  0  0  0
  190.8440  176.1460  138.9380 C   0  0  0  0  0  2  0  0  0  0  0  0
  192.0170  176.3990  137.9980 C   0  0  0  0  0  2  0  0  0  0  0  0
  192.5060  175.1220  137.3150 C   0  0  0  0  0  2  0  0  0  0  0  0
  194.5160  175.2270  135.5200 S   0  0  0  0  0  0  0  0  0  0  0  0
  193.9780  175.1480  137.0680 C   0  0  0  0  0  0  0  0  0  0  0  0
  195.5790  174.2850  138.8930 C   0  0  0  0  0  0  0  0  0  0  0  0
  195.3020  173.0340  138.7290 N   0  0  0  0  0  2  0  0  0  0  0  0
  196.5370  174.6830  139.9560 C   0  0  0  0  0  1  0  0  0  0  0  0
  194.8560  175.3060  138.1920 N   0  0  0  0  0  2  0  0  0  0  0  0
  1  9  1  0  0  0  0
  2  3  1  0  0  0  0
  3 19  1  0  0  0  0
  3  7  1  1  0  0  0
  4 11  1  0  0  0  0
  5  2  2  0  0  0  0
  5 14  1  0  0  0  0
  6  1  2  0  0  0  0
  7  4  2  0  0  0  0
  8 13  1  0  0  0  0
  9 14  2  0  0  0  0
 10 19  2  0  0  0  0
 11 15  1  0  0  0  0
 12  8  2  0  0  0  0
 12 16  1  0  0  0  0
 13 18  2  0  0  0  0
 13  2  1  0  0  0  0
 16  5  1  0  0  0  0
 17  6  1  0  0  0  0
 17 16  2  0  0  0  0
 18 10  1  0  0  0  0
 19 20  1  0  0  0  0
 20 11  2  0  0  0  0
 21  8  1  0  0  0  0
 22 21  1  0  0  0  0
 23 22  1  0  0  0  0
 24 23  1  0  0  0  0
 25 24  1  0  0  0  0
 26 27  2  0  0  0  0
 27 25  1  0  0  0  0
 27 31  1  0  0  0  0
 28 30  1  0  0  0  0
 29 28  2  0  0  0  0
 31 28  1  0  0  0  0
M  END
>  <MODEL>
9

>  <REMARK>
 VINA RESULT:      -8.8      3.583      6.286
  Name = 
  7 active torsions:
  status: ('A' for Active; 'I' for Inactive)
    1  A    between atoms: C_3  and  C_19
    2  A    between atoms: C_3  and  C_22
    3  A    between atoms: C_7  and  C_9
    4  A    between atoms: C_7  and  C_22
    5  A    between atoms: C_9  and  O_23
    6  A    between atoms: C_15  and  O_23
    7  A    between atoms: C_19  and  N_24
                            x       y       z     vdW  Elec       q    Type
                         _______ _______ _______ _____ _____    ______ ____

>  <TORSDO>
F 7

$$$$
