=
 OpenBabel10272400343D

 31 34  0  0  1  0  0  0  0  0999 V2000
  190.4410  177.2920  147.2020 C   0  0  0  0  0  0  0  0  0  0  0  0
  188.1980  177.6010  144.1180 C   0  0  0  0  0  0  0  0  0  0  0  0
  186.8910  177.9330  144.5690 C   0  0  0  0  0  0  0  0  0  0  0  0
  185.2570  178.2350  146.3540 C   0  0  0  0  0  3  0  0  0  0  0  0
  189.3390  177.2510  145.0290 C   0  0  0  0  0  0  0  0  0  0  0  0
  191.5460  176.6310  146.6630 C   0  0  0  0  0  3  0  0  0  0  0  0
  186.5470  177.9120  145.9310 C   0  0  0  0  0  3  0  0  0  0  0  0
  189.8150  177.2630  142.1890 C   0  0  2  0  0  3  0  0  0  0  0  0
  190.4290  177.6330  148.5130 F   0  0  0  0  0  0  0  0  0  0  0  0
  186.2090  178.2750  142.2660 C   0  0  0  0  0  3  0  0  0  0  0  0
  184.2830  178.5830  145.4200 C   0  0  0  0  0  3  0  0  0  0  0  0
  190.5010  176.2050  143.0520 C   0  0  0  0  0  2  0  0  0  0  0  0
  188.4370  177.5800  142.7220 C   0  0  0  0  0  0  0  0  0  0  0  0
  189.3490  177.6030  146.3890 C   0  0  0  0  0  3  0  0  0  0  0  0
  183.5090  178.9810  143.0980 C   0  0  0  0  0  1  0  0  0  0  0  0
  190.4740  176.6070  144.4920 C   0  0  0  0  0  0  0  0  0  0  0  0
  191.5620  176.2870  145.3100 C   0  0  0  0  0  3  0  0  0  0  0  0
  187.4530  177.9370  141.8530 N   0  0  0  0  0  0  0  0  0  0  0  0
  185.8880  178.2760  143.6250 C   0  0  0  0  0  0  0  0  0  0  0  0
  184.5880  178.6070  144.0580 C   0  0  0  0  0  0  0  0  0  0  0  0
  191.9170  177.4490  140.2610 O   0  0  0  0  0  0  0  0  0  0  0  0
  190.8350  176.9110  139.8980 C   0  0  0  0  0  0  0  0  0  0  0  0
  189.7410  176.7950  140.8110 N   0  0  0  0  0  2  0  0  0  0  0  0
  191.0560  175.0080  138.4930 O   0  0  0  0  0  1  0  0  0  0  0  0
  190.6940  176.3580  138.5190 C   0  0  1  0  0  3  0  0  0  0  0  0
  188.7710  175.3600  137.4730 O   0  0  0  0  0  1  0  0  0  0  0  0
  189.2730  176.5560  137.9900 C   0  0  2  0  0  3  0  0  0  0  0  0
  189.2370  177.6310  136.9130 C   0  0  0  0  0  2  0  0  0  0  0  0
  188.5630  178.8610  137.4160 C   0  0  0  0  0  0  0  0  0  0  0  0
  189.0140  179.4560  138.4300 O   0  0  0  0  0  1  0  0  0  0  0  0
  187.4580  179.3710  136.7480 O   0  0  0  0  0  0  0  0  0  0  0  0
  1  9  1  0  0  0  0
  2  3  1  0  0  0  0
  2  5  1  0  0  0  0
  3  7  1  0  0  0  0
  5 14  1  0  0  0  0
  6  1  1  0  0  0  0
  7  4  2  0  0  0  0
  8 23  1  6  0  0  0
  8 13  1  0  0  0  0
  8 12  1  0  0  0  0
 10 19  1  0  0  0  0
 11  4  1  0  0  0  0
 12 16  1  0  0  0  0
 13  2  2  0  0  0  0
 14  1  2  0  0  0  0
 15 20  1  0  0  0  0
 16  5  2  0  0  0  0
 16 17  1  0  0  0  0
 17  6  2  0  0  0  0
 18 10  2  0  0  0  0
 18 13  1  0  0  0  0
 19 20  1  0  0  0  0
 19  3  2  0  0  0  0
 20 11  2  0  0  0  0
 22 21  2  0  0  0  0
 22 23  1  0  0  0  0
 25 24  1  1  0  0  0
 25 22  1  0  0  0  0
 27 26  1  6  0  0  0
 27 25  1  0  0  0  0
 28 29  1  0  0  0  0
 28 27  1  0  0  0  0
 29 30  1  0  0  0  0
 31 29  2  0  0  0  0
M  END
>  <MODEL>
1

>  <REMARK>
 VINA RESULT:     -11.2      0.000      0.000
  Name = 
  5 active torsions:
  status: ('A' for Active; 'I' for Inactive)
    1  A    between atoms: C_1  and  C_24
    2  A    between atoms: C_9  and  C_22
    3  A    between atoms: C_15  and  N_23
    4  A    between atoms: C_19  and  C_22
    5  A    between atoms: C_19  and  C_24
                            x       y       z     vdW  Elec       q    Type
                         _______ _______ _______ _____ _____    ______ ____

>  <TORSDO>
F 5

$$$$
=
 OpenBabel10272400343D

 31 34  0  0  1  0  0  0  0  0999 V2000
  190.8510  176.9430  146.3070 C   0  0  0  0  0  0  0  0  0  0  0  0
  187.9510  177.6210  143.9050 C   0  0  0  0  0  0  0  0  0  0  0  0
  186.8090  177.9400  144.6900 C   0  0  0  0  0  0  0  0  0  0  0  0
  185.6690  178.1030  146.8390 C   0  0  0  0  0  3  0  0  0  0  0  0
  189.2580  177.1510  144.4750 C   0  0  0  0  0  0  0  0  0  0  0  0
  191.7600  176.3110  145.4570 C   0  0  0  0  0  3  0  0  0  0  0  0
  186.8010  177.7900  146.0860 C   0  0  0  0  0  3  0  0  0  0  0  0
  189.0400  177.4380  141.6180 C   0  0  2  0  0  3  0  0  0  0  0  0
  191.1710  177.1500  147.6070 F   0  0  0  0  0  0  0  0  0  0  0  0
  185.6120  178.5310  142.6640 C   0  0  0  0  0  3  0  0  0  0  0  0
  184.5180  178.5700  146.2070 C   0  0  0  0  0  3  0  0  0  0  0  0
  189.8580  176.2800  142.1860 C   0  0  0  0  0  2  0  0  0  0  0  0
  187.8470  177.7350  142.4970 C   0  0  0  0  0  0  0  0  0  0  0  0
  189.6130  177.3630  145.8170 C   0  0  0  0  0  3  0  0  0  0  0  0
  183.2300  179.2210  144.1900 C   0  0  0  0  0  1  0  0  0  0  0  0
  190.1980  176.5350  143.6210 C   0  0  0  0  0  0  0  0  0  0  0  0
  191.4330  176.1050  144.1160 C   0  0  0  0  0  3  0  0  0  0  0  0
  186.7030  178.2030  141.9300 N   0  0  0  0  0  0  0  0  0  0  0  0
  185.6280  178.4030  144.0540 C   0  0  0  0  0  0  0  0  0  0  0  0
  184.4880  178.7230  144.8190 C   0  0  0  0  0  0  0  0  0  0  0  0
  189.0780  179.2330  139.3940 O   0  0  0  0  0  0  0  0  0  0  0  0
  188.6670  178.0580  139.1910 C   0  0  0  0  0  0  0  0  0  0  0  0
  188.6140  177.1130  140.2620 N   0  0  0  0  0  2  0  0  0  0  0  0
  189.0990  176.6090  137.3580 O   0  0  0  0  0  1  0  0  0  0  0  0
  188.2610  177.6280  137.8200 C   0  0  1  0  0  3  0  0  0  0  0  0
  186.5830  176.2540  136.7780 O   0  0  0  0  0  1  0  0  0  0  0  0
  186.7960  177.1900  137.7930 C   0  0  2  0  0  3  0  0  0  0  0  0
  185.8740  178.3820  137.5860 C   0  0  0  0  0  2  0  0  0  0  0  0
  184.9740  178.5650  138.7600 C   0  0  0  0  0  0  0  0  0  0  0  0
  184.2980  177.5950  139.1920 O   0  0  0  0  0  0  0  0  0  0  0  0
  184.9070  179.7950  139.4000 O   0  0  0  0  0  1  0  0  0  0  0  0
  1  9  1  0  0  0  0
  2  5  1  0  0  0  0
  2  3  1  0  0  0  0
  3  7  1  0  0  0  0
  5 14  2  0  0  0  0
  6  1  2  0  0  0  0
  7  4  2  0  0  0  0
  8 23  1  6  0  0  0
  8 12  1  0  0  0  0
  8 13  1  0  0  0  0
 10 19  1  0  0  0  0
 11  4  1  0  0  0  0
 12 16  1  0  0  0  0
 13  2  2  0  0  0  0
 14  1  1  0  0  0  0
 15 20  1  0  0  0  0
 16 17  2  0  0  0  0
 16  5  1  0  0  0  0
 17  6  1  0  0  0  0
 18 13  1  0  0  0  0
 18 10  2  0  0  0  0
 19  3  2  0  0  0  0
 19 20  1  0  0  0  0
 20 11  2  0  0  0  0
 22 21  2  0  0  0  0
 22 23  1  0  0  0  0
 25 24  1  1  0  0  0
 25 22  1  0  0  0  0
 27 26  1  6  0  0  0
 27 25  1  0  0  0  0
 28 27  1  0  0  0  0
 28 29  1  0  0  0  0
 29 30  2  0  0  0  0
 29 31  1  0  0  0  0
M  END
>  <MODEL>
2

>  <REMARK>
 VINA RESULT:     -10.7      1.687      2.050
  Name = 
  5 active torsions:
  status: ('A' for Active; 'I' for Inactive)
    1  A    between atoms: C_1  and  C_24
    2  A    between atoms: C_9  and  C_22
    3  A    between atoms: C_15  and  N_23
    4  A    between atoms: C_19  and  C_22
    5  A    between atoms: C_19  and  C_24
                            x       y       z     vdW  Elec       q    Type
                         _______ _______ _______ _____ _____    ______ ____

>  <TORSDO>
F 5

$$$$
=
 OpenBabel10272400343D

 31 34  0  0  1  0  0  0  0  0999 V2000
  190.8840  176.9460  146.3060 C   0  0  0  0  0  0  0  0  0  0  0  0
  187.9360  177.6570  143.9730 C   0  0  0  0  0  0  0  0  0  0  0  0
  186.8120  177.9720  144.7850 C   0  0  0  0  0  0  0  0  0  0  0  0
  185.7190  178.1190  146.9590 C   0  0  0  0  0  3  0  0  0  0  0  0
  189.2540  177.1770  144.5100 C   0  0  0  0  0  0  0  0  0  0  0  0
  191.7730  176.3180  145.4310 C   0  0  0  0  0  3  0  0  0  0  0  0
  186.8340  177.8090  146.1800 C   0  0  0  0  0  3  0  0  0  0  0  0
  188.9750  177.4900  141.6610 C   0  0  2  0  0  3  0  0  0  0  0  0
  191.2330  177.1400  147.6010 F   0  0  0  0  0  0  0  0  0  0  0  0
  185.5750  178.5860  142.7910 C   0  0  0  0  0  3  0  0  0  0  0  0
  184.5570  178.5960  146.3560 C   0  0  0  0  0  3  0  0  0  0  0  0
  189.8020  176.3240  142.2020 C   0  0  0  0  0  2  0  0  0  0  0  0
  187.8030  177.7830  142.5690 C   0  0  0  0  0  0  0  0  0  0  0  0
  189.6380  177.3750  145.8470 C   0  0  0  0  0  3  0  0  0  0  0  0
  183.2280  179.2700  144.3730 C   0  0  0  0  0  1  0  0  0  0  0  0
  190.1720  176.5650  143.6310 C   0  0  0  0  0  0  0  0  0  0  0  0
  191.4160  176.1260  144.0950 C   0  0  0  0  0  3  0  0  0  0  0  0
  186.6480  178.2610  142.0310 N   0  0  0  0  0  0  0  0  0  0  0  0
  185.6200  178.4450  144.1790 C   0  0  0  0  0  0  0  0  0  0  0  0
  184.4980  178.7620  144.9720 C   0  0  0  0  0  0  0  0  0  0  0  0
  189.0500  179.2800  139.4340 O   0  0  0  0  0  0  0  0  0  0  0  0
  188.5930  178.1210  139.2380 C   0  0  0  0  0  0  0  0  0  0  0  0
  188.5190  177.1800  140.3130 N   0  0  0  0  0  2  0  0  0  0  0  0
  187.4710  178.7470  137.2400 O   0  0  0  0  0  1  0  0  0  0  0  0
  188.1530  177.7050  137.8740 C   0  0  1  0  0  3  0  0  0  0  0  0
  189.3430  177.8680  135.7900 O   0  0  0  0  0  1  0  0  0  0  0  0
  189.3400  177.2330  137.0340 C   0  0  2  0  0  3  0  0  0  0  0  0
  189.3040  175.7250  136.8360 C   0  0  0  0  0  2  0  0  0  0  0  0
  190.4840  175.0790  137.4750 C   0  0  0  0  0  0  0  0  0  0  0  0
  190.7920  175.3630  138.6620 O   0  0  0  0  0  1  0  0  0  0  0  0
  191.2260  174.1370  136.7740 O   0  0  0  0  0  0  0  0  0  0  0  0
  1  9  1  0  0  0  0
  2  5  1  0  0  0  0
  2  3  1  0  0  0  0
  3  7  1  0  0  0  0
  5 14  2  0  0  0  0
  6  1  2  0  0  0  0
  7  4  2  0  0  0  0
  8 23  1  6  0  0  0
  8 12  1  0  0  0  0
  8 13  1  0  0  0  0
 10 19  1  0  0  0  0
 11  4  1  0  0  0  0
 12 16  1  0  0  0  0
 13  2  2  0  0  0  0
 14  1  1  0  0  0  0
 15 20  1  0  0  0  0
 16 17  2  0  0  0  0
 16  5  1  0  0  0  0
 17  6  1  0  0  0  0
 18 13  1  0  0  0  0
 18 10  2  0  0  0  0
 19  3  2  0  0  0  0
 19 20  1  0  0  0  0
 20 11  2  0  0  0  0
 22 21  2  0  0  0  0
 22 23  1  0  0  0  0
 25 24  1  6  0  0  0
 25 22  1  0  0  0  0
 27 26  1  6  0  0  0
 27 25  1  0  0  0  0
 28 27  1  0  0  0  0
 28 29  1  0  0  0  0
 29 30  1  0  0  0  0
 31 29  2  0  0  0  0
M  END
>  <MODEL>
3

>  <REMARK>
 VINA RESULT:     -10.6      1.178      2.335
  Name = 
  5 active torsions:
  status: ('A' for Active; 'I' for Inactive)
    1  A    between atoms: C_1  and  C_24
    2  A    between atoms: C_9  and  C_22
    3  A    between atoms: C_15  and  N_23
    4  A    between atoms: C_19  and  C_22
    5  A    between atoms: C_19  and  C_24
                            x       y       z     vdW  Elec       q    Type
                         _______ _______ _______ _____ _____    ______ ____

>  <TORSDO>
F 5

$$$$
=
 OpenBabel10272400343D

 31 34  0  0  1  0  0  0  0  0999 V2000
  184.9870  178.2630  142.9060 C   0  0  0  0  0  0  0  0  0  0  0  0
  188.6920  177.5110  143.4930 C   0  0  0  0  0  0  0  0  0  0  0  0
  188.8930  177.4080  144.8960 C   0  0  0  0  0  0  0  0  0  0  0  0
  188.1080  177.6510  147.1920 C   0  0  0  0  0  3  0  0  0  0  0  0
  187.4020  177.9400  142.8560 C   0  0  0  0  0  0  0  0  0  0  0  0
  185.0080  178.6870  141.5760 C   0  0  0  0  0  3  0  0  0  0  0  0
  187.8910  177.7540  145.8180 C   0  0  0  0  0  3  0  0  0  0  0  0
  189.6140  177.2740  141.1380 C   0  0  2  0  0  3  0  0  0  0  0  0
  183.8150  178.2140  143.5830 F   0  0  0  0  0  0  0  0  0  0  0  0
  191.1600  176.6450  144.4920 C   0  0  0  0  0  3  0  0  0  0  0  0
  189.3370  177.2030  147.6720 C   0  0  0  0  0  3  0  0  0  0  0  0
  188.6890  178.4240  140.7430 C   0  0  0  0  0  2  0  0  0  0  0  0
  189.7820  177.2100  142.6380 C   0  0  0  0  0  0  0  0  0  0  0  0
  186.1750  177.8890  143.5370 C   0  0  0  0  0  3  0  0  0  0  0  0
  191.6580  176.3910  147.3500 C   0  0  0  0  0  1  0  0  0  0  0  0
  187.4040  178.3450  141.5040 C   0  0  0  0  0  0  0  0  0  0  0  0
  186.2150  178.7290  140.8760 C   0  0  0  0  0  3  0  0  0  0  0  0
  190.9580  176.7690  143.1580 N   0  0  0  0  0  0  0  0  0  0  0  0
  190.1460  176.9660  145.3960 C   0  0  0  0  0  0  0  0  0  0  0  0
  190.3580  176.8590  146.7850 C   0  0  0  0  0  0  0  0  0  0  0  0
  190.5680  175.7160  138.9400 O   0  0  0  0  0  0  0  0  0  0  0  0
  191.3180  176.6310  139.3780 C   0  0  0  0  0  0  0  0  0  0  0  0
  190.9050  177.4400  140.4810 N   0  0  0  0  0  2  0  0  0  0  0  0
  193.5860  177.2700  139.6830 O   0  0  0  0  0  1  0  0  0  0  0  0
  192.6340  176.9020  138.7280 C   0  0  1  0  0  3  0  0  0  0  0  0
  194.4190  175.3570  138.2610 O   0  0  0  0  0  1  0  0  0  0  0  0
  193.1070  175.6930  137.9190 C   0  0  2  0  0  3  0  0  0  0  0  0
  193.0260  175.9710  136.4250 C   0  0  0  0  0  2  0  0  0  0  0  0
  194.3860  176.1770  135.8510 C   0  0  0  0  0  0  0  0  0  0  0  0
  194.9750  175.2270  135.2720 O   0  0  0  0  0  0  0  0  0  0  0  0
  194.9910  177.4240  135.9250 O   0  0  0  0  0  1  0  0  0  0  0  0
  1 14  1  0  0  0  0
  1  9  1  0  0  0  0
  2  3  1  0  0  0  0
  3 19  2  0  0  0  0
  3  7  1  0  0  0  0
  4 11  1  0  0  0  0
  5  2  1  0  0  0  0
  5 14  2  0  0  0  0
  6  1  2  0  0  0  0
  7  4  2  0  0  0  0
  8 23  1  6  0  0  0
  8 13  1  0  0  0  0
 10 19  1  0  0  0  0
 12  8  1  0  0  0  0
 12 16  1  0  0  0  0
 13 18  1  0  0  0  0
 13  2  2  0  0  0  0
 16  5  1  0  0  0  0
 17 16  2  0  0  0  0
 17  6  1  0  0  0  0
 18 10  2  0  0  0  0
 19 20  1  0  0  0  0
 20 15  1  0  0  0  0
 20 11  2  0  0  0  0
 21 22  2  0  0  0  0
 22 23  1  0  0  0  0
 25 22  1  0  0  0  0
 25 24  1  1  0  0  0
 27 26  1  1  0  0  0
 27 25  1  0  0  0  0
 28 27  1  0  0  0  0
 29 31  1  0  0  0  0
 29 28  1  0  0  0  0
 30 29  2  0  0  0  0
M  END
>  <MODEL>
4

>  <REMARK>
 VINA RESULT:     -10.4      2.617      5.154
  Name = 
  5 active torsions:
  status: ('A' for Active; 'I' for Inactive)
    1  A    between atoms: C_1  and  C_24
    2  A    between atoms: C_9  and  C_22
    3  A    between atoms: C_15  and  N_23
    4  A    between atoms: C_19  and  C_22
    5  A    between atoms: C_19  and  C_24
                            x       y       z     vdW  Elec       q    Type
                         _______ _______ _______ _____ _____    ______ ____

>  <TORSDO>
F 5

$$$$
=
 OpenBabel10272400343D

 31 34  0  0  1  0  0  0  0  0999 V2000
  190.5570  177.2140  146.9850 C   0  0  0  0  0  0  0  0  0  0  0  0
  188.0120  177.6530  144.1620 C   0  0  0  0  0  0  0  0  0  0  0  0
  186.7640  177.9870  144.7570 C   0  0  0  0  0  0  0  0  0  0  0  0
  185.3290  178.2510  146.7100 C   0  0  0  0  0  3  0  0  0  0  0  0
  189.2350  177.2590  144.9390 C   0  0  0  0  0  0  0  0  0  0  0  0
  191.5900  176.5570  146.3150 C   0  0  0  0  0  3  0  0  0  0  0  0
  186.5620  177.9250  146.1450 C   0  0  0  0  0  3  0  0  0  0  0  0
  189.4160  177.3570  142.0670 C   0  0  2  0  0  3  0  0  0  0  0  0
  190.6860  177.5130  148.3000 F   0  0  0  0  0  0  0  0  0  0  0  0
  185.8540  178.4120  142.5490 C   0  0  0  0  0  3  0  0  0  0  0  0
  184.2700  178.6420  145.8940 C   0  0  0  0  0  3  0  0  0  0  0  0
  190.1700  176.2630  142.8200 C   0  0  0  0  0  2  0  0  0  0  0  0
  188.1050  177.6740  142.7490 C   0  0  0  0  0  0  0  0  0  0  0  0
  189.3920  177.5650  146.3000 C   0  0  0  0  0  3  0  0  0  0  0  0
  183.2660  179.1260  143.6780 C   0  0  0  0  0  1  0  0  0  0  0  0
  190.2980  176.6180  144.2670 C   0  0  0  0  0  0  0  0  0  0  0  0
  191.4600  176.2570  144.9570 C   0  0  0  0  0  3  0  0  0  0  0  0
  187.0430  178.0720  141.9980 N   0  0  0  0  0  0  0  0  0  0  0  0
  185.6750  178.3730  143.9330 C   0  0  0  0  0  0  0  0  0  0  0  0
  184.4320  178.7060  144.5090 C   0  0  0  0  0  0  0  0  0  0  0  0
  191.3160  177.5640  139.9410 O   0  0  0  0  0  0  0  0  0  0  0  0
  190.1910  177.0590  139.6740 C   0  0  0  0  0  0  0  0  0  0  0  0
  189.1930  176.9360  140.6900 N   0  0  0  0  0  2  0  0  0  0  0  0
  189.0060  177.4050  137.6440 O   0  0  0  0  0  1  0  0  0  0  0  0
  189.8990  176.5530  138.3000 C   0  0  1  0  0  3  0  0  0  0  0  0
  190.9240  176.4790  136.1250 O   0  0  0  0  0  1  0  0  0  0  0  0
  191.1860  176.3800  137.4930 C   0  0  2  0  0  3  0  0  0  0  0  0
  191.8400  175.0380  137.7900 C   0  0  0  0  0  2  0  0  0  0  0  0
  193.3240  175.1480  137.7270 C   0  0  0  0  0  0  0  0  0  0  0  0
  193.9130  176.0840  138.3290 O   0  0  0  0  0  1  0  0  0  0  0  0
  194.0630  174.1990  137.0330 O   0  0  0  0  0  0  0  0  0  0  0  0
  1  9  1  0  0  0  0
  2  3  1  0  0  0  0
  2  5  1  0  0  0  0
  3  7  1  0  0  0  0
  5 14  1  0  0  0  0
  6  1  1  0  0  0  0
  7  4  2  0  0  0  0
  8 23  1  6  0  0  0
  8 13  1  0  0  0  0
  8 12  1  0  0  0  0
 10 19  1  0  0  0  0
 11  4  1  0  0  0  0
 12 16  1  0  0  0  0
 13  2  2  0  0  0  0
 14  1  2  0  0  0  0
 15 20  1  0  0  0  0
 16  5  2  0  0  0  0
 16 17  1  0  0  0  0
 17  6  2  0  0  0  0
 18 10  2  0  0  0  0
 18 13  1  0  0  0  0
 19 20  1  0  0  0  0
 19  3  2  0  0  0  0
 20 11  2  0  0  0  0
 22 21  2  0  0  0  0
 22 23  1  0  0  0  0
 25 24  1  6  0  0  0
 25 22  1  0  0  0  0
 27 26  1  6  0  0  0
 27 28  1  0  0  0  0
 27 25  1  0  0  0  0
 29 28  1  0  0  0  0
 29 30  1  0  0  0  0
 31 29  2  0  0  0  0
M  END
>  <MODEL>
5

>  <REMARK>
 VINA RESULT:     -10.4      1.290      2.435
  Name = 
  5 active torsions:
  status: ('A' for Active; 'I' for Inactive)
    1  A    between atoms: C_1  and  C_24
    2  A    between atoms: C_9  and  C_22
    3  A    between atoms: C_15  and  N_23
    4  A    between atoms: C_19  and  C_22
    5  A    between atoms: C_19  and  C_24
                            x       y       z     vdW  Elec       q    Type
                         _______ _______ _______ _____ _____    ______ ____

>  <TORSDO>
F 5

$$$$
=
 OpenBabel10272400343D

 31 34  0  0  1  0  0  0  0  0999 V2000
  185.9990  178.2400  146.4050 C   0  0  0  0  0  0  0  0  0  0  0  0
  185.4360  178.4330  142.6260 C   0  0  0  0  0  0  0  0  0  0  0  0
  184.0490  178.6570  142.4090 C   0  0  0  0  0  0  0  0  0  0  0  0
  181.7540  178.8040  143.2210 C   0  0  0  0  0  3  0  0  0  0  0  0
  186.0430  178.1550  143.9710 C   0  0  0  0  0  0  0  0  0  0  0  0
  187.2740  177.6740  146.4570 C   0  0  0  0  0  3  0  0  0  0  0  0
  183.1120  178.5860  143.4540 C   0  0  0  0  0  3  0  0  0  0  0  0
  187.7870  178.2520  141.6810 C   0  0  2  0  0  3  0  0  0  0  0  0
  185.3520  178.5560  147.5520 F   0  0  0  0  0  0  0  0  0  0  0  0
  184.4960  178.9870  140.0480 C   0  0  0  0  0  3  0  0  0  0  0  0
  181.3050  179.0940  141.9340 C   0  0  0  0  0  3  0  0  0  0  0  0
  188.0680  177.2330  142.7840 C   0  0  0  0  0  2  0  0  0  0  0  0
  186.2990  178.4540  141.5030 C   0  0  0  0  0  0  0  0  0  0  0  0
  185.3920  178.4820  145.1710 C   0  0  0  0  0  3  0  0  0  0  0  0
  181.6750  179.4730  139.5110 C   0  0  0  0  0  1  0  0  0  0  0  0
  187.3420  177.6070  144.0380 C   0  0  0  0  0  0  0  0  0  0  0  0
  187.9440  177.3560  145.2740 C   0  0  0  0  0  3  0  0  0  0  0  0
  185.8110  178.7510  140.2690 N   0  0  0  0  0  0  0  0  0  0  0  0
  183.5800  178.9400  141.1000 C   0  0  0  0  0  0  0  0  0  0  0  0
  182.2070  179.1640  140.8710 C   0  0  0  0  0  0  0  0  0  0  0  0
  190.5590  177.6590  141.3180 O   0  0  0  0  0  0  0  0  0  0  0  0
  189.7950  177.5150  140.3250 C   0  0  0  0  0  0  0  0  0  0  0  0
  188.3990  177.8040  140.4370 N   0  0  0  0  0  2  0  0  0  0  0  0
  191.1550  175.9000  139.2360 O   0  0  0  0  0  1  0  0  0  0  0  0
  190.3320  177.0100  139.0270 C   0  0  1  0  0  3  0  0  0  0  0  0
  189.3010  175.3560  137.6160 O   0  0  0  0  0  1  0  0  0  0  0  0
  189.1990  176.6790  138.0550 C   0  0  2  0  0  3  0  0  0  0  0  0
  189.2170  177.6150  136.8560 C   0  0  0  0  0  2  0  0  0  0  0  0
  188.4100  178.8380  137.1270 C   0  0  0  0  0  0  0  0  0  0  0  0
  188.9820  179.9100  137.4530 O   0  0  0  0  0  1  0  0  0  0  0  0
  187.0290  178.8030  136.9890 O   0  0  0  0  0  0  0  0  0  0  0  0
  1  6  1  0  0  0  0
  1  9  1  0  0  0  0
  2  5  1  0  0  0  0
  3  2  1  0  0  0  0
  3  7  1  0  0  0  0
  4  7  2  0  0  0  0
  5 16  2  0  0  0  0
  5 14  1  0  0  0  0
  8 23  1  6  0  0  0
  8 12  1  0  0  0  0
 10 18  2  0  0  0  0
 10 19  1  0  0  0  0
 11  4  1  0  0  0  0
 12 16  1  0  0  0  0
 13  8  1  0  0  0  0
 13  2  2  0  0  0  0
 14  1  2  0  0  0  0
 15 20  1  0  0  0  0
 16 17  1  0  0  0  0
 17  6  2  0  0  0  0
 18 13  1  0  0  0  0
 19  3  2  0  0  0  0
 20 19  1  0  0  0  0
 20 11  2  0  0  0  0
 22 23  1  0  0  0  0
 22 21  2  0  0  0  0
 25 24  1  1  0  0  0
 25 22  1  0  0  0  0
 27 26  1  6  0  0  0
 27 25  1  0  0  0  0
 28 29  1  0  0  0  0
 28 27  1  0  0  0  0
 29 30  1  0  0  0  0
 31 29  2  0  0  0  0
M  END
>  <MODEL>
6

>  <REMARK>
 VINA RESULT:      -9.7      1.900      3.112
  Name = 
  5 active torsions:
  status: ('A' for Active; 'I' for Inactive)
    1  A    between atoms: C_1  and  C_24
    2  A    between atoms: C_9  and  C_22
    3  A    between atoms: C_15  and  N_23
    4  A    between atoms: C_19  and  C_22
    5  A    between atoms: C_19  and  C_24
                            x       y       z     vdW  Elec       q    Type
                         _______ _______ _______ _____ _____    ______ ____

>  <TORSDO>
F 5

$$$$
=
 OpenBabel10272400343D

 31 34  0  0  1  0  0  0  0  0999 V2000
  186.8410  177.7900  147.1060 C   0  0  0  0  0  0  0  0  0  0  0  0
  187.7850  178.0300  143.4060 C   0  0  0  0  0  0  0  0  0  0  0  0
  189.1850  177.8060  143.3040 C   0  0  0  0  0  0  0  0  0  0  0  0
  191.3840  177.5200  144.3180 C   0  0  0  0  0  3  0  0  0  0  0  0
  187.0460  178.1610  144.7060 C   0  0  0  0  0  0  0  0  0  0  0  0
  185.5720  178.3710  147.0970 C   0  0  0  0  0  3  0  0  0  0  0  0
  190.0110  177.7360  144.4380 C   0  0  0  0  0  3  0  0  0  0  0  0
  185.5440  178.3670  142.2580 C   0  0  2  0  0  3  0  0  0  0  0  0
  187.3660  177.3290  148.2660 F   0  0  0  0  0  0  0  0  0  0  0  0
  188.9780  177.7640  140.8870 C   0  0  0  0  0  3  0  0  0  0  0  0
  191.9600  177.3740  143.0570 C   0  0  0  0  0  3  0  0  0  0  0  0
  185.1590  179.2550  143.4410 C   0  0  0  0  0  2  0  0  0  0  0  0
  187.0400  178.1580  142.2080 C   0  0  0  0  0  0  0  0  0  0  0  0
  187.5690  177.6830  145.9190 C   0  0  0  0  0  3  0  0  0  0  0  0
  191.8350  177.2890  140.5820 C   0  0  0  0  0  1  0  0  0  0  0  0
  185.7510  178.7230  144.7070 C   0  0  0  0  0  0  0  0  0  0  0  0
  185.0280  178.8390  145.8990 C   0  0  0  0  0  3  0  0  0  0  0  0
  187.6490  177.9980  141.0020 N   0  0  0  0  0  0  0  0  0  0  0  0
  189.7830  177.6690  142.0240 C   0  0  0  0  0  0  0  0  0  0  0  0
  191.1700  177.4470  141.9080 C   0  0  0  0  0  0  0  0  0  0  0  0
  183.1290  177.6660  140.9000 O   0  0  0  0  0  0  0  0  0  0  0  0
  183.8400  178.5780  140.3960 C   0  0  0  0  0  0  0  0  0  0  0  0
  185.0650  178.9700  141.0210 N   0  0  0  0  0  2  0  0  0  0  0  0
  184.1030  180.4770  138.9930 O   0  0  0  0  0  1  0  0  0  0  0  0
  183.3960  179.2840  139.1580 C   0  0  1  0  0  3  0  0  0  0  0  0
  182.3860  177.6220  137.7400 O   0  0  0  0  0  1  0  0  0  0  0  0
  183.5420  178.3840  137.9300 C   0  0  2  0  0  3  0  0  0  0  0  0
  184.7430  177.4600  138.0700 C   0  0  0  0  0  2  0  0  0  0  0  0
  185.9060  177.9860  137.3020 C   0  0  0  0  0  0  0  0  0  0  0  0
  186.7090  178.7890  137.8450 O   0  0  0  0  0  1  0  0  0  0  0  0
  186.1250  177.5650  135.9970 O   0  0  0  0  0  0  0  0  0  0  0  0
  1  9  1  0  0  0  0
  2  5  1  0  0  0  0
  3  2  1  0  0  0  0
  3  7  1  0  0  0  0
  4  7  2  0  0  0  0
  5 16  2  0  0  0  0
  5 14  1  0  0  0  0
  6  1  1  0  0  0  0
  8 23  1  6  0  0  0
  8 12  1  0  0  0  0
 10 18  2  0  0  0  0
 10 19  1  0  0  0  0
 11  4  1  0  0  0  0
 12 16  1  0  0  0  0
 13  8  1  0  0  0  0
 13  2  2  0  0  0  0
 14  1  2  0  0  0  0
 15 20  1  0  0  0  0
 16 17  1  0  0  0  0
 17  6  2  0  0  0  0
 18 13  1  0  0  0  0
 19  3  2  0  0  0  0
 20 19  1  0  0  0  0
 20 11  2  0  0  0  0
 22 21  2  0  0  0  0
 22 23  1  0  0  0  0
 25 24  1  6  0  0  0
 25 22  1  0  0  0  0
 27 26  1  1  0  0  0
 27 28  1  0  0  0  0
 27 25  1  0  0  0  0
 29 30  1  0  0  0  0
 29 28  1  0  0  0  0
 31 29  2  0  0  0  0
M  END
>  <MODEL>
7

>  <REMARK>
 VINA RESULT:      -9.3      2.587      5.432
  Name = 
  5 active torsions:
  status: ('A' for Active; 'I' for Inactive)
    1  A    between atoms: C_1  and  C_24
    2  A    between atoms: C_9  and  C_22
    3  A    between atoms: C_15  and  N_23
    4  A    between atoms: C_19  and  C_22
    5  A    between atoms: C_19  and  C_24
                            x       y       z     vdW  Elec       q    Type
                         _______ _______ _______ _____ _____    ______ ____

>  <TORSDO>
F 5

$$$$
=
 OpenBabel10272400343D

 31 34  0  0  1  0  0  0  0  0999 V2000
  183.8240  178.7940  144.6810 C   0  0  0  0  0  0  0  0  0  0  0  0
  187.5020  177.7710  144.4240 C   0  0  0  0  0  0  0  0  0  0  0  0
  188.0340  177.7480  145.7430 C   0  0  0  0  0  0  0  0  0  0  0  0
  187.8560  178.2130  148.1290 C   0  0  0  0  0  3  0  0  0  0  0  0
  186.1260  178.2640  144.0820 C   0  0  0  0  0  0  0  0  0  0  0  0
  183.5440  179.1230  143.3540 C   0  0  0  0  0  3  0  0  0  0  0  0
  187.3150  178.2390  146.8440 C   0  0  0  0  0  3  0  0  0  0  0  0
  187.7980  177.2960  141.9470 C   0  0  2  0  0  3  0  0  0  0  0  0
  182.8540  178.8920  145.6220 F   0  0  0  0  0  0  0  0  0  0  0  0
  190.0770  176.7690  144.8730 C   0  0  0  0  0  3  0  0  0  0  0  0
  189.1330  177.6960  148.3380 C   0  0  0  0  0  3  0  0  0  0  0  0
  186.8820  178.4910  141.6880 C   0  0  0  0  0  2  0  0  0  0  0  0
  188.3250  177.3210  143.3630 C   0  0  0  0  0  0  0  0  0  0  0  0
  185.1030  178.3640  145.0400 C   0  0  0  0  0  3  0  0  0  0  0  0
  191.2450  176.6680  147.5390 C   0  0  0  0  0  1  0  0  0  0  0  0
  185.8210  178.5740  142.7390 C   0  0  0  0  0  0  0  0  0  0  0  0
  184.5430  179.0140  142.3840 C   0  0  0  0  0  3  0  0  0  0  0  0
  189.5620  176.8180  143.6220 N   0  0  0  0  0  0  0  0  0  0  0  0
  189.3390  177.2360  145.9630 C   0  0  0  0  0  0  0  0  0  0  0  0
  189.8800  177.2060  147.2650 C   0  0  0  0  0  0  0  0  0  0  0  0
  187.6820  178.3880  139.3080 O   0  0  0  0  0  0  0  0  0  0  0  0
  188.7730  177.8780  139.6830 C   0  0  0  0  0  0  0  0  0  0  0  0
  188.8950  177.3070  140.9880 N   0  0  0  0  0  2  0  0  0  0  0  0
  191.1360  177.6920  139.5120 O   0  0  0  0  0  1  0  0  0  0  0  0
  189.9620  177.8950  138.7810 C   0  0  1  0  0  3  0  0  0  0  0  0
  188.5290  176.3280  137.6500 O   0  0  0  0  0  1  0  0  0  0  0  0
  189.8220  176.8560  137.6670 C   0  0  2  0  0  3  0  0  0  0  0  0
  190.8290  175.7300  137.8410 C   0  0  0  0  0  2  0  0  0  0  0  0
  190.4990  174.5820  136.9510 C   0  0  0  0  0  0  0  0  0  0  0  0
  190.1470  173.4800  137.4480 O   0  0  0  0  0  1  0  0  0  0  0  0
  190.5460  174.7360  135.5720 O   0  0  0  0  0  0  0  0  0  0  0  0
  1 14  1  0  0  0  0
  1  9  1  0  0  0  0
  2  3  1  0  0  0  0
  3 19  2  0  0  0  0
  3  7  1  0  0  0  0
  4 11  1  0  0  0  0
  5  2  1  0  0  0  0
  5 14  2  0  0  0  0
  6  1  2  0  0  0  0
  7  4  2  0  0  0  0
  8 23  1  6  0  0  0
  8 13  1  0  0  0  0
 10 19  1  0  0  0  0
 12  8  1  0  0  0  0
 12 16  1  0  0  0  0
 13 18  1  0  0  0  0
 13  2  2  0  0  0  0
 16  5  1  0  0  0  0
 17 16  2  0  0  0  0
 17  6  1  0  0  0  0
 18 10  2  0  0  0  0
 19 20  1  0  0  0  0
 20 15  1  0  0  0  0
 20 11  2  0  0  0  0
 21 22  2  0  0  0  0
 22 23  1  0  0  0  0
 25 24  1  1  0  0  0
 25 22  1  0  0  0  0
 27 26  1  1  0  0  0
 27 28  1  0  0  0  0
 27 25  1  0  0  0  0
 29 30  1  0  0  0  0
 29 28  1  0  0  0  0
 31 29  2  0  0  0  0
M  END
>  <MODEL>
8

>  <REMARK>
 VINA RESULT:      -9.2      2.045      4.801
  Name = 
  5 active torsions:
  status: ('A' for Active; 'I' for Inactive)
    1  A    between atoms: C_1  and  C_24
    2  A    between atoms: C_9  and  C_22
    3  A    between atoms: C_15  and  N_23
    4  A    between atoms: C_19  and  C_22
    5  A    between atoms: C_19  and  C_24
                            x       y       z     vdW  Elec       q    Type
                         _______ _______ _______ _____ _____    ______ ____

>  <TORSDO>
F 5

$$$$
=
 OpenBabel10272400343D

 31 34  0  0  1  0  0  0  0  0999 V2000
  188.2150  178.0410  147.4900 C   0  0  0  0  0  0  0  0  0  0  0  0
  186.7570  177.9780  143.9530 C   0  0  0  0  0  0  0  0  0  0  0  0
  185.3730  178.2890  144.0530 C   0  0  0  0  0  0  0  0  0  0  0  0
  183.3580  178.6730  145.3710 C   0  0  0  0  0  3  0  0  0  0  0  0
  187.6580  177.7610  145.1340 C   0  0  0  0  0  0  0  0  0  0  0  0
  189.4310  177.3850  147.2900 C   0  0  0  0  0  3  0  0  0  0  0  0
  184.7180  178.3720  145.2930 C   0  0  0  0  0  3  0  0  0  0  0  0
  188.7920  177.5450  142.4960 C   0  0  2  0  0  3  0  0  0  0  0  0
  187.8850  178.4940  148.7230 F   0  0  0  0  0  0  0  0  0  0  0  0
  185.2470  178.3970  141.6330 C   0  0  0  0  0  3  0  0  0  0  0  0
  182.6240  178.8940  144.2070 C   0  0  0  0  0  3  0  0  0  0  0  0
  189.2780  176.5980  143.5920 C   0  0  0  0  0  2  0  0  0  0  0  0
  187.3200  177.8450  142.6600 C   0  0  0  0  0  0  0  0  0  0  0  0
  187.3390  178.2300  146.4190 C   0  0  0  0  0  3  0  0  0  0  0  0
  182.4120  179.0520  141.7410 C   0  0  0  0  0  1  0  0  0  0  0  0
  188.9020  177.1230  144.9410 C   0  0  0  0  0  0  0  0  0  0  0  0
  189.7730  176.9250  146.0170 C   0  0  0  0  0  3  0  0  0  0  0  0
  186.5620  178.0800  141.5560 N   0  0  0  0  0  0  0  0  0  0  0  0
  184.6150  178.5030  142.8730 C   0  0  0  0  0  0  0  0  0  0  0  0
  183.2420  178.8120  142.9580 C   0  0  0  0  0  0  0  0  0  0  0  0
  189.2620  179.0040  140.0840 O   0  0  0  0  0  0  0  0  0  0  0  0
  189.2920  177.7440  140.0220 C   0  0  0  0  0  0  0  0  0  0  0  0
  189.0560  176.9550  141.1900 N   0  0  0  0  0  2  0  0  0  0  0  0
  190.1250  175.7840  138.9690 O   0  0  0  0  0  1  0  0  0  0  0  0
  189.6080  177.0610  138.7330 C   0  0  1  0  0  3  0  0  0  0  0  0
  188.0600  175.6700  137.5260 O   0  0  0  0  0  1  0  0  0  0  0  0
  188.3760  176.9960  137.8290 C   0  0  2  0  0  3  0  0  0  0  0  0
  188.6040  177.7720  136.5400 C   0  0  0  0  0  2  0  0  0  0  0  0
  189.1380  176.8790  135.4730 C   0  0  0  0  0  0  0  0  0  0  0  0
  188.3860  176.4890  134.5430 O   0  0  0  0  0  0  0  0  0  0  0  0
  190.4750  176.5050  135.4850 O   0  0  0  0  0  1  0  0  0  0  0  0
  1  9  1  0  0  0  0
  2  3  1  0  0  0  0
  2  5  1  0  0  0  0
  3  7  1  0  0  0  0
  5 14  1  0  0  0  0
  6  1  1  0  0  0  0
  7  4  2  0  0  0  0
  8 23  1  6  0  0  0
  8 13  1  0  0  0  0
  8 12  1  0  0  0  0
 10 19  1  0  0  0  0
 11  4  1  0  0  0  0
 12 16  1  0  0  0  0
 13  2  2  0  0  0  0
 14  1  2  0  0  0  0
 15 20  1  0  0  0  0
 16  5  2  0  0  0  0
 16 17  1  0  0  0  0
 17  6  2  0  0  0  0
 18 10  2  0  0  0  0
 18 13  1  0  0  0  0
 19 20  1  0  0  0  0
 19  3  2  0  0  0  0
 20 11  2  0  0  0  0
 22 21  2  0  0  0  0
 22 23  1  0  0  0  0
 25 24  1  1  0  0  0
 25 22  1  0  0  0  0
 27 26  1  6  0  0  0
 27 25  1  0  0  0  0
 28 27  1  0  0  0  0
 29 31  1  0  0  0  0
 29 28  1  0  0  0  0
 30 29  2  0  0  0  0
M  END
>  <MODEL>
9

>  <REMARK>
 VINA RESULT:      -8.9      1.462      2.095
  Name = 
  5 active torsions:
  status: ('A' for Active; 'I' for Inactive)
    1  A    between atoms: C_1  and  C_24
    2  A    between atoms: C_9  and  C_22
    3  A    between atoms: C_15  and  N_23
    4  A    between atoms: C_19  and  C_22
    5  A    between atoms: C_19  and  C_24
                            x       y       z     vdW  Elec       q    Type
                         _______ _______ _______ _____ _____    ______ ____

>  <TORSDO>
F 5

$$$$
