=
 OpenBabel10262423533D

 34 40  0  0  1  0  0  0  0  0999 V2000
  184.8690  178.4250  143.5730 C   0  0  0  0  0  0  0  0  0  0  0  0
  185.1500  178.7010  141.1660 C   0  0  0  0  0  0  0  0  0  0  0  0
  187.0840  178.3500  142.5900 C   0  0  0  0  0  0  0  0  0  0  0  0
  189.1640  177.9010  141.4470 N   0  0  0  0  0  0  0  0  0  0  0  0
  182.9820  178.8480  142.1230 C   0  0  0  0  0  3  0  0  0  0  0  0
  183.8080  178.8480  141.0350 N   0  0  0  0  0  0  0  0  0  0  0  0
  187.3410  178.3990  140.1470 C   0  0  2  0  0  3  0  0  0  0  0  0
  185.7050  178.5300  142.4510 C   0  0  0  0  0  0  0  0  0  0  0  0
  188.1500  176.9330  138.1610 N   0  0  0  0  0  2  0  0  0  0  0  0
  189.3060  177.2530  140.2130 N   0  0  0  0  0  0  0  0  0  0  0  0
  183.4960  178.6200  143.4100 C   0  0  0  0  0  3  0  0  0  0  0  0
  187.6330  177.8790  143.7840 C   0  0  0  0  0  0  0  0  0  0  0  0
  185.4210  178.0500  144.8090 C   0  0  0  0  0  3  0  0  0  0  0  0
  186.0110  178.4270  139.9810 C   0  0  0  0  0  2  0  0  0  0  0  0
  189.7150  177.3870  142.6400 N   0  0  0  0  0  0  0  0  0  0  0  0
  189.0490  177.4110  143.7670 C   0  0  0  0  0  0  0  0  0  0  0  0
  188.3170  177.5640  139.4360 C   0  0  0  0  0  0  0  0  0  0  0  0
  187.9740  178.7240  141.4530 C   0  0  1  0  0  3  0  0  0  0  0  0
  186.7930  177.7490  144.9060 C   0  0  0  0  0  3  0  0  0  0  0  0
  190.0000  177.3680  147.3810 C   0  0  0  0  0  0  0  0  0  0  0  0
  190.9970  176.2460  147.4040 C   0  0  0  0  0  2  0  0  0  0  0  0
  189.6590  176.8260  145.0150 C   0  0  2  0  0  3  0  0  0  0  0  0
  191.9240  176.3720  146.1930 C   0  0  0  0  0  2  0  0  0  0  0  0
  189.3810  177.6710  146.2300 C   0  0  0  0  0  3  0  0  0  0  0  0
  191.1550  176.4750  144.8600 C   0  0  0  0  0  2  0  0  0  0  0  0
  189.7870  178.1150  148.4960 F   0  0  0  0  0  0  0  0  0  0  0  0
  187.2200  177.3390  137.1170 C   0  0  1  0  0  3  0  0  0  0  0  0
  187.4990  176.4910  135.8980 C   0  0  0  0  0  2  0  0  0  0  0  0
  186.2660  176.2150  136.7390 C   0  0  2  0  0  3  0  0  0  0  0  0
  185.0590  176.7120  135.9810 C   0  0  0  0  0  0  0  0  0  0  0  0
  182.7160  177.5980  135.8800 C   0  0  0  0  0  1  0  0  0  0  0  0
  183.7720  176.9060  136.6020 N   0  0  0  0  0  0  0  0  0  0  0  0
  183.4590  176.4020  137.9290 C   0  0  0  0  0  1  0  0  0  0  0  0
  185.1990  176.9700  134.7550 O   0  0  0  0  0  0  0  0  0  0  0  0
  1 13  1  0  0  0  0
  2  8  1  0  0  0  0
  3 12  2  0  0  0  0
  4 18  1  0  0  0  0
  4 15  1  0  0  0  0
  5 11  2  0  0  0  0
  6  2  2  0  0  0  0
  6  5  1  0  0  0  0
  7 14  1  1  0  0  0
  7 18  1  0  0  0  0
  8  3  1  0  0  0  0
  8  1  2  0  0  0  0
  9 17  1  0  0  0  0
 10  4  1  0  0  0  0
 11  1  1  0  0  0  0
 12 19  1  0  0  0  0
 13 19  2  0  0  0  0
 14  2  1  0  0  0  0
 15 16  2  0  0  0  0
 16 12  1  0  0  0  0
 17  7  1  0  0  0  0
 17 10  2  0  0  0  0
 18  3  1  1  0  0  0
 20 21  1  0  0  0  0
 20 26  1  0  0  0  0
 22 16  1  6  0  0  0
 22 24  1  0  0  0  0
 23 21  1  0  0  0  0
 24 20  2  0  0  0  0
 25 22  1  0  0  0  0
 25 23  1  0  0  0  0
 27  9  1  1  0  0  0
 28 29  1  0  0  0  0
 28 27  1  0  0  0  0
 29 30  1  6  0  0  0
 29 27  1  0  0  0  0
 30 32  1  0  0  0  0
 31 32  1  0  0  0  0
 32 33  1  0  0  0  0
 34 30  2  0  0  0  0
M  END
>  <MODEL>
1

>  <REMARK>
 VINA RESULT:     -10.3      0.000      0.000
  Name = 
  3 active torsions:
  status: ('A' for Active; 'I' for Inactive)
    1  A    between atoms: C_3  and  N_17
    2  A    between atoms: C_12  and  C_28
    3  A    between atoms: C_13  and  C_14
                            x       y       z     vdW  Elec       q    Type
                         _______ _______ _______ _____ _____    ______ ____

>  <TORSDO>
F 3

$$$$
=
 OpenBabel10262423533D

 34 40  0  0  1  0  0  0  0  0999 V2000
  185.3120  178.6180  141.5310 C   0  0  0  0  0  0  0  0  0  0  0  0
  186.8860  178.3110  139.6940 C   0  0  0  0  0  0  0  0  0  0  0  0
  187.6700  178.2980  141.9910 C   0  0  0  0  0  0  0  0  0  0  0  0
  189.9530  177.5780  142.3170 N   0  0  0  0  0  0  0  0  0  0  0  0
  184.5900  178.6950  139.2260 C   0  0  0  0  0  3  0  0  0  0  0  0
  185.8640  178.4300  138.8090 N   0  0  0  0  0  0  0  0  0  0  0  0
  189.2140  177.7630  140.1540 C   0  0  2  0  0  3  0  0  0  0  0  0
  186.6270  178.4480  141.0730 C   0  0  0  0  0  0  0  0  0  0  0  0
  190.7580  175.8620  139.2900 N   0  0  0  0  0  2  0  0  0  0  0  0
  190.6490  176.6550  141.5280 N   0  0  0  0  0  0  0  0  0  0  0  0
  184.2890  178.7770  140.5950 C   0  0  0  0  0  3  0  0  0  0  0  0
  187.4150  178.1220  143.3520 C   0  0  0  0  0  0  0  0  0  0  0  0
  185.0490  178.5450  142.9090 C   0  0  0  0  0  3  0  0  0  0  0  0
  188.2040  177.7580  139.2720 C   0  0  0  0  0  2  0  0  0  0  0  0
  189.6930  177.3600  143.6880 N   0  0  0  0  0  0  0  0  0  0  0  0
  188.5340  177.6550  144.2200 C   0  0  0  0  0  0  0  0  0  0  0  0
  190.2930  176.7760  140.2890 C   0  0  0  0  0  0  0  0  0  0  0  0
  189.0760  178.3860  141.4990 C   0  0  1  0  0  3  0  0  0  0  0  0
  186.0930  178.2680  143.8130 C   0  0  0  0  0  3  0  0  0  0  0  0
  187.1370  178.3580  147.6140 C   0  0  0  0  0  0  0  0  0  0  0  0
  187.9360  177.4070  148.4570 C   0  0  0  0  0  2  0  0  0  0  0  0
  188.2840  177.3810  145.6800 C   0  0  2  0  0  3  0  0  0  0  0  0
  189.4010  177.4560  148.0190 C   0  0  0  0  0  2  0  0  0  0  0  0
  187.3250  178.3720  146.2860 C   0  0  0  0  0  3  0  0  0  0  0  0
  189.5800  177.2230  146.5050 C   0  0  0  0  0  2  0  0  0  0  0  0
  186.2900  179.2450  148.2000 F   0  0  0  0  0  0  0  0  0  0  0  0
  190.6080  176.0120  137.8500 C   0  0  1  0  0  3  0  0  0  0  0  0
  191.0040  174.7040  137.2060 C   0  0  0  0  0  2  0  0  0  0  0  0
  189.5380  175.0850  137.2910 C   0  0  2  0  0  3  0  0  0  0  0  0
  189.0780  175.4960  135.9140 C   0  0  0  0  0  0  0  0  0  0  0  0
  187.4080  176.5150  134.3460 C   0  0  0  0  0  1  0  0  0  0  0  0
  187.7280  175.9180  135.6330 N   0  0  0  0  0  0  0  0  0  0  0  0
  186.6390  175.7380  136.5790 C   0  0  0  0  0  1  0  0  0  0  0  0
  189.9250  175.4710  134.9790 O   0  0  0  0  0  0  0  0  0  0  0  0
  1 13  1  0  0  0  0
  2  8  1  0  0  0  0
  3 12  2  0  0  0  0
  4 15  1  0  0  0  0
  5 11  2  0  0  0  0
  6  5  1  0  0  0  0
  6  2  2  0  0  0  0
  7 14  1  1  0  0  0
  7 17  1  0  0  0  0
  7 18  1  0  0  0  0
  8  1  2  0  0  0  0
  8  3  1  0  0  0  0
  9 17  1  0  0  0  0
 10  4  1  0  0  0  0
 11  1  1  0  0  0  0
 12 19  1  0  0  0  0
 12 16  1  0  0  0  0
 13 19  2  0  0  0  0
 14  2  1  0  0  0  0
 15 16  2  0  0  0  0
 17 10  2  0  0  0  0
 18  3  1  1  0  0  0
 18  4  1  0  0  0  0
 20 26  1  0  0  0  0
 20 21  1  0  0  0  0
 22 16  1  6  0  0  0
 22 24  1  0  0  0  0
 22 25  1  0  0  0  0
 23 21  1  0  0  0  0
 24 20  2  0  0  0  0
 25 23  1  0  0  0  0
 27  9  1  1  0  0  0
 28 29  1  0  0  0  0
 28 27  1  0  0  0  0
 29 30  1  6  0  0  0
 29 27  1  0  0  0  0
 31 32  1  0  0  0  0
 32 30  1  0  0  0  0
 32 33  1  0  0  0  0
 34 30  2  0  0  0  0
M  END
>  <MODEL>
2

>  <REMARK>
 VINA RESULT:      -9.7      2.028      2.872
  Name = 
  3 active torsions:
  status: ('A' for Active; 'I' for Inactive)
    1  A    between atoms: C_3  and  N_17
    2  A    between atoms: C_12  and  C_28
    3  A    between atoms: C_13  and  C_14
                            x       y       z     vdW  Elec       q    Type
                         _______ _______ _______ _____ _____    ______ ____

>  <TORSDO>
F 3

$$$$
=
 OpenBabel10262423533D

 34 40  0  0  1  0  0  0  0  0999 V2000
  184.0780  178.6440  143.1230 C   0  0  0  0  0  0  0  0  0  0  0  0
  183.6570  178.7570  140.7230 C   0  0  0  0  0  0  0  0  0  0  0  0
  185.9330  178.6850  141.5630 C   0  0  0  0  0  0  0  0  0  0  0  0
  187.6540  178.3310  139.9050 N   0  0  0  0  0  0  0  0  0  0  0  0
  181.8320  178.7880  142.2420 C   0  0  0  0  0  3  0  0  0  0  0  0
  182.3230  178.7760  140.9670 N   0  0  0  0  0  0  0  0  0  0  0  0
  185.5040  178.5680  139.1460 C   0  0  2  0  0  3  0  0  0  0  0  0
  184.5590  178.7340  141.8070 C   0  0  0  0  0  0  0  0  0  0  0  0
  185.8850  177.0290  137.0890 N   0  0  0  0  0  2  0  0  0  0  0  0
  187.5190  177.6060  138.7150 N   0  0  0  0  0  0  0  0  0  0  0  0
  182.7010  178.7060  143.3420 C   0  0  0  0  0  3  0  0  0  0  0  0
  186.8350  178.3570  142.5760 C   0  0  0  0  0  0  0  0  0  0  0  0
  184.9840  178.4140  144.1720 C   0  0  0  0  0  3  0  0  0  0  0  0
  184.1830  178.4670  139.3590 C   0  0  0  0  0  2  0  0  0  0  0  0
  188.5630  177.9610  140.9200 N   0  0  0  0  0  0  0  0  0  0  0  0
  188.2330  178.0140  142.1860 C   0  0  0  0  0  0  0  0  0  0  0  0
  186.3290  177.7680  138.2320 C   0  0  0  0  0  0  0  0  0  0  0  0
  186.4330  179.0470  140.2040 C   0  0  1  0  0  3  0  0  0  0  0  0
  186.3550  178.2420  143.8940 C   0  0  0  0  0  3  0  0  0  0  0  0
  191.3410  178.2940  144.2430 C   0  0  0  0  0  0  0  0  0  0  0  0
  191.4320  176.9100  144.8180 C   0  0  0  0  0  2  0  0  0  0  0  0
  189.2200  177.5820  143.2400 C   0  0  2  0  0  3  0  0  0  0  0  0
  191.1240  175.8880  143.7210 C   0  0  0  0  0  2  0  0  0  0  0  0
  190.2990  178.6090  143.4590 C   0  0  0  0  0  3  0  0  0  0  0  0
  189.7840  176.1640  143.0070 C   0  0  0  0  0  2  0  0  0  0  0  0
  192.3410  179.1880  144.4550 F   0  0  0  0  0  0  0  0  0  0  0  0
  184.6670  177.2710  136.3290 C   0  0  1  0  0  3  0  0  0  0  0  0
  184.7990  176.5510  135.0070 C   0  0  0  0  0  2  0  0  0  0  0  0
  183.8880  175.9870  136.0820 C   0  0  2  0  0  3  0  0  0  0  0  0
  182.4590  176.2470  135.6720 C   0  0  0  0  0  0  0  0  0  0  0  0
  180.0850  176.8680  136.1830 C   0  0  0  0  0  1  0  0  0  0  0  0
  181.3870  176.3950  136.6250 N   0  0  0  0  0  0  0  0  0  0  0  0
  181.5360  176.0530  138.0300 C   0  0  0  0  0  1  0  0  0  0  0  0
  182.2090  176.3440  134.4400 O   0  0  0  0  0  0  0  0  0  0  0  0
  1 11  1  0  0  0  0
  1 13  1  0  0  0  0
  2  6  2  0  0  0  0
  2  8  1  0  0  0  0
  3  8  1  0  0  0  0
  3 12  2  0  0  0  0
  4 18  1  0  0  0  0
  4 15  1  0  0  0  0
  5 11  2  0  0  0  0
  6  5  1  0  0  0  0
  7 14  1  1  0  0  0
  7 18  1  0  0  0  0
  8  1  2  0  0  0  0
  9 17  1  0  0  0  0
 10  4  1  0  0  0  0
 12 19  1  0  0  0  0
 14  2  1  0  0  0  0
 15 16  2  0  0  0  0
 16 12  1  0  0  0  0
 17 10  2  0  0  0  0
 17  7  1  0  0  0  0
 18  3  1  1  0  0  0
 19 13  2  0  0  0  0
 20 26  1  0  0  0  0
 20 21  1  0  0  0  0
 22 16  1  6  0  0  0
 22 24  1  0  0  0  0
 23 21  1  0  0  0  0
 24 20  2  0  0  0  0
 25 22  1  0  0  0  0
 25 23  1  0  0  0  0
 27  9  1  1  0  0  0
 28 29  1  0  0  0  0
 28 27  1  0  0  0  0
 29 30  1  6  0  0  0
 29 27  1  0  0  0  0
 30 32  1  0  0  0  0
 31 32  1  0  0  0  0
 32 33  1  0  0  0  0
 34 30  2  0  0  0  0
M  END
>  <MODEL>
3

>  <REMARK>
 VINA RESULT:      -9.1      1.832      2.323
  Name = 
  3 active torsions:
  status: ('A' for Active; 'I' for Inactive)
    1  A    between atoms: C_3  and  N_17
    2  A    between atoms: C_12  and  C_28
    3  A    between atoms: C_13  and  C_14
                            x       y       z     vdW  Elec       q    Type
                         _______ _______ _______ _____ _____    ______ ____

>  <TORSDO>
F 3

$$$$
=
 OpenBabel10262423533D

 34 40  0  0  1  0  0  0  0  0999 V2000
  185.9820  178.3120  144.2620 C   0  0  0  0  0  0  0  0  0  0  0  0
  185.7890  178.5680  141.8440 C   0  0  0  0  0  0  0  0  0  0  0  0
  187.9740  178.3670  142.8820 C   0  0  0  0  0  0  0  0  0  0  0  0
  189.8290  178.0390  141.3690 N   0  0  0  0  0  0  0  0  0  0  0  0
  183.8330  178.5870  143.1900 C   0  0  0  0  0  3  0  0  0  0  0  0
  184.4390  178.6240  141.9660 N   0  0  0  0  0  0  0  0  0  0  0  0
  187.7670  178.3960  140.4330 C   0  0  2  0  0  3  0  0  0  0  0  0
  186.5850  178.4540  143.0030 C   0  0  0  0  0  0  0  0  0  0  0  0
  188.2870  176.9560  138.3350 N   0  0  0  0  0  2  0  0  0  0  0  0
  189.7820  177.3830  140.1330 N   0  0  0  0  0  0  0  0  0  0  0  0
  184.5930  178.4130  144.3580 C   0  0  0  0  0  3  0  0  0  0  0  0
  188.7670  177.9520  143.9520 C   0  0  0  0  0  0  0  0  0  0  0  0
  186.7790  177.9930  145.3740 C   0  0  0  0  0  3  0  0  0  0  0  0
  186.4300  178.3330  140.5190 C   0  0  0  0  0  2  0  0  0  0  0  0
  190.6270  177.5810  142.4400 N   0  0  0  0  0  0  0  0  0  0  0  0
  190.1830  177.5780  143.6710 C   0  0  0  0  0  0  0  0  0  0  0  0
  188.6470  177.6160  139.5540 C   0  0  0  0  0  0  0  0  0  0  0  0
  188.6090  178.7820  141.5970 C   0  0  1  0  0  3  0  0  0  0  0  0
  188.1630  177.7840  145.2120 C   0  0  0  0  0  3  0  0  0  0  0  0
  192.2440  175.0170  145.4490 C   0  0  0  0  0  0  0  0  0  0  0  0
  192.3540  175.6320  146.8140 C   0  0  0  0  0  2  0  0  0  0  0  0
  191.0540  177.0540  144.7840 C   0  0  2  0  0  3  0  0  0  0  0  0
  190.9900  176.1880  147.2270 C   0  0  0  0  0  2  0  0  0  0  0  0
  191.5920  175.6800  144.4830 C   0  0  0  0  0  3  0  0  0  0  0  0
  190.3910  177.1440  146.1760 C   0  0  0  0  0  2  0  0  0  0  0  0
  192.7320  173.7690  145.2210 F   0  0  0  0  0  0  0  0  0  0  0  0
  187.1530  177.2830  137.4820 C   0  0  1  0  0  3  0  0  0  0  0  0
  187.6510  178.1920  136.3830 C   0  0  0  0  0  2  0  0  0  0  0  0
  187.3300  176.7420  136.0710 C   0  0  2  0  0  3  0  0  0  0  0  0
  186.0330  176.7030  135.3000 C   0  0  0  0  0  0  0  0  0  0  0  0
  183.7850  175.7160  134.7920 C   0  0  0  0  0  1  0  0  0  0  0  0
  185.1130  175.5950  135.3740 N   0  0  0  0  0  0  0  0  0  0  0  0
  185.4670  174.3220  135.9810 C   0  0  0  0  0  1  0  0  0  0  0  0
  185.7520  177.6920  134.5700 O   0  0  0  0  0  0  0  0  0  0  0  0
  1 11  1  0  0  0  0
  1 13  1  0  0  0  0
  2  6  2  0  0  0  0
  2  8  1  0  0  0  0
  3  8  1  0  0  0  0
  3 12  2  0  0  0  0
  4 18  1  0  0  0  0
  4 15  1  0  0  0  0
  5 11  2  0  0  0  0
  6  5  1  0  0  0  0
  7 14  1  1  0  0  0
  7 18  1  0  0  0  0
  8  1  2  0  0  0  0
  9 17  1  0  0  0  0
 10  4  1  0  0  0  0
 12 19  1  0  0  0  0
 14  2  1  0  0  0  0
 15 16  2  0  0  0  0
 16 12  1  0  0  0  0
 17 10  2  0  0  0  0
 17  7  1  0  0  0  0
 18  3  1  1  0  0  0
 19 13  2  0  0  0  0
 20 21  1  0  0  0  0
 21 23  1  0  0  0  0
 22 16  1  6  0  0  0
 22 25  1  0  0  0  0
 24 22  1  0  0  0  0
 24 20  2  0  0  0  0
 25 23  1  0  0  0  0
 26 20  1  0  0  0  0
 27  9  1  1  0  0  0
 28 27  1  0  0  0  0
 29 30  1  6  0  0  0
 29 28  1  0  0  0  0
 29 27  1  0  0  0  0
 30 32  1  0  0  0  0
 31 32  1  0  0  0  0
 32 33  1  0  0  0  0
 34 30  2  0  0  0  0
M  END
>  <MODEL>
4

>  <REMARK>
 VINA RESULT:      -8.9      1.551      1.910
  Name = 
  3 active torsions:
  status: ('A' for Active; 'I' for Inactive)
    1  A    between atoms: C_3  and  N_17
    2  A    between atoms: C_12  and  C_28
    3  A    between atoms: C_13  and  C_14
                            x       y       z     vdW  Elec       q    Type
                         _______ _______ _______ _____ _____    ______ ____

>  <TORSDO>
F 3

$$$$
=
 OpenBabel10262423533D

 34 40  0  0  1  0  0  0  0  0999 V2000
  187.4520  177.6420  137.8220 C   0  0  0  0  0  0  0  0  0  0  0  0
  187.8570  178.3570  140.1180 C   0  0  0  0  0  0  0  0  0  0  0  0
  185.6060  178.3730  139.2130 C   0  0  0  0  0  0  0  0  0  0  0  0
  183.8330  178.7370  140.8130 N   0  0  0  0  0  0  0  0  0  0  0  0
  189.6840  177.7110  138.7450 C   0  0  0  0  0  3  0  0  0  0  0  0
  189.1830  178.1220  139.9480 N   0  0  0  0  0  0  0  0  0  0  0  0
  185.9860  178.8730  141.5890 C   0  0  2  0  0  3  0  0  0  0  0  0
  186.9750  178.1600  139.0360 C   0  0  0  0  0  0  0  0  0  0  0  0
  185.3580  178.0350  143.9650 N   0  0  0  0  0  2  0  0  0  0  0  0
  183.8450  178.3590  142.1610 N   0  0  0  0  0  0  0  0  0  0  0  0
  188.8250  177.4480  137.6660 C   0  0  0  0  0  3  0  0  0  0  0  0
  184.6770  177.9050  138.2820 C   0  0  0  0  0  0  0  0  0  0  0  0
  186.5330  177.2590  136.8300 C   0  0  0  0  0  3  0  0  0  0  0  0
  187.2790  178.5340  141.4800 C   0  0  0  0  0  2  0  0  0  0  0  0
  182.8910  178.2290  139.8920 N   0  0  0  0  0  0  0  0  0  0  0  0
  183.2390  177.8820  138.6790 C   0  0  0  0  0  0  0  0  0  0  0  0
  185.0410  178.4820  142.6420 C   0  0  0  0  0  0  0  0  0  0  0  0
  185.1500  179.1640  140.3930 C   0  0  1  0  0  3  0  0  0  0  0  0
  185.1500  177.3630  137.0730 C   0  0  0  0  0  3  0  0  0  0  0  0
  181.5910  175.1980  136.6660 C   0  0  0  0  0  0  0  0  0  0  0  0
  180.7330  176.0140  135.7450 C   0  0  0  0  0  2  0  0  0  0  0  0
  182.2110  177.3160  137.7330 C   0  0  2  0  0  3  0  0  0  0  0  0
  181.5400  177.2080  135.2310 C   0  0  0  0  0  2  0  0  0  0  0  0
  182.3270  175.8210  137.5990 C   0  0  0  0  0  3  0  0  0  0  0  0
  182.1710  178.0370  136.3680 C   0  0  0  0  0  2  0  0  0  0  0  0
  181.6790  173.8520  136.5050 F   0  0  0  0  0  0  0  0  0  0  0  0
  186.5900  178.3060  144.6930 C   0  0  1  0  0  3  0  0  0  0  0  0
  186.4710  177.6630  146.0550 C   0  0  0  0  0  2  0  0  0  0  0  0
  187.3600  177.0300  145.0000 C   0  0  2  0  0  3  0  0  0  0  0  0
  188.7970  177.2980  145.3730 C   0  0  0  0  0  0  0  0  0  0  0  0
  191.2220  177.5740  144.8000 C   0  0  0  0  0  1  0  0  0  0  0  0
  189.8940  177.0850  144.4620 N   0  0  0  0  0  0  0  0  0  0  0  0
  189.7440  176.3580  143.2120 C   0  0  0  0  0  1  0  0  0  0  0  0
  189.0330  177.7330  146.5340 O   0  0  0  0  0  0  0  0  0  0  0  0
  1  8  1  0  0  0  0
  2 14  1  0  0  0  0
  4 10  1  0  0  0  0
  5  6  2  0  0  0  0
  6  2  1  0  0  0  0
  7 14  1  6  0  0  0
  7 17  1  0  0  0  0
  8  3  1  0  0  0  0
  8  2  2  0  0  0  0
 10 17  2  0  0  0  0
 11  1  2  0  0  0  0
 11  5  1  0  0  0  0
 12 16  1  0  0  0  0
 12  3  2  0  0  0  0
 13 19  2  0  0  0  0
 13  1  1  0  0  0  0
 15  4  1  0  0  0  0
 16 15  2  0  0  0  0
 17  9  1  0  0  0  0
 18  3  1  6  0  0  0
 18  4  1  0  0  0  0
 18  7  1  0  0  0  0
 19 12  1  0  0  0  0
 20 24  2  0  0  0  0
 21 20  1  0  0  0  0
 22 16  1  1  0  0  0
 23 21  1  0  0  0  0
 23 25  1  0  0  0  0
 24 22  1  0  0  0  0
 25 22  1  0  0  0  0
 26 20  1  0  0  0  0
 27  9  1  6  0  0  0
 27 29  1  0  0  0  0
 27 28  1  0  0  0  0
 29 30  1  1  0  0  0
 29 28  1  0  0  0  0
 30 34  2  0  0  0  0
 32 31  1  0  0  0  0
 32 30  1  0  0  0  0
 33 32  1  0  0  0  0
M  END
>  <MODEL>
5

>  <REMARK>
 VINA RESULT:      -8.8      3.666      8.986
  Name = 
  3 active torsions:
  status: ('A' for Active; 'I' for Inactive)
    1  A    between atoms: C_3  and  N_17
    2  A    between atoms: C_12  and  C_28
    3  A    between atoms: C_13  and  C_14
                            x       y       z     vdW  Elec       q    Type
                         _______ _______ _______ _____ _____    ______ ____

>  <TORSDO>
F 3

$$$$
=
 OpenBabel10262423533D

 34 40  0  0  1  0  0  0  0  0999 V2000
  187.5540  177.6200  137.8070 C   0  0  0  0  0  0  0  0  0  0  0  0
  187.9180  178.3270  140.1120 C   0  0  0  0  0  0  0  0  0  0  0  0
  185.6860  178.3600  139.1620 C   0  0  0  0  0  0  0  0  0  0  0  0
  183.8830  178.7330  140.7270 N   0  0  0  0  0  0  0  0  0  0  0  0
  189.7680  177.6710  138.7750 C   0  0  0  0  0  3  0  0  0  0  0  0
  189.2460  178.0820  139.9680 N   0  0  0  0  0  0  0  0  0  0  0  0
  186.0220  178.8530  141.5460 C   0  0  2  0  0  3  0  0  0  0  0  0
  187.0570  178.1380  139.0120 C   0  0  0  0  0  0  0  0  0  0  0  0
  185.3400  178.0130  143.9070 N   0  0  0  0  0  2  0  0  0  0  0  0
  183.8660  178.3520  142.0740 N   0  0  0  0  0  0  0  0  0  0  0  0
  188.9290  177.4170  137.6780 C   0  0  0  0  0  3  0  0  0  0  0  0
  184.7720  177.9010  138.2120 C   0  0  0  0  0  0  0  0  0  0  0  0
  186.6530  177.2450  136.7960 C   0  0  0  0  0  3  0  0  0  0  0  0
  187.3140  178.5050  141.4630 C   0  0  0  0  0  2  0  0  0  0  0  0
  182.9560  178.2340  139.7860 N   0  0  0  0  0  0  0  0  0  0  0  0
  183.3270  177.8870  138.5790 C   0  0  0  0  0  0  0  0  0  0  0  0
  185.0530  178.4650  142.5790 C   0  0  0  0  0  0  0  0  0  0  0  0
  185.2110  179.1520  140.3350 C   0  0  1  0  0  3  0  0  0  0  0  0
  185.2650  177.3580  137.0110 C   0  0  0  0  0  3  0  0  0  0  0  0
  180.6180  178.0890  136.0120 C   0  0  0  0  0  0  0  0  0  0  0  0
  180.0990  176.6810  136.0290 C   0  0  0  0  0  2  0  0  0  0  0  0
  182.3140  177.3310  137.6120 C   0  0  2  0  0  3  0  0  0  0  0  0
  179.9820  176.2050  137.4790 C   0  0  0  0  0  2  0  0  0  0  0  0
  181.6580  178.4130  136.7950 C   0  0  0  0  0  3  0  0  0  0  0  0
  181.2930  176.3800  138.2730 C   0  0  0  0  0  2  0  0  0  0  0  0
  179.9900  179.0400  135.2710 F   0  0  0  0  0  0  0  0  0  0  0  0
  186.5590  178.2740  144.6600 C   0  0  1  0  0  3  0  0  0  0  0  0
  186.4200  177.6060  146.0080 C   0  0  0  0  0  2  0  0  0  0  0  0
  187.3270  176.9940  144.9560 C   0  0  2  0  0  3  0  0  0  0  0  0
  188.7570  177.2590  145.3590 C   0  0  0  0  0  0  0  0  0  0  0  0
  191.1970  177.5050  144.8380 C   0  0  0  0  0  1  0  0  0  0  0  0
  189.8740  177.0200  144.4780 N   0  0  0  0  0  0  0  0  0  0  0  0
  189.7480  176.2690  143.2400 C   0  0  0  0  0  1  0  0  0  0  0  0
  188.9690  177.7160  146.5150 O   0  0  0  0  0  0  0  0  0  0  0  0
  1  8  1  0  0  0  0
  2 14  1  0  0  0  0
  4 10  1  0  0  0  0
  5  6  2  0  0  0  0
  6  2  1  0  0  0  0
  7 14  1  6  0  0  0
  7 17  1  0  0  0  0
  8  3  1  0  0  0  0
  8  2  2  0  0  0  0
 10 17  2  0  0  0  0
 11  1  2  0  0  0  0
 11  5  1  0  0  0  0
 12 16  1  0  0  0  0
 12  3  2  0  0  0  0
 13 19  2  0  0  0  0
 13  1  1  0  0  0  0
 15  4  1  0  0  0  0
 16 15  2  0  0  0  0
 17  9  1  0  0  0  0
 18  3  1  6  0  0  0
 18  4  1  0  0  0  0
 18  7  1  0  0  0  0
 19 12  1  0  0  0  0
 20 21  1  0  0  0  0
 20 24  2  0  0  0  0
 21 23  1  0  0  0  0
 22 25  1  0  0  0  0
 22 16  1  1  0  0  0
 23 25  1  0  0  0  0
 24 22  1  0  0  0  0
 26 20  1  0  0  0  0
 27  9  1  6  0  0  0
 27 29  1  0  0  0  0
 27 28  1  0  0  0  0
 29 30  1  1  0  0  0
 29 28  1  0  0  0  0
 30 34  2  0  0  0  0
 32 31  1  0  0  0  0
 32 30  1  0  0  0  0
 33 32  1  0  0  0  0
M  END
>  <MODEL>
6

>  <REMARK>
 VINA RESULT:      -8.6      3.857      9.110
  Name = 
  3 active torsions:
  status: ('A' for Active; 'I' for Inactive)
    1  A    between atoms: C_3  and  N_17
    2  A    between atoms: C_12  and  C_28
    3  A    between atoms: C_13  and  C_14
                            x       y       z     vdW  Elec       q    Type
                         _______ _______ _______ _____ _____    ______ ____

>  <TORSDO>
F 3

$$$$
=
 OpenBabel10262423533D

 34 40  0  0  1  0  0  0  0  0999 V2000
  188.7210  176.8660  137.2760 C   0  0  0  0  0  0  0  0  0  0  0  0
  189.8840  177.0340  139.4130 C   0  0  0  0  0  0  0  0  0  0  0  0
  187.6940  178.0410  139.1310 C   0  0  0  0  0  0  0  0  0  0  0  0
  186.6290  178.8240  141.1530 N   0  0  0  0  0  0  0  0  0  0  0  0
  190.9320  175.9410  137.5840 C   0  0  0  0  0  3  0  0  0  0  0  0
  190.9240  176.3350  138.8920 N   0  0  0  0  0  0  0  0  0  0  0  0
  188.7650  178.0110  141.3430 C   0  0  2  0  0  3  0  0  0  0  0  0
  188.7800  177.3470  138.5930 C   0  0  0  0  0  0  0  0  0  0  0  0
  188.3970  177.1470  143.7640 N   0  0  0  0  0  2  0  0  0  0  0  0
  186.7870  178.2810  142.4340 N   0  0  0  0  0  0  0  0  0  0  0  0
  189.8230  176.1850  136.7580 C   0  0  0  0  0  3  0  0  0  0  0  0
  186.4730  178.1050  138.4570 C   0  0  0  0  0  0  0  0  0  0  0  0
  187.5300  177.0110  136.5440 C   0  0  0  0  0  3  0  0  0  0  0  0
  189.7480  177.2220  140.8850 C   0  0  0  0  0  2  0  0  0  0  0  0
  185.3820  178.8550  140.4900 N   0  0  0  0  0  0  0  0  0  0  0  0
  185.2790  178.5780  139.2150 C   0  0  0  0  0  0  0  0  0  0  0  0
  188.0040  177.8660  142.5890 C   0  0  0  0  0  0  0  0  0  0  0  0
  187.8760  178.7690  140.4210 C   0  0  1  0  0  3  0  0  0  0  0  0
  186.4010  177.6020  137.1450 C   0  0  0  0  0  3  0  0  0  0  0  0
  181.8810  179.9390  138.4620 C   0  0  0  0  0  0  0  0  0  0  0  0
  181.2310  178.7510  137.8150 C   0  0  0  0  0  2  0  0  0  0  0  0
  183.9270  178.5920  138.5490 C   0  0  2  0  0  3  0  0  0  0  0  0
  181.5800  177.4910  138.6100 C   0  0  0  0  0  2  0  0  0  0  0  0
  183.1630  179.8560  138.8460 C   0  0  0  0  0  3  0  0  0  0  0  0
  183.0990  177.3170  138.8170 C   0  0  0  0  0  2  0  0  0  0  0  0
  181.1540  181.0570  138.7230 F   0  0  0  0  0  0  0  0  0  0  0  0
  189.7610  176.8180  144.1540 C   0  0  1  0  0  3  0  0  0  0  0  0
  190.4820  178.1130  144.4440 C   0  0  0  0  0  2  0  0  0  0  0  0
  190.0520  177.2200  145.5930 C   0  0  2  0  0  3  0  0  0  0  0  0
  191.2810  176.5400  146.1450 C   0  0  0  0  0  0  0  0  0  0  0  0
  192.7310  175.7860  148.0460 C   0  0  0  0  0  1  0  0  0  0  0  0
  191.6750  176.6420  147.5280 N   0  0  0  0  0  0  0  0  0  0  0  0
  191.0830  177.6040  148.4420 C   0  0  0  0  0  1  0  0  0  0  0  0
  191.9790  175.8510  145.3520 O   0  0  0  0  0  0  0  0  0  0  0  0
  1  8  1  0  0  0  0
  2 14  1  0  0  0  0
  4 10  1  0  0  0  0
  5  6  2  0  0  0  0
  6  2  1  0  0  0  0
  7 14  1  6  0  0  0
  7 17  1  0  0  0  0
  8  3  1  0  0  0  0
  8  2  2  0  0  0  0
 10 17  2  0  0  0  0
 11  1  2  0  0  0  0
 11  5  1  0  0  0  0
 12  3  2  0  0  0  0
 12 16  1  0  0  0  0
 13 19  2  0  0  0  0
 13  1  1  0  0  0  0
 15  4  1  0  0  0  0
 16 15  2  0  0  0  0
 17  9  1  0  0  0  0
 18  3  1  6  0  0  0
 18  4  1  0  0  0  0
 18  7  1  0  0  0  0
 19 12  1  0  0  0  0
 20 26  1  0  0  0  0
 20 24  2  0  0  0  0
 21 20  1  0  0  0  0
 21 23  1  0  0  0  0
 22 25  1  0  0  0  0
 22 24  1  0  0  0  0
 22 16  1  1  0  0  0
 23 25  1  0  0  0  0
 27  9  1  1  0  0  0
 27 28  1  0  0  0  0
 27 29  1  0  0  0  0
 28 29  1  0  0  0  0
 29 30  1  6  0  0  0
 30 32  1  0  0  0  0
 32 31  1  0  0  0  0
 32 33  1  0  0  0  0
 34 30  2  0  0  0  0
M  END
>  <MODEL>
7

>  <REMARK>
 VINA RESULT:      -8.5      3.792      9.048
  Name = 
  3 active torsions:
  status: ('A' for Active; 'I' for Inactive)
    1  A    between atoms: C_3  and  N_17
    2  A    between atoms: C_12  and  C_28
    3  A    between atoms: C_13  and  C_14
                            x       y       z     vdW  Elec       q    Type
                         _______ _______ _______ _____ _____    ______ ____

>  <TORSDO>
F 3

$$$$
=
 OpenBabel10262423533D

 34 40  0  0  1  0  0  0  0  0999 V2000
  188.2490  178.3120  140.1150 C   0  0  0  0  0  0  0  0  0  0  0  0
  186.2360  178.4130  138.7420 C   0  0  0  0  0  0  0  0  0  0  0  0
  186.0640  178.0830  141.1400 C   0  0  0  0  0  0  0  0  0  0  0  0
  183.8420  178.2700  142.0690 N   0  0  0  0  0  0  0  0  0  0  0  0
  188.3720  178.5670  137.7160 C   0  0  0  0  0  3  0  0  0  0  0  0
  187.0090  178.5840  137.6390 N   0  0  0  0  0  0  0  0  0  0  0  0
  184.0370  178.4140  139.7880 C   0  0  2  0  0  3  0  0  0  0  0  0
  186.8530  178.2300  139.9970 C   0  0  0  0  0  0  0  0  0  0  0  0
  181.9960  180.0000  139.5470 N   0  0  0  0  0  2  0  0  0  0  0  0
  182.8080  179.0800  141.5830 N   0  0  0  0  0  0  0  0  0  0  0  0
  189.0160  178.4480  138.9580 C   0  0  0  0  0  3  0  0  0  0  0  0
  186.6130  178.2050  142.4170 C   0  0  0  0  0  0  0  0  0  0  0  0
  188.8300  178.3340  141.3950 C   0  0  0  0  0  3  0  0  0  0  0  0
  184.7750  178.7020  138.7060 C   0  0  0  0  0  2  0  0  0  0  0  0
  184.3900  178.4340  143.3600 N   0  0  0  0  0  0  0  0  0  0  0  0
  185.6790  178.3540  143.5700 C   0  0  0  0  0  0  0  0  0  0  0  0
  182.8600  179.1320  140.2900 C   0  0  0  0  0  0  0  0  0  0  0  0
  184.6220  177.7330  140.9760 C   0  0  1  0  0  3  0  0  0  0  0  0
  188.0110  178.3110  142.5410 C   0  0  0  0  0  3  0  0  0  0  0  0
  187.7030  177.4750  146.5870 C   0  0  0  0  0  0  0  0  0  0  0  0
  187.1300  178.4190  147.6030 C   0  0  0  0  0  2  0  0  0  0  0  0
  186.2300  178.5630  144.9570 C   0  0  2  0  0  3  0  0  0  0  0  0
  185.6060  178.4370  147.4710 C   0  0  0  0  0  2  0  0  0  0  0  0
  187.2500  177.5180  145.3250 C   0  0  0  0  0  3  0  0  0  0  0  0
  185.1350  178.7330  146.0330 C   0  0  0  0  0  2  0  0  0  0  0  0
  188.6130  176.5380  146.9610 F   0  0  0  0  0  0  0  0  0  0  0  0
  181.8070  179.9950  138.1030 C   0  0  1  0  0  3  0  0  0  0  0  0
  180.7420  178.9720  137.7820 C   0  0  0  0  0  2  0  0  0  0  0  0
  180.4080  180.4510  137.7140 C   0  0  2  0  0  3  0  0  0  0  0  0
  180.3120  180.8440  136.2600 C   0  0  0  0  0  0  0  0  0  0  0  0
  180.7030  182.4380  134.3650 C   0  0  0  0  0  1  0  0  0  0  0  0
  180.5900  182.1800  135.7920 N   0  0  0  0  0  0  0  0  0  0  0  0
  180.7280  183.3120  136.6920 C   0  0  0  0  0  1  0  0  0  0  0  0
  179.9820  179.9540  135.4300 O   0  0  0  0  0  0  0  0  0  0  0  0
  1 13  1  0  0  0  0
  2  8  1  0  0  0  0
  3 12  2  0  0  0  0
  4 15  1  0  0  0  0
  5 11  2  0  0  0  0
  6  5  1  0  0  0  0
  6  2  2  0  0  0  0
  7 14  1  1  0  0  0
  7 17  1  0  0  0  0
  7 18  1  0  0  0  0
  8  1  2  0  0  0  0
  8  3  1  0  0  0  0
  9 17  1  0  0  0  0
 10  4  1  0  0  0  0
 11  1  1  0  0  0  0
 12 19  1  0  0  0  0
 12 16  1  0  0  0  0
 13 19  2  0  0  0  0
 14  2  1  0  0  0  0
 15 16  2  0  0  0  0
 17 10  2  0  0  0  0
 18  3  1  1  0  0  0
 18  4  1  0  0  0  0
 20 26  1  0  0  0  0
 20 21  1  0  0  0  0
 22 16  1  6  0  0  0
 22 24  1  0  0  0  0
 22 25  1  0  0  0  0
 23 21  1  0  0  0  0
 24 20  2  0  0  0  0
 25 23  1  0  0  0  0
 27  9  1  1  0  0  0
 28 27  1  0  0  0  0
 29 30  1  6  0  0  0
 29 28  1  0  0  0  0
 29 27  1  0  0  0  0
 31 32  1  0  0  0  0
 32 30  1  0  0  0  0
 32 33  1  0  0  0  0
 34 30  2  0  0  0  0
M  END
>  <MODEL>
8

>  <REMARK>
 VINA RESULT:      -7.9      2.797      5.176
  Name = 
  3 active torsions:
  status: ('A' for Active; 'I' for Inactive)
    1  A    between atoms: C_3  and  N_17
    2  A    between atoms: C_12  and  C_28
    3  A    between atoms: C_13  and  C_14
                            x       y       z     vdW  Elec       q    Type
                         _______ _______ _______ _____ _____    ______ ____

>  <TORSDO>
F 3

$$$$
=
 OpenBabel10262423533D

 34 40  0  0  1  0  0  0  0  0999 V2000
  188.9500  176.9390  143.3880 C   0  0  0  0  0  0  0  0  0  0  0  0
  186.9680  178.2190  142.7710 C   0  0  0  0  0  0  0  0  0  0  0  0
  188.6550  177.7000  141.1060 C   0  0  0  0  0  0  0  0  0  0  0  0
  188.0490  178.1680  138.8150 N   0  0  0  0  0  0  0  0  0  0  0  0
  187.2770  177.5400  145.0250 C   0  0  0  0  0  3  0  0  0  0  0  0
  186.5300  178.1430  144.0530 N   0  0  0  0  0  0  0  0  0  0  0  0
  186.5550  178.7880  140.4400 C   0  0  2  0  0  3  0  0  0  0  0  0
  188.2130  177.6510  142.4300 C   0  0  0  0  0  0  0  0  0  0  0  0
  184.4890  178.4440  138.9040 N   0  0  0  0  0  2  0  0  0  0  0  0
  186.7580  178.1190  138.2750 N   0  0  0  0  0  0  0  0  0  0  0  0
  188.4930  176.9130  144.7070 C   0  0  0  0  0  3  0  0  0  0  0  0
  189.7130  176.9010  140.6680 C   0  0  0  0  0  0  0  0  0  0  0  0
  190.0800  176.2080  142.9830 C   0  0  0  0  0  3  0  0  0  0  0  0
  186.0480  178.6230  141.6700 C   0  0  0  0  0  2  0  0  0  0  0  0
  189.0920  177.3300  138.3620 N   0  0  0  0  0  0  0  0  0  0  0  0
  189.9250  176.7650  139.1980 C   0  0  0  0  0  0  0  0  0  0  0  0
  185.8970  178.5210  139.1550 C   0  0  0  0  0  0  0  0  0  0  0  0
  188.0130  178.6700  140.1710 C   0  0  1  0  0  3  0  0  0  0  0  0
  190.4410  176.1660  141.6220 C   0  0  0  0  0  3  0  0  0  0  0  0
  193.1320  175.9500  137.4590 C   0  0  0  0  0  0  0  0  0  0  0  0
  192.9850  174.4690  137.2620 C   0  0  0  0  0  2  0  0  0  0  0  0
  191.0080  175.8530  138.6800 C   0  0  2  0  0  3  0  0  0  0  0  0
  191.5610  174.1630  136.7940 C   0  0  0  0  0  2  0  0  0  0  0  0
  192.1700  176.6230  138.1090 C   0  0  0  0  0  3  0  0  0  0  0  0
  190.4850  174.7620  137.7210 C   0  0  0  0  0  2  0  0  0  0  0  0
  194.1890  176.6100  136.9170 F   0  0  0  0  0  0  0  0  0  0  0  0
  183.4380  179.0510  139.7080 C   0  0  1  0  0  3  0  0  0  0  0  0
  182.2160  179.2010  138.8310 C   0  0  0  0  0  2  0  0  0  0  0  0
  182.2520  178.1140  139.8910 C   0  0  2  0  0  3  0  0  0  0  0  0
  181.3520  178.5360  141.0270 C   0  0  0  0  0  0  0  0  0  0  0  0
  180.9720  179.4080  143.3460 C   0  0  0  0  0  1  0  0  0  0  0  0
  181.8420  178.7880  142.3590 N   0  0  0  0  0  0  0  0  0  0  0  0
  183.1800  178.4130  142.7860 C   0  0  0  0  0  1  0  0  0  0  0  0
  180.1230  178.6760  140.7830 O   0  0  0  0  0  0  0  0  0  0  0  0
  1 11  2  0  0  0  0
  2  6  1  0  0  0  0
  3  8  1  0  0  0  0
  4 18  1  0  0  0  0
  6  5  2  0  0  0  0
  7 14  1  1  0  0  0
  8  2  2  0  0  0  0
  8  1  1  0  0  0  0
  9 17  1  0  0  0  0
 10  4  1  0  0  0  0
 10 17  2  0  0  0  0
 11  5  1  0  0  0  0
 12  3  2  0  0  0  0
 12 19  1  0  0  0  0
 13  1  1  0  0  0  0
 14  2  1  0  0  0  0
 15  4  1  0  0  0  0
 15 16  2  0  0  0  0
 16 12  1  0  0  0  0
 17  7  1  0  0  0  0
 18  7  1  0  0  0  0
 18  3  1  1  0  0  0
 19 13  2  0  0  0  0
 20 24  2  0  0  0  0
 21 20  1  0  0  0  0
 22 16  1  6  0  0  0
 23 21  1  0  0  0  0
 23 25  1  0  0  0  0
 24 22  1  0  0  0  0
 25 22  1  0  0  0  0
 26 20  1  0  0  0  0
 27  9  1  6  0  0  0
 27 29  1  0  0  0  0
 28 27  1  0  0  0  0
 28 29  1  0  0  0  0
 29 30  1  1  0  0  0
 30 32  1  0  0  0  0
 32 33  1  0  0  0  0
 32 31  1  0  0  0  0
 34 30  2  0  0  0  0
M  END
>  <MODEL>
9

>  <REMARK>
 VINA RESULT:      -7.9      3.601      6.057
  Name = 
  3 active torsions:
  status: ('A' for Active; 'I' for Inactive)
    1  A    between atoms: C_3  and  N_17
    2  A    between atoms: C_12  and  C_28
    3  A    between atoms: C_13  and  C_14
                            x       y       z     vdW  Elec       q    Type
                         _______ _______ _______ _____ _____    ______ ____

>  <TORSDO>
F 3

$$$$
