=
 OpenBabel10272400263D

 31 34  0  0  1  0  0  0  0  0999 V2000
  188.3890  177.7060  136.0960 C   0  0  0  0  0  0  0  0  0  0  0  0
  190.6890  176.9580  138.9770 N   0  0  0  0  0  0  0  0  0  0  0  0
  189.5340  177.3830  138.2180 C   0  0  0  0  0  0  0  0  0  0  0  0
  187.2750  178.2100  136.7670 C   0  0  0  0  0  3  0  0  0  0  0  0
  189.3830  177.1010  141.0490 C   0  0  1  0  0  3  0  0  0  0  0  0
  188.3800  177.5880  134.3490 Cl  0  0  0  0  0  0  0  0  0  0  0  0
  188.4050  178.0650  140.3780 C   0  0  0  0  0  2  0  0  0  0  0  0
  190.7580  177.2510  140.4110 C   0  0  0  0  0  2  0  0  0  0  0  0
  189.5140  177.2980  136.8150 C   0  0  0  0  0  3  0  0  0  0  0  0
  188.4000  177.8890  138.8890 C   0  0  0  0  0  0  0  0  0  0  0  0
  187.2820  178.3070  138.1600 C   0  0  0  0  0  3  0  0  0  0  0  0
  191.7930  176.2680  138.3630 C   0  0  0  0  0  0  0  0  0  0  0  0
  194.0830  176.2710  137.6530 N   0  0  0  0  0  0  0  0  0  0  0  0
  193.0380  176.9030  138.2480 C   0  0  0  0  0  3  0  0  0  0  0  0
  193.9610  175.0150  137.1500 C   0  0  0  0  0  3  0  0  0  0  0  0
  192.7430  174.3410  137.2400 C   0  0  0  0  0  3  0  0  0  0  0  0
  191.6460  174.9640  137.8520 C   0  0  0  0  0  0  0  0  0  0  0  0
  190.4150  174.3050  137.9700 O   0  0  0  0  0  0  0  0  0  0  0  0
  188.3830  173.9450  136.7240 C   0  0  0  0  0  1  0  0  0  0  0  0
  189.8320  173.5390  136.9220 C   0  0  0  0  0  2  0  0  0  0  0  0
  187.9340  175.7660  143.1010 O   0  0  0  0  0  0  0  0  0  0  0  0
  188.7070  176.6970  143.4570 C   0  0  0  0  0  0  0  0  0  0  0  0
  189.4750  177.3950  142.4700 N   0  0  0  0  0  2  0  0  0  0  0  0
  188.9700  177.8080  147.5970 C   0  0  0  0  0  0  0  0  0  0  0  0
  187.6970  177.5540  145.5570 C   0  0  0  0  0  3  0  0  0  0  0  0
  191.2050  176.4930  144.9850 O   0  0  0  0  0  1  0  0  0  0  0  0
  189.0550  178.2670  149.2830 Cl  0  0  0  0  0  0  0  0  0  0  0  0
  187.7640  177.9190  146.9040 C   0  0  0  0  0  3  0  0  0  0  0  0
  190.0490  176.9630  145.5960 C   0  0  0  0  0  0  0  0  0  0  0  0
  188.8320  177.0720  144.8860 C   0  0  0  0  0  0  0  0  0  0  0  0
  190.1080  177.3310  146.9440 C   0  0  0  0  0  3  0  0  0  0  0  0
  1  4  2  0  0  0  0
  1  9  1  0  0  0  0
  2  8  1  0  0  0  0
  3 10  1  0  0  0  0
  3  2  1  0  0  0  0
  4 11  1  0  0  0  0
  5 23  1  1  0  0  0
  6  1  1  0  0  0  0
  7  5  1  0  0  0  0
  8  5  1  0  0  0  0
  9  3  2  0  0  0  0
 10  7  1  0  0  0  0
 11 10  2  0  0  0  0
 12  2  1  0  0  0  0
 13 14  2  0  0  0  0
 14 12  1  0  0  0  0
 15 16  2  0  0  0  0
 15 13  1  0  0  0  0
 16 17  1  0  0  0  0
 17 18  1  0  0  0  0
 17 12  2  0  0  0  0
 19 20  1  0  0  0  0
 20 18  1  0  0  0  0
 21 22  2  0  0  0  0
 22 30  1  0  0  0  0
 23 22  1  0  0  0  0
 24 27  1  0  0  0  0
 25 28  1  0  0  0  0
 26 29  1  0  0  0  0
 28 24  2  0  0  0  0
 29 31  2  0  0  0  0
 30 25  2  0  0  0  0
 30 29  1  0  0  0  0
 31 24  1  0  0  0  0
M  END
>  <MODEL>
1

>  <REMARK>
 VINA RESULT:      -8.6      0.000      0.000
  Name = 
  5 active torsions:
  status: ('A' for Active; 'I' for Inactive)
    1  A    between atoms: N_4  and  C_5
    2  A    between atoms: C_9  and  C_22
    3  A    between atoms: C_15  and  N_23
    4  A    between atoms: C_29  and  O_31
    5  A    between atoms: C_30  and  O_31
                            x       y       z     vdW  Elec       q    Type
                         _______ _______ _______ _____ _____    ______ ____

>  <TORSDO>
F 5

$$$$
=
 OpenBabel10272400263D

 31 34  0  0  1  0  0  0  0  0999 V2000
  188.3250  178.1860  147.5890 C   0  0  0  0  0  0  0  0  0  0  0  0
  187.9420  177.4920  143.9120 N   0  0  0  0  0  0  0  0  0  0  0  0
  187.6380  177.8490  145.2800 C   0  0  0  0  0  0  0  0  0  0  0  0
  187.0210  178.5500  147.9300 C   0  0  0  0  0  3  0  0  0  0  0  0
  185.7560  178.3490  143.2000 C   0  0  1  0  0  3  0  0  0  0  0  0
  189.5770  178.1670  148.8130 Cl  0  0  0  0  0  0  0  0  0  0  0  0
  185.2180  178.1840  144.6210 C   0  0  0  0  0  2  0  0  0  0  0  0
  186.8490  177.3190  142.9510 C   0  0  0  0  0  2  0  0  0  0  0  0
  188.6320  177.8340  146.2730 C   0  0  0  0  0  3  0  0  0  0  0  0
  186.3240  178.2240  145.6320 C   0  0  0  0  0  0  0  0  0  0  0  0
  186.0220  178.5630  146.9550 C   0  0  0  0  0  3  0  0  0  0  0  0
  189.2930  177.2820  143.4610 C   0  0  0  0  0  0  0  0  0  0  0  0
  191.4800  176.3860  143.8650 N   0  0  0  0  0  0  0  0  0  0  0  0
  190.1970  176.5760  144.2670 C   0  0  0  0  0  3  0  0  0  0  0  0
  191.9310  176.8720  142.6790 C   0  0  0  0  0  3  0  0  0  0  0  0
  191.0710  177.5810  141.8410 C   0  0  0  0  0  3  0  0  0  0  0  0
  189.7390  177.7900  142.2270 C   0  0  0  0  0  0  0  0  0  0  0  0
  188.8480  178.4860  141.3980 O   0  0  0  0  0  0  0  0  0  0  0  0
  188.2520  177.4860  139.2860 C   0  0  0  0  0  1  0  0  0  0  0  0
  189.0120  178.5960  139.9880 C   0  0  0  0  0  2  0  0  0  0  0  0
  185.6300  179.5480  140.6230 O   0  0  0  0  0  0  0  0  0  0  0  0
  184.6680  178.8020  140.9570 C   0  0  0  0  0  0  0  0  0  0  0  0
  184.6840  178.1590  142.2370 N   0  0  0  0  0  2  0  0  0  0  0  0
  181.3410  178.0820  138.3400 C   0  0  0  0  0  0  0  0  0  0  0  0
  182.7720  177.4070  140.1680 C   0  0  0  0  0  3  0  0  0  0  0  0
  183.8780  180.6970  138.8600 O   0  0  0  0  0  1  0  0  0  0  0  0
  179.9820  177.7680  137.2840 Cl  0  0  0  0  0  0  0  0  0  0  0  0
  181.6860  177.1560  139.3260 C   0  0  0  0  0  3  0  0  0  0  0  0
  183.1690  179.5160  139.0370 C   0  0  0  0  0  0  0  0  0  0  0  0
  183.5260  178.5840  140.0380 C   0  0  0  0  0  0  0  0  0  0  0  0
  182.0810  179.2570  138.1970 C   0  0  0  0  0  3  0  0  0  0  0  0
  1  4  1  0  0  0  0
  1  6  1  0  0  0  0
  2  3  1  0  0  0  0
  3 10  2  0  0  0  0
  3  9  1  0  0  0  0
  5 23  1  6  0  0  0
  5  7  1  0  0  0  0
  7 10  1  0  0  0  0
  8  5  1  0  0  0  0
  8  2  1  0  0  0  0
  9  1  2  0  0  0  0
 10 11  1  0  0  0  0
 11  4  2  0  0  0  0
 12  2  1  0  0  0  0
 12 14  1  0  0  0  0
 13 14  2  0  0  0  0
 15 13  1  0  0  0  0
 16 17  1  0  0  0  0
 16 15  2  0  0  0  0
 17 12  2  0  0  0  0
 18 17  1  0  0  0  0
 19 20  1  0  0  0  0
 20 18  1  0  0  0  0
 21 22  2  0  0  0  0
 22 23  1  0  0  0  0
 24 28  1  0  0  0  0
 26 29  1  0  0  0  0
 27 24  1  0  0  0  0
 28 25  2  0  0  0  0
 29 30  2  0  0  0  0
 30 25  1  0  0  0  0
 30 22  1  0  0  0  0
 31 24  2  0  0  0  0
 31 29  1  0  0  0  0
M  END
>  <MODEL>
2

>  <REMARK>
 VINA RESULT:      -7.9      3.729      8.338
  Name = 
  5 active torsions:
  status: ('A' for Active; 'I' for Inactive)
    1  A    between atoms: N_4  and  C_5
    2  A    between atoms: C_9  and  C_22
    3  A    between atoms: C_15  and  N_23
    4  A    between atoms: C_29  and  O_31
    5  A    between atoms: C_30  and  O_31
                            x       y       z     vdW  Elec       q    Type
                         _______ _______ _______ _____ _____    ______ ____

>  <TORSDO>
F 5

$$$$
=
 OpenBabel10272400263D

 31 34  0  0  1  0  0  0  0  0999 V2000
  192.3500  176.0510  136.2340 C   0  0  0  0  0  0  0  0  0  0  0  0
  189.2990  176.9170  138.2580 N   0  0  0  0  0  0  0  0  0  0  0  0
  190.6720  176.6510  137.8910 C   0  0  0  0  0  0  0  0  0  0  0  0
  193.3490  176.1440  137.2040 C   0  0  0  0  0  3  0  0  0  0  0  0
  190.0480  177.8270  140.4100 C   0  0  1  0  0  3  0  0  0  0  0  0
  192.7630  175.6190  134.5890 Cl  0  0  0  0  0  0  0  0  0  0  0  0
  191.3580  177.0490  140.2950 C   0  0  0  0  0  2  0  0  0  0  0  0
  188.9480  177.0770  139.6710 C   0  0  0  0  0  2  0  0  0  0  0  0
  191.0190  176.3000  136.5750 C   0  0  0  0  0  3  0  0  0  0  0  0
  191.6900  176.7480  138.8640 C   0  0  0  0  0  0  0  0  0  0  0  0
  193.0200  176.4850  138.5170 C   0  0  0  0  0  3  0  0  0  0  0  0
  188.2530  177.0130  137.2750 C   0  0  0  0  0  0  0  0  0  0  0  0
  186.9350  178.3670  135.7980 N   0  0  0  0  0  0  0  0  0  0  0  0
  187.9340  178.2570  136.7130 C   0  0  0  0  0  3  0  0  0  0  0  0
  186.2140  177.2860  135.4010 C   0  0  0  0  0  3  0  0  0  0  0  0
  186.4930  176.0260  135.9300 C   0  0  0  0  0  3  0  0  0  0  0  0
  187.5210  175.8800  136.8740 C   0  0  0  0  0  0  0  0  0  0  0  0
  187.8330  174.6240  137.4110 O   0  0  0  0  0  0  0  0  0  0  0  0
  187.7140  172.2580  136.9590 C   0  0  0  0  0  1  0  0  0  0  0  0
  188.4150  173.5690  136.6530 C   0  0  0  0  0  2  0  0  0  0  0  0
  190.1130  175.7510  142.3550 O   0  0  0  0  0  0  0  0  0  0  0  0
  189.7170  176.8860  142.7400 C   0  0  0  0  0  0  0  0  0  0  0  0
  189.6780  177.9740  141.8090 N   0  0  0  0  0  2  0  0  0  0  0  0
  188.4050  177.5250  146.7770 C   0  0  0  0  0  0  0  0  0  0  0  0
  187.9330  177.2820  144.4190 C   0  0  0  0  0  3  0  0  0  0  0  0
  191.5820  176.9730  145.0040 O   0  0  0  0  0  1  0  0  0  0  0  0
  187.8490  177.7880  148.4160 Cl  0  0  0  0  0  0  0  0  0  0  0  0
  187.4870  177.4900  145.7270 C   0  0  0  0  0  3  0  0  0  0  0  0
  190.2190  177.1410  145.2150 C   0  0  0  0  0  0  0  0  0  0  0  0
  189.2970  177.1050  144.1440 C   0  0  0  0  0  0  0  0  0  0  0  0
  189.7660  177.3510  146.5210 C   0  0  0  0  0  3  0  0  0  0  0  0
  1  9  2  0  0  0  0
  1  4  1  0  0  0  0
  2  8  1  0  0  0  0
  3  2  1  0  0  0  0
  3 10  2  0  0  0  0
  4 11  2  0  0  0  0
  5 23  1  1  0  0  0
  6  1  1  0  0  0  0
  7  5  1  0  0  0  0
  8  5  1  0  0  0  0
  9  3  1  0  0  0  0
 10  7  1  0  0  0  0
 11 10  1  0  0  0  0
 12  2  1  0  0  0  0
 13 14  1  0  0  0  0
 14 12  2  0  0  0  0
 15 13  2  0  0  0  0
 15 16  1  0  0  0  0
 16 17  2  0  0  0  0
 17 12  1  0  0  0  0
 17 18  1  0  0  0  0
 20 19  1  0  0  0  0
 20 18  1  0  0  0  0
 21 22  2  0  0  0  0
 22 30  1  0  0  0  0
 23 22  1  0  0  0  0
 24 27  1  0  0  0  0
 25 28  1  0  0  0  0
 26 29  1  0  0  0  0
 28 24  2  0  0  0  0
 29 31  2  0  0  0  0
 30 25  2  0  0  0  0
 30 29  1  0  0  0  0
 31 24  1  0  0  0  0
M  END
>  <MODEL>
3

>  <REMARK>
 VINA RESULT:      -7.7      1.857      3.666
  Name = 
  5 active torsions:
  status: ('A' for Active; 'I' for Inactive)
    1  A    between atoms: N_4  and  C_5
    2  A    between atoms: C_9  and  C_22
    3  A    between atoms: C_15  and  N_23
    4  A    between atoms: C_29  and  O_31
    5  A    between atoms: C_30  and  O_31
                            x       y       z     vdW  Elec       q    Type
                         _______ _______ _______ _____ _____    ______ ____

>  <TORSDO>
F 5

$$$$
=
 OpenBabel10272400263D

 31 34  0  0  1  0  0  0  0  0999 V2000
  184.2520  178.7350  144.0470 C   0  0  0  0  0  0  0  0  0  0  0  0
  187.7790  177.4290  144.0060 N   0  0  0  0  0  0  0  0  0  0  0  0
  186.4910  177.9160  143.5640 C   0  0  0  0  0  0  0  0  0  0  0  0
  183.9990  178.8660  142.6800 C   0  0  0  0  0  3  0  0  0  0  0  0
  188.6600  177.6910  141.7310 C   0  0  1  0  0  3  0  0  0  0  0  0
  183.0160  179.1630  145.2110 Cl  0  0  0  0  0  0  0  0  0  0  0  0
  187.2430  177.6340  141.1640 C   0  0  0  0  0  2  0  0  0  0  0  0
  188.7210  176.8880  143.0230 C   0  0  0  0  0  2  0  0  0  0  0  0
  185.4890  178.2600  144.4870 C   0  0  0  0  0  3  0  0  0  0  0  0
  186.2290  178.0570  142.1850 C   0  0  0  0  0  0  0  0  0  0  0  0
  184.9830  178.5220  141.7510 C   0  0  0  0  0  3  0  0  0  0  0  0
  188.1640  177.4400  145.3920 C   0  0  0  0  0  0  0  0  0  0  0  0
  187.5480  177.6880  147.6960 N   0  0  0  0  0  0  0  0  0  0  0  0
  187.1970  177.6550  146.3840 C   0  0  0  0  0  3  0  0  0  0  0  0
  188.8370  177.5190  148.0910 C   0  0  0  0  0  3  0  0  0  0  0  0
  189.8360  177.3020  147.1420 C   0  0  0  0  0  3  0  0  0  0  0  0
  189.5050  177.2580  145.7800 C   0  0  0  0  0  0  0  0  0  0  0  0
  190.4860  177.0260  144.8060 O   0  0  0  0  0  0  0  0  0  0  0  0
  191.2230  179.1900  144.0380 C   0  0  0  0  0  1  0  0  0  0  0  0
  191.6310  177.8540  144.6330 C   0  0  0  0  0  2  0  0  0  0  0  0
  189.2570  178.8050  139.1810 O   0  0  0  0  0  0  0  0  0  0  0  0
  189.8500  177.7360  139.4940 C   0  0  0  0  0  0  0  0  0  0  0  0
  189.6030  177.1370  140.7720 N   0  0  0  0  0  2  0  0  0  0  0  0
  192.5360  175.8750  136.7090 C   0  0  0  0  0  0  0  0  0  0  0  0
  190.3260  176.6420  137.3170 C   0  0  0  0  0  3  0  0  0  0  0  0
  192.7040  177.3630  140.0710 O   0  0  0  0  0  1  0  0  0  0  0  0
  193.6140  175.1130  135.5600 Cl  0  0  0  0  0  0  0  0  0  0  0  0
  191.1850  176.0350  136.3990 C   0  0  0  0  0  3  0  0  0  0  0  0
  192.1740  176.9320  138.8610 C   0  0  0  0  0  0  0  0  0  0  0  0
  190.8030  177.0980  138.5560 C   0  0  0  0  0  0  0  0  0  0  0  0
  193.0280  176.3230  137.9360 C   0  0  0  0  0  3  0  0  0  0  0  0
  1  9  1  0  0  0  0
  1  6  1  0  0  0  0
  2 12  1  0  0  0  0
  3  2  1  0  0  0  0
  3  9  2  0  0  0  0
  4  1  2  0  0  0  0
  5 23  1  6  0  0  0
  5  8  1  0  0  0  0
  7  5  1  0  0  0  0
  7 10  1  0  0  0  0
  8  2  1  0  0  0  0
 10  3  1  0  0  0  0
 11 10  2  0  0  0  0
 11  4  1  0  0  0  0
 12 17  2  0  0  0  0
 12 14  1  0  0  0  0
 13 15  1  0  0  0  0
 14 13  2  0  0  0  0
 16 15  2  0  0  0  0
 17 16  1  0  0  0  0
 18 17  1  0  0  0  0
 19 20  1  0  0  0  0
 20 18  1  0  0  0  0
 21 22  2  0  0  0  0
 22 23  1  0  0  0  0
 24 31  1  0  0  0  0
 25 30  2  0  0  0  0
 27 24  1  0  0  0  0
 28 24  2  0  0  0  0
 28 25  1  0  0  0  0
 29 26  1  0  0  0  0
 30 29  1  0  0  0  0
 30 22  1  0  0  0  0
 31 29  2  0  0  0  0
M  END
>  <MODEL>
4

>  <REMARK>
 VINA RESULT:      -7.1      2.978      8.353
  Name = 
  5 active torsions:
  status: ('A' for Active; 'I' for Inactive)
    1  A    between atoms: N_4  and  C_5
    2  A    between atoms: C_9  and  C_22
    3  A    between atoms: C_15  and  N_23
    4  A    between atoms: C_29  and  O_31
    5  A    between atoms: C_30  and  O_31
                            x       y       z     vdW  Elec       q    Type
                         _______ _______ _______ _____ _____    ______ ____

>  <TORSDO>
F 5

$$$$
=
 OpenBabel10272400263D

 31 34  0  0  1  0  0  0  0  0999 V2000
  188.7000  177.8410  147.7260 C   0  0  0  0  0  0  0  0  0  0  0  0
  187.2720  177.8400  144.2450 N   0  0  0  0  0  0  0  0  0  0  0  0
  188.1790  177.6560  145.3560 C   0  0  0  0  0  0  0  0  0  0  0  0
  189.9590  177.2830  147.4980 C   0  0  0  0  0  3  0  0  0  0  0  0
  188.7230  176.4610  142.8280 C   0  0  1  0  0  3  0  0  0  0  0  0
  188.2290  178.3070  149.3460 Cl  0  0  0  0  0  0  0  0  0  0  0  0
  189.9090  176.7420  143.7500 C   0  0  0  0  0  2  0  0  0  0  0  0
  187.7550  177.6340  142.8780 C   0  0  0  0  0  2  0  0  0  0  0  0
  187.8160  178.0300  146.6620 C   0  0  0  0  0  3  0  0  0  0  0  0
  189.4520  177.0880  145.1360 C   0  0  0  0  0  0  0  0  0  0  0  0
  190.3370  176.9140  146.2050 C   0  0  0  0  0  3  0  0  0  0  0  0
  185.9030  178.2400  144.4380 C   0  0  0  0  0  0  0  0  0  0  0  0
  184.1110  178.7880  145.9330 N   0  0  0  0  0  0  0  0  0  0  0  0
  185.4060  178.4300  145.7350 C   0  0  0  0  0  3  0  0  0  0  0  0
  183.2570  178.9710  144.8920 C   0  0  0  0  0  3  0  0  0  0  0  0
  183.7030  178.7950  143.5830 C   0  0  0  0  0  3  0  0  0  0  0  0
  185.0360  178.4290  143.3450 C   0  0  0  0  0  0  0  0  0  0  0  0
  185.5160  178.2600  142.0390 O   0  0  0  0  0  0  0  0  0  0  0  0
  184.3870  178.4760  139.9190 C   0  0  0  0  0  1  0  0  0  0  0  0
  185.2310  179.1630  140.9760 C   0  0  0  0  0  2  0  0  0  0  0  0
  188.8820  178.5030  140.8520 O   0  0  0  0  0  0  0  0  0  0  0  0
  189.2320  177.3410  140.5070 C   0  0  0  0  0  0  0  0  0  0  0  0
  189.1890  176.2750  141.4630 N   0  0  0  0  0  2  0  0  0  0  0  0
  190.6530  176.5360  136.5360 C   0  0  0  0  0  0  0  0  0  0  0  0
  191.0340  176.7220  138.9160 C   0  0  0  0  0  3  0  0  0  0  0  0
  187.4860  177.4870  138.1520 O   0  0  0  0  0  1  0  0  0  0  0  0
  191.2530  176.2050  134.9250 Cl  0  0  0  0  0  0  0  0  0  0  0  0
  191.5140  176.4560  137.6310 C   0  0  0  0  0  3  0  0  0  0  0  0
  188.8250  177.1480  138.0080 C   0  0  0  0  0  0  0  0  0  0  0  0
  189.6900  177.0690  139.1240 C   0  0  0  0  0  0  0  0  0  0  0  0
  189.3140  176.8810  136.7250 C   0  0  0  0  0  3  0  0  0  0  0  0
  1  6  1  0  0  0  0
  2 12  1  0  0  0  0
  2  3  1  0  0  0  0
  3  9  1  0  0  0  0
  4  1  1  0  0  0  0
  5 23  1  6  0  0  0
  5  8  1  0  0  0  0
  5  7  1  0  0  0  0
  7 10  1  0  0  0  0
  8  2  1  0  0  0  0
  9  1  2  0  0  0  0
 10  3  2  0  0  0  0
 10 11  1  0  0  0  0
 11  4  2  0  0  0  0
 12 14  1  0  0  0  0
 14 13  2  0  0  0  0
 15 13  1  0  0  0  0
 16 15  2  0  0  0  0
 17 16  1  0  0  0  0
 17 12  2  0  0  0  0
 18 17  1  0  0  0  0
 19 20  1  0  0  0  0
 20 18  1  0  0  0  0
 22 21  2  0  0  0  0
 22 23  1  0  0  0  0
 24 31  2  0  0  0  0
 24 28  1  0  0  0  0
 25 30  1  0  0  0  0
 27 24  1  0  0  0  0
 28 25  2  0  0  0  0
 29 26  1  0  0  0  0
 29 30  2  0  0  0  0
 30 22  1  0  0  0  0
 31 29  1  0  0  0  0
M  END
>  <MODEL>
5

>  <REMARK>
 VINA RESULT:      -7.0      2.615      9.106
  Name = 
  5 active torsions:
  status: ('A' for Active; 'I' for Inactive)
    1  A    between atoms: N_4  and  C_5
    2  A    between atoms: C_9  and  C_22
    3  A    between atoms: C_15  and  N_23
    4  A    between atoms: C_29  and  O_31
    5  A    between atoms: C_30  and  O_31
                            x       y       z     vdW  Elec       q    Type
                         _______ _______ _______ _____ _____    ______ ____

>  <TORSDO>
F 5

$$$$
=
 OpenBabel10272400263D

 31 34  0  0  1  0  0  0  0  0999 V2000
  180.9620  180.0440  136.6490 C   0  0  0  0  0  0  0  0  0  0  0  0
  182.5750  177.2470  138.5800 N   0  0  0  0  0  0  0  0  0  0  0  0
  182.1510  178.5700  138.1760 C   0  0  0  0  0  0  0  0  0  0  0  0
  181.3380  181.1490  137.4140 C   0  0  0  0  0  3  0  0  0  0  0  0
  183.3070  178.1420  140.7440 C   0  0  1  0  0  3  0  0  0  0  0  0
  179.9820  180.2640  135.2150 Cl  0  0  0  0  0  0  0  0  0  0  0  0
  183.4160  179.5410  140.1410 C   0  0  0  0  0  2  0  0  0  0  0  0
  183.5550  177.1030  139.6600 C   0  0  0  0  0  2  0  0  0  0  0  0
  181.3680  178.7620  137.0250 C   0  0  0  0  0  3  0  0  0  0  0  0
  182.5220  179.6920  138.9460 C   0  0  0  0  0  0  0  0  0  0  0  0
  182.1210  180.9740  138.5570 C   0  0  0  0  0  3  0  0  0  0  0  0
  182.0760  176.0580  137.9410 C   0  0  0  0  0  0  0  0  0  0  0  0
  180.4920  174.2590  137.8920 N   0  0  0  0  0  0  0  0  0  0  0  0
  180.9620  175.3940  138.4730 C   0  0  0  0  0  3  0  0  0  0  0  0
  181.0790  173.7310  136.7860 C   0  0  0  0  0  3  0  0  0  0  0  0
  182.1900  174.3550  136.2190 C   0  0  0  0  0  3  0  0  0  0  0  0
  182.6970  175.5300  136.7930 C   0  0  0  0  0  0  0  0  0  0  0  0
  183.8020  176.1870  136.2360 O   0  0  0  0  0  0  0  0  0  0  0  0
  186.0190  176.9720  136.7700 C   0  0  0  0  0  1  0  0  0  0  0  0
  185.1480  175.7730  136.4430 C   0  0  0  0  0  2  0  0  0  0  0  0
  182.9550  178.9470  143.4510 O   0  0  0  0  0  0  0  0  0  0  0  0
  184.0610  178.4190  143.1480 C   0  0  0  0  0  0  0  0  0  0  0  0
  184.2900  177.9790  141.8040 N   0  0  0  0  0  2  0  0  0  0  0  0
  187.1930  177.8800  146.0350 C   0  0  0  0  0  0  0  0  0  0  0  0
  186.3510  177.6960  143.7760 C   0  0  0  0  0  3  0  0  0  0  0  0
  183.7430  179.1630  145.9690 O   0  0  0  0  0  1  0  0  0  0  0  0
  188.4830  177.6510  147.1950 Cl  0  0  0  0  0  0  0  0  0  0  0  0
  187.3810  177.5140  144.7010 C   0  0  0  0  0  3  0  0  0  0  0  0
  184.9390  178.6140  145.5210 C   0  0  0  0  0  0  0  0  0  0  0  0
  185.1210  178.2460  144.1680 C   0  0  0  0  0  0  0  0  0  0  0  0
  185.9760  178.4280  146.4420 C   0  0  0  0  0  3  0  0  0  0  0  0
  1  9  2  0  0  0  0
  1  4  1  0  0  0  0
  2  8  1  0  0  0  0
  3  2  1  0  0  0  0
  3 10  2  0  0  0  0
  4 11  2  0  0  0  0
  5 23  1  1  0  0  0
  6  1  1  0  0  0  0
  7  5  1  0  0  0  0
  8  5  1  0  0  0  0
  9  3  1  0  0  0  0
 10  7  1  0  0  0  0
 11 10  1  0  0  0  0
 12 14  1  0  0  0  0
 12  2  1  0  0  0  0
 13 14  2  0  0  0  0
 15 13  1  0  0  0  0
 16 15  2  0  0  0  0
 16 17  1  0  0  0  0
 17 12  2  0  0  0  0
 18 20  1  0  0  0  0
 18 17  1  0  0  0  0
 20 19  1  0  0  0  0
 22 21  2  0  0  0  0
 22 30  1  0  0  0  0
 23 22  1  0  0  0  0
 24 31  1  0  0  0  0
 24 27  1  0  0  0  0
 25 30  2  0  0  0  0
 25 28  1  0  0  0  0
 28 24  2  0  0  0  0
 29 26  1  0  0  0  0
 29 31  2  0  0  0  0
 30 29  1  0  0  0  0
M  END
>  <MODEL>
6

>  <REMARK>
 VINA RESULT:      -6.8      5.503      7.371
  Name = 
  5 active torsions:
  status: ('A' for Active; 'I' for Inactive)
    1  A    between atoms: N_4  and  C_5
    2  A    between atoms: C_9  and  C_22
    3  A    between atoms: C_15  and  N_23
    4  A    between atoms: C_29  and  O_31
    5  A    between atoms: C_30  and  O_31
                            x       y       z     vdW  Elec       q    Type
                         _______ _______ _______ _____ _____    ______ ____

>  <TORSDO>
F 5

$$$$
=
 OpenBabel10272400263D

 31 34  0  0  1  0  0  0  0  0999 V2000
  189.1940  177.5540  147.4330 C   0  0  0  0  0  0  0  0  0  0  0  0
  188.2410  177.5280  143.7940 N   0  0  0  0  0  0  0  0  0  0  0  0
  188.9890  177.3450  145.0180 C   0  0  0  0  0  0  0  0  0  0  0  0
  190.4620  176.9730  147.3820 C   0  0  0  0  0  3  0  0  0  0  0  0
  189.8420  176.1050  142.5990 C   0  0  1  0  0  3  0  0  0  0  0  0
  188.5210  178.0510  148.9710 Cl  0  0  0  0  0  0  0  0  0  0  0  0
  190.9000  176.3790  143.6680 C   0  0  0  0  0  2  0  0  0  0  0  0
  188.8970  177.2950  142.5060 C   0  0  0  0  0  2  0  0  0  0  0  0
  188.4630  177.7430  146.2590 C   0  0  0  0  0  3  0  0  0  0  0  0
  190.2690  176.7520  144.9760 C   0  0  0  0  0  0  0  0  0  0  0  0
  191.0010  176.5780  146.1560 C   0  0  0  0  0  3  0  0  0  0  0  0
  186.8660  177.9530  143.7980 C   0  0  0  0  0  0  0  0  0  0  0  0
  184.8130  178.2670  144.9960 N   0  0  0  0  0  0  0  0  0  0  0  0
  186.1170  177.8870  144.9820 C   0  0  0  0  0  3  0  0  0  0  0  0
  184.1920  178.7170  143.8750 C   0  0  0  0  0  3  0  0  0  0  0  0
  184.8940  178.8020  142.6730 C   0  0  0  0  0  3  0  0  0  0  0  0
  186.2420  178.4210  142.6260 C   0  0  0  0  0  0  0  0  0  0  0  0
  186.9770  178.5110  141.4350 O   0  0  0  0  0  0  0  0  0  0  0  0
  187.4180  178.0370  139.1130 C   0  0  0  0  0  1  0  0  0  0  0  0
  186.3840  178.4540  140.1420 C   0  0  0  0  0  2  0  0  0  0  0  0
  190.5340  178.1520  140.7480 O   0  0  0  0  0  0  0  0  0  0  0  0
  190.7920  176.9630  140.4130 C   0  0  0  0  0  0  0  0  0  0  0  0
  190.4810  175.8910  141.3100 N   0  0  0  0  0  2  0  0  0  0  0  0
  192.5130  176.0780  136.5800 C   0  0  0  0  0  0  0  0  0  0  0  0
  190.6040  176.2030  138.0570 C   0  0  0  0  0  3  0  0  0  0  0  0
  193.6570  177.2890  139.8620 O   0  0  0  0  0  1  0  0  0  0  0  0
  193.1940  175.7100  135.0100 Cl  0  0  0  0  0  0  0  0  0  0  0  0
  191.1460  175.9100  136.8030 C   0  0  0  0  0  3  0  0  0  0  0  0
  192.8010  176.8340  138.8660 C   0  0  0  0  0  0  0  0  0  0  0  0
  191.4170  176.6670  139.1020 C   0  0  0  0  0  0  0  0  0  0  0  0
  193.3370  176.5380  137.6080 C   0  0  0  0  0  3  0  0  0  0  0  0
  1  6  1  0  0  0  0
  2 12  1  0  0  0  0
  2  3  1  0  0  0  0
  3  9  1  0  0  0  0
  4  1  1  0  0  0  0
  5 23  1  6  0  0  0
  5  7  1  0  0  0  0
  7 10  1  0  0  0  0
  8  5  1  0  0  0  0
  8  2  1  0  0  0  0
  9  1  2  0  0  0  0
 10  3  2  0  0  0  0
 10 11  1  0  0  0  0
 11  4  2  0  0  0  0
 12 14  1  0  0  0  0
 14 13  2  0  0  0  0
 15 13  1  0  0  0  0
 16 15  2  0  0  0  0
 17 16  1  0  0  0  0
 17 12  2  0  0  0  0
 18 17  1  0  0  0  0
 19 20  1  0  0  0  0
 20 18  1  0  0  0  0
 22 21  2  0  0  0  0
 22 23  1  0  0  0  0
 24 28  2  0  0  0  0
 24 31  1  0  0  0  0
 25 30  2  0  0  0  0
 27 24  1  0  0  0  0
 28 25  1  0  0  0  0
 29 30  1  0  0  0  0
 29 26  1  0  0  0  0
 30 22  1  0  0  0  0
 31 29  2  0  0  0  0
M  END
>  <MODEL>
7

>  <REMARK>
 VINA RESULT:      -6.8      2.501      8.674
  Name = 
  5 active torsions:
  status: ('A' for Active; 'I' for Inactive)
    1  A    between atoms: N_4  and  C_5
    2  A    between atoms: C_9  and  C_22
    3  A    between atoms: C_15  and  N_23
    4  A    between atoms: C_29  and  O_31
    5  A    between atoms: C_30  and  O_31
                            x       y       z     vdW  Elec       q    Type
                         _______ _______ _______ _____ _____    ______ ____

>  <TORSDO>
F 5

$$$$
=
 OpenBabel10272400263D

 31 34  0  0  1  0  0  0  0  0999 V2000
  182.9770  178.9530  139.2290 C   0  0  0  0  0  0  0  0  0  0  0  0
  186.6390  178.4610  139.9370 N   0  0  0  0  0  0  0  0  0  0  0  0
  185.2140  178.6230  140.1260 C   0  0  0  0  0  0  0  0  0  0  0  0
  182.4490  178.9300  140.5200 C   0  0  0  0  0  3  0  0  0  0  0  0
  186.8730  177.7760  142.2810 C   0  0  1  0  0  3  0  0  0  0  0  0
  181.9160  179.1720  137.8530 Cl  0  0  0  0  0  0  0  0  0  0  0  0
  185.5620  178.4770  142.6290 C   0  0  0  0  0  2  0  0  0  0  0  0
  187.5270  178.4820  141.1020 C   0  0  0  0  0  2  0  0  0  0  0  0
  184.3510  178.8030  139.0310 C   0  0  0  0  0  3  0  0  0  0  0  0
  184.6710  178.5950  141.4280 C   0  0  0  0  0  0  0  0  0  0  0  0
  183.2940  178.7580  141.6180 C   0  0  0  0  0  3  0  0  0  0  0  0
  187.2200  178.2970  138.6310 C   0  0  0  0  0  0  0  0  0  0  0  0
  186.9330  178.1370  136.2560 N   0  0  0  0  0  0  0  0  0  0  0  0
  186.4000  178.3100  137.4940 C   0  0  0  0  0  3  0  0  0  0  0  0
  188.2660  177.9430  136.0770 C   0  0  0  0  0  3  0  0  0  0  0  0
  189.1230  177.9220  137.1760 C   0  0  0  0  0  3  0  0  0  0  0  0
  188.6050  178.1020  138.4670 C   0  0  0  0  0  0  0  0  0  0  0  0
  189.4450  178.1010  139.5890 O   0  0  0  0  0  0  0  0  0  0  0  0
  191.1390  177.3760  141.1450 C   0  0  0  0  0  1  0  0  0  0  0  0
  190.3900  177.0710  139.8600 C   0  0  0  0  0  2  0  0  0  0  0  0
  188.5260  175.6220  143.1350 O   0  0  0  0  0  0  0  0  0  0  0  0
  188.5700  176.6840  143.8150 C   0  0  0  0  0  0  0  0  0  0  0  0
  187.7730  177.8080  143.4240 N   0  0  0  0  0  2  0  0  0  0  0  0
  191.1770  176.9450  147.2170 C   0  0  0  0  0  0  0  0  0  0  0  0
  190.8200  176.5610  144.8570 C   0  0  0  0  0  3  0  0  0  0  0  0
  187.5840  177.3150  146.5060 O   0  0  0  0  0  1  0  0  0  0  0  0
  192.2560  177.0450  148.5900 Cl  0  0  0  0  0  0  0  0  0  0  0  0
  191.6830  176.6430  145.9520 C   0  0  0  0  0  3  0  0  0  0  0  0
  188.9380  177.0870  146.2940 C   0  0  0  0  0  0  0  0  0  0  0  0
  189.4420  176.7820  145.0090 C   0  0  0  0  0  0  0  0  0  0  0  0
  189.8090  177.1660  147.3860 C   0  0  0  0  0  3  0  0  0  0  0  0
  1  4  1  0  0  0  0
  2  3  1  0  0  0  0
  2  8  1  0  0  0  0
  3 10  2  0  0  0  0
  4 11  2  0  0  0  0
  5  7  1  0  0  0  0
  5 23  1  1  0  0  0
  6  1  1  0  0  0  0
  8  5  1  0  0  0  0
  9  1  2  0  0  0  0
  9  3  1  0  0  0  0
 10 11  1  0  0  0  0
 10  7  1  0  0  0  0
 12  2  1  0  0  0  0
 13 14  1  0  0  0  0
 14 12  2  0  0  0  0
 15 13  2  0  0  0  0
 15 16  1  0  0  0  0
 16 17  2  0  0  0  0
 17 12  1  0  0  0  0
 17 18  1  0  0  0  0
 18 20  1  0  0  0  0
 20 19  1  0  0  0  0
 21 22  2  0  0  0  0
 22 30  1  0  0  0  0
 23 22  1  0  0  0  0
 24 31  1  0  0  0  0
 24 27  1  0  0  0  0
 25 30  2  0  0  0  0
 25 28  1  0  0  0  0
 28 24  2  0  0  0  0
 29 26  1  0  0  0  0
 29 31  2  0  0  0  0
 30 29  1  0  0  0  0
M  END
>  <MODEL>
8

>  <REMARK>
 VINA RESULT:      -6.7      3.108      4.613
  Name = 
  5 active torsions:
  status: ('A' for Active; 'I' for Inactive)
    1  A    between atoms: N_4  and  C_5
    2  A    between atoms: C_9  and  C_22
    3  A    between atoms: C_15  and  N_23
    4  A    between atoms: C_29  and  O_31
    5  A    between atoms: C_30  and  O_31
                            x       y       z     vdW  Elec       q    Type
                         _______ _______ _______ _____ _____    ______ ____

>  <TORSDO>
F 5

$$$$
=
 OpenBabel10272400263D

 31 34  0  0  1  0  0  0  0  0999 V2000
  187.8480  178.1740  141.3480 C   0  0  0  0  0  0  0  0  0  0  0  0
  189.6390  177.3100  138.1540 N   0  0  0  0  0  0  0  0  0  0  0  0
  189.3730  177.5610  139.5530 C   0  0  0  0  0  0  0  0  0  0  0  0
  188.8800  178.0380  142.2780 C   0  0  0  0  0  3  0  0  0  0  0  0
  191.8110  176.3310  138.7410 C   0  0  1  0  0  3  0  0  0  0  0  0
  186.2470  178.6410  141.8780 Cl  0  0  0  0  0  0  0  0  0  0  0  0
  191.8050  177.0880  140.0680 C   0  0  0  0  0  2  0  0  0  0  0  0
  191.0210  177.1200  137.7060 C   0  0  0  0  0  2  0  0  0  0  0  0
  188.0930  177.9400  139.9920 C   0  0  0  0  0  3  0  0  0  0  0  0
  190.4080  177.4200  140.5010 C   0  0  0  0  0  0  0  0  0  0  0  0
  190.1580  177.6680  141.8550 C   0  0  0  0  0  3  0  0  0  0  0  0
  188.5860  177.2580  137.1750 C   0  0  0  0  0  0  0  0  0  0  0  0
  187.1380  178.4080  135.6490 N   0  0  0  0  0  0  0  0  0  0  0  0
  188.1440  178.4390  136.5600 C   0  0  0  0  0  3  0  0  0  0  0  0
  186.5250  177.2450  135.3050 C   0  0  0  0  0  3  0  0  0  0  0  0
  186.9290  176.0440  135.8880 C   0  0  0  0  0  3  0  0  0  0  0  0
  187.9680  176.0410  136.8290 C   0  0  0  0  0  0  0  0  0  0  0  0
  188.4040  174.8480  137.4200 O   0  0  0  0  0  0  0  0  0  0  0  0
  187.9030  172.5320  136.9710 C   0  0  0  0  0  1  0  0  0  0  0  0
  188.8150  173.7080  136.6730 C   0  0  0  0  0  2  0  0  0  0  0  0
  192.8360  173.9800  137.5090 O   0  0  0  0  0  0  0  0  0  0  0  0
  193.6400  174.9390  137.6750 C   0  0  0  0  0  0  0  0  0  0  0  0
  193.1770  176.1540  138.2760 N   0  0  0  0  0  2  0  0  0  0  0  0
  197.7190  174.6500  136.3640 C   0  0  0  0  0  0  0  0  0  0  0  0
  195.4460  175.4080  136.0380 C   0  0  0  0  0  3  0  0  0  0  0  0
  195.6960  173.5380  139.2310 O   0  0  0  0  0  1  0  0  0  0  0  0
  199.3760  174.5430  135.8110 Cl  0  0  0  0  0  0  0  0  0  0  0  0
  196.7690  175.3250  135.5960 C   0  0  0  0  0  3  0  0  0  0  0  0
  196.0240  174.1390  138.0230 C   0  0  0  0  0  0  0  0  0  0  0  0
  195.0550  174.8210  137.2510 C   0  0  0  0  0  0  0  0  0  0  0  0
  197.3460  174.0600  137.5730 C   0  0  0  0  0  3  0  0  0  0  0  0
  1  6  1  0  0  0  0
  1  4  1  0  0  0  0
  2  3  1  0  0  0  0
  3  9  1  0  0  0  0
  3 10  2  0  0  0  0
  5 23  1  6  0  0  0
  5  7  1  0  0  0  0
  7 10  1  0  0  0  0
  8  2  1  0  0  0  0
  8  5  1  0  0  0  0
  9  1  2  0  0  0  0
 10 11  1  0  0  0  0
 11  4  2  0  0  0  0
 12  2  1  0  0  0  0
 13 14  1  0  0  0  0
 14 12  2  0  0  0  0
 15 13  2  0  0  0  0
 15 16  1  0  0  0  0
 16 17  2  0  0  0  0
 17 12  1  0  0  0  0
 17 18  1  0  0  0  0
 20 19  1  0  0  0  0
 20 18  1  0  0  0  0
 21 22  2  0  0  0  0
 22 23  1  0  0  0  0
 24 31  1  0  0  0  0
 25 30  2  0  0  0  0
 27 24  1  0  0  0  0
 28 25  1  0  0  0  0
 28 24  2  0  0  0  0
 29 26  1  0  0  0  0
 30 22  1  0  0  0  0
 30 29  1  0  0  0  0
 31 29  2  0  0  0  0
M  END
>  <MODEL>
9

>  <REMARK>
 VINA RESULT:      -6.6      3.491      7.785
  Name = 
  5 active torsions:
  status: ('A' for Active; 'I' for Inactive)
    1  A    between atoms: N_4  and  C_5
    2  A    between atoms: C_9  and  C_22
    3  A    between atoms: C_15  and  N_23
    4  A    between atoms: C_29  and  O_31
    5  A    between atoms: C_30  and  O_31
                            x       y       z     vdW  Elec       q    Type
                         _______ _______ _______ _____ _____    ______ ____

>  <TORSDO>
F 5

$$$$
