=
 OpenBabel10272413143D

 32 37  0  0  1  0  0  0  0  0999 V2000
  186.5620  178.0330  137.7170 C   0  0  1  0  0  0  0  0  0  0  0  0
  188.5340  177.7000  139.1510 C   0  0  1  0  0  3  0  0  0  0  0  0
  185.8960  178.4220  136.4130 C   0  0  0  0  0  2  0  0  0  0  0  0
  188.0460  178.4010  137.8850 C   0  0  1  0  0  3  0  0  0  0  0  0
  190.0650  177.7200  139.2500 C   0  0  1  0  0  3  0  0  0  0  0  0
  188.0820  176.7540  144.7860 C   0  0  0  0  0  1  0  0  0  0  0  0
  187.8200  178.3450  140.3430 C   0  0  1  0  0  3  0  0  0  0  0  0
  190.3190  177.4860  143.3900 S   0  0  0  0  0  0  0  0  0  0  0  0
  189.8210  178.0050  141.7320 C   0  0  1  0  0  3  0  0  0  0  0  0
  188.9670  178.1930  136.6630 C   0  0  0  0  0  2  0  0  0  0  0  0
  190.5710  177.2640  140.6310 C   0  0  0  0  0  2  0  0  0  0  0  0
  189.8310  176.9380  136.7880 C   0  0  0  0  0  2  0  0  0  0  0  0
  185.0300  176.1340  136.9040 C   0  0  0  0  0  1  0  0  0  0  0  0
  186.3180  178.2130  140.1920 C   0  0  0  0  0  3  0  0  0  0  0  0
  185.7070  178.1170  138.9880 C   0  0  0  0  0  0  0  0  0  0  0  0
  188.3420  177.7270  141.6330 C   0  0  1  0  0  3  0  0  0  0  0  0
  190.6890  176.9240  138.0700 C   0  0  2  0  0  3  0  0  0  0  0  0
  186.2800  176.9630  136.6570 C   0  0  2  0  0  3  0  0  0  0  0  0
  188.6690  177.9350  144.0420 C   0  0  1  0  0  3  0  0  0  0  0  0
  187.7500  178.3260  142.8890 C   0  0  0  0  0  2  0  0  0  0  0  0
  182.3110  179.9220  139.3920 N   0  0  0  0  0  0  0  0  0  0  0  0
  180.0390  177.6220  139.0640 O   0  0  0  0  0  0  0  0  0  0  0  0
  181.8050  181.1260  139.0340 O   0  0  0  0  0  1  0  0  0  0  0  0
  182.1980  176.7310  139.3170 C   0  0  0  0  0  2  0  0  0  0  0  0
  184.1980  178.1960  138.9230 C   0  0  1  0  0  3  0  0  0  0  0  0
  181.4840  179.0630  140.2280 C   0  0  0  0  0  2  0  0  0  0  0  0
  183.5600  177.1620  139.8470 C   0  0  0  0  0  2  0  0  0  0  0  0
  183.6810  179.6200  139.0700 C   0  0  0  0  0  0  0  0  0  0  0  0
  184.4500  180.5750  138.7740 O   0  0  0  0  0  0  0  0  0  0  0  0
  181.1600  177.7920  139.5120 C   0  0  0  0  0  0  0  0  0  0  0  0
  191.0830  175.4830  138.4120 C   0  0  0  0  0  2  0  0  0  0  0  0
  190.7670  174.5160  137.2780 C   0  0  0  0  0  1  0  0  0  0  0  0
  1  3  1  6  0  0  0
  1  4  1  0  0  0  0
  1 15  1  0  0  0  0
  2  5  1  0  0  0  0
  2  7  1  0  0  0  0
  3 18  1  0  0  0  0
  4  2  1  0  0  0  0
  5 11  1  0  0  0  0
  7 16  1  0  0  0  0
  8 19  1  0  0  0  0
  9  8  1  0  0  0  0
 10 12  1  0  0  0  0
 10  4  1  0  0  0  0
 11  9  1  0  0  0  0
 12 17  1  0  0  0  0
 14  7  1  0  0  0  0
 15 14  2  0  0  0  0
 16  9  1  0  0  0  0
 16 20  1  0  0  0  0
 17 31  1  0  0  0  0
 17  5  1  0  0  0  0
 18 13  1  0  0  0  0
 18  1  1  0  0  0  0
 19  6  1  0  0  0  0
 20 19  1  0  0  0  0
 21 26  1  0  0  0  0
 22 30  2  0  0  0  0
 23 21  1  0  0  0  0
 24 30  1  0  0  0  0
 24 27  1  0  0  0  0
 25 15  1  0  0  0  0
 25 28  1  0  0  0  0
 25 27  1  0  0  0  0
 28 21  1  0  0  0  0
 29 28  2  0  0  0  0
 30 26  1  0  0  0  0
 32 31  1  0  0  0  0
M  END
>  <MODEL>
1

>  <REMARK>
 VINA RESULT:      -6.8      0.000      0.000
  Name = 
  2 active torsions:
  status: ('A' for Active; 'I' for Inactive)
    1  A    between atoms: C_13  and  C_29
    2  A    between atoms: C_16  and  C_27
                            x       y       z     vdW  Elec       q    Type
                         _______ _______ _______ _____ _____    ______ ____

>  <TORSDO>
F 2

$$$$
=
 OpenBabel10272413143D

 32 37  0  0  1  0  0  0  0  0999 V2000
  186.5950  178.1820  139.0520 C   0  0  1  0  0  0  0  0  0  0  0  0
  187.5440  178.0660  141.3190 C   0  0  1  0  0  3  0  0  0  0  0  0
  186.7000  178.4180  137.5600 C   0  0  0  0  0  2  0  0  0  0  0  0
  187.7870  178.6230  139.9190 C   0  0  1  0  0  3  0  0  0  0  0  0
  188.8070  178.1570  142.1880 C   0  0  1  0  0  3  0  0  0  0  0  0
  184.2450  177.6420  145.9880 C   0  0  0  0  0  1  0  0  0  0  0  0
  186.3280  178.7920  141.9040 C   0  0  1  0  0  3  0  0  0  0  0  0
  186.8920  178.3280  145.8710 S   0  0  0  0  0  0  0  0  0  0  0  0
  187.3250  178.6670  144.1490 C   0  0  1  0  0  3  0  0  0  0  0  0
  189.2020  178.3380  139.3710 C   0  0  0  0  0  2  0  0  0  0  0  0
  188.5240  177.8550  143.6710 C   0  0  0  0  0  2  0  0  0  0  0  0
  189.8600  177.1360  140.0490 C   0  0  0  0  0  2  0  0  0  0  0  0
  185.6720  176.1550  137.7670 C   0  0  0  0  0  1  0  0  0  0  0  0
  185.1150  178.5860  141.0180 C   0  0  0  0  0  3  0  0  0  0  0  0
  185.2100  178.3520  139.6890 C   0  0  0  0  0  0  0  0  0  0  0  0
  186.1030  178.3210  143.3350 C   0  0  1  0  0  3  0  0  0  0  0  0
  189.9360  177.2790  141.5830 C   0  0  2  0  0  3  0  0  0  0  0  0
  186.8830  177.0060  138.1130 C   0  0  2  0  0  3  0  0  0  0  0  0
  185.1480  178.7710  145.5350 C   0  0  1  0  0  3  0  0  0  0  0  0
  184.9590  179.0120  144.0400 C   0  0  0  0  0  2  0  0  0  0  0  0
  181.9880  179.9770  138.2990 N   0  0  0  0  0  0  0  0  0  0  0  0
  180.3630  177.5910  136.8060 O   0  0  0  0  0  0  0  0  0  0  0  0
  181.6650  181.1710  137.7480 O   0  0  0  0  0  1  0  0  0  0  0  0
  182.1320  176.7910  138.1290 C   0  0  0  0  0  2  0  0  0  0  0  0
  183.9500  178.3630  138.8510 C   0  0  1  0  0  3  0  0  0  0  0  0
  180.9040  179.0440  138.5720 C   0  0  0  0  0  2  0  0  0  0  0  0
  182.9930  177.2600  139.2950 C   0  0  0  0  0  2  0  0  0  0  0  0
  183.3430  179.7540  138.7300 C   0  0  0  0  0  0  0  0  0  0  0  0
  184.0920  180.7560  138.8900 O   0  0  0  0  0  0  0  0  0  0  0  0
  181.0780  177.7930  137.7730 C   0  0  0  0  0  0  0  0  0  0  0  0
  190.0780  175.8930  142.2230 C   0  0  0  0  0  2  0  0  0  0  0  0
  191.1870  175.8530  143.2670 C   0  0  0  0  0  1  0  0  0  0  0  0
  1  3  1  6  0  0  0
  1 15  1  0  0  0  0
  1  4  1  0  0  0  0
  2  7  1  0  0  0  0
  2  5  1  0  0  0  0
  3 18  1  0  0  0  0
  4  2  1  0  0  0  0
  5 11  1  0  0  0  0
  7 16  1  0  0  0  0
  9  8  1  0  0  0  0
 10  4  1  0  0  0  0
 10 12  1  0  0  0  0
 11  9  1  0  0  0  0
 12 17  1  0  0  0  0
 13 18  1  0  0  0  0
 14  7  1  0  0  0  0
 15 14  2  0  0  0  0
 16 20  1  0  0  0  0
 16  9  1  0  0  0  0
 17  5  1  0  0  0  0
 17 31  1  0  0  0  0
 18  1  1  0  0  0  0
 19  8  1  0  0  0  0
 19  6  1  0  0  0  0
 20 19  1  0  0  0  0
 21 26  1  0  0  0  0
 21 28  1  0  0  0  0
 22 30  2  0  0  0  0
 23 21  1  0  0  0  0
 24 27  1  0  0  0  0
 25 27  1  0  0  0  0
 25 15  1  0  0  0  0
 28 25  1  0  0  0  0
 28 29  2  0  0  0  0
 30 24  1  0  0  0  0
 30 26  1  0  0  0  0
 31 32  1  0  0  0  0
M  END
>  <MODEL>
2

>  <REMARK>
 VINA RESULT:      -5.5      1.829      2.695
  Name = 
  2 active torsions:
  status: ('A' for Active; 'I' for Inactive)
    1  A    between atoms: C_13  and  C_29
    2  A    between atoms: C_16  and  C_27
                            x       y       z     vdW  Elec       q    Type
                         _______ _______ _______ _____ _____    ______ ____

>  <TORSDO>
F 2

$$$$
=
 OpenBabel10272413143D

 32 37  0  0  1  0  0  0  0  0999 V2000
  188.7410  176.4180  136.4890 C   0  0  1  0  0  0  0  0  0  0  0  0
  186.9480  174.8070  135.9950 C   0  0  1  0  0  3  0  0  0  0  0  0
  189.2900  177.8240  136.6150 C   0  0  0  0  0  2  0  0  0  0  0  0
  187.3860  176.2540  135.7790 C   0  0  1  0  0  3  0  0  0  0  0  0
  185.4730  174.6040  135.6200 C   0  0  1  0  0  3  0  0  0  0  0  0
  187.9550  169.1880  135.4770 C   0  0  0  0  0  1  0  0  0  0  0  0
  187.9200  173.9080  135.2240 C   0  0  1  0  0  3  0  0  0  0  0  0
  185.7280  170.5660  134.6800 S   0  0  0  0  0  0  0  0  0  0  0  0
  186.0910  172.3350  134.7420 C   0  0  1  0  0  3  0  0  0  0  0  0
  186.2890  177.2920  136.1020 C   0  0  0  0  0  2  0  0  0  0  0  0
  185.0780  173.1170  135.5710 C   0  0  0  0  0  2  0  0  0  0  0  0
  185.2320  176.7470  137.0620 C   0  0  0  0  0  2  0  0  0  0  0  0
  189.7730  176.7610  138.8190 C   0  0  0  0  0  1  0  0  0  0  0  0
  189.3380  174.1250  135.7120 C   0  0  0  0  0  3  0  0  0  0  0  0
  189.7560  175.2930  136.2550 C   0  0  0  0  0  0  0  0  0  0  0  0
  187.4670  172.4590  135.3480 C   0  0  1  0  0  3  0  0  0  0  0  0
  184.5630  175.4550  136.5480 C   0  0  2  0  0  3  0  0  0  0  0  0
  188.6780  177.1430  137.8370 C   0  0  2  0  0  3  0  0  0  0  0  0
  187.5040  170.1950  134.4390 C   0  0  1  0  0  3  0  0  0  0  0  0
  188.3190  171.4770  134.5780 C   0  0  0  0  0  2  0  0  0  0  0  0
  193.4210  175.9050  135.1830 N   0  0  0  0  0  0  0  0  0  0  0  0
  195.2190  175.4150  137.8450 O   0  0  0  0  0  0  0  0  0  0  0  0
  194.0560  176.7610  134.3470 O   0  0  0  0  0  1  0  0  0  0  0  0
  193.0050  174.6690  138.0980 C   0  0  0  0  0  2  0  0  0  0  0  0
  191.2320  175.4900  136.5220 C   0  0  1  0  0  3  0  0  0  0  0  0
  194.2130  174.8490  135.7980 C   0  0  0  0  0  2  0  0  0  0  0  0
  191.8250  174.2690  137.2210 C   0  0  0  0  0  2  0  0  0  0  0  0
  191.9880  175.9780  135.2950 C   0  0  0  0  0  0  0  0  0  0  0  0
  191.3480  176.5860  134.3940 O   0  0  0  0  0  0  0  0  0  0  0  0
  194.2180  175.0000  137.2850 C   0  0  0  0  0  0  0  0  0  0  0  0
  183.9570  174.6850  137.7270 C   0  0  0  0  0  2  0  0  0  0  0  0
  182.8630  175.4770  138.4300 C   0  0  0  0  0  1  0  0  0  0  0  0
  1  3  1  6  0  0  0
  1 18  1  0  0  0  0
  3 18  1  0  0  0  0
  4  2  1  0  0  0  0
  4 10  1  0  0  0  0
  4  1  1  0  0  0  0
  5  2  1  0  0  0  0
  5 17  1  0  0  0  0
  7 16  1  0  0  0  0
  7 14  1  0  0  0  0
  7  2  1  0  0  0  0
  8  9  1  0  0  0  0
  9 16  1  0  0  0  0
  9 11  1  0  0  0  0
 10 12  1  0  0  0  0
 11  5  1  0  0  0  0
 14 15  2  0  0  0  0
 15  1  1  0  0  0  0
 15 25  1  0  0  0  0
 17 12  1  0  0  0  0
 17 31  1  0  0  0  0
 18 13  1  0  0  0  0
 19 20  1  0  0  0  0
 19  8  1  0  0  0  0
 19  6  1  0  0  0  0
 20 16  1  0  0  0  0
 21 28  1  0  0  0  0
 21 26  1  0  0  0  0
 23 21  1  0  0  0  0
 25 27  1  0  0  0  0
 26 30  1  0  0  0  0
 27 24  1  0  0  0  0
 28 25  1  0  0  0  0
 29 28  2  0  0  0  0
 30 22  2  0  0  0  0
 30 24  1  0  0  0  0
 31 32  1  0  0  0  0
M  END
>  <MODEL>
3

>  <REMARK>
 VINA RESULT:      -4.9      5.274      9.101
  Name = 
  2 active torsions:
  status: ('A' for Active; 'I' for Inactive)
    1  A    between atoms: C_13  and  C_29
    2  A    between atoms: C_16  and  C_27
                            x       y       z     vdW  Elec       q    Type
                         _______ _______ _______ _____ _____    ______ ____

>  <TORSDO>
F 2

$$$$
=
 OpenBabel10272413143D

 32 37  0  0  1  0  0  0  0  0999 V2000
  185.3370  177.0520  137.6570 C   0  0  1  0  0  0  0  0  0  0  0  0
  185.6580  178.0550  139.8810 C   0  0  1  0  0  3  0  0  0  0  0  0
  185.7520  176.7990  136.2230 C   0  0  0  0  0  2  0  0  0  0  0  0
  186.0830  178.1620  138.4190 C   0  0  1  0  0  3  0  0  0  0  0  0
  186.5710  178.8860  140.7940 C   0  0  1  0  0  3  0  0  0  0  0  0
  181.5350  178.0290  143.8620 C   0  0  0  0  0  1  0  0  0  0  0  0
  184.1770  178.4340  139.9640 C   0  0  1  0  0  3  0  0  0  0  0  0
  183.8050  179.5580  143.8190 S   0  0  0  0  0  0  0  0  0  0  0  0
  184.5510  179.4380  142.1780 C   0  0  1  0  0  3  0  0  0  0  0  0
  187.6110  178.2510  138.2180 C   0  0  0  0  0  2  0  0  0  0  0  0
  186.0140  179.0140  142.2240 C   0  0  0  0  0  2  0  0  0  0  0  0
  188.3910  177.6750  139.3990 C   0  0  0  0  0  2  0  0  0  0  0  0
  185.4080  174.5250  137.1890 C   0  0  0  0  0  1  0  0  0  0  0  0
  183.3480  177.5140  139.0890 C   0  0  0  0  0  3  0  0  0  0  0  0
  183.8470  176.9030  137.9890 C   0  0  0  0  0  0  0  0  0  0  0  0
  183.7360  178.4180  141.4220 C   0  0  1  0  0  3  0  0  0  0  0  0
  188.0230  178.3370  140.7430 C   0  0  2  0  0  3  0  0  0  0  0  0
  186.1870  175.8240  137.3150 C   0  0  2  0  0  3  0  0  0  0  0  0
  182.1560  179.1900  143.1140 C   0  0  1  0  0  3  0  0  0  0  0  0
  182.2980  178.8330  141.6380 C   0  0  0  0  0  2  0  0  0  0  0  0
  180.9220  176.7160  135.4660 N   0  0  0  0  0  0  0  0  0  0  0  0
  180.2500  173.5560  135.1190 O   0  0  0  0  0  0  0  0  0  0  0  0
  180.5620  177.3910  134.3490 O   0  0  0  0  0  1  0  0  0  0  0  0
  181.6790  173.9820  136.9340 C   0  0  0  0  0  2  0  0  0  0  0  0
  182.9000  176.1720  137.0640 C   0  0  1  0  0  3  0  0  0  0  0  0
  179.9910  175.7240  135.9860 C   0  0  0  0  0  2  0  0  0  0  0  0
  182.0700  175.1480  137.8340 C   0  0  0  0  0  2  0  0  0  0  0  0
  182.1140  177.1180  136.1670 C   0  0  0  0  0  0  0  0  0  0  0  0
  182.5930  178.2600  135.9260 O   0  0  0  0  0  0  0  0  0  0  0  0
  180.6090  174.3630  135.9590 C   0  0  0  0  0  0  0  0  0  0  0  0
  188.3910  177.3990  141.8980 C   0  0  0  0  0  2  0  0  0  0  0  0
  189.4470  178.0020  142.8150 C   0  0  0  0  0  1  0  0  0  0  0  0
  1  3  1  6  0  0  0
  1 15  1  0  0  0  0
  1  4  1  0  0  0  0
  2  7  1  0  0  0  0
  2  5  1  0  0  0  0
  3 18  1  0  0  0  0
  4  2  1  0  0  0  0
  5 11  1  0  0  0  0
  7 16  1  0  0  0  0
  9 11  1  0  0  0  0
  9  8  1  0  0  0  0
 10  4  1  0  0  0  0
 10 12  1  0  0  0  0
 12 17  1  0  0  0  0
 13 18  1  0  0  0  0
 14  7  1  0  0  0  0
 15 14  2  0  0  0  0
 16 20  1  0  0  0  0
 16  9  1  0  0  0  0
 17  5  1  0  0  0  0
 17 31  1  0  0  0  0
 18  1  1  0  0  0  0
 19  8  1  0  0  0  0
 19  6  1  0  0  0  0
 20 19  1  0  0  0  0
 21 26  1  0  0  0  0
 21 28  1  0  0  0  0
 22 30  2  0  0  0  0
 23 21  1  0  0  0  0
 24 27  1  0  0  0  0
 25 27  1  0  0  0  0
 25 15  1  0  0  0  0
 28 25  1  0  0  0  0
 29 28  2  0  0  0  0
 30 26  1  0  0  0  0
 30 24  1  0  0  0  0
 31 32  1  0  0  0  0
M  END
>  <MODEL>
4

>  <REMARK>
 VINA RESULT:      -4.9      2.918      4.449
  Name = 
  2 active torsions:
  status: ('A' for Active; 'I' for Inactive)
    1  A    between atoms: C_13  and  C_29
    2  A    between atoms: C_16  and  C_27
                            x       y       z     vdW  Elec       q    Type
                         _______ _______ _______ _____ _____    ______ ____

>  <TORSDO>
F 2

$$$$
=
 OpenBabel10272413143D

 32 37  0  0  1  0  0  0  0  0999 V2000
  186.3380  178.4170  144.2720 C   0  0  1  0  0  0  0  0  0  0  0  0
  184.6110  178.7210  142.5460 C   0  0  1  0  0  3  0  0  0  0  0  0
  186.9480  178.6990  145.6300 C   0  0  0  0  0  2  0  0  0  0  0  0
  185.2080  179.3500  143.8030 C   0  0  1  0  0  3  0  0  0  0  0  0
  183.2750  179.3770  142.1690 C   0  0  1  0  0  3  0  0  0  0  0  0
  185.2520  176.7310  137.2090 C   0  0  0  0  0  1  0  0  0  0  0  0
  185.6730  178.7860  141.4450 C   0  0  1  0  0  3  0  0  0  0  0  0
  183.4340  178.5760  138.0960 S   0  0  0  0  0  0  0  0  0  0  0  0
  183.9120  179.1050  139.7570 C   0  0  1  0  0  3  0  0  0  0  0  0
  184.1540  179.7670  144.8520 C   0  0  0  0  0  2  0  0  0  0  0  0
  182.7850  178.9540  140.7720 C   0  0  0  0  0  2  0  0  0  0  0  0
  182.8410  179.0000  144.6990 C   0  0  0  0  0  2  0  0  0  0  0  0
  186.7450  176.2140  145.5350 C   0  0  0  0  0  1  0  0  0  0  0  0
  186.9270  178.0520  141.8770 C   0  0  0  0  0  3  0  0  0  0  0  0
  187.2820  177.9100  143.1750 C   0  0  0  0  0  0  0  0  0  0  0  0
  185.0860  178.2420  140.1490 C   0  0  1  0  0  3  0  0  0  0  0  0
  182.2260  179.1370  143.2900 C   0  0  2  0  0  3  0  0  0  0  0  0
  185.9820  177.5260  145.4680 C   0  0  2  0  0  3  0  0  0  0  0  0
  185.1740  178.1580  137.7120 C   0  0  1  0  0  3  0  0  0  0  0  0
  186.0270  178.3080  138.9680 C   0  0  0  0  0  2  0  0  0  0  0  0
  191.1350  178.0980  143.4520 N   0  0  0  0  0  0  0  0  0  0  0  0
  192.1300  175.0640  144.0580 O   0  0  0  0  0  0  0  0  0  0  0  0
  192.0280  178.9860  143.9490 O   0  0  0  0  0  1  0  0  0  0  0  0
  189.8790  175.1620  143.3930 C   0  0  0  0  0  2  0  0  0  0  0  0
  188.6460  177.3460  143.5040 C   0  0  1  0  0  3  0  0  0  0  0  0
  191.6570  176.9450  142.7310 C   0  0  0  0  0  2  0  0  0  0  0  0
  188.9430  176.1120  142.6560 C   0  0  0  0  0  2  0  0  0  0  0  0
  189.7320  178.4130  143.5170 C   0  0  0  0  0  0  0  0  0  0  0  0
  189.3970  179.6130  143.7210 O   0  0  0  0  0  0  0  0  0  0  0  0
  191.2830  175.6790  143.4310 C   0  0  0  0  0  0  0  0  0  0  0  0
  181.2700  177.9680  143.0290 C   0  0  0  0  0  2  0  0  0  0  0  0
  179.9820  178.0870  143.8330 C   0  0  0  0  0  1  0  0  0  0  0  0
  1 18  1  0  0  0  0
  1  3  1  1  0  0  0
  2  4  1  0  0  0  0
  4  1  1  0  0  0  0
  4 10  1  0  0  0  0
  5  2  1  0  0  0  0
  5 17  1  0  0  0  0
  6 19  1  0  0  0  0
  7 14  1  0  0  0  0
  7  2  1  0  0  0  0
  8  9  1  0  0  0  0
  9 16  1  0  0  0  0
  9 11  1  0  0  0  0
 11  5  1  0  0  0  0
 12 10  1  0  0  0  0
 14 15  2  0  0  0  0
 15 25  1  0  0  0  0
 15  1  1  0  0  0  0
 16  7  1  0  0  0  0
 17 12  1  0  0  0  0
 18 13  1  0  0  0  0
 18  3  1  0  0  0  0
 19  8  1  0  0  0  0
 19 20  1  0  0  0  0
 20 16  1  0  0  0  0
 21 28  1  0  0  0  0
 21 23  1  0  0  0  0
 24 30  1  0  0  0  0
 25 28  1  0  0  0  0
 26 30  1  0  0  0  0
 26 21  1  0  0  0  0
 27 24  1  0  0  0  0
 27 25  1  0  0  0  0
 28 29  2  0  0  0  0
 30 22  2  0  0  0  0
 31 17  1  0  0  0  0
 31 32  1  0  0  0  0
M  END
>  <MODEL>
5

>  <REMARK>
 VINA RESULT:      -4.7      4.354      8.462
  Name = 
  2 active torsions:
  status: ('A' for Active; 'I' for Inactive)
    1  A    between atoms: C_13  and  C_29
    2  A    between atoms: C_16  and  C_27
                            x       y       z     vdW  Elec       q    Type
                         _______ _______ _______ _____ _____    ______ ____

>  <TORSDO>
F 2

$$$$
=
 OpenBabel10272413143D

 32 37  0  0  1  0  0  0  0  0999 V2000
  186.4310  178.6650  141.6900 C   0  0  1  0  0  0  0  0  0  0  0  0
  186.5100  177.8750  139.3610 C   0  0  1  0  0  3  0  0  0  0  0  0
  185.8860  179.5470  142.7940 C   0  0  0  0  0  2  0  0  0  0  0  0
  186.0500  179.0320  140.2450 C   0  0  1  0  0  3  0  0  0  0  0  0
  185.9030  177.9670  137.9540 C   0  0  1  0  0  3  0  0  0  0  0  0
  190.6890  174.4530  137.4420 C   0  0  0  0  0  1  0  0  0  0  0  0
  188.0410  177.8540  139.3830 C   0  0  1  0  0  3  0  0  0  0  0  0
  188.9090  175.9090  135.9570 S   0  0  0  0  0  0  0  0  0  0  0  0
  188.0690  177.0800  137.0480 C   0  0  1  0  0  3  0  0  0  0  0  0
  184.5920  179.4710  139.9890 C   0  0  0  0  0  2  0  0  0  0  0  0
  186.5510  176.9770  136.9680 C   0  0  0  0  0  2  0  0  0  0  0  0
  183.7520  178.3660  139.3480 C   0  0  0  0  0  2  0  0  0  0  0  0
  185.6640  177.2260  143.6790 C   0  0  0  0  0  1  0  0  0  0  0  0
  188.5460  177.6880  140.8020 C   0  0  0  0  0  3  0  0  0  0  0  0
  187.8430  178.0990  141.8830 C   0  0  0  0  0  0  0  0  0  0  0  0
  188.5410  176.7630  138.4450 C   0  0  1  0  0  3  0  0  0  0  0  0
  184.3560  177.8410  138.0290 C   0  0  2  0  0  3  0  0  0  0  0  0
  185.2680  178.1710  142.5570 C   0  0  2  0  0  3  0  0  0  0  0  0
  190.3590  175.8850  137.0750 C   0  0  1  0  0  3  0  0  0  0  0  0
  190.0470  176.6820  138.3380 C   0  0  0  0  0  2  0  0  0  0  0  0
  190.8940  178.3220  144.2490 N   0  0  0  0  0  0  0  0  0  0  0  0
  189.8230  177.3840  147.1700 O   0  0  0  0  0  0  0  0  0  0  0  0
  191.9520  179.1570  144.3900 O   0  0  0  0  0  1  0  0  0  0  0  0
  188.2940  176.9100  145.4510 C   0  0  0  0  0  2  0  0  0  0  0  0
  188.5090  178.0810  143.2410 C   0  0  1  0  0  3  0  0  0  0  0  0
  190.8620  177.1260  145.0780 C   0  0  0  0  0  2  0  0  0  0  0  0
  188.2900  176.7400  143.9360 C   0  0  0  0  0  2  0  0  0  0  0  0
  189.9510  178.5690  143.1900 C   0  0  0  0  0  0  0  0  0  0  0  0
  190.2980  179.3290  142.2450 O   0  0  0  0  0  0  0  0  0  0  0  0
  189.6720  177.1490  145.9830 C   0  0  0  0  0  0  0  0  0  0  0  0
  183.8160  176.4360  137.7370 C   0  0  0  0  0  2  0  0  0  0  0  0
  182.9520  175.9050  138.8730 C   0  0  0  0  0  1  0  0  0  0  0  0
  1 15  1  0  0  0  0
  1 18  1  0  0  0  0
  1  3  1  1  0  0  0
  2  7  1  0  0  0  0
  2  4  1  0  0  0  0
  4  1  1  0  0  0  0
  5 17  1  0  0  0  0
  5  2  1  0  0  0  0
  7 14  1  0  0  0  0
  8  9  1  0  0  0  0
  8 19  1  0  0  0  0
  9 16  1  0  0  0  0
 10  4  1  0  0  0  0
 11  9  1  0  0  0  0
 11  5  1  0  0  0  0
 12 10  1  0  0  0  0
 14 15  2  0  0  0  0
 15 25  1  0  0  0  0
 16  7  1  0  0  0  0
 17 12  1  0  0  0  0
 18  3  1  0  0  0  0
 18 13  1  0  0  0  0
 19  6  1  0  0  0  0
 19 20  1  0  0  0  0
 20 16  1  0  0  0  0
 21 23  1  0  0  0  0
 21 26  1  0  0  0  0
 24 30  1  0  0  0  0
 25 27  1  0  0  0  0
 26 30  1  0  0  0  0
 27 24  1  0  0  0  0
 28 25  1  0  0  0  0
 28 21  1  0  0  0  0
 29 28  2  0  0  0  0
 30 22  2  0  0  0  0
 31 17  1  0  0  0  0
 31 32  1  0  0  0  0
M  END
>  <MODEL>
6

>  <REMARK>
 VINA RESULT:      -4.7      3.785      7.058
  Name = 
  2 active torsions:
  status: ('A' for Active; 'I' for Inactive)
    1  A    between atoms: C_13  and  C_29
    2  A    between atoms: C_16  and  C_27
                            x       y       z     vdW  Elec       q    Type
                         _______ _______ _______ _____ _____    ______ ____

>  <TORSDO>
F 2

$$$$
=
 OpenBabel10272413143D

 32 37  0  0  1  0  0  0  0  0999 V2000
  186.2770  178.7360  143.9220 C   0  0  1  0  0  0  0  0  0  0  0  0
  185.6160  178.5000  141.5630 C   0  0  1  0  0  3  0  0  0  0  0  0
  186.0800  179.2620  145.3280 C   0  0  0  0  0  2  0  0  0  0  0  0
  185.4060  179.3520  142.8130 C   0  0  1  0  0  3  0  0  0  0  0  0
  184.5640  178.8090  140.4890 C   0  0  1  0  0  3  0  0  0  0  0  0
  189.1200  176.2470  137.6260 C   0  0  0  0  0  1  0  0  0  0  0  0
  187.0620  178.7030  141.1010 C   0  0  1  0  0  3  0  0  0  0  0  0
  186.8490  177.7140  137.1970 S   0  0  0  0  0  0  0  0  0  0  0  0
  186.3510  178.4770  138.7570 C   0  0  1  0  0  3  0  0  0  0  0  0
  183.9210  179.6150  143.1460 C   0  0  0  0  0  2  0  0  0  0  0  0
  184.9060  178.1700  139.1310 C   0  0  0  0  0  2  0  0  0  0  0  0
  182.9900  178.5670  142.5360 C   0  0  0  0  0  2  0  0  0  0  0  0
  186.3270  176.7950  145.6090 C   0  0  0  0  0  1  0  0  0  0  0  0
  188.0280  178.3040  142.2000 C   0  0  0  0  0  3  0  0  0  0  0  0
  187.7060  178.3580  143.5130 C   0  0  0  0  0  0  0  0  0  0  0  0
  187.2880  177.9330  139.8070 C   0  0  1  0  0  3  0  0  0  0  0  0
  183.1460  178.4420  141.0060 C   0  0  2  0  0  3  0  0  0  0  0  0
  185.5110  177.8960  144.9500 C   0  0  2  0  0  3  0  0  0  0  0  0
  188.5890  177.6600  137.7610 C   0  0  1  0  0  3  0  0  0  0  0  0
  188.6700  178.1020  139.2190 C   0  0  0  0  0  2  0  0  0  0  0  0
  191.3860  178.2210  144.6920 N   0  0  0  0  0  0  0  0  0  0  0  0
  191.3220  176.8720  147.6480 O   0  0  0  0  0  0  0  0  0  0  0  0
  192.4730  179.0220  144.5720 O   0  0  0  0  0  1  0  0  0  0  0  0
  189.2770  176.6600  146.5120 C   0  0  0  0  0  2  0  0  0  0  0  0
  188.7920  178.1400  144.5430 C   0  0  1  0  0  3  0  0  0  0  0  0
  191.5730  176.9170  145.3120 C   0  0  0  0  0  2  0  0  0  0  0  0
  188.7500  176.7130  145.0840 C   0  0  0  0  0  2  0  0  0  0  0  0
  190.1540  178.6240  144.0660 C   0  0  0  0  0  0  0  0  0  0  0  0
  190.2000  179.5110  143.1710 O   0  0  0  0  0  0  0  0  0  0  0  0
  190.7650  176.8140  146.5650 C   0  0  0  0  0  0  0  0  0  0  0  0
  182.6350  177.0720  140.5460 C   0  0  0  0  0  2  0  0  0  0  0  0
  181.2730  177.1640  139.8710 C   0  0  0  0  0  1  0  0  0  0  0  0
  1 18  1  0  0  0  0
  1  3  1  1  0  0  0
  2  4  1  0  0  0  0
  4 10  1  0  0  0  0
  4  1  1  0  0  0  0
  5 17  1  0  0  0  0
  5  2  1  0  0  0  0
  6 19  1  0  0  0  0
  7  2  1  0  0  0  0
  7 14  1  0  0  0  0
  8 19  1  0  0  0  0
  8  9  1  0  0  0  0
  9 11  1  0  0  0  0
  9 16  1  0  0  0  0
 11  5  1  0  0  0  0
 12 10  1  0  0  0  0
 14 15  2  0  0  0  0
 15  1  1  0  0  0  0
 15 25  1  0  0  0  0
 16  7  1  0  0  0  0
 17 12  1  0  0  0  0
 18  3  1  0  0  0  0
 18 13  1  0  0  0  0
 19 20  1  0  0  0  0
 20 16  1  0  0  0  0
 21 26  1  0  0  0  0
 23 21  1  0  0  0  0
 24 30  1  0  0  0  0
 25 27  1  0  0  0  0
 26 30  1  0  0  0  0
 27 24  1  0  0  0  0
 28 25  1  0  0  0  0
 28 21  1  0  0  0  0
 29 28  2  0  0  0  0
 30 22  2  0  0  0  0
 31 17  1  0  0  0  0
 32 31  1  0  0  0  0
M  END
>  <MODEL>
7

>  <REMARK>
 VINA RESULT:      -4.7      4.176      8.042
  Name = 
  2 active torsions:
  status: ('A' for Active; 'I' for Inactive)
    1  A    between atoms: C_13  and  C_29
    2  A    between atoms: C_16  and  C_27
                            x       y       z     vdW  Elec       q    Type
                         _______ _______ _______ _____ _____    ______ ____

>  <TORSDO>
F 2

$$$$
=
 OpenBabel10272413143D

 32 37  0  0  1  0  0  0  0  0999 V2000
  187.8600  177.5170  137.3480 C   0  0  1  0  0  0  0  0  0  0  0  0
  185.7380  176.3540  136.9010 C   0  0  1  0  0  3  0  0  0  0  0  0
  188.6870  178.7630  137.5900 C   0  0  0  0  0  2  0  0  0  0  0  0
  186.4250  177.7160  136.8310 C   0  0  1  0  0  3  0  0  0  0  0  0
  184.2190  176.4810  136.7240 C   0  0  1  0  0  3  0  0  0  0  0  0
  185.5450  170.8140  135.4450 C   0  0  0  0  0  1  0  0  0  0  0  0
  186.4140  175.4400  135.8750 C   0  0  1  0  0  3  0  0  0  0  0  0
  183.5560  172.6770  135.1910 S   0  0  0  0  0  0  0  0  0  0  0  0
  184.2670  174.3190  135.4500 C   0  0  1  0  0  3  0  0  0  0  0  0
  185.6020  178.8630  137.4570 C   0  0  0  0  0  2  0  0  0  0  0  0
  183.5340  175.1170  136.5220 C   0  0  0  0  0  2  0  0  0  0  0  0
  184.5790  178.3600  138.4750 C   0  0  0  0  0  2  0  0  0  0  0  0
  189.2090  177.2760  139.5240 C   0  0  0  0  0  1  0  0  0  0  0  0
  187.8960  175.3180  136.1730 C   0  0  0  0  0  3  0  0  0  0  0  0
  188.5970  176.2850  136.8080 C   0  0  0  0  0  0  0  0  0  0  0  0
  185.7020  174.0940  135.8560 C   0  0  1  0  0  3  0  0  0  0  0  0
  183.6110  177.3110  137.8880 C   0  0  2  0  0  3  0  0  0  0  0  0
  188.1020  178.0050  138.7800 C   0  0  2  0  0  3  0  0  0  0  0  0
  185.1820  172.0440  134.6390 C   0  0  1  0  0  3  0  0  0  0  0  0
  186.2460  173.1200  134.8360 C   0  0  0  0  0  2  0  0  0  0  0  0
  192.1400  176.1600  135.2630 N   0  0  0  0  0  0  0  0  0  0  0  0
  194.1270  175.2540  137.6690 O   0  0  0  0  0  0  0  0  0  0  0  0
  192.8240  176.8870  134.3470 O   0  0  0  0  0  1  0  0  0  0  0  0
  191.8590  174.9690  138.2130 C   0  0  0  0  0  2  0  0  0  0  0  0
  190.1040  176.1710  136.8790 C   0  0  1  0  0  3  0  0  0  0  0  0
  192.7710  174.9510  135.7740 C   0  0  0  0  0  2  0  0  0  0  0  0
  190.5190  174.8390  137.5000 C   0  0  0  0  0  2  0  0  0  0  0  0
  190.7790  176.5220  135.5610 C   0  0  0  0  0  0  0  0  0  0  0  0
  190.1670  177.2680  134.7490 O   0  0  0  0  0  0  0  0  0  0  0  0
  192.9990  175.0640  137.2470 C   0  0  0  0  0  0  0  0  0  0  0  0
  183.0080  176.4730  139.0210 C   0  0  0  0  0  2  0  0  0  0  0  0
  182.9600  177.2370  140.3380 C   0  0  0  0  0  1  0  0  0  0  0  0
  1  3  1  6  0  0  0
  1 18  1  0  0  0  0
  3 18  1  0  0  0  0
  4  2  1  0  0  0  0
  4  1  1  0  0  0  0
  4 10  1  0  0  0  0
  5  2  1  0  0  0  0
  5 17  1  0  0  0  0
  7 14  1  0  0  0  0
  7  2  1  0  0  0  0
  8  9  1  0  0  0  0
  9 16  1  0  0  0  0
  9 11  1  0  0  0  0
 10 12  1  0  0  0  0
 11  5  1  0  0  0  0
 14 15  2  0  0  0  0
 15 25  1  0  0  0  0
 15  1  1  0  0  0  0
 16  7  1  0  0  0  0
 17 12  1  0  0  0  0
 17 31  1  0  0  0  0
 18 13  1  0  0  0  0
 19 20  1  0  0  0  0
 19  8  1  0  0  0  0
 19  6  1  0  0  0  0
 20 16  1  0  0  0  0
 21 28  1  0  0  0  0
 21 26  1  0  0  0  0
 23 21  1  0  0  0  0
 25 27  1  0  0  0  0
 26 30  1  0  0  0  0
 27 24  1  0  0  0  0
 28 25  1  0  0  0  0
 29 28  2  0  0  0  0
 30 22  2  0  0  0  0
 30 24  1  0  0  0  0
 31 32  1  0  0  0  0
M  END
>  <MODEL>
8

>  <REMARK>
 VINA RESULT:      -4.7      4.574      8.418
  Name = 
  2 active torsions:
  status: ('A' for Active; 'I' for Inactive)
    1  A    between atoms: C_13  and  C_29
    2  A    between atoms: C_16  and  C_27
                            x       y       z     vdW  Elec       q    Type
                         _______ _______ _______ _____ _____    ______ ____

>  <TORSDO>
F 2

$$$$
=
 OpenBabel10272413143D

 32 37  0  0  1  0  0  0  0  0999 V2000
  184.9920  177.1480  136.5670 C   0  0  1  0  0  0  0  0  0  0  0  0
  187.4190  176.9040  136.8880 C   0  0  1  0  0  3  0  0  0  0  0  0
  183.7620  177.3530  135.7070 C   0  0  0  0  0  2  0  0  0  0  0  0
  186.3590  177.4060  135.9100 C   0  0  1  0  0  3  0  0  0  0  0  0
  188.7980  176.8050  136.2200 C   0  0  1  0  0  3  0  0  0  0  0  0
  189.8360  177.0340  142.0840 C   0  0  0  0  0  1  0  0  0  0  0  0
  187.3830  177.8140  138.1190 C   0  0  1  0  0  3  0  0  0  0  0  0
  191.0760  177.3000  139.6580 S   0  0  0  0  0  0  0  0  0  0  0  0
  189.8140  177.5540  138.3890 C   0  0  1  0  0  3  0  0  0  0  0  0
  186.5550  176.9000  134.4640 C   0  0  0  0  0  2  0  0  0  0  0  0
  189.9280  176.5620  137.2370 C   0  0  0  0  0  2  0  0  0  0  0  0
  187.3820  175.6160  134.4010 C   0  0  0  0  0  2  0  0  0  0  0  0
  183.2820  175.2780  137.0060 C   0  0  0  0  0  1  0  0  0  0  0  0
  186.0060  177.7920  138.7520 C   0  0  0  0  0  3  0  0  0  0  0  0
  184.8800  177.5350  138.0460 C   0  0  0  0  0  0  0  0  0  0  0  0
  188.4850  177.3960  139.0840 C   0  0  1  0  0  3  0  0  0  0  0  0
  188.7630  175.7570  135.0730 C   0  0  2  0  0  3  0  0  0  0  0  0
  184.2330  175.9340  136.0190 C   0  0  2  0  0  3  0  0  0  0  0  0
  189.9620  178.0050  140.9280 C   0  0  1  0  0  3  0  0  0  0  0  0
  188.5870  178.2610  140.3190 C   0  0  0  0  0  2  0  0  0  0  0  0
  182.1520  179.6630  139.7750 N   0  0  0  0  0  0  0  0  0  0  0  0
  179.9820  177.5450  140.9440 O   0  0  0  0  0  0  0  0  0  0  0  0
  181.5520  180.8530  139.5310 O   0  0  0  0  0  1  0  0  0  0  0  0
  181.9720  176.5090  140.2450 C   0  0  0  0  0  2  0  0  0  0  0  0
  183.5370  177.7350  138.7130 C   0  0  1  0  0  3  0  0  0  0  0  0
  181.8340  178.9890  141.0260 C   0  0  0  0  0  2  0  0  0  0  0  0
  183.4240  176.8830  139.9740 C   0  0  0  0  0  2  0  0  0  0  0  0
  183.1800  179.2060  138.8760 C   0  0  0  0  0  0  0  0  0  0  0  0
  183.7160  180.0470  138.1040 O   0  0  0  0  0  0  0  0  0  0  0  0
  181.1810  177.6720  140.7580 C   0  0  0  0  0  0  0  0  0  0  0  0
  189.2920  174.3710  135.4600 C   0  0  0  0  0  2  0  0  0  0  0  0
  188.2060  173.4860  136.0580 C   0  0  0  0  0  1  0  0  0  0  0  0
  1  3  1  6  0  0  0
  1 15  1  0  0  0  0
  2  7  1  0  0  0  0
  3 18  1  0  0  0  0
  4  1  1  0  0  0  0
  4  2  1  0  0  0  0
  5  2  1  0  0  0  0
  5 11  1  0  0  0  0
  7 14  1  0  0  0  0
  7 16  1  0  0  0  0
  8 19  1  0  0  0  0
  9 16  1  0  0  0  0
  9  8  1  0  0  0  0
 10  4  1  0  0  0  0
 11  9  1  0  0  0  0
 12 10  1  0  0  0  0
 12 17  1  0  0  0  0
 15 25  1  0  0  0  0
 15 14  2  0  0  0  0
 16 20  1  0  0  0  0
 17 31  1  0  0  0  0
 17  5  1  0  0  0  0
 18  1  1  0  0  0  0
 18 13  1  0  0  0  0
 19  6  1  0  0  0  0
 20 19  1  0  0  0  0
 21 26  1  0  0  0  0
 23 21  1  0  0  0  0
 24 30  1  0  0  0  0
 25 28  1  0  0  0  0
 25 27  1  0  0  0  0
 27 24  1  0  0  0  0
 28 21  1  0  0  0  0
 29 28  2  0  0  0  0
 30 22  2  0  0  0  0
 30 26  1  0  0  0  0
 31 32  1  0  0  0  0
M  END
>  <MODEL>
9

>  <REMARK>
 VINA RESULT:      -4.5      1.566      2.515
  Name = 
  2 active torsions:
  status: ('A' for Active; 'I' for Inactive)
    1  A    between atoms: C_13  and  C_29
    2  A    between atoms: C_16  and  C_27
                            x       y       z     vdW  Elec       q    Type
                         _______ _______ _______ _____ _____    ______ ____

>  <TORSDO>
F 2

$$$$
