=
 OpenBabel10272413383D

 32 37  0  0  1  0  0  0  0  0999 V2000
  189.1640  177.3170  142.0930 C   0  0  0  0  0  0  0  0  0  0  0  0
  189.9250  177.3530  137.4350 C   0  0  1  0  0  3  0  0  0  0  0  0
  186.3100  178.2680  137.5940 C   0  0  0  0  0  2  0  0  0  0  0  0
  189.1550  174.9030  137.2090 C   0  0  1  0  0  3  0  0  0  0  0  0
  187.9590  174.2170  136.6120 C   0  0  0  0  0  0  0  0  0  0  0  0
  190.4810  177.0430  139.6540 C   0  0  0  0  0  0  0  0  0  0  0  0
  188.7020  179.2910  138.1870 O   0  0  0  0  0  1  0  0  0  0  0  0
  185.6980  172.9670  135.5270 C   0  0  0  0  0  3  0  0  0  0  0  0
  188.5370  177.7270  140.9050 C   0  0  0  0  0  3  0  0  0  0  0  0
  186.7630  177.1490  136.6810 C   0  0  2  0  0  3  0  0  0  0  0  0
  188.7400  177.8960  138.3160 C   0  0  1  0  0  0  0  0  0  0  0  0
  187.3360  177.2520  138.1010 C   0  0  1  0  0  3  0  0  0  0  0  0
  188.8120  176.6210  135.2390 C   0  0  2  0  0  3  0  0  0  0  0  0
  186.0100  172.7960  136.8770 C   0  0  0  0  0  3  0  0  0  0  0  0
  190.4640  176.7570  142.0400 C   0  0  0  0  0  3  0  0  0  0  0  0
  189.2110  177.5550  139.6910 C   0  0  0  0  0  0  0  0  0  0  0  0
  187.1450  173.4110  137.4180 C   0  0  0  0  0  3  0  0  0  0  0  0
  191.1300  176.6180  140.8100 C   0  0  0  0  0  3  0  0  0  0  0  0
  187.7110  177.6510  135.5880 C   0  0  1  0  0  3  0  0  0  0  0  0
  188.2620  175.4590  134.5330 N   0  0  0  0  0  2  0  0  0  0  0  0
  191.0050  176.9760  138.3450 N   0  0  0  0  0  2  0  0  0  0  0  0
  190.2140  174.0020  137.3310 O   0  0  0  0  0  1  0  0  0  0  0  0
  186.5030  173.7800  134.7240 C   0  0  0  0  0  3  0  0  0  0  0  0
  189.6330  176.1830  136.4730 C   0  0  1  0  0  3  0  0  0  0  0  0
  187.6080  174.4310  135.2720 C   0  0  0  0  0  0  0  0  0  0  0  0
  185.6360  177.6220  134.3460 O   0  0  0  0  0  1  0  0  0  0  0  0
  186.9390  178.1230  134.3500 C   0  0  0  0  0  2  0  0  0  0  0  0
  189.0050  177.2220  144.4880 C   0  0  0  0  0  3  0  0  0  0  0  0
  188.4800  177.5060  143.3400 N   0  0  0  0  0  0  0  0  0  0  0  0
  188.2640  177.4840  145.7300 C   0  0  0  0  0  0  0  0  0  0  0  0
  187.1100  177.9830  145.6730 O   0  0  0  0  0  0  0  0  0  0  0  0
  188.8340  177.1630  146.9960 N   0  0  0  0  0  1  0  0  0  0  0  0
  1 29  1  0  0  0  0
  2 11  1  0  0  0  0
  2 21  1  1  0  0  0
  4 22  1  6  0  0  0
  5  4  1  0  0  0  0
  5 17  1  0  0  0  0
  6 16  2  0  0  0  0
  6 18  1  0  0  0  0
  8 14  1  0  0  0  0
  9  1  2  0  0  0  0
 10  3  1  1  0  0  0
 10 12  1  0  0  0  0
 11  7  1  6  0  0  0
 11 16  1  0  0  0  0
 12  3  1  1  0  0  0
 12 11  1  0  0  0  0
 13 20  1  1  0  0  0
 13 19  1  0  0  0  0
 13 24  1  0  0  0  0
 14 17  2  0  0  0  0
 15  1  1  0  0  0  0
 16  9  1  0  0  0  0
 18 15  2  0  0  0  0
 19 27  1  6  0  0  0
 19 10  1  0  0  0  0
 20 25  1  0  0  0  0
 21  6  1  0  0  0  0
 23 25  1  0  0  0  0
 23  8  2  0  0  0  0
 24  4  1  0  0  0  0
 24  2  1  0  0  0  0
 25  5  2  0  0  0  0
 26 27  1  0  0  0  0
 28 30  1  0  0  0  0
 29 28  2  0  0  0  0
 30 32  1  0  0  0  0
 31 30  2  0  0  0  0
M  END
>  <MODEL>
1

>  <REMARK>
 VINA RESULT:      -7.3      0.000      0.000
  Name = 
  3 active torsions:
  status: ('A' for Active; 'I' for Inactive)
    1  A    between atoms: C_1  and  C_10
    2  A    between atoms: C_2  and  N_24
    3  A    between atoms: C_25  and  C_26
                            x       y       z     vdW  Elec       q    Type
                         _______ _______ _______ _____ _____    ______ ____

>  <TORSDO>
F 3

$$$$
=
 OpenBabel10272413383D

 32 37  0  0  1  0  0  0  0  0999 V2000
  189.3130  177.5170  141.5030 C   0  0  0  0  0  0  0  0  0  0  0  0
  189.0920  177.1780  136.8000 C   0  0  1  0  0  3  0  0  0  0  0  0
  185.5950  178.1890  137.6280 C   0  0  0  0  0  2  0  0  0  0  0  0
  188.2730  174.7370  136.9350 C   0  0  1  0  0  3  0  0  0  0  0  0
  186.9740  174.0350  136.6550 C   0  0  0  0  0  0  0  0  0  0  0  0
  190.0930  177.0260  138.8750 C   0  0  0  0  0  0  0  0  0  0  0  0
  188.0660  179.1960  137.6310 O   0  0  0  0  0  1  0  0  0  0  0  0
  184.5270  172.7610  136.1630 C   0  0  0  0  0  3  0  0  0  0  0  0
  188.4570  177.8500  140.4410 C   0  0  0  0  0  3  0  0  0  0  0  0
  185.8410  176.9920  136.7340 C   0  0  2  0  0  3  0  0  0  0  0  0
  188.1200  177.8150  137.8610 C   0  0  1  0  0  0  0  0  0  0  0  0
  186.6970  177.1900  137.9910 C   0  0  1  0  0  3  0  0  0  0  0  0
  187.5410  176.3060  134.9470 C   0  0  2  0  0  3  0  0  0  0  0  0
  185.1120  172.6860  137.4280 C   0  0  0  0  0  3  0  0  0  0  0  0
  190.5690  176.9240  141.2280 C   0  0  0  0  0  3  0  0  0  0  0  0
  188.8630  177.5690  139.1320 C   0  0  0  0  0  0  0  0  0  0  0  0
  186.3390  173.3130  137.6730 C   0  0  0  0  0  3  0  0  0  0  0  0
  190.9650  176.6750  139.9030 C   0  0  0  0  0  3  0  0  0  0  0  0
  186.5450  177.3860  135.4320 C   0  0  1  0  0  3  0  0  0  0  0  0
  186.8480  175.1070  134.4650 N   0  0  0  0  0  2  0  0  0  0  0  0
  190.3340  176.8460  137.4950 N   0  0  0  0  0  2  0  0  0  0  0  0
  189.3270  173.8230  136.9080 O   0  0  0  0  0  1  0  0  0  0  0  0
  185.1550  173.4900  135.1490 C   0  0  0  0  0  3  0  0  0  0  0  0
  188.5970  175.9440  136.0170 C   0  0  1  0  0  3  0  0  0  0  0  0
  186.3540  174.1550  135.4030 C   0  0  0  0  0  0  0  0  0  0  0  0
  184.2730  177.2520  134.6150 O   0  0  0  0  0  1  0  0  0  0  0  0
  185.5360  177.7800  134.3460 C   0  0  0  0  0  2  0  0  0  0  0  0
  188.9940  176.9730  143.8210 C   0  0  0  0  0  3  0  0  0  0  0  0
  188.9040  177.8180  142.8450 N   0  0  0  0  0  0  0  0  0  0  0  0
  188.5980  177.3630  145.1810 C   0  0  0  0  0  0  0  0  0  0  0  0
  187.5290  178.0020  145.3590 O   0  0  0  0  0  0  0  0  0  0  0  0
  189.4060  177.0110  146.3010 N   0  0  0  0  0  1  0  0  0  0  0  0
  1 29  1  0  0  0  0
  2 21  1  1  0  0  0
  2 11  1  0  0  0  0
  4 22  1  6  0  0  0
  5  4  1  0  0  0  0
  5 17  1  0  0  0  0
  6 16  2  0  0  0  0
  6 18  1  0  0  0  0
  8 14  1  0  0  0  0
  9  1  2  0  0  0  0
 10  3  1  1  0  0  0
 10 12  1  0  0  0  0
 11  7  1  6  0  0  0
 11 12  1  0  0  0  0
 11 16  1  0  0  0  0
 12  3  1  1  0  0  0
 13 20  1  1  0  0  0
 13 19  1  0  0  0  0
 13 24  1  0  0  0  0
 14 17  2  0  0  0  0
 15  1  1  0  0  0  0
 16  9  1  0  0  0  0
 18 15  2  0  0  0  0
 19 27  1  6  0  0  0
 19 10  1  0  0  0  0
 20 25  1  0  0  0  0
 21  6  1  0  0  0  0
 23 25  1  0  0  0  0
 23  8  2  0  0  0  0
 24  2  1  0  0  0  0
 24  4  1  0  0  0  0
 25  5  2  0  0  0  0
 27 26  1  0  0  0  0
 28 30  1  0  0  0  0
 29 28  2  0  0  0  0
 30 31  2  0  0  0  0
 30 32  1  0  0  0  0
M  END
>  <MODEL>
2

>  <REMARK>
 VINA RESULT:      -7.2      0.952      1.009
  Name = 
  3 active torsions:
  status: ('A' for Active; 'I' for Inactive)
    1  A    between atoms: C_1  and  C_10
    2  A    between atoms: C_2  and  N_24
    3  A    between atoms: C_25  and  C_26
                            x       y       z     vdW  Elec       q    Type
                         _______ _______ _______ _____ _____    ______ ____

>  <TORSDO>
F 3

$$$$
=
 OpenBabel10272413383D

 32 37  0  0  1  0  0  0  0  0999 V2000
  188.9300  177.0110  142.3460 C   0  0  0  0  0  0  0  0  0  0  0  0
  190.4440  177.4300  137.8940 C   0  0  1  0  0  3  0  0  0  0  0  0
  186.7450  177.6250  137.4330 C   0  0  0  0  0  2  0  0  0  0  0  0
  190.2230  174.8920  137.4960 C   0  0  1  0  0  3  0  0  0  0  0  0
  189.3040  174.0200  136.6870 C   0  0  0  0  0  0  0  0  0  0  0  0
  190.6680  177.1190  140.1710 C   0  0  0  0  0  0  0  0  0  0  0  0
  188.7530  179.0560  138.4530 O   0  0  0  0  0  1  0  0  0  0  0  0
  187.5510  172.4170  135.2020 C   0  0  0  0  0  3  0  0  0  0  0  0
  188.4440  177.3530  141.0740 C   0  0  0  0  0  3  0  0  0  0  0  0
  187.5580  176.6620  136.5950 C   0  0  2  0  0  3  0  0  0  0  0  0
  189.0430  177.6900  138.5630 C   0  0  1  0  0  0  0  0  0  0  0  0
  187.8510  176.8000  138.0940 C   0  0  1  0  0  3  0  0  0  0  0  0
  189.8830  176.6100  135.5250 C   0  0  2  0  0  3  0  0  0  0  0  0
  187.6590  172.2400  136.5820 C   0  0  0  0  0  3  0  0  0  0  0  0
  190.3050  176.7140  142.5120 C   0  0  0  0  0  3  0  0  0  0  0  0
  189.3340  177.3760  139.9930 C   0  0  0  0  0  0  0  0  0  0  0  0
  188.5420  173.0330  137.3240 C   0  0  0  0  0  3  0  0  0  0  0  0
  191.1830  176.7680  141.4160 C   0  0  0  0  0  3  0  0  0  0  0  0
  188.5580  177.3910  135.6930 C   0  0  1  0  0  3  0  0  0  0  0  0
  189.7020  175.4020  134.7140 N   0  0  0  0  0  2  0  0  0  0  0  0
  191.4080  177.2210  138.9740 N   0  0  0  0  0  2  0  0  0  0  0  0
  191.4020  174.2060  137.7870 O   0  0  0  0  0  1  0  0  0  0  0  0
  188.3030  173.4090  134.5660 C   0  0  0  0  0  3  0  0  0  0  0  0
  190.5550  176.2750  136.8770 C   0  0  1  0  0  3  0  0  0  0  0  0
  189.1480  174.2320  135.3110 C   0  0  0  0  0  0  0  0  0  0  0  0
  186.7210  178.4450  134.5270 O   0  0  0  0  0  1  0  0  0  0  0  0
  187.9280  177.7680  134.3470 C   0  0  0  0  0  2  0  0  0  0  0  0
  187.1960  177.9670  143.7060 C   0  0  0  0  0  3  0  0  0  0  0  0
  188.0220  177.0020  143.4560 N   0  0  0  0  0  0  0  0  0  0  0  0
  186.2610  177.8710  144.8350 C   0  0  0  0  0  0  0  0  0  0  0  0
  186.4580  177.0160  145.7370 O   0  0  0  0  0  0  0  0  0  0  0  0
  185.1410  178.7490  144.9270 N   0  0  0  0  0  1  0  0  0  0  0  0
  1 15  1  0  0  0  0
  1 29  1  0  0  0  0
  2 11  1  0  0  0  0
  2 21  1  1  0  0  0
  4 22  1  6  0  0  0
  5 17  1  0  0  0  0
  5  4  1  0  0  0  0
  6 18  1  0  0  0  0
  8 14  1  0  0  0  0
  9  1  2  0  0  0  0
 10  3  1  1  0  0  0
 10 12  1  0  0  0  0
 11  7  1  6  0  0  0
 11 16  1  0  0  0  0
 12  3  1  1  0  0  0
 12 11  1  0  0  0  0
 13 20  1  1  0  0  0
 13 19  1  0  0  0  0
 13 24  1  0  0  0  0
 14 17  2  0  0  0  0
 16  6  2  0  0  0  0
 16  9  1  0  0  0  0
 18 15  2  0  0  0  0
 19 27  1  6  0  0  0
 19 10  1  0  0  0  0
 20 25  1  0  0  0  0
 21  6  1  0  0  0  0
 23  8  2  0  0  0  0
 23 25  1  0  0  0  0
 24  4  1  0  0  0  0
 24  2  1  0  0  0  0
 25  5  2  0  0  0  0
 27 26  1  0  0  0  0
 28 30  1  0  0  0  0
 29 28  2  0  0  0  0
 30 32  1  0  0  0  0
 30 31  2  0  0  0  0
M  END
>  <MODEL>
3

>  <REMARK>
 VINA RESULT:      -6.7      1.322      1.418
  Name = 
  3 active torsions:
  status: ('A' for Active; 'I' for Inactive)
    1  A    between atoms: C_1  and  C_10
    2  A    between atoms: C_2  and  N_24
    3  A    between atoms: C_25  and  C_26
                            x       y       z     vdW  Elec       q    Type
                         _______ _______ _______ _____ _____    ______ ____

>  <TORSDO>
F 3

$$$$
=
 OpenBabel10272413383D

 32 37  0  0  1  0  0  0  0  0999 V2000
  186.4850  178.2180  142.0850 C   0  0  0  0  0  0  0  0  0  0  0  0
  186.1810  178.3130  137.3750 C   0  0  1  0  0  3  0  0  0  0  0  0
  182.6270  177.6810  138.3280 C   0  0  0  0  0  2  0  0  0  0  0  0
  186.4540  175.7540  137.2260 C   0  0  1  0  0  3  0  0  0  0  0  0
  185.5490  174.6080  136.8700 C   0  0  0  0  0  0  0  0  0  0  0  0
  187.2610  178.3760  139.4150 C   0  0  0  0  0  0  0  0  0  0  0  0
  184.4560  179.6210  138.4400 O   0  0  0  0  0  1  0  0  0  0  0  0
  183.8270  172.4890  136.2410 C   0  0  0  0  0  3  0  0  0  0  0  0
  185.5140  178.2730  141.0720 C   0  0  0  0  0  3  0  0  0  0  0  0
  183.2990  176.7970  137.2990 C   0  0  2  0  0  3  0  0  0  0  0  0
  185.0880  178.3720  138.5070 C   0  0  1  0  0  0  0  0  0  0  0  0
  184.0600  177.2000  138.5680 C   0  0  1  0  0  3  0  0  0  0  0  0
  185.0360  177.0740  135.4380 C   0  0  2  0  0  3  0  0  0  0  0  0
  184.4550  172.5320  137.4870 C   0  0  0  0  0  3  0  0  0  0  0  0
  187.8580  178.2350  141.7380 C   0  0  0  0  0  3  0  0  0  0  0  0
  185.9310  178.3260  139.7370 C   0  0  0  0  0  0  0  0  0  0  0  0
  185.3230  173.5840  137.7990 C   0  0  0  0  0  3  0  0  0  0  0  0
  188.2520  178.3140  140.3920 C   0  0  0  0  0  3  0  0  0  0  0  0
  183.7090  177.5820  136.0490 C   0  0  1  0  0  3  0  0  0  0  0  0
  184.8780  175.7530  134.8210 N   0  0  0  0  0  2  0  0  0  0  0  0
  187.4830  178.4590  138.0230 N   0  0  0  0  0  2  0  0  0  0  0  0
  187.7880  175.3710  137.0890 O   0  0  0  0  0  1  0  0  0  0  0  0
  184.0430  173.5160  135.3170 C   0  0  0  0  0  3  0  0  0  0  0  0
  186.2010  177.0760  136.4550 C   0  0  1  0  0  3  0  0  0  0  0  0
  184.8710  174.5890  135.6430 C   0  0  0  0  0  0  0  0  0  0  0  0
  181.6750  176.5790  135.2090 O   0  0  0  0  0  1  0  0  0  0  0  0
  182.5730  177.6320  135.0210 C   0  0  0  0  0  2  0  0  0  0  0  0
  185.1140  178.9280  143.9260 C   0  0  0  0  0  3  0  0  0  0  0  0
  186.0580  178.1780  143.4540 N   0  0  0  0  0  0  0  0  0  0  0  0
  184.6970  178.8030  145.3290 C   0  0  0  0  0  0  0  0  0  0  0  0
  183.5150  179.0880  145.6550 O   0  0  0  0  0  0  0  0  0  0  0  0
  185.6140  178.3470  146.3210 N   0  0  0  0  0  1  0  0  0  0  0  0
  1 29  1  0  0  0  0
  2 21  1  1  0  0  0
  2 11  1  0  0  0  0
  4 22  1  6  0  0  0
  5  4  1  0  0  0  0
  5 17  1  0  0  0  0
  6 16  2  0  0  0  0
  6 18  1  0  0  0  0
  8 14  1  0  0  0  0
  9  1  2  0  0  0  0
 10  3  1  1  0  0  0
 10 12  1  0  0  0  0
 11  7  1  6  0  0  0
 11 12  1  0  0  0  0
 11 16  1  0  0  0  0
 12  3  1  1  0  0  0
 13 20  1  1  0  0  0
 13 19  1  0  0  0  0
 13 24  1  0  0  0  0
 14 17  2  0  0  0  0
 15  1  1  0  0  0  0
 16  9  1  0  0  0  0
 18 15  2  0  0  0  0
 19 27  1  6  0  0  0
 19 10  1  0  0  0  0
 20 25  1  0  0  0  0
 21  6  1  0  0  0  0
 23 25  1  0  0  0  0
 23  8  2  0  0  0  0
 24  4  1  0  0  0  0
 24  2  1  0  0  0  0
 25  5  2  0  0  0  0
 27 26  1  0  0  0  0
 28 30  1  0  0  0  0
 29 28  2  0  0  0  0
 30 31  2  0  0  0  0
 30 32  1  0  0  0  0
M  END
>  <MODEL>
4

>  <REMARK>
 VINA RESULT:      -6.4      2.787      3.379
  Name = 
  3 active torsions:
  status: ('A' for Active; 'I' for Inactive)
    1  A    between atoms: C_1  and  C_10
    2  A    between atoms: C_2  and  N_24
    3  A    between atoms: C_25  and  C_26
                            x       y       z     vdW  Elec       q    Type
                         _______ _______ _______ _____ _____    ______ ____

>  <TORSDO>
F 3

$$$$
=
 OpenBabel10272413383D

 32 37  0  0  1  0  0  0  0  0999 V2000
  187.0700  178.0960  142.0300 C   0  0  0  0  0  0  0  0  0  0  0  0
  186.0350  178.4380  137.4370 C   0  0  1  0  0  3  0  0  0  0  0  0
  182.6810  177.6820  138.8910 C   0  0  0  0  0  2  0  0  0  0  0  0
  186.3130  175.8970  137.1040 C   0  0  1  0  0  3  0  0  0  0  0  0
  185.3770  174.7530  136.8280 C   0  0  0  0  0  0  0  0  0  0  0  0
  187.4200  178.4130  139.2850 C   0  0  0  0  0  0  0  0  0  0  0  0
  184.4820  179.6510  138.8280 O   0  0  0  0  0  1  0  0  0  0  0  0
  183.6040  172.6360  136.3540 C   0  0  0  0  0  3  0  0  0  0  0  0
  185.9530  178.1850  141.1840 C   0  0  0  0  0  3  0  0  0  0  0  0
  183.1950  176.8690  137.7220 C   0  0  2  0  0  3  0  0  0  0  0  0
  185.1310  178.4130  138.7250 C   0  0  1  0  0  0  0  0  0  0  0  0
  184.1400  177.2190  138.8790 C   0  0  1  0  0  3  0  0  0  0  0  0
  184.6180  177.2820  135.6340 C   0  0  2  0  0  3  0  0  0  0  0  0
  184.4180  172.6250  137.4890 C   0  0  0  0  0  3  0  0  0  0  0  0
  188.3720  178.1600  141.4760 C   0  0  0  0  0  3  0  0  0  0  0  0
  186.1570  178.3190  139.8060 C   0  0  0  0  0  0  0  0  0  0  0  0
  185.3110  173.6770  137.7210 C   0  0  0  0  0  3  0  0  0  0  0  0
  188.5510  178.3200  140.0910 C   0  0  0  0  0  3  0  0  0  0  0  0
  183.3960  177.7290  136.4710 C   0  0  1  0  0  3  0  0  0  0  0  0
  184.3810  175.9930  134.9750 N   0  0  0  0  0  2  0  0  0  0  0  0
  187.4210  178.5750  137.8820 N   0  0  0  0  0  2  0  0  0  0  0  0
  187.6140  175.5490  136.7400 O   0  0  0  0  0  1  0  0  0  0  0  0
  183.6610  173.7150  135.4670 C   0  0  0  0  0  3  0  0  0  0  0  0
  185.9270  177.2520  136.4560 C   0  0  1  0  0  3  0  0  0  0  0  0
  184.5170  174.7860  135.7220 C   0  0  0  0  0  0  0  0  0  0  0  0
  181.4070  178.9820  135.9060 O   0  0  0  0  0  1  0  0  0  0  0  0
  182.1130  177.8100  135.6350 C   0  0  0  0  0  2  0  0  0  0  0  0
  187.8000  177.6430  144.2730 C   0  0  0  0  0  3  0  0  0  0  0  0
  186.8620  177.9740  143.4440 N   0  0  0  0  0  0  0  0  0  0  0  0
  187.5270  177.5800  145.7160 C   0  0  0  0  0  0  0  0  0  0  0  0
  186.3380  177.5230  146.1240 O   0  0  0  0  0  0  0  0  0  0  0  0
  188.5980  177.5670  146.6570 N   0  0  0  0  0  1  0  0  0  0  0  0
  1 29  1  0  0  0  0
  2 21  1  1  0  0  0
  2 11  1  0  0  0  0
  4 22  1  6  0  0  0
  5  4  1  0  0  0  0
  5 17  1  0  0  0  0
  6 16  2  0  0  0  0
  6 18  1  0  0  0  0
  8 14  1  0  0  0  0
  9  1  2  0  0  0  0
 10 12  1  0  0  0  0
 10  3  1  1  0  0  0
 11  7  1  1  0  0  0
 11 12  1  0  0  0  0
 11 16  1  0  0  0  0
 12  3  1  1  0  0  0
 13 20  1  1  0  0  0
 13 24  1  0  0  0  0
 13 19  1  0  0  0  0
 14 17  2  0  0  0  0
 15  1  1  0  0  0  0
 16  9  1  0  0  0  0
 18 15  2  0  0  0  0
 19 27  1  6  0  0  0
 19 10  1  0  0  0  0
 20 25  1  0  0  0  0
 21  6  1  0  0  0  0
 23 25  1  0  0  0  0
 23  8  2  0  0  0  0
 24  4  1  0  0  0  0
 24  2  1  0  0  0  0
 25  5  2  0  0  0  0
 27 26  1  0  0  0  0
 28 30  1  0  0  0  0
 29 28  2  0  0  0  0
 30 31  2  0  0  0  0
 30 32  1  0  0  0  0
M  END
>  <MODEL>
5

>  <REMARK>
 VINA RESULT:      -6.1      2.552      3.216
  Name = 
  3 active torsions:
  status: ('A' for Active; 'I' for Inactive)
    1  A    between atoms: C_1  and  C_10
    2  A    between atoms: C_2  and  N_24
    3  A    between atoms: C_25  and  C_26
                            x       y       z     vdW  Elec       q    Type
                         _______ _______ _______ _____ _____    ______ ____

>  <TORSDO>
F 3

$$$$
=
 OpenBabel10272413383D

 32 37  0  0  1  0  0  0  0  0999 V2000
  190.0190  177.1080  139.3420 C   0  0  0  0  0  0  0  0  0  0  0  0
  187.3330  177.2530  135.4630 C   0  0  1  0  0  3  0  0  0  0  0  0
  184.7780  177.7320  138.1420 C   0  0  0  0  0  2  0  0  0  0  0  0
  186.8280  174.7300  135.6210 C   0  0  1  0  0  3  0  0  0  0  0  0
  185.6150  173.9080  135.9550 C   0  0  0  0  0  0  0  0  0  0  0  0
  189.2950  177.0020  136.6540 C   0  0  0  0  0  0  0  0  0  0  0  0
  186.8180  179.0290  137.0110 O   0  0  0  0  0  1  0  0  0  0  0  0
  183.3470  172.4040  136.6210 C   0  0  0  0  0  3  0  0  0  0  0  0
  188.7130  177.4460  138.9520 C   0  0  0  0  0  3  0  0  0  0  0  0
  184.5630  176.6780  137.0770 C   0  0  2  0  0  3  0  0  0  0  0  0
  187.0500  177.6480  136.9600 C   0  0  1  0  0  0  0  0  0  0  0  0
  185.9480  176.8430  137.7150 C   0  0  1  0  0  3  0  0  0  0  0  0
  185.0740  176.4030  134.5830 C   0  0  2  0  0  3  0  0  0  0  0  0
  184.5200  172.2650  137.3650 C   0  0  0  0  0  3  0  0  0  0  0  0
  190.9590  176.7070  138.3620 C   0  0  0  0  0  3  0  0  0  0  0  0
  188.3680  177.3600  137.5980 C   0  0  0  0  0  0  0  0  0  0  0  0
  185.6570  173.0080  137.0270 C   0  0  0  0  0  3  0  0  0  0  0  0
  190.5960  176.6530  137.0060 C   0  0  0  0  0  3  0  0  0  0  0  0
  184.4430  177.2930  135.6790 C   0  0  1  0  0  3  0  0  0  0  0  0
  184.2880  175.1860  134.3530 N   0  0  0  0  0  2  0  0  0  0  0  0
  188.7680  177.0030  135.3450 N   0  0  0  0  0  2  0  0  0  0  0  0
  187.7450  173.9610  134.9050 O   0  0  0  0  0  1  0  0  0  0  0  0
  183.3000  173.3100  135.5580 C   0  0  0  0  0  3  0  0  0  0  0  0
  186.5540  176.0600  134.8710 C   0  0  1  0  0  3  0  0  0  0  0  0
  184.4170  174.0850  135.2490 C   0  0  0  0  0  0  0  0  0  0  0  0
  182.0950  176.9730  136.1640 O   0  0  0  0  0  1  0  0  0  0  0  0
  182.9930  177.6750  135.3580 C   0  0  0  0  0  2  0  0  0  0  0  0
  189.5700  177.6500  141.6390 C   0  0  0  0  0  3  0  0  0  0  0  0
  190.3770  177.2100  140.7280 N   0  0  0  0  0  0  0  0  0  0  0  0
  189.9870  177.6850  143.0470 C   0  0  0  0  0  0  0  0  0  0  0  0
  189.1280  177.8700  143.9470 O   0  0  0  0  0  0  0  0  0  0  0  0
  191.3550  177.4960  143.4040 N   0  0  0  0  0  1  0  0  0  0  0  0
  1 29  1  0  0  0  0
  2 21  1  1  0  0  0
  2 11  1  0  0  0  0
  4 22  1  6  0  0  0
  4  5  1  0  0  0  0
  5 17  1  0  0  0  0
  6 18  2  0  0  0  0
  6 16  1  0  0  0  0
  8 14  1  0  0  0  0
  9  1  1  0  0  0  0
 10 12  1  0  0  0  0
 10  3  1  1  0  0  0
 11  7  1  1  0  0  0
 11 16  1  0  0  0  0
 11 12  1  0  0  0  0
 12  3  1  1  0  0  0
 13 20  1  1  0  0  0
 13 24  1  0  0  0  0
 13 19  1  0  0  0  0
 15  1  2  0  0  0  0
 16  9  2  0  0  0  0
 17 14  2  0  0  0  0
 18 15  1  0  0  0  0
 19 27  1  6  0  0  0
 19 10  1  0  0  0  0
 20 25  1  0  0  0  0
 21  6  1  0  0  0  0
 23  8  2  0  0  0  0
 24  2  1  0  0  0  0
 24  4  1  0  0  0  0
 25 23  1  0  0  0  0
 25  5  2  0  0  0  0
 27 26  1  0  0  0  0
 28 30  1  0  0  0  0
 29 28  2  0  0  0  0
 30 32  1  0  0  0  0
 30 31  2  0  0  0  0
M  END
>  <MODEL>
6

>  <REMARK>
 VINA RESULT:      -6.0      2.139      3.077
  Name = 
  3 active torsions:
  status: ('A' for Active; 'I' for Inactive)
    1  A    between atoms: C_1  and  C_10
    2  A    between atoms: C_2  and  N_24
    3  A    between atoms: C_25  and  C_26
                            x       y       z     vdW  Elec       q    Type
                         _______ _______ _______ _____ _____    ______ ____

>  <TORSDO>
F 3

$$$$
=
 OpenBabel10272413383D

 32 37  0  0  1  0  0  0  0  0999 V2000
  192.4580  175.8250  136.9910 C   0  0  0  0  0  0  0  0  0  0  0  0
  188.3130  177.6850  135.7070 C   0  0  1  0  0  3  0  0  0  0  0  0
  187.9200  177.5060  139.4150 C   0  0  0  0  0  2  0  0  0  0  0  0
  187.2070  175.3580  135.6140 C   0  0  1  0  0  3  0  0  0  0  0  0
  186.1820  174.6360  136.4420 C   0  0  0  0  0  0  0  0  0  0  0  0
  190.4080  176.7760  135.3620 C   0  0  0  0  0  0  0  0  0  0  0  0
  189.3100  178.8450  137.5720 O   0  0  0  0  0  1  0  0  0  0  0  0
  184.2980  173.2990  138.0270 C   0  0  0  0  0  3  0  0  0  0  0  0
  191.3350  176.4450  137.5630 C   0  0  0  0  0  3  0  0  0  0  0  0
  186.8440  176.9370  138.5160 C   0  0  2  0  0  3  0  0  0  0  0  0
  189.0260  177.5550  137.1040 C   0  0  1  0  0  0  0  0  0  0  0  0
  188.3210  176.6830  138.1880 C   0  0  1  0  0  3  0  0  0  0  0  0
  185.8080  177.5020  136.2440 C   0  0  2  0  0  3  0  0  0  0  0  0
  185.5700  172.7550  137.8470 C   0  0  0  0  0  3  0  0  0  0  0  0
  192.5350  175.6800  135.5840 C   0  0  0  0  0  3  0  0  0  0  0  0
  190.3080  176.8910  136.7240 C   0  0  0  0  0  0  0  0  0  0  0  0
  186.5090  173.4160  137.0470 C   0  0  0  0  0  3  0  0  0  0  0  0
  191.5010  176.1590  134.7610 C   0  0  0  0  0  3  0  0  0  0  0  0
  186.1890  178.0180  137.6510 C   0  0  1  0  0  3  0  0  0  0  0  0
  184.6860  176.5590  136.2980 N   0  0  0  0  0  2  0  0  0  0  0  0
  189.2900  177.3100  134.6860 N   0  0  0  0  0  2  0  0  0  0  0  0
  187.2920  174.7820  134.3460 O   0  0  0  0  0  1  0  0  0  0  0  0
  183.9730  174.5220  137.4330 C   0  0  0  0  0  3  0  0  0  0  0  0
  187.0090  176.8910  135.4860 C   0  0  1  0  0  3  0  0  0  0  0  0
  184.9220  175.2050  136.6740 C   0  0  0  0  0  0  0  0  0  0  0  0
  185.4420  179.5110  139.4010 O   0  0  0  0  0  1  0  0  0  0  0  0
  185.0060  178.6730  138.3740 C   0  0  0  0  0  2  0  0  0  0  0  0
  194.2410  174.3360  137.6010 C   0  0  0  0  0  3  0  0  0  0  0  0
  193.5180  175.3800  137.8490 N   0  0  0  0  0  0  0  0  0  0  0  0
  195.3410  173.9630  138.5010 C   0  0  0  0  0  0  0  0  0  0  0  0
  195.2700  172.8950  139.1640 O   0  0  0  0  0  0  0  0  0  0  0  0
  196.4950  174.7920  138.6200 N   0  0  0  0  0  1  0  0  0  0  0  0
  1  9  1  0  0  0  0
  1 29  1  0  0  0  0
  2 21  1  6  0  0  0
  2 11  1  0  0  0  0
  4 22  1  6  0  0  0
  4  5  1  0  0  0  0
  5 25  2  0  0  0  0
  5 17  1  0  0  0  0
  6 16  1  0  0  0  0
 10  3  1  1  0  0  0
 11  7  1  1  0  0  0
 11 12  1  0  0  0  0
 12 10  1  0  0  0  0
 12  3  1  1  0  0  0
 13 20  1  1  0  0  0
 13 19  1  0  0  0  0
 14  8  1  0  0  0  0
 15  1  2  0  0  0  0
 16 11  1  0  0  0  0
 16  9  2  0  0  0  0
 17 14  2  0  0  0  0
 18  6  2  0  0  0  0
 18 15  1  0  0  0  0
 19 27  1  1  0  0  0
 19 10  1  0  0  0  0
 20 25  1  0  0  0  0
 21  6  1  0  0  0  0
 23  8  2  0  0  0  0
 24  4  1  0  0  0  0
 24  2  1  0  0  0  0
 24 13  1  0  0  0  0
 25 23  1  0  0  0  0
 27 26  1  0  0  0  0
 28 29  2  0  0  0  0
 28 30  1  0  0  0  0
 30 32  1  0  0  0  0
 30 31  2  0  0  0  0
M  END
>  <MODEL>
7

>  <REMARK>
 VINA RESULT:      -5.6      3.509      5.275
  Name = 
  3 active torsions:
  status: ('A' for Active; 'I' for Inactive)
    1  A    between atoms: C_1  and  C_10
    2  A    between atoms: C_2  and  N_24
    3  A    between atoms: C_25  and  C_26
                            x       y       z     vdW  Elec       q    Type
                         _______ _______ _______ _____ _____    ______ ____

>  <TORSDO>
F 3

$$$$
=
 OpenBabel10272413383D

 32 37  0  0  1  0  0  0  0  0999 V2000
  182.9510  175.4850  136.4700 C   0  0  0  0  0  0  0  0  0  0  0  0
  187.3170  176.3650  134.9060 C   0  0  1  0  0  3  0  0  0  0  0  0
  187.8910  173.3440  137.0230 C   0  0  0  0  0  2  0  0  0  0  0  0
  187.8690  177.7680  136.9980 C   0  0  1  0  0  3  0  0  0  0  0  0
  188.7580  177.5840  138.1960 C   0  0  0  0  0  0  0  0  0  0  0  0
  185.0560  176.7560  135.1610 C   0  0  0  0  0  0  0  0  0  0  0  0
  186.7220  174.0350  134.7250 O   0  0  0  0  0  1  0  0  0  0  0  0
  190.3920  177.1950  140.4380 C   0  0  0  0  0  3  0  0  0  0  0  0
  184.2170  174.8790  136.4210 C   0  0  0  0  0  3  0  0  0  0  0  0
  188.7550  174.5720  137.2140 C   0  0  2  0  0  3  0  0  0  0  0  0
  186.6820  175.1140  135.6180 C   0  0  1  0  0  0  0  0  0  0  0  0
  187.2410  174.7300  137.0230 C   0  0  1  0  0  3  0  0  0  0  0  0
  189.7470  176.4130  135.7370 C   0  0  2  0  0  3  0  0  0  0  0  0
  189.0210  177.4030  140.6010 C   0  0  0  0  0  3  0  0  0  0  0  0
  182.7560  176.7470  135.8580 C   0  0  0  0  0  3  0  0  0  0  0  0
  185.2630  175.5510  135.7780 C   0  0  0  0  0  0  0  0  0  0  0  0
  188.2050  177.6080  139.4820 C   0  0  0  0  0  3  0  0  0  0  0  0
  183.8170  177.3900  135.1970 C   0  0  0  0  0  3  0  0  0  0  0  0
  189.5790  174.8920  135.9630 C   0  0  1  0  0  3  0  0  0  0  0  0
  190.6330  177.0160  136.7390 N   0  0  0  0  0  2  0  0  0  0  0  0
  186.2200  177.2600  134.5420 N   0  0  0  0  0  2  0  0  0  0  0  0
  187.5790  179.1210  136.8190 O   0  0  0  0  0  1  0  0  0  0  0  0
  190.9430  177.1600  139.1540 C   0  0  0  0  0  3  0  0  0  0  0  0
  188.3960  177.1600  135.6710 C   0  0  1  0  0  3  0  0  0  0  0  0
  190.1240  177.3170  138.0360 C   0  0  0  0  0  0  0  0  0  0  0  0
  191.3050  173.8150  137.2700 O   0  0  0  0  0  1  0  0  0  0  0  0
  190.9210  174.1510  135.9710 C   0  0  0  0  0  2  0  0  0  0  0  0
  181.6140  173.5390  136.9130 C   0  0  0  0  0  3  0  0  0  0  0  0
  181.8740  174.7910  137.1150 N   0  0  0  0  0  0  0  0  0  0  0  0
  180.5230  172.8790  137.6430 C   0  0  0  0  0  0  0  0  0  0  0  0
  179.9830  173.4640  138.6190 O   0  0  0  0  0  0  0  0  0  0  0  0
  180.0600  171.5910  137.2470 N   0  0  0  0  0  1  0  0  0  0  0  0
  1 29  1  0  0  0  0
  2 21  1  1  0  0  0
  2 11  1  0  0  0  0
  2 24  1  0  0  0  0
  4 22  1  6  0  0  0
  4  5  1  0  0  0  0
  5 17  1  0  0  0  0
  6 18  2  0  0  0  0
  6 16  1  0  0  0  0
  8 14  1  0  0  0  0
  9  1  1  0  0  0  0
 10  3  1  6  0  0  0
 11  7  1  6  0  0  0
 11 16  1  0  0  0  0
 11 12  1  0  0  0  0
 12  3  1  6  0  0  0
 12 10  1  0  0  0  0
 13 19  1  0  0  0  0
 13 20  1  1  0  0  0
 15  1  2  0  0  0  0
 16  9  2  0  0  0  0
 17 14  2  0  0  0  0
 18 15  1  0  0  0  0
 19 27  1  1  0  0  0
 19 10  1  0  0  0  0
 20 25  1  0  0  0  0
 21  6  1  0  0  0  0
 23  8  2  0  0  0  0
 24 13  1  0  0  0  0
 24  4  1  0  0  0  0
 25  5  2  0  0  0  0
 25 23  1  0  0  0  0
 27 26  1  0  0  0  0
 28 29  2  0  0  0  0
 28 30  1  0  0  0  0
 30 31  2  0  0  0  0
 32 30  1  0  0  0  0
M  END
>  <MODEL>
8

>  <REMARK>
 VINA RESULT:      -5.4      3.365      7.102
  Name = 
  3 active torsions:
  status: ('A' for Active; 'I' for Inactive)
    1  A    between atoms: C_1  and  C_10
    2  A    between atoms: C_2  and  N_24
    3  A    between atoms: C_25  and  C_26
                            x       y       z     vdW  Elec       q    Type
                         _______ _______ _______ _____ _____    ______ ____

>  <TORSDO>
F 3

$$$$
=
 OpenBabel10272413383D

 32 37  0  0  1  0  0  0  0  0999 V2000
  185.0890  175.6440  136.8290 C   0  0  0  0  0  0  0  0  0  0  0  0
  189.1540  177.9710  137.4170 C   0  0  1  0  0  3  0  0  0  0  0  0
  190.3020  174.4250  137.6240 C   0  0  0  0  0  2  0  0  0  0  0  0
  188.9160  177.9010  139.9830 C   0  0  1  0  0  3  0  0  0  0  0  0
  189.6220  177.1790  141.0960 C   0  0  0  0  0  0  0  0  0  0  0  0
  186.8720  177.7620  137.1330 C   0  0  0  0  0  0  0  0  0  0  0  0
  189.3460  176.1600  135.8360 O   0  0  0  0  0  1  0  0  0  0  0  0
  190.9300  175.7880  143.1460 C   0  0  0  0  0  3  0  0  0  0  0  0
  186.4720  175.4010  136.8520 C   0  0  0  0  0  3  0  0  0  0  0  0
  190.7040  175.4100  138.7010 C   0  0  2  0  0  3  0  0  0  0  0  0
  188.8360  176.4620  137.1060 C   0  0  1  0  0  0  0  0  0  0  0  0
  189.2640  175.4070  138.1720 C   0  0  1  0  0  3  0  0  0  0  0  0
  191.2920  177.8980  138.8400 C   0  0  2  0  0  3  0  0  0  0  0  0
  189.5550  175.6350  142.9660 C   0  0  0  0  0  3  0  0  0  0  0  0
  184.6100  176.9690  136.9700 C   0  0  0  0  0  3  0  0  0  0  0  0
  187.3450  176.4810  137.0320 C   0  0  0  0  0  0  0  0  0  0  0  0
  188.8980  176.3370  141.9490 C   0  0  0  0  0  3  0  0  0  0  0  0
  185.5080  178.0390  137.1240 C   0  0  0  0  0  3  0  0  0  0  0  0
  191.5700  176.5440  138.1450 C   0  0  1  0  0  3  0  0  0  0  0  0
  191.7810  177.9090  140.2220 N   0  0  0  0  0  2  0  0  0  0  0  0
  187.9040  178.7150  137.2770 N   0  0  0  0  0  2  0  0  0  0  0  0
  188.2520  179.0220  140.4840 O   0  0  0  0  0  1  0  0  0  0  0  0
  191.6560  176.6210  142.2890 C   0  0  0  0  0  3  0  0  0  0  0  0
  189.8020  178.3070  138.7760 C   0  0  1  0  0  3  0  0  0  0  0  0
  191.0110  177.2850  141.2460 C   0  0  0  0  0  0  0  0  0  0  0  0
  193.7850  176.9580  137.2660 O   0  0  0  0  0  1  0  0  0  0  0  0
  193.0580  176.1740  138.1630 C   0  0  0  0  0  2  0  0  0  0  0  0
  184.3380  173.3960  137.2190 C   0  0  0  0  0  3  0  0  0  0  0  0
  184.1940  174.5400  136.6310 N   0  0  0  0  0  0  0  0  0  0  0  0
  183.3570  172.3230  137.0050 C   0  0  0  0  0  0  0  0  0  0  0  0
  182.1320  172.5570  137.1660 O   0  0  0  0  0  0  0  0  0  0  0  0
  183.7810  171.0230  136.6020 N   0  0  0  0  0  1  0  0  0  0  0  0
  1  9  2  0  0  0  0
  1 15  1  0  0  0  0
  2 21  1  1  0  0  0
  2 24  1  0  0  0  0
  4 22  1  1  0  0  0
  4  5  1  0  0  0  0
  5 25  2  0  0  0  0
  5 17  1  0  0  0  0
  6 21  1  0  0  0  0
  9 16  1  0  0  0  0
 10  3  1  6  0  0  0
 11  7  1  6  0  0  0
 11  2  1  0  0  0  0
 11 12  1  0  0  0  0
 12  3  1  6  0  0  0
 12 10  1  0  0  0  0
 13 20  1  1  0  0  0
 14  8  1  0  0  0  0
 15 18  2  0  0  0  0
 16 11  1  0  0  0  0
 16  6  2  0  0  0  0
 17 14  2  0  0  0  0
 18  6  1  0  0  0  0
 19 27  1  1  0  0  0
 19 10  1  0  0  0  0
 19 13  1  0  0  0  0
 20 25  1  0  0  0  0
 23  8  2  0  0  0  0
 24 13  1  0  0  0  0
 24  4  1  0  0  0  0
 25 23  1  0  0  0  0
 26 27  1  0  0  0  0
 29  1  1  0  0  0  0
 29 28  2  0  0  0  0
 30 31  2  0  0  0  0
 30 28  1  0  0  0  0
 32 30  1  0  0  0  0
M  END
>  <MODEL>
9

>  <REMARK>
 VINA RESULT:      -5.1      2.704      6.950
  Name = 
  3 active torsions:
  status: ('A' for Active; 'I' for Inactive)
    1  A    between atoms: C_1  and  C_10
    2  A    between atoms: C_2  and  N_24
    3  A    between atoms: C_25  and  C_26
                            x       y       z     vdW  Elec       q    Type
                         _______ _______ _______ _____ _____    ______ ____

>  <TORSDO>
F 3

$$$$
