=
 OpenBabel10272401423D

 55 59  0  0  1  0  0  0  0  0999 V2000
  190.1700  177.8770  143.8820 C   0  0  0  0  0  2  0  0  0  0  0  0
  189.7870  177.1380  141.1610 C   0  0  0  0  0  0  0  0  0  0  0  0
  188.9230  178.2790  141.6290 C   0  0  2  0  0  3  0  0  0  0  0  0
  189.8810  176.4170  143.5680 C   0  0  0  0  0  2  0  0  0  0  0  0
  189.2880  178.8100  143.0310 C   0  0  0  0  0  2  0  0  0  0  0  0
  190.0270  177.0190  139.8950 N   0  0  0  0  0  0  0  0  0  0  0  0
  190.3220  176.1190  142.1380 C   0  0  0  0  0  2  0  0  0  0  0  0
  190.7900  175.9860  139.4030 O   0  0  0  0  0  0  0  0  0  0  0  0
  191.9670  176.2550  138.6630 C   0  0  0  0  0  2  0  0  0  0  0  0
  191.6250  176.3560  137.2200 C   0  0  0  0  0  0  0  0  0  0  0  0
  190.5030  176.8220  136.8810 O   0  0  0  0  0  0  0  0  0  0  0  0
  192.5430  175.9170  136.2640 O   0  0  0  0  0  0  0  0  0  0  0  0
  191.7010  173.3060  136.7830 O   0  0  0  0  0  1  0  0  0  0  0  0
  192.6290  174.2770  135.7520 P   0  0  1  0  0  0  0  0  0  0  0  0
  192.0780  174.1670  134.3480 O   0  0  0  0  0  0  0  0  0  0  0  0
  197.2570  172.8380  136.9750 C   0  0  0  0  0  2  0  0  0  0  0  0
  194.3700  173.7240  135.7820 C   0  0  1  0  0  0  0  0  0  0  0  0
  195.9140  170.7220  136.3850 C   0  0  0  0  0  2  0  0  0  0  0  0
  194.4890  173.5990  138.2070 O   0  0  0  0  0  1  0  0  0  0  0  0
  194.5970  172.8470  137.0320 C   0  0  2  0  0  3  0  0  0  0  0  0
  196.6040  174.9010  135.7250 C   0  0  0  0  0  3  0  0  0  0  0  0
  195.9500  170.8690  137.9020 C   0  0  0  0  0  2  0  0  0  0  0  0
  197.3970  173.6240  135.6770 C   0  0  1  0  0  3  0  0  0  0  0  0
  195.9290  172.0950  137.0180 C   0  0  0  0  0  0  0  0  0  0  0  0
  194.6040  172.9710  134.6290 O   0  0  0  0  0  1  0  0  0  0  0  0
  195.2630  174.9420  135.7730 C   0  0  0  0  0  3  0  0  0  0  0  0
  198.8370  173.9100  135.4030 C   0  0  0  0  0  0  0  0  0  0  0  0
  199.4570  175.0820  135.9290 N   0  0  0  0  0  1  0  0  0  0  0  0
  199.5180  173.0960  134.7220 O   0  0  0  0  0  0  0  0  0  0  0  0
  187.4620  177.8600  141.5850 C   0  0  0  0  0  2  0  0  0  0  0  0
  186.6040  179.0430  141.5260 N   0  0  0  0  0  2  0  0  0  0  0  0
  185.3640  178.8180  142.2800 C   0  0  1  0  0  3  0  0  0  0  0  0
  184.1780  178.4580  141.3680 C   0  0  1  0  0  3  0  0  0  0  0  0
  182.8620  179.0460  143.4050 C   0  0  0  0  0  3  0  0  0  0  0  0
  180.4460  178.9310  143.4780 C   0  0  0  0  0  3  0  0  0  0  0  0
  181.6250  178.3320  141.4470 C   0  0  0  0  0  0  0  0  0  0  0  0
  180.4280  178.4950  142.1510 C   0  0  0  0  0  3  0  0  0  0  0  0
  181.6620  179.2030  144.1050 C   0  0  0  0  0  3  0  0  0  0  0  0
  182.8560  178.6120  142.0760 C   0  0  0  0  0  0  0  0  0  0  0  0
  181.5820  177.8910  140.1290 O   0  0  0  0  0  1  0  0  0  0  0  0
  184.2080  179.2770  140.0770 C   0  0  0  0  0  2  0  0  0  0  0  0
  184.9480  178.5380  138.9710 C   0  0  0  0  0  2  0  0  0  0  0  0
  184.0180  177.9980  138.0410 O   0  0  0  0  0  0  0  0  0  0  0  0
  184.0010  176.6380  137.7210 C   0  0  0  0  0  0  0  0  0  0  0  0
  184.7280  176.1640  136.5130 C   0  0  0  0  0  1  0  0  0  0  0  0
  183.3780  175.8100  138.4390 O   0  0  0  0  0  0  0  0  0  0  0  0
  185.5650  177.7910  143.3990 C   0  0  0  0  0  2  0  0  0  0  0  0
  185.9920  178.4680  144.6920 C   0  0  0  0  0  2  0  0  0  0  0  0
  186.7420  177.4840  145.5810 C   0  0  0  0  0  2  0  0  0  0  0  0
  187.2140  178.1750  146.8550 C   0  0  0  0  0  2  0  0  0  0  0  0
  190.0520  177.1760  147.6100 C   0  0  0  0  0  0  0  0  0  0  0  0
  191.3400  177.1270  147.5450 N   0  0  0  0  0  2  0  0  0  0  0  0
  189.0630  177.9370  148.4200 C   0  0  0  0  0  2  0  0  0  0  0  0
  188.0330  177.2270  147.7240 C   0  0  2  0  0  3  0  0  0  0  0  0
  188.9640  176.5160  146.9230 O   0  0  0  0  0  0  0  0  0  0  0  0
  2  3  1  0  0  0  0
  2  7  1  0  0  0  0
  3 30  1  1  0  0  0
  3  5  1  0  0  0  0
  4  1  1  0  0  0  0
  5  1  1  0  0  0  0
  6  2  2  0  0  0  0
  7  4  1  0  0  0  0
  8  6  1  0  0  0  0
  9  8  1  0  0  0  0
 10  9  1  0  0  0  0
 11 10  2  0  0  0  0
 12 10  1  0  0  0  0
 14 15  2  6  0  0  0
 14 17  1  0  0  0  0
 14 12  1  0  0  0  0
 14 13  1  0  0  0  0
 16 24  1  0  0  0  0
 17 25  1  6  0  0  0
 17 20  1  0  0  0  0
 18 24  1  0  0  0  0
 18 22  1  0  0  0  0
 20 19  1  1  0  0  0
 21 26  2  0  0  0  0
 23 27  1  1  0  0  0
 23 21  1  0  0  0  0
 23 16  1  0  0  0  0
 24 20  1  0  0  0  0
 24 22  1  0  0  0  0
 26 17  1  0  0  0  0
 27 28  1  0  0  0  0
 29 27  2  0  0  0  0
 31 30  1  0  0  0  0
 31 32  1  0  0  0  0
 32 47  1  1  0  0  0
 33 41  1  6  0  0  0
 33 39  1  0  0  0  0
 33 32  1  0  0  0  0
 34 38  1  0  0  0  0
 35 38  2  0  0  0  0
 36 39  1  0  0  0  0
 36 37  2  0  0  0  0
 37 35  1  0  0  0  0
 39 34  2  0  0  0  0
 40 36  1  0  0  0  0
 42 41  1  0  0  0  0
 43 42  1  0  0  0  0
 44 43  1  0  0  0  0
 44 46  2  0  0  0  0
 45 44  1  0  0  0  0
 47 48  1  0  0  0  0
 48 49  1  0  0  0  0
 49 50  1  0  0  0  0
 51 53  1  0  0  0  0
 52 51  2  0  0  0  0
 54 50  1  6  0  0  0
 54 53  1  0  0  0  0
 55 51  1  0  0  0  0
 55 54  1  0  0  0  0
M  END
>  <MODEL>
1

>  <REMARK>
 VINA RESULT:      -7.1      0.000      0.000
  Name = 
  21 active torsions:
  status: ('A' for Active; 'I' for Inactive)
    1  A    between atoms: C_1  and  C_29
    2  A    between atoms: C_2  and  N_28
    3  A    between atoms: C_2  and  C_31
    4  A    between atoms: C_4  and  O_40
    5  A    between atoms: C_6  and  P_20
    6  A    between atoms: C_8  and  O_22
    7  A    between atoms: C_8  and  C_35
    8  A    between atoms: C_13  and  C_48
    9  A    between atoms: C_13  and  C_52
   10  A    between atoms: C_19  and  O_40
   11  A    between atoms: C_19  and  C_45
   12  A    between atoms: P_20  and  O_22
   13  A    between atoms: C_26  and  C_49
   14  A    between atoms: N_28  and  C_33
   15  A    between atoms: C_33  and  C_34
   16  A    between atoms: C_33  and  C_49
   17  A    between atoms: C_34  and  C_52
   18  A    between atoms: C_35  and  O_51
   19  A    between atoms: C_39  and  C_48
   20  A    between atoms: C_45  and  C_49
   21  A    between atoms: O_51  and  N_54
                            x       y       z     vdW  Elec       q    Type
                         _______ _______ _______ _____ _____    ______ ____

>  <TORSDO>
F 21

$$$$
=
 OpenBabel10272401423D

 55 59  0  0  1  0  0  0  0  0999 V2000
  189.8610  176.8350  139.9800 C   0  0  0  0  0  2  0  0  0  0  0  0
  187.3610  178.1900  139.8630 C   0  0  0  0  0  0  0  0  0  0  0  0
  187.8010  177.5710  138.5630 C   0  0  2  0  0  3  0  0  0  0  0  0
  189.7970  178.2710  140.4790 C   0  0  0  0  0  2  0  0  0  0  0  0
  189.0420  176.6630  138.6870 C   0  0  0  0  0  2  0  0  0  0  0  0
  186.1000  178.4210  140.0460 N   0  0  0  0  0  0  0  0  0  0  0  0
  188.3690  178.5840  140.9150 C   0  0  0  0  0  2  0  0  0  0  0  0
  185.6380  179.0040  141.2020 O   0  0  0  0  0  0  0  0  0  0  0  0
  184.9130  178.2390  142.1490 C   0  0  0  0  0  2  0  0  0  0  0  0
  185.0220  178.8840  143.4840 C   0  0  0  0  0  0  0  0  0  0  0  0
  184.0010  179.4140  144.0010 O   0  0  0  0  0  0  0  0  0  0  0  0
  186.2560  178.9070  144.1360 O   0  0  0  0  0  0  0  0  0  0  0  0
  185.8790  179.1960  146.8880 O   0  0  0  0  0  1  0  0  0  0  0  0
  186.4980  178.1850  145.6790 P   0  0  1  0  0  0  0  0  0  0  0  0
  185.7650  176.8620  145.7260 O   0  0  0  0  0  0  0  0  0  0  0  0
  191.2790  176.7370  145.5250 C   0  0  0  0  0  2  0  0  0  0  0  0
  188.2840  177.9170  145.9490 C   0  0  1  0  0  0  0  0  0  0  0  0
  191.1300  179.0540  144.4110 C   0  0  0  0  0  2  0  0  0  0  0  0
  188.5490  176.4420  144.0360 O   0  0  0  0  0  1  0  0  0  0  0  0
  188.9650  177.6580  144.5880 C   0  0  2  0  0  3  0  0  0  0  0  0
  189.6440  176.3320  147.3700 C   0  0  0  0  0  3  0  0  0  0  0  0
  191.1510  177.9900  143.3190 C   0  0  0  0  0  2  0  0  0  0  0  0
  190.9600  176.9570  146.9990 C   0  0  1  0  0  3  0  0  0  0  0  0
  190.4920  177.7040  144.6500 C   0  0  0  0  0  0  0  0  0  0  0  0
  188.8110  179.0750  146.5270 O   0  0  0  0  0  1  0  0  0  0  0  0
  188.4600  176.7590  146.9020 C   0  0  0  0  0  3  0  0  0  0  0  0
  192.0600  176.4100  147.8480 C   0  0  0  0  0  0  0  0  0  0  0  0
  192.5410  175.0830  147.6450 N   0  0  0  0  0  1  0  0  0  0  0  0
  192.5840  177.1350  148.7370 O   0  0  0  0  0  0  0  0  0  0  0  0
  188.0480  178.6660  137.5380 C   0  0  0  0  0  2  0  0  0  0  0  0
  187.0500  178.5890  136.4710 N   0  0  0  0  0  2  0  0  0  0  0  0
  187.0400  177.2500  135.8710 C   0  0  1  0  0  3  0  0  0  0  0  0
  185.6200  176.6720  135.7450 C   0  0  1  0  0  3  0  0  0  0  0  0
  186.4850  174.6420  136.9120 C   0  0  0  0  0  3  0  0  0  0  0  0
  185.6240  172.4220  136.4820 C   0  0  0  0  0  3  0  0  0  0  0  0
  184.7140  174.3240  135.2870 C   0  0  0  0  0  0  0  0  0  0  0  0
  184.7330  172.9500  135.5450 C   0  0  0  0  0  3  0  0  0  0  0  0
  186.5010  173.2660  137.1630 C   0  0  0  0  0  3  0  0  0  0  0  0
  185.5950  175.1820  135.9780 C   0  0  0  0  0  0  0  0  0  0  0  0
  183.8220  174.8250  134.3460 O   0  0  0  0  0  1  0  0  0  0  0  0
  184.6490  177.3900  136.6830 C   0  0  0  0  0  2  0  0  0  0  0  0
  184.0510  176.4270  137.7010 C   0  0  0  0  0  2  0  0  0  0  0  0
  182.6460  176.6320  137.7950 O   0  0  0  0  0  0  0  0  0  0  0  0
  181.7360  175.8040  137.1340 C   0  0  0  0  0  0  0  0  0  0  0  0
  181.7300  174.3450  137.4270 C   0  0  0  0  0  1  0  0  0  0  0  0
  180.9240  176.2740  136.2920 O   0  0  0  0  0  0  0  0  0  0  0  0
  187.7930  177.2270  134.5360 C   0  0  0  0  0  2  0  0  0  0  0  0
  188.5750  175.9330  134.3720 C   0  0  0  0  0  2  0  0  0  0  0  0
  189.9050  176.0220  135.1090 C   0  0  0  0  0  2  0  0  0  0  0  0
  190.2400  174.6850  135.7600 C   0  0  0  0  0  2  0  0  0  0  0  0
  192.6930  175.8390  137.2690 C   0  0  0  0  0  0  0  0  0  0  0  0
  193.3190  176.6490  138.0560 N   0  0  0  0  0  2  0  0  0  0  0  0
  192.0030  174.5310  137.4320 C   0  0  0  0  0  2  0  0  0  0  0  0
  191.7380  174.5620  136.0260 C   0  0  2  0  0  3  0  0  0  0  0  0
  192.3640  175.8240  135.8610 O   0  0  0  0  0  0  0  0  0  0  0  0
  1  4  1  0  0  0  0
  2  6  2  0  0  0  0
  2  7  1  0  0  0  0
  3 30  1  6  0  0  0
  3  5  1  0  0  0  0
  3  2  1  0  0  0  0
  4  7  1  0  0  0  0
  5  1  1  0  0  0  0
  6  8  1  0  0  0  0
  8  9  1  0  0  0  0
  9 10  1  0  0  0  0
 10 11  2  0  0  0  0
 10 12  1  0  0  0  0
 12 14  1  0  0  0  0
 14 15  2  1  0  0  0
 14 17  1  0  0  0  0
 14 13  1  0  0  0  0
 16 23  1  0  0  0  0
 17 25  1  1  0  0  0
 17 26  1  0  0  0  0
 18 24  1  0  0  0  0
 20 19  1  1  0  0  0
 20 24  1  0  0  0  0
 20 17  1  0  0  0  0
 22 18  1  0  0  0  0
 22 24  1  0  0  0  0
 23 21  1  0  0  0  0
 23 27  1  1  0  0  0
 24 16  1  0  0  0  0
 26 21  2  0  0  0  0
 27 29  2  0  0  0  0
 28 27  1  0  0  0  0
 31 30  1  0  0  0  0
 32 47  1  6  0  0  0
 32 31  1  0  0  0  0
 33 32  1  0  0  0  0
 33 39  1  0  0  0  0
 33 41  1  1  0  0  0
 34 38  1  0  0  0  0
 35 38  2  0  0  0  0
 36 37  2  0  0  0  0
 36 39  1  0  0  0  0
 37 35  1  0  0  0  0
 39 34  2  0  0  0  0
 40 36  1  0  0  0  0
 41 42  1  0  0  0  0
 42 43  1  0  0  0  0
 44 45  1  0  0  0  0
 44 43  1  0  0  0  0
 46 44  2  0  0  0  0
 48 47  1  0  0  0  0
 48 49  1  0  0  0  0
 49 50  1  0  0  0  0
 51 53  1  0  0  0  0
 51 52  2  0  0  0  0
 54 50  1  1  0  0  0
 54 53  1  0  0  0  0
 55 54  1  0  0  0  0
 55 51  1  0  0  0  0
M  END
>  <MODEL>
2

>  <REMARK>
 VINA RESULT:      -7.1      3.616      9.645
  Name = 
  21 active torsions:
  status: ('A' for Active; 'I' for Inactive)
    1  A    between atoms: C_1  and  C_29
    2  A    between atoms: C_2  and  N_28
    3  A    between atoms: C_2  and  C_31
    4  A    between atoms: C_4  and  O_40
    5  A    between atoms: C_6  and  P_20
    6  A    between atoms: C_8  and  O_22
    7  A    between atoms: C_8  and  C_35
    8  A    between atoms: C_13  and  C_48
    9  A    between atoms: C_13  and  C_52
   10  A    between atoms: C_19  and  O_40
   11  A    between atoms: C_19  and  C_45
   12  A    between atoms: P_20  and  O_22
   13  A    between atoms: C_26  and  C_49
   14  A    between atoms: N_28  and  C_33
   15  A    between atoms: C_33  and  C_34
   16  A    between atoms: C_33  and  C_49
   17  A    between atoms: C_34  and  C_52
   18  A    between atoms: C_35  and  O_51
   19  A    between atoms: C_39  and  C_48
   20  A    between atoms: C_45  and  C_49
   21  A    between atoms: O_51  and  N_54
                            x       y       z     vdW  Elec       q    Type
                         _______ _______ _______ _____ _____    ______ ____

>  <TORSDO>
F 21

$$$$
=
 OpenBabel10272401423D

 55 59  0  0  1  0  0  0  0  0999 V2000
  188.7410  179.1810  137.1210 C   0  0  0  0  0  2  0  0  0  0  0  0
  188.2030  176.3890  137.2260 C   0  0  0  0  0  0  0  0  0  0  0  0
  187.0550  177.2300  136.7370 C   0  0  2  0  0  3  0  0  0  0  0  0
  189.0080  178.4460  138.4260 C   0  0  0  0  0  2  0  0  0  0  0  0
  187.4220  178.7070  136.4810 C   0  0  0  0  0  2  0  0  0  0  0  0
  188.2390  175.1360  136.8990 N   0  0  0  0  0  0  0  0  0  0  0  0
  189.2660  176.9730  138.1230 C   0  0  0  0  0  2  0  0  0  0  0  0
  189.2480  174.3100  137.3320 O   0  0  0  0  0  0  0  0  0  0  0  0
  190.2490  173.8700  136.4310 C   0  0  0  0  0  2  0  0  0  0  0  0
  191.5690  173.9010  137.1140 C   0  0  0  0  0  0  0  0  0  0  0  0
  191.7600  174.7180  138.0550 O   0  0  0  0  0  0  0  0  0  0  0  0
  192.5810  173.0360  136.6920 O   0  0  0  0  0  0  0  0  0  0  0  0
  194.1940  172.2010  134.5720 O   0  0  0  0  0  0  0  0  0  0  0  0
  193.7900  173.5120  135.5640 P   0  0  1  0  0  0  0  0  0  0  0  0
  193.2490  174.6300  134.7010 O   0  0  0  0  0  1  0  0  0  0  0  0
  198.2490  174.0370  137.7600 C   0  0  0  0  0  2  0  0  0  0  0  0
  195.2700  174.0840  136.4680 C   0  0  1  0  0  0  0  0  0  0  0  0
  198.3340  175.2940  135.5140 C   0  0  0  0  0  2  0  0  0  0  0  0
  196.5700  172.0860  135.9900 O   0  0  0  0  0  1  0  0  0  0  0  0
  196.5270  173.4730  135.8110 C   0  0  2  0  0  3  0  0  0  0  0  0
  196.0160  174.0010  138.8800 C   0  0  0  0  0  3  0  0  0  0  0  0
  198.9900  173.9290  135.3330 C   0  0  0  0  0  2  0  0  0  0  0  0
  197.2640  174.8040  138.6340 C   0  0  1  0  0  3  0  0  0  0  0  0
  197.8360  174.0990  136.2960 C   0  0  0  0  0  0  0  0  0  0  0  0
  195.3210  175.4770  136.3760 O   0  0  0  0  0  1  0  0  0  0  0  0
  195.1360  173.6830  137.9180 C   0  0  0  0  0  3  0  0  0  0  0  0
  197.9100  175.1780  139.9270 C   0  0  0  0  0  0  0  0  0  0  0  0
  199.2520  174.7840  140.2090 N   0  0  0  0  0  1  0  0  0  0  0  0
  197.2730  175.8700  140.7680 O   0  0  0  0  0  0  0  0  0  0  0  0
  185.9010  177.1370  137.7230 C   0  0  0  0  0  2  0  0  0  0  0  0
  185.0070  178.2830  137.5590 N   0  0  0  0  0  2  0  0  0  0  0  0
  184.6250  178.8290  138.8670 C   0  0  1  0  0  3  0  0  0  0  0  0
  183.1250  178.6560  139.1620 C   0  0  1  0  0  3  0  0  0  0  0  0
  182.1070  177.9390  137.0000 C   0  0  0  0  0  3  0  0  0  0  0  0
  180.7100  179.3980  135.6670 C   0  0  0  0  0  3  0  0  0  0  0  0
  181.6530  180.1990  137.7510 C   0  0  0  0  0  0  0  0  0  0  0  0
  180.8730  180.4150  136.6110 C   0  0  0  0  0  3  0  0  0  0  0  0
  181.3290  178.1630  135.8590 C   0  0  0  0  0  3  0  0  0  0  0  0
  182.2750  178.9490  137.9520 C   0  0  0  0  0  0  0  0  0  0  0  0
  181.8050  181.2280  138.6730 O   0  0  0  0  0  1  0  0  0  0  0  0
  182.8310  177.2600  139.7140 C   0  0  0  0  0  2  0  0  0  0  0  0
  182.2120  177.3350  141.1030 C   0  0  0  0  0  2  0  0  0  0  0  0
  181.8460  178.6770  141.4000 O   0  0  0  0  0  0  0  0  0  0  0  0
  181.5980  179.1000  142.7080 C   0  0  0  0  0  0  0  0  0  0  0  0
  182.6430  178.9060  143.7490 C   0  0  0  0  0  1  0  0  0  0  0  0
  180.5010  179.6400  143.0180 O   0  0  0  0  0  0  0  0  0  0  0  0
  185.5030  178.2660  139.9890 C   0  0  0  0  0  2  0  0  0  0  0  0
  185.5210  179.2010  141.1900 C   0  0  0  0  0  2  0  0  0  0  0  0
  186.0810  178.4820  142.4110 C   0  0  0  0  0  2  0  0  0  0  0  0
  187.5040  178.0070  142.1390 C   0  0  0  0  0  2  0  0  0  0  0  0
  188.2830  177.4980  145.0990 C   0  0  0  0  0  0  0  0  0  0  0  0
  188.5070  177.8150  146.3290 N   0  0  0  0  0  2  0  0  0  0  0  0
  187.1030  177.0210  144.3290 C   0  0  0  0  0  2  0  0  0  0  0  0
  187.9470  176.9770  143.1730 C   0  0  2  0  0  3  0  0  0  0  0  0
  189.0730  177.4610  143.8870 O   0  0  0  0  0  0  0  0  0  0  0  0
  1  4  1  0  0  0  0
  2  7  1  0  0  0  0
  3  2  1  0  0  0  0
  3 30  1  1  0  0  0
  5  3  1  0  0  0  0
  5  1  1  0  0  0  0
  6  2  2  0  0  0  0
  6  8  1  0  0  0  0
  7  4  1  0  0  0  0
  9 10  1  0  0  0  0
  9  8  1  0  0  0  0
 10 11  2  0  0  0  0
 12 10  1  0  0  0  0
 14 13  2  6  0  0  0
 14 17  1  0  0  0  0
 14 12  1  0  0  0  0
 15 14  1  0  0  0  0
 16 23  1  0  0  0  0
 17 25  1  6  0  0  0
 17 26  1  0  0  0  0
 18 24  1  0  0  0  0
 20 19  1  1  0  0  0
 20 24  1  0  0  0  0
 20 17  1  0  0  0  0
 22 18  1  0  0  0  0
 22 24  1  0  0  0  0
 23 21  1  0  0  0  0
 23 27  1  1  0  0  0
 24 16  1  0  0  0  0
 26 21  2  0  0  0  0
 27 28  1  0  0  0  0
 27 29  2  0  0  0  0
 31 30  1  0  0  0  0
 31 32  1  0  0  0  0
 32 33  1  0  0  0  0
 32 47  1  1  0  0  0
 33 41  1  6  0  0  0
 34 39  1  0  0  0  0
 35 38  1  0  0  0  0
 35 37  2  0  0  0  0
 36 39  2  0  0  0  0
 36 40  1  0  0  0  0
 37 36  1  0  0  0  0
 38 34  2  0  0  0  0
 39 33  1  0  0  0  0
 41 42  1  0  0  0  0
 42 43  1  0  0  0  0
 43 44  1  0  0  0  0
 44 46  2  0  0  0  0
 44 45  1  0  0  0  0
 47 48  1  0  0  0  0
 48 49  1  0  0  0  0
 50 49  1  0  0  0  0
 51 52  2  0  0  0  0
 53 51  1  0  0  0  0
 54 50  1  6  0  0  0
 54 55  1  0  0  0  0
 54 53  1  0  0  0  0
 55 51  1  0  0  0  0
M  END
>  <MODEL>
3

>  <REMARK>
 VINA RESULT:      -6.6      2.633      4.475
  Name = 
  21 active torsions:
  status: ('A' for Active; 'I' for Inactive)
    1  A    between atoms: C_1  and  C_29
    2  A    between atoms: C_2  and  N_28
    3  A    between atoms: C_2  and  C_31
    4  A    between atoms: C_4  and  O_40
    5  A    between atoms: C_6  and  P_20
    6  A    between atoms: C_8  and  O_22
    7  A    between atoms: C_8  and  C_35
    8  A    between atoms: C_13  and  C_48
    9  A    between atoms: C_13  and  C_52
   10  A    between atoms: C_19  and  O_40
   11  A    between atoms: C_19  and  C_45
   12  A    between atoms: P_20  and  O_22
   13  A    between atoms: C_26  and  C_49
   14  A    between atoms: N_28  and  C_33
   15  A    between atoms: C_33  and  C_34
   16  A    between atoms: C_33  and  C_49
   17  A    between atoms: C_34  and  C_52
   18  A    between atoms: C_35  and  O_51
   19  A    between atoms: C_39  and  C_48
   20  A    between atoms: C_45  and  C_49
   21  A    between atoms: O_51  and  N_54
                            x       y       z     vdW  Elec       q    Type
                         _______ _______ _______ _____ _____    ______ ____

>  <TORSDO>
F 21

$$$$
=
 OpenBabel10272401423D

 55 59  0  0  1  0  0  0  0  0999 V2000
  189.4620  177.9470  143.3490 C   0  0  0  0  0  2  0  0  0  0  0  0
  190.0450  177.3420  140.6310 C   0  0  0  0  0  0  0  0  0  0  0  0
  188.9230  178.3260  140.8280 C   0  0  2  0  0  3  0  0  0  0  0  0
  189.5000  176.4850  142.9310 C   0  0  0  0  0  2  0  0  0  0  0  0
  188.7580  178.8080  142.2840 C   0  0  0  0  0  2  0  0  0  0  0  0
  190.6780  177.3380  139.5010 N   0  0  0  0  0  0  0  0  0  0  0  0
  190.3970  176.3420  141.7040 C   0  0  0  0  0  2  0  0  0  0  0  0
  191.6960  176.4490  139.2520 O   0  0  0  0  0  0  0  0  0  0  0  0
  192.3000  176.3940  137.9710 C   0  0  0  0  0  2  0  0  0  0  0  0
  191.7010  175.2760  137.1970 C   0  0  0  0  0  0  0  0  0  0  0  0
  190.5710  175.4290  136.6610 O   0  0  0  0  0  0  0  0  0  0  0  0
  192.3920  174.0670  137.0890 O   0  0  0  0  0  0  0  0  0  0  0  0
  193.6160  172.1880  135.4270 O   0  0  0  0  0  1  0  0  0  0  0  0
  193.6220  173.8090  135.9140 P   0  0  1  0  0  0  0  0  0  0  0  0
  193.3480  174.6830  134.7100 O   0  0  0  0  0  0  0  0  0  0  0  0
  198.3380  173.8980  137.5670 C   0  0  0  0  0  2  0  0  0  0  0  0
  195.2460  174.2330  136.6340 C   0  0  1  0  0  0  0  0  0  0  0  0
  198.2770  175.1530  135.3200 C   0  0  0  0  0  2  0  0  0  0  0  0
  196.2860  172.1240  136.0180 O   0  0  0  0  0  1  0  0  0  0  0  0
  196.3530  173.5100  135.8380 C   0  0  2  0  0  3  0  0  0  0  0  0
  196.2590  174.0670  138.9420 C   0  0  0  0  0  3  0  0  0  0  0  0
  198.7750  173.7340  135.0710 C   0  0  0  0  0  2  0  0  0  0  0  0
  197.5400  174.7490  138.5470 C   0  0  1  0  0  3  0  0  0  0  0  0
  197.7630  174.0070  136.1620 C   0  0  0  0  0  0  0  0  0  0  0  0
  195.4180  175.6160  136.5300 O   0  0  0  0  0  1  0  0  0  0  0  0
  195.2460  173.8390  138.0920 C   0  0  0  0  0  3  0  0  0  0  0  0
  198.3660  175.0530  139.7530 C   0  0  0  0  0  0  0  0  0  0  0  0
  197.7460  175.3610  141.0000 N   0  0  0  0  0  1  0  0  0  0  0  0
  199.6250  175.0150  139.6750 O   0  0  0  0  0  0  0  0  0  0  0  0
  187.6240  177.7220  140.3200 C   0  0  0  0  0  2  0  0  0  0  0  0
  186.6410  178.7780  140.0790 N   0  0  0  0  0  2  0  0  0  0  0  0
  185.4280  178.2230  139.4650 C   0  0  1  0  0  3  0  0  0  0  0  0
  184.1480  178.6360  140.2120 C   0  0  1  0  0  3  0  0  0  0  0  0
  182.5090  176.8930  139.5010 C   0  0  0  0  0  3  0  0  0  0  0  0
  180.6000  177.3900  138.0990 C   0  0  0  0  0  3  0  0  0  0  0  0
  182.1340  179.1590  138.7260 C   0  0  0  0  0  0  0  0  0  0  0  0
  180.9860  178.7310  138.0510 C   0  0  0  0  0  3  0  0  0  0  0  0
  181.3620  176.4710  138.8210 C   0  0  0  0  0  3  0  0  0  0  0  0
  182.9030  178.2340  139.4620 C   0  0  0  0  0  0  0  0  0  0  0  0
  182.5010  180.4990  138.6580 O   0  0  0  0  0  1  0  0  0  0  0  0
  184.1360  178.0740  141.6350 C   0  0  0  0  0  2  0  0  0  0  0  0
  184.6300  179.1060  142.6390 C   0  0  0  0  0  2  0  0  0  0  0  0
  185.7130  178.5710  143.3920 O   0  0  0  0  0  0  0  0  0  0  0  0
  185.6000  178.3080  144.7590 C   0  0  0  0  0  0  0  0  0  0  0  0
  184.3940  178.7740  145.4950 C   0  0  0  0  0  1  0  0  0  0  0  0
  186.5070  177.6860  145.3770 O   0  0  0  0  0  0  0  0  0  0  0  0
  185.3550  178.5510  137.9700 C   0  0  0  0  0  2  0  0  0  0  0  0
  185.9930  177.4490  137.1380 C   0  0  0  0  0  2  0  0  0  0  0  0
  185.1570  176.1770  137.2130 C   0  0  0  0  0  2  0  0  0  0  0  0
  185.8780  175.0290  136.5170 C   0  0  0  0  0  2  0  0  0  0  0  0
  184.3070  172.4450  137.2110 C   0  0  0  0  0  0  0  0  0  0  0  0
  183.3360  171.5980  137.1300 N   0  0  0  0  0  2  0  0  0  0  0  0
  185.6260  172.6070  136.5410 C   0  0  0  0  0  2  0  0  0  0  0  0
  185.8360  173.7600  137.3640 C   0  0  2  0  0  3  0  0  0  0  0  0
  184.5680  173.6360  137.9890 O   0  0  0  0  0  0  0  0  0  0  0  0
  2  3  1  0  0  0  0
  2  7  1  0  0  0  0
  3 30  1  1  0  0  0
  3  5  1  0  0  0  0
  4  1  1  0  0  0  0
  5  1  1  0  0  0  0
  6  2  2  0  0  0  0
  7  4  1  0  0  0  0
  8  6  1  0  0  0  0
  9  8  1  0  0  0  0
 10  9  1  0  0  0  0
 11 10  2  0  0  0  0
 12 10  1  0  0  0  0
 13 14  1  0  0  0  0
 14 15  2  6  0  0  0
 14 17  1  0  0  0  0
 14 12  1  0  0  0  0
 16 23  1  0  0  0  0
 17 25  1  6  0  0  0
 17 26  1  0  0  0  0
 18 24  1  0  0  0  0
 20 19  1  1  0  0  0
 20 24  1  0  0  0  0
 20 17  1  0  0  0  0
 22 18  1  0  0  0  0
 22 24  1  0  0  0  0
 23 21  1  0  0  0  0
 23 27  1  1  0  0  0
 24 16  1  0  0  0  0
 26 21  2  0  0  0  0
 27 28  1  0  0  0  0
 29 27  2  0  0  0  0
 31 30  1  0  0  0  0
 32 47  1  6  0  0  0
 32 31  1  0  0  0  0
 32 33  1  0  0  0  0
 33 41  1  1  0  0  0
 35 38  1  0  0  0  0
 36 39  2  0  0  0  0
 37 35  2  0  0  0  0
 37 36  1  0  0  0  0
 38 34  2  0  0  0  0
 39 34  1  0  0  0  0
 39 33  1  0  0  0  0
 40 36  1  0  0  0  0
 41 42  1  0  0  0  0
 42 43  1  0  0  0  0
 43 44  1  0  0  0  0
 44 46  2  0  0  0  0
 44 45  1  0  0  0  0
 48 49  1  0  0  0  0
 48 47  1  0  0  0  0
 50 49  1  0  0  0  0
 51 55  1  0  0  0  0
 52 51  2  0  0  0  0
 53 51  1  0  0  0  0
 53 54  1  0  0  0  0
 54 50  1  6  0  0  0
 54 55  1  0  0  0  0
M  END
>  <MODEL>
4

>  <REMARK>
 VINA RESULT:      -6.6      2.547      5.516
  Name = 
  21 active torsions:
  status: ('A' for Active; 'I' for Inactive)
    1  A    between atoms: C_1  and  C_29
    2  A    between atoms: C_2  and  N_28
    3  A    between atoms: C_2  and  C_31
    4  A    between atoms: C_4  and  O_40
    5  A    between atoms: C_6  and  P_20
    6  A    between atoms: C_8  and  O_22
    7  A    between atoms: C_8  and  C_35
    8  A    between atoms: C_13  and  C_48
    9  A    between atoms: C_13  and  C_52
   10  A    between atoms: C_19  and  O_40
   11  A    between atoms: C_19  and  C_45
   12  A    between atoms: P_20  and  O_22
   13  A    between atoms: C_26  and  C_49
   14  A    between atoms: N_28  and  C_33
   15  A    between atoms: C_33  and  C_34
   16  A    between atoms: C_33  and  C_49
   17  A    between atoms: C_34  and  C_52
   18  A    between atoms: C_35  and  O_51
   19  A    between atoms: C_39  and  C_48
   20  A    between atoms: C_45  and  C_49
   21  A    between atoms: O_51  and  N_54
                            x       y       z     vdW  Elec       q    Type
                         _______ _______ _______ _____ _____    ______ ____

>  <TORSDO>
F 21

$$$$
=
 OpenBabel10272401423D

 55 59  0  0  1  0  0  0  0  0999 V2000
  190.2770  178.0990  143.6390 C   0  0  0  0  0  2  0  0  0  0  0  0
  189.6400  177.1960  141.0170 C   0  0  0  0  0  0  0  0  0  0  0  0
  188.8190  178.3640  141.4950 C   0  0  2  0  0  3  0  0  0  0  0  0
  189.9670  176.6220  143.4430 C   0  0  0  0  0  2  0  0  0  0  0  0
  189.3130  178.9780  142.8210 C   0  0  0  0  0  2  0  0  0  0  0  0
  189.7590  177.0000  139.7430 N   0  0  0  0  0  0  0  0  0  0  0  0
  190.2700  176.2380  141.9970 C   0  0  0  0  0  2  0  0  0  0  0  0
  190.4760  175.9390  139.2430 O   0  0  0  0  0  0  0  0  0  0  0  0
  191.6580  176.1630  138.4950 C   0  0  0  0  0  2  0  0  0  0  0  0
  191.3590  175.9980  137.0490 C   0  0  0  0  0  0  0  0  0  0  0  0
  190.2860  176.4650  136.5810 O   0  0  0  0  0  0  0  0  0  0  0  0
  192.2640  175.3150  136.2340 O   0  0  0  0  0  0  0  0  0  0  0  0
  193.8490  176.6270  134.3470 O   0  0  0  0  0  0  0  0  0  0  0  0
  193.8360  175.9240  135.8870 P   0  0  1  0  0  0  0  0  0  0  0  0
  194.1950  176.9790  136.9100 O   0  0  0  0  0  1  0  0  0  0  0  0
  196.6890  172.0080  137.1130 C   0  0  0  0  0  2  0  0  0  0  0  0
  195.0430  174.5550  135.9530 C   0  0  1  0  0  0  0  0  0  0  0  0
  194.8290  171.1570  135.5490 C   0  0  0  0  0  2  0  0  0  0  0  0
  194.3010  173.7490  138.1230 O   0  0  0  0  0  1  0  0  0  0  0  0
  194.4440  173.3960  136.7770 C   0  0  2  0  0  3  0  0  0  0  0  0
  197.4500  174.3500  136.6920 C   0  0  0  0  0  3  0  0  0  0  0  0
  194.4300  170.8550  136.9900 C   0  0  0  0  0  2  0  0  0  0  0  0
  197.5720  172.9140  136.2630 C   0  0  1  0  0  3  0  0  0  0  0  0
  195.2370  172.0920  136.6650 C   0  0  0  0  0  0  0  0  0  0  0  0
  195.2840  174.1280  134.6450 O   0  0  0  0  0  1  0  0  0  0  0  0
  196.3280  175.0740  136.5540 C   0  0  0  0  0  3  0  0  0  0  0  0
  198.9930  172.4620  136.3390 C   0  0  0  0  0  0  0  0  0  0  0  0
  200.0480  173.3020  135.8740 N   0  0  0  0  0  1  0  0  0  0  0  0
  199.2660  171.3370  136.8410 O   0  0  0  0  0  0  0  0  0  0  0  0
  187.3620  177.9440  141.6170 C   0  0  0  0  0  2  0  0  0  0  0  0
  186.4980  178.9460  140.9930 N   0  0  0  0  0  2  0  0  0  0  0  0
  185.2440  178.3330  140.5390 C   0  0  1  0  0  3  0  0  0  0  0  0
  184.0490  178.7050  141.4350 C   0  0  1  0  0  3  0  0  0  0  0  0
  182.8340  176.9750  140.1100 C   0  0  0  0  0  3  0  0  0  0  0  0
  180.4200  176.8990  139.9650 C   0  0  0  0  0  3  0  0  0  0  0  0
  181.4980  178.6270  141.2770 C   0  0  0  0  0  0  0  0  0  0  0  0
  180.3350  178.0220  140.7900 C   0  0  0  0  0  3  0  0  0  0  0  0
  181.6680  176.3770  139.6220 C   0  0  0  0  0  3  0  0  0  0  0  0
  182.7620  178.0990  140.9390 C   0  0  0  0  0  0  0  0  0  0  0  0
  181.3890  179.7480  142.0930 O   0  0  0  0  0  1  0  0  0  0  0  0
  184.3130  178.3180  142.8910 C   0  0  0  0  0  2  0  0  0  0  0  0
  184.6240  179.5420  143.7410 C   0  0  0  0  0  2  0  0  0  0  0  0
  184.4340  179.2390  145.1180 O   0  0  0  0  0  0  0  0  0  0  0  0
  185.5050  178.9180  145.9550 C   0  0  0  0  0  0  0  0  0  0  0  0
  186.6770  178.1920  145.3950 C   0  0  0  0  0  1  0  0  0  0  0  0
  185.4910  179.2320  147.1760 O   0  0  0  0  0  0  0  0  0  0  0  0
  184.9730  178.6360  139.0620 C   0  0  0  0  0  2  0  0  0  0  0  0
  186.2160  178.3990  138.2190 C   0  0  0  0  0  2  0  0  0  0  0  0
  185.8290  177.8840  136.8380 C   0  0  0  0  0  2  0  0  0  0  0  0
  185.4630  176.4070  136.9080 C   0  0  0  0  0  2  0  0  0  0  0  0
  186.8890  173.6510  136.8760 C   0  0  0  0  0  0  0  0  0  0  0  0
  187.1300  172.4440  137.2650 N   0  0  0  0  0  2  0  0  0  0  0  0
  185.9980  174.2750  135.8600 C   0  0  0  0  0  2  0  0  0  0  0  0
  186.5360  175.5420  136.2520 C   0  0  2  0  0  3  0  0  0  0  0  0
  187.3680  174.9650  137.2460 O   0  0  0  0  0  0  0  0  0  0  0  0
  2  3  1  0  0  0  0
  2  7  1  0  0  0  0
  3 30  1  1  0  0  0
  3  5  1  0  0  0  0
  4  1  1  0  0  0  0
  5  1  1  0  0  0  0
  6  2  2  0  0  0  0
  7  4  1  0  0  0  0
  8  6  1  0  0  0  0
  9  8  1  0  0  0  0
 10  9  1  0  0  0  0
 11 10  2  0  0  0  0
 12 10  1  0  0  0  0
 14 13  2  6  0  0  0
 14 17  1  0  0  0  0
 14 12  1  0  0  0  0
 14 15  1  0  0  0  0
 17 25  1  6  0  0  0
 17 26  1  0  0  0  0
 17 20  1  0  0  0  0
 18 24  1  0  0  0  0
 18 22  1  0  0  0  0
 20 19  1  1  0  0  0
 23 27  1  1  0  0  0
 23 21  1  0  0  0  0
 23 16  1  0  0  0  0
 24 20  1  0  0  0  0
 24 22  1  0  0  0  0
 24 16  1  0  0  0  0
 26 21  2  0  0  0  0
 27 29  2  0  0  0  0
 28 27  1  0  0  0  0
 31 30  1  0  0  0  0
 32 47  1  6  0  0  0
 32 31  1  0  0  0  0
 32 33  1  0  0  0  0
 33 41  1  1  0  0  0
 34 39  1  0  0  0  0
 35 37  2  0  0  0  0
 36 40  1  0  0  0  0
 37 36  1  0  0  0  0
 38 35  1  0  0  0  0
 38 34  2  0  0  0  0
 39 36  2  0  0  0  0
 39 33  1  0  0  0  0
 41 42  1  0  0  0  0
 42 43  1  0  0  0  0
 43 44  1  0  0  0  0
 44 46  2  0  0  0  0
 45 44  1  0  0  0  0
 48 47  1  0  0  0  0
 49 50  1  0  0  0  0
 49 48  1  0  0  0  0
 51 55  1  0  0  0  0
 51 52  2  0  0  0  0
 53 54  1  0  0  0  0
 53 51  1  0  0  0  0
 54 50  1  1  0  0  0
 54 55  1  0  0  0  0
M  END
>  <MODEL>
5

>  <REMARK>
 VINA RESULT:      -6.4      2.109      5.103
  Name = 
  21 active torsions:
  status: ('A' for Active; 'I' for Inactive)
    1  A    between atoms: C_1  and  C_29
    2  A    between atoms: C_2  and  N_28
    3  A    between atoms: C_2  and  C_31
    4  A    between atoms: C_4  and  O_40
    5  A    between atoms: C_6  and  P_20
    6  A    between atoms: C_8  and  O_22
    7  A    between atoms: C_8  and  C_35
    8  A    between atoms: C_13  and  C_48
    9  A    between atoms: C_13  and  C_52
   10  A    between atoms: C_19  and  O_40
   11  A    between atoms: C_19  and  C_45
   12  A    between atoms: P_20  and  O_22
   13  A    between atoms: C_26  and  C_49
   14  A    between atoms: N_28  and  C_33
   15  A    between atoms: C_33  and  C_34
   16  A    between atoms: C_33  and  C_49
   17  A    between atoms: C_34  and  C_52
   18  A    between atoms: C_35  and  O_51
   19  A    between atoms: C_39  and  C_48
   20  A    between atoms: C_45  and  C_49
   21  A    between atoms: O_51  and  N_54
                            x       y       z     vdW  Elec       q    Type
                         _______ _______ _______ _____ _____    ______ ____

>  <TORSDO>
F 21

$$$$
=
 OpenBabel10272401423D

 55 59  0  0  1  0  0  0  0  0999 V2000
  190.0700  178.1460  143.9030 C   0  0  0  0  0  2  0  0  0  0  0  0
  190.0370  177.4420  141.1460 C   0  0  0  0  0  0  0  0  0  0  0  0
  189.0110  178.4690  141.5440 C   0  0  2  0  0  3  0  0  0  0  0  0
  189.9780  176.6720  143.5380 C   0  0  0  0  0  2  0  0  0  0  0  0
  189.1770  178.9990  142.9830 C   0  0  0  0  0  2  0  0  0  0  0  0
  190.4110  177.3850  139.9080 N   0  0  0  0  0  0  0  0  0  0  0  0
  190.5850  176.4620  142.1540 C   0  0  0  0  0  2  0  0  0  0  0  0
  191.3270  176.4540  139.4770 O   0  0  0  0  0  0  0  0  0  0  0  0
  192.1160  176.7060  138.3280 C   0  0  0  0  0  2  0  0  0  0  0  0
  191.2540  176.6360  137.1190 C   0  0  0  0  0  0  0  0  0  0  0  0
  190.1310  177.2090  137.1250 O   0  0  0  0  0  0  0  0  0  0  0  0
  191.6930  175.9230  136.0020 O   0  0  0  0  0  0  0  0  0  0  0  0
  190.0960  173.7740  136.7930 O   0  0  0  0  0  1  0  0  0  0  0  0
  191.3860  174.2420  135.8020 P   0  0  1  0  0  0  0  0  0  0  0  0
  191.0150  173.9750  134.3600 O   0  0  0  0  0  0  0  0  0  0  0  0
  195.8890  172.0860  136.0320 C   0  0  0  0  0  2  0  0  0  0  0  0
  192.8830  173.2950  136.2450 C   0  0  1  0  0  0  0  0  0  0  0  0
  195.9200  174.1240  137.6050 C   0  0  0  0  0  2  0  0  0  0  0  0
  194.1800  174.0880  134.3490 O   0  0  0  0  0  1  0  0  0  0  0  0
  194.1270  174.0600  135.7460 C   0  0  2  0  0  3  0  0  0  0  0  0
  193.6810  170.9370  135.8160 C   0  0  0  0  0  3  0  0  0  0  0  0
  196.5770  174.5170  136.2860 C   0  0  0  0  0  2  0  0  0  0  0  0
  194.9190  171.0880  136.6540 C   0  0  1  0  0  3  0  0  0  0  0  0
  195.4440  173.5160  136.3050 C   0  0  0  0  0  0  0  0  0  0  0  0
  192.9260  173.1820  137.6370 O   0  0  0  0  0  1  0  0  0  0  0  0
  192.7810  171.9170  135.6350 C   0  0  0  0  0  3  0  0  0  0  0  0
  195.5920  169.7680  136.8400 C   0  0  0  0  0  0  0  0  0  0  0  0
  195.6460  169.1550  138.1270 N   0  0  0  0  0  1  0  0  0  0  0  0
  196.0960  169.1770  135.8460 O   0  0  0  0  0  0  0  0  0  0  0  0
  187.6170  177.8960  141.3490 C   0  0  0  0  0  2  0  0  0  0  0  0
  186.6520  178.9770  141.1530 N   0  0  0  0  0  2  0  0  0  0  0  0
  185.4390  178.7360  141.9440 C   0  0  1  0  0  3  0  0  0  0  0  0
  184.2370  178.3360  141.0710 C   0  0  1  0  0  3  0  0  0  0  0  0
  182.9200  178.7820  143.1430 C   0  0  0  0  0  3  0  0  0  0  0  0
  180.5300  179.1650  143.1140 C   0  0  0  0  0  3  0  0  0  0  0  0
  181.7110  178.7350  141.0420 C   0  0  0  0  0  0  0  0  0  0  0  0
  180.5230  179.0070  141.7270 C   0  0  0  0  0  3  0  0  0  0  0  0
  181.7270  179.0500  143.8220 C   0  0  0  0  0  3  0  0  0  0  0  0
  182.9240  178.6250  141.7530 C   0  0  0  0  0  0  0  0  0  0  0  0
  181.6770  178.5760  139.6610 O   0  0  0  0  0  1  0  0  0  0  0  0
  184.3030  179.0120  139.7010 C   0  0  0  0  0  2  0  0  0  0  0  0
  184.9260  178.0910  138.6610 C   0  0  0  0  0  2  0  0  0  0  0  0
  183.9540  177.7310  137.6860 O   0  0  0  0  0  0  0  0  0  0  0  0
  183.6280  176.3970  137.4290 C   0  0  0  0  0  0  0  0  0  0  0  0
  184.7100  175.4330  137.0930 C   0  0  0  0  0  1  0  0  0  0  0  0
  182.4310  176.0010  137.4760 O   0  0  0  0  0  0  0  0  0  0  0  0
  185.6940  177.7300  143.0710 C   0  0  0  0  0  2  0  0  0  0  0  0
  185.9790  178.4430  144.3850 C   0  0  0  0  0  2  0  0  0  0  0  0
  186.7790  177.5380  145.3140 C   0  0  0  0  0  2  0  0  0  0  0  0
  187.1940  178.3010  146.5660 C   0  0  0  0  0  2  0  0  0  0  0  0
  189.9180  177.1290  147.4800 C   0  0  0  0  0  0  0  0  0  0  0  0
  191.1950  176.9490  147.4430 N   0  0  0  0  0  2  0  0  0  0  0  0
  189.0040  178.0730  148.1790 C   0  0  0  0  0  2  0  0  0  0  0  0
  187.9130  177.3870  147.5540 C   0  0  2  0  0  3  0  0  0  0  0  0
  188.7730  176.5010  146.8570 O   0  0  0  0  0  0  0  0  0  0  0  0
  2  3  1  0  0  0  0
  2  7  1  0  0  0  0
  3 30  1  1  0  0  0
  3  5  1  0  0  0  0
  4  1  1  0  0  0  0
  5  1  1  0  0  0  0
  6  2  2  0  0  0  0
  7  4  1  0  0  0  0
  8  6  1  0  0  0  0
  9  8  1  0  0  0  0
 10 11  2  0  0  0  0
 10  9  1  0  0  0  0
 12 10  1  0  0  0  0
 14 15  2  6  0  0  0
 14 12  1  0  0  0  0
 14 17  1  0  0  0  0
 14 13  1  0  0  0  0
 16 24  1  0  0  0  0
 16 23  1  0  0  0  0
 17 25  1  1  0  0  0
 20 19  1  6  0  0  0
 20 17  1  0  0  0  0
 20 24  1  0  0  0  0
 21 23  1  0  0  0  0
 22 24  1  0  0  0  0
 22 18  1  0  0  0  0
 23 27  1  6  0  0  0
 24 18  1  0  0  0  0
 26 21  2  0  0  0  0
 26 17  1  0  0  0  0
 27 28  1  0  0  0  0
 29 27  2  0  0  0  0
 31 30  1  0  0  0  0
 31 32  1  0  0  0  0
 32 47  1  1  0  0  0
 33 41  1  6  0  0  0
 33 39  1  0  0  0  0
 33 32  1  0  0  0  0
 34 38  1  0  0  0  0
 35 38  2  0  0  0  0
 36 37  2  0  0  0  0
 36 39  1  0  0  0  0
 37 35  1  0  0  0  0
 39 34  2  0  0  0  0
 40 36  1  0  0  0  0
 42 41  1  0  0  0  0
 43 42  1  0  0  0  0
 44 46  2  0  0  0  0
 44 43  1  0  0  0  0
 45 44  1  0  0  0  0
 47 48  1  0  0  0  0
 48 49  1  0  0  0  0
 49 50  1  0  0  0  0
 51 53  1  0  0  0  0
 52 51  2  0  0  0  0
 54 50  1  6  0  0  0
 54 53  1  0  0  0  0
 55 51  1  0  0  0  0
 55 54  1  0  0  0  0
M  END
>  <MODEL>
6

>  <REMARK>
 VINA RESULT:      -6.2      1.494      2.131
  Name = 
  21 active torsions:
  status: ('A' for Active; 'I' for Inactive)
    1  A    between atoms: C_1  and  C_29
    2  A    between atoms: C_2  and  N_28
    3  A    between atoms: C_2  and  C_31
    4  A    between atoms: C_4  and  O_40
    5  A    between atoms: C_6  and  P_20
    6  A    between atoms: C_8  and  O_22
    7  A    between atoms: C_8  and  C_35
    8  A    between atoms: C_13  and  C_48
    9  A    between atoms: C_13  and  C_52
   10  A    between atoms: C_19  and  O_40
   11  A    between atoms: C_19  and  C_45
   12  A    between atoms: P_20  and  O_22
   13  A    between atoms: C_26  and  C_49
   14  A    between atoms: N_28  and  C_33
   15  A    between atoms: C_33  and  C_34
   16  A    between atoms: C_33  and  C_49
   17  A    between atoms: C_34  and  C_52
   18  A    between atoms: C_35  and  O_51
   19  A    between atoms: C_39  and  C_48
   20  A    between atoms: C_45  and  C_49
   21  A    between atoms: O_51  and  N_54
                            x       y       z     vdW  Elec       q    Type
                         _______ _______ _______ _____ _____    ______ ____

>  <TORSDO>
F 21

$$$$
=
 OpenBabel10272401423D

 55 59  0  0  1  0  0  0  0  0999 V2000
  183.3770  179.1320  140.0060 C   0  0  0  0  0  2  0  0  0  0  0  0
  185.5710  178.5340  138.2960 C   0  0  0  0  0  0  0  0  0  0  0  0
  184.2180  178.3740  137.6580 C   0  0  2  0  0  3  0  0  0  0  0  0
  184.4190  178.1370  140.4950 C   0  0  0  0  0  2  0  0  0  0  0  0
  183.0510  178.9030  138.5180 C   0  0  0  0  0  2  0  0  0  0  0  0
  186.5990  178.7310  137.5320 N   0  0  0  0  0  0  0  0  0  0  0  0
  185.7430  178.4170  139.7900 C   0  0  0  0  0  2  0  0  0  0  0  0
  187.8650  178.8610  138.0530 O   0  0  0  0  0  0  0  0  0  0  0  0
  188.9960  178.4960  137.2820 C   0  0  0  0  0  2  0  0  0  0  0  0
  190.0700  178.0140  138.1900 C   0  0  0  0  0  0  0  0  0  0  0  0
  191.0130  177.3210  137.7210 O   0  0  0  0  0  0  0  0  0  0  0  0
  190.0090  178.3220  139.5500 O   0  0  0  0  0  0  0  0  0  0  0  0
  190.5890  175.6910  140.2820 O   0  0  0  0  0  0  0  0  0  0  0  0
  190.7040  177.3120  140.7570 P   0  0  1  0  0  0  0  0  0  0  0  0
  192.1640  177.6710  140.9220 O   0  0  0  0  0  1  0  0  0  0  0  0
  188.5670  176.8860  145.2550 C   0  0  0  0  0  2  0  0  0  0  0  0
  189.8200  177.5590  142.3360 C   0  0  1  0  0  0  0  0  0  0  0  0
  190.8160  178.1000  145.5730 C   0  0  0  0  0  2  0  0  0  0  0  0
  190.3120  175.3330  143.1810 O   0  0  0  0  0  1  0  0  0  0  0  0
  190.4920  176.6990  143.4280 C   0  0  2  0  0  3  0  0  0  0  0  0
  187.4180  177.3190  143.0790 C   0  0  0  0  0  3  0  0  0  0  0  0
  191.0020  176.6280  145.9250 C   0  0  0  0  0  2  0  0  0  0  0  0
  187.6810  177.8410  144.4640 C   0  0  1  0  0  3  0  0  0  0  0  0
  190.0250  177.0360  144.8450 C   0  0  0  0  0  0  0  0  0  0  0  0
  189.9150  178.9110  142.6770 O   0  0  0  0  0  1  0  0  0  0  0  0
  188.3680  177.1940  142.1390 C   0  0  0  0  0  3  0  0  0  0  0  0
  186.3970  178.0700  145.1910 C   0  0  0  0  0  0  0  0  0  0  0  0
  185.1960  178.3470  144.4740 N   0  0  0  0  0  1  0  0  0  0  0  0
  186.3690  177.9940  146.4500 O   0  0  0  0  0  0  0  0  0  0  0  0
  183.9930  176.9130  137.3030 C   0  0  0  0  0  2  0  0  0  0  0  0
  185.2240  176.1510  137.5130 N   0  0  0  0  0  2  0  0  0  0  0  0
  185.5740  175.3940  136.3050 C   0  0  1  0  0  3  0  0  0  0  0  0
  184.8190  174.0570  136.2090 C   0  0  1  0  0  3  0  0  0  0  0  0
  187.0590  172.9960  136.5010 C   0  0  0  0  0  3  0  0  0  0  0  0
  187.5740  170.7830  135.6670 C   0  0  0  0  0  3  0  0  0  0  0  0
  185.3660  171.7210  135.3230 C   0  0  0  0  0  0  0  0  0  0  0  0
  186.2770  170.6720  135.1630 C   0  0  0  0  0  3  0  0  0  0  0  0
  187.9660  171.9450  136.3330 C   0  0  0  0  0  3  0  0  0  0  0  0
  185.7560  172.8940  136.0020 C   0  0  0  0  0  0  0  0  0  0  0  0
  184.0820  171.5890  134.8070 O   0  0  0  0  0  1  0  0  0  0  0  0
  183.9340  173.8360  137.4370 C   0  0  0  0  0  2  0  0  0  0  0  0
  182.4860  173.5920  137.0360 C   0  0  0  0  0  2  0  0  0  0  0  0
  182.1520  174.3950  135.9100 O   0  0  0  0  0  0  0  0  0  0  0  0
  180.9830  175.1590  135.8720 C   0  0  0  0  0  0  0  0  0  0  0  0
  180.8660  176.2640  134.8830 C   0  0  0  0  0  1  0  0  0  0  0  0
  180.0300  174.9270  136.6640 O   0  0  0  0  0  0  0  0  0  0  0  0
  185.4050  176.2440  135.0410 C   0  0  0  0  0  2  0  0  0  0  0  0
  186.7410  176.8030  134.5760 C   0  0  0  0  0  2  0  0  0  0  0  0
  187.7390  175.6730  134.3530 C   0  0  0  0  0  2  0  0  0  0  0  0
  188.9870  175.8950  135.1980 C   0  0  0  0  0  2  0  0  0  0  0  0
  191.8880  174.9370  135.7400 C   0  0  0  0  0  0  0  0  0  0  0  0
  193.0610  174.9740  136.2790 N   0  0  0  0  0  2  0  0  0  0  0  0
  190.5920  174.2880  136.0750 C   0  0  0  0  0  2  0  0  0  0  0  0
  190.0610  174.8610  134.8750 C   0  0  2  0  0  3  0  0  0  0  0  0
  191.2820  175.5110  134.5590 O   0  0  0  0  0  0  0  0  0  0  0  0
  1  4  1  0  0  0  0
  2  7  1  0  0  0  0
  3 30  1  1  0  0  0
  3  2  1  0  0  0  0
  3  5  1  0  0  0  0
  5  1  1  0  0  0  0
  6  8  1  0  0  0  0
  6  2  2  0  0  0  0
  7  4  1  0  0  0  0
  9  8  1  0  0  0  0
  9 10  1  0  0  0  0
 10 12  1  0  0  0  0
 11 10  2  0  0  0  0
 12 14  1  0  0  0  0
 14 13  2  6  0  0  0
 14 15  1  0  0  0  0
 14 17  1  0  0  0  0
 17 25  1  1  0  0  0
 17 20  1  0  0  0  0
 18 22  1  0  0  0  0
 20 19  1  6  0  0  0
 20 24  1  0  0  0  0
 21 23  1  0  0  0  0
 23 27  1  1  0  0  0
 23 16  1  0  0  0  0
 24 16  1  0  0  0  0
 24 18  1  0  0  0  0
 24 22  1  0  0  0  0
 26 17  1  0  0  0  0
 26 21  2  0  0  0  0
 27 29  2  0  0  0  0
 28 27  1  0  0  0  0
 30 31  1  0  0  0  0
 32 47  1  6  0  0  0
 32 31  1  0  0  0  0
 33 32  1  0  0  0  0
 33 41  1  1  0  0  0
 35 38  2  0  0  0  0
 36 39  1  0  0  0  0
 37 36  2  0  0  0  0
 37 35  1  0  0  0  0
 38 34  1  0  0  0  0
 39 33  1  0  0  0  0
 39 34  2  0  0  0  0
 40 36  1  0  0  0  0
 42 41  1  0  0  0  0
 43 42  1  0  0  0  0
 44 43  1  0  0  0  0
 44 46  2  0  0  0  0
 45 44  1  0  0  0  0
 48 47  1  0  0  0  0
 49 48  1  0  0  0  0
 49 50  1  0  0  0  0
 51 53  1  0  0  0  0
 51 52  2  0  0  0  0
 54 50  1  1  0  0  0
 54 53  1  0  0  0  0
 55 54  1  0  0  0  0
 55 51  1  0  0  0  0
M  END
>  <MODEL>
7

>  <REMARK>
 VINA RESULT:      -6.1      3.713      9.550
  Name = 
  21 active torsions:
  status: ('A' for Active; 'I' for Inactive)
    1  A    between atoms: C_1  and  C_29
    2  A    between atoms: C_2  and  N_28
    3  A    between atoms: C_2  and  C_31
    4  A    between atoms: C_4  and  O_40
    5  A    between atoms: C_6  and  P_20
    6  A    between atoms: C_8  and  O_22
    7  A    between atoms: C_8  and  C_35
    8  A    between atoms: C_13  and  C_48
    9  A    between atoms: C_13  and  C_52
   10  A    between atoms: C_19  and  O_40
   11  A    between atoms: C_19  and  C_45
   12  A    between atoms: P_20  and  O_22
   13  A    between atoms: C_26  and  C_49
   14  A    between atoms: N_28  and  C_33
   15  A    between atoms: C_33  and  C_34
   16  A    between atoms: C_33  and  C_49
   17  A    between atoms: C_34  and  C_52
   18  A    between atoms: C_35  and  O_51
   19  A    between atoms: C_39  and  C_48
   20  A    between atoms: C_45  and  C_49
   21  A    between atoms: O_51  and  N_54
                            x       y       z     vdW  Elec       q    Type
                         _______ _______ _______ _____ _____    ______ ____

>  <TORSDO>
F 21

$$$$
=
 OpenBabel10272401423D

 55 59  0  0  1  0  0  0  0  0999 V2000
  185.3350  178.4370  144.8310 C   0  0  0  0  0  2  0  0  0  0  0  0
  184.8890  178.3080  142.0240 C   0  0  0  0  0  0  0  0  0  0  0  0
  186.3100  178.0470  142.4460 C   0  0  2  0  0  3  0  0  0  0  0  0
  184.6510  179.6170  144.1570 C   0  0  0  0  0  2  0  0  0  0  0  0
  186.4980  177.9080  143.9710 C   0  0  0  0  0  2  0  0  0  0  0  0
  184.4850  177.8470  140.8830 N   0  0  0  0  0  0  0  0  0  0  0  0
  183.9640  179.1320  142.8840 C   0  0  0  0  0  2  0  0  0  0  0  0
  183.2060  178.0710  140.4320 O   0  0  0  0  0  0  0  0  0  0  0  0
  182.4520  177.0130  139.8650 C   0  0  0  0  0  2  0  0  0  0  0  0
  182.0150  177.4030  138.4990 C   0  0  0  0  0  0  0  0  0  0  0  0
  180.8430  177.8330  138.3230 O   0  0  0  0  0  0  0  0  0  0  0  0
  182.9030  177.2700  137.4290 O   0  0  0  0  0  0  0  0  0  0  0  0
  180.8230  176.7930  135.6290 O   0  0  0  0  0  1  0  0  0  0  0  0
  182.4600  176.5070  135.9520 P   0  0  1  0  0  0  0  0  0  0  0  0
  183.2890  177.0880  134.8280 O   0  0  0  0  0  0  0  0  0  0  0  0
  184.1310  171.8130  135.5650 C   0  0  0  0  0  2  0  0  0  0  0  0
  182.7620  174.7110  136.0840 C   0  0  1  0  0  0  0  0  0  0  0  0
  185.0530  172.7890  137.7630 C   0  0  0  0  0  2  0  0  0  0  0  0
  184.7220  174.7390  134.6460 O   0  0  0  0  0  1  0  0  0  0  0  0
  184.2750  174.4430  135.9380 C   0  0  2  0  0  3  0  0  0  0  0  0
  181.8920  172.6740  134.8700 C   0  0  0  0  0  3  0  0  0  0  0  0
  186.1400  172.8780  136.6970 C   0  0  0  0  0  2  0  0  0  0  0  0
  182.6230  171.7020  135.7530 C   0  0  1  0  0  3  0  0  0  0  0  0
  184.6830  173.0180  136.3140 C   0  0  0  0  0  0  0  0  0  0  0  0
  182.3280  174.2920  137.3440 O   0  0  0  0  0  1  0  0  0  0  0  0
  181.9560  174.0070  135.0180 C   0  0  0  0  0  3  0  0  0  0  0  0
  182.1740  170.3040  135.4800 C   0  0  0  0  0  0  0  0  0  0  0  0
  183.1250  169.2770  135.2060 N   0  0  0  0  0  1  0  0  0  0  0  0
  180.9450  170.0230  135.5160 O   0  0  0  0  0  0  0  0  0  0  0  0
  187.2110  179.1440  141.9010 C   0  0  0  0  0  2  0  0  0  0  0  0
  188.5570  178.6200  141.6720 N   0  0  0  0  0  2  0  0  0  0  0  0
  188.5010  177.2070  141.2770 C   0  0  1  0  0  3  0  0  0  0  0  0
  189.1920  176.9460  139.9280 C   0  0  1  0  0  3  0  0  0  0  0  0
  187.2750  178.0750  138.7970 C   0  0  0  0  0  3  0  0  0  0  0  0
  186.3980  177.3370  136.6650 C   0  0  0  0  0  3  0  0  0  0  0  0
  188.2610  176.1630  137.6780 C   0  0  0  0  0  0  0  0  0  0  0  0
  187.3460  176.3120  136.6310 C   0  0  0  0  0  3  0  0  0  0  0  0
  186.3610  178.2160  137.7480 C   0  0  0  0  0  3  0  0  0  0  0  0
  188.2300  177.0540  138.7720 C   0  0  0  0  0  0  0  0  0  0  0  0
  189.1910  175.1310  137.6240 O   0  0  0  0  0  1  0  0  0  0  0  0
  190.3900  177.8760  139.7340 C   0  0  0  0  0  2  0  0  0  0  0  0
  191.6540  177.0900  139.4150 C   0  0  0  0  0  2  0  0  0  0  0  0
  191.7340  176.8480  138.0150 O   0  0  0  0  0  0  0  0  0  0  0  0
  192.6870  175.9820  137.4720 C   0  0  0  0  0  0  0  0  0  0  0  0
  193.7510  176.5300  136.5890 C   0  0  0  0  0  1  0  0  0  0  0  0
  192.6540  174.7460  137.7160 O   0  0  0  0  0  0  0  0  0  0  0  0
  189.0320  176.2920  142.3850 C   0  0  0  0  0  2  0  0  0  0  0  0
  190.4690  176.6430  142.7400 C   0  0  0  0  0  2  0  0  0  0  0  0
  190.6780  176.5520  144.2470 C   0  0  0  0  0  2  0  0  0  0  0  0
  189.5630  177.2860  144.9810 C   0  0  0  0  0  2  0  0  0  0  0  0
  191.2150  176.9140  147.5820 C   0  0  0  0  0  0  0  0  0  0  0  0
  192.2800  176.9090  148.3110 N   0  0  0  0  0  2  0  0  0  0  0  0
  190.1610  177.9130  147.2570 C   0  0  0  0  0  2  0  0  0  0  0  0
  189.5330  176.9040  146.4580 C   0  0  2  0  0  3  0  0  0  0  0  0
  190.5470  175.9510  146.7340 O   0  0  0  0  0  0  0  0  0  0  0  0
  2  3  1  0  0  0  0
  2  7  1  0  0  0  0
  3 30  1  1  0  0  0
  3  5  1  0  0  0  0
  4  1  1  0  0  0  0
  5  1  1  0  0  0  0
  6  2  2  0  0  0  0
  7  4  1  0  0  0  0
  8  6  1  0  0  0  0
  9  8  1  0  0  0  0
 10  9  1  0  0  0  0
 11 10  2  0  0  0  0
 12 10  1  0  0  0  0
 13 14  1  0  0  0  0
 14 15  2  6  0  0  0
 14 17  1  0  0  0  0
 14 12  1  0  0  0  0
 16 23  1  0  0  0  0
 16 24  1  0  0  0  0
 17 25  1  1  0  0  0
 20 19  1  6  0  0  0
 20 17  1  0  0  0  0
 20 24  1  0  0  0  0
 21 26  2  0  0  0  0
 21 23  1  0  0  0  0
 22 18  1  0  0  0  0
 23 27  1  6  0  0  0
 24 22  1  0  0  0  0
 24 18  1  0  0  0  0
 26 17  1  0  0  0  0
 27 29  2  0  0  0  0
 28 27  1  0  0  0  0
 31 30  1  0  0  0  0
 32 31  1  0  0  0  0
 32 47  1  1  0  0  0
 33 41  1  6  0  0  0
 33 32  1  0  0  0  0
 35 38  1  0  0  0  0
 36 39  2  0  0  0  0
 37 35  2  0  0  0  0
 37 36  1  0  0  0  0
 38 34  2  0  0  0  0
 39 34  1  0  0  0  0
 39 33  1  0  0  0  0
 40 36  1  0  0  0  0
 42 41  1  0  0  0  0
 43 42  1  0  0  0  0
 44 46  2  0  0  0  0
 44 43  1  0  0  0  0
 45 44  1  0  0  0  0
 47 48  1  0  0  0  0
 48 49  1  0  0  0  0
 49 50  1  0  0  0  0
 51 52  2  0  0  0  0
 53 51  1  0  0  0  0
 54 50  1  6  0  0  0
 54 55  1  0  0  0  0
 54 53  1  0  0  0  0
 55 51  1  0  0  0  0
M  END
>  <MODEL>
8

>  <REMARK>
 VINA RESULT:      -6.1      3.618      9.091
  Name = 
  21 active torsions:
  status: ('A' for Active; 'I' for Inactive)
    1  A    between atoms: C_1  and  C_29
    2  A    between atoms: C_2  and  N_28
    3  A    between atoms: C_2  and  C_31
    4  A    between atoms: C_4  and  O_40
    5  A    between atoms: C_6  and  P_20
    6  A    between atoms: C_8  and  O_22
    7  A    between atoms: C_8  and  C_35
    8  A    between atoms: C_13  and  C_48
    9  A    between atoms: C_13  and  C_52
   10  A    between atoms: C_19  and  O_40
   11  A    between atoms: C_19  and  C_45
   12  A    between atoms: P_20  and  O_22
   13  A    between atoms: C_26  and  C_49
   14  A    between atoms: N_28  and  C_33
   15  A    between atoms: C_33  and  C_34
   16  A    between atoms: C_33  and  C_49
   17  A    between atoms: C_34  and  C_52
   18  A    between atoms: C_35  and  O_51
   19  A    between atoms: C_39  and  C_48
   20  A    between atoms: C_45  and  C_49
   21  A    between atoms: O_51  and  N_54
                            x       y       z     vdW  Elec       q    Type
                         _______ _______ _______ _____ _____    ______ ____

>  <TORSDO>
F 21

$$$$
=
 OpenBabel10272401423D

 55 59  0  0  1  0  0  0  0  0999 V2000
  188.7190  179.4090  137.2720 C   0  0  0  0  0  2  0  0  0  0  0  0
  188.3810  176.5910  137.4700 C   0  0  0  0  0  0  0  0  0  0  0  0
  187.2000  177.3250  136.8940 C   0  0  2  0  0  3  0  0  0  0  0  0
  188.9760  178.7470  138.6180 C   0  0  0  0  0  2  0  0  0  0  0  0
  187.4720  178.8140  136.5930 C   0  0  0  0  0  2  0  0  0  0  0  0
  188.5240  175.3330  137.1970 N   0  0  0  0  0  0  0  0  0  0  0  0
  189.3540  177.2870  138.3890 C   0  0  0  0  0  2  0  0  0  0  0  0
  189.5690  174.6020  137.7100 O   0  0  0  0  0  0  0  0  0  0  0  0
  190.8830  175.1320  137.7080 C   0  0  0  0  0  2  0  0  0  0  0  0
  191.7120  174.3780  136.7330 C   0  0  0  0  0  0  0  0  0  0  0  0
  191.4760  173.1560  136.5330 O   0  0  0  0  0  0  0  0  0  0  0  0
  192.7510  175.0300  136.0660 O   0  0  0  0  0  0  0  0  0  0  0  0
  194.9810  176.7100  136.1090 O   0  0  0  0  0  0  0  0  0  0  0  0
  194.2730  175.3400  136.8080 P   0  0  1  0  0  0  0  0  0  0  0  0
  194.0600  175.5980  138.2830 O   0  0  0  0  0  1  0  0  0  0  0  0
  197.1980  171.3210  137.3290 C   0  0  0  0  0  2  0  0  0  0  0  0
  195.3640  173.8940  136.5790 C   0  0  1  0  0  0  0  0  0  0  0  0
  194.8700  170.5010  136.5940 C   0  0  0  0  0  2  0  0  0  0  0  0
  195.3970  173.3040  138.9370 O   0  0  0  0  0  1  0  0  0  0  0  0
  195.0420  172.8450  137.6640 C   0  0  2  0  0  3  0  0  0  0  0  0
  197.8650  173.5640  136.4530 C   0  0  0  0  0  3  0  0  0  0  0  0
  194.9910  170.3340  138.1050 C   0  0  0  0  0  2  0  0  0  0  0  0
  197.7640  172.0950  136.1450 C   0  0  1  0  0  3  0  0  0  0  0  0
  195.6850  171.4810  137.4060 C   0  0  0  0  0  0  0  0  0  0  0  0
  195.1110  173.3570  135.3140 O   0  0  0  0  0  1  0  0  0  0  0  0
  196.8000  174.3570  136.6460 C   0  0  0  0  0  3  0  0  0  0  0  0
  199.1000  171.5460  135.7650 C   0  0  0  0  0  0  0  0  0  0  0  0
  199.2060  170.2830  135.1120 N   0  0  0  0  0  1  0  0  0  0  0  0
  200.1430  172.2150  136.0030 O   0  0  0  0  0  0  0  0  0  0  0  0
  186.0100  177.1830  137.8290 C   0  0  0  0  0  2  0  0  0  0  0  0
  185.2420  178.4280  137.8560 N   0  0  0  0  0  2  0  0  0  0  0  0
  185.1500  178.9470  139.2260 C   0  0  1  0  0  3  0  0  0  0  0  0
  183.6980  179.0260  139.7290 C   0  0  1  0  0  3  0  0  0  0  0  0
  182.2720  178.0670  137.9190 C   0  0  0  0  0  3  0  0  0  0  0  0
  180.8950  179.4380  136.4770 C   0  0  0  0  0  3  0  0  0  0  0  0
  182.2460  180.4750  138.2010 C   0  0  0  0  0  0  0  0  0  0  0  0
  181.3350  180.5820  137.1450 C   0  0  0  0  0  3  0  0  0  0  0  0
  181.3640  178.1820  136.8620 C   0  0  0  0  0  3  0  0  0  0  0  0
  182.7190  179.2060  138.5970 C   0  0  0  0  0  0  0  0  0  0  0  0
  182.6750  181.6290  138.8470 O   0  0  0  0  0  1  0  0  0  0  0  0
  183.3410  177.8020  140.5740 C   0  0  0  0  0  2  0  0  0  0  0  0
  182.5060  178.1920  141.7850 C   0  0  0  0  0  2  0  0  0  0  0  0
  183.3480  178.7080  142.8100 O   0  0  0  0  0  0  0  0  0  0  0  0
  182.9240  178.7930  144.1380 C   0  0  0  0  0  0  0  0  0  0  0  0
  183.9360  178.9100  145.2220 C   0  0  0  0  0  1  0  0  0  0  0  0
  181.6970  178.7680  144.4300 O   0  0  0  0  0  0  0  0  0  0  0  0
  186.0510  178.1630  140.1860 C   0  0  0  0  0  2  0  0  0  0  0  0
  186.4620  179.0210  141.3730 C   0  0  0  0  0  2  0  0  0  0  0  0
  186.7280  178.1450  142.5910 C   0  0  0  0  0  2  0  0  0  0  0  0
  188.2180  177.8450  142.7110 C   0  0  0  0  0  2  0  0  0  0  0  0
  187.6740  177.6680  145.7610 C   0  0  0  0  0  0  0  0  0  0  0  0
  187.1430  178.0130  146.8850 N   0  0  0  0  0  2  0  0  0  0  0  0
  187.3200  176.7160  144.6730 C   0  0  0  0  0  2  0  0  0  0  0  0
  188.5280  177.1120  144.0130 C   0  0  2  0  0  3  0  0  0  0  0  0
  188.8620  178.0460  145.0270 O   0  0  0  0  0  0  0  0  0  0  0  0
  1  4  1  0  0  0  0
  2  7  1  0  0  0  0
  3  2  1  0  0  0  0
  3 30  1  1  0  0  0
  5  3  1  0  0  0  0
  5  1  1  0  0  0  0
  6  2  2  0  0  0  0
  6  8  1  0  0  0  0
  7  4  1  0  0  0  0
  9  8  1  0  0  0  0
 10  9  1  0  0  0  0
 11 10  2  0  0  0  0
 12 10  1  0  0  0  0
 12 14  1  0  0  0  0
 14 13  2  6  0  0  0
 14 15  1  0  0  0  0
 16 24  1  0  0  0  0
 17 25  1  6  0  0  0
 17 26  1  0  0  0  0
 17 14  1  0  0  0  0
 17 20  1  0  0  0  0
 18 24  1  0  0  0  0
 18 22  1  0  0  0  0
 20 19  1  1  0  0  0
 21 26  2  0  0  0  0
 23 27  1  1  0  0  0
 23 21  1  0  0  0  0
 23 16  1  0  0  0  0
 24 20  1  0  0  0  0
 24 22  1  0  0  0  0
 27 29  2  0  0  0  0
 28 27  1  0  0  0  0
 30 31  1  0  0  0  0
 31 32  1  0  0  0  0
 32 33  1  0  0  0  0
 32 47  1  1  0  0  0
 33 41  1  6  0  0  0
 34 39  1  0  0  0  0
 35 38  1  0  0  0  0
 35 37  2  0  0  0  0
 36 39  2  0  0  0  0
 36 40  1  0  0  0  0
 37 36  1  0  0  0  0
 38 34  2  0  0  0  0
 39 33  1  0  0  0  0
 41 42  1  0  0  0  0
 42 43  1  0  0  0  0
 43 44  1  0  0  0  0
 44 46  2  0  0  0  0
 44 45  1  0  0  0  0
 47 48  1  0  0  0  0
 48 49  1  0  0  0  0
 49 50  1  0  0  0  0
 51 52  2  0  0  0  0
 53 51  1  0  0  0  0
 54 50  1  6  0  0  0
 54 53  1  0  0  0  0
 54 55  1  0  0  0  0
 55 51  1  0  0  0  0
M  END
>  <MODEL>
9

>  <REMARK>
 VINA RESULT:      -6.0      2.451      4.081
  Name = 
  21 active torsions:
  status: ('A' for Active; 'I' for Inactive)
    1  A    between atoms: C_1  and  C_29
    2  A    between atoms: C_2  and  N_28
    3  A    between atoms: C_2  and  C_31
    4  A    between atoms: C_4  and  O_40
    5  A    between atoms: C_6  and  P_20
    6  A    between atoms: C_8  and  O_22
    7  A    between atoms: C_8  and  C_35
    8  A    between atoms: C_13  and  C_48
    9  A    between atoms: C_13  and  C_52
   10  A    between atoms: C_19  and  O_40
   11  A    between atoms: C_19  and  C_45
   12  A    between atoms: P_20  and  O_22
   13  A    between atoms: C_26  and  C_49
   14  A    between atoms: N_28  and  C_33
   15  A    between atoms: C_33  and  C_34
   16  A    between atoms: C_33  and  C_49
   17  A    between atoms: C_34  and  C_52
   18  A    between atoms: C_35  and  O_51
   19  A    between atoms: C_39  and  C_48
   20  A    between atoms: C_45  and  C_49
   21  A    between atoms: O_51  and  N_54
                            x       y       z     vdW  Elec       q    Type
                         _______ _______ _______ _____ _____    ______ ____

>  <TORSDO>
F 21

$$$$
