=
 OpenBabel10272414003D

 30 35  0  0  1  0  0  0  0  0999 V2000
  191.8470  177.3040  138.8110 C   0  0  2  0  0  3  0  0  0  0  0  0
  190.8050  176.8100  142.5360 C   0  0  0  0  0  2  0  0  0  0  0  0
  189.1090  178.3540  138.5750 C   0  0  0  0  0  2  0  0  0  0  0  0
  191.5380  176.3450  137.6500 C   0  0  2  0  0  0  0  0  0  0  0  0
  192.5800  175.9610  138.6590 C   0  0  1  0  0  3  0  0  0  0  0  0
  190.8250  173.6390  134.4910 C   0  0  0  0  0  2  0  0  0  0  0  0
  193.7160  176.2090  136.7100 C   0  0  1  0  0  3  0  0  0  0  0  0
  189.1660  176.0790  136.8360 N   0  0  0  0  0  0  0  0  0  0  0  0
  187.8970  176.3730  137.4890 C   0  0  0  0  0  2  0  0  0  0  0  0
  193.8570  176.1990  138.1110 O   0  0  0  0  0  0  0  0  0  0  0  0
  192.2850  176.5580  136.3540 C   0  0  1  0  0  3  0  0  0  0  0  0
  189.4240  176.1850  142.4420 C   0  0  0  0  0  2  0  0  0  0  0  0
  189.4630  176.7610  135.5740 C   0  0  0  0  0  2  0  0  0  0  0  0
  189.7630  174.6330  134.3800 N   0  0  0  0  0  2  0  0  0  0  0  0
  191.4680  176.8930  141.1880 C   0  0  0  0  0  3  0  0  0  0  0  0
  189.4150  177.5940  139.8680 C   0  0  1  0  0  3  0  0  0  0  0  0
  188.3700  177.2510  142.1490 C   0  0  0  0  0  2  0  0  0  0  0  0
  190.9070  177.2550  140.0110 C   0  0  0  0  0  0  0  0  0  0  0  0
  190.0530  174.6170  138.4290 O   0  0  0  0  0  0  0  0  0  0  0  0
  187.8210  177.8450  137.9210 C   0  0  0  0  0  2  0  0  0  0  0  0
  190.2330  175.6030  137.6630 C   0  0  0  0  0  0  0  0  0  0  0  0
  190.3720  175.9310  134.6570 C   0  0  2  0  0  3  0  0  0  0  0  0
  191.9000  174.2070  135.3850 C   0  0  0  0  0  2  0  0  0  0  0  0
  188.8130  178.2820  141.1100 C   0  0  2  0  0  3  0  0  0  0  0  0
  187.7160  179.0850  140.7870 O   0  0  0  0  0  1  0  0  0  0  0  0
  191.8000  175.6960  135.1630 C   0  0  2  0  0  3  0  0  0  0  0  0
  194.5840  177.1520  136.1560 O   0  0  0  0  0  0  0  0  0  0  0  0
  195.2020  176.4880  135.0960 C   0  0  0  0  0  2  0  0  0  0  0  0
  196.2550  175.5440  135.6410 C   0  0  0  0  0  2  0  0  0  0  0  0
  197.3240  176.2840  136.1430 O   0  0  0  0  0  1  0  0  0  0  0  0
  1 18  1  1  0  0  0
  3 16  1  0  0  0  0
  4 21  1  6  0  0  0
  4  5  1  0  0  0  0
  4  1  1  0  0  0  0
  5 10  1  6  0  0  0
  5  1  1  0  0  0  0
  6 23  1  0  0  0  0
  7 27  1  6  0  0  0
  7 10  1  0  0  0  0
  8  9  1  0  0  0  0
  8 21  1  0  0  0  0
  9 20  1  0  0  0  0
 11  7  1  0  0  0  0
 11  4  1  0  0  0  0
 12  2  1  0  0  0  0
 13  8  1  0  0  0  0
 14  6  1  0  0  0  0
 14 22  1  0  0  0  0
 15  2  1  0  0  0  0
 16 18  1  0  0  0  0
 16 24  1  0  0  0  0
 17 12  1  0  0  0  0
 18 15  2  0  0  0  0
 20  3  1  0  0  0  0
 21 19  2  0  0  0  0
 22 26  1  0  0  0  0
 22 13  1  0  0  0  0
 24 17  1  0  0  0  0
 25 24  1  0  0  0  0
 26 23  1  0  0  0  0
 26 11  1  0  0  0  0
 28 29  1  0  0  0  0
 28 27  1  0  0  0  0
 29 30  1  0  0  0  0
M  END
>  <MODEL>
1

>  <REMARK>
 VINA RESULT:      -6.0      0.000      0.000
  Name = 
  3 active torsions:
  status: ('A' for Active; 'I' for Inactive)
    1  A    between atoms: O_6  and  C_8
    2  A    between atoms: O_6  and  C_21
    3  A    between atoms: C_9  and  C_21
                            x       y       z     vdW  Elec       q    Type
                         _______ _______ _______ _____ _____    ______ ____

>  <TORSDO>
F 3

$$$$
=
 OpenBabel10272414003D

 30 35  0  0  1  0  0  0  0  0999 V2000
  190.9670  175.5920  138.3640 C   0  0  2  0  0  3  0  0  0  0  0  0
  194.5870  175.1050  137.0010 C   0  0  0  0  0  2  0  0  0  0  0  0
  190.4130  173.2590  136.6590 C   0  0  0  0  0  2  0  0  0  0  0  0
  189.8240  176.3350  137.6530 C   0  0  2  0  0  0  0  0  0  0  0  0
  190.9470  177.1250  138.2550 C   0  0  1  0  0  3  0  0  0  0  0  0
  186.7320  178.5050  135.7710 C   0  0  0  0  0  2  0  0  0  0  0  0
  189.1130  177.7070  139.4580 C   0  0  1  0  0  3  0  0  0  0  0  0
  188.7900  175.3540  135.5720 N   0  0  0  0  0  0  0  0  0  0  0  0
  189.2990  174.3650  134.6320 C   0  0  0  0  0  2  0  0  0  0  0  0
  190.5200  177.6630  139.4860 O   0  0  0  0  0  0  0  0  0  0  0  0
  188.6010  176.6770  138.4710 C   0  0  1  0  0  3  0  0  0  0  0  0
  194.3840  174.8930  135.5100 C   0  0  0  0  0  2  0  0  0  0  0  0
  187.5350  175.0580  136.2670 C   0  0  0  0  0  2  0  0  0  0  0  0
  186.4720  177.1100  135.4320 N   0  0  0  0  0  2  0  0  0  0  0  0
  193.3100  175.5160  137.6810 C   0  0  0  0  0  3  0  0  0  0  0  0
  191.7630  173.9430  136.4240 C   0  0  1  0  0  3  0  0  0  0  0  0
  193.9400  173.4590  135.2270 C   0  0  0  0  0  2  0  0  0  0  0  0
  192.0680  175.0170  137.4800 C   0  0  0  0  0  0  0  0  0  0  0  0
  190.5260  176.9120  135.4230 O   0  0  0  0  0  0  0  0  0  0  0  0
  189.6560  173.0510  135.3440 C   0  0  0  0  0  2  0  0  0  0  0  0
  189.7390  176.2520  136.1560 C   0  0  0  0  0  0  0  0  0  0  0  0
  186.7510  176.3250  136.6310 C   0  0  2  0  0  3  0  0  0  0  0  0
  187.7030  178.5270  136.9270 C   0  0  0  0  0  2  0  0  0  0  0  0
  192.9060  172.9290  136.2210 C   0  0  2  0  0  3  0  0  0  0  0  0
  192.4410  171.6950  135.7600 O   0  0  0  0  0  1  0  0  0  0  0  0
  187.4060  177.2460  137.6680 C   0  0  2  0  0  3  0  0  0  0  0  0
  188.6070  177.4350  140.7300 O   0  0  0  0  0  0  0  0  0  0  0  0
  188.1810  178.6720  141.2160 C   0  0  0  0  0  2  0  0  0  0  0  0
  186.6920  178.6190  141.4900 C   0  0  0  0  0  2  0  0  0  0  0  0
  186.0000  179.0740  140.3690 O   0  0  0  0  0  1  0  0  0  0  0  0
  1 18  1  6  0  0  0
  2 15  1  0  0  0  0
  4 21  1  6  0  0  0
  4  5  1  0  0  0  0
  4  1  1  0  0  0  0
  4 11  1  0  0  0  0
  5  1  1  0  0  0  0
  5 10  1  1  0  0  0
  6 23  1  0  0  0  0
  7 10  1  0  0  0  0
  7 27  1  1  0  0  0
  8 21  1  0  0  0  0
  8 13  1  0  0  0  0
  9 20  1  0  0  0  0
  9  8  1  0  0  0  0
 11  7  1  0  0  0  0
 12  2  1  0  0  0  0
 13 22  1  0  0  0  0
 14  6  1  0  0  0  0
 14 22  1  0  0  0  0
 16  3  1  0  0  0  0
 16 18  1  0  0  0  0
 17 12  1  0  0  0  0
 17 24  1  0  0  0  0
 18 15  2  0  0  0  0
 19 21  2  0  0  0  0
 20  3  1  0  0  0  0
 22 26  1  0  0  0  0
 23 26  1  0  0  0  0
 24 16  1  0  0  0  0
 25 24  1  0  0  0  0
 26 11  1  0  0  0  0
 27 28  1  0  0  0  0
 28 29  1  0  0  0  0
 30 29  1  0  0  0  0
M  END
>  <MODEL>
2

>  <REMARK>
 VINA RESULT:      -5.9      2.347      6.350
  Name = 
  3 active torsions:
  status: ('A' for Active; 'I' for Inactive)
    1  A    between atoms: O_6  and  C_8
    2  A    between atoms: O_6  and  C_21
    3  A    between atoms: C_9  and  C_21
                            x       y       z     vdW  Elec       q    Type
                         _______ _______ _______ _____ _____    ______ ____

>  <TORSDO>
F 3

$$$$
=
 OpenBabel10272414003D

 30 35  0  0  1  0  0  0  0  0999 V2000
  191.5250  175.0310  138.1150 C   0  0  2  0  0  3  0  0  0  0  0  0
  194.7190  174.0380  136.1130 C   0  0  0  0  0  2  0  0  0  0  0  0
  190.2560  173.0520  136.3460 C   0  0  0  0  0  2  0  0  0  0  0  0
  190.4600  176.0500  137.6750 C   0  0  2  0  0  0  0  0  0  0  0  0
  191.7990  176.5440  138.1370 C   0  0  1  0  0  3  0  0  0  0  0  0
  187.6200  178.9580  136.5390 C   0  0  0  0  0  2  0  0  0  0  0  0
  190.3260  177.3160  139.6810 C   0  0  1  0  0  3  0  0  0  0  0  0
  188.9440  175.5230  135.7300 N   0  0  0  0  0  0  0  0  0  0  0  0
  189.0920  174.5700  134.6390 C   0  0  0  0  0  2  0  0  0  0  0  0
  191.6830  177.0080  139.4630 O   0  0  0  0  0  0  0  0  0  0  0  0
  189.4720  176.5180  138.7170 C   0  0  1  0  0  3  0  0  0  0  0  0
  194.2520  174.0400  134.6670 C   0  0  0  0  0  2  0  0  0  0  0  0
  187.7760  175.3880  136.6050 C   0  0  0  0  0  2  0  0  0  0  0  0
  187.0350  177.6840  136.1360 N   0  0  0  0  0  2  0  0  0  0  0  0
  193.6710  174.5990  137.0350 C   0  0  0  0  0  3  0  0  0  0  0  0
  191.6640  173.4950  135.9390 C   0  0  1  0  0  3  0  0  0  0  0  0
  193.4900  172.7550  134.3480 C   0  0  0  0  0  2  0  0  0  0  0  0
  192.3380  174.3670  137.0100 C   0  0  0  0  0  0  0  0  0  0  0  0
  190.9150  176.7370  135.4120 O   0  0  0  0  0  0  0  0  0  0  0  0
  189.2810  173.1400  135.1680 C   0  0  0  0  0  2  0  0  0  0  0  0
  190.1330  176.1560  136.2130 C   0  0  0  0  0  0  0  0  0  0  0  0
  187.3300  176.7290  137.2000 C   0  0  2  0  0  3  0  0  0  0  0  0
  188.7410  178.6670  137.5070 C   0  0  0  0  0  2  0  0  0  0  0  0
  192.5340  172.3170  135.4590 C   0  0  2  0  0  3  0  0  0  0  0  0
  191.7640  171.2520  134.9850 O   0  0  0  0  0  1  0  0  0  0  0  0
  188.3080  177.3880  138.1810 C   0  0  2  0  0  3  0  0  0  0  0  0
  189.9760  176.9990  140.9950 O   0  0  0  0  0  0  0  0  0  0  0  0
  191.1360  177.2230  141.7370 C   0  0  0  0  0  2  0  0  0  0  0  0
  191.0430  176.4800  143.0530 C   0  0  0  0  0  2  0  0  0  0  0  0
  190.3950  175.2630  142.8530 O   0  0  0  0  0  1  0  0  0  0  0  0
  1 18  1  6  0  0  0
  1  5  1  0  0  0  0
  2 15  1  0  0  0  0
  4 21  1  6  0  0  0
  4  1  1  0  0  0  0
  4  5  1  0  0  0  0
  4 11  1  0  0  0  0
  5 10  1  1  0  0  0
  6 23  1  0  0  0  0
  7 27  1  1  0  0  0
  8 21  1  0  0  0  0
  8 13  1  0  0  0  0
  9 20  1  0  0  0  0
  9  8  1  0  0  0  0
 10  7  1  0  0  0  0
 11  7  1  0  0  0  0
 12  2  1  0  0  0  0
 13 22  1  0  0  0  0
 14  6  1  0  0  0  0
 14 22  1  0  0  0  0
 16  3  1  0  0  0  0
 16 18  1  0  0  0  0
 17 12  1  0  0  0  0
 17 24  1  0  0  0  0
 18 15  2  0  0  0  0
 19 21  2  0  0  0  0
 20  3  1  0  0  0  0
 22 26  1  0  0  0  0
 23 26  1  0  0  0  0
 24 16  1  0  0  0  0
 25 24  1  0  0  0  0
 26 11  1  0  0  0  0
 27 28  1  0  0  0  0
 28 29  1  0  0  0  0
 30 29  1  0  0  0  0
M  END
>  <MODEL>
3

>  <REMARK>
 VINA RESULT:      -5.8      2.163      6.085
  Name = 
  3 active torsions:
  status: ('A' for Active; 'I' for Inactive)
    1  A    between atoms: O_6  and  C_8
    2  A    between atoms: O_6  and  C_21
    3  A    between atoms: C_9  and  C_21
                            x       y       z     vdW  Elec       q    Type
                         _______ _______ _______ _____ _____    ______ ____

>  <TORSDO>
F 3

$$$$
=
 OpenBabel10272414003D

 30 35  0  0  1  0  0  0  0  0999 V2000
  192.4750  176.7960  137.9830 C   0  0  2  0  0  3  0  0  0  0  0  0
  190.6210  177.6510  141.3050 C   0  0  0  0  0  2  0  0  0  0  0  0
  189.9370  177.6730  136.7790 C   0  0  0  0  0  2  0  0  0  0  0  0
  192.3540  175.4840  137.1900 C   0  0  2  0  0  0  0  0  0  0  0  0
  193.1210  175.4920  138.4780 C   0  0  1  0  0  3  0  0  0  0  0  0
  192.1380  171.8270  135.0950 C   0  0  0  0  0  2  0  0  0  0  0  0
  194.6670  175.0400  136.8790 C   0  0  1  0  0  3  0  0  0  0  0  0
  190.1990  174.9290  136.0020 N   0  0  0  0  0  0  0  0  0  0  0  0
  188.8450  175.4270  136.2040 C   0  0  0  0  0  2  0  0  0  0  0  0
  194.5000  175.5300  138.1880 O   0  0  0  0  0  0  0  0  0  0  0  0
  193.3750  175.2290  136.1080 C   0  0  1  0  0  3  0  0  0  0  0  0
  189.2500  177.0220  141.1220 C   0  0  0  0  0  2  0  0  0  0  0  0
  190.8110  175.1200  134.6840 C   0  0  0  0  0  2  0  0  0  0  0  0
  191.2030  172.7090  134.4070 N   0  0  0  0  0  2  0  0  0  0  0  0
  191.5630  177.2540  140.2020 C   0  0  0  0  0  3  0  0  0  0  0  0
  189.9010  177.4250  138.2900 C   0  0  1  0  0  3  0  0  0  0  0  0
  188.3660  177.9070  140.2450 C   0  0  0  0  0  2  0  0  0  0  0  0
  191.2970  177.1700  138.8770 C   0  0  0  0  0  0  0  0  0  0  0  0
  190.6110  174.1350  138.1610 O   0  0  0  0  0  0  0  0  0  0  0  0
  188.7870  176.9560  136.0680 C   0  0  0  0  0  2  0  0  0  0  0  0
  191.0250  174.7860  137.1620 C   0  0  0  0  0  0  0  0  0  0  0  0
  191.8320  174.0260  134.3460 C   0  0  2  0  0  3  0  0  0  0  0  0
  193.0350  172.6840  135.9560 C   0  0  0  0  0  2  0  0  0  0  0  0
  189.0980  178.5050  139.0430 C   0  0  2  0  0  3  0  0  0  0  0  0
  188.1590  179.1320  138.2200 O   0  0  0  0  0  1  0  0  0  0  0  0
  193.0970  173.9960  135.2130 C   0  0  2  0  0  3  0  0  0  0  0  0
  195.7000  175.7310  136.2440 O   0  0  0  0  0  0  0  0  0  0  0  0
  196.3560  174.7660  135.4790 C   0  0  0  0  0  2  0  0  0  0  0  0
  197.8360  174.7850  135.8060 C   0  0  0  0  0  2  0  0  0  0  0  0
  198.0760  175.7250  136.8060 O   0  0  0  0  0  1  0  0  0  0  0  0
  1  5  1  0  0  0  0
  1 18  1  1  0  0  0
  3 16  1  0  0  0  0
  4 21  1  6  0  0  0
  4  1  1  0  0  0  0
  4  5  1  0  0  0  0
  5 10  1  6  0  0  0
  6 23  1  0  0  0  0
  7 27  1  6  0  0  0
  7 10  1  0  0  0  0
  8  9  1  0  0  0  0
  8 21  1  0  0  0  0
 11  7  1  0  0  0  0
 11  4  1  0  0  0  0
 12  2  1  0  0  0  0
 13  8  1  0  0  0  0
 14  6  1  0  0  0  0
 15  2  1  0  0  0  0
 16 18  1  0  0  0  0
 16 24  1  0  0  0  0
 17 12  1  0  0  0  0
 18 15  2  0  0  0  0
 20  9  1  0  0  0  0
 20  3  1  0  0  0  0
 21 19  2  0  0  0  0
 22 14  1  0  0  0  0
 22 13  1  0  0  0  0
 22 26  1  0  0  0  0
 24 17  1  0  0  0  0
 25 24  1  0  0  0  0
 26 23  1  0  0  0  0
 26 11  1  0  0  0  0
 28 29  1  0  0  0  0
 28 27  1  0  0  0  0
 29 30  1  0  0  0  0
M  END
>  <MODEL>
4

>  <REMARK>
 VINA RESULT:      -5.6      1.402      1.790
  Name = 
  3 active torsions:
  status: ('A' for Active; 'I' for Inactive)
    1  A    between atoms: O_6  and  C_8
    2  A    between atoms: O_6  and  C_21
    3  A    between atoms: C_9  and  C_21
                            x       y       z     vdW  Elec       q    Type
                         _______ _______ _______ _____ _____    ______ ____

>  <TORSDO>
F 3

$$$$
=
 OpenBabel10272414003D

 30 35  0  0  1  0  0  0  0  0999 V2000
  187.6390  172.9250  136.9570 C   0  0  2  0  0  3  0  0  0  0  0  0
  186.0270  169.9140  135.0760 C   0  0  0  0  0  2  0  0  0  0  0  0
  184.8400  173.5030  137.6560 C   0  0  0  0  0  2  0  0  0  0  0  0
  187.7630  174.3620  136.4260 C   0  0  2  0  0  0  0  0  0  0  0  0
  188.6480  173.2930  135.8570 C   0  0  1  0  0  3  0  0  0  0  0  0
  188.2420  178.2710  134.9080 C   0  0  0  0  0  2  0  0  0  0  0  0
  190.0610  174.7240  136.9090 C   0  0  1  0  0  3  0  0  0  0  0  0
  185.6980  175.7830  136.1490 N   0  0  0  0  0  0  0  0  0  0  0  0
  184.2950  175.4100  136.0320 C   0  0  0  0  0  2  0  0  0  0  0  0
  189.9290  173.4050  136.4340 O   0  0  0  0  0  0  0  0  0  0  0  0
  188.6840  175.3010  137.1680 C   0  0  1  0  0  3  0  0  0  0  0  0
  184.8480  170.5360  134.3460 C   0  0  0  0  0  2  0  0  0  0  0  0
  186.0840  176.6600  137.2580 C   0  0  0  0  0  2  0  0  0  0  0  0
  187.0400  178.3330  135.7320 N   0  0  0  0  0  2  0  0  0  0  0  0
  186.9050  170.9620  135.7040 C   0  0  0  0  0  3  0  0  0  0  0  0
  185.0430  172.4710  136.5430 C   0  0  1  0  0  3  0  0  0  0  0  0
  183.6740  170.7420  135.3010 C   0  0  0  0  0  2  0  0  0  0  0  0
  186.5170  172.0720  136.3740 C   0  0  0  0  0  0  0  0  0  0  0  0
  186.5450  174.5470  134.3560 O   0  0  0  0  0  0  0  0  0  0  0  0
  183.8350  174.5810  137.2410 C   0  0  0  0  0  2  0  0  0  0  0  0
  186.6610  174.9030  135.5610 C   0  0  0  0  0  0  0  0  0  0  0  0
  187.3030  177.5290  136.9220 C   0  0  2  0  0  3  0  0  0  0  0  0
  188.9850  177.0080  135.2680 C   0  0  0  0  0  2  0  0  0  0  0  0
  184.0850  171.2700  136.6750 C   0  0  2  0  0  3  0  0  0  0  0  0
  182.9290  171.5940  137.3900 O   0  0  0  0  0  1  0  0  0  0  0  0
  188.6250  176.7810  136.7150 C   0  0  2  0  0  3  0  0  0  0  0  0
  190.8050  174.7290  138.0900 O   0  0  0  0  0  0  0  0  0  0  0  0
  192.1360  174.7370  137.6720 C   0  0  0  0  0  2  0  0  0  0  0  0
  192.4990  176.1210  137.1740 C   0  0  0  0  0  2  0  0  0  0  0  0
  193.8150  176.4100  137.5270 O   0  0  0  0  0  1  0  0  0  0  0  0
  1 18  1  6  0  0  0
  2 15  1  0  0  0  0
  4 21  1  6  0  0  0
  4  1  1  0  0  0  0
  4 11  1  0  0  0  0
  5  4  1  0  0  0  0
  5 10  1  1  0  0  0
  5  1  1  0  0  0  0
  6 23  1  0  0  0  0
  6 14  1  0  0  0  0
  7 11  1  0  0  0  0
  7 27  1  1  0  0  0
  8 13  1  0  0  0  0
  9  8  1  0  0  0  0
  9 20  1  0  0  0  0
 10  7  1  0  0  0  0
 12  2  1  0  0  0  0
 12 17  1  0  0  0  0
 14 22  1  0  0  0  0
 15 18  2  0  0  0  0
 16 24  1  0  0  0  0
 16  3  1  0  0  0  0
 17 24  1  0  0  0  0
 18 16  1  0  0  0  0
 19 21  2  0  0  0  0
 20  3  1  0  0  0  0
 21  8  1  0  0  0  0
 22 13  1  0  0  0  0
 23 26  1  0  0  0  0
 24 25  1  0  0  0  0
 26 22  1  0  0  0  0
 26 11  1  0  0  0  0
 28 27  1  0  0  0  0
 29 30  1  0  0  0  0
 29 28  1  0  0  0  0
M  END
>  <MODEL>
5

>  <REMARK>
 VINA RESULT:      -5.1      3.960      6.372
  Name = 
  3 active torsions:
  status: ('A' for Active; 'I' for Inactive)
    1  A    between atoms: O_6  and  C_8
    2  A    between atoms: O_6  and  C_21
    3  A    between atoms: C_9  and  C_21
                            x       y       z     vdW  Elec       q    Type
                         _______ _______ _______ _____ _____    ______ ____

>  <TORSDO>
F 3

$$$$
=
 OpenBabel10272414003D

 30 35  0  0  1  0  0  0  0  0999 V2000
  193.2120  174.9230  137.8300 C   0  0  2  0  0  3  0  0  0  0  0  0
  196.6590  174.7420  136.0180 C   0  0  0  0  0  2  0  0  0  0  0  0
  192.6610  172.5240  136.2180 C   0  0  0  0  0  2  0  0  0  0  0  0
  191.9250  175.5500  137.2680 C   0  0  2  0  0  0  0  0  0  0  0  0
  193.0400  176.4460  137.7190 C   0  0  1  0  0  3  0  0  0  0  0  0
  188.4350  177.4050  135.7880 C   0  0  0  0  0  2  0  0  0  0  0  0
  191.3270  176.8800  139.1440 C   0  0  1  0  0  3  0  0  0  0  0  0
  190.7290  174.4490  135.3400 N   0  0  0  0  0  0  0  0  0  0  0  0
  191.2030  173.4950  134.3460 C   0  0  0  0  0  2  0  0  0  0  0  0
  192.7250  176.9630  138.9920 O   0  0  0  0  0  0  0  0  0  0  0  0
  190.7900  175.7930  138.2340 C   0  0  1  0  0  3  0  0  0  0  0  0
  196.2890  174.4900  134.5660 C   0  0  0  0  0  2  0  0  0  0  0  0
  189.6040  174.0520  136.1900 C   0  0  0  0  0  2  0  0  0  0  0  0
  188.2630  175.9880  135.4900 N   0  0  0  0  0  2  0  0  0  0  0  0
  195.4470  175.0470  136.8540 C   0  0  0  0  0  3  0  0  0  0  0  0
  193.9020  173.3230  135.8110 C   0  0  1  0  0  3  0  0  0  0  0  0
  195.9450  173.0180  134.3470 C   0  0  0  0  0  2  0  0  0  0  0  0
  194.2400  174.4360  136.8140 C   0  0  0  0  0  0  0  0  0  0  0  0
  192.2840  176.1530  134.9650 O   0  0  0  0  0  0  0  0  0  0  0  0
  191.7660  172.2300  135.0110 C   0  0  0  0  0  2  0  0  0  0  0  0
  191.6600  175.4370  135.7950 C   0  0  0  0  0  0  0  0  0  0  0  0
  188.7610  175.2500  136.6460 C   0  0  2  0  0  3  0  0  0  0  0  0
  189.5390  177.5320  136.8110 C   0  0  0  0  0  2  0  0  0  0  0  0
  195.0980  172.4120  135.4670 C   0  0  2  0  0  3  0  0  0  0  0  0
  194.6920  171.1350  135.0730 O   0  0  0  0  0  1  0  0  0  0  0  0
  189.4560  176.2410  137.5880 C   0  0  2  0  0  3  0  0  0  0  0  0
  191.0130  176.5830  140.4710 O   0  0  0  0  0  0  0  0  0  0  0  0
  189.8540  177.3140  140.7350 C   0  0  0  0  0  2  0  0  0  0  0  0
  189.5380  177.2380  142.2140 C   0  0  0  0  0  2  0  0  0  0  0  0
  189.6980  175.9260  142.6550 O   0  0  0  0  0  1  0  0  0  0  0  0
  1 18  1  6  0  0  0
  2 15  1  0  0  0  0
  4 21  1  6  0  0  0
  4  5  1  0  0  0  0
  4  1  1  0  0  0  0
  4 11  1  0  0  0  0
  5  1  1  0  0  0  0
  5 10  1  1  0  0  0
  6 23  1  0  0  0  0
  7 27  1  1  0  0  0
  8 21  1  0  0  0  0
  8 13  1  0  0  0  0
  9 20  1  0  0  0  0
  9  8  1  0  0  0  0
 10  7  1  0  0  0  0
 11  7  1  0  0  0  0
 12  2  1  0  0  0  0
 13 22  1  0  0  0  0
 14  6  1  0  0  0  0
 14 22  1  0  0  0  0
 16  3  1  0  0  0  0
 16 18  1  0  0  0  0
 17 12  1  0  0  0  0
 17 24  1  0  0  0  0
 18 15  2  0  0  0  0
 19 21  2  0  0  0  0
 20  3  1  0  0  0  0
 22 26  1  0  0  0  0
 23 26  1  0  0  0  0
 24 16  1  0  0  0  0
 25 24  1  0  0  0  0
 26 11  1  0  0  0  0
 27 28  1  0  0  0  0
 28 29  1  0  0  0  0
 29 30  1  0  0  0  0
M  END
>  <MODEL>
6

>  <REMARK>
 VINA RESULT:      -5.1      2.136      6.479
  Name = 
  3 active torsions:
  status: ('A' for Active; 'I' for Inactive)
    1  A    between atoms: O_6  and  C_8
    2  A    between atoms: O_6  and  C_21
    3  A    between atoms: C_9  and  C_21
                            x       y       z     vdW  Elec       q    Type
                         _______ _______ _______ _____ _____    ______ ____

>  <TORSDO>
F 3

$$$$
=
 OpenBabel10272414003D

 30 35  0  0  1  0  0  0  0  0999 V2000
  184.2020  179.1760  140.0800 C   0  0  2  0  0  3  0  0  0  0  0  0
  183.6260  179.1160  143.9360 C   0  0  0  0  0  2  0  0  0  0  0  0
  181.2950  179.6250  140.0300 C   0  0  0  0  0  2  0  0  0  0  0  0
  183.9980  177.9960  139.1160 C   0  0  2  0  0  0  0  0  0  0  0  0
  185.1830  177.9920  140.0350 C   0  0  1  0  0  3  0  0  0  0  0  0
  183.5840  174.7160  136.4920 C   0  0  0  0  0  2  0  0  0  0  0  0
  186.0630  178.1270  137.9470 C   0  0  1  0  0  3  0  0  0  0  0  0
  181.6700  177.1470  138.6440 N   0  0  0  0  0  0  0  0  0  0  0  0
  180.4320  177.2960  139.3970 C   0  0  0  0  0  2  0  0  0  0  0  0
  186.3270  178.3770  139.3080 O   0  0  0  0  0  0  0  0  0  0  0  0
  184.5630  178.1300  137.7220 C   0  0  1  0  0  3  0  0  0  0  0  0
  182.4030  178.2300  144.1020 C   0  0  0  0  0  2  0  0  0  0  0  0
  181.7030  177.6540  137.2690 C   0  0  0  0  0  2  0  0  0  0  0  0
  182.3330  175.4560  136.3680 N   0  0  0  0  0  2  0  0  0  0  0  0
  184.1330  179.1000  142.5200 C   0  0  0  0  0  3  0  0  0  0  0  0
  181.8690  179.1640  141.3730 C   0  0  1  0  0  3  0  0  0  0  0  0
  181.1280  179.0100  143.7890 C   0  0  0  0  0  2  0  0  0  0  0  0
  183.4050  179.1470  141.3800 C   0  0  0  0  0  0  0  0  0  0  0  0
  182.9830  176.1680  140.3110 O   0  0  0  0  0  0  0  0  0  0  0  0
  180.0890  178.7770  139.6180 C   0  0  0  0  0  2  0  0  0  0  0  0
  182.8830  177.0290  139.3950 C   0  0  0  0  0  0  0  0  0  0  0  0
  182.6790  176.8740  136.3790 C   0  0  2  0  0  3  0  0  0  0  0  0
  184.5930  175.6210  137.1570 C   0  0  0  0  0  2  0  0  0  0  0  0
  181.2500  179.9200  142.5660 C   0  0  2  0  0  3  0  0  0  0  0  0
  179.9850  180.4320  142.2660 O   0  0  0  0  0  1  0  0  0  0  0  0
  184.1650  177.0050  136.7350 C   0  0  2  0  0  3  0  0  0  0  0  0
  186.6600  179.1140  137.1610 O   0  0  0  0  0  0  0  0  0  0  0  0
  187.5720  178.4270  136.3590 C   0  0  0  0  0  2  0  0  0  0  0  0
  188.9740  178.6540  136.8840 C   0  0  0  0  0  2  0  0  0  0  0  0
  188.9820  179.7710  137.7160 O   0  0  0  0  0  1  0  0  0  0  0  0
  1 18  1  1  0  0  0
  2 12  1  0  0  0  0
  3 16  1  0  0  0  0
  4 21  1  1  0  0  0
  4  5  1  0  0  0  0
  4  1  1  0  0  0  0
  5 10  1  6  0  0  0
  5  1  1  0  0  0  0
  6 23  1  0  0  0  0
  7 27  1  6  0  0  0
  7 10  1  0  0  0  0
  8 21  1  0  0  0  0
  8  9  1  0  0  0  0
  9 20  1  0  0  0  0
 11  7  1  0  0  0  0
 11  4  1  0  0  0  0
 13  8  1  0  0  0  0
 14 22  1  0  0  0  0
 14  6  1  0  0  0  0
 15  2  1  0  0  0  0
 16 18  1  0  0  0  0
 16 24  1  0  0  0  0
 17 12  1  0  0  0  0
 18 15  2  0  0  0  0
 20  3  1  0  0  0  0
 21 19  2  0  0  0  0
 22 26  1  0  0  0  0
 22 13  1  0  0  0  0
 24 17  1  0  0  0  0
 25 24  1  0  0  0  0
 26 23  1  0  0  0  0
 26 11  1  0  0  0  0
 28 29  1  0  0  0  0
 28 27  1  0  0  0  0
 29 30  1  0  0  0  0
M  END
>  <MODEL>
7

>  <REMARK>
 VINA RESULT:      -5.0      5.465      7.892
  Name = 
  3 active torsions:
  status: ('A' for Active; 'I' for Inactive)
    1  A    between atoms: O_6  and  C_8
    2  A    between atoms: O_6  and  C_21
    3  A    between atoms: C_9  and  C_21
                            x       y       z     vdW  Elec       q    Type
                         _______ _______ _______ _____ _____    ______ ____

>  <TORSDO>
F 3

$$$$
=
 OpenBabel10272414003D

 30 35  0  0  1  0  0  0  0  0999 V2000
  189.9340  176.2260  138.1900 C   0  0  2  0  0  3  0  0  0  0  0  0
  193.7650  176.5390  137.5360 C   0  0  0  0  0  2  0  0  0  0  0  0
  190.2910  173.6470  136.8190 C   0  0  0  0  0  2  0  0  0  0  0  0
  188.8150  176.5590  137.1900 C   0  0  2  0  0  0  0  0  0  0  0  0
  189.5800  177.6780  137.8310 C   0  0  1  0  0  3  0  0  0  0  0  0
  185.7410  177.6180  134.4990 C   0  0  0  0  0  2  0  0  0  0  0  0
  187.4580  177.9010  138.6060 C   0  0  1  0  0  3  0  0  0  0  0  0
  188.4750  175.1080  135.1550 N   0  0  0  0  0  0  0  0  0  0  0  0
  189.3780  174.1820  134.4850 C   0  0  0  0  0  2  0  0  0  0  0  0
  188.8020  178.2270  138.8710 O   0  0  0  0  0  0  0  0  0  0  0  0
  187.4080  176.6650  137.7290 C   0  0  1  0  0  3  0  0  0  0  0  0
  193.9180  176.1100  136.0870 C   0  0  0  0  0  2  0  0  0  0  0  0
  187.2100  174.5790  135.6730 C   0  0  0  0  0  2  0  0  0  0  0  0
  185.8870  176.1740  134.3520 N   0  0  0  0  0  2  0  0  0  0  0  0
  192.3180  176.6810  137.9220 C   0  0  0  0  0  3  0  0  0  0  0  0
  191.4630  174.6250  136.7010 C   0  0  1  0  0  3  0  0  0  0  0  0
  193.8870  174.5870  135.9720 C   0  0  0  0  0  2  0  0  0  0  0  0
  191.2930  175.8570  137.6030 C   0  0  0  0  0  0  0  0  0  0  0  0
  189.7930  177.0340  135.0410 O   0  0  0  0  0  0  0  0  0  0  0  0
  189.8820  173.0980  135.4490 C   0  0  0  0  0  2  0  0  0  0  0  0
  189.0520  176.2830  135.7330 C   0  0  0  0  0  0  0  0  0  0  0  0
  186.0960  175.6340  135.6920 C   0  0  2  0  0  3  0  0  0  0  0  0
  186.4290  178.0260  135.7790 C   0  0  0  0  0  2  0  0  0  0  0  0
  192.8290  173.9260  136.8560 C   0  0  2  0  0  3  0  0  0  0  0  0
  192.7650  172.5690  136.5310 O   0  0  0  0  0  1  0  0  0  0  0  0
  186.2980  176.8070  136.6590 C   0  0  2  0  0  3  0  0  0  0  0  0
  186.7860  177.6560  139.8050 O   0  0  0  0  0  0  0  0  0  0  0  0
  186.3530  178.9120  140.2320 C   0  0  0  0  0  2  0  0  0  0  0  0
  184.8530  179.0160  140.0470 C   0  0  0  0  0  2  0  0  0  0  0  0
  184.5700  179.9950  139.0970 O   0  0  0  0  0  1  0  0  0  0  0  0
  1 18  1  6  0  0  0
  2 15  1  0  0  0  0
  4 21  1  6  0  0  0
  4 11  1  0  0  0  0
  4  5  1  0  0  0  0
  4  1  1  0  0  0  0
  5  1  1  0  0  0  0
  5 10  1  1  0  0  0
  6 23  1  0  0  0  0
  7 10  1  0  0  0  0
  7 27  1  1  0  0  0
  8 13  1  0  0  0  0
  8 21  1  0  0  0  0
  9  8  1  0  0  0  0
  9 20  1  0  0  0  0
 11  7  1  0  0  0  0
 12  2  1  0  0  0  0
 13 22  1  0  0  0  0
 14  6  1  0  0  0  0
 14 22  1  0  0  0  0
 16  3  1  0  0  0  0
 16 24  1  0  0  0  0
 16 18  1  0  0  0  0
 17 12  1  0  0  0  0
 17 24  1  0  0  0  0
 18 15  2  0  0  0  0
 19 21  2  0  0  0  0
 20  3  1  0  0  0  0
 22 26  1  0  0  0  0
 23 26  1  0  0  0  0
 25 24  1  0  0  0  0
 26 11  1  0  0  0  0
 27 28  1  0  0  0  0
 29 28  1  0  0  0  0
 30 29  1  0  0  0  0
M  END
>  <MODEL>
8

>  <REMARK>
 VINA RESULT:      -4.8      2.626      6.532
  Name = 
  3 active torsions:
  status: ('A' for Active; 'I' for Inactive)
    1  A    between atoms: O_6  and  C_8
    2  A    between atoms: O_6  and  C_21
    3  A    between atoms: C_9  and  C_21
                            x       y       z     vdW  Elec       q    Type
                         _______ _______ _______ _____ _____    ______ ____

>  <TORSDO>
F 3

$$$$
=
 OpenBabel10272414003D

 30 35  0  0  1  0  0  0  0  0999 V2000
  186.2580  177.1820  138.0940 C   0  0  2  0  0  3  0  0  0  0  0  0
  189.2620  177.6570  135.6560 C   0  0  0  0  0  2  0  0  0  0  0  0
  186.3920  174.4080  137.1230 C   0  0  0  0  0  2  0  0  0  0  0  0
  184.7680  177.2030  137.7120 C   0  0  2  0  0  0  0  0  0  0  0  0
  185.5360  178.4910  137.7360 C   0  0  1  0  0  3  0  0  0  0  0  0
  180.6800  177.4140  136.6870 C   0  0  0  0  0  2  0  0  0  0  0  0
  183.9910  178.7010  139.3840 C   0  0  1  0  0  3  0  0  0  0  0  0
  183.7990  175.3300  136.3280 N   0  0  0  0  0  0  0  0  0  0  0  0
  184.4460  174.3590  135.4560 C   0  0  0  0  0  2  0  0  0  0  0  0
  185.2310  179.1840  138.9250 O   0  0  0  0  0  0  0  0  0  0  0  0
  183.7630  177.3070  138.8340 C   0  0  1  0  0  3  0  0  0  0  0  0
  188.8150  176.9440  134.3920 C   0  0  0  0  0  2  0  0  0  0  0  0
  183.0170  174.8240  137.4590 C   0  0  0  0  0  2  0  0  0  0  0  0
  180.9890  175.9890  136.7070 N   0  0  0  0  0  2  0  0  0  0  0  0
  188.1450  177.7610  136.6580 C   0  0  0  0  0  3  0  0  0  0  0  0
  187.1970  175.4300  136.3160 C   0  0  1  0  0  3  0  0  0  0  0  0
  188.9960  175.4340  134.5340 C   0  0  0  0  0  2  0  0  0  0  0  0
  187.2450  176.8080  136.9940 C   0  0  0  0  0  0  0  0  0  0  0  0
  184.5720  177.2890  135.3130 O   0  0  0  0  0  0  0  0  0  0  0  0
  185.5090  173.5500  136.2130 C   0  0  0  0  0  2  0  0  0  0  0  0
  184.3650  176.6440  136.3780 C   0  0  0  0  0  0  0  0  0  0  0  0
  181.8700  175.7650  137.8490 C   0  0  2  0  0  3  0  0  0  0  0  0
  181.7910  178.1390  137.4070 C   0  0  0  0  0  2  0  0  0  0  0  0
  188.5820  174.8930  135.9030 C   0  0  2  0  0  3  0  0  0  0  0  0
  188.6130  173.4970  135.8560 O   0  0  0  0  0  1  0  0  0  0  0  0
  182.2830  177.1290  138.4140 C   0  0  2  0  0  3  0  0  0  0  0  0
  183.9860  178.6640  140.7800 O   0  0  0  0  0  0  0  0  0  0  0  0
  185.2350  179.1620  141.1530 C   0  0  0  0  0  2  0  0  0  0  0  0
  185.6100  178.6110  142.5140 C   0  0  0  0  0  2  0  0  0  0  0  0
  184.4520  178.3770  143.2530 O   0  0  0  0  0  1  0  0  0  0  0  0
  1 18  1  6  0  0  0
  2 15  1  0  0  0  0
  4 21  1  6  0  0  0
  4  5  1  0  0  0  0
  4  1  1  0  0  0  0
  4 11  1  0  0  0  0
  5  1  1  0  0  0  0
  5 10  1  1  0  0  0
  6 14  1  0  0  0  0
  6 23  1  0  0  0  0
  7 27  1  1  0  0  0
  8 21  1  0  0  0  0
  8 13  1  0  0  0  0
  9 20  1  0  0  0  0
  9  8  1  0  0  0  0
 10  7  1  0  0  0  0
 11  7  1  0  0  0  0
 12 17  1  0  0  0  0
 12  2  1  0  0  0  0
 13 22  1  0  0  0  0
 14 22  1  0  0  0  0
 15 18  2  0  0  0  0
 16 18  1  0  0  0  0
 16  3  1  0  0  0  0
 17 24  1  0  0  0  0
 19 21  2  0  0  0  0
 20  3  1  0  0  0  0
 22 26  1  0  0  0  0
 23 26  1  0  0  0  0
 24 16  1  0  0  0  0
 25 24  1  0  0  0  0
 26 11  1  0  0  0  0
 27 28  1  0  0  0  0
 28 29  1  0  0  0  0
 29 30  1  0  0  0  0
M  END
>  <MODEL>
9

>  <REMARK>
 VINA RESULT:      -4.8      4.528      8.513
  Name = 
  3 active torsions:
  status: ('A' for Active; 'I' for Inactive)
    1  A    between atoms: O_6  and  C_8
    2  A    between atoms: O_6  and  C_21
    3  A    between atoms: C_9  and  C_21
                            x       y       z     vdW  Elec       q    Type
                         _______ _______ _______ _____ _____    ______ ____

>  <TORSDO>
F 3

$$$$
