=
 OpenBabel10272415253D

 34 38  0  0  1  0  0  0  0  0999 V2000
  183.7850  178.3920  141.5850 C   0  0  0  0  0  0  0  0  0  0  0  0
  183.4710  178.4890  144.4850 C   0  0  0  0  0  2  0  0  0  0  0  0
  184.8520  178.3040  142.3830 C   0  0  0  0  0  3  0  0  0  0  0  0
  182.2380  178.5380  143.5630 C   0  0  1  0  0  3  0  0  0  0  0  0
  180.0980  179.9120  143.2310 C   0  0  0  0  0  2  0  0  0  0  0  0
  181.1070  179.3280  144.2290 C   0  0  0  0  0  2  0  0  0  0  0  0
  184.7910  178.8530  143.7820 C   0  0  2  0  0  3  0  0  0  0  0  0
  181.3100  178.9970  141.2190 C   0  0  0  0  0  2  0  0  0  0  0  0
  182.5420  179.0540  142.1410 C   0  0  2  0  0  3  0  0  0  0  0  0
  179.9820  179.0410  141.9820 C   0  0  0  0  0  2  0  0  0  0  0  0
  187.0360  177.9980  146.7350 C   0  0  0  0  0  3  0  0  0  0  0  0
  187.1490  178.0460  143.9310 C   0  0  0  0  0  3  0  0  0  0  0  0
  190.4520  176.8380  146.1830 C   0  0  0  0  0  0  0  0  0  0  0  0
  189.2950  177.2180  146.7920 N   0  0  0  0  0  0  0  0  0  0  0  0
  188.2080  177.6160  146.0780 C   0  0  0  0  0  0  0  0  0  0  0  0
  189.4400  177.2570  144.0260 C   0  0  0  0  0  3  0  0  0  0  0  0
  188.2650  177.6420  144.6680 C   0  0  0  0  0  0  0  0  0  0  0  0
  190.5400  176.8520  144.7830 C   0  0  0  0  0  3  0  0  0  0  0  0
  185.9740  178.4270  144.5890 C   0  0  0  0  0  0  0  0  0  0  0  0
  185.9220  178.4040  145.9930 C   0  0  0  0  0  3  0  0  0  0  0  0
  192.2740  175.3980  146.6730 O   0  0  0  0  0  0  0  0  0  0  0  0
  191.5980  176.4100  146.9990 C   0  0  0  0  0  0  0  0  0  0  0  0
  191.9350  177.1150  148.1480 O   0  0  0  0  0  1  0  0  0  0  0  0
  184.7740  177.9020  137.7950 C   0  0  0  0  0  2  0  0  0  0  0  0
  185.0140  179.7140  139.3280 O   0  0  0  0  0  0  0  0  0  0  0  0
  183.9150  176.6820  137.5740 C   0  0  0  0  0  0  0  0  0  0  0  0
  183.2310  176.1210  138.5820 C   0  0  0  0  0  3  0  0  0  0  0  0
  184.5630  178.5530  139.1350 C   0  0  0  0  0  0  0  0  0  0  0  0
  183.2240  176.6930  139.9380 C   0  0  0  0  0  3  0  0  0  0  0  0
  183.8590  177.8340  140.2180 C   0  0  0  0  0  0  0  0  0  0  0  0
  184.7630  175.0730  135.7570 C   0  0  0  0  0  0  0  0  0  0  0  0
  184.6210  174.6480  134.4440 O   0  0  0  0  0  0  0  0  0  0  0  0
  185.6390  174.5400  136.4880 O   0  0  0  0  0  1  0  0  0  0  0  0
  183.9050  176.1080  136.2580 N   0  0  0  0  0  2  0  0  0  0  0  0
  1  9  1  0  0  0  0
  1  3  2  0  0  0  0
  3  7  1  0  0  0  0
  4  6  1  1  0  0  0
  4  2  1  0  0  0  0
  5  6  1  0  0  0  0
  7  2  1  0  0  0  0
  7 19  1  1  0  0  0
  8 10  1  0  0  0  0
  9  8  1  6  0  0  0
  9  4  1  0  0  0  0
 10  5  1  0  0  0  0
 12 19  2  0  0  0  0
 12 17  1  0  0  0  0
 13 14  1  0  0  0  0
 13 22  1  0  0  0  0
 15 11  1  0  0  0  0
 15 14  2  0  0  0  0
 16 17  2  0  0  0  0
 16 18  1  0  0  0  0
 17 15  1  0  0  0  0
 18 13  2  0  0  0  0
 19 20  1  0  0  0  0
 20 11  2  0  0  0  0
 21 22  2  0  0  0  0
 22 23  1  0  0  0  0
 24 28  1  0  0  0  0
 26 24  1  0  0  0  0
 26 27  2  0  0  0  0
 27 29  1  0  0  0  0
 28 25  2  0  0  0  0
 28 30  1  0  0  0  0
 29 30  2  0  0  0  0
 30  1  1  0  0  0  0
 31 34  1  0  0  0  0
 31 33  1  0  0  0  0
 32 31  2  0  0  0  0
 34 26  1  0  0  0  0
M  END
>  <MODEL>
1

>  <REMARK>
 VINA RESULT:     -10.2      0.000      0.000
  Name = 
  4 active torsions:
  status: ('A' for Active; 'I' for Inactive)
    1  A    between atoms: C_1  and  C_34
    2  A    between atoms: CA_7  and  C_15
    3  A    between atoms: C_18  and  C_30
    4  A    between atoms: C_23  and  N_25
                            x       y       z     vdW  Elec       q    Type
                         _______ _______ _______ _____ _____    ______ ____

>  <TORSDO>
F 4

$$$$
=
 OpenBabel10272415253D

 34 38  0  0  1  0  0  0  0  0999 V2000
  190.8700  176.5940  138.2820 C   0  0  0  0  0  0  0  0  0  0  0  0
  188.4130  177.4950  139.5720 C   0  0  0  0  0  2  0  0  0  0  0  0
  190.8520  176.8570  139.5920 C   0  0  0  0  0  3  0  0  0  0  0  0
  188.4250  177.1420  138.0730 C   0  0  1  0  0  3  0  0  0  0  0  0
  187.6680  178.1240  135.8270 C   0  0  0  0  0  2  0  0  0  0  0  0
  187.3710  177.9660  137.3240 C   0  0  0  0  0  2  0  0  0  0  0  0
  189.8070  177.7780  140.1580 C   0  0  2  0  0  3  0  0  0  0  0  0
  189.8110  176.8000  135.9450 C   0  0  0  0  0  2  0  0  0  0  0  0
  189.8160  177.2520  137.4170 C   0  0  2  0  0  3  0  0  0  0  0  0
  188.4350  176.9210  135.2820 C   0  0  0  0  0  2  0  0  0  0  0  0
  190.9510  177.6850  143.7880 C   0  0  0  0  0  3  0  0  0  0  0  0
  188.5600  177.7010  142.3190 C   0  0  0  0  0  3  0  0  0  0  0  0
  188.5040  177.5910  146.4940 C   0  0  0  0  0  0  0  0  0  0  0  0
  189.6830  177.6190  145.8130 N   0  0  0  0  0  0  0  0  0  0  0  0
  189.7240  177.6540  144.4540 C   0  0  0  0  0  0  0  0  0  0  0  0
  187.3050  177.6310  144.3930 C   0  0  0  0  0  3  0  0  0  0  0  0
  188.5220  177.6600  143.7150 C   0  0  0  0  0  0  0  0  0  0  0  0
  187.2920  177.5960  145.7880 C   0  0  0  0  0  3  0  0  0  0  0  0
  189.7900  177.7330  141.6520 C   0  0  0  0  0  0  0  0  0  0  0  0
  190.9850  177.7220  142.3910 C   0  0  0  0  0  3  0  0  0  0  0  0
  187.8040  176.7280  148.5910 O   0  0  0  0  0  0  0  0  0  0  0  0
  188.5120  177.5600  147.9640 C   0  0  0  0  0  0  0  0  0  0  0  0
  189.2940  178.4630  148.6740 O   0  0  0  0  0  1  0  0  0  0  0  0
  192.5680  173.4110  136.6810 C   0  0  0  0  0  2  0  0  0  0  0  0
  190.4150  173.8170  137.6230 O   0  0  0  0  0  0  0  0  0  0  0  0
  193.9770  173.9460  136.7440 C   0  0  0  0  0  0  0  0  0  0  0  0
  194.2290  175.1940  137.1680 C   0  0  0  0  0  3  0  0  0  0  0  0
  191.5600  174.2830  137.3780 C   0  0  0  0  0  0  0  0  0  0  0  0
  193.1640  176.0860  137.6530 C   0  0  0  0  0  3  0  0  0  0  0  0
  191.8960  175.6750  137.7460 C   0  0  0  0  0  0  0  0  0  0  0  0
  195.8460  172.2110  137.0640 C   0  0  0  0  0  0  0  0  0  0  0  0
  196.8370  171.4640  136.4420 O   0  0  0  0  0  0  0  0  0  0  0  0
  195.6760  172.0990  138.3060 O   0  0  0  0  0  1  0  0  0  0  0  0
  195.0320  173.0920  136.2770 N   0  0  0  0  0  2  0  0  0  0  0  0
  1  3  2  0  0  0  0
  2  7  1  0  0  0  0
  3  7  1  0  0  0  0
  4  6  1  6  0  0  0
  4  2  1  0  0  0  0
  5  6  1  0  0  0  0
  7 19  1  1  0  0  0
  9  8  1  6  0  0  0
  9  4  1  0  0  0  0
  9  1  1  0  0  0  0
 10  5  1  0  0  0  0
 10  8  1  0  0  0  0
 11 15  1  0  0  0  0
 12 17  1  0  0  0  0
 13 22  1  0  0  0  0
 14 13  1  0  0  0  0
 15 14  2  0  0  0  0
 16 18  1  0  0  0  0
 17 16  2  0  0  0  0
 17 15  1  0  0  0  0
 18 13  2  0  0  0  0
 19 12  2  0  0  0  0
 19 20  1  0  0  0  0
 20 11  2  0  0  0  0
 22 21  2  0  0  0  0
 22 23  1  0  0  0  0
 24 26  1  0  0  0  0
 24 28  1  0  0  0  0
 26 27  2  0  0  0  0
 27 29  1  0  0  0  0
 28 25  2  0  0  0  0
 28 30  1  0  0  0  0
 29 30  2  0  0  0  0
 30  1  1  0  0  0  0
 31 33  1  0  0  0  0
 32 31  2  0  0  0  0
 34 26  1  0  0  0  0
 34 31  1  0  0  0  0
M  END
>  <MODEL>
2

>  <REMARK>
 VINA RESULT:      -9.5      5.729      7.888
  Name = 
  4 active torsions:
  status: ('A' for Active; 'I' for Inactive)
    1  A    between atoms: C_1  and  C_34
    2  A    between atoms: CA_7  and  C_15
    3  A    between atoms: C_18  and  C_30
    4  A    between atoms: C_23  and  N_25
                            x       y       z     vdW  Elec       q    Type
                         _______ _______ _______ _____ _____    ______ ____

>  <TORSDO>
F 4

$$$$
=
 OpenBabel10272415253D

 34 38  0  0  1  0  0  0  0  0999 V2000
  183.6170  178.0400  141.0790 C   0  0  0  0  0  0  0  0  0  0  0  0
  183.8640  178.3950  143.9650 C   0  0  0  0  0  2  0  0  0  0  0  0
  184.8130  177.9670  141.6680 C   0  0  0  0  0  3  0  0  0  0  0  0
  182.4810  178.4270  143.2890 C   0  0  1  0  0  3  0  0  0  0  0  0
  180.3620  179.8720  143.2410 C   0  0  0  0  0  2  0  0  0  0  0  0
  181.5230  179.3240  144.0810 C   0  0  0  0  0  2  0  0  0  0  0  0
  185.0370  178.6340  142.9970 C   0  0  2  0  0  3  0  0  0  0  0  0
  181.1380  178.7340  141.1280 C   0  0  0  0  0  2  0  0  0  0  0  0
  182.5240  178.8070  141.7950 C   0  0  2  0  0  3  0  0  0  0  0  0
  179.9820  178.9070  142.1200 C   0  0  0  0  0  2  0  0  0  0  0  0
  188.6790  177.5970  143.3900 C   0  0  0  0  0  3  0  0  0  0  0  0
  186.4250  178.0670  144.9930 C   0  0  0  0  0  3  0  0  0  0  0  0
  190.0610  176.9220  146.7000 C   0  0  0  0  0  0  0  0  0  0  0  0
  189.9410  177.0760  145.3520 N   0  0  0  0  0  0  0  0  0  0  0  0
  188.7660  177.4470  144.7760 C   0  0  0  0  0  0  0  0  0  0  0  0
  187.7330  177.5290  146.9630 C   0  0  0  0  0  3  0  0  0  0  0  0
  187.6310  177.6810  145.5820 C   0  0  0  0  0  0  0  0  0  0  0  0
  188.9520  177.1480  147.5280 C   0  0  0  0  0  3  0  0  0  0  0  0
  186.3380  178.2190  143.6050 C   0  0  0  0  0  0  0  0  0  0  0  0
  187.4680  177.9800  142.8050 C   0  0  0  0  0  3  0  0  0  0  0  0
  191.9340  175.4770  146.8880 O   0  0  0  0  0  0  0  0  0  0  0  0
  191.3550  176.5250  147.2760 C   0  0  0  0  0  0  0  0  0  0  0  0
  191.9410  177.3030  148.2680 O   0  0  0  0  0  1  0  0  0  0  0  0
  183.9620  177.0940  137.2630 C   0  0  0  0  0  2  0  0  0  0  0  0
  184.6790  178.9670  138.5550 O   0  0  0  0  0  0  0  0  0  0  0  0
  182.9160  176.0080  137.2830 C   0  0  0  0  0  0  0  0  0  0  0  0
  182.3130  175.6440  138.4250 C   0  0  0  0  0  3  0  0  0  0  0  0
  184.0430  177.8780  138.5440 C   0  0  0  0  0  0  0  0  0  0  0  0
  182.5860  176.3200  139.7040 C   0  0  0  0  0  3  0  0  0  0  0  0
  183.4110  177.3680  139.7790 C   0  0  0  0  0  0  0  0  0  0  0  0
  183.1920  174.0990  135.5850 C   0  0  0  0  0  0  0  0  0  0  0  0
  182.8110  173.6010  134.3460 O   0  0  0  0  0  0  0  0  0  0  0  0
  184.0170  173.4530  136.2840 O   0  0  0  0  0  1  0  0  0  0  0  0
  182.6330  175.3370  136.0460 N   0  0  0  0  0  2  0  0  0  0  0  0
  1  3  2  0  0  0  0
  1  9  1  0  0  0  0
  3  7  1  0  0  0  0
  4  2  1  1  0  0  0
  4  6  1  0  0  0  0
  5  6  1  0  0  0  0
  7 19  1  1  0  0  0
  7  2  1  0  0  0  0
  8 10  1  0  0  0  0
  9  8  1  6  0  0  0
  9  4  1  0  0  0  0
 10  5  1  0  0  0  0
 11 15  1  0  0  0  0
 12 17  1  0  0  0  0
 13 22  1  0  0  0  0
 13 18  1  0  0  0  0
 14 13  2  0  0  0  0
 15 14  1  0  0  0  0
 15 17  2  0  0  0  0
 16 18  2  0  0  0  0
 17 16  1  0  0  0  0
 19 12  2  0  0  0  0
 20 11  2  0  0  0  0
 20 19  1  0  0  0  0
 21 22  2  0  0  0  0
 22 23  1  0  0  0  0
 24 26  1  0  0  0  0
 24 28  1  0  0  0  0
 26 27  2  0  0  0  0
 27 29  1  0  0  0  0
 28 25  2  0  0  0  0
 28 30  1  0  0  0  0
 29 30  2  0  0  0  0
 30  1  1  0  0  0  0
 31 34  1  0  0  0  0
 31 33  1  0  0  0  0
 32 31  2  0  0  0  0
 34 26  1  0  0  0  0
M  END
>  <MODEL>
3

>  <REMARK>
 VINA RESULT:      -9.4      1.012      1.558
  Name = 
  4 active torsions:
  status: ('A' for Active; 'I' for Inactive)
    1  A    between atoms: C_1  and  C_34
    2  A    between atoms: CA_7  and  C_15
    3  A    between atoms: C_18  and  C_30
    4  A    between atoms: C_23  and  N_25
                            x       y       z     vdW  Elec       q    Type
                         _______ _______ _______ _____ _____    ______ ____

>  <TORSDO>
F 4

$$$$
=
 OpenBabel10272415253D

 34 38  0  0  1  0  0  0  0  0999 V2000
  187.7950  177.6450  144.4870 C   0  0  0  0  0  0  0  0  0  0  0  0
  185.4690  178.9490  145.6730 C   0  0  0  0  0  2  0  0  0  0  0  0
  186.6730  177.8000  143.7790 C   0  0  0  0  0  3  0  0  0  0  0  0
  186.7810  178.8150  146.4690 C   0  0  1  0  0  3  0  0  0  0  0  0
  187.5980  178.0550  148.7780 C   0  0  0  0  0  2  0  0  0  0  0  0
  186.4860  178.7370  147.9710 C   0  0  0  0  0  2  0  0  0  0  0  0
  185.3580  177.9750  144.4850 C   0  0  2  0  0  3  0  0  0  0  0  0
  189.0260  177.6120  146.7470 C   0  0  0  0  0  2  0  0  0  0  0  0
  187.6820  177.6560  145.9970 C   0  0  2  0  0  3  0  0  0  0  0  0
  188.9650  178.2660  148.1320 C   0  0  0  0  0  2  0  0  0  0  0  0
  182.0080  179.1480  143.1070 C   0  0  0  0  0  3  0  0  0  0  0  0
  184.5500  178.4220  142.1650 C   0  0  0  0  0  3  0  0  0  0  0  0
  181.5460  179.6030  139.5150 C   0  0  0  0  0  0  0  0  0  0  0  0
  181.3150  179.5610  140.8570 N   0  0  0  0  0  0  0  0  0  0  0  0
  182.2790  179.1780  141.7370 C   0  0  0  0  0  0  0  0  0  0  0  0
  183.8130  178.8470  139.8950 C   0  0  0  0  0  3  0  0  0  0  0  0
  183.5570  178.8110  141.2640 C   0  0  0  0  0  0  0  0  0  0  0  0
  182.8060  179.2450  139.0130 C   0  0  0  0  0  3  0  0  0  0  0  0
  184.2800  178.3930  143.5380 C   0  0  0  0  0  0  0  0  0  0  0  0
  183.0050  178.7550  144.0050 C   0  0  0  0  0  3  0  0  0  0  0  0
  179.9850  181.1880  138.6890 O   0  0  0  0  0  1  0  0  0  0  0  0
  180.4730  180.0300  138.6040 C   0  0  0  0  0  0  0  0  0  0  0  0
  179.9820  179.1480  137.6490 O   0  0  0  0  0  0  0  0  0  0  0  0
  190.6060  176.2020  142.1220 C   0  0  0  0  0  2  0  0  0  0  0  0
  188.5660  175.3060  142.9740 O   0  0  0  0  0  0  0  0  0  0  0  0
  191.6360  177.2530  142.4560 C   0  0  0  0  0  0  0  0  0  0  0  0
  191.3400  178.2850  143.2600 C   0  0  0  0  0  3  0  0  0  0  0  0
  189.3680  176.2780  142.9730 C   0  0  0  0  0  0  0  0  0  0  0  0
  190.0270  178.4190  143.9120 C   0  0  0  0  0  3  0  0  0  0  0  0
  189.0810  177.4870  143.7750 C   0  0  0  0  0  0  0  0  0  0  0  0
  193.2110  177.1540  140.4270 C   0  0  0  0  0  0  0  0  0  0  0  0
  194.5240  177.0180  139.9990 O   0  0  0  0  0  1  0  0  0  0  0  0
  192.2940  177.2910  139.5740 O   0  0  0  0  0  0  0  0  0  0  0  0
  192.9240  177.1400  141.8330 N   0  0  0  0  0  2  0  0  0  0  0  0
  1  9  1  0  0  0  0
  3  7  1  0  0  0  0
  3  1  2  0  0  0  0
  4  2  1  6  0  0  0
  4  6  1  0  0  0  0
  6  5  1  0  0  0  0
  7 19  1  6  0  0  0
  7  2  1  0  0  0  0
  8 10  1  0  0  0  0
  9  4  1  0  0  0  0
  9  8  1  1  0  0  0
 10  5  1  0  0  0  0
 11 20  1  0  0  0  0
 12 19  1  0  0  0  0
 13 14  2  0  0  0  0
 14 15  1  0  0  0  0
 15 11  2  0  0  0  0
 16 17  1  0  0  0  0
 17 15  1  0  0  0  0
 17 12  2  0  0  0  0
 18 13  1  0  0  0  0
 18 16  2  0  0  0  0
 19 20  2  0  0  0  0
 22 21  1  0  0  0  0
 22 13  1  0  0  0  0
 23 22  2  0  0  0  0
 24 26  1  0  0  0  0
 24 28  1  0  0  0  0
 26 27  2  0  0  0  0
 27 29  1  0  0  0  0
 28 25  2  0  0  0  0
 28 30  1  0  0  0  0
 30 29  2  0  0  0  0
 30  1  1  0  0  0  0
 31 34  1  0  0  0  0
 32 31  1  0  0  0  0
 33 31  2  0  0  0  0
 34 26  1  0  0  0  0
M  END
>  <MODEL>
4

>  <REMARK>
 VINA RESULT:      -9.3      3.322      8.650
  Name = 
  4 active torsions:
  status: ('A' for Active; 'I' for Inactive)
    1  A    between atoms: C_1  and  C_34
    2  A    between atoms: CA_7  and  C_15
    3  A    between atoms: C_18  and  C_30
    4  A    between atoms: C_23  and  N_25
                            x       y       z     vdW  Elec       q    Type
                         _______ _______ _______ _____ _____    ______ ____

>  <TORSDO>
F 4

$$$$
=
 OpenBabel10272415253D

 34 38  0  0  1  0  0  0  0  0999 V2000
  190.2860  176.9220  138.2520 C   0  0  0  0  0  0  0  0  0  0  0  0
  187.5180  177.6010  138.8750 C   0  0  0  0  0  2  0  0  0  0  0  0
  189.9290  177.2190  139.5040 C   0  0  0  0  0  3  0  0  0  0  0  0
  187.9230  177.2070  137.4420 C   0  0  1  0  0  3  0  0  0  0  0  0
  187.6400  178.0380  135.0320 C   0  0  0  0  0  2  0  0  0  0  0  0
  187.0080  177.8950  136.4220 C   0  0  0  0  0  2  0  0  0  0  0  0
  188.6980  178.0440  139.7570 C   0  0  2  0  0  3  0  0  0  0  0  0
  189.8060  176.9470  135.7240 C   0  0  0  0  0  2  0  0  0  0  0  0
  189.4140  177.4410  137.1280 C   0  0  2  0  0  3  0  0  0  0  0  0
  188.6250  176.9060  134.7480 C   0  0  0  0  0  2  0  0  0  0  0  0
  186.6960  178.3780  142.9780 C   0  0  0  0  0  3  0  0  0  0  0  0
  189.2890  177.6880  142.1570 C   0  0  0  0  0  3  0  0  0  0  0  0
  188.2510  177.6650  146.2020 C   0  0  0  0  0  0  0  0  0  0  0  0
  187.3390  178.0080  145.2510 N   0  0  0  0  0  0  0  0  0  0  0  0
  187.6560  178.0230  143.9280 C   0  0  0  0  0  0  0  0  0  0  0  0
  189.9090  177.3250  144.4730 C   0  0  0  0  0  3  0  0  0  0  0  0
  188.9610  177.6780  143.5140 C   0  0  0  0  0  0  0  0  0  0  0  0
  189.5560  177.3170  145.8240 C   0  0  0  0  0  3  0  0  0  0  0  0
  188.3260  178.0420  141.2050 C   0  0  0  0  0  0  0  0  0  0  0  0
  187.0290  178.3900  141.6210 C   0  0  0  0  0  3  0  0  0  0  0  0
  188.2300  176.7270  148.3820 O   0  0  0  0  0  1  0  0  0  0  0  0
  187.8580  177.6580  147.6190 C   0  0  0  0  0  0  0  0  0  0  0  0
  187.0570  178.6760  148.1230 O   0  0  0  0  0  0  0  0  0  0  0  0
  192.6080  173.8760  137.2970 C   0  0  0  0  0  2  0  0  0  0  0  0
  190.2670  174.0830  137.7070 O   0  0  0  0  0  0  0  0  0  0  0  0
  193.9060  174.5660  137.6340 C   0  0  0  0  0  0  0  0  0  0  0  0
  193.9310  175.8530  138.0140 C   0  0  0  0  0  3  0  0  0  0  0  0
  191.3870  174.6620  137.6900 C   0  0  0  0  0  0  0  0  0  0  0  0
  192.7010  176.6430  138.1860 C   0  0  0  0  0  3  0  0  0  0  0  0
  191.4920  176.0980  138.0230 C   0  0  0  0  0  0  0  0  0  0  0  0
  196.3480  174.2650  136.8910 C   0  0  0  0  0  0  0  0  0  0  0  0
  197.4220  173.3910  136.8060 O   0  0  0  0  0  1  0  0  0  0  0  0
  196.4730  175.4420  136.4590 O   0  0  0  0  0  0  0  0  0  0  0  0
  195.1180  173.8140  137.4750 N   0  0  0  0  0  2  0  0  0  0  0  0
  1  3  2  0  0  0  0
  2  7  1  0  0  0  0
  3  7  1  0  0  0  0
  4  6  1  6  0  0  0
  4  2  1  0  0  0  0
  5  6  1  0  0  0  0
  7 19  1  1  0  0  0
  9  8  1  6  0  0  0
  9  4  1  0  0  0  0
  9  1  1  0  0  0  0
 10  5  1  0  0  0  0
 10  8  1  0  0  0  0
 11 15  1  0  0  0  0
 12 17  1  0  0  0  0
 13 22  1  0  0  0  0
 14 13  2  0  0  0  0
 15 14  1  0  0  0  0
 16 18  2  0  0  0  0
 17 15  2  0  0  0  0
 17 16  1  0  0  0  0
 18 13  1  0  0  0  0
 19 20  1  0  0  0  0
 19 12  2  0  0  0  0
 20 11  2  0  0  0  0
 22 23  2  0  0  0  0
 22 21  1  0  0  0  0
 24 26  1  0  0  0  0
 24 28  1  0  0  0  0
 26 27  2  0  0  0  0
 27 29  1  0  0  0  0
 28 25  2  0  0  0  0
 28 30  1  0  0  0  0
 30 29  2  0  0  0  0
 30  1  1  0  0  0  0
 31 34  1  0  0  0  0
 32 31  1  0  0  0  0
 33 31  2  0  0  0  0
 34 26  1  0  0  0  0
M  END
>  <MODEL>
5

>  <REMARK>
 VINA RESULT:      -8.6      5.643      7.795
  Name = 
  4 active torsions:
  status: ('A' for Active; 'I' for Inactive)
    1  A    between atoms: C_1  and  C_34
    2  A    between atoms: CA_7  and  C_15
    3  A    between atoms: C_18  and  C_30
    4  A    between atoms: C_23  and  N_25
                            x       y       z     vdW  Elec       q    Type
                         _______ _______ _______ _____ _____    ______ ____

>  <TORSDO>
F 4

$$$$
=
 OpenBabel10272415253D

 34 38  0  0  1  0  0  0  0  0999 V2000
  189.5630  177.0400  143.8810 C   0  0  0  0  0  0  0  0  0  0  0  0
  187.8150  177.9080  146.0500 C   0  0  0  0  0  2  0  0  0  0  0  0
  188.2700  177.2820  143.6500 C   0  0  0  0  0  3  0  0  0  0  0  0
  189.3170  177.6780  146.3010 C   0  0  1  0  0  3  0  0  0  0  0  0
  190.8600  176.4720  147.9570 C   0  0  0  0  0  2  0  0  0  0  0  0
  189.5540  177.2510  147.7540 C   0  0  0  0  0  2  0  0  0  0  0  0
  187.2810  177.2180  144.7810 C   0  0  2  0  0  3  0  0  0  0  0  0
  191.4940  176.5770  145.5190 C   0  0  0  0  0  2  0  0  0  0  0  0
  189.9760  176.7080  145.3000 C   0  0  2  0  0  3  0  0  0  0  0  0
  191.9270  176.9020  146.9520 C   0  0  0  0  0  2  0  0  0  0  0  0
  183.8310  178.8180  144.9400 C   0  0  0  0  0  3  0  0  0  0  0  0
  185.5900  177.7600  143.0270 C   0  0  0  0  0  3  0  0  0  0  0  0
  181.8850  179.3200  141.8930 C   0  0  0  0  0  0  0  0  0  0  0  0
  182.2680  179.3120  143.2000 N   0  0  0  0  0  0  0  0  0  0  0  0
  183.4690  178.8080  143.5900 C   0  0  0  0  0  0  0  0  0  0  0  0
  183.9800  178.2720  141.2860 C   0  0  0  0  0  3  0  0  0  0  0  0
  184.3530  178.2740  142.6290 C   0  0  0  0  0  0  0  0  0  0  0  0
  182.7420  178.7960  140.9130 C   0  0  0  0  0  3  0  0  0  0  0  0
  185.9530  177.7710  144.3780 C   0  0  0  0  0  0  0  0  0  0  0  0
  185.0680  178.3000  145.3330 C   0  0  0  0  0  3  0  0  0  0  0  0
  179.9850  180.6870  142.2840 O   0  0  0  0  0  1  0  0  0  0  0  0
  180.5780  179.8810  141.5190 C   0  0  0  0  0  0  0  0  0  0  0  0
  179.9820  179.5130  140.3190 O   0  0  0  0  0  0  0  0  0  0  0  0
  192.7100  178.0360  141.7170 C   0  0  0  0  0  2  0  0  0  0  0  0
  191.7470  178.9260  143.7090 O   0  0  0  0  0  0  0  0  0  0  0  0
  192.3190  177.2290  140.5040 C   0  0  0  0  0  0  0  0  0  0  0  0
  191.2340  176.4400  140.5150 C   0  0  0  0  0  3  0  0  0  0  0  0
  191.6490  178.0780  142.7820 C   0  0  0  0  0  0  0  0  0  0  0  0
  190.3320  176.3630  141.6760 C   0  0  0  0  0  3  0  0  0  0  0  0
  190.5230  177.1200  142.7590 C   0  0  0  0  0  0  0  0  0  0  0  0
  193.0510  176.5570  138.1340 C   0  0  0  0  0  0  0  0  0  0  0  0
  193.9950  176.7320  137.1320 O   0  0  0  0  0  0  0  0  0  0  0  0
  192.0930  175.7610  137.9480 O   0  0  0  0  0  1  0  0  0  0  0  0
  193.1830  177.2900  139.3600 N   0  0  0  0  0  2  0  0  0  0  0  0
  1  9  1  0  0  0  0
  3  1  2  0  0  0  0
  3  7  1  0  0  0  0
  4  2  1  6  0  0  0
  4  6  1  0  0  0  0
  6  5  1  0  0  0  0
  7 19  1  6  0  0  0
  7  2  1  0  0  0  0
  8 10  1  0  0  0  0
  9  8  1  6  0  0  0
  9  4  1  0  0  0  0
 10  5  1  0  0  0  0
 11 20  1  0  0  0  0
 12 19  1  0  0  0  0
 13 14  2  0  0  0  0
 14 15  1  0  0  0  0
 15 11  2  0  0  0  0
 16 17  1  0  0  0  0
 17 12  2  0  0  0  0
 17 15  1  0  0  0  0
 18 16  2  0  0  0  0
 18 13  1  0  0  0  0
 19 20  2  0  0  0  0
 22 13  1  0  0  0  0
 22 21  1  0  0  0  0
 23 22  2  0  0  0  0
 24 28  1  0  0  0  0
 26 27  2  0  0  0  0
 26 24  1  0  0  0  0
 27 29  1  0  0  0  0
 28 25  2  0  0  0  0
 29 30  2  0  0  0  0
 30 28  1  0  0  0  0
 30  1  1  0  0  0  0
 31 34  1  0  0  0  0
 32 31  2  0  0  0  0
 33 31  1  0  0  0  0
 34 26  1  0  0  0  0
M  END
>  <MODEL>
6

>  <REMARK>
 VINA RESULT:      -8.5      3.724      8.497
  Name = 
  4 active torsions:
  status: ('A' for Active; 'I' for Inactive)
    1  A    between atoms: C_1  and  C_34
    2  A    between atoms: CA_7  and  C_15
    3  A    between atoms: C_18  and  C_30
    4  A    between atoms: C_23  and  N_25
                            x       y       z     vdW  Elec       q    Type
                         _______ _______ _______ _____ _____    ______ ____

>  <TORSDO>
F 4

$$$$
=
 OpenBabel10272415253D

 34 38  0  0  1  0  0  0  0  0999 V2000
  183.4740  177.5510  139.1740 C   0  0  0  0  0  0  0  0  0  0  0  0
  182.2110  178.8870  141.4400 C   0  0  0  0  0  2  0  0  0  0  0  0
  184.1340  177.6980  140.3250 C   0  0  0  0  0  3  0  0  0  0  0  0
  181.4340  178.6700  140.1280 C   0  0  1  0  0  3  0  0  0  0  0  0
  179.9820  179.9890  138.4740 C   0  0  0  0  0  2  0  0  0  0  0  0
  180.3910  179.7770  139.9380 C   0  0  0  0  0  2  0  0  0  0  0  0
  183.7390  178.7860  141.2840 C   0  0  2  0  0  3  0  0  0  0  0  0
  181.5320  178.1960  137.6120 C   0  0  0  0  0  2  0  0  0  0  0  0
  182.3360  178.5080  138.8880 C   0  0  2  0  0  3  0  0  0  0  0  0
  180.0830  178.6920  137.6750 C   0  0  0  0  0  2  0  0  0  0  0  0
  184.3940  178.7900  145.0340 C   0  0  0  0  0  3  0  0  0  0  0  0
  185.7180  178.1200  142.6530 C   0  0  0  0  0  3  0  0  0  0  0  0
  187.5960  177.6370  146.3520 C   0  0  0  0  0  0  0  0  0  0  0  0
  186.3270  178.1240  146.2730 N   0  0  0  0  0  0  0  0  0  0  0  0
  185.6970  178.2900  145.0790 C   0  0  0  0  0  0  0  0  0  0  0  0
  187.6630  177.4550  143.9400 C   0  0  0  0  0  3  0  0  0  0  0  0
  186.3630  177.9550  143.8800 C   0  0  0  0  0  0  0  0  0  0  0  0
  188.2850  177.2940  145.1790 C   0  0  0  0  0  3  0  0  0  0  0  0
  184.4110  178.6190  142.6090 C   0  0  0  0  0  0  0  0  0  0  0  0
  183.7530  178.9570  143.8030 C   0  0  0  0  0  3  0  0  0  0  0  0
  187.7050  177.9610  148.7000 O   0  0  0  0  0  1  0  0  0  0  0  0
  188.2320  177.4690  147.6670 C   0  0  0  0  0  0  0  0  0  0  0  0
  189.4320  176.7760  147.7750 O   0  0  0  0  0  0  0  0  0  0  0  0
  185.4060  175.5350  136.3850 C   0  0  0  0  0  2  0  0  0  0  0  0
  185.3720  177.8360  137.0130 O   0  0  0  0  0  0  0  0  0  0  0  0
  184.5410  174.3010  136.4660 C   0  0  0  0  0  0  0  0  0  0  0  0
  183.5660  174.1950  137.3810 C   0  0  0  0  0  3  0  0  0  0  0  0
  184.8950  176.6850  137.2080 C   0  0  0  0  0  0  0  0  0  0  0  0
  183.2400  175.2900  138.3100 C   0  0  0  0  0  3  0  0  0  0  0  0
  183.8680  176.4680  138.2490 C   0  0  0  0  0  0  0  0  0  0  0  0
  185.8860  172.2500  135.7010 C   0  0  0  0  0  0  0  0  0  0  0  0
  186.0390  171.2770  134.7220 O   0  0  0  0  0  0  0  0  0  0  0  0
  186.6670  172.2590  136.6890 O   0  0  0  0  0  1  0  0  0  0  0  0
  184.8400  173.2220  135.5690 N   0  0  0  0  0  2  0  0  0  0  0  0
  1  3  2  0  0  0  0
  3  7  1  0  0  0  0
  4  6  1  6  0  0  0
  4  2  1  0  0  0  0
  5  6  1  0  0  0  0
  7  2  1  0  0  0  0
  7 19  1  1  0  0  0
  8 10  1  0  0  0  0
  9  8  1  6  0  0  0
  9  1  1  0  0  0  0
  9  4  1  0  0  0  0
 10  5  1  0  0  0  0
 11 15  1  0  0  0  0
 12 17  1  0  0  0  0
 13 22  1  0  0  0  0
 14 13  1  0  0  0  0
 15 14  2  0  0  0  0
 16 18  1  0  0  0  0
 17 16  2  0  0  0  0
 17 15  1  0  0  0  0
 18 13  2  0  0  0  0
 19 12  2  0  0  0  0
 19 20  1  0  0  0  0
 20 11  2  0  0  0  0
 22 23  2  0  0  0  0
 22 21  1  0  0  0  0
 24 26  1  0  0  0  0
 24 28  1  0  0  0  0
 25 28  2  0  0  0  0
 26 27  2  0  0  0  0
 27 29  1  0  0  0  0
 28 30  1  0  0  0  0
 30 29  2  0  0  0  0
 30  1  1  0  0  0  0
 31 33  1  0  0  0  0
 32 31  2  0  0  0  0
 34 31  1  0  0  0  0
 34 26  1  0  0  0  0
M  END
>  <MODEL>
7

>  <REMARK>
 VINA RESULT:      -8.5      2.059      3.136
  Name = 
  4 active torsions:
  status: ('A' for Active; 'I' for Inactive)
    1  A    between atoms: C_1  and  C_34
    2  A    between atoms: CA_7  and  C_15
    3  A    between atoms: C_18  and  C_30
    4  A    between atoms: C_23  and  N_25
                            x       y       z     vdW  Elec       q    Type
                         _______ _______ _______ _____ _____    ______ ____

>  <TORSDO>
F 4

$$$$
=
 OpenBabel10272415253D

 34 38  0  0  1  0  0  0  0  0999 V2000
  188.4440  177.9080  143.8740 C   0  0  0  0  0  0  0  0  0  0  0  0
  191.0060  176.5290  143.6490 C   0  0  0  0  0  2  0  0  0  0  0  0
  189.0680  177.8300  142.6960 C   0  0  0  0  0  3  0  0  0  0  0  0
  190.2590  176.5750  144.9950 C   0  0  1  0  0  3  0  0  0  0  0  0
  190.7080  177.1150  147.4620 C   0  0  0  0  0  2  0  0  0  0  0  0
  191.2550  176.5210  146.1580 C   0  0  0  0  0  2  0  0  0  0  0  0
  190.5540  177.6060  142.6470 C   0  0  2  0  0  3  0  0  0  0  0  0
  188.4830  177.7230  146.4410 C   0  0  0  0  0  2  0  0  0  0  0  0
  189.2830  177.7620  145.1270 C   0  0  2  0  0  3  0  0  0  0  0  0
  189.1930  176.9480  147.5570 C   0  0  0  0  0  2  0  0  0  0  0  0
  192.7830  177.0870  139.6040 C   0  0  0  0  0  3  0  0  0  0  0  0
  190.0740  176.8790  140.3070 C   0  0  0  0  0  3  0  0  0  0  0  0
  191.3540  175.9720  136.4360 C   0  0  0  0  0  0  0  0  0  0  0  0
  192.2420  176.3760  137.3870 N   0  0  0  0  0  0  0  0  0  0  0  0
  191.8460  176.6770  138.6530 C   0  0  0  0  0  0  0  0  0  0  0  0
  189.5590  176.1630  138.0480 C   0  0  0  0  0  3  0  0  0  0  0  0
  190.4830  176.5750  139.0070 C   0  0  0  0  0  0  0  0  0  0  0  0
  189.9930  175.8600  136.7560 C   0  0  0  0  0  3  0  0  0  0  0  0
  191.0130  177.2880  141.2610 C   0  0  0  0  0  0  0  0  0  0  0  0
  192.3680  177.3940  140.9040 C   0  0  0  0  0  3  0  0  0  0  0  0
  191.1910  174.8530  134.3500 O   0  0  0  0  0  0  0  0  0  0  0  0
  191.8320  175.6520  135.0830 C   0  0  0  0  0  0  0  0  0  0  0  0
  193.0080  176.2220  134.6080 O   0  0  0  0  0  1  0  0  0  0  0  0
  184.7120  178.3920  142.6830 C   0  0  0  0  0  2  0  0  0  0  0  0
  186.8140  178.4890  141.5590 O   0  0  0  0  0  0  0  0  0  0  0  0
  184.1340  178.5490  144.0670 C   0  0  0  0  0  0  0  0  0  0  0  0
  184.8980  178.4090  145.1610 C   0  0  0  0  0  3  0  0  0  0  0  0
  186.2160  178.3480  142.6590 C   0  0  0  0  0  0  0  0  0  0  0  0
  186.3460  178.1600  145.0780 C   0  0  0  0  0  3  0  0  0  0  0  0
  186.9810  178.1150  143.9030 C   0  0  0  0  0  0  0  0  0  0  0  0
  181.7820  178.9150  143.0960 C   0  0  0  0  0  0  0  0  0  0  0  0
  180.4480  179.1690  143.3840 O   0  0  0  0  0  1  0  0  0  0  0  0
  182.1430  178.7910  141.8960 O   0  0  0  0  0  0  0  0  0  0  0  0
  182.7230  178.7940  144.1720 N   0  0  0  0  0  2  0  0  0  0  0  0
  1 30  1  0  0  0  0
  1  9  1  0  0  0  0
  3  1  2  0  0  0  0
  4  2  1  6  0  0  0
  4  9  1  0  0  0  0
  4  6  1  0  0  0  0
  5 10  1  0  0  0  0
  6  5  1  0  0  0  0
  7 19  1  6  0  0  0
  7  3  1  0  0  0  0
  7  2  1  0  0  0  0
  8 10  1  0  0  0  0
  9  8  1  1  0  0  0
 11 20  1  0  0  0  0
 12 19  1  0  0  0  0
 13 18  1  0  0  0  0
 13 14  2  0  0  0  0
 14 15  1  0  0  0  0
 15 17  1  0  0  0  0
 15 11  2  0  0  0  0
 16 17  1  0  0  0  0
 17 12  2  0  0  0  0
 18 16  2  0  0  0  0
 20 19  2  0  0  0  0
 21 22  2  0  0  0  0
 22 13  1  0  0  0  0
 23 22  1  0  0  0  0
 24 26  1  0  0  0  0
 25 28  2  0  0  0  0
 26 34  1  0  0  0  0
 26 27  2  0  0  0  0
 28 24  1  0  0  0  0
 28 30  1  0  0  0  0
 29 27  1  0  0  0  0
 30 29  2  0  0  0  0
 31 32  1  0  0  0  0
 31 34  1  0  0  0  0
 33 31  2  0  0  0  0
M  END
>  <MODEL>
8

>  <REMARK>
 VINA RESULT:      -8.4      4.161      8.324
  Name = 
  4 active torsions:
  status: ('A' for Active; 'I' for Inactive)
    1  A    between atoms: C_1  and  C_34
    2  A    between atoms: CA_7  and  C_15
    3  A    between atoms: C_18  and  C_30
    4  A    between atoms: C_23  and  N_25
                            x       y       z     vdW  Elec       q    Type
                         _______ _______ _______ _____ _____    ______ ____

>  <TORSDO>
F 4

$$$$
=
 OpenBabel10272415253D

 34 38  0  0  1  0  0  0  0  0999 V2000
  189.5790  176.5380  138.5500 C   0  0  0  0  0  0  0  0  0  0  0  0
  191.8030  177.1230  140.3460 C   0  0  0  0  0  2  0  0  0  0  0  0
  189.3700  176.6730  139.8620 C   0  0  0  0  0  3  0  0  0  0  0  0
  192.0320  177.0180  138.8270 C   0  0  1  0  0  3  0  0  0  0  0  0
  193.6100  175.8690  137.1630 C   0  0  0  0  0  2  0  0  0  0  0  0
  193.4570  176.5350  138.5360 C   0  0  0  0  0  2  0  0  0  0  0  0
  190.5010  176.4580  140.8280 C   0  0  2  0  0  3  0  0  0  0  0  0
  191.1770  176.1650  136.5670 C   0  0  0  0  0  2  0  0  0  0  0  0
  190.9750  176.1680  138.0930 C   0  0  2  0  0  3  0  0  0  0  0  0
  192.6240  176.4490  136.1500 C   0  0  0  0  0  2  0  0  0  0  0  0
  190.7340  177.9220  144.3350 C   0  0  0  0  0  3  0  0  0  0  0  0
  188.8230  176.7380  142.6560 C   0  0  0  0  0  3  0  0  0  0  0  0
  187.7960  178.0110  146.4990 C   0  0  0  0  0  0  0  0  0  0  0  0
  189.0660  178.1610  146.0310 N   0  0  0  0  0  0  0  0  0  0  0  0
  189.4220  177.7520  144.7840 C   0  0  0  0  0  0  0  0  0  0  0  0
  187.1560  176.9920  144.3990 C   0  0  0  0  0  3  0  0  0  0  0  0
  188.4620  177.1540  143.9390 C   0  0  0  0  0  0  0  0  0  0  0  0
  186.8180  177.4220  145.6840 C   0  0  0  0  0  3  0  0  0  0  0  0
  190.1370  176.9100  142.2060 C   0  0  0  0  0  0  0  0  0  0  0  0
  191.0910  177.5000  143.0510 C   0  0  0  0  0  3  0  0  0  0  0  0
  186.4700  179.2330  148.0420 O   0  0  0  0  0  0  0  0  0  0  0  0
  187.4580  178.4750  147.8530 C   0  0  0  0  0  0  0  0  0  0  0  0
  188.2410  178.0880  148.9340 O   0  0  0  0  0  1  0  0  0  0  0  0
  187.0920  178.3260  136.0600 C   0  0  0  0  0  2  0  0  0  0  0  0
  188.7170  179.1320  137.6090 O   0  0  0  0  0  0  0  0  0  0  0  0
  186.2260  177.1150  135.8190 C   0  0  0  0  0  0  0  0  0  0  0  0
  186.5350  175.9230  136.3490 C   0  0  0  0  0  3  0  0  0  0  0  0
  188.1240  178.1260  137.1360 C   0  0  0  0  0  0  0  0  0  0  0  0
  187.6900  175.7380  137.2430 C   0  0  0  0  0  3  0  0  0  0  0  0
  188.4580  176.7670  137.6140 C   0  0  0  0  0  0  0  0  0  0  0  0
  183.7100  177.2960  135.3280 C   0  0  0  0  0  0  0  0  0  0  0  0
  182.7400  177.4440  134.3460 O   0  0  0  0  0  0  0  0  0  0  0  0
  183.3590  177.1900  136.5330 O   0  0  0  0  0  1  0  0  0  0  0  0
  185.0940  177.2720  134.9510 N   0  0  0  0  0  2  0  0  0  0  0  0
  1  3  2  0  0  0  0
  2  7  1  0  0  0  0
  3  7  1  0  0  0  0
  4  6  1  1  0  0  0
  4  2  1  0  0  0  0
  5  6  1  0  0  0  0
  7 19  1  1  0  0  0
  9  8  1  6  0  0  0
  9  1  1  0  0  0  0
  9  4  1  0  0  0  0
 10  8  1  0  0  0  0
 10  5  1  0  0  0  0
 11 15  1  0  0  0  0
 12 17  1  0  0  0  0
 13 22  1  0  0  0  0
 14 13  1  0  0  0  0
 15 14  2  0  0  0  0
 16 18  1  0  0  0  0
 17 16  2  0  0  0  0
 17 15  1  0  0  0  0
 18 13  2  0  0  0  0
 19 12  2  0  0  0  0
 19 20  1  0  0  0  0
 20 11  2  0  0  0  0
 22 21  2  0  0  0  0
 22 23  1  0  0  0  0
 24 28  1  0  0  0  0
 26 24  1  0  0  0  0
 26 27  2  0  0  0  0
 27 29  1  0  0  0  0
 28 25  2  0  0  0  0
 28 30  1  0  0  0  0
 29 30  2  0  0  0  0
 30  1  1  0  0  0  0
 31 33  1  0  0  0  0
 32 31  2  0  0  0  0
 34 31  1  0  0  0  0
 34 26  1  0  0  0  0
M  END
>  <MODEL>
9

>  <REMARK>
 VINA RESULT:      -8.4      3.999      6.755
  Name = 
  4 active torsions:
  status: ('A' for Active; 'I' for Inactive)
    1  A    between atoms: C_1  and  C_34
    2  A    between atoms: CA_7  and  C_15
    3  A    between atoms: C_18  and  C_30
    4  A    between atoms: C_23  and  N_25
                            x       y       z     vdW  Elec       q    Type
                         _______ _______ _______ _____ _____    ______ ____

>  <TORSDO>
F 4

$$$$
