=
 OpenBabel10272400343D

 31 34  0  0  1  0  0  0  0  0999 V2000
  190.5990  176.5000  145.7410 C   0  0  0  0  0  0  0  0  0  0  0  0
  187.8900  178.1980  143.6010 C   0  0  1  0  0  3  0  0  0  0  0  0
  186.7080  178.2920  144.5610 C   0  0  0  0  0  0  0  0  0  0  0  0
  185.8620  178.7510  146.7980 C   0  0  0  0  0  3  0  0  0  0  0  0
  189.1250  177.4320  144.0470 C   0  0  0  0  0  0  0  0  0  0  0  0
  191.5480  176.2030  144.7600 C   0  0  0  0  0  3  0  0  0  0  0  0
  186.9280  178.5500  145.9220 C   0  0  0  0  0  3  0  0  0  0  0  0
  188.6450  177.7600  141.2540 C   0  0  0  0  0  0  0  0  0  0  0  0
  190.8490  176.2000  147.0370 F   0  0  0  0  0  0  0  0  0  0  0  0
  185.0830  178.1300  142.6000 C   0  0  0  0  0  2  0  0  0  0  0  0
  184.5540  178.7270  146.3190 C   0  0  0  0  0  3  0  0  0  0  0  0
  189.8290  177.4250  141.6820 N   0  0  0  0  0  0  0  0  0  0  0  0
  187.4730  177.7130  142.2030 C   0  0  2  0  0  3  0  0  0  0  0  0
  188.4300  178.0100  139.8610 N   0  0  0  0  0  2  0  0  0  0  0  0
  189.3990  177.1220  145.3870 C   0  0  0  0  0  3  0  0  0  0  0  0
  182.6340  178.5210  144.4150 Cl  0  0  0  0  0  0  0  0  0  0  0  0
  190.0890  177.1250  143.0630 C   0  0  0  0  0  0  0  0  0  0  0  0
  191.2950  176.5170  143.4230 C   0  0  0  0  0  3  0  0  0  0  0  0
  186.2680  178.5000  141.7190 C   0  0  0  0  0  2  0  0  0  0  0  0
  185.3760  178.3330  144.0660 C   0  0  0  0  0  0  0  0  0  0  0  0
  184.3040  178.5200  144.9620 C   0  0  0  0  0  0  0  0  0  0  0  0
  189.2110  179.0620  137.8010 C   0  0  0  0  0  1  0  0  0  0  0  0
  189.5100  178.0390  138.8840 C   0  0  2  0  0  3  0  0  0  0  0  0
  188.7040  176.1010  137.7510 O   0  0  0  0  0  0  0  0  0  0  0  0
  191.1430  174.7120  137.7260 C   0  0  0  0  0  1  0  0  0  0  0  0
  190.9730  176.0320  138.3150 N   0  0  0  0  0  0  0  0  0  0  0  0
  189.6920  176.6800  138.2820 C   0  0  0  0  0  0  0  0  0  0  0  0
  192.1350  176.6810  138.9080 C   0  0  0  0  0  2  0  0  0  0  0  0
  193.3630  176.3660  138.1230 C   0  0  0  0  0  0  0  0  0  0  0  0
  193.5220  176.8600  136.9770 O   0  0  0  0  0  0  0  0  0  0  0  0
  194.3700  175.5320  138.6810 N   0  0  0  0  0  1  0  0  0  0  0  0
  1  9  1  0  0  0  0
  2  5  1  1  0  0  0
  2  3  1  0  0  0  0
  3  7  1  0  0  0  0
  5 15  2  0  0  0  0
  6  1  2  0  0  0  0
  7  4  2  0  0  0  0
  8 12  2  0  0  0  0
  8 13  1  0  0  0  0
 10 20  1  0  0  0  0
 11  4  1  0  0  0  0
 12 17  1  0  0  0  0
 13 19  1  6  0  0  0
 13  2  1  0  0  0  0
 14  8  1  0  0  0  0
 15  1  1  0  0  0  0
 16 21  1  0  0  0  0
 17 18  2  0  0  0  0
 17  5  1  0  0  0  0
 18  6  1  0  0  0  0
 19 10  1  0  0  0  0
 20  3  2  0  0  0  0
 20 21  1  0  0  0  0
 21 11  2  0  0  0  0
 23 22  1  6  0  0  0
 23 14  1  0  0  0  0
 24 27  2  0  0  0  0
 25 26  1  0  0  0  0
 26 28  1  0  0  0  0
 27 26  1  0  0  0  0
 27 23  1  0  0  0  0
 29 31  1  0  0  0  0
 29 28  1  0  0  0  0
 30 29  2  0  0  0  0
M  END
>  <MODEL>
1

>  <REMARK>
 VINA RESULT:      -9.7      0.000      0.000
  Name = 
  4 active torsions:
  status: ('A' for Active; 'I' for Inactive)
    1  A    between atoms: C_1  and  C_24
    2  A    between atoms: C_9  and  C_22
    3  A    between atoms: C_9  and  N_23
    4  A    between atoms: N_19  and  C_24
                            x       y       z     vdW  Elec       q    Type
                         _______ _______ _______ _____ _____    ______ ____

>  <TORSDO>
F 4

$$$$
=
 OpenBabel10272400343D

 31 34  0  0  1  0  0  0  0  0999 V2000
  186.3710  178.3680  146.7860 C   0  0  0  0  0  0  0  0  0  0  0  0
  187.4350  177.5530  143.1790 C   0  0  1  0  0  3  0  0  0  0  0  0
  188.9480  177.4030  143.2960 C   0  0  0  0  0  0  0  0  0  0  0  0
  190.8790  176.5740  144.5290 C   0  0  0  0  0  3  0  0  0  0  0  0
  186.6590  178.0350  144.3940 C   0  0  0  0  0  0  0  0  0  0  0  0
  185.0440  178.7490  146.5790 C   0  0  0  0  0  3  0  0  0  0  0  0
  189.5090  176.8240  144.4440 C   0  0  0  0  0  3  0  0  0  0  0  0
  185.5200  178.3990  141.8050 C   0  0  0  0  0  0  0  0  0  0  0  0
  186.8790  178.3390  148.0410 F   0  0  0  0  0  0  0  0  0  0  0  0
  189.2290  178.2050  140.8900 C   0  0  0  0  0  2  0  0  0  0  0  0
  191.7080  176.8740  143.4500 C   0  0  0  0  0  3  0  0  0  0  0  0
  184.7700  178.4740  142.8680 N   0  0  0  0  0  0  0  0  0  0  0  0
  187.0210  178.3860  141.9550 C   0  0  2  0  0  3  0  0  0  0  0  0
  184.9300  178.4920  140.5030 N   0  0  0  0  0  2  0  0  0  0  0  0
  187.1700  178.0010  145.7000 C   0  0  0  0  0  3  0  0  0  0  0  0
  192.2670  177.7440  140.9440 Cl  0  0  0  0  0  0  0  0  0  0  0  0
  185.3160  178.4230  144.1960 C   0  0  0  0  0  0  0  0  0  0  0  0
  184.5150  178.7750  145.2860 C   0  0  0  0  0  3  0  0  0  0  0  0
  187.7510  177.8890  140.7200 C   0  0  0  0  0  2  0  0  0  0  0  0
  189.7880  177.6460  142.1760 C   0  0  0  0  0  0  0  0  0  0  0  0
  191.1730  177.4070  142.2770 C   0  0  0  0  0  0  0  0  0  0  0  0
  183.0140  177.2520  139.6350 C   0  0  0  0  0  1  0  0  0  0  0  0
  183.4900  178.5400  140.2860 C   0  0  2  0  0  3  0  0  0  0  0  0
  184.0650  180.3900  138.8940 O   0  0  0  0  0  0  0  0  0  0  0  0
  181.4370  181.2330  138.3870 C   0  0  0  0  0  1  0  0  0  0  0  0
  181.7690  180.0900  139.2230 N   0  0  0  0  0  0  0  0  0  0  0  0
  183.1410  179.7170  139.4290 C   0  0  0  0  0  0  0  0  0  0  0  0
  180.6800  179.3240  139.8150 C   0  0  0  0  0  2  0  0  0  0  0  0
  180.4150  179.7890  141.2060 C   0  0  0  0  0  0  0  0  0  0  0  0
  179.9820  180.9520  141.4110 O   0  0  0  0  0  0  0  0  0  0  0  0
  180.6210  178.9070  142.3030 N   0  0  0  0  0  1  0  0  0  0  0  0
  1  9  1  0  0  0  0
  2  3  1  1  0  0  0
  2  5  1  0  0  0  0
  3  7  1  0  0  0  0
  5 15  1  0  0  0  0
  6  1  1  0  0  0  0
  7  4  2  0  0  0  0
  8 13  1  0  0  0  0
  8 12  2  0  0  0  0
 10 20  1  0  0  0  0
 11  4  1  0  0  0  0
 12 17  1  0  0  0  0
 13 19  1  6  0  0  0
 13  2  1  0  0  0  0
 14  8  1  0  0  0  0
 15  1  2  0  0  0  0
 16 21  1  0  0  0  0
 17  5  2  0  0  0  0
 17 18  1  0  0  0  0
 18  6  2  0  0  0  0
 19 10  1  0  0  0  0
 20 21  1  0  0  0  0
 20  3  2  0  0  0  0
 21 11  2  0  0  0  0
 23 22  1  6  0  0  0
 23 14  1  0  0  0  0
 24 27  2  0  0  0  0
 25 26  1  0  0  0  0
 26 27  1  0  0  0  0
 26 28  1  0  0  0  0
 27 23  1  0  0  0  0
 28 29  1  0  0  0  0
 29 30  2  0  0  0  0
 29 31  1  0  0  0  0
M  END
>  <MODEL>
2

>  <REMARK>
 VINA RESULT:      -9.4      4.317      7.504
  Name = 
  4 active torsions:
  status: ('A' for Active; 'I' for Inactive)
    1  A    between atoms: C_1  and  C_24
    2  A    between atoms: C_9  and  C_22
    3  A    between atoms: C_9  and  N_23
    4  A    between atoms: N_19  and  C_24
                            x       y       z     vdW  Elec       q    Type
                         _______ _______ _______ _____ _____    ______ ____

>  <TORSDO>
F 4

$$$$
=
 OpenBabel10272400343D

 31 34  0  0  1  0  0  0  0  0999 V2000
  188.8830  176.9940  145.2290 C   0  0  0  0  0  0  0  0  0  0  0  0
  186.6070  178.5550  142.5480 C   0  0  1  0  0  3  0  0  0  0  0  0
  185.2550  178.6280  143.2500 C   0  0  0  0  0  0  0  0  0  0  0  0
  183.9660  179.1040  145.2610 C   0  0  0  0  0  3  0  0  0  0  0  0
  187.7500  177.8400  143.2500 C   0  0  0  0  0  0  0  0  0  0  0  0
  190.0170  176.7100  144.4650 C   0  0  0  0  0  3  0  0  0  0  0  0
  185.1910  178.9210  144.6210 C   0  0  0  0  0  3  0  0  0  0  0  0
  187.8280  178.0940  140.4110 C   0  0  0  0  0  0  0  0  0  0  0  0
  188.8770  176.7290  146.5570 F   0  0  0  0  0  0  0  0  0  0  0  0
  184.0610  178.3710  141.0100 C   0  0  0  0  0  2  0  0  0  0  0  0
  182.7810  179.0250  144.5320 C   0  0  0  0  0  3  0  0  0  0  0  0
  188.9130  177.8080  141.0740 N   0  0  0  0  0  0  0  0  0  0  0  0
  186.4920  178.0270  141.1080 C   0  0  2  0  0  3  0  0  0  0  0  0
  187.8880  178.3090  138.9960 N   0  0  0  0  0  2  0  0  0  0  0  0
  187.7600  177.5680  144.6260 C   0  0  0  0  0  3  0  0  0  0  0  0
  181.2880  178.7150  142.2900 Cl  0  0  0  0  0  0  0  0  0  0  0  0
  188.9000  177.5460  142.4870 C   0  0  0  0  0  0  0  0  0  0  0  0
  190.0270  176.9870  143.0960 C   0  0  0  0  0  3  0  0  0  0  0  0
  185.3860  178.7630  140.3730 C   0  0  0  0  0  2  0  0  0  0  0  0
  184.0480  178.6140  142.4990 C   0  0  0  0  0  0  0  0  0  0  0  0
  182.8140  178.7820  143.1590 C   0  0  0  0  0  0  0  0  0  0  0  0
  189.0600  179.3970  137.1510 C   0  0  0  0  0  1  0  0  0  0  0  0
  189.1410  178.3550  138.2540 C   0  0  2  0  0  3  0  0  0  0  0  0
  188.7000  176.5440  136.7650 O   0  0  0  0  0  0  0  0  0  0  0  0
  190.8440  174.9300  137.5860 C   0  0  0  0  0  1  0  0  0  0  0  0
  190.5570  176.2380  138.1550 N   0  0  0  0  0  0  0  0  0  0  0  0
  189.4420  177.0070  137.6750 C   0  0  0  0  0  0  0  0  0  0  0  0
  191.4390  176.7510  139.1940 C   0  0  0  0  0  2  0  0  0  0  0  0
  192.8410  176.8280  138.6940 C   0  0  0  0  0  0  0  0  0  0  0  0
  193.0700  176.8250  137.4570 O   0  0  0  0  0  0  0  0  0  0  0  0
  193.9210  176.9370  139.6130 N   0  0  0  0  0  1  0  0  0  0  0  0
  1  9  1  0  0  0  0
  2  5  1  1  0  0  0
  2  3  1  0  0  0  0
  3  7  1  0  0  0  0
  5 15  2  0  0  0  0
  6  1  2  0  0  0  0
  7  4  2  0  0  0  0
  8 12  2  0  0  0  0
  8 13  1  0  0  0  0
 10 20  1  0  0  0  0
 11  4  1  0  0  0  0
 12 17  1  0  0  0  0
 13 19  1  6  0  0  0
 13  2  1  0  0  0  0
 14  8  1  0  0  0  0
 15  1  1  0  0  0  0
 16 21  1  0  0  0  0
 17 18  2  0  0  0  0
 17  5  1  0  0  0  0
 18  6  1  0  0  0  0
 19 10  1  0  0  0  0
 20 21  1  0  0  0  0
 20  3  2  0  0  0  0
 21 11  2  0  0  0  0
 23 22  1  6  0  0  0
 23 14  1  0  0  0  0
 24 27  2  0  0  0  0
 25 26  1  0  0  0  0
 26 28  1  0  0  0  0
 27 26  1  0  0  0  0
 27 23  1  0  0  0  0
 29 28  1  0  0  0  0
 29 31  1  0  0  0  0
 30 29  2  0  0  0  0
M  END
>  <MODEL>
3

>  <REMARK>
 VINA RESULT:      -9.2      1.234      1.623
  Name = 
  4 active torsions:
  status: ('A' for Active; 'I' for Inactive)
    1  A    between atoms: C_1  and  C_24
    2  A    between atoms: C_9  and  C_22
    3  A    between atoms: C_9  and  N_23
    4  A    between atoms: N_19  and  C_24
                            x       y       z     vdW  Elec       q    Type
                         _______ _______ _______ _____ _____    ______ ____

>  <TORSDO>
F 4

$$$$
=
 OpenBabel10272400343D

 31 34  0  0  1  0  0  0  0  0999 V2000
  191.3480  175.8700  146.8970 C   0  0  0  0  0  0  0  0  0  0  0  0
  188.9180  177.6100  144.4740 C   0  0  1  0  0  3  0  0  0  0  0  0
  187.7310  177.9520  145.3690 C   0  0  0  0  0  0  0  0  0  0  0  0
  186.8890  178.7640  147.5060 C   0  0  0  0  0  3  0  0  0  0  0  0
  190.0400  176.7620  145.0510 C   0  0  0  0  0  0  0  0  0  0  0  0
  192.2790  175.3530  145.9950 C   0  0  0  0  0  3  0  0  0  0  0  0
  187.9450  178.3400  146.7010 C   0  0  0  0  0  3  0  0  0  0  0  0
  189.6750  176.8150  142.2230 C   0  0  0  0  0  0  0  0  0  0  0  0
  191.5270  175.6970  148.2280 F   0  0  0  0  0  0  0  0  0  0  0  0
  186.1500  177.7510  143.3760 C   0  0  0  0  0  2  0  0  0  0  0  0
  185.6000  178.8360  146.9810 C   0  0  0  0  0  3  0  0  0  0  0  0
  190.7990  176.3970  142.7320 N   0  0  0  0  0  0  0  0  0  0  0  0
  188.4820  177.0160  143.1250 C   0  0  2  0  0  3  0  0  0  0  0  0
  189.5270  176.9250  140.8030 N   0  0  0  0  0  2  0  0  0  0  0  0
  190.2410  176.5820  146.4280 C   0  0  0  0  0  3  0  0  0  0  0  0
  183.7200  178.6340  145.0380 Cl  0  0  0  0  0  0  0  0  0  0  0  0
  190.9860  176.2330  144.1470 C   0  0  0  0  0  0  0  0  0  0  0  0
  192.1000  175.5350  144.6210 C   0  0  0  0  0  3  0  0  0  0  0  0
  187.3930  177.8760  142.5080 C   0  0  0  0  0  2  0  0  0  0  0  0
  186.4270  178.0890  144.8210 C   0  0  0  0  0  0  0  0  0  0  0  0
  185.3630  178.5020  145.6470 C   0  0  0  0  0  0  0  0  0  0  0  0
  191.8220  177.5670  140.2700 C   0  0  0  0  0  1  0  0  0  0  0  0
  190.6290  176.7130  139.8730 C   0  0  2  0  0  3  0  0  0  0  0  0
  189.4340  178.0360  138.2880 O   0  0  0  0  0  0  0  0  0  0  0  0
  190.1920  176.5710  136.0170 C   0  0  0  0  0  1  0  0  0  0  0  0
  190.6180  176.2410  137.3690 N   0  0  0  0  0  0  0  0  0  0  0  0
  190.1910  177.0450  138.4800 C   0  0  0  0  0  0  0  0  0  0  0  0
  191.5040  175.1000  137.5560 C   0  0  0  0  0  2  0  0  0  0  0  0
  190.8970  173.8690  136.9750 C   0  0  0  0  0  0  0  0  0  0  0  0
  189.7870  173.4540  137.3980 O   0  0  0  0  0  0  0  0  0  0  0  0
  191.5550  173.1790  135.9210 N   0  0  0  0  0  1  0  0  0  0  0  0
  1  9  1  0  0  0  0
  2  5  1  1  0  0  0
  2  3  1  0  0  0  0
  3  7  1  0  0  0  0
  5 15  2  0  0  0  0
  6  1  2  0  0  0  0
  7  4  2  0  0  0  0
  8 12  2  0  0  0  0
  8 13  1  0  0  0  0
 10 20  1  0  0  0  0
 11  4  1  0  0  0  0
 12 17  1  0  0  0  0
 13 19  1  6  0  0  0
 13  2  1  0  0  0  0
 14  8  1  0  0  0  0
 15  1  1  0  0  0  0
 16 21  1  0  0  0  0
 17 18  2  0  0  0  0
 17  5  1  0  0  0  0
 18  6  1  0  0  0  0
 19 10  1  0  0  0  0
 20  3  2  0  0  0  0
 20 21  1  0  0  0  0
 21 11  2  0  0  0  0
 23 22  1  1  0  0  0
 23 14  1  0  0  0  0
 24 27  2  0  0  0  0
 25 26  1  0  0  0  0
 26 28  1  0  0  0  0
 26 27  1  0  0  0  0
 27 23  1  0  0  0  0
 29 30  2  0  0  0  0
 29 28  1  0  0  0  0
 31 29  1  0  0  0  0
M  END
>  <MODEL>
4

>  <REMARK>
 VINA RESULT:      -9.1      1.648      2.159
  Name = 
  4 active torsions:
  status: ('A' for Active; 'I' for Inactive)
    1  A    between atoms: C_1  and  C_24
    2  A    between atoms: C_9  and  C_22
    3  A    between atoms: C_9  and  N_23
    4  A    between atoms: N_19  and  C_24
                            x       y       z     vdW  Elec       q    Type
                         _______ _______ _______ _____ _____    ______ ____

>  <TORSDO>
F 4

$$$$
=
 OpenBabel10272400343D

 31 34  0  0  1  0  0  0  0  0999 V2000
  189.4360  176.8290  144.8210 C   0  0  0  0  0  0  0  0  0  0  0  0
  186.8410  178.4900  142.5170 C   0  0  1  0  0  3  0  0  0  0  0  0
  185.6070  178.5870  143.4080 C   0  0  0  0  0  0  0  0  0  0  0  0
  184.6360  179.0640  145.5900 C   0  0  0  0  0  3  0  0  0  0  0  0
  188.0530  177.7350  143.0380 C   0  0  0  0  0  0  0  0  0  0  0  0
  190.4400  176.5280  143.8980 C   0  0  0  0  0  3  0  0  0  0  0  0
  185.7500  178.8600  144.7770 C   0  0  0  0  0  3  0  0  0  0  0  0
  187.7270  178.0320  140.2200 C   0  0  0  0  0  0  0  0  0  0  0  0
  189.6150  176.5440  146.1330 F   0  0  0  0  0  0  0  0  0  0  0  0
  184.0950  178.3950  141.3610 C   0  0  0  0  0  2  0  0  0  0  0  0
  183.3560  179.0270  145.0400 C   0  0  0  0  0  3  0  0  0  0  0  0
  188.8880  177.7080  140.7160 N   0  0  0  0  0  0  0  0  0  0  0  0
  186.5050  177.9880  141.1030 C   0  0  2  0  0  3  0  0  0  0  0  0
  187.5890  178.2670  138.8140 N   0  0  0  0  0  2  0  0  0  0  0  0
  188.2550  177.4410  144.3940 C   0  0  0  0  0  3  0  0  0  0  0  0
  181.5470  178.7910  143.0340 Cl  0  0  0  0  0  0  0  0  0  0  0  0
  189.0730  177.4240  142.1120 C   0  0  0  0  0  0  0  0  0  0  0  0
  190.2590  176.8270  142.5450 C   0  0  0  0  0  3  0  0  0  0  0  0
  185.3250  178.7630  140.5450 C   0  0  0  0  0  2  0  0  0  0  0  0
  184.3050  178.6150  142.8400 C   0  0  0  0  0  0  0  0  0  0  0  0
  183.1840  178.8040  143.6730 C   0  0  0  0  0  0  0  0  0  0  0  0
  188.9610  179.7070  137.3980 C   0  0  0  0  0  1  0  0  0  0  0  0
  188.7220  178.2920  137.8990 C   0  0  2  0  0  3  0  0  0  0  0  0
  187.3300  177.3490  136.2070 O   0  0  0  0  0  0  0  0  0  0  0  0
  189.2570  175.6060  135.1460 C   0  0  0  0  0  1  0  0  0  0  0  0
  189.5090  176.5000  136.2670 N   0  0  0  0  0  0  0  0  0  0  0  0
  188.4700  177.3680  136.7480 C   0  0  0  0  0  0  0  0  0  0  0  0
  190.8390  176.5090  136.8610 C   0  0  0  0  0  2  0  0  0  0  0  0
  190.9570  175.4330  137.8860 C   0  0  0  0  0  0  0  0  0  0  0  0
  190.7630  175.6960  139.1010 O   0  0  0  0  0  0  0  0  0  0  0  0
  191.2590  174.1020  137.4890 N   0  0  0  0  0  1  0  0  0  0  0  0
  1  9  1  0  0  0  0
  2  5  1  1  0  0  0
  2  3  1  0  0  0  0
  3  7  1  0  0  0  0
  5 15  2  0  0  0  0
  6  1  2  0  0  0  0
  7  4  2  0  0  0  0
  8 12  2  0  0  0  0
  8 13  1  0  0  0  0
 10 20  1  0  0  0  0
 11  4  1  0  0  0  0
 12 17  1  0  0  0  0
 13 19  1  6  0  0  0
 13  2  1  0  0  0  0
 14  8  1  0  0  0  0
 15  1  1  0  0  0  0
 16 21  1  0  0  0  0
 17 18  2  0  0  0  0
 17  5  1  0  0  0  0
 18  6  1  0  0  0  0
 19 10  1  0  0  0  0
 20  3  2  0  0  0  0
 20 21  1  0  0  0  0
 21 11  2  0  0  0  0
 23 22  1  6  0  0  0
 23 14  1  0  0  0  0
 24 27  2  0  0  0  0
 25 26  1  0  0  0  0
 26 27  1  0  0  0  0
 26 28  1  0  0  0  0
 27 23  1  0  0  0  0
 28 29  1  0  0  0  0
 29 30  2  0  0  0  0
 31 29  1  0  0  0  0
M  END
>  <MODEL>
5

>  <REMARK>
 VINA RESULT:      -9.1      1.634      1.972
  Name = 
  4 active torsions:
  status: ('A' for Active; 'I' for Inactive)
    1  A    between atoms: C_1  and  C_24
    2  A    between atoms: C_9  and  C_22
    3  A    between atoms: C_9  and  N_23
    4  A    between atoms: N_19  and  C_24
                            x       y       z     vdW  Elec       q    Type
                         _______ _______ _______ _____ _____    ______ ____

>  <TORSDO>
F 4

$$$$
=
 OpenBabel10272400343D

 31 34  0  0  1  0  0  0  0  0999 V2000
  184.2920  179.1430  143.7710 C   0  0  0  0  0  0  0  0  0  0  0  0
  187.6900  177.3620  144.0610 C   0  0  1  0  0  3  0  0  0  0  0  0
  188.0230  177.5040  145.5430 C   0  0  0  0  0  0  0  0  0  0  0  0
  187.2910  177.4490  147.8660 C   0  0  0  0  0  3  0  0  0  0  0  0
  186.4690  178.0880  143.5210 C   0  0  0  0  0  0  0  0  0  0  0  0
  184.1620  179.2160  142.3830 C   0  0  0  0  0  3  0  0  0  0  0  0
  187.0010  177.4340  146.5020 C   0  0  0  0  0  3  0  0  0  0  0  0
  188.5610  177.3870  141.7140 C   0  0  0  0  0  0  0  0  0  0  0  0
  183.3040  179.6120  144.5700 F   0  0  0  0  0  0  0  0  0  0  0  0
  190.5170  177.4980  144.9990 C   0  0  0  0  0  2  0  0  0  0  0  0
  188.6160  177.5040  148.2950 C   0  0  0  0  0  3  0  0  0  0  0  0
  187.3760  177.6890  141.2620 N   0  0  0  0  0  0  0  0  0  0  0  0
  188.8960  177.6650  143.1580 C   0  0  2  0  0  3  0  0  0  0  0  0
  189.5830  176.9500  140.8110 N   0  0  0  0  0  2  0  0  0  0  0  0
  185.4350  178.5700  144.3370 C   0  0  0  0  0  3  0  0  0  0  0  0
  191.3070  177.5730  147.9680 Cl  0  0  0  0  0  0  0  0  0  0  0  0
  186.3280  178.1690  142.1190 C   0  0  0  0  0  0  0  0  0  0  0  0
  185.1780  178.7280  141.5570 C   0  0  0  0  0  3  0  0  0  0  0  0
  190.1180  176.9110  143.6530 C   0  0  0  0  0  2  0  0  0  0  0  0
  189.3740  177.4930  145.9850 C   0  0  0  0  0  0  0  0  0  0  0  0
  189.6570  177.5260  147.3660 C   0  0  0  0  0  0  0  0  0  0  0  0
  190.6150  176.2330  138.7170 C   0  0  0  0  0  1  0  0  0  0  0  0
  189.3360  176.6920  139.3980 C   0  0  2  0  0  3  0  0  0  0  0  0
  189.2740  179.0540  139.0690 O   0  0  0  0  0  0  0  0  0  0  0  0
  187.2700  179.0470  137.1050 C   0  0  0  0  0  1  0  0  0  0  0  0
  187.7750  177.8420  137.7440 N   0  0  0  0  0  0  0  0  0  0  0  0
  188.8090  177.9290  138.7380 C   0  0  0  0  0  0  0  0  0  0  0  0
  187.2280  176.5560  137.3310 C   0  0  0  0  0  2  0  0  0  0  0  0
  187.6070  176.2600  135.9200 C   0  0  0  0  0  0  0  0  0  0  0  0
  188.8170  176.1050  135.6110 O   0  0  0  0  0  0  0  0  0  0  0  0
  186.5990  176.1200  134.9260 N   0  0  0  0  0  1  0  0  0  0  0  0
  1 15  1  0  0  0  0
  1  9  1  0  0  0  0
  2  5  1  6  0  0  0
  2  3  1  0  0  0  0
  3 20  2  0  0  0  0
  3  7  1  0  0  0  0
  4 11  1  0  0  0  0
  5 15  2  0  0  0  0
  6  1  2  0  0  0  0
  7  4  2  0  0  0  0
  8 13  1  0  0  0  0
 10 20  1  0  0  0  0
 12  8  2  0  0  0  0
 12 17  1  0  0  0  0
 13 19  1  1  0  0  0
 13  2  1  0  0  0  0
 14  8  1  0  0  0  0
 17  5  1  0  0  0  0
 18 17  2  0  0  0  0
 18  6  1  0  0  0  0
 19 10  1  0  0  0  0
 20 21  1  0  0  0  0
 21 16  1  0  0  0  0
 21 11  2  0  0  0  0
 23 22  1  6  0  0  0
 23 14  1  0  0  0  0
 25 26  1  0  0  0  0
 26 27  1  0  0  0  0
 27 24  2  0  0  0  0
 27 23  1  0  0  0  0
 28 26  1  0  0  0  0
 29 28  1  0  0  0  0
 30 29  2  0  0  0  0
 31 29  1  0  0  0  0
M  END
>  <MODEL>
6

>  <REMARK>
 VINA RESULT:      -8.7      2.995      4.978
  Name = 
  4 active torsions:
  status: ('A' for Active; 'I' for Inactive)
    1  A    between atoms: C_1  and  C_24
    2  A    between atoms: C_9  and  C_22
    3  A    between atoms: C_9  and  N_23
    4  A    between atoms: N_19  and  C_24
                            x       y       z     vdW  Elec       q    Type
                         _______ _______ _______ _____ _____    ______ ____

>  <TORSDO>
F 4

$$$$
=
 OpenBabel10272400343D

 31 34  0  0  1  0  0  0  0  0999 V2000
  189.9950  176.7540  145.5360 C   0  0  0  0  0  0  0  0  0  0  0  0
  187.3850  178.4420  143.2690 C   0  0  1  0  0  3  0  0  0  0  0  0
  186.1420  178.4800  144.1520 C   0  0  0  0  0  0  0  0  0  0  0  0
  185.1420  178.8570  146.3410 C   0  0  0  0  0  3  0  0  0  0  0  0
  188.6080  177.6940  143.7740 C   0  0  0  0  0  0  0  0  0  0  0  0
  191.0130  176.5080  144.6110 C   0  0  0  0  0  3  0  0  0  0  0  0
  186.2670  178.7060  145.5310 C   0  0  0  0  0  3  0  0  0  0  0  0
  188.3000  178.0870  140.9660 C   0  0  0  0  0  0  0  0  0  0  0  0
  190.1690  176.4240  146.8370 F   0  0  0  0  0  0  0  0  0  0  0  0
  184.6510  178.3320  142.0860 C   0  0  0  0  0  2  0  0  0  0  0  0
  183.8680  178.8130  145.7780 C   0  0  0  0  0  3  0  0  0  0  0  0
  189.4630  177.7700  141.4600 N   0  0  0  0  0  0  0  0  0  0  0  0
  187.0720  177.9850  141.8350 C   0  0  2  0  0  3  0  0  0  0  0  0
  188.1680  178.3700  139.5680 N   0  0  0  0  0  2  0  0  0  0  0  0
  188.8050  177.3560  145.1200 C   0  0  0  0  0  3  0  0  0  0  0  0
  182.0810  178.6120  143.7480 Cl  0  0  0  0  0  0  0  0  0  0  0  0
  189.6420  177.4390  142.8470 C   0  0  0  0  0  0  0  0  0  0  0  0
  190.8370  176.8520  143.2690 C   0  0  0  0  0  3  0  0  0  0  0  0
  185.8790  178.7550  141.2950 C   0  0  0  0  0  2  0  0  0  0  0  0
  184.8430  178.5020  143.5740 C   0  0  0  0  0  0  0  0  0  0  0  0
  183.7120  178.6370  144.4030 C   0  0  0  0  0  0  0  0  0  0  0  0
  188.9800  179.3560  137.4870 C   0  0  0  0  0  1  0  0  0  0  0  0
  189.3080  178.4530  138.6650 C   0  0  2  0  0  3  0  0  0  0  0  0
  190.8670  176.6800  138.3230 O   0  0  0  0  0  0  0  0  0  0  0  0
  189.0690  174.9070  137.0990 C   0  0  0  0  0  1  0  0  0  0  0  0
  188.7010  176.2380  137.5610 N   0  0  0  0  0  0  0  0  0  0  0  0
  189.6800  177.0840  138.1840 C   0  0  0  0  0  0  0  0  0  0  0  0
  187.3190  176.6700  137.4000 C   0  0  0  0  0  2  0  0  0  0  0  0
  186.9140  176.5930  135.9680 C   0  0  0  0  0  0  0  0  0  0  0  0
  187.4490  177.3530  135.1200 O   0  0  0  0  0  0  0  0  0  0  0  0
  185.9440  175.6390  135.5520 N   0  0  0  0  0  1  0  0  0  0  0  0
  1  9  1  0  0  0  0
  2  5  1  1  0  0  0
  2  3  1  0  0  0  0
  3  7  1  0  0  0  0
  5 15  2  0  0  0  0
  6  1  2  0  0  0  0
  7  4  2  0  0  0  0
  8 12  2  0  0  0  0
  8 13  1  0  0  0  0
 10 20  1  0  0  0  0
 11  4  1  0  0  0  0
 12 17  1  0  0  0  0
 13 19  1  6  0  0  0
 13  2  1  0  0  0  0
 14  8  1  0  0  0  0
 15  1  1  0  0  0  0
 16 21  1  0  0  0  0
 17 18  2  0  0  0  0
 17  5  1  0  0  0  0
 18  6  1  0  0  0  0
 19 10  1  0  0  0  0
 20  3  2  0  0  0  0
 20 21  1  0  0  0  0
 21 11  2  0  0  0  0
 23 22  1  6  0  0  0
 23 14  1  0  0  0  0
 25 26  1  0  0  0  0
 26 27  1  0  0  0  0
 27 24  2  0  0  0  0
 27 23  1  0  0  0  0
 28 26  1  0  0  0  0
 29 28  1  0  0  0  0
 30 29  2  0  0  0  0
 31 29  1  0  0  0  0
M  END
>  <MODEL>
7

>  <REMARK>
 VINA RESULT:      -8.7      1.703      2.663
  Name = 
  4 active torsions:
  status: ('A' for Active; 'I' for Inactive)
    1  A    between atoms: C_1  and  C_24
    2  A    between atoms: C_9  and  C_22
    3  A    between atoms: C_9  and  N_23
    4  A    between atoms: N_19  and  C_24
                            x       y       z     vdW  Elec       q    Type
                         _______ _______ _______ _____ _____    ______ ____

>  <TORSDO>
F 4

$$$$
=
 OpenBabel10272400343D

 31 34  0  0  1  0  0  0  0  0999 V2000
  186.2420  178.1970  146.5670 C   0  0  0  0  0  0  0  0  0  0  0  0
  187.1830  177.6320  142.8790 C   0  0  1  0  0  3  0  0  0  0  0  0
  188.6820  177.3610  142.9490 C   0  0  0  0  0  0  0  0  0  0  0  0
  190.5640  176.2840  144.0590 C   0  0  0  0  0  3  0  0  0  0  0  0
  186.4650  178.0590  144.1490 C   0  0  0  0  0  0  0  0  0  0  0  0
  184.9440  178.6920  146.4240 C   0  0  0  0  0  3  0  0  0  0  0  0
  189.2160  176.6410  144.0280 C   0  0  0  0  0  3  0  0  0  0  0  0
  185.3160  178.7360  141.6280 C   0  0  0  0  0  0  0  0  0  0  0  0
  186.7660  178.0180  147.8020 F   0  0  0  0  0  0  0  0  0  0  0  0
  188.9850  178.3520  140.6170 C   0  0  0  0  0  2  0  0  0  0  0  0
  191.3970  176.6170  142.9930 C   0  0  0  0  0  3  0  0  0  0  0  0
  184.5910  178.7710  142.7100 N   0  0  0  0  0  0  0  0  0  0  0  0
  186.8140  178.5990  141.7430 C   0  0  2  0  0  3  0  0  0  0  0  0
  184.7150  178.9900  140.3530 N   0  0  0  0  0  2  0  0  0  0  0  0
  186.9930  177.8710  145.4350 C   0  0  0  0  0  3  0  0  0  0  0  0
  191.9800  177.6630  140.5600 Cl  0  0  0  0  0  0  0  0  0  0  0  0
  185.1530  178.5620  144.0160 C   0  0  0  0  0  0  0  0  0  0  0  0
  184.3990  178.8730  145.1510 C   0  0  0  0  0  3  0  0  0  0  0  0
  187.4840  178.1620  140.4520 C   0  0  0  0  0  2  0  0  0  0  0  0
  189.5210  177.6400  141.8350 C   0  0  0  0  0  0  0  0  0  0  0  0
  190.8850  177.2910  141.8840 C   0  0  0  0  0  0  0  0  0  0  0  0
  182.5180  178.2270  141.0980 C   0  0  0  0  0  1  0  0  0  0  0  0
  183.2790  179.1630  140.1740 C   0  0  2  0  0  3  0  0  0  0  0  0
  183.5480  178.0400  138.0870 O   0  0  0  0  0  0  0  0  0  0  0  0
  181.4800  179.3750  136.7400 C   0  0  0  0  0  1  0  0  0  0  0  0
  181.8380  179.6350  138.1260 N   0  0  0  0  0  0  0  0  0  0  0  0
  182.9070  178.9030  138.7470 C   0  0  0  0  0  0  0  0  0  0  0  0
  181.0700  180.6280  138.8660 C   0  0  0  0  0  2  0  0  0  0  0  0
  181.4140  182.0020  138.4020 C   0  0  0  0  0  0  0  0  0  0  0  0
  182.6010  182.4110  138.4710 O   0  0  0  0  0  0  0  0  0  0  0  0
  180.4060  182.8410  137.8520 N   0  0  0  0  0  1  0  0  0  0  0  0
  1  9  1  0  0  0  0
  2  3  1  1  0  0  0
  2  5  1  0  0  0  0
  3  7  1  0  0  0  0
  5 15  1  0  0  0  0
  6  1  1  0  0  0  0
  7  4  2  0  0  0  0
  8 13  1  0  0  0  0
  8 12  2  0  0  0  0
 10 20  1  0  0  0  0
 11  4  1  0  0  0  0
 12 17  1  0  0  0  0
 13 19  1  6  0  0  0
 13  2  1  0  0  0  0
 14  8  1  0  0  0  0
 15  1  2  0  0  0  0
 16 21  1  0  0  0  0
 17  5  2  0  0  0  0
 17 18  1  0  0  0  0
 18  6  2  0  0  0  0
 19 10  1  0  0  0  0
 20 21  1  0  0  0  0
 20  3  2  0  0  0  0
 21 11  2  0  0  0  0
 23 14  1  0  0  0  0
 23 22  1  1  0  0  0
 24 27  2  0  0  0  0
 25 26  1  0  0  0  0
 26 27  1  0  0  0  0
 26 28  1  0  0  0  0
 27 23  1  0  0  0  0
 29 30  2  0  0  0  0
 29 28  1  0  0  0  0
 31 29  1  0  0  0  0
M  END
>  <MODEL>
8

>  <REMARK>
 VINA RESULT:      -8.7      4.378      7.361
  Name = 
  4 active torsions:
  status: ('A' for Active; 'I' for Inactive)
    1  A    between atoms: C_1  and  C_24
    2  A    between atoms: C_9  and  C_22
    3  A    between atoms: C_9  and  N_23
    4  A    between atoms: N_19  and  C_24
                            x       y       z     vdW  Elec       q    Type
                         _______ _______ _______ _____ _____    ______ ____

>  <TORSDO>
F 4

$$$$
=
 OpenBabel10272400343D

 31 34  0  0  1  0  0  0  0  0999 V2000
  183.7670  178.5120  144.5880 C   0  0  0  0  0  0  0  0  0  0  0  0
  186.6310  178.7340  142.0290 C   0  0  1  0  0  3  0  0  0  0  0  0
  185.9010  178.6440  140.6930 C   0  0  0  0  0  0  0  0  0  0  0  0
  184.0060  179.2740  139.2980 C   0  0  0  0  0  3  0  0  0  0  0  0
  185.8330  178.5250  143.3060 C   0  0  0  0  0  0  0  0  0  0  0  0
  184.4940  178.3350  145.7680 C   0  0  0  0  0  3  0  0  0  0  0  0
  184.6430  179.2460  140.5380 C   0  0  0  0  0  3  0  0  0  0  0  0
  188.6480  178.0700  143.3560 C   0  0  0  0  0  0  0  0  0  0  0  0
  182.4160  178.5960  144.6320 F   0  0  0  0  0  0  0  0  0  0  0  0
  187.9460  177.5440  139.6330 C   0  0  0  0  0  2  0  0  0  0  0  0
  184.6320  178.7230  138.1810 C   0  0  0  0  0  3  0  0  0  0  0  0
  187.9900  178.2390  144.4680 N   0  0  0  0  0  0  0  0  0  0  0  0
  187.8880  177.8510  142.0710 C   0  0  2  0  0  3  0  0  0  0  0  0
  190.0730  177.9310  143.3790 N   0  0  0  0  0  2  0  0  0  0  0  0
  184.4350  178.6190  143.3650 C   0  0  0  0  0  3  0  0  0  0  0  0
  186.6510  177.5000  136.8460 Cl  0  0  0  0  0  0  0  0  0  0  0  0
  186.5580  178.3450  144.5030 C   0  0  0  0  0  0  0  0  0  0  0  0
  185.8880  178.2540  145.7260 C   0  0  0  0  0  3  0  0  0  0  0  0
  188.7250  178.0800  140.8250 C   0  0  0  0  0  2  0  0  0  0  0  0
  186.5630  178.1420  139.5390 C   0  0  0  0  0  0  0  0  0  0  0  0
  185.9040  178.1590  138.2940 C   0  0  0  0  0  0  0  0  0  0  0  0
  191.9830  179.1020  144.3510 C   0  0  0  0  0  1  0  0  0  0  0  0
  190.8660  178.0990  144.5900 C   0  0  2  0  0  3  0  0  0  0  0  0
  191.7970  175.9500  144.1380 O   0  0  0  0  0  0  0  0  0  0  0  0
  192.1100  175.1700  146.8150 C   0  0  0  0  0  1  0  0  0  0  0  0
  191.5550  176.4520  146.4090 N   0  0  0  0  0  0  0  0  0  0  0  0
  191.4340  176.7800  145.0160 C   0  0  0  0  0  0  0  0  0  0  0  0
  191.1580  177.3950  147.4460 C   0  0  0  0  0  2  0  0  0  0  0  0
  189.6840  177.3420  147.6590 C   0  0  0  0  0  0  0  0  0  0  0  0
  189.0160  176.3770  147.2060 O   0  0  0  0  0  0  0  0  0  0  0  0
  189.0340  178.3650  148.4030 N   0  0  0  0  0  1  0  0  0  0  0  0
  1  9  1  0  0  0  0
  1  6  1  0  0  0  0
  2  3  1  6  0  0  0
  2 13  1  0  0  0  0
  2  5  1  0  0  0  0
  4  7  2  0  0  0  0
  5 15  1  0  0  0  0
  5 17  2  0  0  0  0
  7  3  1  0  0  0  0
  8 14  1  0  0  0  0
  8 12  2  0  0  0  0
 10 19  1  0  0  0  0
 11 21  2  0  0  0  0
 11  4  1  0  0  0  0
 12 17  1  0  0  0  0
 13 19  1  6  0  0  0
 13  8  1  0  0  0  0
 14 23  1  0  0  0  0
 15  1  2  0  0  0  0
 16 21  1  0  0  0  0
 17 18  1  0  0  0  0
 18  6  2  0  0  0  0
 20 10  1  0  0  0  0
 20  3  2  0  0  0  0
 21 20  1  0  0  0  0
 23 22  1  6  0  0  0
 23 27  1  0  0  0  0
 24 27  2  0  0  0  0
 26 25  1  0  0  0  0
 26 28  1  0  0  0  0
 27 26  1  0  0  0  0
 28 29  1  0  0  0  0
 29 31  1  0  0  0  0
 30 29  2  0  0  0  0
M  END
>  <MODEL>
9

>  <REMARK>
 VINA RESULT:      -8.6      3.894      6.809
  Name = 
  4 active torsions:
  status: ('A' for Active; 'I' for Inactive)
    1  A    between atoms: C_1  and  C_24
    2  A    between atoms: C_9  and  C_22
    3  A    between atoms: C_9  and  N_23
    4  A    between atoms: N_19  and  C_24
                            x       y       z     vdW  Elec       q    Type
                         _______ _______ _______ _____ _____    ______ ____

>  <TORSDO>
F 4

$$$$
