=
 OpenBabel10272400273D

 31 35  0  0  0  0  0  0  0  0999 V2000
  188.4070  177.5660  144.2430 C   0  0  0  0  0  0  0  0  0  0  0  0
  188.8660  177.4930  145.5760 C   0  0  0  0  0  0  0  0  0  0  0  0
  188.3200  177.3560  138.9660 O   0  0  0  0  0  0  0  0  0  0  0  0
  189.4770  177.0470  139.3580 C   0  0  0  0  0  0  0  0  0  0  0  0
  188.5330  177.6910  147.9780 C   0  0  0  0  0  0  0  0  0  0  0  0
  187.1000  177.9190  143.8760 C   0  0  0  0  0  0  0  0  0  0  0  0
  185.0420  178.4970  143.8240 N   0  0  0  0  0  0  0  0  0  0  0  0
  188.0380  177.7760  146.6750 C   0  0  0  0  0  3  0  0  0  0  0  0
  188.8600  177.3310  141.8280 C   0  0  0  0  0  0  0  0  0  0  0  0
  191.0400  176.8450  144.7710 N   0  0  0  0  0  0  0  0  0  0  0  0
  187.7230  177.9660  149.0290 F   0  0  0  0  0  0  0  0  0  0  0  0
  187.5660  177.6830  141.5490 N   0  0  0  0  0  0  0  0  0  0  0  0
  189.3030  177.2660  143.1780 C   0  0  0  0  0  0  0  0  0  0  0  0
  189.7730  177.0260  140.7630 N   0  0  0  0  0  2  0  0  0  0  0  0
  186.0520  178.2440  144.6520 N   0  0  0  0  0  0  0  0  0  0  0  0
  189.8620  177.3260  148.2010 C   0  0  0  0  0  3  0  0  0  0  0  0
  186.7230  177.9680  142.5680 C   0  0  0  0  0  0  0  0  0  0  0  0
  185.3990  178.3330  142.5260 C   0  0  0  0  0  3  0  0  0  0  0  0
  190.6200  176.9070  143.4810 C   0  0  0  0  0  3  0  0  0  0  0  0
  190.2130  177.1230  145.8120 C   0  0  0  0  0  0  0  0  0  0  0  0
  190.7010  177.0430  147.1190 C   0  0  0  0  0  3  0  0  0  0  0  0
  192.6790  176.0760  136.6560 C   0  0  0  0  0  0  0  0  0  0  0  0
  191.8770  176.7750  138.8240 C   0  0  0  0  0  3  0  0  0  0  0  0
  188.6810  176.1670  136.3550 Cl  0  0  0  0  0  0  0  0  0  0  0  0
  193.8050  175.7460  135.7440 C   0  0  0  0  0  1  0  0  0  0  0  0
  192.9360  176.4650  137.9690 C   0  0  0  0  0  3  0  0  0  0  0  0
  190.2930  176.3030  137.0460 C   0  0  0  0  0  0  0  0  0  0  0  0
  190.5440  176.7010  138.3850 C   0  0  0  0  0  0  0  0  0  0  0  0
  191.3630  175.9960  136.2000 C   0  0  0  0  0  3  0  0  0  0  0  0
  183.7080  178.8480  144.2750 C   0  0  0  0  0  2  0  0  0  0  0  0
  183.7270  179.0970  145.6470 O   0  0  0  0  0  1  0  0  0  0  0  0
  1  2  1  0  0  0  0
  2 20  2  0  0  0  0
  2  8  1  0  0  0  0
  3  4  2  0  0  0  0
  4 14  1  0  0  0  0
  5 16  1  0  0  0  0
  5 11  1  0  0  0  0
  6  1  1  0  0  0  0
  6 15  2  0  0  0  0
  7 30  1  0  0  0  0
  7 15  1  0  0  0  0
  8  5  2  0  0  0  0
  9 13  1  0  0  0  0
 10 20  1  0  0  0  0
 12  9  2  0  0  0  0
 12 17  1  0  0  0  0
 13 19  1  0  0  0  0
 13  1  2  0  0  0  0
 14  9  1  0  0  0  0
 17  6  1  0  0  0  0
 18 17  2  0  0  0  0
 18  7  1  0  0  0  0
 19 10  2  0  0  0  0
 20 21  1  0  0  0  0
 21 16  2  0  0  0  0
 22 26  1  0  0  0  0
 24 27  1  0  0  0  0
 25 22  1  0  0  0  0
 26 23  2  0  0  0  0
 27 28  2  0  0  0  0
 28 23  1  0  0  0  0
 28  4  1  0  0  0  0
 29 22  2  0  0  0  0
 29 27  1  0  0  0  0
 30 31  1  0  0  0  0
M  END
>  <MODEL>
1

>  <REMARK>
 VINA RESULT:     -10.5      0.000      0.000
  Name = 
  2 active torsions:
  status: ('A' for Active; 'I' for Inactive)
    1  A    between atoms: C_2  and  N_13
    2  A    between atoms: C_9  and  C_22
                            x       y       z     vdW  Elec       q    Type
                         _______ _______ _______ _____ _____    ______ ____

>  <TORSDO>
F 2

$$$$
=
 OpenBabel10272400273D

 31 35  0  0  0  0  0  0  0  0999 V2000
  187.7480  178.0010  139.4950 C   0  0  0  0  0  0  0  0  0  0  0  0
  188.2300  177.8410  138.1770 C   0  0  0  0  0  0  0  0  0  0  0  0
  187.5260  177.9950  144.7720 O   0  0  0  0  0  0  0  0  0  0  0  0
  188.6580  177.5680  144.4200 C   0  0  0  0  0  0  0  0  0  0  0  0
  187.9710  177.9840  135.7620 C   0  0  0  0  0  0  0  0  0  0  0  0
  186.4710  178.4840  139.8160 C   0  0  0  0  0  0  0  0  0  0  0  0
  184.4760  179.2490  139.7960 N   0  0  0  0  0  0  0  0  0  0  0  0
  187.4560  178.1570  137.0480 C   0  0  0  0  0  3  0  0  0  0  0  0
  188.1240  177.8150  141.9270 C   0  0  0  0  0  0  0  0  0  0  0  0
  190.3160  177.0260  139.0590 N   0  0  0  0  0  0  0  0  0  0  0  0
  187.2140  178.2930  134.6820 F   0  0  0  0  0  0  0  0  0  0  0  0
  186.8630  178.2950  142.1610 N   0  0  0  0  0  0  0  0  0  0  0  0
  188.5890  177.6590  140.5920 C   0  0  0  0  0  0  0  0  0  0  0  0
  188.9820  177.4680  143.0250 N   0  0  0  0  0  2  0  0  0  0  0  0
  185.4790  178.8840  139.0030 N   0  0  0  0  0  0  0  0  0  0  0  0
  189.2650  177.4910  135.5860 C   0  0  0  0  0  3  0  0  0  0  0  0
  186.0710  178.6140  141.1110 C   0  0  0  0  0  0  0  0  0  0  0  0
  184.7900  179.1120  141.1070 C   0  0  0  0  0  3  0  0  0  0  0  0
  189.8750  177.1720  140.3350 C   0  0  0  0  0  3  0  0  0  0  0  0
  189.5420  177.3420  137.9890 C   0  0  0  0  0  0  0  0  0  0  0  0
  190.0490  177.1700  136.6980 C   0  0  0  0  0  3  0  0  0  0  0  0
  191.6820  176.3520  147.2270 C   0  0  0  0  0  0  0  0  0  0  0  0
  190.8750  176.6150  144.9660 C   0  0  0  0  0  3  0  0  0  0  0  0
  188.0270  177.9710  147.5610 Cl  0  0  0  0  0  0  0  0  0  0  0  0
  192.7430  175.9230  148.1740 C   0  0  0  0  0  1  0  0  0  0  0  0
  191.8740  176.2130  145.8540 C   0  0  0  0  0  3  0  0  0  0  0  0
  189.4820  177.3030  146.8320 C   0  0  0  0  0  0  0  0  0  0  0  0
  189.6690  177.1650  145.4310 C   0  0  0  0  0  0  0  0  0  0  0  0
  190.4910  176.8950  147.7110 C   0  0  0  0  0  3  0  0  0  0  0  0
  183.2210  179.7860  139.3010 C   0  0  0  0  0  2  0  0  0  0  0  0
  183.4230  181.0770  138.8130 O   0  0  0  0  0  1  0  0  0  0  0  0
  1  6  1  0  0  0  0
  1 13  1  0  0  0  0
  2  1  2  0  0  0  0
  4  3  2  0  0  0  0
  4 28  1  0  0  0  0
  5  8  2  0  0  0  0
  6 17  1  0  0  0  0
  7 18  1  0  0  0  0
  8  2  1  0  0  0  0
  9 12  2  0  0  0  0
  9 14  1  0  0  0  0
 10 19  1  0  0  0  0
 11  5  1  0  0  0  0
 13  9  1  0  0  0  0
 14  4  1  0  0  0  0
 15  7  1  0  0  0  0
 15  6  2  0  0  0  0
 16  5  1  0  0  0  0
 16 21  2  0  0  0  0
 17 12  1  0  0  0  0
 18 17  2  0  0  0  0
 19 13  2  0  0  0  0
 20  2  1  0  0  0  0
 20 10  2  0  0  0  0
 21 20  1  0  0  0  0
 22 29  1  0  0  0  0
 22 25  1  0  0  0  0
 23 28  2  0  0  0  0
 23 26  1  0  0  0  0
 26 22  2  0  0  0  0
 27 24  1  0  0  0  0
 27 29  2  0  0  0  0
 28 27  1  0  0  0  0
 30  7  1  0  0  0  0
 31 30  1  0  0  0  0
M  END
>  <MODEL>
2

>  <REMARK>
 VINA RESULT:     -10.4      4.059      7.848
  Name = 
  2 active torsions:
  status: ('A' for Active; 'I' for Inactive)
    1  A    between atoms: C_2  and  N_13
    2  A    between atoms: C_9  and  C_22
                            x       y       z     vdW  Elec       q    Type
                         _______ _______ _______ _____ _____    ______ ____

>  <TORSDO>
F 2

$$$$
=
 OpenBabel10272400273D

 31 35  0  0  0  0  0  0  0  0999 V2000
  188.0610  177.6150  144.3520 C   0  0  0  0  0  0  0  0  0  0  0  0
  186.8330  177.9820  144.9450 C   0  0  0  0  0  0  0  0  0  0  0  0
  191.7040  176.4520  140.7080 O   0  0  0  0  0  0  0  0  0  0  0  0
  190.6240  176.7250  140.1190 C   0  0  0  0  0  0  0  0  0  0  0  0
  185.4370  178.4530  146.8810 C   0  0  0  0  0  0  0  0  0  0  0  0
  189.2300  177.3230  145.0700 C   0  0  0  0  0  0  0  0  0  0  0  0
  190.7120  176.9810  146.5720 N   0  0  0  0  0  0  0  0  0  0  0  0
  186.6690  178.0870  146.3350 C   0  0  0  0  0  3  0  0  0  0  0  0
  189.3820  177.1620  142.3160 C   0  0  0  0  0  0  0  0  0  0  0  0
  185.8500  178.1570  142.7540 N   0  0  0  0  0  0  0  0  0  0  0  0
  185.2940  178.5520  148.2240 F   0  0  0  0  0  0  0  0  0  0  0  0
  190.4810  176.8940  143.0870 N   0  0  0  0  0  0  0  0  0  0  0  0
  188.1540  177.5270  142.9340 C   0  0  0  0  0  0  0  0  0  0  0  0
  189.4620  177.0780  140.8850 N   0  0  0  0  0  2  0  0  0  0  0  0
  189.4410  177.3290  146.3980 N   0  0  0  0  0  0  0  0  0  0  0  0
  184.3510  178.7160  146.0440 C   0  0  0  0  0  3  0  0  0  0  0  0
  190.3820  176.9780  144.4340 C   0  0  0  0  0  0  0  0  0  0  0  0
  191.3430  176.7610  145.3920 C   0  0  0  0  0  3  0  0  0  0  0  0
  187.0210  177.8080  142.1620 C   0  0  0  0  0  3  0  0  0  0  0  0
  185.7250  178.2510  144.1030 C   0  0  0  0  0  0  0  0  0  0  0  0
  184.4950  178.6150  144.6570 C   0  0  0  0  0  3  0  0  0  0  0  0
  190.4520  176.4790  135.8290 C   0  0  0  0  0  0  0  0  0  0  0  0
  191.1780  175.6320  137.9700 C   0  0  0  0  0  3  0  0  0  0  0  0
  188.9840  179.0260  138.5580 Cl  0  0  0  0  0  0  0  0  0  0  0  0
  190.4090  176.3710  134.3480 C   0  0  0  0  0  1  0  0  0  0  0  0
  191.1390  175.5270  136.5790 C   0  0  0  0  0  3  0  0  0  0  0  0
  189.8360  177.6520  137.8640 C   0  0  0  0  0  0  0  0  0  0  0  0
  190.5340  176.6870  138.6370 C   0  0  0  0  0  0  0  0  0  0  0  0
  189.8050  177.5360  136.4710 C   0  0  0  0  0  3  0  0  0  0  0  0
  191.3500  176.9070  147.8740 C   0  0  0  0  0  2  0  0  0  0  0  0
  192.5360  176.1800  147.7740 O   0  0  0  0  0  1  0  0  0  0  0  0
  1  2  1  0  0  0  0
  1  6  1  0  0  0  0
  2  8  1  0  0  0  0
  4  3  2  0  0  0  0
  4 14  1  0  0  0  0
  5 11  1  0  0  0  0
  6 15  2  0  0  0  0
  7 30  1  0  0  0  0
  8  5  2  0  0  0  0
  9 13  1  0  0  0  0
  9 12  2  0  0  0  0
 10 20  1  0  0  0  0
 12 17  1  0  0  0  0
 13  1  2  0  0  0  0
 14  9  1  0  0  0  0
 15  7  1  0  0  0  0
 16  5  1  0  0  0  0
 17  6  1  0  0  0  0
 17 18  2  0  0  0  0
 18  7  1  0  0  0  0
 19 10  2  0  0  0  0
 19 13  1  0  0  0  0
 20 21  1  0  0  0  0
 20  2  2  0  0  0  0
 21 16  2  0  0  0  0
 22 29  2  0  0  0  0
 22 26  1  0  0  0  0
 23 28  1  0  0  0  0
 25 22  1  0  0  0  0
 26 23  2  0  0  0  0
 27 24  1  0  0  0  0
 27 28  2  0  0  0  0
 28  4  1  0  0  0  0
 29 27  1  0  0  0  0
 31 30  1  0  0  0  0
M  END
>  <MODEL>
3

>  <REMARK>
 VINA RESULT:     -10.0      2.412      4.231
  Name = 
  2 active torsions:
  status: ('A' for Active; 'I' for Inactive)
    1  A    between atoms: C_2  and  N_13
    2  A    between atoms: C_9  and  C_22
                            x       y       z     vdW  Elec       q    Type
                         _______ _______ _______ _____ _____    ______ ____

>  <TORSDO>
F 2

$$$$
=
 OpenBabel10272400273D

 31 35  0  0  0  0  0  0  0  0999 V2000
  187.2210  178.0930  143.7870 C   0  0  0  0  0  0  0  0  0  0  0  0
  187.0970  178.0950  145.1940 C   0  0  0  0  0  0  0  0  0  0  0  0
  186.0150  178.4980  138.6610 O   0  0  0  0  0  0  0  0  0  0  0  0
  184.9780  178.7390  139.3340 C   0  0  0  0  0  0  0  0  0  0  0  0
  188.0100  177.8260  147.4320 C   0  0  0  0  0  0  0  0  0  0  0  0
  188.4110  177.8150  143.0990 C   0  0  0  0  0  0  0  0  0  0  0  0
  190.4140  177.3360  142.5260 N   0  0  0  0  0  0  0  0  0  0  0  0
  188.1760  177.8120  146.0460 C   0  0  0  0  0  3  0  0  0  0  0  0
  186.1870  178.3940  141.5660 C   0  0  0  0  0  0  0  0  0  0  0  0
  184.7700  178.6700  144.9680 N   0  0  0  0  0  0  0  0  0  0  0  0
  189.0600  177.5510  148.2430 F   0  0  0  0  0  0  0  0  0  0  0  0
  187.3850  178.1140  140.9680 N   0  0  0  0  0  0  0  0  0  0  0  0
  186.0830  178.3890  142.9840 C   0  0  0  0  0  0  0  0  0  0  0  0
  185.0310  178.6950  140.7680 N   0  0  0  0  0  2  0  0  0  0  0  0
  189.6280  177.5120  143.5840 N   0  0  0  0  0  0  0  0  0  0  0  0
  186.7620  178.1200  147.9860 C   0  0  0  0  0  3  0  0  0  0  0  0
  188.4610  177.8310  141.7390 C   0  0  0  0  0  0  0  0  0  0  0  0
  189.7480  177.5300  141.3620 C   0  0  0  0  0  3  0  0  0  0  0  0
  184.8660  178.6750  143.6130 C   0  0  0  0  0  3  0  0  0  0  0  0
  185.8340  178.3930  145.7640 C   0  0  0  0  0  0  0  0  0  0  0  0
  185.6770  178.4030  147.1530 C   0  0  0  0  0  3  0  0  0  0  0  0
  181.2640  179.8430  137.4670 C   0  0  0  0  0  0  0  0  0  0  0  0
  183.1440  180.3410  138.8990 C   0  0  0  0  0  3  0  0  0  0  0  0
  183.5610  176.5550  137.4240 Cl  0  0  0  0  0  0  0  0  0  0  0  0
  179.9830  180.2500  136.8350 C   0  0  0  0  0  1  0  0  0  0  0  0
  181.9400  180.7260  138.3060 C   0  0  0  0  0  3  0  0  0  0  0  0
  182.9980  178.1760  137.8080 C   0  0  0  0  0  0  0  0  0  0  0  0
  183.6940  179.0690  138.6650 C   0  0  0  0  0  0  0  0  0  0  0  0
  181.7930  178.5750  137.2210 C   0  0  0  0  0  3  0  0  0  0  0  0
  191.8310  177.0320  142.6250 C   0  0  0  0  0  2  0  0  0  0  0  0
  192.0290  176.0290  143.5740 O   0  0  0  0  0  1  0  0  0  0  0  0
  1  2  1  0  0  0  0
  2 20  2  0  0  0  0
  2  8  1  0  0  0  0
  3  4  2  0  0  0  0
  4 14  1  0  0  0  0
  5 16  1  0  0  0  0
  5 11  1  0  0  0  0
  6 15  2  0  0  0  0
  6  1  1  0  0  0  0
  7 30  1  0  0  0  0
  7 15  1  0  0  0  0
  8  5  2  0  0  0  0
  9 13  1  0  0  0  0
 10 20  1  0  0  0  0
 12  9  2  0  0  0  0
 12 17  1  0  0  0  0
 13 19  1  0  0  0  0
 13  1  2  0  0  0  0
 14  9  1  0  0  0  0
 17  6  1  0  0  0  0
 18 17  2  0  0  0  0
 18  7  1  0  0  0  0
 19 10  2  0  0  0  0
 20 21  1  0  0  0  0
 21 16  2  0  0  0  0
 22 26  1  0  0  0  0
 24 27  1  0  0  0  0
 25 22  1  0  0  0  0
 26 23  2  0  0  0  0
 27 28  2  0  0  0  0
 28 23  1  0  0  0  0
 28  4  1  0  0  0  0
 29 22  2  0  0  0  0
 29 27  1  0  0  0  0
 30 31  1  0  0  0  0
M  END
>  <MODEL>
4

>  <REMARK>
 VINA RESULT:      -9.8      3.517      6.407
  Name = 
  2 active torsions:
  status: ('A' for Active; 'I' for Inactive)
    1  A    between atoms: C_2  and  N_13
    2  A    between atoms: C_9  and  C_22
                            x       y       z     vdW  Elec       q    Type
                         _______ _______ _______ _____ _____    ______ ____

>  <TORSDO>
F 2

$$$$
=
 OpenBabel10272400273D

 31 35  0  0  0  0  0  0  0  0999 V2000
  189.5590  177.4930  139.0380 C   0  0  0  0  0  0  0  0  0  0  0  0
  188.6370  177.7610  138.0030 C   0  0  0  0  0  0  0  0  0  0  0  0
  191.6240  176.8830  143.8610 O   0  0  0  0  0  0  0  0  0  0  0  0
  190.4190  177.2300  143.9850 C   0  0  0  0  0  0  0  0  0  0  0  0
  188.0360  177.9390  135.6520 C   0  0  0  0  0  0  0  0  0  0  0  0
  190.8920  177.1090  138.8290 C   0  0  0  0  0  0  0  0  0  0  0  0
  192.7910  176.5620  138.0150 N   0  0  0  0  0  0  0  0  0  0  0  0
  188.9800  177.6660  136.6450 C   0  0  0  0  0  3  0  0  0  0  0  0
  190.0540  177.3440  141.4520 C   0  0  0  0  0  0  0  0  0  0  0  0
  186.9530  178.2440  139.6550 N   0  0  0  0  0  0  0  0  0  0  0  0
  188.3800  177.8430  134.3460 F   0  0  0  0  0  0  0  0  0  0  0  0
  191.3400  176.9710  141.1670 N   0  0  0  0  0  0  0  0  0  0  0  0
  189.1410  177.6110  140.3940 C   0  0  0  0  0  0  0  0  0  0  0  0
  189.6200  177.4650  142.8150 N   0  0  0  0  0  2  0  0  0  0  0  0
  191.5550  176.9150  137.6760 N   0  0  0  0  0  0  0  0  0  0  0  0
  186.7380  178.3140  136.0040 C   0  0  0  0  0  3  0  0  0  0  0  0
  191.7280  176.8650  139.8750 C   0  0  0  0  0  0  0  0  0  0  0  0
  192.9510  176.5060  139.3600 C   0  0  0  0  0  3  0  0  0  0  0  0
  187.8230  177.9900  140.6670 C   0  0  0  0  0  3  0  0  0  0  0  0
  187.3160  178.1410  138.3510 C   0  0  0  0  0  0  0  0  0  0  0  0
  186.3790  178.4150  137.3510 C   0  0  0  0  0  3  0  0  0  0  0  0
  188.5250  177.7990  147.8040 C   0  0  0  0  0  0  0  0  0  0  0  0
  188.5570  178.0340  145.4010 C   0  0  0  0  0  3  0  0  0  0  0  0
  191.9820  176.1600  146.6000 Cl  0  0  0  0  0  0  0  0  0  0  0  0
  187.8480  178.0090  149.1100 C   0  0  0  0  0  1  0  0  0  0  0  0
  187.9180  178.2310  146.6270 C   0  0  0  0  0  3  0  0  0  0  0  0
  190.4190  176.9640  146.5330 C   0  0  0  0  0  0  0  0  0  0  0  0
  189.8090  177.4010  145.3280 C   0  0  0  0  0  0  0  0  0  0  0  0
  189.7690  177.1690  147.7550 C   0  0  0  0  0  3  0  0  0  0  0  0
  193.8190  176.2210  137.0480 C   0  0  0  0  0  2  0  0  0  0  0  0
  194.7710  175.3980  137.6470 O   0  0  0  0  0  1  0  0  0  0  0  0
  1 13  1  0  0  0  0
  2 20  1  0  0  0  0
  2  1  2  0  0  0  0
  3  4  2  0  0  0  0
  4 28  1  0  0  0  0
  5 16  1  0  0  0  0
  5  8  2  0  0  0  0
  6  1  1  0  0  0  0
  6 17  1  0  0  0  0
  7 18  1  0  0  0  0
  8  2  1  0  0  0  0
  9 14  1  0  0  0  0
 10 19  1  0  0  0  0
 11  5  1  0  0  0  0
 12  9  2  0  0  0  0
 13 19  2  0  0  0  0
 13  9  1  0  0  0  0
 14  4  1  0  0  0  0
 15  7  1  0  0  0  0
 15  6  2  0  0  0  0
 16 21  2  0  0  0  0
 17 12  1  0  0  0  0
 18 17  2  0  0  0  0
 20 10  2  0  0  0  0
 21 20  1  0  0  0  0
 22 25  1  0  0  0  0
 23 26  1  0  0  0  0
 26 22  2  0  0  0  0
 27 24  1  0  0  0  0
 27 29  2  0  0  0  0
 28 23  2  0  0  0  0
 28 27  1  0  0  0  0
 29 22  1  0  0  0  0
 30 31  1  0  0  0  0
 30  7  1  0  0  0  0
M  END
>  <MODEL>
5

>  <REMARK>
 VINA RESULT:      -9.3      4.233      9.235
  Name = 
  2 active torsions:
  status: ('A' for Active; 'I' for Inactive)
    1  A    between atoms: C_2  and  N_13
    2  A    between atoms: C_9  and  C_22
                            x       y       z     vdW  Elec       q    Type
                         _______ _______ _______ _____ _____    ______ ____

>  <TORSDO>
F 2

$$$$
=
 OpenBabel10272400273D

 31 35  0  0  0  0  0  0  0  0999 V2000
  185.5100  178.3430  141.7540 C   0  0  0  0  0  0  0  0  0  0  0  0
  184.1420  178.6380  141.9400 C   0  0  0  0  0  0  0  0  0  0  0  0
  190.5300  177.0570  142.7730 O   0  0  0  0  0  0  0  0  0  0  0  0
  189.8970  177.0810  143.8620 C   0  0  0  0  0  0  0  0  0  0  0  0
  181.9410  179.2440  141.1000 C   0  0  0  0  0  0  0  0  0  0  0  0
  186.1550  178.3350  140.5090 C   0  0  0  0  0  0  0  0  0  0  0  0
  186.6700  178.4490  138.4370 N   0  0  0  0  0  0  0  0  0  0  0  0
  183.2880  178.9590  140.8720 C   0  0  0  0  0  3  0  0  0  0  0  0
  187.6960  177.7240  142.7190 C   0  0  0  0  0  0  0  0  0  0  0  0
  184.4120  178.3070  144.3090 N   0  0  0  0  0  0  0  0  0  0  0  0
  181.1290  179.5510  140.0600 F   0  0  0  0  0  0  0  0  0  0  0  0
  188.2530  177.7350  141.4690 N   0  0  0  0  0  0  0  0  0  0  0  0
  186.3170  178.0270  142.8840 C   0  0  0  0  0  0  0  0  0  0  0  0
  188.4980  177.4060  143.8670 N   0  0  0  0  0  2  0  0  0  0  0  0
  185.6550  178.5840  139.2860 N   0  0  0  0  0  0  0  0  0  0  0  0
  181.4280  179.2170  142.3980 C   0  0  0  0  0  3  0  0  0  0  0  0
  187.4790  178.0380  140.4010 C   0  0  0  0  0  0  0  0  0  0  0  0
  187.8180  178.1040  139.0710 C   0  0  0  0  0  3  0  0  0  0  0  0
  185.7300  178.0180  144.1540 C   0  0  0  0  0  3  0  0  0  0  0  0
  183.6130  178.6120  143.2540 C   0  0  0  0  0  0  0  0  0  0  0  0
  182.2630  178.9010  143.4730 C   0  0  0  0  0  3  0  0  0  0  0  0
  191.9750  176.1100  147.5000 C   0  0  0  0  0  0  0  0  0  0  0  0
  191.7380  175.9870  145.1000 C   0  0  0  0  0  3  0  0  0  0  0  0
  188.6800  178.2230  146.6260 Cl  0  0  0  0  0  0  0  0  0  0  0  0
  192.7120  175.7590  148.7410 C   0  0  0  0  0  1  0  0  0  0  0  0
  192.4330  175.6570  146.2650 C   0  0  0  0  0  3  0  0  0  0  0  0
  190.1170  177.2320  146.4100 C   0  0  0  0  0  0  0  0  0  0  0  0
  190.5760  176.7750  145.1470 C   0  0  0  0  0  0  0  0  0  0  0  0
  190.8230  176.8930  147.5690 C   0  0  0  0  0  3  0  0  0  0  0  0
  186.5350  178.5980  136.9990 C   0  0  0  0  0  2  0  0  0  0  0  0
  187.5110  179.4750  136.5260 O   0  0  0  0  0  1  0  0  0  0  0  0
  1  2  2  0  0  0  0
  1 13  1  0  0  0  0
  2 20  1  0  0  0  0
  3  4  2  0  0  0  0
  4 14  1  0  0  0  0
  4 28  1  0  0  0  0
  5 16  1  0  0  0  0
  6  1  1  0  0  0  0
  7 18  1  0  0  0  0
  7 15  1  0  0  0  0
  8  5  2  0  0  0  0
  8  2  1  0  0  0  0
  9 13  1  0  0  0  0
  9 14  1  0  0  0  0
 11  5  1  0  0  0  0
 12  9  2  0  0  0  0
 13 19  2  0  0  0  0
 15  6  2  0  0  0  0
 16 21  2  0  0  0  0
 17  6  1  0  0  0  0
 17 12  1  0  0  0  0
 18 17  2  0  0  0  0
 19 10  1  0  0  0  0
 20 21  1  0  0  0  0
 20 10  2  0  0  0  0
 22 29  1  0  0  0  0
 22 25  1  0  0  0  0
 23 28  2  0  0  0  0
 23 26  1  0  0  0  0
 26 22  2  0  0  0  0
 27 24  1  0  0  0  0
 27 29  2  0  0  0  0
 28 27  1  0  0  0  0
 30  7  1  0  0  0  0
 31 30  1  0  0  0  0
M  END
>  <MODEL>
6

>  <REMARK>
 VINA RESULT:      -9.1      4.143      7.494
  Name = 
  2 active torsions:
  status: ('A' for Active; 'I' for Inactive)
    1  A    between atoms: C_2  and  N_13
    2  A    between atoms: C_9  and  C_22
                            x       y       z     vdW  Elec       q    Type
                         _______ _______ _______ _____ _____    ______ ____

>  <TORSDO>
F 2

$$$$
=
 OpenBabel10272400273D

 31 35  0  0  0  0  0  0  0  0999 V2000
  187.7840  177.7150  143.9500 C   0  0  0  0  0  0  0  0  0  0  0  0
  189.1300  177.3680  143.7000 C   0  0  0  0  0  0  0  0  0  0  0  0
  182.7050  178.9290  143.1640 O   0  0  0  0  0  0  0  0  0  0  0  0
  183.2460  178.7350  142.0430 C   0  0  0  0  0  0  0  0  0  0  0  0
  191.3880  176.8470  144.4390 C   0  0  0  0  0  0  0  0  0  0  0  0
  187.2450  177.9170  145.2290 C   0  0  0  0  0  0  0  0  0  0  0  0
  186.9020  178.1130  147.3300 N   0  0  0  0  0  0  0  0  0  0  0  0
  190.0670  177.1910  144.7310 C   0  0  0  0  0  3  0  0  0  0  0  0
  185.5300  178.2270  143.0850 C   0  0  0  0  0  0  0  0  0  0  0  0
  188.6670  177.3570  141.3380 N   0  0  0  0  0  0  0  0  0  0  0  0
  192.2820  176.6790  145.4440 F   0  0  0  0  0  0  0  0  0  0  0  0
  185.0770  178.4050  144.3650 N   0  0  0  0  0  0  0  0  0  0  0  0
  186.8890  177.8790  142.8550 C   0  0  0  0  0  0  0  0  0  0  0  0
  184.6370  178.3880  141.9720 N   0  0  0  0  0  2  0  0  0  0  0  0
  187.8400  177.8280  146.4320 N   0  0  0  0  0  0  0  0  0  0  0  0
  191.7920  176.6770  143.1130 C   0  0  0  0  0  3  0  0  0  0  0  0
  185.9360  178.2500  145.3990 C   0  0  0  0  0  0  0  0  0  0  0  0
  185.7050  178.3720  146.7480 C   0  0  0  0  0  3  0  0  0  0  0  0
  187.3690  177.6900  141.5540 C   0  0  0  0  0  3  0  0  0  0  0  0
  189.5480  177.1920  142.3580 C   0  0  0  0  0  0  0  0  0  0  0  0
  190.8730  176.8500  142.0750 C   0  0  0  0  0  3  0  0  0  0  0  0
  181.1150  179.1520  138.3300 C   0  0  0  0  0  0  0  0  0  0  0  0
  183.1350  179.3250  139.6430 C   0  0  0  0  0  3  0  0  0  0  0  0
  180.1140  177.9490  142.0230 Cl  0  0  0  0  0  0  0  0  0  0  0  0
  180.4030  179.3050  137.0350 C   0  0  0  0  0  1  0  0  0  0  0  0
  182.4680  179.4690  138.4240 C   0  0  0  0  0  3  0  0  0  0  0  0
  181.0850  178.5390  140.6800 C   0  0  0  0  0  0  0  0  0  0  0  0
  182.4640  178.8600  140.7860 C   0  0  0  0  0  0  0  0  0  0  0  0
  180.4300  178.6890  139.4540 C   0  0  0  0  0  3  0  0  0  0  0  0
  187.1340  178.0860  148.7630 C   0  0  0  0  0  2  0  0  0  0  0  0
  188.5050  178.0970  149.0160 O   0  0  0  0  0  1  0  0  0  0  0  0
  1  6  1  0  0  0  0
  2  1  1  0  0  0  0
  2  8  1  0  0  0  0
  4  3  2  0  0  0  0
  5  8  2  0  0  0  0
  5 11  1  0  0  0  0
  6 17  1  0  0  0  0
  6 15  2  0  0  0  0
  7 30  1  0  0  0  0
  9 12  2  0  0  0  0
 10 19  2  0  0  0  0
 10 20  1  0  0  0  0
 12 17  1  0  0  0  0
 13  9  1  0  0  0  0
 13  1  2  0  0  0  0
 14  4  1  0  0  0  0
 14  9  1  0  0  0  0
 15  7  1  0  0  0  0
 16  5  1  0  0  0  0
 17 18  2  0  0  0  0
 18  7  1  0  0  0  0
 19 13  1  0  0  0  0
 20  2  2  0  0  0  0
 21 20  1  0  0  0  0
 21 16  2  0  0  0  0
 22 26  2  0  0  0  0
 22 29  1  0  0  0  0
 23 28  2  0  0  0  0
 25 22  1  0  0  0  0
 26 23  1  0  0  0  0
 27 28  1  0  0  0  0
 27 24  1  0  0  0  0
 28  4  1  0  0  0  0
 29 27  2  0  0  0  0
 30 31  1  0  0  0  0
M  END
>  <MODEL>
7

>  <REMARK>
 VINA RESULT:      -9.1      3.826      6.768
  Name = 
  2 active torsions:
  status: ('A' for Active; 'I' for Inactive)
    1  A    between atoms: C_2  and  N_13
    2  A    between atoms: C_9  and  C_22
                            x       y       z     vdW  Elec       q    Type
                         _______ _______ _______ _____ _____    ______ ____

>  <TORSDO>
F 2

$$$$
=
 OpenBabel10272400273D

 31 35  0  0  0  0  0  0  0  0999 V2000
  186.1750  178.3700  141.6940 C   0  0  0  0  0  0  0  0  0  0  0  0
  185.9000  178.3890  143.0790 C   0  0  0  0  0  0  0  0  0  0  0  0
  188.7000  177.6830  137.1060 O   0  0  0  0  0  0  0  0  0  0  0  0
  189.4680  177.3300  138.0400 C   0  0  0  0  0  0  0  0  0  0  0  0
  184.4410  178.8300  144.9750 C   0  0  0  0  0  0  0  0  0  0  0  0
  185.2690  178.7790  140.7030 C   0  0  0  0  0  0  0  0  0  0  0  0
  183.5850  179.4920  139.5970 N   0  0  0  0  0  0  0  0  0  0  0  0
  184.6710  178.8290  143.5980 C   0  0  0  0  0  3  0  0  0  0  0  0
  187.7390  177.8830  139.8480 C   0  0  0  0  0  0  0  0  0  0  0  0
  188.1030  177.5180  143.5070 N   0  0  0  0  0  0  0  0  0  0  0  0
  183.2510  179.2560  145.4620 F   0  0  0  0  0  0  0  0  0  0  0  0
  186.8020  178.2980  138.9410 N   0  0  0  0  0  0  0  0  0  0  0  0
  187.4430  177.9120  141.2390 C   0  0  0  0  0  0  0  0  0  0  0  0
  189.0230  177.4180  139.4020 N   0  0  0  0  0  2  0  0  0  0  0  0
  184.0150  179.2460  140.8310 N   0  0  0  0  0  0  0  0  0  0  0  0
  185.4360  178.3950  145.8520 C   0  0  0  0  0  3  0  0  0  0  0  0
  185.5990  178.7340  139.3830 C   0  0  0  0  0  0  0  0  0  0  0  0
  184.5190  179.1860  138.6640 C   0  0  0  0  0  3  0  0  0  0  0  0
  188.3890  177.4900  142.1800 C   0  0  0  0  0  3  0  0  0  0  0  0
  186.9040  177.9480  143.9770 C   0  0  0  0  0  0  0  0  0  0  0  0
  186.6650  177.9540  145.3540 C   0  0  0  0  0  3  0  0  0  0  0  0
  193.3740  175.8200  137.0600 C   0  0  0  0  0  0  0  0  0  0  0  0
  191.0810  176.3000  136.4730 C   0  0  0  0  0  3  0  0  0  0  0  0
  191.7350  177.4550  140.3350 Cl  0  0  0  0  0  0  0  0  0  0  0  0
  194.7140  175.2920  136.6950 C   0  0  0  0  0  1  0  0  0  0  0  0
  192.3390  175.8030  136.1270 C   0  0  0  0  0  3  0  0  0  0  0  0
  191.8950  176.8350  138.6970 C   0  0  0  0  0  0  0  0  0  0  0  0
  190.8340  176.8220  137.7530 C   0  0  0  0  0  0  0  0  0  0  0  0
  193.1500  176.3340  138.3370 C   0  0  0  0  0  3  0  0  0  0  0  0
  182.2490  179.9760  139.2990 C   0  0  0  0  0  2  0  0  0  0  0  0
  182.3320  181.1560  138.5590 O   0  0  0  0  0  1  0  0  0  0  0  0
  1  2  1  0  0  0  0
  2  8  2  0  0  0  0
  2 20  1  0  0  0  0
  3  4  2  0  0  0  0
  4 14  1  0  0  0  0
  5 11  1  0  0  0  0
  5 16  2  0  0  0  0
  6 15  2  0  0  0  0
  6  1  1  0  0  0  0
  7 15  1  0  0  0  0
  8  5  1  0  0  0  0
  9 13  1  0  0  0  0
 10 20  1  0  0  0  0
 12 17  1  0  0  0  0
 12  9  2  0  0  0  0
 13  1  2  0  0  0  0
 13 19  1  0  0  0  0
 14  9  1  0  0  0  0
 17  6  1  0  0  0  0
 18 17  2  0  0  0  0
 18  7  1  0  0  0  0
 19 10  2  0  0  0  0
 20 21  2  0  0  0  0
 21 16  1  0  0  0  0
 22 29  1  0  0  0  0
 23 28  2  0  0  0  0
 25 22  1  0  0  0  0
 26 23  1  0  0  0  0
 26 22  2  0  0  0  0
 27 24  1  0  0  0  0
 28  4  1  0  0  0  0
 28 27  1  0  0  0  0
 29 27  2  0  0  0  0
 30  7  1  0  0  0  0
 31 30  1  0  0  0  0
M  END
>  <MODEL>
8

>  <REMARK>
 VINA RESULT:      -9.1      2.826      3.773
  Name = 
  2 active torsions:
  status: ('A' for Active; 'I' for Inactive)
    1  A    between atoms: C_2  and  N_13
    2  A    between atoms: C_9  and  C_22
                            x       y       z     vdW  Elec       q    Type
                         _______ _______ _______ _____ _____    ______ ____

>  <TORSDO>
F 2

$$$$
=
 OpenBabel10272400273D

 31 35  0  0  0  0  0  0  0  0999 V2000
  187.1710  177.9960  143.5530 C   0  0  0  0  0  0  0  0  0  0  0  0
  185.8070  178.3400  143.6780 C   0  0  0  0  0  0  0  0  0  0  0  0
  191.8310  176.7230  141.4180 O   0  0  0  0  0  0  0  0  0  0  0  0
  190.9940  176.8710  140.4890 C   0  0  0  0  0  0  0  0  0  0  0  0
  183.8450  178.9040  145.0010 C   0  0  0  0  0  0  0  0  0  0  0  0
  188.0500  177.8480  144.6350 C   0  0  0  0  0  0  0  0  0  0  0  0
  188.9740  177.7430  146.5600 N   0  0  0  0  0  0  0  0  0  0  0  0
  185.1970  178.5660  144.9220 C   0  0  0  0  0  3  0  0  0  0  0  0
  189.0930  177.4360  142.1100 C   0  0  0  0  0  0  0  0  0  0  0  0
  185.5840  178.2440  141.2830 N   0  0  0  0  0  0  0  0  0  0  0  0
  183.2700  179.1210  146.2080 F   0  0  0  0  0  0  0  0  0  0  0  0
  189.8900  177.3110  143.2160 N   0  0  0  0  0  0  0  0  0  0  0  0
  187.7220  177.7800  142.2580 C   0  0  0  0  0  0  0  0  0  0  0  0
  189.6370  177.2220  140.7980 N   0  0  0  0  0  2  0  0  0  0  0  0
  187.8180  177.9930  145.9520 N   0  0  0  0  0  0  0  0  0  0  0  0
  183.0820  179.0180  143.8370 C   0  0  0  0  0  3  0  0  0  0  0  0
  189.3570  177.5160  144.4430 C   0  0  0  0  0  0  0  0  0  0  0  0
  189.9600  177.4520  145.6760 C   0  0  0  0  0  3  0  0  0  0  0  0
  186.8930  177.9140  141.1380 C   0  0  0  0  0  3  0  0  0  0  0  0
  185.0250  178.4580  142.5010 C   0  0  0  0  0  0  0  0  0  0  0  0
  183.6720  178.7950  142.5890 C   0  0  0  0  0  3  0  0  0  0  0  0
  192.2990  176.3420  136.4250 C   0  0  0  0  0  0  0  0  0  0  0  0
  192.7640  176.6310  138.7770 C   0  0  0  0  0  3  0  0  0  0  0  0
  188.7190  176.6170  138.2120 Cl  0  0  0  0  0  0  0  0  0  0  0  0
  192.7770  176.1600  135.0300 C   0  0  0  0  0  1  0  0  0  0  0  0
  193.2160  176.4600  137.4670 C   0  0  0  0  0  3  0  0  0  0  0  0
  190.4640  176.5650  138.0000 C   0  0  0  0  0  0  0  0  0  0  0  0
  191.3910  176.6870  139.0690 C   0  0  0  0  0  0  0  0  0  0  0  0
  190.9310  176.3950  136.6930 C   0  0  0  0  0  3  0  0  0  0  0  0
  189.1560  177.8340  147.9980 C   0  0  0  0  0  2  0  0  0  0  0  0
  188.0120  177.3650  148.6450 O   0  0  0  0  0  1  0  0  0  0  0  0
  1  2  1  0  0  0  0
  1  6  1  0  0  0  0
  2  8  1  0  0  0  0
  4 14  1  0  0  0  0
  4  3  2  0  0  0  0
  5 11  1  0  0  0  0
  6 15  2  0  0  0  0
  7 30  1  0  0  0  0
  8  5  2  0  0  0  0
  9 13  1  0  0  0  0
  9 12  2  0  0  0  0
 10 20  1  0  0  0  0
 12 17  1  0  0  0  0
 13  1  2  0  0  0  0
 14  9  1  0  0  0  0
 15  7  1  0  0  0  0
 16  5  1  0  0  0  0
 17  6  1  0  0  0  0
 17 18  2  0  0  0  0
 18  7  1  0  0  0  0
 19 10  2  0  0  0  0
 19 13  1  0  0  0  0
 20 21  1  0  0  0  0
 20  2  2  0  0  0  0
 21 16  2  0  0  0  0
 22 29  2  0  0  0  0
 22 26  1  0  0  0  0
 23 28  1  0  0  0  0
 25 22  1  0  0  0  0
 26 23  2  0  0  0  0
 27 24  1  0  0  0  0
 27 28  2  0  0  0  0
 28  4  1  0  0  0  0
 29 27  1  0  0  0  0
 30 31  1  0  0  0  0
M  END
>  <MODEL>
9

>  <REMARK>
 VINA RESULT:      -9.1      2.006      4.115
  Name = 
  2 active torsions:
  status: ('A' for Active; 'I' for Inactive)
    1  A    between atoms: C_2  and  N_13
    2  A    between atoms: C_9  and  C_22
                            x       y       z     vdW  Elec       q    Type
                         _______ _______ _______ _____ _____    ______ ____

>  <TORSDO>
F 2

$$$$
