=
 OpenBabel10272400273D

 31 35  0  0  0  0  0  0  0  0999 V2000
  185.0870  178.6120  144.2100 C   0  0  0  0  0  0  0  0  0  0  0  0
  188.6720  177.4990  143.9080 C   0  0  0  0  0  0  0  0  0  0  0  0
  189.1880  177.3920  145.2360 C   0  0  0  0  0  0  0  0  0  0  0  0
  188.5270  177.3370  138.6420 O   0  0  0  0  0  0  0  0  0  0  0  0
  189.6800  176.9980  139.0230 C   0  0  0  0  0  0  0  0  0  0  0  0
  188.9820  177.5510  147.6570 C   0  0  0  0  0  0  0  0  0  0  0  0
  187.3380  177.8960  143.5870 C   0  0  0  0  0  0  0  0  0  0  0  0
  184.7210  178.6710  142.8660 C   0  0  0  0  0  3  0  0  0  0  0  0
  188.4300  177.6710  146.3840 C   0  0  0  0  0  3  0  0  0  0  0  0
  189.1020  177.2720  141.5020 C   0  0  0  0  0  0  0  0  0  0  0  0
  184.1870  178.9250  145.1720 F   0  0  0  0  0  0  0  0  0  0  0  0
  191.3210  176.7040  144.3630 N   0  0  0  0  0  0  0  0  0  0  0  0
  188.1640  177.8500  148.8610 C   0  0  0  0  0  1  0  0  0  0  0  0
  187.8250  177.6540  141.2440 N   0  0  0  0  0  0  0  0  0  0  0  0
  189.5480  177.1880  142.8310 C   0  0  0  0  0  0  0  0  0  0  0  0
  189.9960  176.9560  140.4220 N   0  0  0  0  0  2  0  0  0  0  0  0
  186.3820  178.2280  144.5630 C   0  0  0  0  0  3  0  0  0  0  0  0
  190.3080  177.1490  147.7890 C   0  0  0  0  0  3  0  0  0  0  0  0
  186.9470  177.9620  142.2260 C   0  0  0  0  0  0  0  0  0  0  0  0
  185.6480  178.3470  141.8780 C   0  0  0  0  0  3  0  0  0  0  0  0
  190.8640  176.7940  143.0930 C   0  0  0  0  0  3  0  0  0  0  0  0
  190.5330  176.9880  145.4280 C   0  0  0  0  0  0  0  0  0  0  0  0
  191.0480  176.8780  146.6820 N   0  0  0  0  0  0  0  0  0  0  0  0
  192.6340  175.9440  136.0930 C   0  0  0  0  0  0  0  0  0  0  0  0
  190.3260  176.2600  136.7390 C   0  0  0  0  0  3  0  0  0  0  0  0
  192.5340  177.0250  139.5770 F   0  0  0  0  0  0  0  0  0  0  0  0
  193.6460  175.5770  135.0680 C   0  0  0  0  0  1  0  0  0  0  0  0
  191.2760  175.9150  135.7750 C   0  0  0  0  0  3  0  0  0  0  0  0
  192.0970  176.6670  138.3440 C   0  0  0  0  0  0  0  0  0  0  0  0
  190.7190  176.6400  138.0320 C   0  0  0  0  0  0  0  0  0  0  0  0
  193.0430  176.3200  137.3740 C   0  0  0  0  0  3  0  0  0  0  0  0
  1 17  1  0  0  0  0
  1 11  1  0  0  0  0
  2  3  2  0  0  0  0
  3 22  1  0  0  0  0
  3  9  1  0  0  0  0
  4  5  2  0  0  0  0
  5 16  1  0  0  0  0
  6 18  1  0  0  0  0
  6 13  1  0  0  0  0
  7  2  1  0  0  0  0
  7 17  2  0  0  0  0
  8  1  2  0  0  0  0
  9  6  2  0  0  0  0
 10 15  1  0  0  0  0
 12 22  2  0  0  0  0
 14 10  2  0  0  0  0
 14 19  1  0  0  0  0
 15 21  2  0  0  0  0
 15  2  1  0  0  0  0
 16 10  1  0  0  0  0
 19  7  1  0  0  0  0
 20 19  2  0  0  0  0
 20  8  1  0  0  0  0
 21 12  1  0  0  0  0
 22 23  1  0  0  0  0
 23 18  2  0  0  0  0
 24 31  1  0  0  0  0
 25 30  2  0  0  0  0
 27 24  1  0  0  0  0
 28 24  2  0  0  0  0
 28 25  1  0  0  0  0
 29 26  1  0  0  0  0
 30 29  1  0  0  0  0
 30  5  1  0  0  0  0
 31 29  2  0  0  0  0
M  END
>  <MODEL>
1

>  <REMARK>
 VINA RESULT:     -11.5      0.000      0.000
  Name = 
  1 active torsions:
  status: ('A' for Active; 'I' for Inactive)
    1  A    between atoms: C_9  and  C_22
                            x       y       z     vdW  Elec       q    Type
                         _______ _______ _______ _____ _____    ______ ____

>  <TORSDO>
F 1

$$$$
=
 OpenBabel10272400273D

 31 35  0  0  0  0  0  0  0  0999 V2000
  184.9100  178.6640  144.3960 C   0  0  0  0  0  0  0  0  0  0  0  0
  188.4760  177.5410  143.9430 C   0  0  0  0  0  0  0  0  0  0  0  0
  189.0460  177.4280  145.2480 C   0  0  0  0  0  0  0  0  0  0  0  0
  188.1160  177.4030  138.6860 O   0  0  0  0  0  0  0  0  0  0  0  0
  189.2830  177.0580  139.0190 C   0  0  0  0  0  0  0  0  0  0  0  0
  188.9390  177.5760  147.6760 C   0  0  0  0  0  0  0  0  0  0  0  0
  187.1320  177.9440  143.6790 C   0  0  0  0  0  0  0  0  0  0  0  0
  184.4890  178.7310  143.0690 C   0  0  0  0  0  3  0  0  0  0  0  0
  188.3360  177.7040  146.4270 C   0  0  0  0  0  3  0  0  0  0  0  0
  188.8070  177.3240  141.5200 C   0  0  0  0  0  0  0  0  0  0  0  0
  184.0510  178.9760  145.3950 F   0  0  0  0  0  0  0  0  0  0  0  0
  191.1390  176.7370  144.2860 N   0  0  0  0  0  0  0  0  0  0  0  0
  188.1720  177.8730  148.9140 C   0  0  0  0  0  1  0  0  0  0  0  0
  187.5220  177.7110  141.3160 N   0  0  0  0  0  0  0  0  0  0  0  0
  189.3070  177.2320  142.8300 C   0  0  0  0  0  0  0  0  0  0  0  0
  189.6550  177.0090  140.4040 N   0  0  0  0  0  2  0  0  0  0  0  0
  186.2170  178.2740  144.6950 C   0  0  0  0  0  3  0  0  0  0  0  0
  190.2690  177.1700  147.7520 C   0  0  0  0  0  3  0  0  0  0  0  0
  186.6850  178.0180  142.3350 C   0  0  0  0  0  0  0  0  0  0  0  0
  185.3750  178.4080  142.0420 C   0  0  0  0  0  3  0  0  0  0  0  0
  190.6300  176.8330  143.0360 C   0  0  0  0  0  3  0  0  0  0  0  0
  190.3960  177.0180  145.3840 C   0  0  0  0  0  0  0  0  0  0  0  0
  190.9620  176.9020  146.6150 N   0  0  0  0  0  0  0  0  0  0  0  0
  192.2300  176.0280  136.0750 C   0  0  0  0  0  0  0  0  0  0  0  0
  191.6300  176.5940  138.3480 C   0  0  0  0  0  3  0  0  0  0  0  0
  188.6240  176.5550  136.2330 F   0  0  0  0  0  0  0  0  0  0  0  0
  193.2620  175.6710  135.0660 C   0  0  0  0  0  1  0  0  0  0  0  0
  192.6010  176.2590  137.4000 C   0  0  0  0  0  3  0  0  0  0  0  0
  189.9140  176.4650  136.6400 C   0  0  0  0  0  0  0  0  0  0  0  0
  190.2790  176.7010  137.9840 C   0  0  0  0  0  0  0  0  0  0  0  0
  190.8900  176.1300  135.6970 C   0  0  0  0  0  3  0  0  0  0  0  0
  1 17  1  0  0  0  0
  1 11  1  0  0  0  0
  2  3  2  0  0  0  0
  3 22  1  0  0  0  0
  3  9  1  0  0  0  0
  4  5  2  0  0  0  0
  5 16  1  0  0  0  0
  6 18  1  0  0  0  0
  6 13  1  0  0  0  0
  7  2  1  0  0  0  0
  7 17  2  0  0  0  0
  8  1  2  0  0  0  0
  9  6  2  0  0  0  0
 10 15  1  0  0  0  0
 12 22  2  0  0  0  0
 14 10  2  0  0  0  0
 14 19  1  0  0  0  0
 15 21  2  0  0  0  0
 15  2  1  0  0  0  0
 16 10  1  0  0  0  0
 19  7  1  0  0  0  0
 20 19  2  0  0  0  0
 20  8  1  0  0  0  0
 21 12  1  0  0  0  0
 22 23  1  0  0  0  0
 23 18  2  0  0  0  0
 24 28  1  0  0  0  0
 26 29  1  0  0  0  0
 27 24  1  0  0  0  0
 28 25  2  0  0  0  0
 29 30  2  0  0  0  0
 30 25  1  0  0  0  0
 30  5  1  0  0  0  0
 31 24  2  0  0  0  0
 31 29  1  0  0  0  0
M  END
>  <MODEL>
2

>  <REMARK>
 VINA RESULT:     -11.4      0.976      1.305
  Name = 
  1 active torsions:
  status: ('A' for Active; 'I' for Inactive)
    1  A    between atoms: C_9  and  C_22
                            x       y       z     vdW  Elec       q    Type
                         _______ _______ _______ _____ _____    ______ ____

>  <TORSDO>
F 1

$$$$
=
 OpenBabel10272400273D

 31 35  0  0  0  0  0  0  0  0999 V2000
  186.3080  178.1220  146.7900 C   0  0  0  0  0  0  0  0  0  0  0  0
  187.1910  178.0380  143.1300 C   0  0  0  0  0  0  0  0  0  0  0  0
  188.5870  177.7440  143.0450 C   0  0  0  0  0  0  0  0  0  0  0  0
  182.2740  179.1290  141.5760 O   0  0  0  0  0  0  0  0  0  0  0  0
  183.0010  179.0040  140.5540 C   0  0  0  0  0  0  0  0  0  0  0  0
  190.7590  177.2540  144.0300 C   0  0  0  0  0  0  0  0  0  0  0  0
  186.4620  178.1590  144.3520 C   0  0  0  0  0  0  0  0  0  0  0  0
  184.9470  178.4130  146.7210 C   0  0  0  0  0  3  0  0  0  0  0  0
  189.4020  177.5390  144.1690 C   0  0  0  0  0  3  0  0  0  0  0  0
  185.1050  178.5160  141.9270 C   0  0  0  0  0  0  0  0  0  0  0  0
  186.9060  177.9600  147.9940 F   0  0  0  0  0  0  0  0  0  0  0  0
  188.4710  177.8380  140.6440 N   0  0  0  0  0  0  0  0  0  0  0  0
  191.6070  177.0400  145.2310 C   0  0  0  0  0  1  0  0  0  0  0  0
  184.4530  178.6210  143.1130 N   0  0  0  0  0  0  0  0  0  0  0  0
  186.4800  178.2250  141.9120 C   0  0  0  0  0  0  0  0  0  0  0  0
  184.3970  178.7030  140.6910 N   0  0  0  0  0  2  0  0  0  0  0  0
  187.0550  177.9960  145.6170 C   0  0  0  0  0  3  0  0  0  0  0  0
  191.3110  177.1730  142.7550 C   0  0  0  0  0  3  0  0  0  0  0  0
  185.0770  178.4550  144.3020 C   0  0  0  0  0  0  0  0  0  0  0  0
  184.3330  178.5790  145.4800 C   0  0  0  0  0  3  0  0  0  0  0  0
  187.1480  178.1170  140.6890 C   0  0  0  0  0  3  0  0  0  0  0  0
  189.2000  177.6500  141.7710 C   0  0  0  0  0  0  0  0  0  0  0  0
  190.5280  177.3710  141.6630 N   0  0  0  0  0  0  0  0  0  0  0  0
  181.2980  179.5490  136.6520 C   0  0  0  0  0  0  0  0  0  0  0  0
  181.8550  180.3990  138.8460 C   0  0  0  0  0  3  0  0  0  0  0  0
  182.9500  176.9030  138.5450 F   0  0  0  0  0  0  0  0  0  0  0  0
  180.7050  179.7530  135.3040 C   0  0  0  0  0  1  0  0  0  0  0  0
  181.2970  180.5920  137.5800 C   0  0  0  0  0  3  0  0  0  0  0  0
  182.4180  178.1160  138.2560 C   0  0  0  0  0  0  0  0  0  0  0  0
  182.4210  179.1650  139.2020 C   0  0  0  0  0  0  0  0  0  0  0  0
  181.8570  178.3150  136.9900 C   0  0  0  0  0  3  0  0  0  0  0  0
  1 11  1  0  0  0  0
  2  7  1  0  0  0  0
  3  2  2  0  0  0  0
  3  9  1  0  0  0  0
  5 16  1  0  0  0  0
  5  4  2  0  0  0  0
  6  9  2  0  0  0  0
  6 13  1  0  0  0  0
  7 17  1  0  0  0  0
  8  1  1  0  0  0  0
 10 14  2  0  0  0  0
 12 21  1  0  0  0  0
 12 22  2  0  0  0  0
 14 19  1  0  0  0  0
 15 10  1  0  0  0  0
 15  2  1  0  0  0  0
 16 10  1  0  0  0  0
 17  1  2  0  0  0  0
 18  6  1  0  0  0  0
 19  7  2  0  0  0  0
 19 20  1  0  0  0  0
 20  8  2  0  0  0  0
 21 15  2  0  0  0  0
 22  3  1  0  0  0  0
 23 22  1  0  0  0  0
 23 18  2  0  0  0  0
 24 31  2  0  0  0  0
 24 28  1  0  0  0  0
 25 30  1  0  0  0  0
 27 24  1  0  0  0  0
 28 25  2  0  0  0  0
 29 26  1  0  0  0  0
 29 30  2  0  0  0  0
 30  5  1  0  0  0  0
 31 29  1  0  0  0  0
M  END
>  <MODEL>
3

>  <REMARK>
 VINA RESULT:     -10.7      3.996      6.611
  Name = 
  1 active torsions:
  status: ('A' for Active; 'I' for Inactive)
    1  A    between atoms: C_9  and  C_22
                            x       y       z     vdW  Elec       q    Type
                         _______ _______ _______ _____ _____    ______ ____

>  <TORSDO>
F 1

$$$$
=
 OpenBabel10272400273D

 31 35  0  0  0  0  0  0  0  0999 V2000
  187.5850  178.2520  148.2850 C   0  0  0  0  0  0  0  0  0  0  0  0
  188.1460  177.3620  144.6690 C   0  0  0  0  0  0  0  0  0  0  0  0
  189.4480  176.7800  144.5800 C   0  0  0  0  0  0  0  0  0  0  0  0
  183.4230  179.1430  143.1520 O   0  0  0  0  0  0  0  0  0  0  0  0
  184.0300  178.6980  142.1390 C   0  0  0  0  0  0  0  0  0  0  0  0
  191.5560  176.0370  145.5460 C   0  0  0  0  0  0  0  0  0  0  0  0
  187.5520  177.8360  145.8780 C   0  0  0  0  0  0  0  0  0  0  0  0
  186.3040  178.7980  148.2210 C   0  0  0  0  0  3  0  0  0  0  0  0
  190.2950  176.6110  145.6870 C   0  0  0  0  0  3  0  0  0  0  0  0
  186.1030  178.0380  143.4880 C   0  0  0  0  0  0  0  0  0  0  0  0
  188.2340  178.1820  149.4720 F   0  0  0  0  0  0  0  0  0  0  0  0
  189.1650  176.4800  142.2110 N   0  0  0  0  0  0  0  0  0  0  0  0
  192.4390  175.8650  146.7290 C   0  0  0  0  0  1  0  0  0  0  0  0
  185.5780  178.4760  144.6610 N   0  0  0  0  0  0  0  0  0  0  0  0
  187.3900  177.4760  143.4690 C   0  0  0  0  0  0  0  0  0  0  0  0
  185.3490  178.1490  142.2700 N   0  0  0  0  0  2  0  0  0  0  0  0
  188.2000  177.7770  147.1240 C   0  0  0  0  0  3  0  0  0  0  0  0
  191.9810  175.6270  144.2850 C   0  0  0  0  0  3  0  0  0  0  0  0
  186.2490  178.3940  145.8330 C   0  0  0  0  0  0  0  0  0  0  0  0
  185.6380  178.8680  146.9980 C   0  0  0  0  0  3  0  0  0  0  0  0
  187.9270  177.0260  142.2600 C   0  0  0  0  0  3  0  0  0  0  0  0
  189.9310  176.3460  143.3200 C   0  0  0  0  0  0  0  0  0  0  0  0
  191.1670  175.7880  143.2100 N   0  0  0  0  0  0  0  0  0  0  0  0
  182.2370  178.8410  138.2430 C   0  0  0  0  0  0  0  0  0  0  0  0
  184.1520  179.1170  139.6930 C   0  0  0  0  0  3  0  0  0  0  0  0
  181.2400  178.0380  141.6590 F   0  0  0  0  0  0  0  0  0  0  0  0
  181.6300  178.8940  136.8870 C   0  0  0  0  0  1  0  0  0  0  0  0
  183.5820  179.1670  138.4180 C   0  0  0  0  0  3  0  0  0  0  0  0
  182.0260  178.4090  140.6190 C   0  0  0  0  0  0  0  0  0  0  0  0
  183.3870  178.7390  140.8070 C   0  0  0  0  0  0  0  0  0  0  0  0
  181.4620  178.4630  139.3400 C   0  0  0  0  0  3  0  0  0  0  0  0
  1 11  1  0  0  0  0
  2  7  1  0  0  0  0
  3  2  2  0  0  0  0
  3  9  1  0  0  0  0
  5 16  1  0  0  0  0
  5  4  2  0  0  0  0
  6  9  2  0  0  0  0
  6 13  1  0  0  0  0
  7 17  1  0  0  0  0
  8  1  1  0  0  0  0
 10 14  2  0  0  0  0
 12 21  1  0  0  0  0
 12 22  2  0  0  0  0
 14 19  1  0  0  0  0
 15 10  1  0  0  0  0
 15  2  1  0  0  0  0
 16 10  1  0  0  0  0
 17  1  2  0  0  0  0
 18  6  1  0  0  0  0
 19  7  2  0  0  0  0
 19 20  1  0  0  0  0
 20  8  2  0  0  0  0
 21 15  2  0  0  0  0
 22  3  1  0  0  0  0
 23 22  1  0  0  0  0
 23 18  2  0  0  0  0
 24 28  2  0  0  0  0
 24 31  1  0  0  0  0
 25 30  2  0  0  0  0
 27 24  1  0  0  0  0
 28 25  1  0  0  0  0
 29 30  1  0  0  0  0
 29 26  1  0  0  0  0
 30  5  1  0  0  0  0
 31 29  2  0  0  0  0
M  END
>  <MODEL>
4

>  <REMARK>
 VINA RESULT:     -10.6      4.336      6.390
  Name = 
  1 active torsions:
  status: ('A' for Active; 'I' for Inactive)
    1  A    between atoms: C_9  and  C_22
                            x       y       z     vdW  Elec       q    Type
                         _______ _______ _______ _____ _____    ______ ____

>  <TORSDO>
F 1

$$$$
=
 OpenBabel10272400273D

 31 35  0  0  0  0  0  0  0  0999 V2000
  183.7880  179.2030  139.0830 C   0  0  0  0  0  0  0  0  0  0  0  0
  187.3550  178.0350  139.3930 C   0  0  0  0  0  0  0  0  0  0  0  0
  187.8660  177.9010  138.0650 C   0  0  0  0  0  0  0  0  0  0  0  0
  187.2230  177.9510  144.6610 O   0  0  0  0  0  0  0  0  0  0  0  0
  188.3690  177.5870  144.2810 C   0  0  0  0  0  0  0  0  0  0  0  0
  187.6560  178.0280  135.6420 C   0  0  0  0  0  0  0  0  0  0  0  0
  186.0300  178.4590  139.7110 C   0  0  0  0  0  0  0  0  0  0  0  0
  183.4270  179.2890  140.4270 C   0  0  0  0  0  3  0  0  0  0  0  0
  187.1090  178.1750  136.9150 C   0  0  0  0  0  3  0  0  0  0  0  0
  187.7890  177.8360  141.8000 C   0  0  0  0  0  0  0  0  0  0  0  0
  182.8920  179.5190  138.1190 F   0  0  0  0  0  0  0  0  0  0  0  0
  189.9890  177.1880  138.9420 N   0  0  0  0  0  0  0  0  0  0  0  0
  186.8390  178.3230  134.4360 C   0  0  0  0  0  1  0  0  0  0  0  0
  186.5190  178.2430  142.0560 N   0  0  0  0  0  0  0  0  0  0  0  0
  188.2290  177.7250  140.4710 C   0  0  0  0  0  0  0  0  0  0  0  0
  188.6800  177.5200  142.8820 N   0  0  0  0  0  2  0  0  0  0  0  0
  185.0760  178.7930  138.7320 C   0  0  0  0  0  3  0  0  0  0  0  0
  188.9750  177.6020  135.5130 C   0  0  0  0  0  3  0  0  0  0  0  0
  185.6430  178.5520  141.0720 C   0  0  0  0  0  0  0  0  0  0  0  0
  184.3530  178.9640  141.4180 C   0  0  0  0  0  3  0  0  0  0  0  0
  189.5370  177.3050  140.2120 C   0  0  0  0  0  3  0  0  0  0  0  0
  189.2030  177.4700  137.8750 C   0  0  0  0  0  0  0  0  0  0  0  0
  189.7130  177.3350  136.6210 N   0  0  0  0  0  0  0  0  0  0  0  0
  191.4240  176.5260  147.1030 C   0  0  0  0  0  0  0  0  0  0  0  0
  190.6800  176.8530  144.8250 C   0  0  0  0  0  3  0  0  0  0  0  0
  187.9360  177.5960  147.1550 F   0  0  0  0  0  0  0  0  0  0  0  0
  192.4920  176.1570  148.0680 C   0  0  0  0  0  1  0  0  0  0  0  0
  191.6850  176.5060  145.7320 C   0  0  0  0  0  3  0  0  0  0  0  0
  189.1500  177.2440  146.6650 C   0  0  0  0  0  0  0  0  0  0  0  0
  189.4050  177.2260  145.2750 C   0  0  0  0  0  0  0  0  0  0  0  0
  190.1600  176.8950  147.5670 C   0  0  0  0  0  3  0  0  0  0  0  0
  1  8  1  0  0  0  0
  2  7  1  0  0  0  0
  2 15  1  0  0  0  0
  3  2  2  0  0  0  0
  5  4  2  0  0  0  0
  5 30  1  0  0  0  0
  6  9  2  0  0  0  0
  7 19  2  0  0  0  0
  8 20  2  0  0  0  0
  9  3  1  0  0  0  0
 10 14  2  0  0  0  0
 10 16  1  0  0  0  0
 11  1  1  0  0  0  0
 12 21  1  0  0  0  0
 13  6  1  0  0  0  0
 15 10  1  0  0  0  0
 16  5  1  0  0  0  0
 17  1  2  0  0  0  0
 17  7  1  0  0  0  0
 18  6  1  0  0  0  0
 18 23  2  0  0  0  0
 19 20  1  0  0  0  0
 19 14  1  0  0  0  0
 21 15  2  0  0  0  0
 22  3  1  0  0  0  0
 22 12  2  0  0  0  0
 23 22  1  0  0  0  0
 24 31  1  0  0  0  0
 24 27  1  0  0  0  0
 25 30  2  0  0  0  0
 25 28  1  0  0  0  0
 28 24  2  0  0  0  0
 29 26  1  0  0  0  0
 29 31  2  0  0  0  0
 30 29  1  0  0  0  0
M  END
>  <MODEL>
5

>  <REMARK>
 VINA RESULT:     -10.1      3.075      7.827
  Name = 
  1 active torsions:
  status: ('A' for Active; 'I' for Inactive)
    1  A    between atoms: C_9  and  C_22
                            x       y       z     vdW  Elec       q    Type
                         _______ _______ _______ _____ _____    ______ ____

>  <TORSDO>
F 1

$$$$
=
 OpenBabel10272400273D

 31 35  0  0  0  0  0  0  0  0999 V2000
  185.7030  178.2250  146.7160 C   0  0  0  0  0  0  0  0  0  0  0  0
  185.6160  178.2410  142.9500 C   0  0  0  0  0  0  0  0  0  0  0  0
  184.2720  178.5400  142.5660 C   0  0  0  0  0  0  0  0  0  0  0  0
  190.7410  177.1010  142.4930 O   0  0  0  0  0  0  0  0  0  0  0  0
  190.2480  177.2090  141.3380 C   0  0  0  0  0  0  0  0  0  0  0  0
  181.9440  179.0580  143.0600 C   0  0  0  0  0  0  0  0  0  0  0  0
  186.0680  178.1420  144.3010 C   0  0  0  0  0  0  0  0  0  0  0  0
  187.0460  177.9270  146.9410 C   0  0  0  0  0  3  0  0  0  0  0  0
  183.2390  178.7690  143.4880 C   0  0  0  0  0  3  0  0  0  0  0  0
  187.9050  177.7310  142.2250 C   0  0  0  0  0  0  0  0  0  0  0  0
  184.8650  178.4130  147.7630 F   0  0  0  0  0  0  0  0  0  0  0  0
  184.8920  178.3990  140.2470 N   0  0  0  0  0  0  0  0  0  0  0  0
  180.8630  179.2990  144.0510 C   0  0  0  0  0  1  0  0  0  0  0  0
  188.2910  177.6470  143.5240 N   0  0  0  0  0  0  0  0  0  0  0  0
  186.5670  178.0280  141.9150 C   0  0  0  0  0  0  0  0  0  0  0  0
  188.8570  177.5180  141.1710 N   0  0  0  0  0  2  0  0  0  0  0  0
  185.2230  178.3310  145.4090 C   0  0  0  0  0  3  0  0  0  0  0  0
  181.6750  179.1160  141.6960 C   0  0  0  0  0  3  0  0  0  0  0  0
  187.4310  177.8390  144.5510 C   0  0  0  0  0  0  0  0  0  0  0  0
  187.9070  177.7350  145.8620 C   0  0  0  0  0  3  0  0  0  0  0  0
  186.1740  178.1150  140.5760 C   0  0  0  0  0  3  0  0  0  0  0  0
  183.9430  178.6110  141.1900 C   0  0  0  0  0  0  0  0  0  0  0  0
  182.6710  178.8940  140.7980 N   0  0  0  0  0  0  0  0  0  0  0  0
  192.7830  176.6820  137.9150 C   0  0  0  0  0  0  0  0  0  0  0  0
  192.4740  177.2920  140.2340 C   0  0  0  0  0  3  0  0  0  0  0  0
  189.2560  176.2920  138.7640 F   0  0  0  0  0  0  0  0  0  0  0  0
  193.6730  176.5040  136.7380 C   0  0  0  0  0  1  0  0  0  0  0  0
  193.3110  177.1250  139.1280 C   0  0  0  0  0  3  0  0  0  0  0  0
  190.5750  176.5700  138.9100 C   0  0  0  0  0  0  0  0  0  0  0  0
  191.1000  177.0190  140.1420 C   0  0  0  0  0  0  0  0  0  0  0  0
  191.4190  176.4050  137.8070 C   0  0  0  0  0  3  0  0  0  0  0  0
  1  8  1  0  0  0  0
  1 11  1  0  0  0  0
  2  7  1  0  0  0  0
  3  2  2  0  0  0  0
  3  9  1  0  0  0  0
  5  4  2  0  0  0  0
  6  9  2  0  0  0  0
  6 13  1  0  0  0  0
  7 19  2  0  0  0  0
  7 17  1  0  0  0  0
 10 14  2  0  0  0  0
 12 21  1  0  0  0  0
 12 22  2  0  0  0  0
 14 19  1  0  0  0  0
 15 10  1  0  0  0  0
 15  2  1  0  0  0  0
 16  5  1  0  0  0  0
 16 10  1  0  0  0  0
 17  1  2  0  0  0  0
 18  6  1  0  0  0  0
 19 20  1  0  0  0  0
 20  8  2  0  0  0  0
 21 15  2  0  0  0  0
 22  3  1  0  0  0  0
 23 22  1  0  0  0  0
 23 18  2  0  0  0  0
 24 28  1  0  0  0  0
 26 29  1  0  0  0  0
 27 24  1  0  0  0  0
 28 25  2  0  0  0  0
 29 30  2  0  0  0  0
 30 25  1  0  0  0  0
 30  5  1  0  0  0  0
 31 24  2  0  0  0  0
 31 29  1  0  0  0  0
M  END
>  <MODEL>
6

>  <REMARK>
 VINA RESULT:     -10.0      2.232      5.046
  Name = 
  1 active torsions:
  status: ('A' for Active; 'I' for Inactive)
    1  A    between atoms: C_9  and  C_22
                            x       y       z     vdW  Elec       q    Type
                         _______ _______ _______ _____ _____    ______ ____

>  <TORSDO>
F 1

$$$$
=
 OpenBabel10272400273D

 31 35  0  0  0  0  0  0  0  0999 V2000
  191.6000  175.9550  146.2120 C   0  0  0  0  0  0  0  0  0  0  0  0
  188.5490  177.3530  144.5030 C   0  0  0  0  0  0  0  0  0  0  0  0
  187.6690  177.8130  145.5310 C   0  0  0  0  0  0  0  0  0  0  0  0
  190.3660  176.3040  139.6680 O   0  0  0  0  0  0  0  0  0  0  0  0
  189.2310  176.8440  139.5630 C   0  0  0  0  0  0  0  0  0  0  0  0
  187.0740  178.1840  147.8630 C   0  0  0  0  0  0  0  0  0  0  0  0
  189.8230  176.7520  144.7370 C   0  0  0  0  0  0  0  0  0  0  0  0
  192.3520  175.5540  145.1100 C   0  0  0  0  0  3  0  0  0  0  0  0
  187.9670  177.7200  146.9000 C   0  0  0  0  0  3  0  0  0  0  0  0
  188.9430  177.0750  142.0960 C   0  0  0  0  0  0  0  0  0  0  0  0
  192.0810  175.7710  147.4640 F   0  0  0  0  0  0  0  0  0  0  0  0
  186.0760  178.5130  143.8710 N   0  0  0  0  0  0  0  0  0  0  0  0
  187.4060  178.0780  149.3080 C   0  0  0  0  0  1  0  0  0  0  0  0
  190.1470  176.5090  142.3650 N   0  0  0  0  0  0  0  0  0  0  0  0
  188.1250  177.5060  143.1540 C   0  0  0  0  0  0  0  0  0  0  0  0
  188.5050  177.2350  140.7370 N   0  0  0  0  0  2  0  0  0  0  0  0
  190.3490  176.5470  146.0250 C   0  0  0  0  0  3  0  0  0  0  0  0
  185.8670  178.7470  147.4570 C   0  0  0  0  0  3  0  0  0  0  0  0
  190.6030  176.3370  143.6280 C   0  0  0  0  0  0  0  0  0  0  0  0
  191.8550  175.7450  143.8210 C   0  0  0  0  0  3  0  0  0  0  0  0
  186.8860  178.0900  142.8730 C   0  0  0  0  0  3  0  0  0  0  0  0
  186.4270  178.3940  145.1750 C   0  0  0  0  0  0  0  0  0  0  0  0
  185.5720  178.8390  146.1350 N   0  0  0  0  0  0  0  0  0  0  0  0
  187.4880  177.4470  135.6880 C   0  0  0  0  0  0  0  0  0  0  0  0
  188.0370  176.0060  137.5510 C   0  0  0  0  0  3  0  0  0  0  0  0
  189.2210  179.4210  138.2200 F   0  0  0  0  0  0  0  0  0  0  0  0
  186.8800  177.6420  134.3460 C   0  0  0  0  0  1  0  0  0  0  0  0
  187.4650  176.1880  136.2890 C   0  0  0  0  0  3  0  0  0  0  0  0
  188.6540  178.3500  137.6120 C   0  0  0  0  0  0  0  0  0  0  0  0
  188.6370  177.0790  138.2280 C   0  0  0  0  0  0  0  0  0  0  0  0
  188.0810  178.5250  136.3490 C   0  0  0  0  0  3  0  0  0  0  0  0
  1 11  1  0  0  0  0
  2  7  1  0  0  0  0
  2  3  2  0  0  0  0
  3  9  1  0  0  0  0
  5  4  2  0  0  0  0
  5 16  1  0  0  0  0
  6 13  1  0  0  0  0
  7 17  2  0  0  0  0
  8  1  2  0  0  0  0
  9  6  2  0  0  0  0
 10 14  2  0  0  0  0
 10 15  1  0  0  0  0
 12 22  2  0  0  0  0
 14 19  1  0  0  0  0
 15  2  1  0  0  0  0
 16 10  1  0  0  0  0
 17  1  1  0  0  0  0
 18  6  1  0  0  0  0
 19 20  2  0  0  0  0
 19  7  1  0  0  0  0
 20  8  1  0  0  0  0
 21 15  2  0  0  0  0
 21 12  1  0  0  0  0
 22  3  1  0  0  0  0
 22 23  1  0  0  0  0
 23 18  2  0  0  0  0
 24 28  2  0  0  0  0
 24 31  1  0  0  0  0
 25 30  2  0  0  0  0
 27 24  1  0  0  0  0
 28 25  1  0  0  0  0
 29 26  1  0  0  0  0
 29 30  1  0  0  0  0
 30  5  1  0  0  0  0
 31 29  2  0  0  0  0
M  END
>  <MODEL>
7

>  <REMARK>
 VINA RESULT:      -9.9      2.904      4.476
  Name = 
  1 active torsions:
  status: ('A' for Active; 'I' for Inactive)
    1  A    between atoms: C_9  and  C_22
                            x       y       z     vdW  Elec       q    Type
                         _______ _______ _______ _____ _____    ______ ____

>  <TORSDO>
F 1

$$$$
=
 OpenBabel10272400273D

 31 35  0  0  0  0  0  0  0  0999 V2000
  184.7540  179.0490  141.9470 C   0  0  0  0  0  0  0  0  0  0  0  0
  188.1970  177.6430  142.5470 C   0  0  0  0  0  0  0  0  0  0  0  0
  188.3620  177.5370  143.9630 C   0  0  0  0  0  0  0  0  0  0  0  0
  189.3280  177.3280  137.4090 O   0  0  0  0  0  0  0  0  0  0  0  0
  190.3200  176.9100  138.0660 C   0  0  0  0  0  0  0  0  0  0  0  0
  187.5860  177.7870  146.2570 C   0  0  0  0  0  0  0  0  0  0  0  0
  187.0200  178.1350  141.9050 C   0  0  0  0  0  0  0  0  0  0  0  0
  184.7340  179.0950  140.5540 C   0  0  0  0  0  3  0  0  0  0  0  0
  187.3730  177.9120  144.8860 C   0  0  0  0  0  3  0  0  0  0  0  0
  189.1800  177.3080  140.3240 C   0  0  0  0  0  0  0  0  0  0  0  0
  183.6770  179.4630  142.6550 F   0  0  0  0  0  0  0  0  0  0  0  0
  190.5770  176.6530  143.6490 N   0  0  0  0  0  0  0  0  0  0  0  0
  186.5270  178.1880  147.2200 C   0  0  0  0  0  1  0  0  0  0  0  0
  188.0420  177.7820  139.7560 N   0  0  0  0  0  0  0  0  0  0  0  0
  189.2790  177.2290  141.7230 C   0  0  0  0  0  0  0  0  0  0  0  0
  190.2800  176.8870  139.5000 N   0  0  0  0  0  2  0  0  0  0  0  0
  185.8870  178.5730  142.6120 C   0  0  0  0  0  3  0  0  0  0  0  0
  188.8010  177.2850  146.7150 C   0  0  0  0  0  3  0  0  0  0  0  0
  186.9800  178.1900  140.4890 C   0  0  0  0  0  0  0  0  0  0  0  0
  185.8440  178.6670  139.8280 C   0  0  0  0  0  3  0  0  0  0  0  0
  190.4530  176.7400  142.3040 C   0  0  0  0  0  3  0  0  0  0  0  0
  189.5800  177.0320  144.4840 C   0  0  0  0  0  0  0  0  0  0  0  0
  189.7620  176.9210  145.8280 N   0  0  0  0  0  0  0  0  0  0  0  0
  193.8790  175.5320  136.1030 C   0  0  0  0  0  0  0  0  0  0  0  0
  192.6370  176.0120  138.1210 C   0  0  0  0  0  3  0  0  0  0  0  0
  190.5890  176.8080  135.1740 F   0  0  0  0  0  0  0  0  0  0  0  0
  195.1170  175.0510  135.4370 C   0  0  0  0  0  1  0  0  0  0  0  0
  193.8020  175.5600  137.4960 C   0  0  0  0  0  3  0  0  0  0  0  0
  191.6220  176.4060  135.9550 C   0  0  0  0  0  0  0  0  0  0  0  0
  191.5350  176.4390  137.3640 C   0  0  0  0  0  0  0  0  0  0  0  0
  192.7920  175.9530  135.3350 C   0  0  0  0  0  3  0  0  0  0  0  0
  1 17  1  0  0  0  0
  1 11  1  0  0  0  0
  2  3  2  0  0  0  0
  3 22  1  0  0  0  0
  3  9  1  0  0  0  0
  4  5  2  0  0  0  0
  5 16  1  0  0  0  0
  6 18  1  0  0  0  0
  6 13  1  0  0  0  0
  7  2  1  0  0  0  0
  7 17  2  0  0  0  0
  8  1  2  0  0  0  0
  9  6  2  0  0  0  0
 10 15  1  0  0  0  0
 12 22  2  0  0  0  0
 14 10  2  0  0  0  0
 14 19  1  0  0  0  0
 15 21  2  0  0  0  0
 15  2  1  0  0  0  0
 16 10  1  0  0  0  0
 19  7  1  0  0  0  0
 20 19  2  0  0  0  0
 20  8  1  0  0  0  0
 21 12  1  0  0  0  0
 22 23  1  0  0  0  0
 23 18  2  0  0  0  0
 24 28  1  0  0  0  0
 26 29  1  0  0  0  0
 27 24  1  0  0  0  0
 28 25  2  0  0  0  0
 29 30  2  0  0  0  0
 30  5  1  0  0  0  0
 30 25  1  0  0  0  0
 31 29  1  0  0  0  0
 31 24  2  0  0  0  0
M  END
>  <MODEL>
8

>  <REMARK>
 VINA RESULT:      -9.5      1.515      2.003
  Name = 
  1 active torsions:
  status: ('A' for Active; 'I' for Inactive)
    1  A    between atoms: C_9  and  C_22
                            x       y       z     vdW  Elec       q    Type
                         _______ _______ _______ _____ _____    ______ ____

>  <TORSDO>
F 1

$$$$
=
 OpenBabel10272400273D

 31 35  0  0  0  0  0  0  0  0999 V2000
  187.4870  178.6330  136.6970 C   0  0  0  0  0  0  0  0  0  0  0  0
  186.4120  178.3210  140.2930 C   0  0  0  0  0  0  0  0  0  0  0  0
  185.0150  178.6210  140.3380 C   0  0  0  0  0  0  0  0  0  0  0  0
  191.2320  177.0040  141.9680 O   0  0  0  0  0  0  0  0  0  0  0  0
  190.4530  177.0250  142.9600 C   0  0  0  0  0  0  0  0  0  0  0  0
  182.9020  179.2450  139.3020 C   0  0  0  0  0  0  0  0  0  0  0  0
  187.2030  178.3280  139.1050 C   0  0  0  0  0  0  0  0  0  0  0  0
  188.8400  178.3190  136.8040 C   0  0  0  0  0  3  0  0  0  0  0  0
  184.2620  178.9610  139.2030 C   0  0  0  0  0  3  0  0  0  0  0  0
  188.4270  177.6870  141.5420 C   0  0  0  0  0  0  0  0  0  0  0  0
  186.9540  178.9340  135.4890 F   0  0  0  0  0  0  0  0  0  0  0  0
  185.0030  178.2620  142.7160 N   0  0  0  0  0  0  0  0  0  0  0  0
  182.1200  179.6020  138.0890 C   0  0  0  0  0  1  0  0  0  0  0  0
  189.1410  177.7050  140.3870 N   0  0  0  0  0  0  0  0  0  0  0  0
  187.0570  177.9920  141.5170 C   0  0  0  0  0  0  0  0  0  0  0  0
  189.0690  177.3560  142.7840 N   0  0  0  0  0  2  0  0  0  0  0  0
  186.6790  178.6360  137.8360 C   0  0  0  0  0  3  0  0  0  0  0  0
  182.2830  179.1910  140.5480 C   0  0  0  0  0  3  0  0  0  0  0  0
  188.5820  178.0110  139.1930 C   0  0  0  0  0  0  0  0  0  0  0  0
  189.3860  178.0080  138.0480 C   0  0  0  0  0  3  0  0  0  0  0  0
  186.3250  177.9720  142.7080 C   0  0  0  0  0  3  0  0  0  0  0  0
  184.3360  178.5820  141.5810 C   0  0  0  0  0  0  0  0  0  0  0  0
  183.0070  178.8640  141.6500 N   0  0  0  0  0  0  0  0  0  0  0  0
  191.9650  176.0400  146.8540 C   0  0  0  0  0  0  0  0  0  0  0  0
  191.8470  175.6310  144.4740 C   0  0  0  0  0  3  0  0  0  0  0  0
  189.7240  178.5000  145.3560 F   0  0  0  0  0  0  0  0  0  0  0  0
  192.4970  175.6880  148.1960 C   0  0  0  0  0  1  0  0  0  0  0  0
  192.3470  175.2990  145.7350 C   0  0  0  0  0  3  0  0  0  0  0  0
  190.5790  177.4510  145.4520 C   0  0  0  0  0  0  0  0  0  0  0  0
  190.9600  176.7070  144.3140 C   0  0  0  0  0  0  0  0  0  0  0  0
  191.0830  177.1130  146.7120 C   0  0  0  0  0  3  0  0  0  0  0  0
  1  8  2  0  0  0  0
  1 17  1  0  0  0  0
  2  3  2  0  0  0  0
  2 15  1  0  0  0  0
  3 22  1  0  0  0  0
  4  5  2  0  0  0  0
  5 30  1  0  0  0  0
  6 18  1  0  0  0  0
  7 19  1  0  0  0  0
  7  2  1  0  0  0  0
  8 20  1  0  0  0  0
  9  6  2  0  0  0  0
  9  3  1  0  0  0  0
 10 16  1  0  0  0  0
 11  1  1  0  0  0  0
 13  6  1  0  0  0  0
 14 10  2  0  0  0  0
 15 10  1  0  0  0  0
 15 21  2  0  0  0  0
 16  5  1  0  0  0  0
 17  7  2  0  0  0  0
 18 23  2  0  0  0  0
 19 14  1  0  0  0  0
 20 19  2  0  0  0  0
 21 12  1  0  0  0  0
 22 23  1  0  0  0  0
 22 12  2  0  0  0  0
 24 27  1  0  0  0  0
 25 28  1  0  0  0  0
 26 29  1  0  0  0  0
 28 24  2  0  0  0  0
 29 31  2  0  0  0  0
 30 25  2  0  0  0  0
 30 29  1  0  0  0  0
 31 24  1  0  0  0  0
M  END
>  <MODEL>
9

>  <REMARK>
 VINA RESULT:      -9.4      3.039      7.606
  Name = 
  1 active torsions:
  status: ('A' for Active; 'I' for Inactive)
    1  A    between atoms: C_9  and  C_22
                            x       y       z     vdW  Elec       q    Type
                         _______ _______ _______ _____ _____    ______ ____

>  <TORSDO>
F 1

$$$$
