=
 OpenBabel10272400163D

 31 33  0  0  1  0  0  0  0  0999 V2000
  189.2990  175.9520  137.3210 C   0  0  2  0  0  3  0  0  0  0  0  0
  187.8610  176.4090  137.0750 C   0  0  2  0  0  3  0  0  0  0  0  0
  185.9530  176.3520  135.3520 C   0  0  0  0  0  2  0  0  0  0  0  0
  189.5040  174.4320  137.3360 C   0  0  0  0  0  2  0  0  0  0  0  0
  192.5590  175.0630  136.4590 C   0  0  1  0  0  3  0  0  0  0  0  0
  187.0990  175.5820  136.0260 C   0  0  0  0  0  2  0  0  0  0  0  0
  191.4070  176.3800  138.7250 C   0  0  0  0  0  2  0  0  0  0  0  0
  189.0940  178.6900  137.0780 C   0  0  0  0  0  2  0  0  0  0  0  0
  184.8760  176.8900  136.3070 C   0  0  0  0  0  2  0  0  0  0  0  0
  192.2610  176.8530  137.6990 O   0  0  0  0  0  0  0  0  0  0  0  0
  189.9110  176.7080  138.5380 C   0  0  1  0  0  0  0  0  0  0  0  0
  191.8810  176.2900  136.5620 O   0  0  0  0  0  0  0  0  0  0  0  0
  185.3900  177.6230  137.5560 C   0  0  0  0  0  2  0  0  0  0  0  0
  190.3620  174.0610  136.2910 O   0  0  0  0  0  0  0  0  0  0  0  0
  191.6300  173.9190  136.8750 C   0  0  0  0  0  2  0  0  0  0  0  0
  189.7460  178.2340  138.3880 C   0  0  0  0  0  2  0  0  0  0  0  0
  187.8100  177.9170  136.7520 C   0  0  2  0  0  3  0  0  0  0  0  0
  186.5530  178.5970  137.3090 C   0  0  0  0  0  2  0  0  0  0  0  0
  193.0260  174.8540  135.0290 C   0  0  0  0  0  2  0  0  0  0  0  0
  193.6710  176.0000  134.5690 O   0  0  0  0  0  1  0  0  0  0  0  0
  189.1620  176.3560  139.8350 C   0  0  0  0  0  2  0  0  0  0  0  0
  189.2730  177.4060  140.9350 C   0  0  0  0  0  2  0  0  0  0  0  0
  191.0510  176.9160  142.6480 C   0  0  0  0  0  0  0  0  0  0  0  0
  189.6960  176.7810  142.1830 N   0  0  0  0  0  0  0  0  0  0  0  0
  191.8880  177.5810  141.9810 O   0  0  0  0  0  0  0  0  0  0  0  0
  188.6940  176.0910  142.9870 C   0  0  0  0  0  2  0  0  0  0  0  0
  187.7860  177.4750  144.8550 C   0  0  0  0  0  1  0  0  0  0  0  0
  187.5880  177.0450  143.4130 C   0  0  0  0  0  2  0  0  0  0  0  0
  191.4850  176.2970  143.9370 C   0  0  0  0  0  2  0  0  0  0  0  0
  191.5330  177.3500  145.0250 C   0  0  0  0  0  2  0  0  0  0  0  0
  191.2510  176.7030  146.3650 C   0  0  0  0  0  1  0  0  0  0  0  0
  1  4  1  1  0  0  0
  1 11  1  0  0  0  0
  2  6  1  6  0  0  0
  2  1  1  0  0  0  0
  3  6  1  0  0  0  0
  3  9  1  0  0  0  0
  5 19  1  6  0  0  0
  5 12  1  0  0  0  0
  5 15  1  0  0  0  0
  8 16  1  0  0  0  0
  9 13  1  0  0  0  0
 10  7  1  0  0  0  0
 11  7  1  0  0  0  0
 11 21  1  1  0  0  0
 12 10  1  0  0  0  0
 14 15  1  0  0  0  0
 14  4  1  0  0  0  0
 16 11  1  0  0  0  0
 17  2  1  0  0  0  0
 17  8  1  1  0  0  0
 17 18  1  0  0  0  0
 18 13  1  0  0  0  0
 20 19  1  0  0  0  0
 21 22  1  0  0  0  0
 22 24  1  0  0  0  0
 23 29  1  0  0  0  0
 24 23  1  0  0  0  0
 24 26  1  0  0  0  0
 25 23  2  0  0  0  0
 26 28  1  0  0  0  0
 28 27  1  0  0  0  0
 29 30  1  0  0  0  0
 30 31  1  0  0  0  0
M  END
>  <MODEL>
1

>  <REMARK>
 VINA RESULT:      -6.1      0.000      0.000
  Name = 
  8 active torsions:
  status: ('A' for Active; 'I' for Inactive)
    1  A    between atoms: C_1  and  C_8
    2  A    between atoms: C_2  and  C_13
    3  A    between atoms: C_3  and  C_7
    4  A    between atoms: C_3  and  N_22
    5  A    between atoms: C_8  and  C_19
    6  A    between atoms: C_9  and  N_22
    7  A    between atoms: C_9  and  C_23
    8  A    between atoms: C_21  and  C_23
                            x       y       z     vdW  Elec       q    Type
                         _______ _______ _______ _____ _____    ______ ____

>  <TORSDO>
F 8

$$$$
=
 OpenBabel10272400163D

 31 33  0  0  1  0  0  0  0  0999 V2000
  189.3310  175.8750  137.2290 C   0  0  2  0  0  3  0  0  0  0  0  0
  187.8860  176.3180  136.9990 C   0  0  2  0  0  3  0  0  0  0  0  0
  185.9250  176.1490  135.3440 C   0  0  0  0  0  2  0  0  0  0  0  0
  189.5360  174.3600  137.3380 C   0  0  0  0  0  2  0  0  0  0  0  0
  192.5630  174.9250  136.3260 C   0  0  1  0  0  3  0  0  0  0  0  0
  187.0920  175.4240  136.0310 C   0  0  0  0  0  2  0  0  0  0  0  0
  191.4820  176.3920  138.5350 C   0  0  0  0  0  2  0  0  0  0  0  0
  189.1180  178.5910  136.8110 C   0  0  0  0  0  2  0  0  0  0  0  0
  184.8780  176.7520  136.2950 C   0  0  0  0  0  2  0  0  0  0  0  0
  192.3030  176.7940  137.4540 O   0  0  0  0  0  0  0  0  0  0  0  0
  189.9800  176.7090  138.3740 C   0  0  1  0  0  0  0  0  0  0  0  0
  191.8880  176.1570  136.3690 O   0  0  0  0  0  0  0  0  0  0  0  0
  185.4310  177.5650  137.4750 C   0  0  0  0  0  2  0  0  0  0  0  0
  190.3620  173.9190  136.2940 O   0  0  0  0  0  0  0  0  0  0  0  0
  191.6480  173.8130  136.8460 C   0  0  0  0  0  2  0  0  0  0  0  0
  189.8110  178.2220  138.1280 C   0  0  0  0  0  2  0  0  0  0  0  0
  187.8240  177.8010  136.5780 C   0  0  2  0  0  3  0  0  0  0  0  0
  186.5850  178.5190  137.1280 C   0  0  0  0  0  2  0  0  0  0  0  0
  192.9850  174.6210  134.9000 C   0  0  0  0  0  2  0  0  0  0  0  0
  194.2140  173.9630  134.9000 O   0  0  0  0  0  1  0  0  0  0  0  0
  189.2730  176.4450  139.7130 C   0  0  0  0  0  2  0  0  0  0  0  0
  189.3610  177.5930  140.7140 C   0  0  0  0  0  2  0  0  0  0  0  0
  187.9980  177.2750  142.8060 C   0  0  0  0  0  0  0  0  0  0  0  0
  189.2220  177.0860  142.0730 N   0  0  0  0  0  0  0  0  0  0  0  0
  187.0280  177.8790  142.2740 O   0  0  0  0  0  0  0  0  0  0  0  0
  190.3200  176.3110  142.6400 C   0  0  0  0  0  2  0  0  0  0  0  0
  191.5250  178.2290  143.6880 C   0  0  0  0  0  1  0  0  0  0  0  0
  191.6070  177.1230  142.6540 C   0  0  0  0  0  2  0  0  0  0  0  0
  187.8410  176.7370  144.1910 C   0  0  0  0  0  2  0  0  0  0  0  0
  188.0600  177.8430  145.2020 C   0  0  0  0  0  2  0  0  0  0  0  0
  188.9600  177.3410  146.3120 C   0  0  0  0  0  1  0  0  0  0  0  0
  1  4  1  1  0  0  0
  1 11  1  0  0  0  0
  2  6  1  6  0  0  0
  2  1  1  0  0  0  0
  3  6  1  0  0  0  0
  3  9  1  0  0  0  0
  5 19  1  6  0  0  0
  5 12  1  0  0  0  0
  5 15  1  0  0  0  0
  8 16  1  0  0  0  0
  9 13  1  0  0  0  0
 10  7  1  0  0  0  0
 11  7  1  0  0  0  0
 11 21  1  1  0  0  0
 12 10  1  0  0  0  0
 14 15  1  0  0  0  0
 14  4  1  0  0  0  0
 16 11  1  0  0  0  0
 17  8  1  1  0  0  0
 17  2  1  0  0  0  0
 17 18  1  0  0  0  0
 18 13  1  0  0  0  0
 20 19  1  0  0  0  0
 21 22  1  0  0  0  0
 22 24  1  0  0  0  0
 23 29  1  0  0  0  0
 24 26  1  0  0  0  0
 24 23  1  0  0  0  0
 25 23  2  0  0  0  0
 26 28  1  0  0  0  0
 28 27  1  0  0  0  0
 29 30  1  0  0  0  0
 30 31  1  0  0  0  0
M  END
>  <MODEL>
2

>  <REMARK>
 VINA RESULT:      -6.1      1.147      1.849
  Name = 
  8 active torsions:
  status: ('A' for Active; 'I' for Inactive)
    1  A    between atoms: C_1  and  C_8
    2  A    between atoms: C_2  and  C_13
    3  A    between atoms: C_3  and  C_7
    4  A    between atoms: C_3  and  N_22
    5  A    between atoms: C_8  and  C_19
    6  A    between atoms: C_9  and  N_22
    7  A    between atoms: C_9  and  C_23
    8  A    between atoms: C_21  and  C_23
                            x       y       z     vdW  Elec       q    Type
                         _______ _______ _______ _____ _____    ______ ____

>  <TORSDO>
F 8

$$$$
=
 OpenBabel10272400163D

 31 33  0  0  1  0  0  0  0  0999 V2000
  187.9040  175.5010  136.7570 C   0  0  2  0  0  3  0  0  0  0  0  0
  186.5630  174.7910  136.9460 C   0  0  2  0  0  3  0  0  0  0  0  0
  185.3980  172.5090  136.7250 C   0  0  0  0  0  2  0  0  0  0  0  0
  189.0450  174.9770  137.6360 C   0  0  0  0  0  2  0  0  0  0  0  0
  191.0300  176.0960  135.3320 C   0  0  1  0  0  3  0  0  0  0  0  0
  186.6690  173.2690  137.1360 C   0  0  0  0  0  2  0  0  0  0  0  0
  189.0170  177.7950  136.4530 C   0  0  0  0  0  2  0  0  0  0  0  0
  185.9970  176.3630  134.9630 C   0  0  0  0  0  2  0  0  0  0  0  0
  184.1190  172.9240  137.4690 C   0  0  0  0  0  2  0  0  0  0  0  0
  189.4800  177.6400  135.1230 O   0  0  0  0  0  0  0  0  0  0  0  0
  187.7100  177.0470  136.7860 C   0  0  1  0  0  0  0  0  0  0  0  0
  189.7110  176.3510  134.9210 O   0  0  0  0  0  0  0  0  0  0  0  0
  183.8640  174.4350  137.5750 C   0  0  0  0  0  2  0  0  0  0  0  0
  190.0640  174.4550  136.8260 O   0  0  0  0  0  0  0  0  0  0  0  0
  191.0290  175.4700  136.7290 C   0  0  0  0  0  2  0  0  0  0  0  0
  186.6110  177.4910  135.7990 C   0  0  0  0  0  2  0  0  0  0  0  0
  185.5830  175.1530  135.8100 C   0  0  2  0  0  3  0  0  0  0  0  0
  184.1290  175.2350  136.2900 C   0  0  0  0  0  2  0  0  0  0  0  0
  191.7010  175.1550  134.3470 C   0  0  0  0  0  2  0  0  0  0  0  0
  192.8370  174.5940  134.9260 O   0  0  0  0  0  1  0  0  0  0  0  0
  187.2120  177.5110  138.1650 C   0  0  0  0  0  2  0  0  0  0  0  0
  188.1740  178.4330  138.9090 C   0  0  0  0  0  2  0  0  0  0  0  0
  187.0180  178.4860  141.1440 C   0  0  0  0  0  0  0  0  0  0  0  0
  188.1550  178.1320  140.3350 N   0  0  0  0  0  0  0  0  0  0  0  0
  186.0220  179.0570  140.6240 O   0  0  0  0  0  0  0  0  0  0  0  0
  189.2750  177.3920  140.9040 C   0  0  0  0  0  2  0  0  0  0  0  0
  191.7700  177.4410  140.8480 C   0  0  0  0  0  1  0  0  0  0  0  0
  190.5040  177.4990  140.0140 C   0  0  0  0  0  2  0  0  0  0  0  0
  186.9820  178.1610  142.6020 C   0  0  0  0  0  2  0  0  0  0  0  0
  185.6370  178.5420  143.1840 C   0  0  0  0  0  2  0  0  0  0  0  0
  185.7170  178.5190  144.6950 C   0  0  0  0  0  1  0  0  0  0  0  0
  1 11  1  0  0  0  0
  1  2  1  0  0  0  0
  1  4  1  1  0  0  0
  2  6  1  6  0  0  0
  3  6  1  0  0  0  0
  3  9  1  0  0  0  0
  5 19  1  6  0  0  0
  5 15  1  0  0  0  0
  7 11  1  0  0  0  0
  8 16  1  0  0  0  0
  9 13  1  0  0  0  0
 10  7  1  0  0  0  0
 11 21  1  1  0  0  0
 12 10  1  0  0  0  0
 12  5  1  0  0  0  0
 14  4  1  0  0  0  0
 15 14  1  0  0  0  0
 16 11  1  0  0  0  0
 17  8  1  1  0  0  0
 17 18  1  0  0  0  0
 17  2  1  0  0  0  0
 18 13  1  0  0  0  0
 19 20  1  0  0  0  0
 21 22  1  0  0  0  0
 22 24  1  0  0  0  0
 23 29  1  0  0  0  0
 24 26  1  0  0  0  0
 24 23  1  0  0  0  0
 25 23  2  0  0  0  0
 28 27  1  0  0  0  0
 28 26  1  0  0  0  0
 29 30  1  0  0  0  0
 30 31  1  0  0  0  0
M  END
>  <MODEL>
3

>  <REMARK>
 VINA RESULT:      -5.2      2.406      3.714
  Name = 
  8 active torsions:
  status: ('A' for Active; 'I' for Inactive)
    1  A    between atoms: C_1  and  C_8
    2  A    between atoms: C_2  and  C_13
    3  A    between atoms: C_3  and  C_7
    4  A    between atoms: C_3  and  N_22
    5  A    between atoms: C_8  and  C_19
    6  A    between atoms: C_9  and  N_22
    7  A    between atoms: C_9  and  C_23
    8  A    between atoms: C_21  and  C_23
                            x       y       z     vdW  Elec       q    Type
                         _______ _______ _______ _____ _____    ______ ____

>  <TORSDO>
F 8

$$$$
=
 OpenBabel10272400163D

 31 33  0  0  1  0  0  0  0  0999 V2000
  189.0850  177.6620  144.6980 C   0  0  2  0  0  3  0  0  0  0  0  0
  187.6120  178.0750  144.6980 C   0  0  2  0  0  3  0  0  0  0  0  0
  185.5940  178.4850  146.2370 C   0  0  0  0  0  2  0  0  0  0  0  0
  190.0220  178.6040  145.4640 C   0  0  0  0  0  2  0  0  0  0  0  0
  191.9410  176.0200  145.8400 C   0  0  1  0  0  3  0  0  0  0  0  0
  187.1080  178.6420  146.0350 C   0  0  0  0  0  2  0  0  0  0  0  0
  190.9880  176.7440  143.2390 C   0  0  0  0  0  2  0  0  0  0  0  0
  187.4670  175.7790  143.5020 C   0  0  0  0  0  2  0  0  0  0  0  0
  184.7190  179.1440  145.1590 C   0  0  0  0  0  2  0  0  0  0  0  0
  191.1510  175.4820  143.8610 O   0  0  0  0  0  0  0  0  0  0  0  0
  189.5510  177.3040  143.2560 C   0  0  1  0  0  0  0  0  0  0  0  0
  190.8000  175.6060  145.1320 O   0  0  0  0  0  0  0  0  0  0  0  0
  185.1260  178.8720  143.7030 C   0  0  0  0  0  2  0  0  0  0  0  0
  190.6090  177.9170  146.5360 O   0  0  0  0  0  0  0  0  0  0  0  0
  191.8810  177.5300  146.0880 C   0  0  0  0  0  2  0  0  0  0  0  0
  188.6040  176.2770  142.6020 C   0  0  0  0  0  2  0  0  0  0  0  0
  186.7180  176.9210  144.1990 C   0  0  2  0  0  3  0  0  0  0  0  0
  185.5110  177.4160  143.3930 C   0  0  0  0  0  2  0  0  0  0  0  0
  192.0170  175.2830  147.1650 C   0  0  0  0  0  2  0  0  0  0  0  0
  192.8700  175.9610  148.0350 O   0  0  0  0  0  1  0  0  0  0  0  0
  189.4900  178.5370  142.3380 C   0  0  0  0  0  2  0  0  0  0  0  0
  188.3370  178.5280  141.3400 C   0  0  0  0  0  2  0  0  0  0  0  0
  187.9560  178.3130  138.8610 C   0  0  0  0  0  0  0  0  0  0  0  0
  188.8360  178.2520  139.9990 N   0  0  0  0  0  0  0  0  0  0  0  0
  186.7420  178.6120  139.0140 O   0  0  0  0  0  0  0  0  0  0  0  0
  190.2620  177.9970  139.8280 C   0  0  0  0  0  2  0  0  0  0  0  0
  191.5340  176.3380  138.4650 C   0  0  0  0  0  1  0  0  0  0  0  0
  190.5220  176.5180  139.5810 C   0  0  0  0  0  2  0  0  0  0  0  0
  188.4670  178.0540  137.4810 C   0  0  0  0  0  2  0  0  0  0  0  0
  187.5350  177.1060  136.7550 C   0  0  0  0  0  2  0  0  0  0  0  0
  187.7960  175.6890  137.2190 C   0  0  0  0  0  1  0  0  0  0  0  0
  1  4  1  6  0  0  0
  2  1  1  0  0  0  0
  2  6  1  1  0  0  0
  4 14  1  0  0  0  0
  5 15  1  0  0  0  0
  5 19  1  1  0  0  0
  6  3  1  0  0  0  0
  7 11  1  0  0  0  0
  7 10  1  0  0  0  0
  8 17  1  0  0  0  0
  9  3  1  0  0  0  0
 10 12  1  0  0  0  0
 11 21  1  6  0  0  0
 11  1  1  0  0  0  0
 12  5  1  0  0  0  0
 13  9  1  0  0  0  0
 15 14  1  0  0  0  0
 16 11  1  0  0  0  0
 16  8  1  0  0  0  0
 17 18  1  6  0  0  0
 17  2  1  0  0  0  0
 18 13  1  0  0  0  0
 19 20  1  0  0  0  0
 22 21  1  0  0  0  0
 23 25  2  0  0  0  0
 23 24  1  0  0  0  0
 24 22  1  0  0  0  0
 26 24  1  0  0  0  0
 27 28  1  0  0  0  0
 28 26  1  0  0  0  0
 29 23  1  0  0  0  0
 30 31  1  0  0  0  0
 30 29  1  0  0  0  0
M  END
>  <MODEL>
4

>  <REMARK>
 VINA RESULT:      -5.0      3.020      7.914
  Name = 
  8 active torsions:
  status: ('A' for Active; 'I' for Inactive)
    1  A    between atoms: C_1  and  C_8
    2  A    between atoms: C_2  and  C_13
    3  A    between atoms: C_3  and  C_7
    4  A    between atoms: C_3  and  N_22
    5  A    between atoms: C_8  and  C_19
    6  A    between atoms: C_9  and  N_22
    7  A    between atoms: C_9  and  C_23
    8  A    between atoms: C_21  and  C_23
                            x       y       z     vdW  Elec       q    Type
                         _______ _______ _______ _____ _____    ______ ____

>  <TORSDO>
F 8

$$$$
=
 OpenBabel10272400163D

 31 33  0  0  1  0  0  0  0  0999 V2000
  188.4950  175.1760  136.8420 C   0  0  2  0  0  3  0  0  0  0  0  0
  187.1170  174.5300  136.9860 C   0  0  2  0  0  3  0  0  0  0  0  0
  185.8170  172.3500  136.5700 C   0  0  0  0  0  2  0  0  0  0  0  0
  189.6140  174.5060  137.6490 C   0  0  0  0  0  2  0  0  0  0  0  0
  191.6350  175.7220  135.4270 C   0  0  1  0  0  3  0  0  0  0  0  0
  187.1350  172.9930  137.0290 C   0  0  0  0  0  2  0  0  0  0  0  0
  189.7390  177.4210  136.7370 C   0  0  0  0  0  2  0  0  0  0  0  0
  186.6220  176.3130  135.1700 C   0  0  0  0  0  2  0  0  0  0  0  0
  184.5730  172.7660  137.3720 C   0  0  0  0  0  2  0  0  0  0  0  0
  190.1760  177.3660  135.3910 O   0  0  0  0  0  0  0  0  0  0  0  0
  188.3940  176.7210  137.0200 C   0  0  1  0  0  0  0  0  0  0  0  0
  190.3280  176.0910  135.0640 O   0  0  0  0  0  0  0  0  0  0  0  0
  184.4090  174.2720  137.6250 C   0  0  0  0  0  2  0  0  0  0  0  0
  190.5900  174.0050  136.7760 O   0  0  0  0  0  0  0  0  0  0  0  0
  191.6120  174.9670  136.7590 C   0  0  0  0  0  2  0  0  0  0  0  0
  187.3120  177.3190  136.0980 C   0  0  0  0  0  2  0  0  0  0  0  0
  186.1470  175.0540  135.9060 C   0  0  2  0  0  3  0  0  0  0  0  0
  184.7060  175.1740  136.4160 C   0  0  0  0  0  2  0  0  0  0  0  0
  192.2370  174.8420  134.3460 C   0  0  0  0  0  2  0  0  0  0  0  0
  193.3880  174.2210  134.8280 O   0  0  0  0  0  1  0  0  0  0  0  0
  187.9400  177.0800  138.4450 C   0  0  0  0  0  2  0  0  0  0  0  0
  188.7360  178.2050  139.0990 C   0  0  0  0  0  2  0  0  0  0  0  0
  189.7700  176.9890  141.0450 C   0  0  0  0  0  0  0  0  0  0  0  0
  188.8500  177.9710  140.5330 N   0  0  0  0  0  0  0  0  0  0  0  0
  190.4920  176.3230  140.2560 O   0  0  0  0  0  0  0  0  0  0  0  0
  188.0740  178.8120  141.4380 C   0  0  0  0  0  2  0  0  0  0  0  0
  186.3030  178.1190  143.0540 C   0  0  0  0  0  1  0  0  0  0  0  0
  186.6560  178.2820  141.5880 C   0  0  0  0  0  2  0  0  0  0  0  0
  189.9080  176.7600  142.5150 C   0  0  0  0  0  2  0  0  0  0  0  0
  191.3730  176.7220  142.8970 C   0  0  0  0  0  2  0  0  0  0  0  0
  191.6110  175.5910  143.8750 C   0  0  0  0  0  1  0  0  0  0  0  0
  1  2  1  0  0  0  0
  1 11  1  0  0  0  0
  1  4  1  1  0  0  0
  2  6  1  6  0  0  0
  3  6  1  0  0  0  0
  3  9  1  0  0  0  0
  5 19  1  6  0  0  0
  5 15  1  0  0  0  0
  7 11  1  0  0  0  0
  8 16  1  0  0  0  0
  9 13  1  0  0  0  0
 10  7  1  0  0  0  0
 11 21  1  1  0  0  0
 12 10  1  0  0  0  0
 12  5  1  0  0  0  0
 14  4  1  0  0  0  0
 15 14  1  0  0  0  0
 16 11  1  0  0  0  0
 17  8  1  1  0  0  0
 17 18  1  0  0  0  0
 17  2  1  0  0  0  0
 18 13  1  0  0  0  0
 19 20  1  0  0  0  0
 21 22  1  0  0  0  0
 22 24  1  0  0  0  0
 23 29  1  0  0  0  0
 24 23  1  0  0  0  0
 24 26  1  0  0  0  0
 25 23  2  0  0  0  0
 26 28  1  0  0  0  0
 28 27  1  0  0  0  0
 29 30  1  0  0  0  0
 30 31  1  0  0  0  0
M  END
>  <MODEL>
5

>  <REMARK>
 VINA RESULT:      -4.9      1.841      2.630
  Name = 
  8 active torsions:
  status: ('A' for Active; 'I' for Inactive)
    1  A    between atoms: C_1  and  C_8
    2  A    between atoms: C_2  and  C_13
    3  A    between atoms: C_3  and  C_7
    4  A    between atoms: C_3  and  N_22
    5  A    between atoms: C_8  and  C_19
    6  A    between atoms: C_9  and  N_22
    7  A    between atoms: C_9  and  C_23
    8  A    between atoms: C_21  and  C_23
                            x       y       z     vdW  Elec       q    Type
                         _______ _______ _______ _____ _____    ______ ____

>  <TORSDO>
F 8

$$$$
=
 OpenBabel10272400163D

 31 33  0  0  1  0  0  0  0  0999 V2000
  187.5100  175.5790  136.7290 C   0  0  2  0  0  3  0  0  0  0  0  0
  186.2490  174.7230  136.8580 C   0  0  2  0  0  3  0  0  0  0  0  0
  185.3470  172.3350  136.5490 C   0  0  0  0  0  2  0  0  0  0  0  0
  188.6730  175.1590  137.6360 C   0  0  0  0  0  2  0  0  0  0  0  0
  190.5970  176.5420  135.4240 C   0  0  1  0  0  3  0  0  0  0  0  0
  186.5140  173.2170  137.0190 C   0  0  0  0  0  2  0  0  0  0  0  0
  188.3770  177.9860  136.5110 C   0  0  0  0  0  2  0  0  0  0  0  0
  185.5790  176.2730  134.8900 C   0  0  0  0  0  2  0  0  0  0  0  0
  184.0070  172.5920  137.2580 C   0  0  0  0  0  2  0  0  0  0  0  0
  188.8950  177.9140  135.1950 O   0  0  0  0  0  0  0  0  0  0  0  0
  187.1490  177.0930  136.7840 C   0  0  1  0  0  0  0  0  0  0  0  0
  189.2710  176.6630  134.9740 O   0  0  0  0  0  0  0  0  0  0  0  0
  183.5860  174.0640  137.3870 C   0  0  0  0  0  2  0  0  0  0  0  0
  189.7670  174.7700  136.8510 O   0  0  0  0  0  0  0  0  0  0  0  0
  190.6190  175.8850  136.8070 C   0  0  0  0  0  2  0  0  0  0  0  0
  186.0400  177.4400  135.7700 C   0  0  0  0  0  2  0  0  0  0  0  0
  185.2720  175.0050  135.6970 C   0  0  2  0  0  3  0  0  0  0  0  0
  183.8030  174.9180  136.1290 C   0  0  0  0  0  2  0  0  0  0  0  0
  191.3960  175.7030  134.4430 C   0  0  0  0  0  2  0  0  0  0  0  0
  192.6000  175.3120  135.0260 O   0  0  0  0  0  1  0  0  0  0  0  0
  186.5600  177.4670  138.1550 C   0  0  0  0  0  2  0  0  0  0  0  0
  185.3660  178.4140  138.0950 C   0  0  0  0  0  2  0  0  0  0  0  0
  184.6540  178.7530  140.4850 C   0  0  0  0  0  0  0  0  0  0  0  0
  184.4530  178.1410  139.1980 N   0  0  0  0  0  0  0  0  0  0  0  0
  185.6210  179.5400  140.6700 O   0  0  0  0  0  0  0  0  0  0  0  0
  183.2890  177.3000  138.9440 C   0  0  0  0  0  2  0  0  0  0  0  0
  180.8820  177.9430  138.7990 C   0  0  0  0  0  1  0  0  0  0  0  0
  182.2420  178.0530  138.1370 C   0  0  0  0  0  2  0  0  0  0  0  0
  183.7100  178.4950  141.6140 C   0  0  0  0  0  2  0  0  0  0  0  0
  184.4830  178.3140  142.9030 C   0  0  0  0  0  2  0  0  0  0  0  0
  183.6430  178.7970  144.0670 C   0  0  0  0  0  1  0  0  0  0  0  0
  1 11  1  0  0  0  0
  1  2  1  0  0  0  0
  1  4  1  1  0  0  0
  2  6  1  6  0  0  0
  3  6  1  0  0  0  0
  3  9  1  0  0  0  0
  5 19  1  6  0  0  0
  5 15  1  0  0  0  0
  7 11  1  0  0  0  0
  8 16  1  0  0  0  0
  9 13  1  0  0  0  0
 10  7  1  0  0  0  0
 11 21  1  1  0  0  0
 12 10  1  0  0  0  0
 12  5  1  0  0  0  0
 14  4  1  0  0  0  0
 15 14  1  0  0  0  0
 16 11  1  0  0  0  0
 17  8  1  1  0  0  0
 17 18  1  0  0  0  0
 17  2  1  0  0  0  0
 18 13  1  0  0  0  0
 19 20  1  0  0  0  0
 22 21  1  0  0  0  0
 22 24  1  0  0  0  0
 23 25  2  0  0  0  0
 23 29  1  0  0  0  0
 24 23  1  0  0  0  0
 26 24  1  0  0  0  0
 28 27  1  0  0  0  0
 28 26  1  0  0  0  0
 29 30  1  0  0  0  0
 30 31  1  0  0  0  0
M  END
>  <MODEL>
6

>  <REMARK>
 VINA RESULT:      -4.9      3.598      5.010
  Name = 
  8 active torsions:
  status: ('A' for Active; 'I' for Inactive)
    1  A    between atoms: C_1  and  C_8
    2  A    between atoms: C_2  and  C_13
    3  A    between atoms: C_3  and  C_7
    4  A    between atoms: C_3  and  N_22
    5  A    between atoms: C_8  and  C_19
    6  A    between atoms: C_9  and  N_22
    7  A    between atoms: C_9  and  C_23
    8  A    between atoms: C_21  and  C_23
                            x       y       z     vdW  Elec       q    Type
                         _______ _______ _______ _____ _____    ______ ____

>  <TORSDO>
F 8

$$$$
=
 OpenBabel10272400163D

 31 33  0  0  1  0  0  0  0  0999 V2000
  189.0050  177.6630  144.6840 C   0  0  2  0  0  3  0  0  0  0  0  0
  187.9530  178.1900  145.6610 C   0  0  2  0  0  3  0  0  0  0  0  0
  187.4790  178.5750  148.1590 C   0  0  0  0  0  2  0  0  0  0  0  0
  190.3330  178.4300  144.6860 C   0  0  0  0  0  2  0  0  0  0  0  0
  191.6650  175.6740  143.6210 C   0  0  1  0  0  3  0  0  0  0  0  0
  188.5120  178.6330  147.0230 C   0  0  0  0  0  2  0  0  0  0  0  0
  189.3730  176.7740  142.3030 C   0  0  0  0  0  2  0  0  0  0  0  0
  186.7580  176.0700  144.7650 C   0  0  0  0  0  2  0  0  0  0  0  0
  186.2170  179.4260  147.9390 C   0  0  0  0  0  2  0  0  0  0  0  0
  189.7220  175.4390  142.6200 O   0  0  0  0  0  0  0  0  0  0  0  0
  188.3780  177.4420  143.2750 C   0  0  1  0  0  0  0  0  0  0  0  0
  190.2930  175.4400  143.8150 O   0  0  0  0  0  0  0  0  0  0  0  0
  185.5500  179.2950  146.5620 C   0  0  0  0  0  2  0  0  0  0  0  0
  191.3700  177.5770  145.0880 O   0  0  0  0  0  0  0  0  0  0  0  0
  191.9870  177.1450  143.9040 C   0  0  0  0  0  2  0  0  0  0  0  0
  187.1030  176.5780  143.3610 C   0  0  0  0  0  2  0  0  0  0  0  0
  186.7990  177.1780  145.8250 C   0  0  2  0  0  3  0  0  0  0  0  0
  185.4400  177.8600  146.0220 C   0  0  0  0  0  2  0  0  0  0  0  0
  192.4730  174.7830  144.5460 C   0  0  0  0  0  2  0  0  0  0  0  0
  192.2120  175.1180  145.8730 O   0  0  0  0  0  1  0  0  0  0  0  0
  187.9120  178.7750  142.6670 C   0  0  0  0  0  2  0  0  0  0  0  0
  187.4740  178.6870  141.2080 C   0  0  0  0  0  2  0  0  0  0  0  0
  185.3820  178.9010  139.8240 C   0  0  0  0  0  0  0  0  0  0  0  0
  186.0610  179.0230  141.0880 N   0  0  0  0  0  0  0  0  0  0  0  0
  186.0050  178.4950  138.8060 O   0  0  0  0  0  0  0  0  0  0  0  0
  185.3330  179.4050  142.2930 C   0  0  0  0  0  2  0  0  0  0  0  0
  183.1180  178.9800  143.3610 C   0  0  0  0  0  1  0  0  0  0  0  0
  184.3070  178.3450  142.6650 C   0  0  0  0  0  2  0  0  0  0  0  0
  183.9290  179.2220  139.6990 C   0  0  0  0  0  2  0  0  0  0  0  0
  183.2540  178.2180  138.7880 C   0  0  0  0  0  2  0  0  0  0  0  0
  182.7850  177.0320  139.6040 C   0  0  0  0  0  1  0  0  0  0  0  0
  1  4  1  6  0  0  0
  1  2  1  0  0  0  0
  2 17  1  0  0  0  0
  2  6  1  1  0  0  0
  4 14  1  0  0  0  0
  5 12  1  0  0  0  0
  5 15  1  0  0  0  0
  5 19  1  1  0  0  0
  6  3  1  0  0  0  0
  7 10  1  0  0  0  0
  7 11  1  0  0  0  0
  9  3  1  0  0  0  0
 10 12  1  0  0  0  0
 11 21  1  6  0  0  0
 11 16  1  0  0  0  0
 11  1  1  0  0  0  0
 13  9  1  0  0  0  0
 15 14  1  0  0  0  0
 16  8  1  0  0  0  0
 17  8  1  6  0  0  0
 17 18  1  0  0  0  0
 18 13  1  0  0  0  0
 19 20  1  0  0  0  0
 22 21  1  0  0  0  0
 23 24  1  0  0  0  0
 24 22  1  0  0  0  0
 24 26  1  0  0  0  0
 25 23  2  0  0  0  0
 26 28  1  0  0  0  0
 28 27  1  0  0  0  0
 29 23  1  0  0  0  0
 30 31  1  0  0  0  0
 30 29  1  0  0  0  0
M  END
>  <MODEL>
7

>  <REMARK>
 VINA RESULT:      -4.8      4.550      8.151
  Name = 
  8 active torsions:
  status: ('A' for Active; 'I' for Inactive)
    1  A    between atoms: C_1  and  C_8
    2  A    between atoms: C_2  and  C_13
    3  A    between atoms: C_3  and  C_7
    4  A    between atoms: C_3  and  N_22
    5  A    between atoms: C_8  and  C_19
    6  A    between atoms: C_9  and  N_22
    7  A    between atoms: C_9  and  C_23
    8  A    between atoms: C_21  and  C_23
                            x       y       z     vdW  Elec       q    Type
                         _______ _______ _______ _____ _____    ______ ____

>  <TORSDO>
F 8

$$$$
=
 OpenBabel10272400163D

 31 33  0  0  1  0  0  0  0  0999 V2000
  187.9750  177.6480  143.8710 C   0  0  2  0  0  3  0  0  0  0  0  0
  189.1260  177.3040  144.8170 C   0  0  2  0  0  3  0  0  0  0  0  0
  189.7690  177.1600  147.3020 C   0  0  0  0  0  2  0  0  0  0  0  0
  186.7340  176.7580  144.0080 C   0  0  0  0  0  2  0  0  0  0  0  0
  185.0740  179.2800  142.8320 C   0  0  1  0  0  3  0  0  0  0  0  0
  188.6880  176.9140  146.2380 C   0  0  0  0  0  2  0  0  0  0  0  0
  187.3920  178.3110  141.4590 C   0  0  0  0  0  2  0  0  0  0  0  0
  190.0490  179.4550  143.7010 C   0  0  0  0  0  2  0  0  0  0  0  0
  191.0970  176.4230  147.0680 C   0  0  0  0  0  2  0  0  0  0  0  0
  186.9260  179.6270  141.7010 O   0  0  0  0  0  0  0  0  0  0  0  0
  188.5000  177.8200  142.4140 C   0  0  1  0  0  0  0  0  0  0  0  0
  186.4230  179.6620  142.9260 O   0  0  0  0  0  0  0  0  0  0  0  0
  191.6740  176.5110  145.6470 C   0  0  0  0  0  2  0  0  0  0  0  0
  185.6380  177.5340  144.4110 O   0  0  0  0  0  0  0  0  0  0  0  0
  184.9190  177.8120  143.2380 C   0  0  0  0  0  2  0  0  0  0  0  0
  189.6830  178.8090  142.3600 C   0  0  0  0  0  2  0  0  0  0  0  0
  190.1770  178.4330  144.8380 C   0  0  2  0  0  3  0  0  0  0  0  0
  191.6080  177.9040  145.0000 C   0  0  0  0  0  2  0  0  0  0  0  0
  184.2290  180.1570  143.7390 C   0  0  0  0  0  2  0  0  0  0  0  0
  183.0340  179.5090  144.0450 O   0  0  0  0  0  1  0  0  0  0  0  0
  189.0660  176.4960  141.8750 C   0  0  0  0  0  2  0  0  0  0  0  0
  190.5540  176.5340  141.5380 C   0  0  0  0  0  2  0  0  0  0  0  0
  192.0380  176.8650  139.5320 C   0  0  0  0  0  0  0  0  0  0  0  0
  190.7390  176.6010  140.0940 N   0  0  0  0  0  0  0  0  0  0  0  0
  193.0320  177.0360  140.2870 O   0  0  0  0  0  0  0  0  0  0  0  0
  189.5970  176.3120  139.2340 C   0  0  0  0  0  2  0  0  0  0  0  0
  187.7680  177.4670  137.9910 C   0  0  0  0  0  1  0  0  0  0  0  0
  189.2280  177.5260  138.3950 C   0  0  0  0  0  2  0  0  0  0  0  0
  192.2390  176.9130  138.0530 C   0  0  0  0  0  2  0  0  0  0  0  0
  193.1510  175.7840  137.6180 C   0  0  0  0  0  2  0  0  0  0  0  0
  192.3240  174.5450  137.3450 C   0  0  0  0  0  1  0  0  0  0  0  0
  1  4  1  6  0  0  0
  1  2  1  0  0  0  0
  2 17  1  0  0  0  0
  2  6  1  1  0  0  0
  4 14  1  0  0  0  0
  5 12  1  0  0  0  0
  5 15  1  0  0  0  0
  5 19  1  1  0  0  0
  6  3  1  0  0  0  0
  7 10  1  0  0  0  0
  7 11  1  0  0  0  0
  9  3  1  0  0  0  0
 10 12  1  0  0  0  0
 11 21  1  6  0  0  0
 11  1  1  0  0  0  0
 13  9  1  0  0  0  0
 15 14  1  0  0  0  0
 16 11  1  0  0  0  0
 16  8  1  0  0  0  0
 17  8  1  6  0  0  0
 17 18  1  0  0  0  0
 18 13  1  0  0  0  0
 19 20  1  0  0  0  0
 22 21  1  0  0  0  0
 23 24  1  0  0  0  0
 23 25  2  0  0  0  0
 24 22  1  0  0  0  0
 26 24  1  0  0  0  0
 27 28  1  0  0  0  0
 28 26  1  0  0  0  0
 29 23  1  0  0  0  0
 30 29  1  0  0  0  0
 31 30  1  0  0  0  0
M  END
>  <MODEL>
8

>  <REMARK>
 VINA RESULT:      -4.6      3.071      8.240
  Name = 
  8 active torsions:
  status: ('A' for Active; 'I' for Inactive)
    1  A    between atoms: C_1  and  C_8
    2  A    between atoms: C_2  and  C_13
    3  A    between atoms: C_3  and  C_7
    4  A    between atoms: C_3  and  N_22
    5  A    between atoms: C_8  and  C_19
    6  A    between atoms: C_9  and  N_22
    7  A    between atoms: C_9  and  C_23
    8  A    between atoms: C_21  and  C_23
                            x       y       z     vdW  Elec       q    Type
                         _______ _______ _______ _____ _____    ______ ____

>  <TORSDO>
F 8

$$$$
=
 OpenBabel10272400163D

 31 33  0  0  1  0  0  0  0  0999 V2000
  182.7020  178.5070  138.8180 C   0  0  2  0  0  3  0  0  0  0  0  0
  183.4690  177.3450  138.1850 C   0  0  2  0  0  3  0  0  0  0  0  0
  184.5610  176.5550  135.9960 C   0  0  0  0  0  2  0  0  0  0  0  0
  183.4640  179.8360  138.8690 C   0  0  0  0  0  2  0  0  0  0  0  0
  180.5470  181.2470  138.8930 C   0  0  1  0  0  3  0  0  0  0  0  0
  184.3060  177.7290  136.9540 C   0  0  0  0  0  2  0  0  0  0  0  0
  181.1600  179.1680  140.7620 C   0  0  0  0  0  2  0  0  0  0  0  0
  181.1540  176.2410  138.5650 C   0  0  0  0  0  2  0  0  0  0  0  0
  185.2820  175.3480  136.6180 C   0  0  0  0  0  2  0  0  0  0  0  0
  179.9850  179.4490  140.0240 O   0  0  0  0  0  0  0  0  0  0  0  0
  182.0620  178.0660  140.1680 C   0  0  1  0  0  0  0  0  0  0  0  0
  180.3500  179.8580  138.8180 O   0  0  0  0  0  0  0  0  0  0  0  0
  184.7370  174.8640  137.9700 C   0  0  0  0  0  2  0  0  0  0  0  0
  182.7900  180.7970  138.1020 O   0  0  0  0  0  0  0  0  0  0  0  0
  182.0420  181.5550  139.0150 C   0  0  0  0  0  2  0  0  0  0  0  0
  181.2340  176.7760  139.9990 C   0  0  0  0  0  2  0  0  0  0  0  0
  182.5250  176.1630  137.8820 C   0  0  2  0  0  3  0  0  0  0  0  0
  183.2050  174.8010  138.0730 C   0  0  0  0  0  2  0  0  0  0  0  0
  179.9850  181.9120  137.6490 C   0  0  0  0  0  2  0  0  0  0  0  0
  180.5520  183.1750  137.4890 O   0  0  0  0  0  1  0  0  0  0  0  0
  183.1470  177.7070  141.1980 C   0  0  0  0  0  2  0  0  0  0  0  0
  183.1920  178.6230  142.4170 C   0  0  0  0  0  2  0  0  0  0  0  0
  184.5950  178.7880  144.5000 C   0  0  0  0  0  0  0  0  0  0  0  0
  184.4740  178.4890  143.0970 N   0  0  0  0  0  0  0  0  0  0  0  0
  183.5880  179.1650  145.1570 O   0  0  0  0  0  0  0  0  0  0  0  0
  185.6080  177.9670  142.3430 C   0  0  0  0  0  2  0  0  0  0  0  0
  186.7730  178.5010  140.2020 C   0  0  0  0  0  1  0  0  0  0  0  0
  186.2600  179.0630  141.5140 C   0  0  0  0  0  2  0  0  0  0  0  0
  185.9010  178.6320  145.2080 C   0  0  0  0  0  2  0  0  0  0  0  0
  185.7600  179.0590  146.6540 C   0  0  0  0  0  2  0  0  0  0  0  0
  186.7840  178.3290  147.4970 C   0  0  0  0  0  1  0  0  0  0  0  0
  1  4  1  1  0  0  0
  1 11  1  0  0  0  0
  2  6  1  6  0  0  0
  2  1  1  0  0  0  0
  3  9  1  0  0  0  0
  3  6  1  0  0  0  0
  5 19  1  6  0  0  0
  5 15  1  0  0  0  0
  8 16  1  0  0  0  0
  9 13  1  0  0  0  0
 10  7  1  0  0  0  0
 11  7  1  0  0  0  0
 11 21  1  1  0  0  0
 12  5  1  0  0  0  0
 12 10  1  0  0  0  0
 13 18  1  0  0  0  0
 14  4  1  0  0  0  0
 14 15  1  0  0  0  0
 16 11  1  0  0  0  0
 17 18  1  1  0  0  0
 17  2  1  0  0  0  0
 17  8  1  0  0  0  0
 20 19  1  0  0  0  0
 21 22  1  0  0  0  0
 22 24  1  0  0  0  0
 23 25  2  0  0  0  0
 23 29  1  0  0  0  0
 24 23  1  0  0  0  0
 26 24  1  0  0  0  0
 27 28  1  0  0  0  0
 28 26  1  0  0  0  0
 29 30  1  0  0  0  0
 30 31  1  0  0  0  0
M  END
>  <MODEL>
9

>  <REMARK>
 VINA RESULT:      -4.5      5.805      8.365
  Name = 
  8 active torsions:
  status: ('A' for Active; 'I' for Inactive)
    1  A    between atoms: C_1  and  C_8
    2  A    between atoms: C_2  and  C_13
    3  A    between atoms: C_3  and  C_7
    4  A    between atoms: C_3  and  N_22
    5  A    between atoms: C_8  and  C_19
    6  A    between atoms: C_9  and  N_22
    7  A    between atoms: C_9  and  C_23
    8  A    between atoms: C_21  and  C_23
                            x       y       z     vdW  Elec       q    Type
                         _______ _______ _______ _____ _____    ______ ____

>  <TORSDO>
F 8

$$$$
