=
 OpenBabel10272415273D

 34 39  0  0  1  0  0  0  0  0999 V2000
  185.7290  177.8470  143.9260 C   0  0  0  0  0  0  0  0  0  0  0  0
  182.2030  178.9950  143.8750 C   0  0  0  0  0  3  0  0  0  0  0  0
  183.8060  179.1470  145.5150 N   0  0  0  0  0  0  0  0  0  0  0  0
  188.0850  177.1420  143.9930 C   0  0  0  0  0  0  0  0  0  0  0  0
  186.8680  177.3230  143.2690 C   0  0  0  0  0  3  0  0  0  0  0  0
  187.0250  178.0100  145.9650 C   0  0  0  0  0  0  0  0  0  0  0  0
  186.8120  178.6230  147.2440 N   0  0  0  0  0  0  0  0  0  0  0  0
  188.1810  177.5180  145.3600 C   0  0  0  0  0  3  0  0  0  0  0  0
  185.0140  178.7810  146.0070 C   0  0  0  0  0  0  0  0  0  0  0  0
  185.8910  178.1260  145.2550 C   0  0  0  0  0  0  0  0  0  0  0  0
  185.6120  179.0820  147.2700 N   0  0  0  0  0  0  0  0  0  0  0  0
  181.5430  178.4450  142.6580 C   0  0  0  0  0  2  0  0  0  0  0  0
  182.1210  178.9770  141.3940 C   0  0  0  0  0  0  0  0  0  0  0  0
  183.3990  178.7640  141.0940 C   0  0  0  0  0  3  0  0  0  0  0  0
  183.4850  178.8260  144.2130 C   0  0  0  0  0  0  0  0  0  0  0  0
  184.4280  178.2110  141.9930 C   0  0  0  0  0  3  0  0  0  0  0  0
  184.4930  178.2360  143.3390 C   0  0  0  0  0  0  0  0  0  0  0  0
  181.2550  179.5760  140.4190 N   0  0  0  0  0  0  0  0  0  0  0  0
  181.4620  179.4010  139.2000 O   0  0  0  0  0  0  0  0  0  0  0  0
  180.1730  180.3310  140.8130 O   0  0  0  0  0  0  0  0  0  0  0  0
  189.2750  176.5690  143.2970 C   0  0  0  0  0  2  0  0  0  0  0  0
  191.0240  176.7820  140.0750 C   0  0  0  0  0  3  0  0  0  0  0  0
  188.4060  177.7490  141.3540 C   0  0  0  0  0  3  0  0  0  0  0  0
  189.6250  177.3660  136.6970 C   0  0  2  0  0  3  0  0  0  0  0  0
  190.6210  176.7050  137.6550 C   0  0  0  0  0  2  0  0  0  0  0  0
  190.3280  177.2050  139.0210 C   0  0  0  0  0  0  0  0  0  0  0  0
  188.4010  178.4110  140.0340 C   0  0  0  0  0  3  0  0  0  0  0  0
  189.2900  178.2320  139.0500 C   0  0  0  0  0  0  0  0  0  0  0  0
  188.9860  178.9150  137.4390 S   0  0  0  0  0  0  0  0  0  0  0  0
  189.4650  177.2050  141.9600 C   0  0  0  0  0  0  0  0  0  0  0  0
  190.8580  177.3650  141.4380 C   0  0  0  0  0  2  0  0  0  0  0  0
  188.5020  176.4370  136.3630 C   0  0  0  0  0  0  0  0  0  0  0  0
  188.6800  175.1890  136.3560 O   0  0  0  0  0  0  0  0  0  0  0  0
  187.2190  176.9680  136.0530 N   0  0  0  0  0  1  0  0  0  0  0  0
  1 10  1  0  0  0  0
  2 15  2  0  0  0  0
  3  9  2  0  0  0  0
  4  8  2  0  0  0  0
  5  1  2  0  0  0  0
  5  4  1  0  0  0  0
  6  7  1  0  0  0  0
  7 11  2  0  0  0  0
  8  6  1  0  0  0  0
  9 11  1  0  0  0  0
 10  6  2  0  0  0  0
 10  9  1  0  0  0  0
 12  2  1  0  0  0  0
 13 12  1  0  0  0  0
 14 13  2  0  0  0  0
 14 16  1  0  0  0  0
 15  3  1  0  0  0  0
 16 17  2  0  0  0  0
 17  1  1  0  0  0  0
 17 15  1  0  0  0  0
 18 20  2  0  0  0  0
 18 13  1  0  0  0  0
 19 18  2  0  0  0  0
 21  4  1  0  0  0  0
 22 31  1  0  0  0  0
 23 30  2  0  0  0  0
 24 32  1  1  0  0  0
 24 29  1  0  0  0  0
 24 25  1  0  0  0  0
 25 26  1  0  0  0  0
 26 28  1  0  0  0  0
 26 22  2  0  0  0  0
 27 23  1  0  0  0  0
 28 27  2  0  0  0  0
 29 28  1  0  0  0  0
 30 21  1  0  0  0  0
 31 30  1  0  0  0  0
 33 32  2  0  0  0  0
 34 32  1  0  0  0  0
M  END
>  <MODEL>
1

>  <REMARK>
 VINA RESULT:     -11.1      0.000      0.000
  Name = 
  4 active torsions:
  status: ('A' for Active; 'I' for Inactive)
    1  A    between atoms: N_3  and  C_25
    2  A    between atoms: C_7  and  C_11
    3  A    between atoms: C_8  and  C_18
    4  A    between atoms: C_18  and  C_30
                            x       y       z     vdW  Elec       q    Type
                         _______ _______ _______ _____ _____    ______ ____

>  <TORSDO>
F 4

$$$$
=
 OpenBabel10272415273D

 34 39  0  0  1  0  0  0  0  0999 V2000
  186.2900  177.8940  144.2290 C   0  0  0  0  0  0  0  0  0  0  0  0
  182.8020  178.9760  143.5900 C   0  0  0  0  0  3  0  0  0  0  0  0
  184.1070  179.1570  145.4730 N   0  0  0  0  0  0  0  0  0  0  0  0
  188.6150  177.2340  144.6880 C   0  0  0  0  0  0  0  0  0  0  0  0
  187.5320  177.3910  143.7720 C   0  0  0  0  0  3  0  0  0  0  0  0
  187.2270  178.0810  146.4540 C   0  0  0  0  0  0  0  0  0  0  0  0
  186.7930  178.6890  147.6780 N   0  0  0  0  0  0  0  0  0  0  0  0
  188.4760  177.6110  146.0520 C   0  0  0  0  0  3  0  0  0  0  0  0
  185.2220  178.8140  146.1590 C   0  0  0  0  0  0  0  0  0  0  0  0
  186.2240  178.1750  145.5660 C   0  0  0  0  0  0  0  0  0  0  0  0
  185.5960  179.1260  147.5030 N   0  0  0  0  0  0  0  0  0  0  0  0
  182.3630  178.4140  142.2810 C   0  0  0  0  0  2  0  0  0  0  0  0
  183.1330  178.9560  141.1290 C   0  0  0  0  0  0  0  0  0  0  0  0
  184.4470  178.7670  141.0470 C   0  0  0  0  0  3  0  0  0  0  0  0
  184.0120  178.8300  144.1370 C   0  0  0  0  0  0  0  0  0  0  0  0
  185.3220  178.2330  142.1060 C   0  0  0  0  0  3  0  0  0  0  0  0
  185.1620  178.2590  143.4440 C   0  0  0  0  0  0  0  0  0  0  0  0
  182.4300  179.5400  140.0220 N   0  0  0  0  0  0  0  0  0  0  0  0
  181.1820  179.5750  140.0160 O   0  0  0  0  0  0  0  0  0  0  0  0
  183.1220  180.0900  138.9660 O   0  0  0  0  0  0  0  0  0  0  0  0
  189.9140  176.6830  144.2020 C   0  0  0  0  0  2  0  0  0  0  0  0
  192.2000  177.5980  141.4760 C   0  0  0  0  0  3  0  0  0  0  0  0
  189.3150  176.6160  141.8440 C   0  0  0  0  0  3  0  0  0  0  0  0
  192.1400  176.5370  137.9300 C   0  0  2  0  0  3  0  0  0  0  0  0
  192.8780  176.9130  139.2190 C   0  0  0  0  0  2  0  0  0  0  0  0
  191.8530  177.2520  140.2380 C   0  0  0  0  0  0  0  0  0  0  0  0
  189.3970  176.8860  140.3940 C   0  0  0  0  0  3  0  0  0  0  0  0
  190.4900  177.2440  139.7120 C   0  0  0  0  0  0  0  0  0  0  0  0
  190.4640  177.2750  137.9370 S   0  0  0  0  0  0  0  0  0  0  0  0
  190.1540  177.0680  142.7800 C   0  0  0  0  0  0  0  0  0  0  0  0
  191.2130  178.0830  142.4850 C   0  0  0  0  0  2  0  0  0  0  0  0
  192.0650  175.0530  137.7660 C   0  0  0  0  0  0  0  0  0  0  0  0
  193.1150  174.3610  137.6800 O   0  0  0  0  0  0  0  0  0  0  0  0
  190.7940  174.4160  137.7100 N   0  0  0  0  0  1  0  0  0  0  0  0
  1 10  1  0  0  0  0
  2 15  2  0  0  0  0
  3  9  2  0  0  0  0
  4  8  2  0  0  0  0
  5  1  2  0  0  0  0
  5  4  1  0  0  0  0
  6  7  1  0  0  0  0
  8  6  1  0  0  0  0
  9 11  1  0  0  0  0
 10  9  1  0  0  0  0
 10  6  2  0  0  0  0
 11  7  2  0  0  0  0
 12  2  1  0  0  0  0
 13 12  1  0  0  0  0
 14 13  2  0  0  0  0
 14 16  1  0  0  0  0
 15  3  1  0  0  0  0
 16 17  2  0  0  0  0
 17 15  1  0  0  0  0
 17  1  1  0  0  0  0
 18 13  1  0  0  0  0
 19 18  2  0  0  0  0
 20 18  2  0  0  0  0
 21  4  1  0  0  0  0
 22 31  1  0  0  0  0
 23 30  2  0  0  0  0
 24 32  1  1  0  0  0
 24 29  1  0  0  0  0
 24 25  1  0  0  0  0
 25 26  1  0  0  0  0
 26 22  2  0  0  0  0
 27 23  1  0  0  0  0
 28 26  1  0  0  0  0
 28 27  2  0  0  0  0
 29 28  1  0  0  0  0
 30 21  1  0  0  0  0
 31 30  1  0  0  0  0
 33 32  2  0  0  0  0
 34 32  1  0  0  0  0
M  END
>  <MODEL>
2

>  <REMARK>
 VINA RESULT:     -11.0      1.720      1.921
  Name = 
  4 active torsions:
  status: ('A' for Active; 'I' for Inactive)
    1  A    between atoms: N_3  and  C_25
    2  A    between atoms: C_7  and  C_11
    3  A    between atoms: C_8  and  C_18
    4  A    between atoms: C_18  and  C_30
                            x       y       z     vdW  Elec       q    Type
                         _______ _______ _______ _____ _____    ______ ____

>  <TORSDO>
F 4

$$$$
=
 OpenBabel10272415273D

 34 39  0  0  1  0  0  0  0  0999 V2000
  187.0060  178.0270  144.7550 C   0  0  0  0  0  0  0  0  0  0  0  0
  183.5990  178.7570  143.4860 C   0  0  0  0  0  3  0  0  0  0  0  0
  184.5100  179.0280  145.5780 N   0  0  0  0  0  0  0  0  0  0  0  0
  189.2640  177.5990  145.6320 C   0  0  0  0  0  0  0  0  0  0  0  0
  188.3560  177.6660  144.5330 C   0  0  0  0  0  3  0  0  0  0  0  0
  187.4930  178.2570  147.1150 C   0  0  0  0  0  0  0  0  0  0  0  0
  186.7800  178.7880  148.2400 N   0  0  0  0  0  0  0  0  0  0  0  0
  188.8380  177.9270  146.9480 C   0  0  0  0  0  3  0  0  0  0  0  0
  185.5110  178.7860  146.4580 C   0  0  0  0  0  0  0  0  0  0  0  0
  186.6660  178.2680  146.0570 C   0  0  0  0  0  0  0  0  0  0  0  0
  185.5970  179.1030  147.8490 N   0  0  0  0  0  0  0  0  0  0  0  0
  183.4700  178.1840  142.1160 C   0  0  0  0  0  2  0  0  0  0  0  0
  184.3760  178.8300  141.1290 C   0  0  0  0  0  0  0  0  0  0  0  0
  185.6960  178.7790  141.2900 C   0  0  0  0  0  3  0  0  0  0  0  0
  184.6970  178.7240  144.2460 C   0  0  0  0  0  0  0  0  0  0  0  0
  186.4130  178.3140  142.4900 C   0  0  0  0  0  3  0  0  0  0  0  0
  186.0080  178.2920  143.7750 C   0  0  0  0  0  0  0  0  0  0  0  0
  183.8310  179.3640  139.9140 N   0  0  0  0  0  0  0  0  0  0  0  0
  184.4980  180.1580  139.2190 O   0  0  0  0  0  0  0  0  0  0  0  0
  182.5770  178.9890  139.4850 O   0  0  0  0  0  0  0  0  0  0  0  0
  190.6810  177.1970  145.3920 C   0  0  0  0  0  2  0  0  0  0  0  0
  189.7760  175.7930  142.1210 C   0  0  0  0  0  3  0  0  0  0  0  0
  191.5600  178.0090  143.2740 C   0  0  0  0  0  3  0  0  0  0  0  0
  189.8890  177.3970  138.7850 C   0  0  2  0  0  3  0  0  0  0  0  0
  189.2530  176.4590  139.8170 C   0  0  0  0  0  2  0  0  0  0  0  0
  190.0980  176.4980  141.0370 C   0  0  0  0  0  0  0  0  0  0  0  0
  191.8970  178.0200  141.8350 C   0  0  0  0  0  3  0  0  0  0  0  0
  191.3100  177.2960  140.8760 C   0  0  0  0  0  0  0  0  0  0  0  0
  191.6660  177.6240  139.1670 S   0  0  0  0  0  0  0  0  0  0  0  0
  190.9440  177.0250  143.9330 C   0  0  0  0  0  0  0  0  0  0  0  0
  190.6690  175.6910  143.3110 C   0  0  0  0  0  2  0  0  0  0  0  0
  189.1830  178.7140  138.7470 C   0  0  0  0  0  0  0  0  0  0  0  0
  188.6790  179.2040  139.7940 O   0  0  0  0  0  0  0  0  0  0  0  0
  189.0830  179.4220  137.5180 N   0  0  0  0  0  1  0  0  0  0  0  0
  1 10  1  0  0  0  0
  2 15  2  0  0  0  0
  3  9  2  0  0  0  0
  4  8  2  0  0  0  0
  5  1  2  0  0  0  0
  5  4  1  0  0  0  0
  6  7  1  0  0  0  0
  8  6  1  0  0  0  0
  9 11  1  0  0  0  0
 10  9  1  0  0  0  0
 10  6  2  0  0  0  0
 11  7  2  0  0  0  0
 12  2  1  0  0  0  0
 13 14  2  0  0  0  0
 13 12  1  0  0  0  0
 14 16  1  0  0  0  0
 15  3  1  0  0  0  0
 16 17  2  0  0  0  0
 17 15  1  0  0  0  0
 17  1  1  0  0  0  0
 18 13  1  0  0  0  0
 19 18  2  0  0  0  0
 20 18  2  0  0  0  0
 21  4  1  0  0  0  0
 22 31  1  0  0  0  0
 23 30  2  0  0  0  0
 24 32  1  1  0  0  0
 24 29  1  0  0  0  0
 24 25  1  0  0  0  0
 25 26  1  0  0  0  0
 26 22  2  0  0  0  0
 27 23  1  0  0  0  0
 28 26  1  0  0  0  0
 28 27  2  0  0  0  0
 29 28  1  0  0  0  0
 30 21  1  0  0  0  0
 31 30  1  0  0  0  0
 32 33  2  0  0  0  0
 34 32  1  0  0  0  0
M  END
>  <MODEL>
3

>  <REMARK>
 VINA RESULT:     -10.9      1.860      2.496
  Name = 
  4 active torsions:
  status: ('A' for Active; 'I' for Inactive)
    1  A    between atoms: N_3  and  C_25
    2  A    between atoms: C_7  and  C_11
    3  A    between atoms: C_8  and  C_18
    4  A    between atoms: C_18  and  C_30
                            x       y       z     vdW  Elec       q    Type
                         _______ _______ _______ _____ _____    ______ ____

>  <TORSDO>
F 4

$$$$
=
 OpenBabel10272415273D

 34 39  0  0  1  0  0  0  0  0999 V2000
  188.0030  177.9830  144.6210 C   0  0  0  0  0  0  0  0  0  0  0  0
  191.2890  176.9650  143.2380 C   0  0  0  0  0  3  0  0  0  0  0  0
  190.3970  176.6930  145.3380 N   0  0  0  0  0  0  0  0  0  0  0  0
  185.8200  178.6010  145.5720 C   0  0  0  0  0  0  0  0  0  0  0  0
  186.6930  178.4910  144.4490 C   0  0  0  0  0  3  0  0  0  0  0  0
  187.5410  177.6960  146.9800 C   0  0  0  0  0  0  0  0  0  0  0  0
  188.2170  177.0430  148.0630 N   0  0  0  0  0  0  0  0  0  0  0  0
  186.2350  178.1690  146.8620 C   0  0  0  0  0  3  0  0  0  0  0  0
  189.4450  176.9960  146.2520 C   0  0  0  0  0  0  0  0  0  0  0  0
  188.3410  177.6480  145.9030 C   0  0  0  0  0  0  0  0  0  0  0  0
  189.3530  176.6260  147.6300 N   0  0  0  0  0  0  0  0  0  0  0  0
  191.4500  177.5850  141.8920 C   0  0  0  0  0  2  0  0  0  0  0  0
  190.4620  177.0810  140.9000 C   0  0  0  0  0  0  0  0  0  0  0  0
  189.1580  177.2600  141.0960 C   0  0  0  0  0  3  0  0  0  0  0  0
  190.2160  177.0750  144.0260 C   0  0  0  0  0  0  0  0  0  0  0  0
  188.5170  177.7410  142.3330 C   0  0  0  0  0  3  0  0  0  0  0  0
  188.9480  177.6620  143.6070 C   0  0  0  0  0  0  0  0  0  0  0  0
  190.9240  176.5510  139.6490 N   0  0  0  0  0  0  0  0  0  0  0  0
  190.2020  175.7770  138.9870 O   0  0  0  0  0  0  0  0  0  0  0  0
  192.1570  176.9080  139.1510 O   0  0  0  0  0  0  0  0  0  0  0  0
  184.4480  179.1570  145.3850 C   0  0  0  0  0  2  0  0  0  0  0  0
  181.6610  179.0480  142.9950 C   0  0  0  0  0  3  0  0  0  0  0  0
  184.6750  178.4700  143.0620 C   0  0  0  0  0  3  0  0  0  0  0  0
  181.7510  179.2510  139.3000 C   0  0  2  0  0  3  0  0  0  0  0  0
  181.1070  179.5500  140.6580 C   0  0  0  0  0  2  0  0  0  0  0  0
  181.9610  178.9320  141.7030 C   0  0  0  0  0  0  0  0  0  0  0  0
  184.2740  178.0170  141.7140 C   0  0  0  0  0  3  0  0  0  0  0  0
  183.0650  178.1470  141.1580 C   0  0  0  0  0  0  0  0  0  0  0  0
  182.8310  177.7780  139.4360 S   0  0  0  0  0  0  0  0  0  0  0  0
  183.8580  178.6930  144.0950 C   0  0  0  0  0  0  0  0  0  0  0  0
  182.4080  178.3250  144.0650 C   0  0  0  0  0  2  0  0  0  0  0  0
  182.5230  180.4290  138.7990 C   0  0  0  0  0  0  0  0  0  0  0  0
  181.9270  181.4450  138.3500 O   0  0  0  0  0  0  0  0  0  0  0  0
  183.9450  180.4030  138.8330 N   0  0  0  0  0  1  0  0  0  0  0  0
  1 10  1  0  0  0  0
  2 15  2  0  0  0  0
  3  9  2  0  0  0  0
  4  8  2  0  0  0  0
  5  1  2  0  0  0  0
  5  4  1  0  0  0  0
  6  7  1  0  0  0  0
  8  6  1  0  0  0  0
  9 11  1  0  0  0  0
 10  9  1  0  0  0  0
 10  6  2  0  0  0  0
 11  7  2  0  0  0  0
 12  2  1  0  0  0  0
 13 14  2  0  0  0  0
 13 12  1  0  0  0  0
 14 16  1  0  0  0  0
 15  3  1  0  0  0  0
 16 17  2  0  0  0  0
 17 15  1  0  0  0  0
 17  1  1  0  0  0  0
 18 13  1  0  0  0  0
 19 18  2  0  0  0  0
 20 18  2  0  0  0  0
 21  4  1  0  0  0  0
 22 31  1  0  0  0  0
 23 30  2  0  0  0  0
 24 32  1  1  0  0  0
 24 29  1  0  0  0  0
 24 25  1  0  0  0  0
 25 26  1  0  0  0  0
 26 22  2  0  0  0  0
 27 23  1  0  0  0  0
 28 26  1  0  0  0  0
 28 27  2  0  0  0  0
 29 28  1  0  0  0  0
 30 21  1  0  0  0  0
 31 30  1  0  0  0  0
 32 34  1  0  0  0  0
 33 32  2  0  0  0  0
M  END
>  <MODEL>
4

>  <REMARK>
 VINA RESULT:     -10.9      2.614      7.021
  Name = 
  4 active torsions:
  status: ('A' for Active; 'I' for Inactive)
    1  A    between atoms: N_3  and  C_25
    2  A    between atoms: C_7  and  C_11
    3  A    between atoms: C_8  and  C_18
    4  A    between atoms: C_18  and  C_30
                            x       y       z     vdW  Elec       q    Type
                         _______ _______ _______ _____ _____    ______ ____

>  <TORSDO>
F 4

$$$$
=
 OpenBabel10272415273D

 34 39  0  0  1  0  0  0  0  0999 V2000
  186.8710  177.6560  144.8850 C   0  0  0  0  0  0  0  0  0  0  0  0
  183.3570  178.7890  145.2260 C   0  0  0  0  0  3  0  0  0  0  0  0
  185.1280  178.9350  146.6830 N   0  0  0  0  0  0  0  0  0  0  0  0
  189.2220  176.9610  144.6890 C   0  0  0  0  0  0  0  0  0  0  0  0
  187.9330  177.1420  144.1030 C   0  0  0  0  0  3  0  0  0  0  0  0
  188.3810  177.8090  146.7710 C   0  0  0  0  0  0  0  0  0  0  0  0
  188.3060  178.4110  148.0700 N   0  0  0  0  0  0  0  0  0  0  0  0
  189.4660  177.3270  146.0410 C   0  0  0  0  0  3  0  0  0  0  0  0
  186.3830  178.5710  147.0380 C   0  0  0  0  0  0  0  0  0  0  0  0
  187.1760  177.9250  146.1900 C   0  0  0  0  0  0  0  0  0  0  0  0
  187.1140  178.8650  148.2310 N   0  0  0  0  0  0  0  0  0  0  0  0
  182.5700  178.2450  144.0830 C   0  0  0  0  0  2  0  0  0  0  0  0
  183.0050  178.7890  142.7690 C   0  0  0  0  0  0  0  0  0  0  0  0
  184.2440  178.5830  142.3300 C   0  0  0  0  0  3  0  0  0  0  0  0
  184.6680  178.6220  145.4220 C   0  0  0  0  0  0  0  0  0  0  0  0
  185.3670  178.0280  143.1070 C   0  0  0  0  0  3  0  0  0  0  0  0
  185.5770  178.0430  144.4380 C   0  0  0  0  0  0  0  0  0  0  0  0
  182.0360  179.3920  141.8980 N   0  0  0  0  0  0  0  0  0  0  0  0
  182.1470  179.2810  140.6600 O   0  0  0  0  0  0  0  0  0  0  0  0
  180.9600  180.0760  142.4170 O   0  0  0  0  0  0  0  0  0  0  0  0
  190.3320  176.3980  143.8640 C   0  0  0  0  0  2  0  0  0  0  0  0
  191.9790  177.1130  140.6590 C   0  0  0  0  0  3  0  0  0  0  0  0
  189.1390  176.9370  141.8120 C   0  0  0  0  0  3  0  0  0  0  0  0
  190.6380  176.7800  137.2240 C   0  0  2  0  0  3  0  0  0  0  0  0
  191.7720  176.6900  138.2510 C   0  0  0  0  0  2  0  0  0  0  0  0
  191.2220  177.1120  139.5630 C   0  0  0  0  0  0  0  0  0  0  0  0
  188.9150  177.4330  140.4380 C   0  0  0  0  0  3  0  0  0  0  0  0
  189.8430  177.5860  139.4870 C   0  0  0  0  0  0  0  0  0  0  0  0
  189.3570  177.9480  137.8170 S   0  0  0  0  0  0  0  0  0  0  0  0
  190.2970  176.9530  142.4780 C   0  0  0  0  0  0  0  0  0  0  0  0
  191.5090  177.6640  141.9640 C   0  0  0  0  0  2  0  0  0  0  0  0
  190.0450  175.4340  136.9580 C   0  0  0  0  0  0  0  0  0  0  0  0
  189.1420  175.2900  136.0900 O   0  0  0  0  0  0  0  0  0  0  0  0
  190.5060  174.3060  137.6900 N   0  0  0  0  0  1  0  0  0  0  0  0
  1 10  1  0  0  0  0
  2 15  2  0  0  0  0
  3  9  2  0  0  0  0
  4  8  2  0  0  0  0
  5  4  1  0  0  0  0
  5  1  2  0  0  0  0
  6  7  1  0  0  0  0
  7 11  2  0  0  0  0
  8  6  1  0  0  0  0
  9 11  1  0  0  0  0
 10  6  2  0  0  0  0
 10  9  1  0  0  0  0
 12  2  1  0  0  0  0
 13 12  1  0  0  0  0
 14 13  2  0  0  0  0
 14 16  1  0  0  0  0
 15  3  1  0  0  0  0
 16 17  2  0  0  0  0
 17  1  1  0  0  0  0
 17 15  1  0  0  0  0
 18 20  2  0  0  0  0
 18 13  1  0  0  0  0
 19 18  2  0  0  0  0
 21  4  1  0  0  0  0
 22 31  1  0  0  0  0
 23 30  2  0  0  0  0
 24 32  1  1  0  0  0
 24 29  1  0  0  0  0
 24 25  1  0  0  0  0
 25 26  1  0  0  0  0
 26 22  2  0  0  0  0
 27 23  1  0  0  0  0
 28 26  1  0  0  0  0
 28 27  2  0  0  0  0
 29 28  1  0  0  0  0
 30 21  1  0  0  0  0
 31 30  1  0  0  0  0
 32 34  1  0  0  0  0
 33 32  2  0  0  0  0
M  END
>  <MODEL>
5

>  <REMARK>
 VINA RESULT:     -10.8      1.369      1.641
  Name = 
  4 active torsions:
  status: ('A' for Active; 'I' for Inactive)
    1  A    between atoms: N_3  and  C_25
    2  A    between atoms: C_7  and  C_11
    3  A    between atoms: C_8  and  C_18
    4  A    between atoms: C_18  and  C_30
                            x       y       z     vdW  Elec       q    Type
                         _______ _______ _______ _____ _____    ______ ____

>  <TORSDO>
F 4

$$$$
=
 OpenBabel10272415273D

 34 39  0  0  1  0  0  0  0  0999 V2000
  188.2740  177.7560  144.2830 C   0  0  0  0  0  0  0  0  0  0  0  0
  191.6020  177.1520  142.7640 C   0  0  0  0  0  3  0  0  0  0  0  0
  190.8830  176.9340  144.9360 N   0  0  0  0  0  0  0  0  0  0  0  0
  186.0750  178.1020  145.3300 C   0  0  0  0  0  0  0  0  0  0  0  0
  186.8910  178.0310  144.1610 C   0  0  0  0  0  3  0  0  0  0  0  0
  187.9960  177.6150  146.6840 C   0  0  0  0  0  0  0  0  0  0  0  0
  188.8290  177.1800  147.7670 N   0  0  0  0  0  0  0  0  0  0  0  0
  186.6260  177.8620  146.6180 C   0  0  0  0  0  3  0  0  0  0  0  0
  189.9460  177.1640  145.8850 C   0  0  0  0  0  0  0  0  0  0  0  0
  188.7320  177.5970  145.5610 C   0  0  0  0  0  0  0  0  0  0  0  0
  189.9930  176.9110  147.2920 N   0  0  0  0  0  0  0  0  0  0  0  0
  191.5840  177.6630  141.3640 C   0  0  0  0  0  2  0  0  0  0  0  0
  190.6390  176.9210  140.4870 C   0  0  0  0  0  0  0  0  0  0  0  0
  189.3370  176.9070  140.7570 C   0  0  0  0  0  3  0  0  0  0  0  0
  190.5700  177.1610  143.6120 C   0  0  0  0  0  0  0  0  0  0  0  0
  188.6940  177.3900  141.9920 C   0  0  0  0  0  3  0  0  0  0  0  0
  189.2010  177.4980  143.2360 C   0  0  0  0  0  0  0  0  0  0  0  0
  191.1130  176.3590  139.2540 N   0  0  0  0  0  0  0  0  0  0  0  0
  190.5000  175.4140  138.7160 O   0  0  0  0  0  0  0  0  0  0  0  0
  192.2330  176.8690  138.6380 O   0  0  0  0  0  0  0  0  0  0  0  0
  184.6210  178.4130  145.1930 C   0  0  0  0  0  2  0  0  0  0  0  0
  185.6630  179.1640  141.7520 C   0  0  0  0  0  3  0  0  0  0  0  0
  183.0990  178.4820  143.2960 C   0  0  0  0  0  3  0  0  0  0  0  0
  184.0290  178.2240  138.5650 C   0  0  2  0  0  3  0  0  0  0  0  0
  185.2700  178.4800  139.4280 C   0  0  0  0  0  2  0  0  0  0  0  0
  184.8000  178.8950  140.7730 C   0  0  0  0  0  0  0  0  0  0  0  0
  182.6040  178.7850  141.9380 C   0  0  0  0  0  3  0  0  0  0  0  0
  183.3500  179.0460  140.8590 C   0  0  0  0  0  0  0  0  0  0  0  0
  182.5970  179.1350  139.2530 S   0  0  0  0  0  0  0  0  0  0  0  0
  184.2940  178.8130  143.7930 C   0  0  0  0  0  0  0  0  0  0  0  0
  185.2400  179.7200  143.0700 C   0  0  0  0  0  2  0  0  0  0  0  0
  183.7320  176.7620  138.4720 C   0  0  0  0  0  0  0  0  0  0  0  0
  182.9510  176.2100  139.2940 O   0  0  0  0  0  0  0  0  0  0  0  0
  184.3340  175.9870  137.4420 N   0  0  0  0  0  1  0  0  0  0  0  0
  1 10  1  0  0  0  0
  2 15  2  0  0  0  0
  3  9  2  0  0  0  0
  4  8  2  0  0  0  0
  5  1  2  0  0  0  0
  5  4  1  0  0  0  0
  6  7  1  0  0  0  0
  8  6  1  0  0  0  0
  9 11  1  0  0  0  0
 10  9  1  0  0  0  0
 10  6  2  0  0  0  0
 11  7  2  0  0  0  0
 12  2  1  0  0  0  0
 13 14  2  0  0  0  0
 13 12  1  0  0  0  0
 14 16  1  0  0  0  0
 15  3  1  0  0  0  0
 16 17  2  0  0  0  0
 17 15  1  0  0  0  0
 17  1  1  0  0  0  0
 18 13  1  0  0  0  0
 19 18  2  0  0  0  0
 20 18  2  0  0  0  0
 21  4  1  0  0  0  0
 22 31  1  0  0  0  0
 23 30  2  0  0  0  0
 24 32  1  1  0  0  0
 24 29  1  0  0  0  0
 24 25  1  0  0  0  0
 25 26  1  0  0  0  0
 26 28  1  0  0  0  0
 26 22  2  0  0  0  0
 27 23  1  0  0  0  0
 28 27  2  0  0  0  0
 29 28  1  0  0  0  0
 30 21  1  0  0  0  0
 31 30  1  0  0  0  0
 32 33  2  0  0  0  0
 34 32  1  0  0  0  0
M  END
>  <MODEL>
6

>  <REMARK>
 VINA RESULT:     -10.7      2.765      6.410
  Name = 
  4 active torsions:
  status: ('A' for Active; 'I' for Inactive)
    1  A    between atoms: N_3  and  C_25
    2  A    between atoms: C_7  and  C_11
    3  A    between atoms: C_8  and  C_18
    4  A    between atoms: C_18  and  C_30
                            x       y       z     vdW  Elec       q    Type
                         _______ _______ _______ _____ _____    ______ ____

>  <TORSDO>
F 4

$$$$
=
 OpenBabel10272415273D

 34 39  0  0  1  0  0  0  0  0999 V2000
  187.4040  178.0520  142.6180 C   0  0  0  0  0  0  0  0  0  0  0  0
  191.0000  177.2140  142.2830 C   0  0  0  0  0  3  0  0  0  0  0  0
  189.6080  177.1430  144.1100 N   0  0  0  0  0  0  0  0  0  0  0  0
  185.0100  178.5550  142.8800 C   0  0  0  0  0  0  0  0  0  0  0  0
  186.1540  178.3850  142.0430 C   0  0  0  0  0  3  0  0  0  0  0  0
  186.3590  178.0490  144.8020 C   0  0  0  0  0  0  0  0  0  0  0  0
  186.7690  177.6320  146.1110 N   0  0  0  0  0  0  0  0  0  0  0  0
  185.1010  178.3560  144.2850 C   0  0  0  0  0  3  0  0  0  0  0  0
  188.4300  177.4660  144.6950 C   0  0  0  0  0  0  0  0  0  0  0  0
  187.4150  177.9390  143.9800 C   0  0  0  0  0  0  0  0  0  0  0  0
  188.0050  177.2850  146.0480 N   0  0  0  0  0  0  0  0  0  0  0  0
  191.4660  177.6520  140.9370 C   0  0  0  0  0  2  0  0  0  0  0  0
  190.8110  176.9100  139.8260 C   0  0  0  0  0  0  0  0  0  0  0  0
  189.4930  176.9720  139.6590 C   0  0  0  0  0  3  0  0  0  0  0  0
  189.7530  177.3160  142.7500 C   0  0  0  0  0  0  0  0  0  0  0  0
  188.5170  177.5490  140.6010 C   0  0  0  0  0  3  0  0  0  0  0  0
  188.6020  177.6970  141.9380 C   0  0  0  0  0  0  0  0  0  0  0  0
  191.6220  176.2640  138.8340 N   0  0  0  0  0  0  0  0  0  0  0  0
  192.6970  176.7800  138.4650 O   0  0  0  0  0  0  0  0  0  0  0  0
  191.2390  175.0560  138.2960 O   0  0  0  0  0  0  0  0  0  0  0  0
  183.7010  178.9270  142.2690 C   0  0  0  0  0  2  0  0  0  0  0  0
  185.0220  178.9540  138.8420 C   0  0  0  0  0  3  0  0  0  0  0  0
  183.1220  177.2780  140.5750 C   0  0  0  0  0  3  0  0  0  0  0  0
  185.3740  176.1430  136.4570 C   0  0  2  0  0  3  0  0  0  0  0  0
  185.8560  177.4550  137.0870 C   0  0  0  0  0  2  0  0  0  0  0  0
  184.8560  177.8550  138.1080 C   0  0  0  0  0  0  0  0  0  0  0  0
  182.9820  176.6690  139.2360 C   0  0  0  0  0  3  0  0  0  0  0  0
  183.6840  176.9840  138.1420 C   0  0  0  0  0  0  0  0  0  0  0  0
  183.5640  175.9750  136.6850 S   0  0  0  0  0  0  0  0  0  0  0  0
  183.6340  178.4810  140.8450 C   0  0  0  0  0  0  0  0  0  0  0  0
  183.9750  179.4680  139.7730 C   0  0  0  0  0  2  0  0  0  0  0  0
  186.0930  174.9700  137.0420 C   0  0  0  0  0  0  0  0  0  0  0  0
  187.3220  175.0380  137.3130 O   0  0  0  0  0  0  0  0  0  0  0  0
  185.3800  173.7650  137.2960 N   0  0  0  0  0  1  0  0  0  0  0  0
  1 10  1  0  0  0  0
  2 15  2  0  0  0  0
  3  9  2  0  0  0  0
  4  8  2  0  0  0  0
  5  1  2  0  0  0  0
  5  4  1  0  0  0  0
  6  7  1  0  0  0  0
  8  6  1  0  0  0  0
  9 11  1  0  0  0  0
 10  9  1  0  0  0  0
 10  6  2  0  0  0  0
 11  7  2  0  0  0  0
 12  2  1  0  0  0  0
 13 12  1  0  0  0  0
 14 13  2  0  0  0  0
 14 16  1  0  0  0  0
 15  3  1  0  0  0  0
 16 17  2  0  0  0  0
 17  1  1  0  0  0  0
 17 15  1  0  0  0  0
 18 13  1  0  0  0  0
 19 18  2  0  0  0  0
 20 18  2  0  0  0  0
 21  4  1  0  0  0  0
 22 31  1  0  0  0  0
 23 30  2  0  0  0  0
 24 29  1  0  0  0  0
 24 32  1  1  0  0  0
 24 25  1  0  0  0  0
 25 26  1  0  0  0  0
 26 28  1  0  0  0  0
 26 22  2  0  0  0  0
 27 23  1  0  0  0  0
 28 27  2  0  0  0  0
 29 28  1  0  0  0  0
 30 21  1  0  0  0  0
 31 30  1  0  0  0  0
 32 34  1  0  0  0  0
 32 33  2  0  0  0  0
M  END
>  <MODEL>
7

>  <REMARK>
 VINA RESULT:     -10.5      3.158      6.217
  Name = 
  4 active torsions:
  status: ('A' for Active; 'I' for Inactive)
    1  A    between atoms: N_3  and  C_25
    2  A    between atoms: C_7  and  C_11
    3  A    between atoms: C_8  and  C_18
    4  A    between atoms: C_18  and  C_30
                            x       y       z     vdW  Elec       q    Type
                         _______ _______ _______ _____ _____    ______ ____

>  <TORSDO>
F 4

$$$$
=
 OpenBabel10272415273D

 34 39  0  0  1  0  0  0  0  0999 V2000
  186.5990  178.0580  144.0790 C   0  0  0  0  0  0  0  0  0  0  0  0
  189.1780  177.5470  146.6930 C   0  0  0  0  0  3  0  0  0  0  0  0
  186.9230  177.9540  146.8700 N   0  0  0  0  0  0  0  0  0  0  0  0
  184.8450  178.3610  142.3810 C   0  0  0  0  0  0  0  0  0  0  0  0
  186.1920  178.0390  142.7230 C   0  0  0  0  0  3  0  0  0  0  0  0
  184.3470  178.6880  144.7070 C   0  0  0  0  0  0  0  0  0  0  0  0
  183.6430  178.7890  145.9520 N   0  0  0  0  0  0  0  0  0  0  0  0
  183.8900  178.6640  143.3900 C   0  0  0  0  0  3  0  0  0  0  0  0
  185.7550  178.3290  146.2980 C   0  0  0  0  0  0  0  0  0  0  0  0
  185.6340  178.4180  144.9780 C   0  0  0  0  0  0  0  0  0  0  0  0
  184.4820  178.5750  146.9020 N   0  0  0  0  0  0  0  0  0  0  0  0
  190.5190  177.5480  146.0430 C   0  0  0  0  0  2  0  0  0  0  0  0
  190.7120  176.4060  145.1080 C   0  0  0  0  0  0  0  0  0  0  0  0
  189.9260  176.2650  144.0440 C   0  0  0  0  0  3  0  0  0  0  0  0
  188.0050  177.6680  146.0650 C   0  0  0  0  0  0  0  0  0  0  0  0
  188.6920  177.0200  143.7610 C   0  0  0  0  0  3  0  0  0  0  0  0
  187.8420  177.6230  144.6160 C   0  0  0  0  0  0  0  0  0  0  0  0
  191.8530  175.5510  145.2640 N   0  0  0  0  0  0  0  0  0  0  0  0
  192.3890  175.4130  146.3840 O   0  0  0  0  0  0  0  0  0  0  0  0
  192.3570  174.8530  144.1900 O   0  0  0  0  0  0  0  0  0  0  0  0
  184.4300  178.3590  140.9470 C   0  0  0  0  0  2  0  0  0  0  0  0
  188.0640  178.3220  140.4160 C   0  0  0  0  0  3  0  0  0  0  0  0
  185.4830  178.1980  138.7590 C   0  0  0  0  0  3  0  0  0  0  0  0
  189.9900  176.9350  137.5740 C   0  0  2  0  0  3  0  0  0  0  0  0
  189.8030  177.2380  139.0650 C   0  0  0  0  0  2  0  0  0  0  0  0
  188.5090  177.9490  139.2170 C   0  0  0  0  0  0  0  0  0  0  0  0
  186.5400  178.2750  137.7300 C   0  0  0  0  0  3  0  0  0  0  0  0
  187.8610  178.2500  137.9430 C   0  0  0  0  0  0  0  0  0  0  0  0
  188.9820  178.0930  136.5750 S   0  0  0  0  0  0  0  0  0  0  0  0
  185.6150  178.5070  140.0520 C   0  0  0  0  0  0  0  0  0  0  0  0
  186.8450  179.1620  140.5980 C   0  0  0  0  0  2  0  0  0  0  0  0
  189.6320  175.5170  137.2640 C   0  0  0  0  0  0  0  0  0  0  0  0
  188.5950  175.2460  136.6010 O   0  0  0  0  0  0  0  0  0  0  0  0
  190.4720  174.4640  137.7210 N   0  0  0  0  0  1  0  0  0  0  0  0
  1 17  1  0  0  0  0
  1 10  1  0  0  0  0
  4  5  1  0  0  0  0
  4  8  2  0  0  0  0
  5  1  2  0  0  0  0
  6 10  2  0  0  0  0
  6  7  1  0  0  0  0
  7 11  2  0  0  0  0
  8  6  1  0  0  0  0
  9  3  2  0  0  0  0
  9 11  1  0  0  0  0
 10  9  1  0  0  0  0
 12  2  1  0  0  0  0
 13 18  1  0  0  0  0
 13 12  1  0  0  0  0
 14 13  2  0  0  0  0
 15  2  2  0  0  0  0
 15  3  1  0  0  0  0
 16 14  1  0  0  0  0
 16 17  2  0  0  0  0
 17 15  1  0  0  0  0
 18 19  2  0  0  0  0
 20 18  2  0  0  0  0
 21  4  1  0  0  0  0
 22 31  1  0  0  0  0
 23 30  2  0  0  0  0
 24 32  1  1  0  0  0
 24 25  1  0  0  0  0
 25 26  1  0  0  0  0
 26 22  2  0  0  0  0
 27 28  2  0  0  0  0
 27 23  1  0  0  0  0
 28 26  1  0  0  0  0
 29 24  1  0  0  0  0
 29 28  1  0  0  0  0
 30 31  1  0  0  0  0
 30 21  1  0  0  0  0
 32 34  1  0  0  0  0
 33 32  2  0  0  0  0
M  END
>  <MODEL>
8

>  <REMARK>
 VINA RESULT:     -10.3      3.019      5.722
  Name = 
  4 active torsions:
  status: ('A' for Active; 'I' for Inactive)
    1  A    between atoms: N_3  and  C_25
    2  A    between atoms: C_7  and  C_11
    3  A    between atoms: C_8  and  C_18
    4  A    between atoms: C_18  and  C_30
                            x       y       z     vdW  Elec       q    Type
                         _______ _______ _______ _____ _____    ______ ____

>  <TORSDO>
F 4

$$$$
=
 OpenBabel10272415273D

 34 39  0  0  1  0  0  0  0  0999 V2000
  184.7270  178.4970  142.1840 C   0  0  0  0  0  0  0  0  0  0  0  0
  185.3050  178.3180  138.5260 C   0  0  0  0  0  3  0  0  0  0  0  0
  183.4420  178.9360  139.7210 N   0  0  0  0  0  0  0  0  0  0  0  0
  184.3080  178.6740  144.6020 C   0  0  0  0  0  0  0  0  0  0  0  0
  185.2060  178.4510  143.5150 C   0  0  0  0  0  3  0  0  0  0  0  0
  182.5160  178.9940  143.0370 C   0  0  0  0  0  0  0  0  0  0  0  0
  181.2820  179.4160  142.4410 N   0  0  0  0  0  0  0  0  0  0  0  0
  182.9400  178.9800  144.3650 C   0  0  0  0  0  3  0  0  0  0  0  0
  182.7750  178.9950  140.8980 C   0  0  0  0  0  0  0  0  0  0  0  0
  183.3880  178.7390  142.0480 C   0  0  0  0  0  0  0  0  0  0  0  0
  181.4350  179.4170  141.1650 N   0  0  0  0  0  0  0  0  0  0  0  0
  186.6100  177.6390  138.2850 C   0  0  0  0  0  2  0  0  0  0  0  0
  187.7710  178.4130  138.8030 C   0  0  0  0  0  0  0  0  0  0  0  0
  187.8750  178.6860  140.1010 C   0  0  0  0  0  3  0  0  0  0  0  0
  184.7780  178.5960  139.7220 C   0  0  0  0  0  0  0  0  0  0  0  0
  186.8330  178.4840  141.1240 C   0  0  0  0  0  3  0  0  0  0  0  0
  185.4920  178.4540  140.9860 C   0  0  0  0  0  0  0  0  0  0  0  0
  188.8630  178.7200  137.9250 N   0  0  0  0  0  0  0  0  0  0  0  0
  188.9300  179.8360  137.3690 O   0  0  0  0  0  0  0  0  0  0  0  0
  189.8640  177.8010  137.7040 O   0  0  0  0  0  0  0  0  0  0  0  0
  184.8180  178.6020  146.0030 C   0  0  0  0  0  2  0  0  0  0  0  0
  187.5040  176.6820  144.3930 C   0  0  0  0  0  3  0  0  0  0  0  0
  187.1080  178.5180  146.8220 C   0  0  0  0  0  3  0  0  0  0  0  0
  191.1650  177.2120  144.5520 C   0  0  2  0  0  3  0  0  0  0  0  0
  189.8840  176.8160  143.8100 C   0  0  0  0  0  2  0  0  0  0  0  0
  188.7560  176.9400  144.7670 C   0  0  0  0  0  0  0  0  0  0  0  0
  188.4960  178.0390  146.9840 C   0  0  0  0  0  3  0  0  0  0  0  0
  189.1820  177.2810  146.1210 C   0  0  0  0  0  0  0  0  0  0  0  0
  190.9220  177.0140  146.3570 S   0  0  0  0  0  0  0  0  0  0  0  0
  186.1700  177.9700  146.0440 C   0  0  0  0  0  0  0  0  0  0  0  0
  186.3640  176.6550  145.3560 C   0  0  0  0  0  2  0  0  0  0  0  0
  191.5650  178.6140  144.2220 C   0  0  0  0  0  0  0  0  0  0  0  0
  192.7300  179.0260  144.4710 O   0  0  0  0  0  0  0  0  0  0  0  0
  190.6220  179.4910  143.6190 N   0  0  0  0  0  1  0  0  0  0  0  0
  1  5  1  0  0  0  0
  2 15  2  0  0  0  0
  3 15  1  0  0  0  0
  3  9  2  0  0  0  0
  4 21  1  0  0  0  0
  5  4  2  0  0  0  0
  6  8  2  0  0  0  0
  7  6  1  0  0  0  0
  8  4  1  0  0  0  0
  9 11  1  0  0  0  0
  9 10  1  0  0  0  0
 10  1  2  0  0  0  0
 10  6  1  0  0  0  0
 11  7  2  0  0  0  0
 12  2  1  0  0  0  0
 12 13  1  0  0  0  0
 13 14  2  0  0  0  0
 14 16  1  0  0  0  0
 15 17  1  0  0  0  0
 17 16  2  0  0  0  0
 17  1  1  0  0  0  0
 18 13  1  0  0  0  0
 19 18  2  0  0  0  0
 20 18  2  0  0  0  0
 21 30  1  0  0  0  0
 22 26  2  0  0  0  0
 22 31  1  0  0  0  0
 23 27  1  0  0  0  0
 24 32  1  1  0  0  0
 24 29  1  0  0  0  0
 25 24  1  0  0  0  0
 25 26  1  0  0  0  0
 26 28  1  0  0  0  0
 28 29  1  0  0  0  0
 28 27  2  0  0  0  0
 30 23  2  0  0  0  0
 31 30  1  0  0  0  0
 32 33  2  0  0  0  0
 34 32  1  0  0  0  0
M  END
>  <MODEL>
9

>  <REMARK>
 VINA RESULT:     -10.2      3.502      6.466
  Name = 
  4 active torsions:
  status: ('A' for Active; 'I' for Inactive)
    1  A    between atoms: N_3  and  C_25
    2  A    between atoms: C_7  and  C_11
    3  A    between atoms: C_8  and  C_18
    4  A    between atoms: C_18  and  C_30
                            x       y       z     vdW  Elec       q    Type
                         _______ _______ _______ _____ _____    ______ ____

>  <TORSDO>
F 4

$$$$
