=
 OpenBabel10272400543D

 25 28  0  0  1  0  0  0  0  0999 V2000
  187.1210  178.1660  142.2120 C   0  0  0  0  0  0  0  0  0  0  0  0
  188.1840  178.0000  141.3120 C   0  0  0  0  0  0  0  0  0  0  0  0
  185.7010  178.9170  140.4470 N   0  0  0  0  0  0  0  0  0  0  0  0
  187.0970  177.9370  143.5980 C   0  0  0  0  0  0  0  0  0  0  0  0
  190.7110  177.5810  141.0540 C   0  0  2  0  0  3  0  0  0  0  0  0
  186.6640  177.6040  146.3390 C   0  0  0  0  0  3  0  0  0  0  0  0
  186.6950  178.7510  139.5720 N   0  0  0  0  0  0  0  0  0  0  0  0
  185.8560  178.2250  144.1680 C   0  0  0  0  0  0  0  0  0  0  0  0
  185.6160  178.0670  145.5320 C   0  0  0  0  0  3  0  0  0  0  0  0
  188.9950  178.1000  138.8820 C   0  0  2  0  0  3  0  0  0  0  0  0
  188.4810  178.3610  137.4740 C   0  0  0  0  0  1  0  0  0  0  0  0
  189.4550  177.5320  141.7930 N   0  0  0  0  0  2  0  0  0  0  0  0
  187.9200  177.3100  145.7780 C   0  0  0  0  0  3  0  0  0  0  0  0
  185.9010  178.6260  141.7500 C   0  0  0  0  0  0  0  0  0  0  0  0
  184.7730  178.7650  142.9930 S   0  0  0  0  0  0  0  0  0  0  0  0
  189.5440  176.6820  138.9550 C   0  0  0  0  0  2  0  0  0  0  0  0
  188.1430  177.4750  144.4020 C   0  0  0  0  0  3  0  0  0  0  0  0
  190.7410  176.5760  139.8990 C   0  0  0  0  0  2  0  0  0  0  0  0
  187.9340  178.2950  139.9410 C   0  0  0  0  0  0  0  0  0  0  0  0
  191.8990  177.3840  141.9960 C   0  0  0  0  0  2  0  0  0  0  0  0
  191.5390  176.6030  144.3680 C   0  0  0  0  0  0  0  0  0  0  0  0
  191.1980  176.8740  145.6520 F   0  0  0  0  0  0  0  0  0  0  0  0
  191.8590  175.4270  144.0510 O   0  0  0  0  0  0  0  0  0  0  0  0
  191.3660  179.0270  143.8100 C   0  0  0  0  0  1  0  0  0  0  0  0
  191.5450  177.6490  143.3870 N   0  0  0  0  0  0  0  0  0  0  0  0
  1  4  1  0  0  0  0
  2 12  1  0  0  0  0
  2  1  1  0  0  0  0
  3 14  1  0  0  0  0
  4  8  2  0  0  0  0
  4 17  1  0  0  0  0
  5 12  1  0  0  0  0
  5 20  1  1  0  0  0
  7 19  1  0  0  0  0
  7  3  2  0  0  0  0
  8  9  1  0  0  0  0
  9  6  2  0  0  0  0
 10 11  1  6  0  0  0
 10 16  1  0  0  0  0
 10 19  1  0  0  0  0
 13  6  1  0  0  0  0
 14  1  2  0  0  0  0
 14 15  1  0  0  0  0
 15  8  1  0  0  0  0
 16 18  1  0  0  0  0
 17 13  2  0  0  0  0
 18  5  1  0  0  0  0
 19  2  2  0  0  0  0
 20 25  1  0  0  0  0
 21 22  1  0  0  0  0
 23 21  2  0  0  0  0
 25 24  1  0  0  0  0
 25 21  1  0  0  0  0
M  END
>  <MODEL>
1

>  <REMARK>
 VINA RESULT:      -9.8      0.000      0.000
  Name = 
  2 active torsions:
  status: ('A' for Active; 'I' for Inactive)
    1  A    between atoms: C_6  and  C_15
    2  A    between atoms: C_15  and  N_25
                            x       y       z     vdW  Elec       q    Type
                         _______ _______ _______ _____ _____    ______ ____

>  <TORSDO>
F 2

$$$$
=
 OpenBabel10272400543D

 25 28  0  0  1  0  0  0  0  0999 V2000
  187.0310  177.9090  145.1940 C   0  0  0  0  0  0  0  0  0  0  0  0
  188.2640  177.5210  144.6480 C   0  0  0  0  0  0  0  0  0  0  0  0
  187.9150  177.7240  147.4040 N   0  0  0  0  0  0  0  0  0  0  0  0
  185.8370  178.2330  144.5290 C   0  0  0  0  0  0  0  0  0  0  0  0
  189.5110  176.7640  142.5260 C   0  0  2  0  0  3  0  0  0  0  0  0
  183.3060  178.9350  143.5740 C   0  0  0  0  0  3  0  0  0  0  0  0
  189.1000  177.3670  146.9040 N   0  0  0  0  0  0  0  0  0  0  0  0
  184.8060  178.5650  145.4080 C   0  0  0  0  0  0  0  0  0  0  0  0
  183.5360  178.9180  144.9570 C   0  0  0  0  0  3  0  0  0  0  0  0
  190.7110  176.8850  145.0710 C   0  0  2  0  0  3  0  0  0  0  0  0
  191.7240  176.7670  146.2000 C   0  0  0  0  0  1  0  0  0  0  0  0
  188.4090  177.4180  143.2220 N   0  0  0  0  0  2  0  0  0  0  0  0
  184.3360  178.6020  142.6760 C   0  0  0  0  0  3  0  0  0  0  0  0
  186.8910  177.9980  146.5680 C   0  0  0  0  0  0  0  0  0  0  0  0
  185.3340  178.4670  147.0080 S   0  0  0  0  0  0  0  0  0  0  0  0
  191.2050  177.9180  144.0680 C   0  0  0  0  0  2  0  0  0  0  0  0
  185.6090  178.2490  143.1490 C   0  0  0  0  0  3  0  0  0  0  0  0
  190.8140  177.5600  142.6350 C   0  0  0  0  0  2  0  0  0  0  0  0
  189.3290  177.2590  145.5570 C   0  0  0  0  0  0  0  0  0  0  0  0
  189.1420  176.4920  141.0680 C   0  0  0  0  0  2  0  0  0  0  0  0
  189.6690  178.0570  139.1610 C   0  0  0  0  0  0  0  0  0  0  0  0
  189.4300  179.2120  138.4930 F   0  0  0  0  0  0  0  0  0  0  0  0
  190.5660  177.2780  138.7420 O   0  0  0  0  0  0  0  0  0  0  0  0
  187.7460  178.5350  140.6750 C   0  0  0  0  0  1  0  0  0  0  0  0
  188.9000  177.7240  140.3250 N   0  0  0  0  0  0  0  0  0  0  0  0
  1 14  1  0  0  0  0
  2  1  2  0  0  0  0
  2 19  1  0  0  0  0
  4  1  1  0  0  0  0
  4  8  1  0  0  0  0
  5 20  1  6  0  0  0
  5 18  1  0  0  0  0
  5 12  1  0  0  0  0
  6  9  1  0  0  0  0
  7  3  1  0  0  0  0
  8 15  1  0  0  0  0
  9  8  2  0  0  0  0
 10 19  1  0  0  0  0
 10 11  1  1  0  0  0
 12  2  1  0  0  0  0
 13 17  1  0  0  0  0
 13  6  2  0  0  0  0
 14 15  1  0  0  0  0
 14  3  2  0  0  0  0
 16 10  1  0  0  0  0
 17  4  2  0  0  0  0
 18 16  1  0  0  0  0
 19  7  2  0  0  0  0
 21 25  1  0  0  0  0
 22 21  1  0  0  0  0
 23 21  2  0  0  0  0
 25 24  1  0  0  0  0
 25 20  1  0  0  0  0
M  END
>  <MODEL>
2

>  <REMARK>
 VINA RESULT:      -9.5      2.838      5.017
  Name = 
  2 active torsions:
  status: ('A' for Active; 'I' for Inactive)
    1  A    between atoms: C_6  and  C_15
    2  A    between atoms: C_15  and  N_25
                            x       y       z     vdW  Elec       q    Type
                         _______ _______ _______ _____ _____    ______ ____

>  <TORSDO>
F 2

$$$$
=
 OpenBabel10272400543D

 25 28  0  0  1  0  0  0  0  0999 V2000
  186.6740  178.3420  142.5260 C   0  0  0  0  0  0  0  0  0  0  0  0
  188.0330  178.0530  142.7220 C   0  0  0  0  0  0  0  0  0  0  0  0
  186.9830  178.3470  140.1590 N   0  0  0  0  0  0  0  0  0  0  0  0
  185.6680  178.5320  143.4870 C   0  0  0  0  0  0  0  0  0  0  0  0
  189.9550  177.9040  144.4290 C   0  0  2  0  0  3  0  0  0  0  0  0
  183.4180  178.9730  145.0850 C   0  0  0  0  0  3  0  0  0  0  0  0
  188.2760  178.0580  140.3240 N   0  0  0  0  0  0  0  0  0  0  0  0
  184.4260  178.8140  142.9160 C   0  0  0  0  0  0  0  0  0  0  0  0
  183.2900  179.0380  143.6910 C   0  0  0  0  0  3  0  0  0  0  0  0
  190.3070  177.5320  141.6600 C   0  0  2  0  0  3  0  0  0  0  0  0
  190.9520  177.2960  140.3020 C   0  0  0  0  0  1  0  0  0  0  0  0
  188.5450  177.9160  144.0580 N   0  0  0  0  0  2  0  0  0  0  0  0
  184.6630  178.6900  145.6760 C   0  0  0  0  0  3  0  0  0  0  0  0
  186.1860  178.4840  141.2400 C   0  0  0  0  0  0  0  0  0  0  0  0
  184.5390  178.8390  141.2320 S   0  0  0  0  0  0  0  0  0  0  0  0
  190.4750  176.2820  142.5120 C   0  0  0  0  0  2  0  0  0  0  0  0
  185.7960  178.4670  144.8780 C   0  0  0  0  0  3  0  0  0  0  0  0
  190.6560  176.6150  143.9920 C   0  0  0  0  0  2  0  0  0  0  0  0
  188.8430  177.8950  141.5610 C   0  0  0  0  0  0  0  0  0  0  0  0
  190.1200  178.1490  145.9280 C   0  0  0  0  0  2  0  0  0  0  0  0
  191.1750  176.2020  147.1380 C   0  0  0  0  0  0  0  0  0  0  0  0
  191.0460  175.0540  147.8470 F   0  0  0  0  0  0  0  0  0  0  0  0
  192.3280  176.6390  146.8780 O   0  0  0  0  0  0  0  0  0  0  0  0
  188.7010  176.5040  147.1760 C   0  0  0  0  0  1  0  0  0  0  0  0
  190.0110  176.9150  146.7000 N   0  0  0  0  0  0  0  0  0  0  0  0
  1  2  1  0  0  0  0
  1  4  1  0  0  0  0
  2 12  1  0  0  0  0
  3  7  2  0  0  0  0
  3 14  1  0  0  0  0
  4 17  1  0  0  0  0
  5 20  1  1  0  0  0
  6 13  1  0  0  0  0
  7 19  1  0  0  0  0
  8  4  2  0  0  0  0
  8  9  1  0  0  0  0
  9  6  2  0  0  0  0
 10 11  1  6  0  0  0
 10 16  1  0  0  0  0
 12  5  1  0  0  0  0
 14  1  2  0  0  0  0
 15 14  1  0  0  0  0
 15  8  1  0  0  0  0
 16 18  1  0  0  0  0
 17 13  2  0  0  0  0
 18  5  1  0  0  0  0
 19 10  1  0  0  0  0
 19  2  2  0  0  0  0
 20 25  1  0  0  0  0
 21 22  1  0  0  0  0
 23 21  2  0  0  0  0
 25 21  1  0  0  0  0
 25 24  1  0  0  0  0
M  END
>  <MODEL>
3

>  <REMARK>
 VINA RESULT:      -9.0      1.925      2.978
  Name = 
  2 active torsions:
  status: ('A' for Active; 'I' for Inactive)
    1  A    between atoms: C_6  and  C_15
    2  A    between atoms: C_15  and  N_25
                            x       y       z     vdW  Elec       q    Type
                         _______ _______ _______ _____ _____    ______ ____

>  <TORSDO>
F 2

$$$$
=
 OpenBabel10272400543D

 25 28  0  0  1  0  0  0  0  0999 V2000
  185.1320  178.3400  144.4150 C   0  0  0  0  0  0  0  0  0  0  0  0
  186.4010  177.9250  144.8440 C   0  0  0  0  0  0  0  0  0  0  0  0
  184.4820  178.7890  146.6680 N   0  0  0  0  0  0  0  0  0  0  0  0
  184.6170  178.3890  143.1090 C   0  0  0  0  0  0  0  0  0  0  0  0
  188.5990  176.7580  144.1800 C   0  0  2  0  0  3  0  0  0  0  0  0
  183.2520  178.6250  140.6820 C   0  0  0  0  0  3  0  0  0  0  0  0
  185.6890  178.4130  147.0950 N   0  0  0  0  0  0  0  0  0  0  0  0
  183.3010  178.8500  143.0680 C   0  0  0  0  0  0  0  0  0  0  0  0
  182.5990  178.9760  141.8710 C   0  0  0  0  0  3  0  0  0  0  0  0
  188.0260  177.6130  146.8020 C   0  0  2  0  0  3  0  0  0  0  0  0
  188.1370  177.8640  148.2990 C   0  0  0  0  0  1  0  0  0  0  0  0
  187.3670  177.4770  143.8780 N   0  0  0  0  0  2  0  0  0  0  0  0
  184.5790  178.1590  140.7070 C   0  0  0  0  0  3  0  0  0  0  0  0
  184.2010  178.7610  145.3480 C   0  0  0  0  0  0  0  0  0  0  0  0
  182.7450  179.2010  144.6220 S   0  0  0  0  0  0  0  0  0  0  0  0
  189.1190  178.3940  146.0860 C   0  0  0  0  0  2  0  0  0  0  0  0
  185.2700  178.0380  141.9240 C   0  0  0  0  0  3  0  0  0  0  0  0
  189.6400  177.6560  144.8540 C   0  0  0  0  0  2  0  0  0  0  0  0
  186.6730  177.9860  146.2410 C   0  0  0  0  0  0  0  0  0  0  0  0
  189.1610  176.0980  142.9220 C   0  0  0  0  0  2  0  0  0  0  0  0
  191.3190  177.1500  142.1470 C   0  0  0  0  0  0  0  0  0  0  0  0
  191.9720  178.0450  141.3650 F   0  0  0  0  0  0  0  0  0  0  0  0
  191.9820  176.4080  142.9180 O   0  0  0  0  0  0  0  0  0  0  0  0
  189.1650  177.7680  141.0540 C   0  0  0  0  0  1  0  0  0  0  0  0
  189.8900  177.0460  142.0850 N   0  0  0  0  0  0  0  0  0  0  0  0
  1  2  2  0  0  0  0
  1 14  1  0  0  0  0
  2 19  1  0  0  0  0
  3  7  1  0  0  0  0
  4  1  1  0  0  0  0
  5 20  1  6  0  0  0
  5 18  1  0  0  0  0
  6 13  2  0  0  0  0
  6  9  1  0  0  0  0
  8  4  1  0  0  0  0
  8 15  1  0  0  0  0
  9  8  2  0  0  0  0
 10 11  1  1  0  0  0
 12  5  1  0  0  0  0
 12  2  1  0  0  0  0
 13 17  1  0  0  0  0
 14  3  2  0  0  0  0
 15 14  1  0  0  0  0
 16 10  1  0  0  0  0
 17  4  2  0  0  0  0
 18 16  1  0  0  0  0
 19 10  1  0  0  0  0
 19  7  2  0  0  0  0
 21 23  2  0  0  0  0
 22 21  1  0  0  0  0
 24 25  1  0  0  0  0
 25 21  1  0  0  0  0
 25 20  1  0  0  0  0
M  END
>  <MODEL>
4

>  <REMARK>
 VINA RESULT:      -9.0      2.682      5.155
  Name = 
  2 active torsions:
  status: ('A' for Active; 'I' for Inactive)
    1  A    between atoms: C_6  and  C_15
    2  A    between atoms: C_15  and  N_25
                            x       y       z     vdW  Elec       q    Type
                         _______ _______ _______ _____ _____    ______ ____

>  <TORSDO>
F 2

$$$$
=
 OpenBabel10272400543D

 25 28  0  0  1  0  0  0  0  0999 V2000
  187.6830  177.8730  145.7400 C   0  0  0  0  0  0  0  0  0  0  0  0
  186.9460  178.2810  144.6180 C   0  0  0  0  0  0  0  0  0  0  0  0
  185.8110  178.2880  147.1610 N   0  0  0  0  0  0  0  0  0  0  0  0
  189.0160  177.4320  145.8040 C   0  0  0  0  0  0  0  0  0  0  0  0
  187.0380  178.9240  142.1260 C   0  0  2  0  0  3  0  0  0  0  0  0
  191.6040  176.5190  146.3320 C   0  0  0  0  0  3  0  0  0  0  0  0
  185.0870  178.6640  146.1040 N   0  0  0  0  0  0  0  0  0  0  0  0
  189.4140  177.1190  147.1040 C   0  0  0  0  0  0  0  0  0  0  0  0
  190.6990  176.6630  147.3930 C   0  0  0  0  0  3  0  0  0  0  0  0
  184.6960  179.0780  143.6830 C   0  0  2  0  0  3  0  0  0  0  0  0
  183.2620  179.3430  144.1170 C   0  0  0  0  0  1  0  0  0  0  0  0
  187.5630  178.2720  143.3200 N   0  0  0  0  0  2  0  0  0  0  0  0
  191.2160  176.8310  145.0160 C   0  0  0  0  0  3  0  0  0  0  0  0
  187.0900  177.8910  146.9890 C   0  0  0  0  0  0  0  0  0  0  0  0
  188.1510  177.3780  148.1930 S   0  0  0  0  0  0  0  0  0  0  0  0
  184.6990  177.9940  142.6140 C   0  0  0  0  0  2  0  0  0  0  0  0
  189.9160  177.2900  144.7450 C   0  0  0  0  0  3  0  0  0  0  0  0
  185.8000  178.2100  141.5780 C   0  0  0  0  0  2  0  0  0  0  0  0
  185.5930  178.6730  144.8300 C   0  0  0  0  0  0  0  0  0  0  0  0
  188.1250  179.0550  141.0600 C   0  0  0  0  0  2  0  0  0  0  0  0
  187.9620  177.5740  139.0250 C   0  0  0  0  0  0  0  0  0  0  0  0
  188.2030  176.3850  138.4170 F   0  0  0  0  0  0  0  0  0  0  0  0
  187.3760  178.4850  138.3820 O   0  0  0  0  0  0  0  0  0  0  0  0
  189.2230  176.8030  141.0320 C   0  0  0  0  0  1  0  0  0  0  0  0
  188.3800  177.7890  140.3790 N   0  0  0  0  0  0  0  0  0  0  0  0
  1  4  1  0  0  0  0
  1 14  2  0  0  0  0
  2 19  2  0  0  0  0
  2  1  1  0  0  0  0
  4  8  1  0  0  0  0
  5 20  1  6  0  0  0
  5 12  1  0  0  0  0
  6  9  1  0  0  0  0
  7  3  2  0  0  0  0
  8  9  2  0  0  0  0
  8 15  1  0  0  0  0
 10 11  1  1  0  0  0
 10 19  1  0  0  0  0
 12  2  1  0  0  0  0
 13  6  2  0  0  0  0
 14  3  1  0  0  0  0
 14 15  1  0  0  0  0
 16 10  1  0  0  0  0
 17 13  1  0  0  0  0
 17  4  2  0  0  0  0
 18  5  1  0  0  0  0
 18 16  1  0  0  0  0
 19  7  1  0  0  0  0
 21 25  1  0  0  0  0
 22 21  1  0  0  0  0
 23 21  2  0  0  0  0
 25 24  1  0  0  0  0
 25 20  1  0  0  0  0
M  END
>  <MODEL>
5

>  <REMARK>
 VINA RESULT:      -8.9      3.423      5.457
  Name = 
  2 active torsions:
  status: ('A' for Active; 'I' for Inactive)
    1  A    between atoms: C_6  and  C_15
    2  A    between atoms: C_15  and  N_25
                            x       y       z     vdW  Elec       q    Type
                         _______ _______ _______ _____ _____    ______ ____

>  <TORSDO>
F 2

$$$$
=
 OpenBabel10272400543D

 25 28  0  0  1  0  0  0  0  0999 V2000
  187.6200  178.0730  141.8230 C   0  0  0  0  0  0  0  0  0  0  0  0
  186.8540  178.0400  142.9980 C   0  0  0  0  0  0  0  0  0  0  0  0
  185.7110  178.7480  140.5580 N   0  0  0  0  0  0  0  0  0  0  0  0
  188.9830  177.7760  141.6530 C   0  0  0  0  0  0  0  0  0  0  0  0
  186.7670  177.3080  145.4650 C   0  0  2  0  0  3  0  0  0  0  0  0
  191.6320  177.2690  140.9220 C   0  0  0  0  0  3  0  0  0  0  0  0
  184.9680  178.7370  141.6680 N   0  0  0  0  0  0  0  0  0  0  0  0
  189.3990  177.9110  140.3280 C   0  0  0  0  0  0  0  0  0  0  0  0
  190.7140  177.6630  139.9380 C   0  0  0  0  0  3  0  0  0  0  0  0
  184.5800  178.4520  144.1080 C   0  0  2  0  0  3  0  0  0  0  0  0
  183.1880  178.9790  143.7920 C   0  0  0  0  0  1  0  0  0  0  0  0
  187.4720  177.6630  144.2400 N   0  0  0  0  0  2  0  0  0  0  0  0
  191.2260  177.1290  142.2610 C   0  0  0  0  0  3  0  0  0  0  0  0
  187.0210  178.4270  140.6280 C   0  0  0  0  0  0  0  0  0  0  0  0
  188.1130  178.3910  139.3460 S   0  0  0  0  0  0  0  0  0  0  0  0
  185.2080  179.3250  145.1860 C   0  0  0  0  0  2  0  0  0  0  0  0
  189.8960  177.3830  142.6340 C   0  0  0  0  0  3  0  0  0  0  0  0
  186.1080  178.5230  146.1240 C   0  0  0  0  0  2  0  0  0  0  0  0
  185.4800  178.4040  142.8950 C   0  0  0  0  0  0  0  0  0  0  0  0
  187.7010  176.5850  146.4350 C   0  0  0  0  0  2  0  0  0  0  0  0
  188.7400  177.9720  148.2670 C   0  0  0  0  0  0  0  0  0  0  0  0
  189.7330  178.7880  148.7000 F   0  0  0  0  0  0  0  0  0  0  0  0
  187.8090  177.6640  149.0580 O   0  0  0  0  0  0  0  0  0  0  0  0
  189.9370  177.6640  146.1020 C   0  0  0  0  0  1  0  0  0  0  0  0
  188.7600  177.4580  146.9290 N   0  0  0  0  0  0  0  0  0  0  0  0
  1  2  2  0  0  0  0
  2 12  1  0  0  0  0
  3 14  2  0  0  0  0
  3  7  1  0  0  0  0
  4  1  1  0  0  0  0
  4 17  1  0  0  0  0
  5 18  1  0  0  0  0
  5 20  1  1  0  0  0
  6 13  1  0  0  0  0
  7 19  2  0  0  0  0
  8  4  2  0  0  0  0
  9  8  1  0  0  0  0
  9  6  2  0  0  0  0
 10 11  1  6  0  0  0
 10 16  1  0  0  0  0
 12  5  1  0  0  0  0
 13 17  2  0  0  0  0
 14  1  1  0  0  0  0
 15  8  1  0  0  0  0
 15 14  1  0  0  0  0
 16 18  1  0  0  0  0
 19  2  1  0  0  0  0
 19 10  1  0  0  0  0
 20 25  1  0  0  0  0
 21 22  1  0  0  0  0
 21 23  2  0  0  0  0
 24 25  1  0  0  0  0
 25 21  1  0  0  0  0
M  END
>  <MODEL>
6

>  <REMARK>
 VINA RESULT:      -8.2      2.505      5.189
  Name = 
  2 active torsions:
  status: ('A' for Active; 'I' for Inactive)
    1  A    between atoms: C_6  and  C_15
    2  A    between atoms: C_15  and  N_25
                            x       y       z     vdW  Elec       q    Type
                         _______ _______ _______ _____ _____    ______ ____

>  <TORSDO>
F 2

$$$$
=
 OpenBabel10272400543D

 25 28  0  0  1  0  0  0  0  0999 V2000
  187.1800  177.7780  144.3200 C   0  0  0  0  0  0  0  0  0  0  0  0
  188.2100  177.4800  143.4150 C   0  0  0  0  0  0  0  0  0  0  0  0
  188.5330  177.0540  146.1480 N   0  0  0  0  0  0  0  0  0  0  0  0
  185.8990  178.2910  144.0580 C   0  0  0  0  0  0  0  0  0  0  0  0
  188.8520  177.1890  140.9390 C   0  0  2  0  0  3  0  0  0  0  0  0
  183.2910  179.2890  143.9360 C   0  0  0  0  0  3  0  0  0  0  0  0
  189.5310  176.7780  145.3050 N   0  0  0  0  0  0  0  0  0  0  0  0
  185.1370  178.4500  145.2160 C   0  0  0  0  0  0  0  0  0  0  0  0
  183.8350  178.9450  145.1810 C   0  0  0  0  0  3  0  0  0  0  0  0
  190.6180  176.6730  143.0700 C   0  0  2  0  0  3  0  0  0  0  0  0
  191.8510  176.2590  143.8600 C   0  0  0  0  0  1  0  0  0  0  0  0
  188.0080  177.7050  142.0100 N   0  0  0  0  0  2  0  0  0  0  0  0
  184.0480  179.1350  142.7600 C   0  0  0  0  0  3  0  0  0  0  0  0
  187.3730  177.5520  145.6710 C   0  0  0  0  0  0  0  0  0  0  0  0
  186.0110  177.9640  146.5750 S   0  0  0  0  0  0  0  0  0  0  0  0
  190.9580  177.8900  142.2220 C   0  0  0  0  0  2  0  0  0  0  0  0
  185.3580  178.6340  142.8150 C   0  0  0  0  0  3  0  0  0  0  0  0
  190.2120  177.8890  140.8890 C   0  0  0  0  0  2  0  0  0  0  0  0
  189.4290  176.9760  143.9530 C   0  0  0  0  0  0  0  0  0  0  0  0
  188.1300  177.2750  139.5940 C   0  0  0  0  0  2  0  0  0  0  0  0
  189.3060  178.2210  137.5730 C   0  0  0  0  0  0  0  0  0  0  0  0
  190.1570  178.0600  136.5300 F   0  0  0  0  0  0  0  0  0  0  0  0
  188.7550  179.3400  137.7500 O   0  0  0  0  0  0  0  0  0  0  0  0
  189.8390  175.9180  138.3650 C   0  0  0  0  0  1  0  0  0  0  0  0
  189.0480  177.1320  138.4690 N   0  0  0  0  0  0  0  0  0  0  0  0
  1 14  2  0  0  0  0
  2 19  2  0  0  0  0
  2  1  1  0  0  0  0
  4  1  1  0  0  0  0
  4  8  1  0  0  0  0
  5 20  1  6  0  0  0
  5 12  1  0  0  0  0
  6  9  1  0  0  0  0
  7  3  2  0  0  0  0
  8 15  1  0  0  0  0
  9  8  2  0  0  0  0
 10 11  1  1  0  0  0
 10 19  1  0  0  0  0
 12  2  1  0  0  0  0
 13 17  1  0  0  0  0
 13  6  2  0  0  0  0
 14  3  1  0  0  0  0
 14 15  1  0  0  0  0
 16 10  1  0  0  0  0
 17  4  2  0  0  0  0
 18  5  1  0  0  0  0
 18 16  1  0  0  0  0
 19  7  1  0  0  0  0
 21 23  2  0  0  0  0
 21 25  1  0  0  0  0
 22 21  1  0  0  0  0
 24 25  1  0  0  0  0
 25 20  1  0  0  0  0
M  END
>  <MODEL>
7

>  <REMARK>
 VINA RESULT:      -8.0      3.057      4.966
  Name = 
  2 active torsions:
  status: ('A' for Active; 'I' for Inactive)
    1  A    between atoms: C_6  and  C_15
    2  A    between atoms: C_15  and  N_25
                            x       y       z     vdW  Elec       q    Type
                         _______ _______ _______ _____ _____    ______ ____

>  <TORSDO>
F 2

$$$$
=
 OpenBabel10272400543D

 25 28  0  0  1  0  0  0  0  0999 V2000
  186.4130  178.1440  145.0840 C   0  0  0  0  0  0  0  0  0  0  0  0
  185.5130  178.4000  144.0390 C   0  0  0  0  0  0  0  0  0  0  0  0
  184.7520  178.7250  146.6990 N   0  0  0  0  0  0  0  0  0  0  0  0
  187.7510  177.7240  145.0110 C   0  0  0  0  0  0  0  0  0  0  0  0
  185.2330  178.7200  141.4990 C   0  0  2  0  0  3  0  0  0  0  0  0
  190.4100  176.9030  145.2690 C   0  0  0  0  0  3  0  0  0  0  0  0
  183.8760  178.9580  145.7180 N   0  0  0  0  0  0  0  0  0  0  0  0
  188.3390  177.5820  146.2680 C   0  0  0  0  0  0  0  0  0  0  0  0
  189.6630  177.1750  146.4230 C   0  0  0  0  0  3  0  0  0  0  0  0
  183.1340  179.0570  143.3470 C   0  0  2  0  0  3  0  0  0  0  0  0
  181.7700  179.3650  143.9470 C   0  0  0  0  0  1  0  0  0  0  0  0
  185.9390  178.2300  142.6770 N   0  0  0  0  0  2  0  0  0  0  0  0
  189.8310  177.0420  143.9940 C   0  0  0  0  0  3  0  0  0  0  0  0
  186.0030  178.3180  146.3950 C   0  0  0  0  0  0  0  0  0  0  0  0
  187.2380  177.9700  147.4870 S   0  0  0  0  0  0  0  0  0  0  0  0
  183.0110  177.8450  142.4340 C   0  0  0  0  0  2  0  0  0  0  0  0
  188.4950  177.4530  143.8590 C   0  0  0  0  0  3  0  0  0  0  0  0
  183.9470  177.9340  141.2300 C   0  0  0  0  0  2  0  0  0  0  0  0
  184.1950  178.8070  144.3940 C   0  0  0  0  0  0  0  0  0  0  0  0
  186.1530  178.7210  140.2800 C   0  0  0  0  0  2  0  0  0  0  0  0
  185.7550  177.9010  137.9270 C   0  0  0  0  0  0  0  0  0  0  0  0
  185.0470  177.9550  136.7710 F   0  0  0  0  0  0  0  0  0  0  0  0
  186.7150  177.0910  138.0240 O   0  0  0  0  0  0  0  0  0  0  0  0
  184.1800  179.5310  138.9660 C   0  0  0  0  0  1  0  0  0  0  0  0
  185.4040  178.7510  139.0270 N   0  0  0  0  0  0  0  0  0  0  0  0
  1 14  2  0  0  0  0
  2 19  2  0  0  0  0
  2  1  1  0  0  0  0
  4  1  1  0  0  0  0
  4  8  1  0  0  0  0
  5 20  1  6  0  0  0
  5 12  1  0  0  0  0
  6  9  1  0  0  0  0
  7  3  2  0  0  0  0
  8  9  2  0  0  0  0
  8 15  1  0  0  0  0
 10 11  1  1  0  0  0
 10 19  1  0  0  0  0
 12  2  1  0  0  0  0
 13  6  2  0  0  0  0
 14  3  1  0  0  0  0
 14 15  1  0  0  0  0
 16 10  1  0  0  0  0
 17 13  1  0  0  0  0
 17  4  2  0  0  0  0
 18  5  1  0  0  0  0
 18 16  1  0  0  0  0
 19  7  1  0  0  0  0
 21 23  2  0  0  0  0
 21 25  1  0  0  0  0
 22 21  1  0  0  0  0
 24 25  1  0  0  0  0
 25 20  1  0  0  0  0
M  END
>  <MODEL>
8

>  <REMARK>
 VINA RESULT:      -8.0      3.833      6.234
  Name = 
  2 active torsions:
  status: ('A' for Active; 'I' for Inactive)
    1  A    between atoms: C_6  and  C_15
    2  A    between atoms: C_15  and  N_25
                            x       y       z     vdW  Elec       q    Type
                         _______ _______ _______ _____ _____    ______ ____

>  <TORSDO>
F 2

$$$$
=
 OpenBabel10272400543D

 25 28  0  0  1  0  0  0  0  0999 V2000
  188.0610  177.4950  141.8950 C   0  0  0  0  0  0  0  0  0  0  0  0
  188.3510  177.5280  140.5230 C   0  0  0  0  0  0  0  0  0  0  0  0
  190.0680  176.2740  142.3220 N   0  0  0  0  0  0  0  0  0  0  0  0
  186.9510  178.0250  142.5730 C   0  0  0  0  0  0  0  0  0  0  0  0
  187.4520  178.0500  138.1670 C   0  0  2  0  0  3  0  0  0  0  0  0
  184.9120  178.9300  144.2570 C   0  0  0  0  0  3  0  0  0  0  0  0
  190.3700  176.3090  141.0220 N   0  0  0  0  0  0  0  0  0  0  0  0
  186.9980  177.7870  143.9470 C   0  0  0  0  0  0  0  0  0  0  0  0
  185.9940  178.2280  144.8070 C   0  0  0  0  0  3  0  0  0  0  0  0
  189.9980  176.9450  138.6460 C   0  0  2  0  0  3  0  0  0  0  0  0
  191.3780  176.3420  138.4290 C   0  0  0  0  0  1  0  0  0  0  0  0
  187.4410  178.1770  139.6190 N   0  0  0  0  0  2  0  0  0  0  0  0
  184.8510  179.1760  142.8730 C   0  0  0  0  0  3  0  0  0  0  0  0
  188.9340  176.8610  142.7610 C   0  0  0  0  0  0  0  0  0  0  0  0
  188.3900  176.9270  144.3550 S   0  0  0  0  0  0  0  0  0  0  0  0
  189.9950  178.3770  138.1300 C   0  0  0  0  0  2  0  0  0  0  0  0
  185.8730  178.7240  142.0220 C   0  0  0  0  0  3  0  0  0  0  0  0
  188.6450  178.7720  137.5350 C   0  0  0  0  0  2  0  0  0  0  0  0
  189.5660  176.9180  140.0940 C   0  0  0  0  0  0  0  0  0  0  0  0
  186.1290  178.5330  137.5730 C   0  0  0  0  0  2  0  0  0  0  0  0
  184.1990  178.9170  139.1500 C   0  0  0  0  0  0  0  0  0  0  0  0
  183.1400  178.4340  139.8470 F   0  0  0  0  0  0  0  0  0  0  0  0
  184.4800  180.1420  139.2300 O   0  0  0  0  0  0  0  0  0  0  0  0
  184.5230  176.6820  138.0940 C   0  0  0  0  0  1  0  0  0  0  0  0
  184.9790  178.0420  138.3260 N   0  0  0  0  0  0  0  0  0  0  0  0
  1  4  1  0  0  0  0
  1 14  2  0  0  0  0
  2  1  1  0  0  0  0
  3 14  1  0  0  0  0
  4  8  1  0  0  0  0
  5 20  1  6  0  0  0
  5 12  1  0  0  0  0
  6  9  1  0  0  0  0
  7  3  2  0  0  0  0
  8 15  1  0  0  0  0
  8  9  2  0  0  0  0
 10 11  1  1  0  0  0
 10 19  1  0  0  0  0
 12  2  1  0  0  0  0
 13  6  2  0  0  0  0
 14 15  1  0  0  0  0
 16 10  1  0  0  0  0
 17  4  2  0  0  0  0
 17 13  1  0  0  0  0
 18 16  1  0  0  0  0
 18  5  1  0  0  0  0
 19  2  2  0  0  0  0
 19  7  1  0  0  0  0
 20 25  1  0  0  0  0
 21 23  2  0  0  0  0
 21 22  1  0  0  0  0
 24 25  1  0  0  0  0
 25 21  1  0  0  0  0
M  END
>  <MODEL>
9

>  <REMARK>
 VINA RESULT:      -8.0      3.354      5.269
  Name = 
  2 active torsions:
  status: ('A' for Active; 'I' for Inactive)
    1  A    between atoms: C_6  and  C_15
    2  A    between atoms: C_15  and  N_25
                            x       y       z     vdW  Elec       q    Type
                         _______ _______ _______ _____ _____    ______ ____

>  <TORSDO>
F 2

$$$$
