=
 OpenBabel10272401523D

 28 33  0  0  1  0  0  0  0  0999 V2000
  187.3390  177.5110  144.3460 C   0  0  0  0  0  0  0  0  0  0  0  0
  188.6930  176.8260  144.3570 C   0  0  1  0  0  3  0  0  0  0  0  0
  188.8010  177.1130  141.8770 C   0  0  2  0  0  3  0  0  0  0  0  0
  186.7080  177.9280  138.2120 C   0  0  0  0  0  2  0  0  0  0  0  0
  183.4480  179.3710  144.4250 C   0  0  0  0  0  1  0  0  0  0  0  0
  190.8600  178.9900  144.6520 C   0  0  0  0  0  2  0  0  0  0  0  0
  189.5790  177.2880  143.1810 C   0  0  1  0  0  3  0  0  0  0  0  0
  190.8940  176.6100  145.6520 C   0  0  0  0  0  2  0  0  0  0  0  0
  189.6850  177.4200  138.1580 C   0  0  0  0  0  2  0  0  0  0  0  0
  186.8920  178.3210  140.7070 C   0  0  0  0  0  0  0  0  0  0  0  0
  189.3880  176.8740  145.7320 C   0  0  0  0  0  2  0  0  0  0  0  0
  187.4440  177.5630  136.9100 C   0  0  2  0  0  0  0  0  0  0  0  0
  187.6390  178.2590  139.3900 C   0  0  1  0  0  3  0  0  0  0  0  0
  189.6500  177.4520  140.6550 C   0  0  0  0  0  2  0  0  0  0  0  0
  188.9230  177.9730  136.9420 C   0  0  0  0  0  2  0  0  0  0  0  0
  185.5030  178.6090  143.1480 C   0  0  0  0  0  0  0  0  0  0  0  0
  187.4770  177.8510  141.9070 C   0  0  0  0  0  0  0  0  0  0  0  0
  188.8110  177.2690  139.4060 C   0  0  2  0  0  3  0  0  0  0  0  0
  185.3410  178.2200  145.5370 C   0  0  0  0  0  3  0  0  0  0  0  0
  184.9630  179.1040  141.9560 C   0  0  0  0  0  3  0  0  0  0  0  0
  184.7920  178.7250  144.3590 C   0  0  0  0  0  0  0  0  0  0  0  0
  191.7110  177.8080  145.1320 C   0  0  0  0  0  2  0  0  0  0  0  0
  186.8220  178.2220  135.8510 O   0  0  0  0  0  1  0  0  0  0  0  0
  187.3300  176.0670  136.6780 C   0  0  0  0  0  1  0  0  0  0  0  0
  185.6540  178.9710  140.7550 C   0  0  0  0  0  3  0  0  0  0  0  0
  186.5970  177.6160  145.5310 C   0  0  0  0  0  3  0  0  0  0  0  0
  186.7750  177.9820  143.1320 C   0  0  0  0  0  0  0  0  0  0  0  0
  190.1340  178.7180  143.3310 C   0  0  0  0  0  2  0  0  0  0  0  0
  1  2  1  0  0  0  0
  1 26  1  0  0  0  0
  2 11  1  1  0  0  0
  3 14  1  6  0  0  0
  3 17  1  0  0  0  0
  3  7  1  0  0  0  0
  6 22  1  0  0  0  0
  7 28  1  1  0  0  0
  7  2  1  0  0  0  0
  8 11  1  0  0  0  0
 10 25  1  0  0  0  0
 10 17  2  0  0  0  0
 12 24  1  6  0  0  0
 12 15  1  0  0  0  0
 12  4  1  0  0  0  0
 13  4  1  6  0  0  0
 13 18  1  0  0  0  0
 13 10  1  0  0  0  0
 15  9  1  0  0  0  0
 16 21  2  0  0  0  0
 17 27  1  0  0  0  0
 18  9  1  6  0  0  0
 18 14  1  0  0  0  0
 20 16  1  0  0  0  0
 21  5  1  0  0  0  0
 21 19  1  0  0  0  0
 22  8  1  0  0  0  0
 23 12  1  0  0  0  0
 25 20  2  0  0  0  0
 26 19  2  0  0  0  0
 27 16  1  0  0  0  0
 27  1  2  0  0  0  0
 28  6  1  0  0  0  0
M  END
>  <MODEL>
1

>  <REMARK>
 VINA RESULT:     -11.6      0.000      0.000
  Name = 
  0 active torsions:
  status: ('A' for Active; 'I' for Inactive)
                            x       y       z     vdW  Elec       q    Type
                         _______ _______ _______ _____ _____    ______ ____

>  <TORSDO>
F 0

$$$$
=
 OpenBabel10272401523D

 28 33  0  0  1  0  0  0  0  0999 V2000
  188.1510  177.1080  144.4660 C   0  0  0  0  0  0  0  0  0  0  0  0
  188.2050  176.6620  143.0160 C   0  0  1  0  0  3  0  0  0  0  0  0
  185.8700  177.5050  142.7240 C   0  0  2  0  0  3  0  0  0  0  0  0
  182.1990  178.7690  144.5660 C   0  0  0  0  0  2  0  0  0  0  0  0
  188.0830  178.2630  148.6210 C   0  0  0  0  0  1  0  0  0  0  0  0
  189.2170  179.0220  141.3220 C   0  0  0  0  0  2  0  0  0  0  0  0
  187.2750  177.5070  142.1200 C   0  0  1  0  0  3  0  0  0  0  0  0
  189.7130  176.5170  140.9480 C   0  0  0  0  0  2  0  0  0  0  0  0
  182.4420  178.7660  141.5560 C   0  0  0  0  0  2  0  0  0  0  0  0
  184.7230  178.6230  144.7000 C   0  0  0  0  0  0  0  0  0  0  0  0
  189.6410  176.5130  142.4780 C   0  0  0  0  0  2  0  0  0  0  0  0
  180.9600  178.8240  143.6540 C   0  0  2  0  0  0  0  0  0  0  0  0
  183.5330  178.9750  143.8300 C   0  0  1  0  0  3  0  0  0  0  0  0
  184.8670  178.2370  141.8370 C   0  0  0  0  0  2  0  0  0  0  0  0
  181.2720  179.4460  142.2850 C   0  0  0  0  0  2  0  0  0  0  0  0
  186.9640  178.1390  146.3480 C   0  0  0  0  0  0  0  0  0  0  0  0
  185.8710  177.9990  144.1570 C   0  0  0  0  0  0  0  0  0  0  0  0
  183.5060  178.2050  142.5040 C   0  0  2  0  0  3  0  0  0  0  0  0
  189.1830  177.2100  146.6650 C   0  0  0  0  0  3  0  0  0  0  0  0
  185.8350  178.7940  146.8520 C   0  0  0  0  0  3  0  0  0  0  0  0
  188.0680  177.8700  147.1810 C   0  0  0  0  0  0  0  0  0  0  0  0
  189.5580  177.9140  140.3190 C   0  0  0  0  0  2  0  0  0  0  0  0
  179.9830  179.5940  144.2810 O   0  0  0  0  0  1  0  0  0  0  0  0
  180.4190  177.4180  143.4680 C   0  0  0  0  0  1  0  0  0  0  0  0
  184.7360  179.0420  146.0350 C   0  0  0  0  0  3  0  0  0  0  0  0
  189.2220  176.8290  145.3250 C   0  0  0  0  0  3  0  0  0  0  0  0
  186.9930  177.7420  144.9860 C   0  0  0  0  0  0  0  0  0  0  0  0
  187.7830  178.9390  141.8550 C   0  0  0  0  0  2  0  0  0  0  0  0
  1 27  2  0  0  0  0
  1 26  1  0  0  0  0
  2 11  1  6  0  0  0
  2  1  1  0  0  0  0
  3 14  1  6  0  0  0
  3 17  1  0  0  0  0
  6 28  1  0  0  0  0
  7 28  1  1  0  0  0
  7  3  1  0  0  0  0
  7  2  1  0  0  0  0
  8 11  1  0  0  0  0
  9 15  1  0  0  0  0
 10 25  1  0  0  0  0
 12 24  1  6  0  0  0
 12 23  1  0  0  0  0
 12  4  1  0  0  0  0
 13  4  1  1  0  0  0
 13 10  1  0  0  0  0
 14 18  1  0  0  0  0
 15 12  1  0  0  0  0
 16 20  1  0  0  0  0
 16 21  2  0  0  0  0
 17 10  2  0  0  0  0
 17 27  1  0  0  0  0
 18  9  1  6  0  0  0
 18 13  1  0  0  0  0
 19 21  1  0  0  0  0
 21  5  1  0  0  0  0
 22  8  1  0  0  0  0
 22  6  1  0  0  0  0
 25 20  2  0  0  0  0
 26 19  2  0  0  0  0
 27 16  1  0  0  0  0
M  END
>  <MODEL>
2

>  <REMARK>
 VINA RESULT:     -10.2      2.873      5.690
  Name = 
  0 active torsions:
  status: ('A' for Active; 'I' for Inactive)
                            x       y       z     vdW  Elec       q    Type
                         _______ _______ _______ _____ _____    ______ ____

>  <TORSDO>
F 0

$$$$
=
 OpenBabel10272401523D

 28 33  0  0  1  0  0  0  0  0999 V2000
  188.8640  177.0020  145.4740 C   0  0  0  0  0  0  0  0  0  0  0  0
  189.4600  176.5160  144.1650 C   0  0  1  0  0  3  0  0  0  0  0  0
  187.4460  177.4010  142.9790 C   0  0  2  0  0  3  0  0  0  0  0  0
  183.3870  178.7910  143.2380 C   0  0  0  0  0  2  0  0  0  0  0  0
  187.2310  178.2660  149.2610 C   0  0  0  0  0  1  0  0  0  0  0  0
  191.1180  178.8090  142.9570 C   0  0  0  0  0  2  0  0  0  0  0  0
  188.9740  177.3580  142.9660 C   0  0  1  0  0  3  0  0  0  0  0  0
  191.6440  176.2850  142.8440 C   0  0  0  0  0  2  0  0  0  0  0  0
  184.7740  178.7030  140.5560 C   0  0  0  0  0  2  0  0  0  0  0  0
  185.6590  178.5950  144.3400 C   0  0  0  0  0  0  0  0  0  0  0  0
  190.9880  176.3230  144.2270 C   0  0  0  0  0  2  0  0  0  0  0  0
  182.6000  178.8480  141.9170 C   0  0  2  0  0  0  0  0  0  0  0  0
  184.9080  178.9490  143.0720 C   0  0  1  0  0  3  0  0  0  0  0  0
  186.8850  178.1310  141.7620 C   0  0  0  0  0  2  0  0  0  0  0  0
  183.4340  179.4270  140.7650 C   0  0  0  0  0  2  0  0  0  0  0  0
  187.0740  178.1060  146.7340 C   0  0  0  0  0  0  0  0  0  0  0  0
  186.9080  177.9320  144.2940 C   0  0  0  0  0  0  0  0  0  0  0  0
  185.3720  178.1450  141.8510 C   0  0  2  0  0  3  0  0  0  0  0  0
  188.9690  177.1390  147.8990 C   0  0  0  0  0  3  0  0  0  0  0  0
  185.8580  178.7980  146.7510 C   0  0  0  0  0  3  0  0  0  0  0  0
  187.7610  177.8360  147.9330 C   0  0  0  0  0  0  0  0  0  0  0  0
  191.7860  177.6680  142.1820 C   0  0  0  0  0  2  0  0  0  0  0  0
  181.4790  179.6550  142.1050 O   0  0  0  0  0  1  0  0  0  0  0  0
  182.1300  177.4490  141.5590 C   0  0  0  0  0  1  0  0  0  0  0  0
  185.1670  179.0490  145.5690 C   0  0  0  0  0  3  0  0  0  0  0  0
  189.5110  176.7220  146.6850 C   0  0  0  0  0  3  0  0  0  0  0  0
  187.6140  177.6730  145.4960 C   0  0  0  0  0  0  0  0  0  0  0  0
  189.5880  178.7700  142.8950 C   0  0  0  0  0  2  0  0  0  0  0  0
  1 27  2  0  0  0  0
  1 26  1  0  0  0  0
  2 11  1  1  0  0  0
  2  1  1  0  0  0  0
  3 14  1  6  0  0  0
  3 17  1  0  0  0  0
  7 28  1  1  0  0  0
  7  3  1  0  0  0  0
  7  2  1  0  0  0  0
  8 11  1  0  0  0  0
  9 15  1  0  0  0  0
 10 25  1  0  0  0  0
 12 24  1  6  0  0  0
 12 23  1  0  0  0  0
 12  4  1  0  0  0  0
 13  4  1  1  0  0  0
 13 10  1  0  0  0  0
 14 18  1  0  0  0  0
 15 12  1  0  0  0  0
 16 20  1  0  0  0  0
 16 21  2  0  0  0  0
 17 10  2  0  0  0  0
 17 27  1  0  0  0  0
 18  9  1  6  0  0  0
 18 13  1  0  0  0  0
 19 21  1  0  0  0  0
 21  5  1  0  0  0  0
 22  8  1  0  0  0  0
 22  6  1  0  0  0  0
 25 20  2  0  0  0  0
 26 19  2  0  0  0  0
 27 16  1  0  0  0  0
 28  6  1  0  0  0  0
M  END
>  <MODEL>
3

>  <REMARK>
 VINA RESULT:      -9.7      2.811      4.446
  Name = 
  0 active torsions:
  status: ('A' for Active; 'I' for Inactive)
                            x       y       z     vdW  Elec       q    Type
                         _______ _______ _______ _____ _____    ______ ____

>  <TORSDO>
F 0

$$$$
