=
 OpenBabel10272414153D

 43 49  0  0  1  0  0  0  0  0999 V2000
  190.8110  177.6210  139.4720 C   0  0  0  0  0  3  0  0  0  0  0  0
  189.5170  178.1320  138.9140 C   0  0  1  0  0  3  0  0  0  0  0  0
  191.2850  176.4340  139.0800 C   0  0  0  0  0  3  0  0  0  0  0  0
  189.5110  177.8660  137.4050 C   0  0  0  0  0  2  0  0  0  0  0  0
  189.7160  176.3720  137.0410 C   0  0  1  0  0  3  0  0  0  0  0  0
  190.4980  175.5770  138.1230 C   0  0  0  0  0  2  0  0  0  0  0  0
  188.3930  177.4670  139.5630 N   0  0  0  0  0  2  0  0  0  0  0  0
  188.5170  178.8750  141.4200 O   0  0  0  0  0  0  0  0  0  0  0  0
  187.3960  178.0600  141.6620 C   0  0  1  0  0  3  0  0  0  0  0  0
  188.6090  177.5370  140.9980 C   0  0  1  0  0  3  0  0  0  0  0  0
  187.3870  177.6240  143.1180 C   0  0  2  0  0  3  0  0  0  0  0  0
  186.1120  178.0480  143.7790 C   0  0  0  0  0  0  0  0  0  0  0  0
  184.8580  178.6800  145.7580 C   0  0  0  0  0  3  0  0  0  0  0  0
  183.7880  178.7110  143.5860 C   0  0  0  0  0  3  0  0  0  0  0  0
  183.7260  178.9070  144.9690 C   0  0  0  0  0  3  0  0  0  0  0  0
  184.9800  178.2850  142.9930 C   0  0  0  0  0  3  0  0  0  0  0  0
  186.0500  178.2540  145.1650 C   0  0  0  0  0  3  0  0  0  0  0  0
  188.4930  178.1700  143.7880 O   0  0  0  0  0  0  0  0  0  0  0  0
  189.3050  177.0950  144.1820 C   0  0  1  0  0  0  0  0  0  0  0  0
  189.7880  177.1660  145.5660 N   0  0  0  0  0  2  0  0  0  0  0  0
  188.9880  175.8030  143.7550 O   0  0  0  0  0  1  0  0  0  0  0  0
  190.7060  177.3820  144.4240 C   0  0  0  0  0  2  0  0  0  0  0  0
  188.4280  175.7170  136.7480 N   0  0  0  0  0  0  0  0  0  0  0  0
  188.3110  171.8650  134.3830 S   0  0  1  0  0  0  0  0  0  0  0  0
  187.4280  173.5290  136.2990 N   0  0  0  0  0  0  0  0  0  0  0  0
  189.7010  173.0020  134.3460 C   0  0  0  0  0  2  0  0  0  0  0  0
  188.9770  170.4970  134.4360 O   0  0  0  0  0  0  0  0  0  0  0  0
  188.6530  174.3540  136.2140 C   0  0  1  0  0  3  0  0  0  0  0  0
  187.7460  172.1180  136.0720 C   0  0  0  0  0  2  0  0  0  0  0  0
  189.2280  174.3770  134.7810 C   0  0  0  0  0  2  0  0  0  0  0  0
  185.4240  172.9570  137.6950 C   0  0  0  0  0  1  0  0  0  0  0  0
  186.7950  173.6320  137.6240 C   0  0  0  0  0  2  0  0  0  0  0  0
  187.6660  176.5150  135.7800 C   0  0  0  0  0  2  0  0  0  0  0  0
  185.3420  177.2550  135.2990 C   0  0  0  0  0  2  0  0  0  0  0  0
  186.2010  176.1010  135.8060 C   0  0  2  0  0  3  0  0  0  0  0  0
  185.1580  178.7280  138.4200 C   0  0  0  0  0  3  0  0  0  0  0  0
  183.6600  178.4880  138.4220 C   0  0  1  0  0  3  0  0  0  0  0  0
  184.0860  176.3280  137.2680 C   0  0  0  0  0  3  0  0  0  0  0  0
  185.9670  178.0160  137.6210 C   0  0  0  0  0  3  0  0  0  0  0  0
  185.3670  176.9280  136.7720 C   0  0  2  0  0  0  0  0  0  0  0  0
  183.2990  177.0620  138.0700 C   0  0  0  0  0  3  0  0  0  0  0  0
  182.3000  177.6890  140.3570 C   0  0  0  0  0  1  0  0  0  0  0  0
  183.0430  178.8670  139.7580 C   0  0  0  0  0  2  0  0  0  0  0  0
  2  1  1  0  0  0  0
  2  7  1  1  0  0  0
  3  1  2  0  0  0  0
  4  2  1  0  0  0  0
  5 23  1  1  0  0  0
  5  4  1  0  0  0  0
  5  6  1  0  0  0  0
  6  3  1  0  0  0  0
  8  9  1  0  0  0  0
  9 11  1  1  0  0  0
 10  7  1  6  0  0  0
 10  8  1  0  0  0  0
 10  9  1  0  0  0  0
 11 12  1  0  0  0  0
 11 18  1  1  0  0  0
 12 17  1  0  0  0  0
 14 15  2  0  0  0  0
 15 13  1  0  0  0  0
 16 14  1  0  0  0  0
 16 12  2  0  0  0  0
 17 13  2  0  0  0  0
 18 19  1  0  0  0  0
 19 21  1  6  0  0  0
 19 22  1  0  0  0  0
 19 20  1  0  0  0  0
 22 20  1  0  0  0  0
 24 27  2  1  0  0  0
 24 29  1  0  0  0  0
 25 32  1  0  0  0  0
 26 24  1  0  0  0  0
 26 30  1  0  0  0  0
 28 25  1  0  0  0  0
 28 23  1  6  0  0  0
 29 25  1  0  0  0  0
 30 28  1  0  0  0  0
 32 31  1  0  0  0  0
 33 23  1  0  0  0  0
 34 35  1  0  0  0  0
 35 33  1  1  0  0  0
 35 40  1  0  0  0  0
 36 37  1  0  0  0  0
 37 43  1  1  0  0  0
 38 41  2  0  0  0  0
 39 36  2  0  0  0  0
 40 34  1  6  0  0  0
 40 38  1  0  0  0  0
 40 39  1  0  0  0  0
 41 37  1  0  0  0  0
 43 42  1  0  0  0  0
M  END
>  <MODEL>
1

>  <REMARK>
 VINA RESULT:      -7.5      0.000      0.000
  Name = 
  12 active torsions:
  status: ('A' for Active; 'I' for Inactive)
    1  A    between atoms: C_4  and  C_14
    2  A    between atoms: C_6  and  N_17
    3  A    between atoms: C_8  and  C_34
    4  A    between atoms: C_10  and  O_41
    5  A    between atoms: C_11  and  C_14
    6  A    between atoms: C_12  and  N_17
    7  A    between atoms: C_14  and  O_41
    8  A    between atoms: N_16  and  C_43
    9  A    between atoms: C_19  and  C_37
   10  A    between atoms: C_21  and  N_30
   11  A    between atoms: C_27  and  N_30
   12  A    between atoms: N_30  and  C_34
                            x       y       z     vdW  Elec       q    Type
                         _______ _______ _______ _____ _____    ______ ____

>  <TORSDO>
F 12

$$$$
=
 OpenBabel10272414153D

 43 49  0  0  1  0  0  0  0  0999 V2000
  188.8910  177.1080  137.7280 C   0  0  0  0  0  3  0  0  0  0  0  0
  187.9480  178.2470  137.9730 C   0  0  1  0  0  3  0  0  0  0  0  0
  188.4120  175.9070  137.3850 C   0  0  0  0  0  3  0  0  0  0  0  0
  186.8840  178.2320  136.8700 C   0  0  0  0  0  2  0  0  0  0  0  0
  186.1130  176.8890  136.7760 C   0  0  1  0  0  3  0  0  0  0  0  0
  186.9270  175.6740  137.3010 C   0  0  0  0  0  2  0  0  0  0  0  0
  187.3340  178.1160  139.2890 N   0  0  0  0  0  2  0  0  0  0  0  0
  189.2610  178.6970  140.4710 O   0  0  0  0  0  0  0  0  0  0  0  0
  188.2980  178.4330  141.4620 C   0  0  1  0  0  3  0  0  0  0  0  0
  188.3580  177.6510  140.2090 C   0  0  1  0  0  3  0  0  0  0  0  0
  188.9320  177.6340  142.5890 C   0  0  2  0  0  3  0  0  0  0  0  0
  188.0730  177.6940  143.8140 C   0  0  0  0  0  0  0  0  0  0  0  0
  185.8900  177.7110  144.8760 C   0  0  0  0  0  3  0  0  0  0  0  0
  187.8960  177.7390  146.2320 C   0  0  0  0  0  3  0  0  0  0  0  0
  186.5020  177.7390  146.1330 C   0  0  0  0  0  3  0  0  0  0  0  0
  188.6790  177.7130  145.0750 C   0  0  0  0  0  3  0  0  0  0  0  0
  186.6740  177.6850  143.7180 C   0  0  0  0  0  3  0  0  0  0  0  0
  190.2150  178.1300  142.8640 O   0  0  0  0  0  0  0  0  0  0  0  0
  191.1260  177.1120  142.5390 C   0  0  1  0  0  0  0  0  0  0  0  0
  190.5900  175.7510  142.6520 N   0  0  0  0  0  2  0  0  0  0  0  0
  192.0010  177.2920  141.4650 O   0  0  0  0  0  1  0  0  0  0  0  0
  191.5820  176.2650  143.6240 C   0  0  0  0  0  2  0  0  0  0  0  0
  184.8120  176.9770  137.4640 N   0  0  0  0  0  0  0  0  0  0  0  0
  180.8510  175.9690  135.5300 S   0  0  1  0  0  0  0  0  0  0  0  0
  182.8130  175.5720  137.3230 N   0  0  0  0  0  0  0  0  0  0  0  0
  182.0510  177.0820  134.7930 C   0  0  0  0  0  2  0  0  0  0  0  0
  180.3580  175.1480  134.3460 O   0  0  0  0  0  0  0  0  0  0  0  0
  183.7310  176.4690  136.5870 C   0  0  1  0  0  3  0  0  0  0  0  0
  181.9580  174.8390  136.3870 C   0  0  0  0  0  2  0  0  0  0  0  0
  182.9690  177.6110  135.8800 C   0  0  0  0  0  2  0  0  0  0  0  0
  184.0240  173.3750  137.3020 C   0  0  0  0  0  1  0  0  0  0  0  0
  183.5490  174.5780  138.1200 C   0  0  0  0  0  2  0  0  0  0  0  0
  184.5370  178.3680  137.8450 C   0  0  0  0  0  2  0  0  0  0  0  0
  182.8510  179.9050  138.8310 C   0  0  0  0  0  2  0  0  0  0  0  0
  183.0740  178.5170  138.2390 C   0  0  2  0  0  3  0  0  0  0  0  0
  183.7800  178.8980  142.0040 C   0  0  0  0  0  3  0  0  0  0  0  0
  182.3720  179.1920  142.4880 C   0  0  1  0  0  3  0  0  0  0  0  0
  181.5340  178.3520  140.3040 C   0  0  0  0  0  3  0  0  0  0  0  0
  184.0310  178.6930  140.7030 C   0  0  0  0  0  3  0  0  0  0  0  0
  182.8770  178.6970  139.7360 C   0  0  2  0  0  0  0  0  0  0  0  0
  181.3130  178.5620  141.6100 C   0  0  0  0  0  3  0  0  0  0  0  0
  180.8440  178.0640  144.1070 C   0  0  0  0  0  1  0  0  0  0  0  0
  182.1820  178.7550  143.9300 C   0  0  0  0  0  2  0  0  0  0  0  0
  1  2  1  0  0  0  0
  2  7  1  1  0  0  0
  3  1  2  0  0  0  0
  4  2  1  0  0  0  0
  5  4  1  0  0  0  0
  5  6  1  0  0  0  0
  5 23  1  1  0  0  0
  6  3  1  0  0  0  0
  8  9  1  0  0  0  0
  9 11  1  1  0  0  0
 10  7  1  6  0  0  0
 10  8  1  0  0  0  0
 10  9  1  0  0  0  0
 11 18  1  1  0  0  0
 11 12  1  0  0  0  0
 12 16  1  0  0  0  0
 13 15  2  0  0  0  0
 15 14  1  0  0  0  0
 16 14  2  0  0  0  0
 17 12  2  0  0  0  0
 17 13  1  0  0  0  0
 19 21  1  6  0  0  0
 19 20  1  0  0  0  0
 19 18  1  0  0  0  0
 19 22  1  0  0  0  0
 20 22  1  0  0  0  0
 23 33  1  0  0  0  0
 24 27  2  6  0  0  0
 24 29  1  0  0  0  0
 25 32  1  0  0  0  0
 26 24  1  0  0  0  0
 26 30  1  0  0  0  0
 28 25  1  0  0  0  0
 28 23  1  1  0  0  0
 29 25  1  0  0  0  0
 30 28  1  0  0  0  0
 31 32  1  0  0  0  0
 35 33  1  1  0  0  0
 35 34  1  0  0  0  0
 35 40  1  0  0  0  0
 36 37  1  0  0  0  0
 37 43  1  1  0  0  0
 38 41  2  0  0  0  0
 39 36  2  0  0  0  0
 40 34  1  6  0  0  0
 40 38  1  0  0  0  0
 40 39  1  0  0  0  0
 41 37  1  0  0  0  0
 43 42  1  0  0  0  0
M  END
>  <MODEL>
2

>  <REMARK>
 VINA RESULT:      -7.2      2.824      4.289
  Name = 
  12 active torsions:
  status: ('A' for Active; 'I' for Inactive)
    1  A    between atoms: C_4  and  C_14
    2  A    between atoms: C_6  and  N_17
    3  A    between atoms: C_8  and  C_34
    4  A    between atoms: C_10  and  O_41
    5  A    between atoms: C_11  and  C_14
    6  A    between atoms: C_12  and  N_17
    7  A    between atoms: C_14  and  O_41
    8  A    between atoms: N_16  and  C_43
    9  A    between atoms: C_19  and  C_37
   10  A    between atoms: C_21  and  N_30
   11  A    between atoms: C_27  and  N_30
   12  A    between atoms: N_30  and  C_34
                            x       y       z     vdW  Elec       q    Type
                         _______ _______ _______ _____ _____    ______ ____

>  <TORSDO>
F 12

$$$$
=
 OpenBabel10272414153D

 43 49  0  0  1  0  0  0  0  0999 V2000
  189.0540  177.6900  136.1880 C   0  0  0  0  0  3  0  0  0  0  0  0
  188.0720  178.6340  136.8130 C   0  0  1  0  0  3  0  0  0  0  0  0
  188.6480  176.4890  135.7630 C   0  0  0  0  0  3  0  0  0  0  0  0
  186.7890  178.6110  135.9750 C   0  0  0  0  0  2  0  0  0  0  0  0
  186.1750  177.1950  135.8270 C   0  0  1  0  0  3  0  0  0  0  0  0
  187.2200  176.0540  135.9600 C   0  0  0  0  0  2  0  0  0  0  0  0
  187.8010  178.2370  138.1900 N   0  0  0  0  0  2  0  0  0  0  0  0
  188.7840  178.4870  140.2920 O   0  0  0  0  0  0  0  0  0  0  0  0
  189.1320  177.1860  139.8850 C   0  0  1  0  0  3  0  0  0  0  0  0
  189.0530  178.3070  138.9230 C   0  0  1  0  0  3  0  0  0  0  0  0
  190.5880  176.9170  140.2290 C   0  0  2  0  0  3  0  0  0  0  0  0
  191.3010  176.3310  139.0500 C   0  0  0  0  0  0  0  0  0  0  0  0
  191.4220  174.7380  137.2220 C   0  0  0  0  0  3  0  0  0  0  0  0
  193.1700  176.3900  137.5070 C   0  0  0  0  0  3  0  0  0  0  0  0
  192.6300  175.3070  136.8060 C   0  0  0  0  0  3  0  0  0  0  0  0
  192.5040  176.9020  138.6230 C   0  0  0  0  0  3  0  0  0  0  0  0
  190.7560  175.2510  138.3400 C   0  0  0  0  0  3  0  0  0  0  0  0
  190.6670  176.0510  141.3310 O   0  0  0  0  0  0  0  0  0  0  0  0
  190.9410  176.8430  142.4570 C   0  0  1  0  0  0  0  0  0  0  0  0
  191.3350  176.0930  143.6540 N   0  0  0  0  0  2  0  0  0  0  0  0
  191.6180  178.0540  142.2950 O   0  0  0  0  0  1  0  0  0  0  0  0
  190.0120  176.7520  143.5670 C   0  0  0  0  0  2  0  0  0  0  0  0
  185.0680  176.9970  136.7820 N   0  0  0  0  0  0  0  0  0  0  0  0
  180.9920  175.4740  135.5520 S   0  0  1  0  0  0  0  0  0  0  0  0
  183.2300  175.4020  137.0390 N   0  0  0  0  0  0  0  0  0  0  0  0
  181.9460  176.6370  134.5710 C   0  0  0  0  0  2  0  0  0  0  0  0
  180.4180  174.5220  134.5110 O   0  0  0  0  0  0  0  0  0  0  0  0
  183.9290  176.3240  136.1160 C   0  0  1  0  0  3  0  0  0  0  0  0
  182.3270  174.5220  136.2930 C   0  0  0  0  0  2  0  0  0  0  0  0
  182.9540  177.3310  135.4680 C   0  0  0  0  0  2  0  0  0  0  0  0
  184.4860  173.2310  137.0520 C   0  0  0  0  0  1  0  0  0  0  0  0
  184.1760  174.5450  137.7710 C   0  0  0  0  0  2  0  0  0  0  0  0
  184.6370  178.2890  137.3290 C   0  0  0  0  0  2  0  0  0  0  0  0
  183.1230  179.4180  138.9440 C   0  0  0  0  0  2  0  0  0  0  0  0
  183.5010  178.0790  138.3200 C   0  0  2  0  0  3  0  0  0  0  0  0
  185.5420  179.1630  141.4000 C   0  0  0  0  0  3  0  0  0  0  0  0
  184.4460  179.1190  142.4470 C   0  0  1  0  0  3  0  0  0  0  0  0
  183.0870  177.7820  140.8510 C   0  0  0  0  0  3  0  0  0  0  0  0
  185.2830  178.8560  140.1200 C   0  0  0  0  0  3  0  0  0  0  0  0
  183.8960  178.4040  139.7530 C   0  0  2  0  0  0  0  0  0  0  0  0
  183.3730  178.1030  142.1220 C   0  0  0  0  0  3  0  0  0  0  0  0
  183.9180  178.8890  144.8760 C   0  0  0  0  0  1  0  0  0  0  0  0
  185.0150  178.8510  143.8300 C   0  0  0  0  0  2  0  0  0  0  0  0
  1  2  1  0  0  0  0
  2  7  1  1  0  0  0
  3  6  1  0  0  0  0
  3  1  2  0  0  0  0
  4  2  1  0  0  0  0
  5  6  1  0  0  0  0
  5  4  1  0  0  0  0
  5 23  1  1  0  0  0
  9 11  1  1  0  0  0
  9  8  1  0  0  0  0
 10  7  1  6  0  0  0
 10  9  1  0  0  0  0
 10  8  1  0  0  0  0
 11 18  1  1  0  0  0
 12 11  1  0  0  0  0
 13 17  1  0  0  0  0
 14 16  2  0  0  0  0
 15 13  2  0  0  0  0
 15 14  1  0  0  0  0
 16 12  1  0  0  0  0
 17 12  2  0  0  0  0
 18 19  1  0  0  0  0
 19 21  1  6  0  0  0
 19 22  1  0  0  0  0
 19 20  1  0  0  0  0
 22 20  1  0  0  0  0
 23 33  1  0  0  0  0
 24 27  2  6  0  0  0
 24 29  1  0  0  0  0
 25 32  1  0  0  0  0
 26 30  1  0  0  0  0
 26 24  1  0  0  0  0
 28 23  1  1  0  0  0
 28 25  1  0  0  0  0
 29 25  1  0  0  0  0
 30 28  1  0  0  0  0
 31 32  1  0  0  0  0
 35 33  1  6  0  0  0
 35 34  1  0  0  0  0
 35 40  1  0  0  0  0
 36 37  1  0  0  0  0
 37 43  1  1  0  0  0
 38 41  2  0  0  0  0
 39 36  2  0  0  0  0
 40 34  1  1  0  0  0
 40 39  1  0  0  0  0
 40 38  1  0  0  0  0
 41 37  1  0  0  0  0
 43 42  1  0  0  0  0
M  END
>  <MODEL>
3

>  <REMARK>
 VINA RESULT:      -6.8      2.670      5.607
  Name = 
  12 active torsions:
  status: ('A' for Active; 'I' for Inactive)
    1  A    between atoms: C_4  and  C_14
    2  A    between atoms: C_6  and  N_17
    3  A    between atoms: C_8  and  C_34
    4  A    between atoms: C_10  and  O_41
    5  A    between atoms: C_11  and  C_14
    6  A    between atoms: C_12  and  N_17
    7  A    between atoms: C_14  and  O_41
    8  A    between atoms: N_16  and  C_43
    9  A    between atoms: C_19  and  C_37
   10  A    between atoms: C_21  and  N_30
   11  A    between atoms: C_27  and  N_30
   12  A    between atoms: N_30  and  C_34
                            x       y       z     vdW  Elec       q    Type
                         _______ _______ _______ _____ _____    ______ ____

>  <TORSDO>
F 12

$$$$
=
 OpenBabel10272414153D

 43 49  0  0  1  0  0  0  0  0999 V2000
  189.3480  178.0940  136.7200 C   0  0  0  0  0  3  0  0  0  0  0  0
  188.1520  178.3820  137.5750 C   0  0  1  0  0  3  0  0  0  0  0  0
  189.2210  177.3260  135.6320 C   0  0  0  0  0  3  0  0  0  0  0  0
  186.9720  178.7060  136.6520 C   0  0  0  0  0  2  0  0  0  0  0  0
  186.6610  177.5800  135.6320 C   0  0  1  0  0  3  0  0  0  0  0  0
  187.8950  176.7000  135.2910 C   0  0  0  0  0  2  0  0  0  0  0  0
  187.8500  177.2330  138.4200 N   0  0  0  0  0  2  0  0  0  0  0  0
  188.7430  178.6710  140.0280 O   0  0  0  0  0  0  0  0  0  0  0  0
  187.8740  177.8260  140.7440 C   0  0  1  0  0  3  0  0  0  0  0  0
  188.6810  177.3300  139.6080 C   0  0  1  0  0  3  0  0  0  0  0  0
  188.5300  177.4100  142.0510 C   0  0  2  0  0  3  0  0  0  0  0  0
  187.5840  177.6140  143.1940 C   0  0  0  0  0  0  0  0  0  0  0  0
  187.1100  177.6520  145.5740 C   0  0  0  0  0  3  0  0  0  0  0  0
  185.3880  178.2680  143.9860 C   0  0  0  0  0  3  0  0  0  0  0  0
  185.8030  178.0710  145.3070 C   0  0  0  0  0  3  0  0  0  0  0  0
  186.2780  178.0430  142.9330 C   0  0  0  0  0  3  0  0  0  0  0  0
  188.0010  177.4270  144.5200 C   0  0  0  0  0  3  0  0  0  0  0  0
  189.7080  178.1470  142.2510 O   0  0  0  0  0  0  0  0  0  0  0  0
  190.7760  177.2390  142.1840 C   0  0  1  0  0  0  0  0  0  0  0  0
  190.4010  175.8350  142.3880 N   0  0  0  0  0  2  0  0  0  0  0  0
  191.7770  177.4280  141.2280 O   0  0  0  0  0  1  0  0  0  0  0  0
  191.1600  176.5810  143.4180 C   0  0  0  0  0  2  0  0  0  0  0  0
  185.5390  176.7420  136.0950 N   0  0  0  0  0  0  0  0  0  0  0  0
  182.2700  178.1950  138.8600 S   0  0  1  0  0  0  0  0  0  0  0  0
  183.1850  177.2660  136.5100 N   0  0  0  0  0  0  0  0  0  0  0  0
  184.0180  178.4140  139.2020 C   0  0  0  0  0  2  0  0  0  0  0  0
  181.6600  179.5270  139.2720 O   0  0  0  0  0  0  0  0  0  0  0  0
  184.5860  177.5520  136.8890 C   0  0  1  0  0  3  0  0  0  0  0  0
  182.2900  178.2850  137.0620 C   0  0  0  0  0  2  0  0  0  0  0  0
  184.8110  177.3910  138.4090 C   0  0  0  0  0  2  0  0  0  0  0  0
  181.9720  178.2860  134.5650 C   0  0  0  0  0  1  0  0  0  0  0  0
  183.0070  177.2680  135.0490 C   0  0  0  0  0  2  0  0  0  0  0  0
  186.0440  175.6250  136.9020 C   0  0  0  0  0  2  0  0  0  0  0  0
  185.5900  173.2810  137.5900 C   0  0  0  0  0  2  0  0  0  0  0  0
  185.3050  174.3460  136.5370 C   0  0  2  0  0  3  0  0  0  0  0  0
  188.4970  172.2540  136.0270 C   0  0  0  0  0  3  0  0  0  0  0  0
  187.8630  170.8970  135.7840 C   0  0  1  0  0  3  0  0  0  0  0  0
  185.7040  172.0660  135.3930 C   0  0  0  0  0  3  0  0  0  0  0  0
  187.7390  173.3340  136.2690 C   0  0  0  0  0  3  0  0  0  0  0  0
  186.2410  173.1870  136.2310 C   0  0  2  0  0  0  0  0  0  0  0  0
  186.4880  171.0010  135.1630 C   0  0  0  0  0  3  0  0  0  0  0  0
  188.6140  168.5610  135.3270 C   0  0  0  0  0  1  0  0  0  0  0  0
  188.7560  170.0170  134.9270 C   0  0  0  0  0  2  0  0  0  0  0  0
  1  2  1  0  0  0  0
  2  7  1  6  0  0  0
  3  1  2  0  0  0  0
  4  2  1  0  0  0  0
  5 23  1  1  0  0  0
  5  4  1  0  0  0  0
  6  3  1  0  0  0  0
  6  5  1  0  0  0  0
  8  9  1  0  0  0  0
  9 11  1  1  0  0  0
 10  7  1  6  0  0  0
 10  8  1  0  0  0  0
 10  9  1  0  0  0  0
 11 18  1  1  0  0  0
 11 12  1  0  0  0  0
 12 17  1  0  0  0  0
 14 15  2  0  0  0  0
 15 13  1  0  0  0  0
 16 12  2  0  0  0  0
 16 14  1  0  0  0  0
 17 13  2  0  0  0  0
 19 21  1  6  0  0  0
 19 18  1  0  0  0  0
 19 20  1  0  0  0  0
 19 22  1  0  0  0  0
 20 22  1  0  0  0  0
 23 33  1  0  0  0  0
 24 26  1  0  0  0  0
 24 27  2  1  0  0  0
 25 28  1  0  0  0  0
 25 29  1  0  0  0  0
 28 23  1  6  0  0  0
 28 30  1  0  0  0  0
 29 24  1  0  0  0  0
 30 26  1  0  0  0  0
 31 32  1  0  0  0  0
 32 25  1  0  0  0  0
 35 33  1  1  0  0  0
 35 34  1  0  0  0  0
 36 39  2  0  0  0  0
 37 43  1  6  0  0  0
 37 36  1  0  0  0  0
 40 38  1  6  0  0  0
 40 39  1  0  0  0  0
 40 35  1  0  0  0  0
 40 34  1  0  0  0  0
 41 38  2  0  0  0  0
 41 37  1  0  0  0  0
 43 42  1  0  0  0  0
M  END
>  <MODEL>
4

>  <REMARK>
 VINA RESULT:      -6.7      2.727      5.542
  Name = 
  12 active torsions:
  status: ('A' for Active; 'I' for Inactive)
    1  A    between atoms: C_4  and  C_14
    2  A    between atoms: C_6  and  N_17
    3  A    between atoms: C_8  and  C_34
    4  A    between atoms: C_10  and  O_41
    5  A    between atoms: C_11  and  C_14
    6  A    between atoms: C_12  and  N_17
    7  A    between atoms: C_14  and  O_41
    8  A    between atoms: N_16  and  C_43
    9  A    between atoms: C_19  and  C_37
   10  A    between atoms: C_21  and  N_30
   11  A    between atoms: C_27  and  N_30
   12  A    between atoms: N_30  and  C_34
                            x       y       z     vdW  Elec       q    Type
                         _______ _______ _______ _____ _____    ______ ____

>  <TORSDO>
F 12

$$$$
=
 OpenBabel10272414153D

 43 49  0  0  1  0  0  0  0  0999 V2000
  187.5370  179.2190  137.4080 C   0  0  0  0  0  3  0  0  0  0  0  0
  187.3110  178.0340  138.2970 C   0  0  1  0  0  3  0  0  0  0  0  0
  188.3780  179.1260  136.3720 C   0  0  0  0  0  3  0  0  0  0  0  0
  187.1560  176.7950  137.4090 C   0  0  0  0  0  2  0  0  0  0  0  0
  188.3660  176.5550  136.4690 C   0  0  1  0  0  3  0  0  0  0  0  0
  189.1450  177.8540  136.1260 C   0  0  0  0  0  2  0  0  0  0  0  0
  188.4300  177.8760  139.2180 N   0  0  0  0  0  2  0  0  0  0  0  0
  186.6650  178.1020  140.7290 O   0  0  0  0  0  0  0  0  0  0  0  0
  187.6110  177.3030  141.3980 C   0  0  1  0  0  3  0  0  0  0  0  0
  188.0190  178.4090  140.5060 C   0  0  1  0  0  3  0  0  0  0  0  0
  187.7240  177.7530  142.8460 C   0  0  2  0  0  3  0  0  0  0  0  0
  189.0660  177.3850  143.4000 C   0  0  0  0  0  0  0  0  0  0  0  0
  190.9730  175.8880  143.5190 C   0  0  0  0  0  3  0  0  0  0  0  0
  190.9740  177.9530  144.7840 C   0  0  0  0  0  3  0  0  0  0  0  0
  191.6060  176.7650  144.4050 C   0  0  0  0  0  3  0  0  0  0  0  0
  189.7080  178.2630  144.2790 C   0  0  0  0  0  3  0  0  0  0  0  0
  189.7070  176.1980  143.0140 C   0  0  0  0  0  3  0  0  0  0  0  0
  186.7010  177.1700  143.6100 O   0  0  0  0  0  0  0  0  0  0  0  0
  186.0650  178.2100  144.3050 C   0  0  1  0  0  0  0  0  0  0  0  0
  184.6190  178.3070  144.0760 N   0  0  0  0  0  2  0  0  0  0  0  0
  186.4550  178.4970  145.6160 O   0  0  0  0  0  1  0  0  0  0  0  0
  185.5510  179.3120  143.5160 C   0  0  0  0  0  2  0  0  0  0  0  0
  189.2750  175.5370  137.0270 N   0  0  0  0  0  0  0  0  0  0  0  0
  193.7690  175.6150  136.5340 S   0  0  1  0  0  0  0  0  0  0  0  0
  191.5150  175.7200  137.9940 N   0  0  0  0  0  0  0  0  0  0  0  0
  192.6250  175.7890  135.1620 C   0  0  0  0  0  2  0  0  0  0  0  0
  194.8460  176.6480  136.2290 O   0  0  0  0  0  0  0  0  0  0  0  0
  190.6860  175.9200  136.7860 C   0  0  1  0  0  3  0  0  0  0  0  0
  192.8080  176.3920  137.8430 C   0  0  0  0  0  2  0  0  0  0  0  0
  191.2830  175.2000  135.5570 C   0  0  0  0  0  2  0  0  0  0  0  0
  191.7450  177.2770  139.9480 C   0  0  0  0  0  1  0  0  0  0  0  0
  190.8690  176.2750  139.1950 C   0  0  0  0  0  2  0  0  0  0  0  0
  189.0000  174.2290  136.4220 C   0  0  0  0  0  2  0  0  0  0  0  0
  187.8130  172.0620  136.6920 C   0  0  0  0  0  2  0  0  0  0  0  0
  188.1170  173.4050  137.3480 C   0  0  2  0  0  3  0  0  0  0  0  0
  185.1050  173.3220  134.9520 C   0  0  0  0  0  3  0  0  0  0  0  0
  184.1960  172.3930  135.7350 C   0  0  1  0  0  3  0  0  0  0  0  0
  185.6380  172.7880  137.7210 C   0  0  0  0  0  3  0  0  0  0  0  0
  186.3210  173.6470  135.4170 C   0  0  0  0  0  3  0  0  0  0  0  0
  186.7420  173.1240  136.7640 C   0  0  2  0  0  0  0  0  0  0  0  0
  184.4310  172.4730  137.2270 C   0  0  0  0  0  3  0  0  0  0  0  0
  182.1750  173.7220  136.3530 C   0  0  0  0  0  1  0  0  0  0  0  0
  182.7340  172.6620  135.4230 C   0  0  0  0  0  2  0  0  0  0  0  0
  1  2  1  0  0  0  0
  2  7  1  1  0  0  0
  3  1  2  0  0  0  0
  4  2  1  0  0  0  0
  5 23  1  1  0  0  0
  5  4  1  0  0  0  0
  6  3  1  0  0  0  0
  6  5  1  0  0  0  0
  8  9  1  0  0  0  0
  9 11  1  1  0  0  0
 10  7  1  6  0  0  0
 10  8  1  0  0  0  0
 10  9  1  0  0  0  0
 11 12  1  0  0  0  0
 11 18  1  1  0  0  0
 12 16  1  0  0  0  0
 13 15  2  0  0  0  0
 15 14  1  0  0  0  0
 16 14  2  0  0  0  0
 17 12  2  0  0  0  0
 17 13  1  0  0  0  0
 18 19  1  0  0  0  0
 19 21  1  1  0  0  0
 20 19  1  0  0  0  0
 22 20  1  0  0  0  0
 22 19  1  0  0  0  0
 24 27  2  6  0  0  0
 24 29  1  0  0  0  0
 25 32  1  0  0  0  0
 26 30  1  0  0  0  0
 26 24  1  0  0  0  0
 28 23  1  1  0  0  0
 28 25  1  0  0  0  0
 29 25  1  0  0  0  0
 30 28  1  0  0  0  0
 32 31  1  0  0  0  0
 33 23  1  0  0  0  0
 34 40  1  0  0  0  0
 34 35  1  0  0  0  0
 35 33  1  6  0  0  0
 36 39  2  0  0  0  0
 36 37  1  0  0  0  0
 37 43  1  1  0  0  0
 37 41  1  0  0  0  0
 40 39  1  6  0  0  0
 40 35  1  0  0  0  0
 40 38  1  0  0  0  0
 41 38  2  0  0  0  0
 43 42  1  0  0  0  0
M  END
>  <MODEL>
5

>  <REMARK>
 VINA RESULT:      -6.7      2.754      4.867
  Name = 
  12 active torsions:
  status: ('A' for Active; 'I' for Inactive)
    1  A    between atoms: C_4  and  C_14
    2  A    between atoms: C_6  and  N_17
    3  A    between atoms: C_8  and  C_34
    4  A    between atoms: C_10  and  O_41
    5  A    between atoms: C_11  and  C_14
    6  A    between atoms: C_12  and  N_17
    7  A    between atoms: C_14  and  O_41
    8  A    between atoms: N_16  and  C_43
    9  A    between atoms: C_19  and  C_37
   10  A    between atoms: C_21  and  N_30
   11  A    between atoms: C_27  and  N_30
   12  A    between atoms: N_30  and  C_34
                            x       y       z     vdW  Elec       q    Type
                         _______ _______ _______ _____ _____    ______ ____

>  <TORSDO>
F 12

$$$$
=
 OpenBabel10272414153D

 43 49  0  0  1  0  0  0  0  0999 V2000
  190.0530  178.0330  140.4260 C   0  0  0  0  0  3  0  0  0  0  0  0
  188.6830  178.5060  140.0390 C   0  0  1  0  0  3  0  0  0  0  0  0
  190.5710  176.9440  139.8490 C   0  0  0  0  0  3  0  0  0  0  0  0
  188.5660  178.4270  138.5130 C   0  0  0  0  0  2  0  0  0  0  0  0
  188.8400  177.0100  137.9460 C   0  0  1  0  0  3  0  0  0  0  0  0
  189.7640  176.1520  138.8530 C   0  0  0  0  0  2  0  0  0  0  0  0
  187.6670  177.6810  140.6820 N   0  0  0  0  0  2  0  0  0  0  0  0
  186.0400  177.8680  142.3440 O   0  0  0  0  0  0  0  0  0  0  0  0
  187.1520  177.3020  142.9930 C   0  0  1  0  0  3  0  0  0  0  0  0
  187.3060  178.3220  141.9340 C   0  0  1  0  0  3  0  0  0  0  0  0
  187.3340  177.9540  144.3550 C   0  0  2  0  0  3  0  0  0  0  0  0
  188.7000  177.6560  144.8930 C   0  0  0  0  0  0  0  0  0  0  0  0
  191.1140  177.6180  144.6490 C   0  0  0  0  0  3  0  0  0  0  0  0
  190.0980  176.9430  146.7410 C   0  0  0  0  0  3  0  0  0  0  0  0
  191.2400  177.1510  145.9610 C   0  0  0  0  0  3  0  0  0  0  0  0
  188.8320  177.1980  146.2080 C   0  0  0  0  0  3  0  0  0  0  0  0
  189.8470  177.8730  144.1160 C   0  0  0  0  0  3  0  0  0  0  0  0
  186.3470  177.4960  145.2400 O   0  0  0  0  0  0  0  0  0  0  0  0
  185.6210  178.6210  145.6620 C   0  0  1  0  0  0  0  0  0  0  0  0
  185.9650  179.1050  147.0040 N   0  0  0  0  0  2  0  0  0  0  0  0
  185.3380  179.6370  144.7460 O   0  0  0  0  0  1  0  0  0  0  0  0
  184.6750  178.4280  146.7430 C   0  0  0  0  0  2  0  0  0  0  0  0
  187.5780  176.2980  137.6700 N   0  0  0  0  0  0  0  0  0  0  0  0
  189.2470  172.6660  135.5550 S   0  0  1  0  0  0  0  0  0  0  0  0
  189.0900  175.3090  136.0190 N   0  0  0  0  0  0  0  0  0  0  0  0
  187.7500  172.6270  136.5460 C   0  0  0  0  0  2  0  0  0  0  0  0
  188.8920  171.8110  134.3470 O   0  0  0  0  0  0  0  0  0  0  0  0
  187.8230  175.1500  136.7660 C   0  0  1  0  0  3  0  0  0  0  0  0
  189.1560  174.3460  134.9170 C   0  0  0  0  0  2  0  0  0  0  0  0
  187.7650  173.7980  137.5110 C   0  0  0  0  0  2  0  0  0  0  0  0
  190.3570  176.7790  134.4300 C   0  0  0  0  0  1  0  0  0  0  0  0
  189.2110  176.6550  135.4370 C   0  0  0  0  0  2  0  0  0  0  0  0
  186.6040  177.2140  137.0670 C   0  0  0  0  0  2  0  0  0  0  0  0
  184.2030  177.5810  136.5370 C   0  0  0  0  0  2  0  0  0  0  0  0
  185.2170  176.5880  137.0960 C   0  0  2  0  0  3  0  0  0  0  0  0
  183.7580  179.1260  139.5970 C   0  0  0  0  0  3  0  0  0  0  0  0
  182.3120  178.6660  139.5950 C   0  0  1  0  0  3  0  0  0  0  0  0
  183.0700  176.5520  138.5300 C   0  0  0  0  0  3  0  0  0  0  0  0
  184.6750  178.5130  138.8330 C   0  0  0  0  0  3  0  0  0  0  0  0
  184.2560  177.3160  138.0220 C   0  0  2  0  0  0  0  0  0  0  0  0
  182.1720  177.1900  139.2960 C   0  0  0  0  0  3  0  0  0  0  0  0
  182.4880  178.5720  142.0840 C   0  0  0  0  0  1  0  0  0  0  0  0
  181.6270  178.9980  140.9100 C   0  0  0  0  0  2  0  0  0  0  0  0
  2  1  1  0  0  0  0
  2  7  1  1  0  0  0
  3  1  2  0  0  0  0
  4  2  1  0  0  0  0
  5 23  1  1  0  0  0
  5  4  1  0  0  0  0
  5  6  1  0  0  0  0
  6  3  1  0  0  0  0
  8  9  1  0  0  0  0
  9 11  1  1  0  0  0
 10  7  1  6  0  0  0
 10  8  1  0  0  0  0
 10  9  1  0  0  0  0
 11 12  1  0  0  0  0
 11 18  1  1  0  0  0
 12 16  1  0  0  0  0
 13 15  2  0  0  0  0
 15 14  1  0  0  0  0
 16 14  2  0  0  0  0
 17 13  1  0  0  0  0
 17 12  2  0  0  0  0
 18 19  1  0  0  0  0
 19 21  1  6  0  0  0
 19 22  1  0  0  0  0
 19 20  1  0  0  0  0
 22 20  1  0  0  0  0
 24 27  2  6  0  0  0
 24 26  1  0  0  0  0
 25 28  1  0  0  0  0
 26 30  1  0  0  0  0
 28 30  1  0  0  0  0
 28 23  1  1  0  0  0
 29 24  1  0  0  0  0
 29 25  1  0  0  0  0
 31 32  1  0  0  0  0
 32 25  1  0  0  0  0
 33 23  1  0  0  0  0
 34 35  1  0  0  0  0
 35 33  1  1  0  0  0
 35 40  1  0  0  0  0
 37 36  1  0  0  0  0
 37 43  1  1  0  0  0
 38 41  2  0  0  0  0
 39 36  2  0  0  0  0
 40 34  1  6  0  0  0
 40 38  1  0  0  0  0
 40 39  1  0  0  0  0
 41 37  1  0  0  0  0
 43 42  1  0  0  0  0
M  END
>  <MODEL>
6

>  <REMARK>
 VINA RESULT:      -6.6      1.648      3.396
  Name = 
  12 active torsions:
  status: ('A' for Active; 'I' for Inactive)
    1  A    between atoms: C_4  and  C_14
    2  A    between atoms: C_6  and  N_17
    3  A    between atoms: C_8  and  C_34
    4  A    between atoms: C_10  and  O_41
    5  A    between atoms: C_11  and  C_14
    6  A    between atoms: C_12  and  N_17
    7  A    between atoms: C_14  and  O_41
    8  A    between atoms: N_16  and  C_43
    9  A    between atoms: C_19  and  C_37
   10  A    between atoms: C_21  and  N_30
   11  A    between atoms: C_27  and  N_30
   12  A    between atoms: N_30  and  C_34
                            x       y       z     vdW  Elec       q    Type
                         _______ _______ _______ _____ _____    ______ ____

>  <TORSDO>
F 12

$$$$
=
 OpenBabel10272414153D

 43 49  0  0  1  0  0  0  0  0999 V2000
  188.4220  176.9500  135.1900 C   0  0  0  0  0  3  0  0  0  0  0  0
  187.4000  177.8880  135.7580 C   0  0  1  0  0  3  0  0  0  0  0  0
  188.0910  175.6810  134.9290 C   0  0  0  0  0  3  0  0  0  0  0  0
  186.0840  177.6730  135.0030 C   0  0  0  0  0  2  0  0  0  0  0  0
  185.5760  176.2090  135.0540 C   0  0  1  0  0  3  0  0  0  0  0  0
  186.7130  175.1700  135.2560 C   0  0  0  0  0  2  0  0  0  0  0  0
  187.2270  177.6390  137.1840 N   0  0  0  0  0  2  0  0  0  0  0  0
  188.5010  178.7860  138.7680 O   0  0  0  0  0  0  0  0  0  0  0  0
  188.4180  177.4700  139.2590 C   0  0  1  0  0  3  0  0  0  0  0  0
  188.5320  177.7550  137.8120 C   0  0  1  0  0  3  0  0  0  0  0  0
  189.7730  177.0410  139.7990 C   0  0  2  0  0  3  0  0  0  0  0  0
  189.8250  177.2330  141.2830 C   0  0  0  0  0  0  0  0  0  0  0  0
  191.0770  177.4760  143.3480 C   0  0  0  0  0  3  0  0  0  0  0  0
  188.6610  177.6420  143.3700 C   0  0  0  0  0  3  0  0  0  0  0  0
  189.8820  177.6640  144.0500 C   0  0  0  0  0  3  0  0  0  0  0  0
  188.6340  177.4310  141.9890 C   0  0  0  0  0  3  0  0  0  0  0  0
  191.0490  177.2640  141.9660 C   0  0  0  0  0  3  0  0  0  0  0  0
  190.7920  177.7750  139.1730 O   0  0  0  0  0  0  0  0  0  0  0  0
  191.7150  176.8460  138.6670 C   0  0  1  0  0  0  0  0  0  0  0  0
  191.5100  176.4800  137.2620 N   0  0  0  0  0  2  0  0  0  0  0  0
  193.0590  176.9410  139.0410 O   0  0  0  0  0  1  0  0  0  0  0  0
  191.2120  175.5230  138.3520 C   0  0  0  0  0  2  0  0  0  0  0  0
  184.5350  176.0460  136.0870 N   0  0  0  0  0  0  0  0  0  0  0  0
  181.1360  173.0800  135.7860 S   0  0  1  0  0  0  0  0  0  0  0  0
  183.3340  174.0970  136.9500 N   0  0  0  0  0  0  0  0  0  0  0  0
  181.6130  174.1700  134.4410 C   0  0  0  0  0  2  0  0  0  0  0  0
  180.8620  171.7560  135.0860 O   0  0  0  0  0  0  0  0  0  0  0  0
  183.6530  174.9040  135.7520 C   0  0  1  0  0  3  0  0  0  0  0  0
  182.7400  172.8170  136.5590 C   0  0  0  0  0  2  0  0  0  0  0  0
  182.3750  175.3530  135.0100 C   0  0  0  0  0  2  0  0  0  0  0  0
  185.2510  172.5170  137.3050 C   0  0  0  0  0  1  0  0  0  0  0  0
  184.5400  173.8000  137.7410 C   0  0  0  0  0  2  0  0  0  0  0  0
  183.7430  177.2760  136.2020 C   0  0  0  0  0  2  0  0  0  0  0  0
  182.4190  178.5690  137.8610 C   0  0  0  0  0  2  0  0  0  0  0  0
  182.7890  177.1690  137.3830 C   0  0  2  0  0  3  0  0  0  0  0  0
  185.1960  178.8010  139.9050 C   0  0  0  0  0  3  0  0  0  0  0  0
  184.2780  178.8680  141.1110 C   0  0  1  0  0  3  0  0  0  0  0  0
  182.7870  177.2430  139.9630 C   0  0  0  0  0  3  0  0  0  0  0  0
  184.7670  178.2910  138.7410 C   0  0  0  0  0  3  0  0  0  0  0  0
  183.3740  177.7260  138.6710 C   0  0  2  0  0  0  0  0  0  0  0  0
  183.2400  177.7670  141.1120 C   0  0  0  0  0  3  0  0  0  0  0  0
  184.1400  178.6860  143.5970 C   0  0  0  0  0  1  0  0  0  0  0  0
  185.0690  178.8400  142.4080 C   0  0  0  0  0  2  0  0  0  0  0  0
  1  2  1  0  0  0  0
  2  7  1  1  0  0  0
  3  1  2  0  0  0  0
  3  6  1  0  0  0  0
  4  5  1  0  0  0  0
  4  2  1  0  0  0  0
  5  6  1  0  0  0  0
  5 23  1  1  0  0  0
  8  9  1  0  0  0  0
  9 11  1  1  0  0  0
 10  7  1  6  0  0  0
 10  8  1  0  0  0  0
 10  9  1  0  0  0  0
 11 18  1  6  0  0  0
 11 12  1  0  0  0  0
 12 17  2  0  0  0  0
 12 16  1  0  0  0  0
 13 15  2  0  0  0  0
 14 15  1  0  0  0  0
 16 14  2  0  0  0  0
 17 13  1  0  0  0  0
 19 21  1  1  0  0  0
 19 18  1  0  0  0  0
 20 22  1  0  0  0  0
 20 19  1  0  0  0  0
 22 19  1  0  0  0  0
 23 33  1  0  0  0  0
 24 27  2  6  0  0  0
 24 29  1  0  0  0  0
 25 32  1  0  0  0  0
 26 30  1  0  0  0  0
 26 24  1  0  0  0  0
 28 23  1  1  0  0  0
 28 25  1  0  0  0  0
 29 25  1  0  0  0  0
 30 28  1  0  0  0  0
 31 32  1  0  0  0  0
 35 33  1  6  0  0  0
 35 34  1  0  0  0  0
 35 40  1  0  0  0  0
 36 37  1  0  0  0  0
 37 41  1  0  0  0  0
 37 43  1  1  0  0  0
 38 41  2  0  0  0  0
 39 36  2  0  0  0  0
 40 34  1  6  0  0  0
 40 39  1  0  0  0  0
 40 38  1  0  0  0  0
 43 42  1  0  0  0  0
M  END
>  <MODEL>
7

>  <REMARK>
 VINA RESULT:      -6.6      2.900      4.867
  Name = 
  12 active torsions:
  status: ('A' for Active; 'I' for Inactive)
    1  A    between atoms: C_4  and  C_14
    2  A    between atoms: C_6  and  N_17
    3  A    between atoms: C_8  and  C_34
    4  A    between atoms: C_10  and  O_41
    5  A    between atoms: C_11  and  C_14
    6  A    between atoms: C_12  and  N_17
    7  A    between atoms: C_14  and  O_41
    8  A    between atoms: N_16  and  C_43
    9  A    between atoms: C_19  and  C_37
   10  A    between atoms: C_21  and  N_30
   11  A    between atoms: C_27  and  N_30
   12  A    between atoms: N_30  and  C_34
                            x       y       z     vdW  Elec       q    Type
                         _______ _______ _______ _____ _____    ______ ____

>  <TORSDO>
F 12

$$$$
=
 OpenBabel10272414153D

 43 49  0  0  1  0  0  0  0  0999 V2000
  185.9800  177.8150  134.5370 C   0  0  0  0  0  3  0  0  0  0  0  0
  185.8000  176.3900  134.9660 C   0  0  1  0  0  3  0  0  0  0  0  0
  187.1570  178.4230  134.7190 C   0  0  0  0  0  3  0  0  0  0  0  0
  187.0430  175.6020  134.5370 C   0  0  0  0  0  2  0  0  0  0  0  0
  188.3660  176.1840  135.1000 C   0  0  1  0  0  3  0  0  0  0  0  0
  188.2870  177.7050  135.4070 C   0  0  0  0  0  2  0  0  0  0  0  0
  185.6130  176.3200  136.4100 N   0  0  0  0  0  2  0  0  0  0  0  0
  183.3840  176.8440  136.8620 O   0  0  0  0  0  0  0  0  0  0  0  0
  184.0540  177.0450  138.0820 C   0  0  1  0  0  3  0  0  0  0  0  0
  184.6850  177.3730  136.7860 C   0  0  1  0  0  3  0  0  0  0  0  0
  183.5500  178.3210  138.7370 C   0  0  2  0  0  3  0  0  0  0  0  0
  184.1460  178.4730  140.1030 C   0  0  0  0  0  0  0  0  0  0  0  0
  186.0200  179.0010  141.5520 C   0  0  0  0  0  3  0  0  0  0  0  0
  183.8620  178.4650  142.5110 C   0  0  0  0  0  3  0  0  0  0  0  0
  185.2060  178.8150  142.6730 C   0  0  0  0  0  3  0  0  0  0  0  0
  183.3340  178.2980  141.2280 C   0  0  0  0  0  3  0  0  0  0  0  0
  185.4920  178.8340  140.2680 C   0  0  0  0  0  3  0  0  0  0  0  0
  182.1490  178.2990  138.8130 O   0  0  0  0  0  0  0  0  0  0  0  0
  181.6850  179.4510  138.1590 C   0  0  1  0  0  0  0  0  0  0  0  0
  182.3640  180.6920  138.5480 N   0  0  0  0  0  2  0  0  0  0  0  0
  181.3540  179.3830  136.8030 O   0  0  0  0  0  1  0  0  0  0  0  0
  180.9690  180.4220  138.9630 C   0  0  0  0  0  2  0  0  0  0  0  0
  188.8070  175.4370  136.2930 N   0  0  0  0  0  0  0  0  0  0  0  0
  193.1520  174.9760  137.4520 S   0  0  1  0  0  0  0  0  0  0  0  0
  190.6010  175.6640  137.9410 N   0  0  0  0  0  0  0  0  0  0  0  0
  192.5710  174.8860  135.7560 C   0  0  0  0  0  2  0  0  0  0  0  0
  194.4340  175.7900  137.3430 O   0  0  0  0  0  0  0  0  0  0  0  0
  190.2620  175.6140  136.5020 C   0  0  1  0  0  3  0  0  0  0  0  0
  191.9690  176.1530  138.1260 C   0  0  0  0  0  2  0  0  0  0  0  0
  191.0920  174.5460  135.7560 C   0  0  0  0  0  2  0  0  0  0  0  0
  190.3350  177.1440  139.9490 C   0  0  0  0  0  1  0  0  0  0  0  0
  189.7060  176.5700  138.6780 C   0  0  0  0  0  2  0  0  0  0  0  0
  188.4910  174.0120  136.1400 C   0  0  0  0  0  2  0  0  0  0  0  0
  187.5140  172.0400  137.2940 C   0  0  0  0  0  2  0  0  0  0  0  0
  187.5630  173.5640  137.2600 C   0  0  2  0  0  3  0  0  0  0  0  0
  185.0060  171.8860  134.9210 C   0  0  0  0  0  3  0  0  0  0  0  0
  184.0850  171.2770  135.9620 C   0  0  1  0  0  3  0  0  0  0  0  0
  185.1360  172.7730  137.6470 C   0  0  0  0  0  3  0  0  0  0  0  0
  186.0880  172.5890  135.2870 C   0  0  0  0  0  3  0  0  0  0  0  0
  186.3380  172.8180  136.7530 C   0  0  2  0  0  0  0  0  0  0  0  0
  184.0660  172.0670  137.2520 C   0  0  0  0  0  3  0  0  0  0  0  0
  181.6540  171.4310  136.5040 C   0  0  0  0  0  1  0  0  0  0  0  0
  182.6730  171.1210  135.4250 C   0  0  0  0  0  2  0  0  0  0  0  0
  1  3  2  0  0  0  0
  1  2  1  0  0  0  0
  2  7  1  1  0  0  0
  3  6  1  0  0  0  0
  4  2  1  0  0  0  0
  4  5  1  0  0  0  0
  5  6  1  0  0  0  0
  5 23  1  1  0  0  0
  8  9  1  0  0  0  0
  9 11  1  1  0  0  0
 10  7  1  6  0  0  0
 10  8  1  0  0  0  0
 10  9  1  0  0  0  0
 11 18  1  1  0  0  0
 11 12  1  0  0  0  0
 12 17  2  0  0  0  0
 12 16  1  0  0  0  0
 13 15  2  0  0  0  0
 14 15  1  0  0  0  0
 16 14  2  0  0  0  0
 17 13  1  0  0  0  0
 19 21  1  6  0  0  0
 19 20  1  0  0  0  0
 19 18  1  0  0  0  0
 19 22  1  0  0  0  0
 20 22  1  0  0  0  0
 24 27  2  6  0  0  0
 24 29  1  0  0  0  0
 25 29  1  0  0  0  0
 25 32  1  0  0  0  0
 26 24  1  0  0  0  0
 28 23  1  1  0  0  0
 28 25  1  0  0  0  0
 30 26  1  0  0  0  0
 30 28  1  0  0  0  0
 32 31  1  0  0  0  0
 33 23  1  0  0  0  0
 35 33  1  6  0  0  0
 35 34  1  0  0  0  0
 36 39  2  0  0  0  0
 36 37  1  0  0  0  0
 37 43  1  6  0  0  0
 37 41  1  0  0  0  0
 40 39  1  6  0  0  0
 40 35  1  0  0  0  0
 40 34  1  0  0  0  0
 40 38  1  0  0  0  0
 41 38  2  0  0  0  0
 43 42  1  0  0  0  0
M  END
>  <MODEL>
8

>  <REMARK>
 VINA RESULT:      -6.4      3.364      6.071
  Name = 
  12 active torsions:
  status: ('A' for Active; 'I' for Inactive)
    1  A    between atoms: C_4  and  C_14
    2  A    between atoms: C_6  and  N_17
    3  A    between atoms: C_8  and  C_34
    4  A    between atoms: C_10  and  O_41
    5  A    between atoms: C_11  and  C_14
    6  A    between atoms: C_12  and  N_17
    7  A    between atoms: C_14  and  O_41
    8  A    between atoms: N_16  and  C_43
    9  A    between atoms: C_19  and  C_37
   10  A    between atoms: C_21  and  N_30
   11  A    between atoms: C_27  and  N_30
   12  A    between atoms: N_30  and  C_34
                            x       y       z     vdW  Elec       q    Type
                         _______ _______ _______ _____ _____    ______ ____

>  <TORSDO>
F 12

$$$$
=
 OpenBabel10272414153D

 43 49  0  0  1  0  0  0  0  0999 V2000
  186.6190  178.4680  137.4320 C   0  0  0  0  0  3  0  0  0  0  0  0
  186.8730  177.7320  138.7130 C   0  0  1  0  0  3  0  0  0  0  0  0
  187.6350  178.7410  136.6060 C   0  0  0  0  0  3  0  0  0  0  0  0
  187.8340  176.5750  138.4150 C   0  0  0  0  0  2  0  0  0  0  0  0
  189.1670  177.0320  137.7680 C   0  0  1  0  0  3  0  0  0  0  0  0
  189.0440  178.3650  136.9810 C   0  0  0  0  0  2  0  0  0  0  0  0
  187.4400  178.6350  139.7070 N   0  0  0  0  0  2  0  0  0  0  0  0
  186.4110  179.7660  141.4710 O   0  0  0  0  0  0  0  0  0  0  0  0
  185.3540  179.1640  140.7640 C   0  0  1  0  0  3  0  0  0  0  0  0
  186.6620  178.4940  140.9250 C   0  0  1  0  0  3  0  0  0  0  0  0
  184.3570  178.5700  141.7470 C   0  0  2  0  0  3  0  0  0  0  0  0
  183.1360  178.0940  141.0230 C   0  0  0  0  0  0  0  0  0  0  0  0
  180.7610  178.2440  140.5440 C   0  0  0  0  0  3  0  0  0  0  0  0
  182.1370  176.6410  139.3580 C   0  0  0  0  0  3  0  0  0  0  0  0
  180.8870  177.2220  139.5970 C   0  0  0  0  0  3  0  0  0  0  0  0
  183.2580  177.0800  140.0680 C   0  0  0  0  0  3  0  0  0  0  0  0
  181.8830  178.6820  141.2540 C   0  0  0  0  0  3  0  0  0  0  0  0
  184.0120  179.5260  142.7150 O   0  0  0  0  0  0  0  0  0  0  0  0
  184.0420  178.8770  143.9600 C   0  0  1  0  0  0  0  0  0  0  0  0
  185.0550  179.3840  144.8920 N   0  0  0  0  0  2  0  0  0  0  0  0
  182.8400  178.5090  144.5700 O   0  0  0  0  0  1  0  0  0  0  0  0
  185.2040  178.0590  144.2490 C   0  0  0  0  0  2  0  0  0  0  0  0
  190.2400  177.1230  138.7770 N   0  0  0  0  0  0  0  0  0  0  0  0
  193.6090  174.8540  136.7900 S   0  0  1  0  0  0  0  0  0  0  0  0
  191.0130  175.3680  137.2560 N   0  0  0  0  0  0  0  0  0  0  0  0
  193.8480  175.9320  138.2060 C   0  0  0  0  0  2  0  0  0  0  0  0
  194.4930  173.6560  137.1070 O   0  0  0  0  0  0  0  0  0  0  0  0
  191.3390  176.1870  138.4440 C   0  0  1  0  0  3  0  0  0  0  0  0
  191.9500  174.2490  137.1350 C   0  0  0  0  0  2  0  0  0  0  0  0
  192.6930  176.9130  138.2830 C   0  0  0  0  0  2  0  0  0  0  0  0
  189.4570  173.5700  136.4580 C   0  0  0  0  0  1  0  0  0  0  0  0
  189.6580  174.8010  137.3440 C   0  0  0  0  0  2  0  0  0  0  0  0
  189.7060  176.8160  140.1090 C   0  0  0  0  0  2  0  0  0  0  0  0
  191.0810  176.5350  142.1600 C   0  0  0  0  0  2  0  0  0  0  0  0
  190.5130  177.5480  141.1720 C   0  0  2  0  0  3  0  0  0  0  0  0
  188.2140  176.5380  144.0900 C   0  0  0  0  0  3  0  0  0  0  0  0
  189.0150  177.1150  145.2430 C   0  0  1  0  0  3  0  0  0  0  0  0
  190.2910  178.4520  143.5800 C   0  0  0  0  0  3  0  0  0  0  0  0
  188.6510  176.6480  142.8270 C   0  0  0  0  0  3  0  0  0  0  0  0
  189.9210  177.4120  142.5660 C   0  0  2  0  0  0  0  0  0  0  0  0
  189.8350  178.3190  144.8350 C   0  0  0  0  0  3  0  0  0  0  0  0
  188.9300  177.6140  147.6870 C   0  0  0  0  0  1  0  0  0  0  0  0
  188.1160  177.4690  146.4150 C   0  0  0  0  0  2  0  0  0  0  0  0
  1  2  1  0  0  0  0
  2  7  1  1  0  0  0
  3  6  1  0  0  0  0
  3  1  2  0  0  0  0
  4  2  1  0  0  0  0
  5  4  1  0  0  0  0
  5 23  1  1  0  0  0
  6  5  1  0  0  0  0
  9 10  1  0  0  0  0
  9  8  1  0  0  0  0
  9 11  1  1  0  0  0
 10  7  1  6  0  0  0
 10  8  1  0  0  0  0
 11 18  1  1  0  0  0
 12 17  1  0  0  0  0
 12 11  1  0  0  0  0
 13 17  2  0  0  0  0
 14 15  2  0  0  0  0
 14 16  1  0  0  0  0
 15 13  1  0  0  0  0
 16 12  2  0  0  0  0
 18 19  1  0  0  0  0
 19 22  1  0  0  0  0
 19 21  1  1  0  0  0
 19 20  1  0  0  0  0
 22 20  1  0  0  0  0
 23 33  1  0  0  0  0
 24 27  2  1  0  0  0
 24 29  1  0  0  0  0
 24 26  1  0  0  0  0
 25 32  1  0  0  0  0
 25 28  1  0  0  0  0
 26 30  1  0  0  0  0
 28 23  1  6  0  0  0
 29 25  1  0  0  0  0
 30 28  1  0  0  0  0
 31 32  1  0  0  0  0
 35 33  1  6  0  0  0
 35 34  1  0  0  0  0
 35 40  1  0  0  0  0
 36 37  1  0  0  0  0
 37 43  1  1  0  0  0
 38 41  2  0  0  0  0
 39 36  2  0  0  0  0
 40 34  1  1  0  0  0
 40 39  1  0  0  0  0
 40 38  1  0  0  0  0
 41 37  1  0  0  0  0
 43 42  1  0  0  0  0
M  END
>  <MODEL>
9

>  <REMARK>
 VINA RESULT:      -6.4      2.673      5.699
  Name = 
  12 active torsions:
  status: ('A' for Active; 'I' for Inactive)
    1  A    between atoms: C_4  and  C_14
    2  A    between atoms: C_6  and  N_17
    3  A    between atoms: C_8  and  C_34
    4  A    between atoms: C_10  and  O_41
    5  A    between atoms: C_11  and  C_14
    6  A    between atoms: C_12  and  N_17
    7  A    between atoms: C_14  and  O_41
    8  A    between atoms: N_16  and  C_43
    9  A    between atoms: C_19  and  C_37
   10  A    between atoms: C_21  and  N_30
   11  A    between atoms: C_27  and  N_30
   12  A    between atoms: N_30  and  C_34
                            x       y       z     vdW  Elec       q    Type
                         _______ _______ _______ _____ _____    ______ ____

>  <TORSDO>
F 12

$$$$
