=
 OpenBabel10262423593D

 34 37  0  0  1  0  0  0  0  0999 V2000
  191.4000  177.0890  139.1230 C   0  0  2  0  0  3  0  0  0  0  0  0
  188.1220  176.6570  137.3220 C   0  0  0  0  0  2  0  0  0  0  0  0
  188.2500  177.8500  139.4470 N   0  0  0  0  0  0  0  0  0  0  0  0
  186.7100  178.5340  141.3170 C   0  0  0  0  0  0  0  0  0  0  0  0
  191.3180  176.3830  136.8910 C   0  0  0  0  0  2  0  0  0  0  0  0
  190.0740  175.5410  136.6580 C   0  0  0  0  0  2  0  0  0  0  0  0
  186.0930  178.6790  139.0370 O   0  0  0  0  0  0  0  0  0  0  0  0
  188.5810  177.9230  138.0260 C   0  0  0  0  0  2  0  0  0  0  0  0
  191.8870  176.0790  138.1960 N   0  0  0  0  0  2  0  0  0  0  0  0
  189.3290  177.6260  140.4280 C   0  0  1  0  0  3  0  0  0  0  0  0
  192.4390  177.4970  139.9590 O   0  0  0  0  0  1  0  0  0  0  0  0
  188.9870  176.3850  136.1840 N   0  0  0  0  0  2  0  0  0  0  0  0
  187.5780  178.0620  142.2110 C   0  0  0  0  0  3  0  0  0  0  0  0
  188.7680  177.2400  141.8100 C   0  0  2  0  0  3  0  0  0  0  0  0
  186.9750  178.3590  139.8800 C   0  0  0  0  0  0  0  0  0  0  0  0
  190.2700  176.5150  139.9610 C   0  0  0  0  0  2  0  0  0  0  0  0
  191.4600  176.2490  144.3130 C   0  0  0  0  0  0  0  0  0  0  0  0
  191.7830  177.4930  144.8650 C   0  0  0  0  0  3  0  0  0  0  0  0
  189.8180  177.3140  142.8760 C   0  0  0  0  0  0  0  0  0  0  0  0
  191.1260  178.6460  144.4240 C   0  0  0  0  0  3  0  0  0  0  0  0
  190.4810  176.1590  143.3200 C   0  0  0  0  0  3  0  0  0  0  0  0
  190.1460  178.5560  143.4310 C   0  0  0  0  0  3  0  0  0  0  0  0
  192.0980  175.1330  144.7390 F   0  0  0  0  0  0  0  0  0  0  0  0
  185.5580  179.3520  141.7940 C   0  0  0  0  0  2  0  0  0  0  0  0
  184.8890  178.6480  142.9570 C   0  0  0  0  0  2  0  0  0  0  0  0
  184.9700  179.5130  144.1980 C   0  0  0  0  0  2  0  0  0  0  0  0
  184.7220  178.6670  145.4400 C   0  0  0  0  0  2  0  0  0  0  0  0
  185.7220  179.8620  147.8040 O   0  0  0  0  0  0  0  0  0  0  0  0
  185.9830  178.2960  146.0760 N   0  0  0  0  0  0  0  0  0  0  0  0
  186.4220  178.9540  147.2820 C   0  0  0  0  0  0  0  0  0  0  0  0
  188.2170  177.2340  147.4940 C   0  0  0  0  0  2  0  0  0  0  0  0
  188.1430  177.0820  145.9850 C   0  0  0  0  0  2  0  0  0  0  0  0
  186.6830  177.1250  145.5450 C   0  0  0  0  0  2  0  0  0  0  0  0
  187.7530  178.6290  147.8900 C   0  0  0  0  0  2  0  0  0  0  0  0
  1 11  1  1  0  0  0
  1 16  1  0  0  0  0
  2  8  1  0  0  0  0
  3 15  1  0  0  0  0
  3 10  1  0  0  0  0
  4 24  1  0  0  0  0
  4 13  2  0  0  0  0
  5  9  1  0  0  0  0
  6  5  1  0  0  0  0
  7 15  2  0  0  0  0
  8  3  1  0  0  0  0
  9  1  1  0  0  0  0
 10 16  1  6  0  0  0
 10 14  1  0  0  0  0
 12  6  1  0  0  0  0
 12  2  1  0  0  0  0
 14 13  1  0  0  0  0
 14 19  1  1  0  0  0
 15  4  1  0  0  0  0
 17 23  1  0  0  0  0
 17 18  1  0  0  0  0
 19 21  1  0  0  0  0
 19 22  2  0  0  0  0
 20 18  2  0  0  0  0
 21 17  2  0  0  0  0
 22 20  1  0  0  0  0
 24 25  1  0  0  0  0
 25 26  1  0  0  0  0
 26 27  1  0  0  0  0
 27 29  1  0  0  0  0
 29 30  1  0  0  0  0
 30 28  2  0  0  0  0
 30 34  1  0  0  0  0
 31 34  1  0  0  0  0
 32 31  1  0  0  0  0
 33 32  1  0  0  0  0
 33 29  1  0  0  0  0
M  END
>  <MODEL>
1

>  <REMARK>
 VINA RESULT:      -9.6      0.000      0.000
  Name = 
  6 active torsions:
  status: ('A' for Active; 'I' for Inactive)
    1  A    between atoms: C_3  and  N_13
    2  A    between atoms: C_3  and  C_17
    3  A    between atoms: C_5  and  C_18
    4  A    between atoms: C_12  and  C_28
    5  A    between atoms: C_17  and  C_29
    6  A    between atoms: C_18  and  C_29
                            x       y       z     vdW  Elec       q    Type
                         _______ _______ _______ _____ _____    ______ ____

>  <TORSDO>
F 6

$$$$
=
 OpenBabel10262423593D

 34 37  0  0  1  0  0  0  0  0999 V2000
  190.6260  177.8860  142.7510 C   0  0  2  0  0  3  0  0  0  0  0  0
  188.3930  177.5480  139.7380 C   0  0  0  0  0  2  0  0  0  0  0  0
  187.5530  178.4630  141.8390 N   0  0  0  0  0  0  0  0  0  0  0  0
  185.3400  178.8340  142.9790 C   0  0  0  0  0  0  0  0  0  0  0  0
  191.5060  177.4690  140.6210 C   0  0  0  0  0  2  0  0  0  0  0  0
  190.5410  176.6120  139.8180 C   0  0  0  0  0  2  0  0  0  0  0  0
  185.6730  179.2440  140.6720 O   0  0  0  0  0  0  0  0  0  0  0  0
  188.4160  178.7310  140.6910 C   0  0  0  0  0  2  0  0  0  0  0  0
  191.5320  177.0250  142.0060 N   0  0  0  0  0  2  0  0  0  0  0  0
  188.1660  178.1620  143.1470 C   0  0  1  0  0  3  0  0  0  0  0  0
  191.2030  178.2280  143.9740 O   0  0  0  0  0  1  0  0  0  0  0  0
  189.6610  177.4620  139.0300 N   0  0  0  0  0  2  0  0  0  0  0  0
  185.8180  178.2890  144.0960 C   0  0  0  0  0  3  0  0  0  0  0  0
  187.1390  177.5770  144.1340 C   0  0  2  0  0  3  0  0  0  0  0  0
  186.1700  178.8560  141.7650 C   0  0  0  0  0  0  0  0  0  0  0  0
  189.3130  177.1610  142.9950 C   0  0  0  0  0  2  0  0  0  0  0  0
  189.3650  176.9390  147.1560 C   0  0  0  0  0  0  0  0  0  0  0  0
  188.6220  177.5520  148.1700 C   0  0  0  0  0  3  0  0  0  0  0  0
  187.6650  177.5590  145.5370 C   0  0  0  0  0  0  0  0  0  0  0  0
  187.4030  178.1670  147.8700 C   0  0  0  0  0  3  0  0  0  0  0  0
  188.8890  176.9430  145.8420 C   0  0  0  0  0  3  0  0  0  0  0  0
  186.9260  178.1720  146.5560 C   0  0  0  0  0  3  0  0  0  0  0  0
  190.5460  176.3440  147.4470 F   0  0  0  0  0  0  0  0  0  0  0  0
  184.0240  179.5340  143.0250 C   0  0  0  0  0  2  0  0  0  0  0  0
  182.9620  178.5750  143.5270 C   0  0  0  0  0  2  0  0  0  0  0  0
  181.5850  179.1200  143.2090 C   0  0  0  0  0  2  0  0  0  0  0  0
  180.9620  178.3260  142.0690 C   0  0  0  0  0  2  0  0  0  0  0  0
  182.9150  177.3450  140.2670 O   0  0  0  0  0  0  0  0  0  0  0  0
  181.2700  178.9390  140.7790 N   0  0  0  0  0  0  0  0  0  0  0  0
  182.2800  178.3770  139.9180 C   0  0  0  0  0  0  0  0  0  0  0  0
  181.5140  179.9190  138.1130 C   0  0  0  0  0  2  0  0  0  0  0  0
  181.0390  180.8490  139.2160 C   0  0  0  0  0  2  0  0  0  0  0  0
  180.3990  180.0270  140.3290 C   0  0  0  0  0  2  0  0  0  0  0  0
  182.6520  179.0510  138.6320 C   0  0  0  0  0  2  0  0  0  0  0  0
  1 16  1  0  0  0  0
  1 11  1  1  0  0  0
  2  8  1  0  0  0  0
  3 10  1  0  0  0  0
  4 24  1  0  0  0  0
  4 13  2  0  0  0  0
  5  9  1  0  0  0  0
  6  5  1  0  0  0  0
  7 15  2  0  0  0  0
  8  3  1  0  0  0  0
  9  1  1  0  0  0  0
 10 16  1  6  0  0  0
 10 14  1  0  0  0  0
 12  2  1  0  0  0  0
 12  6  1  0  0  0  0
 13 14  1  0  0  0  0
 14 19  1  1  0  0  0
 15  3  1  0  0  0  0
 15  4  1  0  0  0  0
 17 23  1  0  0  0  0
 17 18  1  0  0  0  0
 19 21  1  0  0  0  0
 19 22  2  0  0  0  0
 20 18  2  0  0  0  0
 21 17  2  0  0  0  0
 22 20  1  0  0  0  0
 24 25  1  0  0  0  0
 26 25  1  0  0  0  0
 27 26  1  0  0  0  0
 29 27  1  0  0  0  0
 30 28  2  0  0  0  0
 30 29  1  0  0  0  0
 31 34  1  0  0  0  0
 31 32  1  0  0  0  0
 32 33  1  0  0  0  0
 33 29  1  0  0  0  0
 34 30  1  0  0  0  0
M  END
>  <MODEL>
2

>  <REMARK>
 VINA RESULT:      -9.1      2.949      5.264
  Name = 
  6 active torsions:
  status: ('A' for Active; 'I' for Inactive)
    1  A    between atoms: C_3  and  N_13
    2  A    between atoms: C_3  and  C_17
    3  A    between atoms: C_5  and  C_18
    4  A    between atoms: C_12  and  C_28
    5  A    between atoms: C_17  and  C_29
    6  A    between atoms: C_18  and  C_29
                            x       y       z     vdW  Elec       q    Type
                         _______ _______ _______ _____ _____    ______ ____

>  <TORSDO>
F 6

$$$$
=
 OpenBabel10262423593D

 34 37  0  0  1  0  0  0  0  0999 V2000
  190.8970  177.9100  142.6080 C   0  0  2  0  0  3  0  0  0  0  0  0
  188.7610  177.4250  139.5450 C   0  0  0  0  0  2  0  0  0  0  0  0
  187.8200  178.3080  141.6160 N   0  0  0  0  0  0  0  0  0  0  0  0
  185.5630  178.5640  142.6990 C   0  0  0  0  0  0  0  0  0  0  0  0
  191.8510  177.5260  140.5020 C   0  0  0  0  0  2  0  0  0  0  0  0
  190.9550  176.6100  139.6850 C   0  0  0  0  0  2  0  0  0  0  0  0
  185.9280  178.9740  140.3980 O   0  0  0  0  0  0  0  0  0  0  0  0
  188.6940  178.6150  140.4870 C   0  0  0  0  0  2  0  0  0  0  0  0
  191.8680  177.0960  141.8920 N   0  0  0  0  0  2  0  0  0  0  0  0
  188.4170  178.0520  142.9410 C   0  0  1  0  0  3  0  0  0  0  0  0
  191.4250  178.2930  143.8400 O   0  0  0  0  0  1  0  0  0  0  0  0
  190.0490  177.4040  138.8680 N   0  0  0  0  0  2  0  0  0  0  0  0
  186.0420  178.0550  143.8330 C   0  0  0  0  0  3  0  0  0  0  0  0
  187.3990  177.4190  143.9090 C   0  0  2  0  0  3  0  0  0  0  0  0
  186.4200  178.6230  141.5050 C   0  0  0  0  0  0  0  0  0  0  0  0
  189.6210  177.1150  142.8260 C   0  0  0  0  0  2  0  0  0  0  0  0
  189.5880  176.9390  146.9880 C   0  0  0  0  0  0  0  0  0  0  0  0
  188.7830  177.5070  147.9790 C   0  0  0  0  0  3  0  0  0  0  0  0
  187.8920  177.4410  145.3240 C   0  0  0  0  0  0  0  0  0  0  0  0
  187.5340  178.0420  147.6460 C   0  0  0  0  0  3  0  0  0  0  0  0
  189.1450  176.9060  145.6630 C   0  0  0  0  0  3  0  0  0  0  0  0
  187.0900  178.0090  146.3210 C   0  0  0  0  0  3  0  0  0  0  0  0
  190.7970  176.4230  147.3110 F   0  0  0  0  0  0  0  0  0  0  0  0
  184.2090  179.1900  142.7070 C   0  0  0  0  0  2  0  0  0  0  0  0
  183.2010  178.2150  142.1310 C   0  0  0  0  0  2  0  0  0  0  0  0
  182.2810  178.9360  141.1680 C   0  0  0  0  0  2  0  0  0  0  0  0
  181.4450  177.9260  140.3930 C   0  0  0  0  0  2  0  0  0  0  0  0
  181.2850  175.1740  139.7460 O   0  0  0  0  0  0  0  0  0  0  0  0
  182.2430  177.2810  139.3530 N   0  0  0  0  0  0  0  0  0  0  0  0
  182.1020  175.8710  139.0850 C   0  0  0  0  0  0  0  0  0  0  0  0
  183.4990  176.1810  137.0420 C   0  0  0  0  0  2  0  0  0  0  0  0
  184.1300  177.3690  137.7480 C   0  0  0  0  0  2  0  0  0  0  0  0
  183.0490  178.1470  138.4910 C   0  0  0  0  0  2  0  0  0  0  0  0
  182.9760  175.1930  138.0740 C   0  0  0  0  0  2  0  0  0  0  0  0
  1 16  1  0  0  0  0
  1 11  1  1  0  0  0
  2  8  1  0  0  0  0
  3 10  1  0  0  0  0
  4 24  1  0  0  0  0
  4 13  2  0  0  0  0
  5  9  1  0  0  0  0
  6  5  1  0  0  0  0
  7 15  2  0  0  0  0
  8  3  1  0  0  0  0
  9  1  1  0  0  0  0
 10 16  1  6  0  0  0
 10 14  1  0  0  0  0
 12  2  1  0  0  0  0
 12  6  1  0  0  0  0
 13 14  1  0  0  0  0
 14 19  1  1  0  0  0
 15  3  1  0  0  0  0
 15  4  1  0  0  0  0
 17 23  1  0  0  0  0
 17 18  1  0  0  0  0
 19 21  1  0  0  0  0
 19 22  2  0  0  0  0
 20 18  2  0  0  0  0
 21 17  2  0  0  0  0
 22 20  1  0  0  0  0
 25 24  1  0  0  0  0
 26 25  1  0  0  0  0
 27 26  1  0  0  0  0
 29 27  1  0  0  0  0
 30 29  1  0  0  0  0
 30 28  2  0  0  0  0
 31 32  1  0  0  0  0
 31 34  1  0  0  0  0
 32 33  1  0  0  0  0
 33 29  1  0  0  0  0
 34 30  1  0  0  0  0
M  END
>  <MODEL>
3

>  <REMARK>
 VINA RESULT:      -8.6      2.929      5.329
  Name = 
  6 active torsions:
  status: ('A' for Active; 'I' for Inactive)
    1  A    between atoms: C_3  and  N_13
    2  A    between atoms: C_3  and  C_17
    3  A    between atoms: C_5  and  C_18
    4  A    between atoms: C_12  and  C_28
    5  A    between atoms: C_17  and  C_29
    6  A    between atoms: C_18  and  C_29
                            x       y       z     vdW  Elec       q    Type
                         _______ _______ _______ _____ _____    ______ ____

>  <TORSDO>
F 6

$$$$
=
 OpenBabel10262423593D

 34 37  0  0  1  0  0  0  0  0999 V2000
  183.8160  179.1580  140.4470 C   0  0  2  0  0  3  0  0  0  0  0  0
  181.4840  178.4130  143.3080 C   0  0  0  0  0  2  0  0  0  0  0  0
  183.8490  178.8760  143.6920 N   0  0  0  0  0  0  0  0  0  0  0  0
  185.5760  178.4910  145.4820 C   0  0  0  0  0  0  0  0  0  0  0  0
  181.4910  179.1840  140.1640 C   0  0  0  0  0  2  0  0  0  0  0  0
  180.8460  178.1450  141.0680 C   0  0  0  0  0  2  0  0  0  0  0  0
  183.3580  179.1580  145.9690 O   0  0  0  0  0  0  0  0  0  0  0  0
  182.5720  179.4730  143.3100 C   0  0  0  0  0  2  0  0  0  0  0  0
  182.7320  178.6610  139.6130 N   0  0  0  0  0  2  0  0  0  0  0  0
  184.8850  178.6680  142.6610 C   0  0  1  0  0  3  0  0  0  0  0  0
  184.8810  179.5590  139.6410 O   0  0  0  0  0  1  0  0  0  0  0  0
  180.4620  178.7580  142.3310 N   0  0  0  0  0  2  0  0  0  0  0  0
  186.4270  178.0260  144.5690 C   0  0  0  0  0  3  0  0  0  0  0  0
  186.0020  177.7330  143.1600 C   0  0  2  0  0  3  0  0  0  0  0  0
  184.2050  178.8500  145.0860 C   0  0  0  0  0  0  0  0  0  0  0  0
  184.2790  178.0630  141.3930 C   0  0  0  0  0  2  0  0  0  0  0  0
  189.3260  176.8550  141.5230 C   0  0  0  0  0  0  0  0  0  0  0  0
  189.4080  177.8430  140.5370 C   0  0  0  0  0  3  0  0  0  0  0  0
  187.1960  177.7620  142.2540 C   0  0  0  0  0  0  0  0  0  0  0  0
  188.3860  178.7880  140.4070 C   0  0  0  0  0  3  0  0  0  0  0  0
  188.2230  176.8140  142.3810 C   0  0  0  0  0  3  0  0  0  0  0  0
  187.2820  178.7480  141.2640 C   0  0  0  0  0  3  0  0  0  0  0  0
  190.3150  175.9390  141.6480 F   0  0  0  0  0  0  0  0  0  0  0  0
  186.0770  178.7680  146.8590 C   0  0  0  0  0  2  0  0  0  0  0  0
  187.1470  177.7560  147.2180 C   0  0  0  0  0  2  0  0  0  0  0  0
  188.2450  178.4290  148.0150 C   0  0  0  0  0  2  0  0  0  0  0  0
  189.4060  177.4640  148.2180 C   0  0  0  0  0  2  0  0  0  0  0  0
  191.4180  175.5060  147.8490 O   0  0  0  0  0  0  0  0  0  0  0  0
  190.1510  177.2790  146.9760 N   0  0  0  0  0  0  0  0  0  0  0  0
  191.1630  176.2570  146.8680 C   0  0  0  0  0  0  0  0  0  0  0  0
  191.2520  176.6890  144.4130 C   0  0  0  0  0  2  0  0  0  0  0  0
  190.7790  178.0980  144.7230 C   0  0  0  0  0  2  0  0  0  0  0  0
  189.7100  178.0450  145.8090 C   0  0  0  0  0  2  0  0  0  0  0  0
  191.9820  176.1180  145.6210 C   0  0  0  0  0  2  0  0  0  0  0  0
  1 11  1  6  0  0  0
  1 16  1  0  0  0  0
  2  8  1  0  0  0  0
  3 15  1  0  0  0  0
  4 24  1  0  0  0  0
  5  6  1  0  0  0  0
  6 12  1  0  0  0  0
  8  3  1  0  0  0  0
  9  5  1  0  0  0  0
  9  1  1  0  0  0  0
 10 16  1  6  0  0  0
 10 14  1  0  0  0  0
 10  3  1  0  0  0  0
 12  2  1  0  0  0  0
 13  4  2  0  0  0  0
 14 19  1  6  0  0  0
 14 13  1  0  0  0  0
 15  4  1  0  0  0  0
 15  7  2  0  0  0  0
 17 23  1  0  0  0  0
 17 21  1  0  0  0  0
 18 17  2  0  0  0  0
 19 21  2  0  0  0  0
 20 18  1  0  0  0  0
 20 22  2  0  0  0  0
 22 19  1  0  0  0  0
 24 25  1  0  0  0  0
 25 26  1  0  0  0  0
 26 27  1  0  0  0  0
 29 27  1  0  0  0  0
 30 29  1  0  0  0  0
 30 28  2  0  0  0  0
 31 32  1  0  0  0  0
 31 34  1  0  0  0  0
 32 33  1  0  0  0  0
 33 29  1  0  0  0  0
 34 30  1  0  0  0  0
M  END
>  <MODEL>
4

>  <REMARK>
 VINA RESULT:      -8.6      3.245      6.225
  Name = 
  6 active torsions:
  status: ('A' for Active; 'I' for Inactive)
    1  A    between atoms: C_3  and  N_13
    2  A    between atoms: C_3  and  C_17
    3  A    between atoms: C_5  and  C_18
    4  A    between atoms: C_12  and  C_28
    5  A    between atoms: C_17  and  C_29
    6  A    between atoms: C_18  and  C_29
                            x       y       z     vdW  Elec       q    Type
                         _______ _______ _______ _____ _____    ______ ____

>  <TORSDO>
F 6

$$$$
=
 OpenBabel10262423593D

 34 37  0  0  1  0  0  0  0  0999 V2000
  188.5700  178.1340  146.8000 C   0  0  2  0  0  3  0  0  0  0  0  0
  191.3260  176.4670  144.8480 C   0  0  0  0  0  2  0  0  0  0  0  0
  189.5970  177.7770  143.7290 N   0  0  0  0  0  0  0  0  0  0  0  0
  188.6100  178.0140  141.4260 C   0  0  0  0  0  0  0  0  0  0  0  0
  190.4790  177.2880  147.8610 C   0  0  0  0  0  2  0  0  0  0  0  0
  190.9780  176.0540  147.1290 C   0  0  0  0  0  2  0  0  0  0  0  0
  190.9340  177.7760  141.8000 O   0  0  0  0  0  0  0  0  0  0  0  0
  190.7770  177.8600  144.5850 C   0  0  0  0  0  2  0  0  0  0  0  0
  189.0250  177.2930  147.8960 N   0  0  0  0  0  2  0  0  0  0  0  0
  188.2620  178.0100  144.3150 C   0  0  1  0  0  3  0  0  0  0  0  0
  187.5130  178.9340  147.2300 O   0  0  0  0  0  1  0  0  0  0  0  0
  191.9820  176.4330  146.1450 N   0  0  0  0  0  2  0  0  0  0  0  0
  187.3830  177.9360  141.9370 C   0  0  0  0  0  3  0  0  0  0  0  0
  187.1380  177.5510  143.3670 C   0  0  2  0  0  3  0  0  0  0  0  0
  189.7780  177.8410  142.3020 C   0  0  0  0  0  0  0  0  0  0  0  0
  188.1110  177.2640  145.6410 C   0  0  0  0  0  2  0  0  0  0  0  0
  183.5240  178.7470  143.3130 C   0  0  0  0  0  0  0  0  0  0  0  0
  183.3060  179.0030  144.6700 C   0  0  0  0  0  3  0  0  0  0  0  0
  185.7990  178.0600  143.8080 C   0  0  0  0  0  0  0  0  0  0  0  0
  184.3320  178.7880  145.5960 C   0  0  0  0  0  3  0  0  0  0  0  0
  184.7670  178.2760  142.8810 C   0  0  0  0  0  3  0  0  0  0  0  0
  185.5750  178.3170  145.1660 C   0  0  0  0  0  3  0  0  0  0  0  0
  182.5300  178.9540  142.4170 F   0  0  0  0  0  0  0  0  0  0  0  0
  188.7700  178.4130  139.9980 C   0  0  0  0  0  2  0  0  0  0  0  0
  188.9990  177.1760  139.1520 C   0  0  0  0  0  2  0  0  0  0  0  0
  188.0320  177.1640  137.9860 C   0  0  0  0  0  2  0  0  0  0  0  0
  187.1500  178.4050  138.0300 C   0  0  0  0  0  2  0  0  0  0  0  0
  185.2040  179.5380  139.7460 O   0  0  0  0  0  0  0  0  0  0  0  0
  185.7360  178.0380  138.0210 N   0  0  0  0  0  0  0  0  0  0  0  0
  184.8070  178.6640  138.9300 C   0  0  0  0  0  0  0  0  0  0  0  0
  182.9420  177.5980  137.6600 C   0  0  0  0  0  2  0  0  0  0  0  0
  183.9320  176.5150  137.2690 C   0  0  0  0  0  2  0  0  0  0  0  0
  185.2790  177.1530  136.9490 C   0  0  0  0  0  2  0  0  0  0  0  0
  183.3730  178.2310  138.9760 C   0  0  0  0  0  2  0  0  0  0  0  0
  1 11  1  1  0  0  0
  1  9  1  0  0  0  0
  2 12  1  0  0  0  0
  3 10  1  0  0  0  0
  3  8  1  0  0  0  0
  4 13  2  0  0  0  0
  4 15  1  0  0  0  0
  5  9  1  0  0  0  0
  6  5  1  0  0  0  0
  7 15  2  0  0  0  0
  8  2  1  0  0  0  0
 10 16  1  1  0  0  0
 12  6  1  0  0  0  0
 13 14  1  0  0  0  0
 14 19  1  1  0  0  0
 14 10  1  0  0  0  0
 15  3  1  0  0  0  0
 16  1  1  0  0  0  0
 17 18  1  0  0  0  0
 18 20  2  0  0  0  0
 19 22  2  0  0  0  0
 21 17  2  0  0  0  0
 21 19  1  0  0  0  0
 22 20  1  0  0  0  0
 23 17  1  0  0  0  0
 24  4  1  0  0  0  0
 25 24  1  0  0  0  0
 26 27  1  0  0  0  0
 26 25  1  0  0  0  0
 29 27  1  0  0  0  0
 29 30  1  0  0  0  0
 30 34  1  0  0  0  0
 30 28  2  0  0  0  0
 31 34  1  0  0  0  0
 32 31  1  0  0  0  0
 33 32  1  0  0  0  0
 33 29  1  0  0  0  0
M  END
>  <MODEL>
5

>  <REMARK>
 VINA RESULT:      -8.4      3.010      7.624
  Name = 
  6 active torsions:
  status: ('A' for Active; 'I' for Inactive)
    1  A    between atoms: C_3  and  N_13
    2  A    between atoms: C_3  and  C_17
    3  A    between atoms: C_5  and  C_18
    4  A    between atoms: C_12  and  C_28
    5  A    between atoms: C_17  and  C_29
    6  A    between atoms: C_18  and  C_29
                            x       y       z     vdW  Elec       q    Type
                         _______ _______ _______ _____ _____    ______ ____

>  <TORSDO>
F 6

$$$$
=
 OpenBabel10262423593D

 34 37  0  0  1  0  0  0  0  0999 V2000
  186.2250  176.8250  137.1710 C   0  0  2  0  0  3  0  0  0  0  0  0
  189.8590  177.2790  136.2950 C   0  0  0  0  0  2  0  0  0  0  0  0
  189.1380  177.0390  138.6140 N   0  0  0  0  0  0  0  0  0  0  0  0
  190.0090  177.5510  140.9190 C   0  0  0  0  0  0  0  0  0  0  0  0
  186.9910  176.5800  134.9700 C   0  0  0  0  0  2  0  0  0  0  0  0
  188.1480  177.5320  134.7130 C   0  0  0  0  0  2  0  0  0  0  0  0
  191.3770  176.6620  139.2050 O   0  0  0  0  0  0  0  0  0  0  0  0
  189.3180  176.3290  137.3510 C   0  0  0  0  0  2  0  0  0  0  0  0
  185.9840  177.2320  135.7950 N   0  0  0  0  0  2  0  0  0  0  0  0
  187.7720  177.3690  139.0670 C   0  0  1  0  0  3  0  0  0  0  0  0
  185.0110  176.5470  137.7970 O   0  0  0  0  0  1  0  0  0  0  0  0
  189.4110  176.8580  134.9770 N   0  0  0  0  0  2  0  0  0  0  0  0
  188.8460  178.1160  141.2390 C   0  0  0  0  0  3  0  0  0  0  0  0
  187.7870  178.3970  140.2140 C   0  0  2  0  0  3  0  0  0  0  0  0
  190.2330  177.0700  139.5470 C   0  0  0  0  0  0  0  0  0  0  0  0
  186.9380  177.9390  137.9180 C   0  0  0  0  0  2  0  0  0  0  0  0
  185.0400  178.3090  142.8490 C   0  0  0  0  0  0  0  0  0  0  0  0
  183.9350  178.7200  142.0970 C   0  0  0  0  0  3  0  0  0  0  0  0
  186.4490  178.5030  140.8810 C   0  0  0  0  0  0  0  0  0  0  0  0
  184.0850  179.0220  140.7400 C   0  0  0  0  0  3  0  0  0  0  0  0
  186.2950  178.2010  142.2440 C   0  0  0  0  0  3  0  0  0  0  0  0
  185.3400  178.9140  140.1340 C   0  0  0  0  0  3  0  0  0  0  0  0
  184.8940  178.0180  144.1630 F   0  0  0  0  0  0  0  0  0  0  0  0
  191.0060  177.2950  141.9980 C   0  0  0  0  0  2  0  0  0  0  0  0
  190.6690  175.9910  142.6950 C   0  0  0  0  0  2  0  0  0  0  0  0
  191.3380  175.9460  144.0530 C   0  0  0  0  0  2  0  0  0  0  0  0
  191.2310  177.3060  144.7310 C   0  0  0  0  0  2  0  0  0  0  0  0
  191.2420  176.7310  147.5040 O   0  0  0  0  0  0  0  0  0  0  0  0
  190.0480  177.3670  145.5860 N   0  0  0  0  0  0  0  0  0  0  0  0
  190.1380  177.0590  146.9920 C   0  0  0  0  0  0  0  0  0  0  0  0
  187.8150  177.9250  147.2690 C   0  0  0  0  0  2  0  0  0  0  0  0
  187.5870  177.5560  145.8140 C   0  0  0  0  0  2  0  0  0  0  0  0
  188.8250  177.9190  145.0010 C   0  0  0  0  0  2  0  0  0  0  0  0
  188.9120  177.0460  147.8530 C   0  0  0  0  0  2  0  0  0  0  0  0
  1 11  1  1  0  0  0
  1 16  1  0  0  0  0
  2  8  1  0  0  0  0
  3 10  1  0  0  0  0
  3 15  1  0  0  0  0
  4 13  2  0  0  0  0
  4 24  1  0  0  0  0
  5  9  1  0  0  0  0
  6  5  1  0  0  0  0
  6 12  1  0  0  0  0
  7 15  2  0  0  0  0
  8  3  1  0  0  0  0
  9  1  1  0  0  0  0
 10 16  1  6  0  0  0
 10 14  1  0  0  0  0
 12  2  1  0  0  0  0
 14 19  1  1  0  0  0
 14 13  1  0  0  0  0
 15  4  1  0  0  0  0
 17 23  1  0  0  0  0
 18 17  2  0  0  0  0
 19 21  2  0  0  0  0
 20 18  1  0  0  0  0
 21 17  1  0  0  0  0
 22 20  2  0  0  0  0
 22 19  1  0  0  0  0
 24 25  1  0  0  0  0
 25 26  1  0  0  0  0
 26 27  1  0  0  0  0
 27 29  1  0  0  0  0
 29 30  1  0  0  0  0
 30 28  2  0  0  0  0
 30 34  1  0  0  0  0
 31 34  1  0  0  0  0
 32 31  1  0  0  0  0
 33 29  1  0  0  0  0
 33 32  1  0  0  0  0
M  END
>  <MODEL>
6

>  <REMARK>
 VINA RESULT:      -8.3      2.385      4.968
  Name = 
  6 active torsions:
  status: ('A' for Active; 'I' for Inactive)
    1  A    between atoms: C_3  and  N_13
    2  A    between atoms: C_3  and  C_17
    3  A    between atoms: C_5  and  C_18
    4  A    between atoms: C_12  and  C_28
    5  A    between atoms: C_17  and  C_29
    6  A    between atoms: C_18  and  C_29
                            x       y       z     vdW  Elec       q    Type
                         _______ _______ _______ _____ _____    ______ ____

>  <TORSDO>
F 6

$$$$
=
 OpenBabel10262423593D

 34 37  0  0  1  0  0  0  0  0999 V2000
  188.5050  178.1100  146.6470 C   0  0  2  0  0  3  0  0  0  0  0  0
  191.4340  176.4880  144.9240 C   0  0  0  0  0  2  0  0  0  0  0  0
  189.7840  177.7770  143.6700 N   0  0  0  0  0  0  0  0  0  0  0  0
  188.9860  178.0060  141.2940 C   0  0  0  0  0  0  0  0  0  0  0  0
  190.3320  177.2880  147.8600 C   0  0  0  0  0  2  0  0  0  0  0  0
  190.9060  176.0630  147.1680 C   0  0  0  0  0  2  0  0  0  0  0  0
  191.2750  177.8000  141.8580 O   0  0  0  0  0  0  0  0  0  0  0  0
  190.8880  177.8730  144.6210 C   0  0  0  0  0  2  0  0  0  0  0  0
  188.8800  177.2720  147.7760 N   0  0  0  0  0  2  0  0  0  0  0  0
  188.4030  177.9900  144.1450 C   0  0  1  0  0  3  0  0  0  0  0  0
  187.4040  178.8950  146.9910 O   0  0  0  0  0  1  0  0  0  0  0  0
  191.9820  176.4590  146.2720 N   0  0  0  0  0  2  0  0  0  0  0  0
  187.7220  177.9100  141.7030 C   0  0  0  0  0  3  0  0  0  0  0  0
  187.3670  177.5180  143.1080 C   0  0  2  0  0  3  0  0  0  0  0  0
  190.0810  177.8470  142.2630 C   0  0  0  0  0  0  0  0  0  0  0  0
  188.1540  177.2380  145.4540 C   0  0  0  0  0  2  0  0  0  0  0  0
  184.2860  178.6110  145.0590 C   0  0  0  0  0  0  0  0  0  0  0  0
  183.4090  178.9300  144.0180 C   0  0  0  0  0  3  0  0  0  0  0  0
  185.9890  178.0060  143.4380 C   0  0  0  0  0  0  0  0  0  0  0  0
  183.8190  178.7880  142.6890 C   0  0  0  0  0  3  0  0  0  0  0  0
  185.5730  178.1500  144.7720 C   0  0  0  0  0  3  0  0  0  0  0  0
  185.1070  178.3280  142.4000 C   0  0  0  0  0  3  0  0  0  0  0  0
  183.8870  178.7490  146.3460 F   0  0  0  0  0  0  0  0  0  0  0  0
  189.2570  178.4130  139.8850 C   0  0  0  0  0  2  0  0  0  0  0  0
  189.2850  177.1800  139.0030 C   0  0  0  0  0  2  0  0  0  0  0  0
  189.4620  177.5870  137.5550 C   0  0  0  0  0  2  0  0  0  0  0  0
  188.3730  178.5740  137.1560 C   0  0  0  0  0  2  0  0  0  0  0  0
  186.0360  178.7880  138.7410 O   0  0  0  0  0  0  0  0  0  0  0  0
  187.1210  177.8780  136.8690 N   0  0  0  0  0  0  0  0  0  0  0  0
  185.9740  178.0410  137.7270 C   0  0  0  0  0  0  0  0  0  0  0  0
  184.6020  176.8480  136.0190 C   0  0  0  0  0  2  0  0  0  0  0  0
  185.8830  176.1550  135.5880 C   0  0  0  0  0  2  0  0  0  0  0  0
  187.0290  177.1620  135.5960 C   0  0  0  0  0  2  0  0  0  0  0  0
  184.7150  177.2670  137.4780 C   0  0  0  0  0  2  0  0  0  0  0  0
  1 11  1  1  0  0  0
  1  9  1  0  0  0  0
  2 12  1  0  0  0  0
  3 10  1  0  0  0  0
  3  8  1  0  0  0  0
  4 13  2  0  0  0  0
  4 15  1  0  0  0  0
  6  5  1  0  0  0  0
  7 15  2  0  0  0  0
  8  2  1  0  0  0  0
  9  5  1  0  0  0  0
 10 16  1  1  0  0  0
 12  6  1  0  0  0  0
 13 14  1  0  0  0  0
 14 19  1  1  0  0  0
 14 10  1  0  0  0  0
 15  3  1  0  0  0  0
 16  1  1  0  0  0  0
 17 23  1  0  0  0  0
 18 17  2  0  0  0  0
 19 21  2  0  0  0  0
 20 18  1  0  0  0  0
 21 17  1  0  0  0  0
 22 20  2  0  0  0  0
 22 19  1  0  0  0  0
 24  4  1  0  0  0  0
 25 24  1  0  0  0  0
 26 25  1  0  0  0  0
 27 26  1  0  0  0  0
 29 27  1  0  0  0  0
 29 30  1  0  0  0  0
 30 28  2  0  0  0  0
 31 34  1  0  0  0  0
 32 33  1  0  0  0  0
 32 31  1  0  0  0  0
 33 29  1  0  0  0  0
 34 30  1  0  0  0  0
M  END
>  <MODEL>
7

>  <REMARK>
 VINA RESULT:      -8.3      2.719      7.905
  Name = 
  6 active torsions:
  status: ('A' for Active; 'I' for Inactive)
    1  A    between atoms: C_3  and  N_13
    2  A    between atoms: C_3  and  C_17
    3  A    between atoms: C_5  and  C_18
    4  A    between atoms: C_12  and  C_28
    5  A    between atoms: C_17  and  C_29
    6  A    between atoms: C_18  and  C_29
                            x       y       z     vdW  Elec       q    Type
                         _______ _______ _______ _____ _____    ______ ____

>  <TORSDO>
F 6

$$$$
=
 OpenBabel10262423593D

 34 37  0  0  1  0  0  0  0  0999 V2000
  190.1940  178.1750  142.7490 C   0  0  2  0  0  3  0  0  0  0  0  0
  188.9600  177.2470  139.3150 C   0  0  0  0  0  2  0  0  0  0  0  0
  187.4890  178.3210  140.9400 N   0  0  0  0  0  0  0  0  0  0  0  0
  185.0220  178.5990  141.3490 C   0  0  0  0  0  0  0  0  0  0  0  0
  191.6800  177.5950  141.0340 C   0  0  0  0  0  2  0  0  0  0  0  0
  191.0460  176.5520  140.1280 C   0  0  0  0  0  2  0  0  0  0  0  0
  185.9840  178.7580  139.1930 O   0  0  0  0  0  0  0  0  0  0  0  0
  188.6300  178.5340  140.0530 C   0  0  0  0  0  2  0  0  0  0  0  0
  191.3300  177.3280  142.4210 N   0  0  0  0  0  2  0  0  0  0  0  0
  187.7140  178.2450  142.3970 C   0  0  1  0  0  3  0  0  0  0  0  0
  190.3680  178.7210  144.0210 O   0  0  0  0  0  1  0  0  0  0  0  0
  190.3820  177.2060  139.0100 N   0  0  0  0  0  2  0  0  0  0  0  0
  185.1870  178.2460  142.6230 C   0  0  0  0  0  3  0  0  0  0  0  0
  186.4820  177.6830  143.1320 C   0  0  2  0  0  3  0  0  0  0  0  0
  186.1660  178.5580  140.4260 C   0  0  0  0  0  0  0  0  0  0  0  0
  188.9160  177.3550  142.7190 C   0  0  0  0  0  2  0  0  0  0  0  0
  187.6710  177.4890  146.7440 C   0  0  0  0  0  0  0  0  0  0  0  0
  186.7310  178.3050  147.3790 C   0  0  0  0  0  3  0  0  0  0  0  0
  186.5780  177.8890  144.6130 C   0  0  0  0  0  0  0  0  0  0  0  0
  185.7150  178.9130  146.6350 C   0  0  0  0  0  3  0  0  0  0  0  0
  187.5970  177.2810  145.3640 C   0  0  0  0  0  3  0  0  0  0  0  0
  185.6390  178.7060  145.2550 C   0  0  0  0  0  3  0  0  0  0  0  0
  188.6560  176.9020  147.4650 F   0  0  0  0  0  0  0  0  0  0  0  0
  183.7080  179.1610  140.9230 C   0  0  0  0  0  2  0  0  0  0  0  0
  182.6490  178.0800  141.0020 C   0  0  0  0  0  2  0  0  0  0  0  0
  181.7850  178.1140  139.7580 C   0  0  0  0  0  2  0  0  0  0  0  0
  182.5910  178.6420  138.5790 C   0  0  0  0  0  2  0  0  0  0  0  0
  181.9920  181.4060  138.7140 O   0  0  0  0  0  0  0  0  0  0  0  0
  181.7280  179.3410  137.6310 N   0  0  0  0  0  0  0  0  0  0  0  0
  181.4720  180.7540  137.7690 C   0  0  0  0  0  0  0  0  0  0  0  0
  180.4000  180.7190  135.5180 C   0  0  0  0  0  2  0  0  0  0  0  0
  180.0880  179.2550  135.7750 C   0  0  0  0  0  2  0  0  0  0  0  0
  181.2840  178.5950  136.4520 C   0  0  0  0  0  2  0  0  0  0  0  0
  180.5250  181.4550  136.8440 C   0  0  0  0  0  2  0  0  0  0  0  0
  1 11  1  1  0  0  0
  2  8  1  0  0  0  0
  3 10  1  0  0  0  0
  4 13  2  0  0  0  0
  5  9  1  0  0  0  0
  6  5  1  0  0  0  0
  7 15  2  0  0  0  0
  8  3  1  0  0  0  0
  9  1  1  0  0  0  0
 10 16  1  6  0  0  0
 10 14  1  0  0  0  0
 12  2  1  0  0  0  0
 12  6  1  0  0  0  0
 13 14  1  0  0  0  0
 14 19  1  1  0  0  0
 15  3  1  0  0  0  0
 15  4  1  0  0  0  0
 16  1  1  0  0  0  0
 17 18  1  0  0  0  0
 17 23  1  0  0  0  0
 19 22  2  0  0  0  0
 19 21  1  0  0  0  0
 20 18  2  0  0  0  0
 21 17  2  0  0  0  0
 22 20  1  0  0  0  0
 24 25  1  0  0  0  0
 24  4  1  0  0  0  0
 26 25  1  0  0  0  0
 27 26  1  0  0  0  0
 29 30  1  0  0  0  0
 29 27  1  0  0  0  0
 30 28  2  0  0  0  0
 31 32  1  0  0  0  0
 31 34  1  0  0  0  0
 32 33  1  0  0  0  0
 33 29  1  0  0  0  0
 34 30  1  0  0  0  0
M  END
>  <MODEL>
8

>  <REMARK>
 VINA RESULT:      -8.2      3.762      6.419
  Name = 
  6 active torsions:
  status: ('A' for Active; 'I' for Inactive)
    1  A    between atoms: C_3  and  N_13
    2  A    between atoms: C_3  and  C_17
    3  A    between atoms: C_5  and  C_18
    4  A    between atoms: C_12  and  C_28
    5  A    between atoms: C_17  and  C_29
    6  A    between atoms: C_18  and  C_29
                            x       y       z     vdW  Elec       q    Type
                         _______ _______ _______ _____ _____    ______ ____

>  <TORSDO>
F 6

$$$$
=
 OpenBabel10262423593D

 34 37  0  0  1  0  0  0  0  0999 V2000
  188.7610  178.0160  146.7330 C   0  0  2  0  0  3  0  0  0  0  0  0
  191.5860  176.3060  144.9230 C   0  0  0  0  0  2  0  0  0  0  0  0
  189.9050  177.5960  143.7120 N   0  0  0  0  0  0  0  0  0  0  0  0
  189.0090  177.7870  141.3680 C   0  0  0  0  0  0  0  0  0  0  0  0
  190.6260  177.1890  147.8850 C   0  0  0  0  0  2  0  0  0  0  0  0
  191.1490  175.9390  147.1970 C   0  0  0  0  0  2  0  0  0  0  0  0
  191.3160  177.5540  141.8370 O   0  0  0  0  0  0  0  0  0  0  0  0
  191.0510  177.6940  144.6120 C   0  0  0  0  0  2  0  0  0  0  0  0
  189.1710  177.1970  147.8630 N   0  0  0  0  0  2  0  0  0  0  0  0
  188.5490  177.8430  144.2410 C   0  0  1  0  0  3  0  0  0  0  0  0
  187.6900  178.8270  147.1050 O   0  0  0  0  0  1  0  0  0  0  0  0
  192.1910  176.2970  146.2460 N   0  0  0  0  0  2  0  0  0  0  0  0
  187.7630  177.7220  141.8330 C   0  0  0  0  0  3  0  0  0  0  0  0
  187.4620  177.3670  143.2600 C   0  0  2  0  0  3  0  0  0  0  0  0
  190.1420  177.6300  142.2920 C   0  0  0  0  0  0  0  0  0  0  0  0
  188.3450  177.1240  145.5750 C   0  0  0  0  0  2  0  0  0  0  0  0
  184.4590  178.4840  145.3170 C   0  0  0  0  0  0  0  0  0  0  0  0
  183.5710  178.8690  144.3070 C   0  0  0  0  0  3  0  0  0  0  0  0
  186.1080  177.8860  143.6380 C   0  0  0  0  0  0  0  0  0  0  0  0
  183.9490  178.7620  142.9650 C   0  0  0  0  0  3  0  0  0  0  0  0
  185.7250  177.9940  144.9840 C   0  0  0  0  0  3  0  0  0  0  0  0
  185.2150  178.2730  142.6320 C   0  0  0  0  0  3  0  0  0  0  0  0
  184.0930  178.5890  146.6160 F   0  0  0  0  0  0  0  0  0  0  0  0
  189.2260  178.1580  139.9400 C   0  0  0  0  0  2  0  0  0  0  0  0
  187.8990  178.1320  139.2070 C   0  0  0  0  0  2  0  0  0  0  0  0
  187.9970  177.2260  137.9970 C   0  0  0  0  0  2  0  0  0  0  0  0
  189.3880  177.3230  137.3850 C   0  0  0  0  0  2  0  0  0  0  0  0
  190.9900  175.4020  138.7120 O   0  0  0  0  0  0  0  0  0  0  0  0
  189.7890  176.0460  136.8010 N   0  0  0  0  0  0  0  0  0  0  0  0
  190.6080  175.1200  137.5440 C   0  0  0  0  0  0  0  0  0  0  0  0
  190.1700  173.4110  135.7810 C   0  0  0  0  0  2  0  0  0  0  0  0
  189.9670  174.5690  134.8190 C   0  0  0  0  0  2  0  0  0  0  0  0
  189.1870  175.6760  135.5190 C   0  0  0  0  0  2  0  0  0  0  0  0
  191.0850  173.8460  136.9170 C   0  0  0  0  0  2  0  0  0  0  0  0
  1 11  1  1  0  0  0
  1  9  1  0  0  0  0
  2 12  1  0  0  0  0
  3 10  1  0  0  0  0
  3  8  1  0  0  0  0
  4 13  2  0  0  0  0
  4 15  1  0  0  0  0
  6  5  1  0  0  0  0
  7 15  2  0  0  0  0
  8  2  1  0  0  0  0
  9  5  1  0  0  0  0
 10 16  1  1  0  0  0
 12  6  1  0  0  0  0
 13 14  1  0  0  0  0
 14 19  1  1  0  0  0
 14 10  1  0  0  0  0
 15  3  1  0  0  0  0
 16  1  1  0  0  0  0
 17 23  1  0  0  0  0
 18 17  2  0  0  0  0
 19 21  2  0  0  0  0
 20 18  1  0  0  0  0
 21 17  1  0  0  0  0
 22 20  2  0  0  0  0
 22 19  1  0  0  0  0
 24  4  1  0  0  0  0
 25 24  1  0  0  0  0
 26 25  1  0  0  0  0
 27 26  1  0  0  0  0
 29 27  1  0  0  0  0
 29 30  1  0  0  0  0
 30 28  2  0  0  0  0
 31 34  1  0  0  0  0
 32 33  1  0  0  0  0
 32 31  1  0  0  0  0
 33 29  1  0  0  0  0
 34 30  1  0  0  0  0
M  END
>  <MODEL>
9

>  <REMARK>
 VINA RESULT:      -8.1      2.599      8.168
  Name = 
  6 active torsions:
  status: ('A' for Active; 'I' for Inactive)
    1  A    between atoms: C_3  and  N_13
    2  A    between atoms: C_3  and  C_17
    3  A    between atoms: C_5  and  C_18
    4  A    between atoms: C_12  and  C_28
    5  A    between atoms: C_17  and  C_29
    6  A    between atoms: C_18  and  C_29
                            x       y       z     vdW  Elec       q    Type
                         _______ _______ _______ _____ _____    ______ ____

>  <TORSDO>
F 6

$$$$
