=
 OpenBabel10262423473D

 34 38  0  0  1  0  0  0  0  0999 V2000
  183.2890  177.7720  138.2880 C   0  0  1  0  0  3  0  0  0  0  0  0
  184.2740  178.3710  140.4780 C   0  0  0  0  0  0  0  0  0  0  0  0
  185.8530  178.0990  138.6240 C   0  0  0  0  0  0  0  0  0  0  0  0
  188.9450  178.9960  138.2020 C   0  0  0  0  0  2  0  0  0  0  0  0
  182.4550  176.5600  135.8940 Cl  0  0  0  0  0  0  0  0  0  0  0  0
  182.9920  178.3160  141.0220 O   0  0  0  0  0  1  0  0  0  0  0  0
  186.6430  178.8220  140.8670 C   0  0  0  0  0  3  0  0  0  0  0  0
  184.4740  178.0520  139.1870 C   0  0  0  0  0  0  0  0  0  0  0  0
  188.3250  178.0100  139.1810 C   0  0  2  0  0  3  0  0  0  0  0  0
  182.3410  179.2680  138.0500 Cl  0  0  0  0  0  0  0  0  0  0  0  0
  186.0340  177.8730  137.2970 C   0  0  0  0  0  0  0  0  0  0  0  0
  183.6850  177.2360  136.9410 C   0  0  0  0  0  0  0  0  0  0  0  0
  185.3950  178.8180  141.3330 C   0  0  0  0  0  0  0  0  0  0  0  0
  188.0700  179.2930  137.0620 N   0  0  0  0  0  2  0  0  0  0  0  0
  187.3310  178.1210  136.5630 C   0  0  1  0  0  3  0  0  0  0  0  0
  186.9480  178.3860  139.5310 N   0  0  0  0  0  0  0  0  0  0  0  0
  184.9270  177.3520  136.4770 C   0  0  0  0  0  3  0  0  0  0  0  0
  188.6520  174.5360  136.4450 C   0  0  0  0  0  0  0  0  0  0  0  0
  189.8140  174.7060  135.6870 C   0  0  0  0  0  3  0  0  0  0  0  0
  188.1810  176.9130  136.2580 C   0  0  0  0  0  0  0  0  0  0  0  0
  190.1610  175.9740  135.2140 C   0  0  0  0  0  3  0  0  0  0  0  0
  187.8380  175.6350  136.7280 C   0  0  0  0  0  3  0  0  0  0  0  0
  189.3470  177.0740  135.4990 C   0  0  0  0  0  3  0  0  0  0  0  0
  188.2170  172.9510  137.0430 Cl  0  0  0  0  0  0  0  0  0  0  0  0
  190.3080  176.9910  140.3170 C   0  0  0  0  0  3  0  0  0  0  0  0
  190.7180  176.2550  139.0820 C   0  0  0  0  0  1  0  0  0  0  0  0
  189.2310  177.7850  140.3630 C   0  0  0  0  0  3  0  0  0  0  0  0
  185.1510  179.2200  142.7500 C   0  0  0  0  0  2  0  0  0  0  0  0
  187.3650  176.9130  144.5200 N   0  0  0  0  0  0  0  0  0  0  0  0
  186.5850  177.2950  145.5220 N   0  0  0  0  0  2  0  0  0  0  0  0
  186.9690  177.5210  143.3810 C   0  0  0  0  0  3  0  0  0  0  0  0
  184.6290  178.8170  145.8590 C   0  0  0  0  0  1  0  0  0  0  0  0
  185.6760  178.1540  145.0340 C   0  0  0  0  0  0  0  0  0  0  0  0
  185.8820  178.3130  143.6840 C   0  0  0  0  0  0  0  0  0  0  0  0
  1 10  1  6  0  0  0
  1  8  1  0  0  0  0
  2  6  1  0  0  0  0
  2 13  1  0  0  0  0
  3  8  1  0  0  0  0
  3 16  1  0  0  0  0
  4  9  1  0  0  0  0
  5 12  1  0  0  0  0
  7 13  2  0  0  0  0
  8  2  2  0  0  0  0
  9 16  1  0  0  0  0
  9 27  1  1  0  0  0
 11  3  2  0  0  0  0
 12  1  1  0  0  0  0
 13 28  1  0  0  0  0
 14  4  1  0  0  0  0
 15 20  1  1  0  0  0
 15 14  1  0  0  0  0
 15 11  1  0  0  0  0
 16  7  1  0  0  0  0
 17 12  2  0  0  0  0
 17 11  1  0  0  0  0
 18 22  1  0  0  0  0
 18 24  1  0  0  0  0
 19 18  2  0  0  0  0
 20 22  2  0  0  0  0
 21 23  2  0  0  0  0
 21 19  1  0  0  0  0
 23 20  1  0  0  0  0
 25 27  2  0  0  0  0
 26 25  1  0  0  0  0
 28 34  1  0  0  0  0
 29 30  1  0  0  0  0
 31 34  1  0  0  0  0
 31 29  2  0  0  0  0
 33 30  1  0  0  0  0
 33 32  1  0  0  0  0
 34 33  2  0  0  0  0
M  END
>  <MODEL>
1

>  <REMARK>
 VINA RESULT:      -8.2      0.000      0.000
  Name = 
  4 active torsions:
  status: ('A' for Active; 'I' for Inactive)
    1  A    between atoms: C_12  and  C_28
    2  A    between atoms: C_18  and  C_29
    3  A    between atoms: C_20  and  C_25
    4  A    between atoms: C_20  and  C_34
                            x       y       z     vdW  Elec       q    Type
                         _______ _______ _______ _____ _____    ______ ____

>  <TORSDO>
F 4

$$$$
=
 OpenBabel10262423473D

 34 38  0  0  1  0  0  0  0  0999 V2000
  183.2760  177.8010  138.3570 C   0  0  1  0  0  3  0  0  0  0  0  0
  184.2500  178.3900  140.5540 C   0  0  0  0  0  0  0  0  0  0  0  0
  185.8390  178.1170  138.7090 C   0  0  0  0  0  0  0  0  0  0  0  0
  188.9370  179.0040  138.3080 C   0  0  0  0  0  2  0  0  0  0  0  0
  182.4510  176.5980  135.9540 Cl  0  0  0  0  0  0  0  0  0  0  0  0
  182.9650  178.3380  141.0900 O   0  0  0  0  0  1  0  0  0  0  0  0
  186.6190  178.8310  140.9580 C   0  0  0  0  0  3  0  0  0  0  0  0
  184.4560  178.0740  139.2630 C   0  0  0  0  0  0  0  0  0  0  0  0
  188.3080  178.0180  139.2810 C   0  0  2  0  0  3  0  0  0  0  0  0
  182.3340  179.3010  138.1170 Cl  0  0  0  0  0  0  0  0  0  0  0  0
  186.0270  177.8950  137.3820 C   0  0  0  0  0  0  0  0  0  0  0  0
  183.6780  177.2670  137.0110 C   0  0  0  0  0  0  0  0  0  0  0  0
  185.3670  178.8310  141.4170 C   0  0  0  0  0  0  0  0  0  0  0  0
  188.0690  179.3070  137.1630 N   0  0  0  0  0  2  0  0  0  0  0  0
  187.3290  178.1400  136.6560 C   0  0  1  0  0  3  0  0  0  0  0  0
  186.9290  178.3970  139.6230 N   0  0  0  0  0  0  0  0  0  0  0  0
  184.9230  177.3800  136.5540 C   0  0  0  0  0  3  0  0  0  0  0  0
  190.1070  175.8860  135.3080 C   0  0  0  0  0  0  0  0  0  0  0  0
  189.6970  174.6410  135.7930 C   0  0  0  0  0  3  0  0  0  0  0  0
  188.1760  176.9290  136.3530 C   0  0  0  0  0  0  0  0  0  0  0  0
  188.5320  174.5370  136.5560 C   0  0  0  0  0  3  0  0  0  0  0  0
  189.3500  177.0270  135.5880 C   0  0  0  0  0  3  0  0  0  0  0  0
  187.7730  175.6780  136.8340 C   0  0  0  0  0  3  0  0  0  0  0  0
  191.5630  176.0200  134.3480 Cl  0  0  0  0  0  0  0  0  0  0  0  0
  190.2840  176.9940  140.4230 C   0  0  0  0  0  3  0  0  0  0  0  0
  190.7040  176.2670  139.1860 C   0  0  0  0  0  1  0  0  0  0  0  0
  189.2060  177.7860  140.4670 C   0  0  0  0  0  3  0  0  0  0  0  0
  185.1160  179.2300  142.8340 C   0  0  0  0  0  2  0  0  0  0  0  0
  187.3380  176.9350  144.6110 N   0  0  0  0  0  0  0  0  0  0  0  0
  186.5440  177.3020  145.6070 N   0  0  0  0  0  2  0  0  0  0  0  0
  186.9470  177.5460  143.4720 C   0  0  0  0  0  3  0  0  0  0  0  0
  184.5670  178.8000  145.9340 C   0  0  0  0  0  1  0  0  0  0  0  0
  185.6300  178.1540  145.1160 C   0  0  0  0  0  0  0  0  0  0  0  0
  185.8480  178.3240  143.7700 C   0  0  0  0  0  0  0  0  0  0  0  0
  1 10  1  6  0  0  0
  1  8  1  0  0  0  0
  2  6  1  0  0  0  0
  2 13  1  0  0  0  0
  3  8  1  0  0  0  0
  3 16  1  0  0  0  0
  4  9  1  0  0  0  0
  5 12  1  0  0  0  0
  7 13  2  0  0  0  0
  8  2  2  0  0  0  0
  9 16  1  0  0  0  0
  9 27  1  1  0  0  0
 11  3  2  0  0  0  0
 12  1  1  0  0  0  0
 13 28  1  0  0  0  0
 14  4  1  0  0  0  0
 15 20  1  1  0  0  0
 15 14  1  0  0  0  0
 15 11  1  0  0  0  0
 16  7  1  0  0  0  0
 17 12  2  0  0  0  0
 17 11  1  0  0  0  0
 18 22  2  0  0  0  0
 18 19  1  0  0  0  0
 19 21  2  0  0  0  0
 20 23  2  0  0  0  0
 21 23  1  0  0  0  0
 22 20  1  0  0  0  0
 24 18  1  0  0  0  0
 25 27  2  0  0  0  0
 26 25  1  0  0  0  0
 28 34  1  0  0  0  0
 29 30  1  0  0  0  0
 31 34  1  0  0  0  0
 31 29  2  0  0  0  0
 33 30  1  0  0  0  0
 33 32  1  0  0  0  0
 34 33  2  0  0  0  0
M  END
>  <MODEL>
2

>  <REMARK>
 VINA RESULT:      -8.1      0.911      1.232
  Name = 
  4 active torsions:
  status: ('A' for Active; 'I' for Inactive)
    1  A    between atoms: C_12  and  C_28
    2  A    between atoms: C_18  and  C_29
    3  A    between atoms: C_20  and  C_25
    4  A    between atoms: C_20  and  C_34
                            x       y       z     vdW  Elec       q    Type
                         _______ _______ _______ _____ _____    ______ ____

>  <TORSDO>
F 4

$$$$
=
 OpenBabel10262423473D

 34 38  0  0  1  0  0  0  0  0999 V2000
  184.5160  178.8540  141.6880 C   0  0  1  0  0  3  0  0  0  0  0  0
  186.3660  178.8640  140.0440 C   0  0  0  0  0  0  0  0  0  0  0  0
  186.8630  177.8520  142.2200 C   0  0  0  0  0  0  0  0  0  0  0  0
  189.2330  175.8890  143.2570 C   0  0  0  0  0  2  0  0  0  0  0  0
  182.7680  179.2430  143.8540 Cl  0  0  0  0  0  0  0  0  0  0  0  0
  185.5270  179.5480  139.1680 O   0  0  0  0  0  1  0  0  0  0  0  0
  188.5550  177.8390  140.4000 C   0  0  0  0  0  3  0  0  0  0  0  0
  185.9470  178.5690  141.2880 C   0  0  0  0  0  0  0  0  0  0  0  0
  189.2860  177.3230  142.7510 C   0  0  2  0  0  3  0  0  0  0  0  0
  183.4070  177.7910  140.7750 Cl  0  0  0  0  0  0  0  0  0  0  0  0
  186.4000  177.4690  143.4380 C   0  0  0  0  0  0  0  0  0  0  0  0
  184.2660  178.6600  143.1570 C   0  0  0  0  0  0  0  0  0  0  0  0
  187.7010  178.4390  139.5710 C   0  0  0  0  0  0  0  0  0  0  0  0
  187.8850  175.4820  143.6750 N   0  0  0  0  0  2  0  0  0  0  0  0
  187.1370  176.5400  144.3730 C   0  0  1  0  0  3  0  0  0  0  0  0
  188.2190  177.5940  141.7760 N   0  0  0  0  0  0  0  0  0  0  0  0
  185.1020  177.9670  143.9270 C   0  0  0  0  0  3  0  0  0  0  0  0
  189.7990  177.3660  146.9900 C   0  0  0  0  0  0  0  0  0  0  0  0
  189.1560  178.3750  147.7130 C   0  0  0  0  0  3  0  0  0  0  0  0
  187.8640  177.1770  145.5320 C   0  0  0  0  0  0  0  0  0  0  0  0
  187.8720  178.7860  147.3490 C   0  0  0  0  0  3  0  0  0  0  0  0
  189.1550  176.7700  145.9020 C   0  0  0  0  0  3  0  0  0  0  0  0
  187.2270  178.1880  146.2620 C   0  0  0  0  0  3  0  0  0  0  0  0
  191.4050  176.8450  147.4460 Cl  0  0  0  0  0  0  0  0  0  0  0  0
  191.4520  178.5650  142.9010 C   0  0  0  0  0  3  0  0  0  0  0  0
  191.0230  179.2940  144.1340 C   0  0  0  0  0  1  0  0  0  0  0  0
  190.6710  177.6750  142.2780 C   0  0  0  0  0  3  0  0  0  0  0  0
  188.1330  178.7250  138.1710 C   0  0  0  0  0  2  0  0  0  0  0  0
  187.1860  175.9340  136.0080 N   0  0  0  0  0  0  0  0  0  0  0  0
  188.4930  175.7260  136.0920 N   0  0  0  0  0  0  0  0  0  0  0  0
  186.8530  177.0170  136.7440 C   0  0  0  0  0  2  0  0  0  0  0  0
  190.4620  176.7880  137.2110 C   0  0  0  0  0  1  0  0  0  0  0  0
  189.0140  176.6750  136.8850 C   0  0  0  0  0  0  0  0  0  0  0  0
  188.0060  177.5010  137.3230 C   0  0  0  0  0  0  0  0  0  0  0  0
  1 10  1  6  0  0  0
  1 12  1  0  0  0  0
  2  8  2  0  0  0  0
  3 11  2  0  0  0  0
  4 14  1  0  0  0  0
  6  2  1  0  0  0  0
  7 16  1  0  0  0  0
  8  1  1  0  0  0  0
  8  3  1  0  0  0  0
  9 27  1  6  0  0  0
  9  4  1  0  0  0  0
 11 17  1  0  0  0  0
 11 15  1  0  0  0  0
 12  5  1  0  0  0  0
 12 17  2  0  0  0  0
 13  2  1  0  0  0  0
 13  7  2  0  0  0  0
 14 15  1  0  0  0  0
 15 20  1  6  0  0  0
 16  3  1  0  0  0  0
 16  9  1  0  0  0  0
 18 24  1  0  0  0  0
 18 19  1  0  0  0  0
 20 22  1  0  0  0  0
 20 23  2  0  0  0  0
 21 19  2  0  0  0  0
 22 18  2  0  0  0  0
 23 21  1  0  0  0  0
 25 26  1  0  0  0  0
 27 25  2  0  0  0  0
 28 13  1  0  0  0  0
 29 30  2  0  0  0  0
 29 31  1  0  0  0  0
 30 33  1  0  0  0  0
 31 34  1  0  0  0  0
 33 32  1  0  0  0  0
 33 34  2  0  0  0  0
 34 28  1  0  0  0  0
M  END
>  <MODEL>
3

>  <REMARK>
 VINA RESULT:      -7.6      3.276      7.396
  Name = 
  4 active torsions:
  status: ('A' for Active; 'I' for Inactive)
    1  A    between atoms: C_12  and  C_28
    2  A    between atoms: C_18  and  C_29
    3  A    between atoms: C_20  and  C_25
    4  A    between atoms: C_20  and  C_34
                            x       y       z     vdW  Elec       q    Type
                         _______ _______ _______ _____ _____    ______ ____

>  <TORSDO>
F 4

$$$$
=
 OpenBabel10262423473D

 34 38  0  0  1  0  0  0  0  0999 V2000
  186.8340  178.4070  138.5610 C   0  0  1  0  0  3  0  0  0  0  0  0
  185.8620  178.8770  140.7870 C   0  0  0  0  0  0  0  0  0  0  0  0
  184.3940  177.7390  139.1900 C   0  0  0  0  0  0  0  0  0  0  0  0
  181.6230  176.0790  139.5250 C   0  0  0  0  0  2  0  0  0  0  0  0
  187.5340  178.2890  135.8410 Cl  0  0  0  0  0  0  0  0  0  0  0  0
  187.0570  179.5060  141.1290 O   0  0  0  0  0  1  0  0  0  0  0  0
  183.6360  178.1800  141.5150 C   0  0  0  0  0  3  0  0  0  0  0  0
  185.6850  178.3940  139.5450 C   0  0  0  0  0  0  0  0  0  0  0  0
  181.9340  177.5470  139.7740 C   0  0  2  0  0  3  0  0  0  0  0  0
  188.1110  177.2810  139.1040 Cl  0  0  0  0  0  0  0  0  0  0  0  0
  184.2580  177.1650  137.9660 C   0  0  0  0  0  0  0  0  0  0  0  0
  186.4200  178.0250  137.1670 C   0  0  0  0  0  0  0  0  0  0  0  0
  184.8160  178.7190  141.8210 C   0  0  0  0  0  0  0  0  0  0  0  0
  182.6200  175.4230  138.6690 N   0  0  0  0  0  2  0  0  0  0  0  0
  183.1060  176.2720  137.5690 C   0  0  1  0  0  3  0  0  0  0  0  0
  183.3330  177.7450  140.1780 N   0  0  0  0  0  0  0  0  0  0  0  0
  185.2720  177.3980  136.9220 C   0  0  0  0  0  3  0  0  0  0  0  0
  180.8950  178.8360  135.7940 C   0  0  0  0  0  0  0  0  0  0  0  0
  179.9820  177.9980  135.1480 C   0  0  0  0  0  3  0  0  0  0  0  0
  182.0270  176.8940  136.7180 C   0  0  0  0  0  0  0  0  0  0  0  0
  180.0890  176.6120  135.2840 C   0  0  0  0  0  3  0  0  0  0  0  0
  181.9140  178.2870  136.5750 C   0  0  0  0  0  3  0  0  0  0  0  0
  181.1070  176.0620  136.0680 C   0  0  0  0  0  3  0  0  0  0  0  0
  180.7610  180.5730  135.6300 Cl  0  0  0  0  0  0  0  0  0  0  0  0
  180.4280  179.3940  140.5380 C   0  0  0  0  0  3  0  0  0  0  0  0
  180.8340  180.2810  139.4050 C   0  0  0  0  0  1  0  0  0  0  0  0
  180.9210  178.1600  140.7040 C   0  0  0  0  0  3  0  0  0  0  0  0
  185.0470  179.2130  143.2110 C   0  0  0  0  0  2  0  0  0  0  0  0
  187.4500  176.7730  144.4900 N   0  0  0  0  0  0  0  0  0  0  0  0
  186.8770  177.1470  145.6260 N   0  0  0  0  0  2  0  0  0  0  0  0
  186.8800  177.4320  143.4580 C   0  0  0  0  0  3  0  0  0  0  0  0
  185.0750  178.7230  146.3510 C   0  0  0  0  0  1  0  0  0  0  0  0
  185.9300  178.0520  145.3340 C   0  0  0  0  0  0  0  0  0  0  0  0
  185.8970  178.2500  143.9740 C   0  0  0  0  0  0  0  0  0  0  0  0
  1 10  1  1  0  0  0
  1  8  1  0  0  0  0
  2  6  1  0  0  0  0
  2 13  1  0  0  0  0
  3  8  1  0  0  0  0
  3 16  1  0  0  0  0
  4  9  1  0  0  0  0
  5 12  1  0  0  0  0
  7 13  2  0  0  0  0
  8  2  2  0  0  0  0
  9 16  1  0  0  0  0
  9 27  1  1  0  0  0
 11  3  2  0  0  0  0
 12  1  1  0  0  0  0
 13 28  1  0  0  0  0
 14  4  1  0  0  0  0
 15 20  1  1  0  0  0
 15 11  1  0  0  0  0
 15 14  1  0  0  0  0
 16  7  1  0  0  0  0
 17 12  2  0  0  0  0
 17 11  1  0  0  0  0
 18 22  1  0  0  0  0
 19 21  1  0  0  0  0
 19 18  2  0  0  0  0
 21 23  2  0  0  0  0
 22 20  2  0  0  0  0
 23 20  1  0  0  0  0
 24 18  1  0  0  0  0
 25 27  2  0  0  0  0
 26 25  1  0  0  0  0
 28 34  1  0  0  0  0
 29 30  1  0  0  0  0
 31 34  1  0  0  0  0
 31 29  2  0  0  0  0
 33 30  1  0  0  0  0
 33 32  1  0  0  0  0
 34 33  2  0  0  0  0
M  END
>  <MODEL>
4

>  <REMARK>
 VINA RESULT:      -6.8      2.827      5.838
  Name = 
  4 active torsions:
  status: ('A' for Active; 'I' for Inactive)
    1  A    between atoms: C_12  and  C_28
    2  A    between atoms: C_18  and  C_29
    3  A    between atoms: C_20  and  C_25
    4  A    between atoms: C_20  and  C_34
                            x       y       z     vdW  Elec       q    Type
                         _______ _______ _______ _____ _____    ______ ____

>  <TORSDO>
F 4

$$$$
=
 OpenBabel10262423473D

 34 38  0  0  1  0  0  0  0  0999 V2000
  183.8880  174.9880  136.6110 C   0  0  1  0  0  3  0  0  0  0  0  0
  184.1120  176.9980  138.0370 C   0  0  0  0  0  0  0  0  0  0  0  0
  186.0760  176.4030  136.6990 C   0  0  0  0  0  0  0  0  0  0  0  0
  188.7470  178.0390  135.8400 C   0  0  0  0  0  2  0  0  0  0  0  0
  184.0410  172.4670  135.3790 Cl  0  0  0  0  0  0  0  0  0  0  0  0
  182.8220  176.7570  138.5070 O   0  0  0  0  0  1  0  0  0  0  0  0
  186.0690  178.4590  138.0940 C   0  0  0  0  0  3  0  0  0  0  0  0
  184.6890  176.1400  137.1780 C   0  0  0  0  0  0  0  0  0  0  0  0
  188.2580  177.5900  137.2090 C   0  0  2  0  0  3  0  0  0  0  0  0
  182.6020  175.6140  135.5380 Cl  0  0  0  0  0  0  0  0  0  0  0  0
  186.6160  175.5880  135.7560 C   0  0  0  0  0  0  0  0  0  0  0  0
  184.7270  174.0130  135.8350 C   0  0  0  0  0  0  0  0  0  0  0  0
  184.8120  178.2270  138.4710 C   0  0  0  0  0  0  0  0  0  0  0  0
  188.1060  177.3070  134.7400 N   0  0  0  0  0  2  0  0  0  0  0  0
  187.9020  175.8760  135.0190 C   0  0  1  0  0  3  0  0  0  0  0  0
  186.7900  177.5290  137.2690 N   0  0  0  0  0  0  0  0  0  0  0  0
  185.9430  174.3280  135.3940 C   0  0  0  0  0  3  0  0  0  0  0  0
  191.5020  174.6240  135.3160 C   0  0  0  0  0  0  0  0  0  0  0  0
  191.3790  173.7070  136.3630 C   0  0  0  0  0  3  0  0  0  0  0  0
  189.1320  175.1350  135.4820 C   0  0  0  0  0  0  0  0  0  0  0  0
  190.1380  173.5030  136.9710 C   0  0  0  0  0  3  0  0  0  0  0  0
  190.3830  175.3360  134.8770 C   0  0  0  0  0  3  0  0  0  0  0  0
  189.0170  174.2140  136.5310 C   0  0  0  0  0  3  0  0  0  0  0  0
  193.0530  174.8790  134.5480 Cl  0  0  0  0  0  0  0  0  0  0  0  0
  189.8490  177.9320  139.1090 C   0  0  0  0  0  3  0  0  0  0  0  0
  190.3800  176.5380  139.0000 C   0  0  0  0  0  1  0  0  0  0  0  0
  188.8950  178.4080  138.3010 C   0  0  0  0  0  3  0  0  0  0  0  0
  184.1390  179.1990  139.3830 C   0  0  0  0  0  2  0  0  0  0  0  0
  185.4760  178.5500  142.7230 N   0  0  0  0  0  0  0  0  0  0  0  0
  184.1800  178.4130  142.9640 N   0  0  0  0  0  2  0  0  0  0  0  0
  185.6650  178.8330  141.4150 C   0  0  0  0  0  3  0  0  0  0  0  0
  182.0390  178.5480  141.6780 C   0  0  0  0  0  1  0  0  0  0  0  0
  183.5210  178.6050  141.8110 C   0  0  0  0  0  0  0  0  0  0  0  0
  184.4270  178.8620  140.8100 C   0  0  0  0  0  0  0  0  0  0  0  0
  1 10  1  6  0  0  0
  1  8  1  0  0  0  0
  2 13  1  0  0  0  0
  2  6  1  0  0  0  0
  3  8  1  0  0  0  0
  3 16  1  0  0  0  0
  4  9  1  0  0  0  0
  5 12  1  0  0  0  0
  7 13  2  0  0  0  0
  8  2  2  0  0  0  0
  9 16  1  0  0  0  0
  9 27  1  1  0  0  0
 11  3  2  0  0  0  0
 12  1  1  0  0  0  0
 13 28  1  0  0  0  0
 14 15  1  0  0  0  0
 14  4  1  0  0  0  0
 15 20  1  1  0  0  0
 15 11  1  0  0  0  0
 16  7  1  0  0  0  0
 17 11  1  0  0  0  0
 17 12  2  0  0  0  0
 18 19  1  0  0  0  0
 19 21  2  0  0  0  0
 20 23  2  0  0  0  0
 22 18  2  0  0  0  0
 22 20  1  0  0  0  0
 23 21  1  0  0  0  0
 24 18  1  0  0  0  0
 26 25  1  0  0  0  0
 27 25  2  0  0  0  0
 28 34  1  0  0  0  0
 29 30  1  0  0  0  0
 31 29  2  0  0  0  0
 32 33  1  0  0  0  0
 33 30  1  0  0  0  0
 34 31  1  0  0  0  0
 34 33  2  0  0  0  0
M  END
>  <MODEL>
5

>  <REMARK>
 VINA RESULT:      -6.8      2.192      3.181
  Name = 
  4 active torsions:
  status: ('A' for Active; 'I' for Inactive)
    1  A    between atoms: C_12  and  C_28
    2  A    between atoms: C_18  and  C_29
    3  A    between atoms: C_20  and  C_25
    4  A    between atoms: C_20  and  C_34
                            x       y       z     vdW  Elec       q    Type
                         _______ _______ _______ _____ _____    ______ ____

>  <TORSDO>
F 4

$$$$
=
 OpenBabel10262423473D

 34 38  0  0  1  0  0  0  0  0999 V2000
  185.7410  178.7090  140.2540 C   0  0  1  0  0  3  0  0  0  0  0  0
  187.9880  178.4540  139.2500 C   0  0  0  0  0  0  0  0  0  0  0  0
  187.7340  177.6360  141.5460 C   0  0  0  0  0  0  0  0  0  0  0  0
  189.5200  175.6570  143.4010 C   0  0  0  0  0  2  0  0  0  0  0  0
  183.4680  179.4070  141.7530 Cl  0  0  0  0  0  0  0  0  0  0  0  0
  187.5060  179.0930  138.1100 O   0  0  0  0  0  1  0  0  0  0  0  0
  189.8820  177.3500  140.3300 C   0  0  0  0  0  3  0  0  0  0  0  0
  187.1980  178.3070  140.3280 C   0  0  0  0  0  0  0  0  0  0  0  0
  189.8390  177.0290  142.8240 C   0  0  2  0  0  3  0  0  0  0  0  0
  184.8680  177.6240  139.1340 Cl  0  0  0  0  0  0  0  0  0  0  0  0
  186.9020  177.4020  142.5940 C   0  0  0  0  0  0  0  0  0  0  0  0
  185.0520  178.6760  141.5890 C   0  0  0  0  0  0  0  0  0  0  0  0
  189.3640  177.9100  139.2370 C   0  0  0  0  0  0  0  0  0  0  0  0
  188.0810  175.3690  143.4220 N   0  0  0  0  0  2  0  0  0  0  0  0
  187.2490  176.5310  143.7770 C   0  0  1  0  0  3  0  0  0  0  0  0
  189.1350  177.2610  141.5540 N   0  0  0  0  0  0  0  0  0  0  0  0
  185.5630  178.0170  142.6270 C   0  0  0  0  0  3  0  0  0  0  0  0
  189.2270  177.6520  146.8510 C   0  0  0  0  0  0  0  0  0  0  0  0
  188.3330  178.5590  147.4260 C   0  0  0  0  0  3  0  0  0  0  0  0
  187.6510  177.2390  145.0480 C   0  0  0  0  0  0  0  0  0  0  0  0
  187.1010  178.8080  146.8150 C   0  0  0  0  0  3  0  0  0  0  0  0
  188.8880  176.9940  145.6650 C   0  0  0  0  0  3  0  0  0  0  0  0
  186.7610  178.1490  145.6300 C   0  0  0  0  0  3  0  0  0  0  0  0
  190.7680  177.3330  147.6150 Cl  0  0  0  0  0  0  0  0  0  0  0  0
  191.9260  178.3170  143.3160 C   0  0  0  0  0  3  0  0  0  0  0  0
  191.1740  179.3820  144.0480 C   0  0  0  0  0  1  0  0  0  0  0  0
  191.3260  177.2550  142.7650 C   0  0  0  0  0  3  0  0  0  0  0  0
  190.2130  178.0330  138.0150 C   0  0  0  0  0  2  0  0  0  0  0  0
  192.4260  175.1520  137.6030 N   0  0  0  0  0  0  0  0  0  0  0  0
  191.2800  174.6190  137.2050 N   0  0  0  0  0  0  0  0  0  0  0  0
  192.2310  176.4470  137.9360 C   0  0  0  0  0  2  0  0  0  0  0  0
  188.9040  175.3500  136.9240 C   0  0  0  0  0  1  0  0  0  0  0  0
  190.3340  175.5690  137.2750 C   0  0  0  0  0  0  0  0  0  0  0  0
  190.9000  176.7380  137.7240 C   0  0  0  0  0  0  0  0  0  0  0  0
  1 10  1  6  0  0  0
  1  8  1  0  0  0  0
  1 12  1  0  0  0  0
  2  8  2  0  0  0  0
  3 16  1  0  0  0  0
  3 11  2  0  0  0  0
  4 14  1  0  0  0  0
  6  2  1  0  0  0  0
  7 16  1  0  0  0  0
  8  3  1  0  0  0  0
  9 27  1  6  0  0  0
  9  4  1  0  0  0  0
 11 17  1  0  0  0  0
 11 15  1  0  0  0  0
 12  5  1  0  0  0  0
 12 17  2  0  0  0  0
 13  2  1  0  0  0  0
 13  7  2  0  0  0  0
 14 15  1  0  0  0  0
 15 20  1  1  0  0  0
 16  9  1  0  0  0  0
 18 19  1  0  0  0  0
 18 24  1  0  0  0  0
 20 23  2  0  0  0  0
 20 22  1  0  0  0  0
 21 19  2  0  0  0  0
 22 18  2  0  0  0  0
 23 21  1  0  0  0  0
 25 26  1  0  0  0  0
 27 25  2  0  0  0  0
 28 13  1  0  0  0  0
 29 31  1  0  0  0  0
 30 33  1  0  0  0  0
 30 29  2  0  0  0  0
 32 33  1  0  0  0  0
 33 34  2  0  0  0  0
 34 31  1  0  0  0  0
 34 28  1  0  0  0  0
M  END
>  <MODEL>
6

>  <REMARK>
 VINA RESULT:      -6.7      3.446      7.416
  Name = 
  4 active torsions:
  status: ('A' for Active; 'I' for Inactive)
    1  A    between atoms: C_12  and  C_28
    2  A    between atoms: C_18  and  C_29
    3  A    between atoms: C_20  and  C_25
    4  A    between atoms: C_20  and  C_34
                            x       y       z     vdW  Elec       q    Type
                         _______ _______ _______ _____ _____    ______ ____

>  <TORSDO>
F 4

$$$$
=
 OpenBabel10262423473D

 34 38  0  0  1  0  0  0  0  0999 V2000
  184.7960  179.0970  142.0920 C   0  0  0  0  0  0  0  0  0  0  0  0
  185.7890  178.9070  139.8330 C   0  0  0  0  0  0  0  0  0  0  0  0
  187.0920  177.9370  141.6680 C   0  0  2  0  0  3  0  0  0  0  0  0
  189.5670  175.8370  141.7560 C   0  0  0  0  0  2  0  0  0  0  0  0
  184.1350  179.6940  144.7570 Cl  0  0  0  0  0  0  0  0  0  0  0  0
  184.7000  179.6220  139.3400 O   0  0  0  0  0  1  0  0  0  0  0  0
  187.8680  177.7310  139.3160 C   0  0  0  0  0  3  0  0  0  0  0  0
  185.9120  178.6890  141.1550 C   0  0  0  0  0  0  0  0  0  0  0  0
  189.4820  177.2440  141.1830 C   0  0  2  0  0  3  0  0  0  0  0  0
  183.3510  178.0900  141.7890 Cl  0  0  0  0  0  0  0  0  0  0  0  0
  187.1590  177.6350  142.9910 C   0  0  0  0  0  0  0  0  0  0  0  0
  185.1700  178.9740  143.5420 C   0  0  0  0  0  0  0  0  0  0  0  0
  186.7800  178.3640  138.8780 C   0  0  0  0  0  0  0  0  0  0  0  0
  188.4960  175.5490  142.7180 N   0  0  0  0  0  2  0  0  0  0  0  0
  188.1670  176.6850  143.5950 C   0  0  1  0  0  3  0  0  0  0  0  0
  188.1230  177.5610  140.7210 N   0  0  0  0  0  0  0  0  0  0  0  0
  186.2120  178.2470  143.9390 C   0  0  0  0  0  3  0  0  0  0  0  0
  191.0970  177.2360  145.9870 C   0  0  0  0  0  0  0  0  0  0  0  0
  191.5070  178.5190  145.6150 C   0  0  0  0  0  3  0  0  0  0  0  0
  189.3440  177.3060  144.3060 C   0  0  0  0  0  0  0  0  0  0  0  0
  190.8400  179.1960  144.5910 C   0  0  0  0  0  3  0  0  0  0  0  0
  190.0200  176.6300  145.3340 C   0  0  0  0  0  3  0  0  0  0  0  0
  189.7600  178.5910  143.9390 C   0  0  0  0  0  3  0  0  0  0  0  0
  191.9270  176.3870  147.2720 Cl  0  0  0  0  0  0  0  0  0  0  0  0
  191.8610  177.5400  140.4670 C   0  0  0  0  0  3  0  0  0  0  0  0
  192.3680  177.3910  141.8660 C   0  0  0  0  0  1  0  0  0  0  0  0
  190.5610  177.4720  140.1570 C   0  0  0  0  0  3  0  0  0  0  0  0
  186.6040  178.5670  137.4100 C   0  0  0  0  0  2  0  0  0  0  0  0
  186.7340  175.3780  135.6280 N   0  0  0  0  0  0  0  0  0  0  0  0
  185.4750  175.3580  136.0420 N   0  0  0  0  0  2  0  0  0  0  0  0
  187.3250  176.5240  136.0320 C   0  0  0  0  0  3  0  0  0  0  0  0
  183.9400  176.8350  137.3540 C   0  0  0  0  0  1  0  0  0  0  0  0
  185.2420  176.4940  136.7170 C   0  0  0  0  0  0  0  0  0  0  0  0
  186.3840  177.2590  136.7230 C   0  0  0  0  0  0  0  0  0  0  0  0
  1 12  2  0  0  0  0
  2  8  2  0  0  0  0
  3  8  1  1  0  0  0
  3 11  1  0  0  0  0
  4 14  1  0  0  0  0
  6  2  1  0  0  0  0
  7 16  1  0  0  0  0
  8  1  1  0  0  0  0
  9 27  1  6  0  0  0
  9  4  1  0  0  0  0
 10  1  1  0  0  0  0
 11 15  1  0  0  0  0
 11 17  2  0  0  0  0
 12 17  1  0  0  0  0
 12  5  1  0  0  0  0
 13  7  2  0  0  0  0
 13  2  1  0  0  0  0
 14 15  1  0  0  0  0
 15 20  1  6  0  0  0
 16  9  1  0  0  0  0
 16  3  1  0  0  0  0
 18 24  1  0  0  0  0
 19 18  1  0  0  0  0
 20 22  1  0  0  0  0
 21 19  2  0  0  0  0
 22 18  2  0  0  0  0
 23 20  2  0  0  0  0
 23 21  1  0  0  0  0
 25 26  1  0  0  0  0
 27 25  2  0  0  0  0
 28 13  1  0  0  0  0
 29 31  2  0  0  0  0
 29 30  1  0  0  0  0
 30 33  1  0  0  0  0
 31 34  1  0  0  0  0
 33 34  2  0  0  0  0
 33 32  1  0  0  0  0
 34 28  1  0  0  0  0
M  END
>  <MODEL>
7

>  <REMARK>
 VINA RESULT:      -6.6      3.351      6.829
  Name = 
  4 active torsions:
  status: ('A' for Active; 'I' for Inactive)
    1  A    between atoms: C_12  and  C_28
    2  A    between atoms: C_18  and  C_29
    3  A    between atoms: C_20  and  C_25
    4  A    between atoms: C_20  and  C_34
                            x       y       z     vdW  Elec       q    Type
                         _______ _______ _______ _____ _____    ______ ____

>  <TORSDO>
F 4

$$$$
=
 OpenBabel10262423473D

 34 38  0  0  1  0  0  0  0  0999 V2000
  184.1490  177.9800  140.7130 C   0  0  0  0  0  0  0  0  0  0  0  0
  186.2030  178.1020  142.0880 C   0  0  0  0  0  0  0  0  0  0  0  0
  186.5320  178.0640  139.6600 C   0  0  1  0  0  3  0  0  0  0  0  0
  189.0560  178.8100  137.7570 C   0  0  0  0  0  2  0  0  0  0  0  0
  182.0210  177.2830  139.0140 Cl  0  0  0  0  0  0  0  0  0  0  0  0
  185.3970  178.0360  143.2220 O   0  0  0  0  0  1  0  0  0  0  0  0
  188.4690  178.3120  141.1970 C   0  0  0  0  0  3  0  0  0  0  0  0
  185.6550  178.0100  140.8630 C   0  0  0  0  0  0  0  0  0  0  0  0
  188.8880  177.7070  138.7920 C   0  0  2  0  0  3  0  0  0  0  0  0
  183.4590  179.5560  141.1970 Cl  0  0  0  0  0  0  0  0  0  0  0  0
  185.9640  178.0720  138.4260 C   0  0  0  0  0  0  0  0  0  0  0  0
  183.7030  177.6720  139.3110 C   0  0  0  0  0  0  0  0  0  0  0  0
  187.6580  178.3090  142.2550 C   0  0  0  0  0  0  0  0  0  0  0  0
  187.7750  179.3680  137.3070 N   0  0  0  0  0  2  0  0  0  0  0  0
  186.7140  178.3600  137.1470 C   0  0  1  0  0  3  0  0  0  0  0  0
  187.9670  178.1060  139.8660 N   0  0  0  0  0  0  0  0  0  0  0  0
  184.5270  177.7850  138.2710 C   0  0  0  0  0  3  0  0  0  0  0  0
  187.0560  174.7860  135.8350 C   0  0  0  0  0  0  0  0  0  0  0  0
  187.8300  174.9960  134.6910 C   0  0  0  0  0  3  0  0  0  0  0  0
  187.0850  177.1720  136.2950 C   0  0  0  0  0  0  0  0  0  0  0  0
  188.2320  176.2880  134.3460 C   0  0  0  0  0  3  0  0  0  0  0  0
  186.6830  175.8700  136.6340 C   0  0  0  0  0  3  0  0  0  0  0  0
  187.8610  177.3730  135.1470 C   0  0  0  0  0  3  0  0  0  0  0  0
  186.5550  173.1680  136.2730 Cl  0  0  0  0  0  0  0  0  0  0  0  0
  190.8550  176.1620  138.7200 C   0  0  0  0  0  3  0  0  0  0  0  0
  190.2870  175.3880  137.5740 C   0  0  0  0  0  1  0  0  0  0  0  0
  190.2270  177.2090  139.2690 C   0  0  0  0  0  3  0  0  0  0  0  0
  188.2470  178.4620  143.6190 C   0  0  0  0  0  2  0  0  0  0  0  0
  190.9150  175.9650  143.7280 N   0  0  0  0  0  0  0  0  0  0  0  0
  191.6250  177.0680  143.9170 N   0  0  0  0  0  2  0  0  0  0  0  0
  189.6080  176.2840  143.6090 C   0  0  0  0  0  3  0  0  0  0  0  0
  191.2030  179.5270  144.0980 C   0  0  0  0  0  1  0  0  0  0  0  0
  190.7800  178.1100  143.9250 C   0  0  0  0  0  0  0  0  0  0  0  0
  189.4960  177.6520  143.7430 C   0  0  0  0  0  0  0  0  0  0  0  0
  1  8  1  0  0  0  0
  1 10  1  0  0  0  0
  2 13  1  0  0  0  0
  2  6  1  0  0  0  0
  3 11  1  1  0  0  0
  3 16  1  0  0  0  0
  3  8  1  0  0  0  0
  4  9  1  0  0  0  0
  5 12  1  0  0  0  0
  7 13  2  0  0  0  0
  8  2  2  0  0  0  0
  9 27  1  1  0  0  0
  9 16  1  0  0  0  0
 12  1  2  0  0  0  0
 13 28  1  0  0  0  0
 14  4  1  0  0  0  0
 15 20  1  1  0  0  0
 15 14  1  0  0  0  0
 15 11  1  0  0  0  0
 16  7  1  0  0  0  0
 17 11  2  0  0  0  0
 17 12  1  0  0  0  0
 18 24  1  0  0  0  0
 18 22  1  0  0  0  0
 19 18  2  0  0  0  0
 20 22  2  0  0  0  0
 21 19  1  0  0  0  0
 21 23  2  0  0  0  0
 23 20  1  0  0  0  0
 25 27  2  0  0  0  0
 26 25  1  0  0  0  0
 28 34  1  0  0  0  0
 29 30  1  0  0  0  0
 30 33  1  0  0  0  0
 31 29  2  0  0  0  0
 31 34  1  0  0  0  0
 33 32  1  0  0  0  0
 34 33  2  0  0  0  0
M  END
>  <MODEL>
8

>  <REMARK>
 VINA RESULT:      -6.6      2.078      2.735
  Name = 
  4 active torsions:
  status: ('A' for Active; 'I' for Inactive)
    1  A    between atoms: C_12  and  C_28
    2  A    between atoms: C_18  and  C_29
    3  A    between atoms: C_20  and  C_25
    4  A    between atoms: C_20  and  C_34
                            x       y       z     vdW  Elec       q    Type
                         _______ _______ _______ _____ _____    ______ ____

>  <TORSDO>
F 4

$$$$
=
 OpenBabel10262423473D

 34 38  0  0  1  0  0  0  0  0999 V2000
  183.2640  178.4590  143.6980 C   0  0  0  0  0  0  0  0  0  0  0  0
  185.6500  178.2650  143.0720 C   0  0  0  0  0  0  0  0  0  0  0  0
  184.0890  178.7230  141.2400 C   0  0  1  0  0  3  0  0  0  0  0  0
  184.4940  179.8070  138.2060 C   0  0  0  0  0  2  0  0  0  0  0  0
  180.4980  178.1570  144.0970 Cl  0  0  0  0  0  0  0  0  0  0  0  0
  185.9340  177.9800  144.4060 O   0  0  0  0  0  1  0  0  0  0  0  0
  186.5370  178.6210  140.8230 C   0  0  0  0  0  3  0  0  0  0  0  0
  184.3770  178.4360  142.6740 C   0  0  0  0  0  0  0  0  0  0  0  0
  184.9590  178.5170  138.8670 C   0  0  2  0  0  3  0  0  0  0  0  0
  183.4170  179.9120  144.7290 Cl  0  0  0  0  0  0  0  0  0  0  0  0
  182.8120  178.9930  140.8630 C   0  0  0  0  0  0  0  0  0  0  0  0
  181.8940  178.4520  143.0810 C   0  0  0  0  0  0  0  0  0  0  0  0
  186.7710  178.4120  142.1190 C   0  0  0  0  0  0  0  0  0  0  0  0
  183.4070  180.4640  138.9410 N   0  0  0  0  0  2  0  0  0  0  0  0
  182.4220  179.5260  139.5050 C   0  0  1  0  0  3  0  0  0  0  0  0
  185.1980  178.7000  140.3060 N   0  0  0  0  0  0  0  0  0  0  0  0
  181.6990  178.7650  141.8010 C   0  0  0  0  0  3  0  0  0  0  0  0
  181.1840  176.2760  137.9180 C   0  0  0  0  0  0  0  0  0  0  0  0
  180.8140  176.7250  136.6470 C   0  0  0  0  0  3  0  0  0  0  0  0
  181.8510  178.5340  138.5230 C   0  0  0  0  0  0  0  0  0  0  0  0
  180.9600  178.0730  136.3120 C   0  0  0  0  0  3  0  0  0  0  0  0
  181.7000  177.1770  138.8530 C   0  0  0  0  0  3  0  0  0  0  0  0
  181.4790  178.9750  137.2470 C   0  0  0  0  0  3  0  0  0  0  0  0
  181.0070  174.5880  138.3390 Cl  0  0  0  0  0  0  0  0  0  0  0  0
  185.9530  177.0720  137.0830 C   0  0  0  0  0  3  0  0  0  0  0  0
  184.6090  176.6570  136.5790 C   0  0  0  0  0  1  0  0  0  0  0  0
  186.1130  177.9130  138.1130 C   0  0  0  0  0  3  0  0  0  0  0  0
  188.1830  178.2740  142.5850 C   0  0  0  0  0  2  0  0  0  0  0  0
  190.0350  177.1400  139.6440 N   0  0  0  0  0  0  0  0  0  0  0  0
  190.4800  176.2740  140.5430 N   0  0  0  0  0  2  0  0  0  0  0  0
  189.1400  177.9710  140.2210 C   0  0  0  0  0  3  0  0  0  0  0  0
  190.1250  175.7880  142.9710 C   0  0  0  0  0  1  0  0  0  0  0  0
  189.8740  176.5390  141.7110 C   0  0  0  0  0  0  0  0  0  0  0  0
  189.0140  177.5980  141.5430 C   0  0  0  0  0  0  0  0  0  0  0  0
  1 10  1  0  0  0  0
  2  6  1  0  0  0  0
  3 11  1  1  0  0  0
  3  8  1  0  0  0  0
  4  9  1  0  0  0  0
  4 14  1  0  0  0  0
  7 13  2  0  0  0  0
  8  2  2  0  0  0  0
  8  1  1  0  0  0  0
  9 27  1  6  0  0  0
  9 16  1  0  0  0  0
 11 17  2  0  0  0  0
 12  1  2  0  0  0  0
 12  5  1  0  0  0  0
 13 28  1  0  0  0  0
 13  2  1  0  0  0  0
 14 15  1  0  0  0  0
 15 20  1  6  0  0  0
 15 11  1  0  0  0  0
 16  7  1  0  0  0  0
 16  3  1  0  0  0  0
 17 12  1  0  0  0  0
 18 24  1  0  0  0  0
 18 22  1  0  0  0  0
 19 18  2  0  0  0  0
 20 22  2  0  0  0  0
 21 19  1  0  0  0  0
 21 23  2  0  0  0  0
 23 20  1  0  0  0  0
 25 27  2  0  0  0  0
 26 25  1  0  0  0  0
 29 31  2  0  0  0  0
 29 30  1  0  0  0  0
 30 33  1  0  0  0  0
 31 34  1  0  0  0  0
 33 32  1  0  0  0  0
 34 33  2  0  0  0  0
 34 28  1  0  0  0  0
M  END
>  <MODEL>
9

>  <REMARK>
 VINA RESULT:      -6.5      3.043      5.796
  Name = 
  4 active torsions:
  status: ('A' for Active; 'I' for Inactive)
    1  A    between atoms: C_12  and  C_28
    2  A    between atoms: C_18  and  C_29
    3  A    between atoms: C_20  and  C_25
    4  A    between atoms: C_20  and  C_34
                            x       y       z     vdW  Elec       q    Type
                         _______ _______ _______ _____ _____    ______ ____

>  <TORSDO>
F 4

$$$$
