=
 OpenBabel10272400453D

 25 28  0  0  1  0  0  0  0  0999 V2000
  187.7540  176.7640  143.3460 C   0  0  0  0  0  0  0  0  0  0  0  0
  188.8000  177.2600  142.4850 N   0  0  0  0  0  0  0  0  0  0  0  0
  190.8630  176.3020  144.8290 C   0  0  1  0  0  3  0  0  0  0  0  0
  190.9830  178.6670  144.0590 C   0  0  2  0  0  3  0  0  0  0  0  0
  190.5990  175.5290  142.4650 C   0  0  0  0  0  2  0  0  0  0  0  0
  191.6420  177.7600  143.0800 C   0  0  0  0  0  0  0  0  0  0  0  0
  192.2570  178.1550  142.1020 O   0  0  0  0  0  0  0  0  0  0  0  0
  190.6500  177.7490  145.2430 C   0  0  2  0  0  0  0  0  0  0  0  0
  189.0550  178.6840  142.2760 C   0  0  0  0  0  2  0  0  0  0  0  0
  187.7500  175.5420  143.6620 O   0  0  0  0  0  0  0  0  0  0  0  0
  191.4950  176.3180  143.4370 C   0  0  1  0  0  3  0  0  0  0  0  0
  191.8080  176.9440  145.8470 C   0  0  1  0  0  3  0  0  0  0  0  0
  189.7170  179.3500  143.4930 C   0  0  0  0  0  2  0  0  0  0  0  0
  189.5780  176.3440  141.6540 C   0  0  0  0  0  2  0  0  0  0  0  0
  189.3870  177.9700  146.0740 C   0  0  0  0  0  1  0  0  0  0  0  0
  186.6740  177.6370  143.8670 C   0  0  0  0  0  0  0  0  0  0  0  0
  184.6760  179.3410  144.8760 C   0  0  0  0  0  3  0  0  0  0  0  0
  185.7920  178.3050  142.9910 C   0  0  0  0  0  0  0  0  0  0  0  0
  184.7970  179.1460  143.4990 C   0  0  0  0  0  3  0  0  0  0  0  0
  185.5510  178.6960  145.7500 C   0  0  0  0  0  3  0  0  0  0  0  0
  185.8730  178.1290  141.6480 F   0  0  0  0  0  0  0  0  0  0  0  0
  186.5450  177.8540  145.2480 C   0  0  0  0  0  3  0  0  0  0  0  0
  191.5340  176.4190  147.2240 C   0  0  0  0  0  0  0  0  0  0  0  0
  190.8930  175.1990  147.3980 O   0  0  0  0  0  0  0  0  0  0  0  0
  191.9240  177.0660  148.2310 O   0  0  0  0  0  1  0  0  0  0  0  0
  1 10  2  0  0  0  0
  1 16  1  0  0  0  0
  2  1  1  0  0  0  0
  3  8  1  0  0  0  0
  3 12  1  0  0  0  0
  4  8  1  0  0  0  0
  5 11  1  0  0  0  0
  6 11  1  0  0  0  0
  6  4  1  0  0  0  0
  7  6  2  0  0  0  0
  8 12  1  0  0  0  0
  8 15  1  0  0  0  0
  9  2  1  0  0  0  0
  9 13  1  0  0  0  0
 11  3  1  0  0  0  0
 12 23  1  0  0  0  0
 13  4  1  0  0  0  0
 14  5  1  0  0  0  0
 14  2  1  0  0  0  0
 16 22  1  0  0  0  0
 17 20  1  0  0  0  0
 18 19  1  0  0  0  0
 18 16  2  0  0  0  0
 19 17  2  0  0  0  0
 21 18  1  0  0  0  0
 22 20  2  0  0  0  0
 23 24  2  0  0  0  0
 23 25  1  0  0  0  0
M  END
>  <MODEL>
1

>  <REMARK>
 VINA RESULT:      -7.2      0.000      0.000
  Name = 
  2 active torsions:
  status: ('A' for Active; 'I' for Inactive)
    1  A    between atoms: C_1  and  C_5
    2  A    between atoms: C_2  and  C_21
                            x       y       z     vdW  Elec       q    Type
                         _______ _______ _______ _____ _____    ______ ____

>  <TORSDO>
F 2

$$$$
=
 OpenBabel10272400453D

 25 28  0  0  1  0  0  0  0  0999 V2000
  187.7000  176.8010  143.2980 C   0  0  0  0  0  0  0  0  0  0  0  0
  188.7730  177.2280  142.4330 N   0  0  0  0  0  0  0  0  0  0  0  0
  190.7680  176.3760  144.8740 C   0  0  1  0  0  3  0  0  0  0  0  0
  190.9460  178.6900  143.9700 C   0  0  2  0  0  3  0  0  0  0  0  0
  190.5410  175.4700  142.5550 C   0  0  0  0  0  2  0  0  0  0  0  0
  191.6100  177.7160  143.0610 C   0  0  0  0  0  0  0  0  0  0  0  0
  192.2510  178.0430  142.0750 O   0  0  0  0  0  0  0  0  0  0  0  0
  190.5710  177.8480  145.1980 C   0  0  2  0  0  0  0  0  0  0  0  0
  189.0570  178.6330  142.1470 C   0  0  0  0  0  2  0  0  0  0  0  0
  187.6680  175.6000  143.6850 O   0  0  0  0  0  0  0  0  0  0  0  0
  191.4300  176.3000  143.4980 C   0  0  1  0  0  3  0  0  0  0  0  0
  191.7030  177.0620  145.8740 C   0  0  1  0  0  3  0  0  0  0  0  0
  189.7050  179.3590  143.3370 C   0  0  0  0  0  2  0  0  0  0  0  0
  189.5520  176.2520  141.6740 C   0  0  0  0  0  2  0  0  0  0  0  0
  189.2960  178.1390  145.9870 C   0  0  0  0  0  1  0  0  0  0  0  0
  186.6240  177.7210  143.7430 C   0  0  0  0  0  0  0  0  0  0  0  0
  184.5370  179.4270  144.5480 C   0  0  0  0  0  3  0  0  0  0  0  0
  186.2100  177.7590  145.0910 C   0  0  0  0  0  0  0  0  0  0  0  0
  185.1760  178.6140  145.4860 C   0  0  0  0  0  3  0  0  0  0  0  0
  184.9310  179.3870  143.2100 C   0  0  0  0  0  3  0  0  0  0  0  0
  186.8160  176.9920  146.0310 F   0  0  0  0  0  0  0  0  0  0  0  0
  185.9640  178.5370  142.8100 C   0  0  0  0  0  3  0  0  0  0  0  0
  191.3900  176.6230  147.2720 C   0  0  0  0  0  0  0  0  0  0  0  0
  190.7170  175.4300  147.5030 O   0  0  0  0  0  0  0  0  0  0  0  0
  191.7770  177.3170  148.2480 O   0  0  0  0  0  1  0  0  0  0  0  0
  1 10  2  0  0  0  0
  1 16  1  0  0  0  0
  2  1  1  0  0  0  0
  3  8  1  0  0  0  0
  3 12  1  0  0  0  0
  4  8  1  0  0  0  0
  5 11  1  0  0  0  0
  6 11  1  0  0  0  0
  6  4  1  0  0  0  0
  7  6  2  0  0  0  0
  8 12  1  0  0  0  0
  8 15  1  0  0  0  0
  9  2  1  0  0  0  0
  9 13  1  0  0  0  0
 11  3  1  0  0  0  0
 12 23  1  0  0  0  0
 13  4  1  0  0  0  0
 14  2  1  0  0  0  0
 14  5  1  0  0  0  0
 16 18  1  0  0  0  0
 17 19  1  0  0  0  0
 18 19  2  0  0  0  0
 18 21  1  0  0  0  0
 20 17  2  0  0  0  0
 22 20  1  0  0  0  0
 22 16  2  0  0  0  0
 23 24  2  0  0  0  0
 23 25  1  0  0  0  0
M  END
>  <MODEL>
2

>  <REMARK>
 VINA RESULT:      -6.8      0.952      1.347
  Name = 
  2 active torsions:
  status: ('A' for Active; 'I' for Inactive)
    1  A    between atoms: C_1  and  C_5
    2  A    between atoms: C_2  and  C_21
                            x       y       z     vdW  Elec       q    Type
                         _______ _______ _______ _____ _____    ______ ____

>  <TORSDO>
F 2

$$$$
=
 OpenBabel10272400453D

 25 28  0  0  1  0  0  0  0  0999 V2000
  183.8270  179.3590  138.8450 C   0  0  0  0  0  0  0  0  0  0  0  0
  182.9950  178.3880  138.1750 N   0  0  0  0  0  0  0  0  0  0  0  0
  180.7020  179.1930  140.3570 C   0  0  1  0  0  3  0  0  0  0  0  0
  181.3200  176.7900  140.1390 C   0  0  2  0  0  3  0  0  0  0  0  0
  180.7550  179.4480  137.8700 C   0  0  0  0  0  2  0  0  0  0  0  0
  180.4310  177.2090  139.0210 C   0  0  0  0  0  0  0  0  0  0  0  0
  179.9820  176.4350  138.1910 O   0  0  0  0  0  0  0  0  0  0  0  0
  181.3400  178.0110  141.0690 C   0  0  2  0  0  0  0  0  0  0  0  0
  183.1890  176.9450  138.3010 C   0  0  0  0  0  2  0  0  0  0  0  0
  183.4530  180.5640  138.8800 O   0  0  0  0  0  0  0  0  0  0  0  0
  180.1270  178.6700  139.0400 C   0  0  1  0  0  3  0  0  0  0  0  0
  179.9820  178.5470  141.5430 C   0  0  1  0  0  3  0  0  0  0  0  0
  182.7430  176.4080  139.6710 C   0  0  0  0  0  2  0  0  0  0  0  0
  181.9880  178.8140  137.2050 C   0  0  0  0  0  2  0  0  0  0  0  0
  182.5970  178.3750  141.8590 C   0  0  0  0  0  1  0  0  0  0  0  0
  185.1140  178.9920  139.4860 C   0  0  0  0  0  0  0  0  0  0  0  0
  187.5190  178.2450  140.7380 C   0  0  0  0  0  3  0  0  0  0  0  0
  186.1650  178.4240  138.7360 C   0  0  0  0  0  0  0  0  0  0  0  0
  187.3610  178.0600  139.3630 C   0  0  0  0  0  3  0  0  0  0  0  0
  186.4810  178.7940  141.4910 C   0  0  0  0  0  3  0  0  0  0  0  0
  186.0500  178.2420  137.3970 F   0  0  0  0  0  0  0  0  0  0  0  0
  185.2860  179.1610  140.8690 C   0  0  0  0  0  3  0  0  0  0  0  0
  180.0620  179.4300  142.7510 C   0  0  0  0  0  0  0  0  0  0  0  0
  180.1200  178.8790  144.0250 O   0  0  0  0  0  1  0  0  0  0  0  0
  180.1220  180.6800  142.6110 O   0  0  0  0  0  0  0  0  0  0  0  0
  1 10  2  0  0  0  0
  1 16  1  0  0  0  0
  2  9  1  0  0  0  0
  2  1  1  0  0  0  0
  3  8  1  0  0  0  0
  3 12  1  0  0  0  0
  4  8  1  0  0  0  0
  5 11  1  0  0  0  0
  6 11  1  0  0  0  0
  6  4  1  0  0  0  0
  7  6  2  0  0  0  0
  8 12  1  0  0  0  0
  8 15  1  0  0  0  0
  9 13  1  0  0  0  0
 11  3  1  0  0  0  0
 12 23  1  0  0  0  0
 13  4  1  0  0  0  0
 14  5  1  0  0  0  0
 14  2  1  0  0  0  0
 16 22  1  0  0  0  0
 17 20  1  0  0  0  0
 18 19  1  0  0  0  0
 18 16  2  0  0  0  0
 19 17  2  0  0  0  0
 21 18  1  0  0  0  0
 22 20  2  0  0  0  0
 23 24  1  0  0  0  0
 25 23  2  0  0  0  0
M  END
>  <MODEL>
3

>  <REMARK>
 VINA RESULT:      -5.6      6.090      9.341
  Name = 
  2 active torsions:
  status: ('A' for Active; 'I' for Inactive)
    1  A    between atoms: C_1  and  C_5
    2  A    between atoms: C_2  and  C_21
                            x       y       z     vdW  Elec       q    Type
                         _______ _______ _______ _____ _____    ______ ____

>  <TORSDO>
F 2

$$$$
=
 OpenBabel10272400453D

 25 28  0  0  1  0  0  0  0  0999 V2000
  187.8680  176.7330  142.8820 C   0  0  0  0  0  0  0  0  0  0  0  0
  189.1640  177.1310  142.3860 N   0  0  0  0  0  0  0  0  0  0  0  0
  190.2270  176.6280  145.4330 C   0  0  1  0  0  3  0  0  0  0  0  0
  190.6610  178.8480  144.3930 C   0  0  2  0  0  3  0  0  0  0  0  0
  190.8150  175.4890  143.2850 C   0  0  0  0  0  2  0  0  0  0  0  0
  191.6110  177.8280  143.8710 C   0  0  0  0  0  0  0  0  0  0  0  0
  192.5430  178.0910  143.1290 O   0  0  0  0  0  0  0  0  0  0  0  0
  189.9070  178.1110  145.5080 C   0  0  2  0  0  0  0  0  0  0  0  0
  189.5040  178.5140  142.0590 C   0  0  0  0  0  2  0  0  0  0  0  0
  187.7280  175.5750  143.3640 O   0  0  0  0  0  0  0  0  0  0  0  0
  191.3170  176.4530  144.3750 C   0  0  1  0  0  3  0  0  0  0  0  0
  190.7550  177.4560  146.6060 C   0  0  1  0  0  3  0  0  0  0  0  0
  189.6970  179.3860  143.3110 C   0  0  0  0  0  2  0  0  0  0  0  0
  190.1700  176.1280  142.0440 C   0  0  0  0  0  2  0  0  0  0  0  0
  188.4340  178.4090  145.7870 C   0  0  0  0  0  1  0  0  0  0  0  0
  186.6900  177.6330  142.8360 C   0  0  0  0  0  0  0  0  0  0  0  0
  184.4920  179.3880  142.7920 C   0  0  0  0  0  3  0  0  0  0  0  0
  186.3230  178.2910  141.6440 C   0  0  0  0  0  0  0  0  0  0  0  0
  185.2250  179.1580  141.6270 C   0  0  0  0  0  3  0  0  0  0  0  0
  184.8540  178.7520  143.9790 C   0  0  0  0  0  3  0  0  0  0  0  0
  187.0050  178.0820  140.4900 F   0  0  0  0  0  0  0  0  0  0  0  0
  185.9480  177.8850  144.0020 C   0  0  0  0  0  3  0  0  0  0  0  0
  189.9930  177.1390  147.8580 C   0  0  0  0  0  0  0  0  0  0  0  0
  189.9110  178.0680  148.8870 O   0  0  0  0  0  1  0  0  0  0  0  0
  189.3870  176.0400  147.9610 O   0  0  0  0  0  0  0  0  0  0  0  0
  1 10  2  0  0  0  0
  2  1  1  0  0  0  0
  3  8  1  0  0  0  0
  3 12  1  0  0  0  0
  4  8  1  0  0  0  0
  5 11  1  0  0  0  0
  6 11  1  0  0  0  0
  6  4  1  0  0  0  0
  7  6  2  0  0  0  0
  8 15  1  0  0  0  0
  8 12  1  0  0  0  0
  9  2  1  0  0  0  0
  9 13  1  0  0  0  0
 11  3  1  0  0  0  0
 12 23  1  0  0  0  0
 13  4  1  0  0  0  0
 14  2  1  0  0  0  0
 14  5  1  0  0  0  0
 16  1  1  0  0  0  0
 16 22  1  0  0  0  0
 17 20  1  0  0  0  0
 18 16  2  0  0  0  0
 19 18  1  0  0  0  0
 19 17  2  0  0  0  0
 20 22  2  0  0  0  0
 21 18  1  0  0  0  0
 23 25  2  0  0  0  0
 23 24  1  0  0  0  0
M  END
>  <MODEL>
4

>  <REMARK>
 VINA RESULT:      -5.4      1.123      1.434
  Name = 
  2 active torsions:
  status: ('A' for Active; 'I' for Inactive)
    1  A    between atoms: C_1  and  C_5
    2  A    between atoms: C_2  and  C_21
                            x       y       z     vdW  Elec       q    Type
                         _______ _______ _______ _____ _____    ______ ____

>  <TORSDO>
F 2

$$$$
=
 OpenBabel10272400453D

 25 28  0  0  1  0  0  0  0  0999 V2000
  188.4940  173.5080  136.5100 C   0  0  0  0  0  0  0  0  0  0  0  0
  188.9590  174.3650  135.4470 N   0  0  0  0  0  0  0  0  0  0  0  0
  189.1990  176.6820  137.7360 C   0  0  1  0  0  3  0  0  0  0  0  0
  187.8520  177.1810  135.7020 C   0  0  2  0  0  3  0  0  0  0  0  0
  190.9510  175.5870  136.3270 C   0  0  0  0  0  2  0  0  0  0  0  0
  189.3070  177.2900  135.4100 C   0  0  0  0  0  0  0  0  0  0  0  0
  189.7540  177.6890  134.3460 O   0  0  0  0  0  0  0  0  0  0  0  0
  187.7980  176.9660  137.2210 C   0  0  2  0  0  0  0  0  0  0  0  0
  188.0800  174.9050  134.4120 C   0  0  0  0  0  2  0  0  0  0  0  0
  189.2550  173.2810  137.4910 O   0  0  0  0  0  0  0  0  0  0  0  0
  190.1620  176.8870  136.5660 C   0  0  1  0  0  3  0  0  0  0  0  0
  188.5150  178.0030  138.0960 C   0  0  1  0  0  3  0  0  0  0  0  0
  187.1670  176.0240  134.9380 C   0  0  0  0  0  2  0  0  0  0  0  0
  190.3870  174.6230  135.2700 C   0  0  0  0  0  2  0  0  0  0  0  0
  186.7210  176.0830  137.8490 C   0  0  0  0  0  1  0  0  0  0  0  0
  187.1530  172.8720  136.4870 C   0  0  0  0  0  0  0  0  0  0  0  0
  184.5820  171.7320  136.4260 C   0  0  0  0  0  3  0  0  0  0  0  0
  186.8120  171.9270  135.4980 C   0  0  0  0  0  0  0  0  0  0  0  0
  185.5350  171.3580  135.4770 C   0  0  0  0  0  3  0  0  0  0  0  0
  184.9040  172.6760  137.4010 C   0  0  0  0  0  3  0  0  0  0  0  0
  187.7170  171.5310  134.5670 F   0  0  0  0  0  0  0  0  0  0  0  0
  186.1790  173.2450  137.4280 C   0  0  0  0  0  3  0  0  0  0  0  0
  188.0800  177.9960  139.5310 C   0  0  0  0  0  0  0  0  0  0  0  0
  188.7820  177.2580  140.4760 O   0  0  0  0  0  1  0  0  0  0  0  0
  187.0990  178.6980  139.8910 O   0  0  0  0  0  0  0  0  0  0  0  0
  1 10  2  0  0  0  0
  2  1  1  0  0  0  0
  3 12  1  0  0  0  0
  4  8  1  0  0  0  0
  5 11  1  0  0  0  0
  6  4  1  0  0  0  0
  6 11  1  0  0  0  0
  7  6  2  0  0  0  0
  8  3  1  0  0  0  0
  8 15  1  0  0  0  0
  8 12  1  0  0  0  0
  9 13  1  0  0  0  0
  9  2  1  0  0  0  0
 11  3  1  0  0  0  0
 12 23  1  0  0  0  0
 13  4  1  0  0  0  0
 14  2  1  0  0  0  0
 14  5  1  0  0  0  0
 16  1  1  0  0  0  0
 16 22  1  0  0  0  0
 17 20  1  0  0  0  0
 18 16  2  0  0  0  0
 19 18  1  0  0  0  0
 19 17  2  0  0  0  0
 20 22  2  0  0  0  0
 21 18  1  0  0  0  0
 23 25  2  0  0  0  0
 23 24  1  0  0  0  0
M  END
>  <MODEL>
5

>  <REMARK>
 VINA RESULT:      -4.8      6.549      8.699
  Name = 
  2 active torsions:
  status: ('A' for Active; 'I' for Inactive)
    1  A    between atoms: C_1  and  C_5
    2  A    between atoms: C_2  and  C_21
                            x       y       z     vdW  Elec       q    Type
                         _______ _______ _______ _____ _____    ______ ____

>  <TORSDO>
F 2

$$$$
=
 OpenBabel10272400453D

 25 28  0  0  1  0  0  0  0  0999 V2000
  190.4200  176.0220  137.7680 C   0  0  0  0  0  0  0  0  0  0  0  0
  189.8350  177.0920  136.9960 N   0  0  0  0  0  0  0  0  0  0  0  0
  187.0410  175.4150  137.2250 C   0  0  1  0  0  3  0  0  0  0  0  0
  187.8430  176.0510  134.9540 C   0  0  2  0  0  3  0  0  0  0  0  0
  187.6700  177.6730  138.0960 C   0  0  0  0  0  2  0  0  0  0  0  0
  187.2230  177.2170  135.6390 C   0  0  0  0  0  0  0  0  0  0  0  0
  187.0340  178.2950  135.0980 O   0  0  0  0  0  0  0  0  0  0  0  0
  187.5630  174.8770  135.9030 C   0  0  2  0  0  0  0  0  0  0  0  0
  190.0840  177.2760  135.5680 C   0  0  0  0  0  2  0  0  0  0  0  0
  189.9730  175.7880  138.9250 O   0  0  0  0  0  0  0  0  0  0  0  0
  186.8310  176.9200  137.0490 C   0  0  1  0  0  3  0  0  0  0  0  0
  186.1010  174.6380  136.3010 C   0  0  1  0  0  3  0  0  0  0  0  0
  189.3580  176.2320  134.7040 C   0  0  0  0  0  2  0  0  0  0  0  0
  189.0640  178.1470  137.6510 C   0  0  0  0  0  2  0  0  0  0  0  0
  188.5700  173.7380  136.0580 C   0  0  0  0  0  1  0  0  0  0  0  0
  191.5370  175.1920  137.2540 C   0  0  0  0  0  0  0  0  0  0  0  0
  193.6260  173.6230  136.2130 C   0  0  0  0  0  3  0  0  0  0  0  0
  192.8580  175.6850  137.2290 C   0  0  0  0  0  0  0  0  0  0  0  0
  193.8940  174.8970  136.7150 C   0  0  0  0  0  3  0  0  0  0  0  0
  192.3210  173.1310  136.2210 C   0  0  0  0  0  3  0  0  0  0  0  0
  193.1560  176.9130  137.7210 F   0  0  0  0  0  0  0  0  0  0  0  0
  191.2830  173.9120  136.7340 C   0  0  0  0  0  3  0  0  0  0  0  0
  185.8340  173.2700  136.8530 C   0  0  0  0  0  0  0  0  0  0  0  0
  185.5760  172.2040  136.0010 O   0  0  0  0  0  0  0  0  0  0  0  0
  185.8880  173.0740  138.0960 O   0  0  0  0  0  1  0  0  0  0  0  0
  1 10  2  0  0  0  0
  2 14  1  0  0  0  0
  2  1  1  0  0  0  0
  4  6  1  0  0  0  0
  4  8  1  0  0  0  0
  6 11  1  0  0  0  0
  7  6  2  0  0  0  0
  8 15  1  0  0  0  0
  8 12  1  0  0  0  0
  8  3  1  0  0  0  0
  9  2  1  0  0  0  0
 11  3  1  0  0  0  0
 11  5  1  0  0  0  0
 12 23  1  0  0  0  0
 12  3  1  0  0  0  0
 13  4  1  0  0  0  0
 13  9  1  0  0  0  0
 14  5  1  0  0  0  0
 16  1  1  0  0  0  0
 17 20  2  0  0  0  0
 17 19  1  0  0  0  0
 18 16  1  0  0  0  0
 18 21  1  0  0  0  0
 19 18  2  0  0  0  0
 20 22  1  0  0  0  0
 22 16  2  0  0  0  0
 23 25  1  0  0  0  0
 24 23  2  0  0  0  0
M  END
>  <MODEL>
6

>  <REMARK>
 VINA RESULT:      -4.6      6.810      9.680
  Name = 
  2 active torsions:
  status: ('A' for Active; 'I' for Inactive)
    1  A    between atoms: C_1  and  C_5
    2  A    between atoms: C_2  and  C_21
                            x       y       z     vdW  Elec       q    Type
                         _______ _______ _______ _____ _____    ______ ____

>  <TORSDO>
F 2

$$$$
=
 OpenBabel10272400453D

 25 28  0  0  1  0  0  0  0  0999 V2000
  185.8820  175.2120  136.4420 C   0  0  0  0  0  0  0  0  0  0  0  0
  186.9230  175.5530  135.5020 N   0  0  0  0  0  0  0  0  0  0  0  0
  188.6110  176.5790  138.1030 C   0  0  1  0  0  3  0  0  0  0  0  0
  188.2750  178.1750  136.2200 C   0  0  2  0  0  3  0  0  0  0  0  0
  189.0700  174.7340  136.4780 C   0  0  0  0  0  2  0  0  0  0  0  0
  189.3410  177.1900  135.8920 C   0  0  0  0  0  0  0  0  0  0  0  0
  190.0270  177.2490  134.8840 O   0  0  0  0  0  0  0  0  0  0  0  0
  187.9450  177.8820  137.6910 C   0  0  2  0  0  0  0  0  0  0  0  0
  186.8370  176.6960  134.5950 C   0  0  0  0  0  2  0  0  0  0  0  0
  186.1280  174.3670  137.3470 O   0  0  0  0  0  0  0  0  0  0  0  0
  189.5010  176.1380  136.9400 C   0  0  1  0  0  3  0  0  0  0  0  0
  189.1160  177.9020  138.6830 C   0  0  1  0  0  3  0  0  0  0  0  0
  187.0270  178.0390  135.3180 C   0  0  0  0  0  2  0  0  0  0  0  0
  188.0710  174.6700  135.3100 C   0  0  0  0  0  2  0  0  0  0  0  0
  186.5210  178.0390  138.2210 C   0  0  0  0  0  1  0  0  0  0  0  0
  184.5260  175.8110  136.3750 C   0  0  0  0  0  0  0  0  0  0  0  0
  181.9860  177.0120  136.2370 C   0  0  0  0  0  3  0  0  0  0  0  0
  183.6480  175.5100  135.3130 C   0  0  0  0  0  0  0  0  0  0  0  0
  182.3840  176.1060  135.2530 C   0  0  0  0  0  3  0  0  0  0  0  0
  182.8510  177.3260  137.2860 C   0  0  0  0  0  3  0  0  0  0  0  0
  183.9970  174.6250  134.3460 F   0  0  0  0  0  0  0  0  0  0  0  0
  184.1140  176.7330  137.3510 C   0  0  0  0  0  3  0  0  0  0  0  0
  188.6980  178.0410  140.1160 C   0  0  0  0  0  0  0  0  0  0  0  0
  188.7510  176.9500  140.9750 O   0  0  0  0  0  1  0  0  0  0  0  0
  188.3380  179.1630  140.5580 O   0  0  0  0  0  0  0  0  0  0  0  0
  1 10  2  0  0  0  0
  2  1  1  0  0  0  0
  3 12  1  0  0  0  0
  4  8  1  0  0  0  0
  5 11  1  0  0  0  0
  6  4  1  0  0  0  0
  6 11  1  0  0  0  0
  7  6  2  0  0  0  0
  8  3  1  0  0  0  0
  8 15  1  0  0  0  0
  8 12  1  0  0  0  0
  9 13  1  0  0  0  0
  9  2  1  0  0  0  0
 11  3  1  0  0  0  0
 12 23  1  0  0  0  0
 13  4  1  0  0  0  0
 14  2  1  0  0  0  0
 14  5  1  0  0  0  0
 16  1  1  0  0  0  0
 16 22  1  0  0  0  0
 17 20  1  0  0  0  0
 18 16  2  0  0  0  0
 19 18  1  0  0  0  0
 19 17  2  0  0  0  0
 20 22  2  0  0  0  0
 21 18  1  0  0  0  0
 23 25  2  0  0  0  0
 23 24  1  0  0  0  0
M  END
>  <MODEL>
7

>  <REMARK>
 VINA RESULT:      -4.4      6.275      7.916
  Name = 
  2 active torsions:
  status: ('A' for Active; 'I' for Inactive)
    1  A    between atoms: C_1  and  C_5
    2  A    between atoms: C_2  and  C_21
                            x       y       z     vdW  Elec       q    Type
                         _______ _______ _______ _____ _____    ______ ____

>  <TORSDO>
F 2

$$$$
=
 OpenBabel10272400453D

 25 28  0  0  1  0  0  0  0  0999 V2000
  187.8380  178.3580  137.4310 C   0  0  0  0  0  0  0  0  0  0  0  0
  188.5120  177.2280  136.8380 N   0  0  0  0  0  0  0  0  0  0  0  0
  185.8250  176.8790  135.0150 C   0  0  1  0  0  3  0  0  0  0  0  0
  186.6080  174.9170  136.3340 C   0  0  2  0  0  3  0  0  0  0  0  0
  188.1830  177.4060  134.3700 C   0  0  0  0  0  2  0  0  0  0  0  0
  187.4380  175.0950  135.1120 C   0  0  0  0  0  0  0  0  0  0  0  0
  188.3010  174.3060  134.7620 O   0  0  0  0  0  0  0  0  0  0  0  0
  185.4830  175.9480  136.1670 C   0  0  2  0  0  0  0  0  0  0  0  0
  188.7010  175.9550  137.5330 C   0  0  0  0  0  2  0  0  0  0  0  0
  187.5050  179.3260  136.6940 O   0  0  0  0  0  0  0  0  0  0  0  0
  187.0850  176.3270  134.3460 C   0  0  1  0  0  3  0  0  0  0  0  0
  184.6700  175.8860  134.8670 C   0  0  1  0  0  3  0  0  0  0  0  0
  187.4000  175.1440  137.6420 C   0  0  0  0  0  2  0  0  0  0  0  0
  189.1770  177.3520  135.5430 C   0  0  0  0  0  2  0  0  0  0  0  0
  184.8900  176.6640  137.3800 C   0  0  0  0  0  1  0  0  0  0  0  0
  187.5320  178.4280  138.8810 C   0  0  0  0  0  0  0  0  0  0  0  0
  186.9190  178.4960  141.6260 C   0  0  0  0  0  3  0  0  0  0  0  0
  188.5580  178.3490  139.8460 C   0  0  0  0  0  0  0  0  0  0  0  0
  188.2470  178.3890  141.2090 C   0  0  0  0  0  3  0  0  0  0  0  0
  185.8960  178.5610  140.6790 C   0  0  0  0  0  3  0  0  0  0  0  0
  189.8600  178.2570  139.4770 F   0  0  0  0  0  0  0  0  0  0  0  0
  186.2010  178.5230  139.3170 C   0  0  0  0  0  3  0  0  0  0  0  0
  183.3520  176.5980  134.9370 C   0  0  0  0  0  0  0  0  0  0  0  0
  182.2160  175.9360  135.3850 O   0  0  0  0  0  1  0  0  0  0  0  0
  183.2820  177.8170  134.6290 O   0  0  0  0  0  0  0  0  0  0  0  0
  1 16  1  0  0  0  0
  2  1  1  0  0  0  0
  2  9  1  0  0  0  0
  3  8  1  0  0  0  0
  4 13  1  0  0  0  0
  5 14  1  0  0  0  0
  6  4  1  0  0  0  0
  7  6  2  0  0  0  0
  8  4  1  0  0  0  0
  8 15  1  0  0  0  0
  9 13  1  0  0  0  0
 10  1  2  0  0  0  0
 11  5  1  0  0  0  0
 11  3  1  0  0  0  0
 11  6  1  0  0  0  0
 12 23  1  0  0  0  0
 12  3  1  0  0  0  0
 12  8  1  0  0  0  0
 14  2  1  0  0  0  0
 16 22  2  0  0  0  0
 16 18  1  0  0  0  0
 18 19  2  0  0  0  0
 19 17  1  0  0  0  0
 20 17  2  0  0  0  0
 21 18  1  0  0  0  0
 22 20  1  0  0  0  0
 23 24  1  0  0  0  0
 25 23  2  0  0  0  0
M  END
>  <MODEL>
8

>  <REMARK>
 VINA RESULT:      -4.3      6.416      9.085
  Name = 
  2 active torsions:
  status: ('A' for Active; 'I' for Inactive)
    1  A    between atoms: C_1  and  C_5
    2  A    between atoms: C_2  and  C_21
                            x       y       z     vdW  Elec       q    Type
                         _______ _______ _______ _____ _____    ______ ____

>  <TORSDO>
F 2

$$$$
=
 OpenBabel10272400453D

 25 28  0  0  1  0  0  0  0  0999 V2000
  189.7300  177.5910  137.5070 C   0  0  0  0  0  0  0  0  0  0  0  0
  190.3240  176.5330  136.7240 N   0  0  0  0  0  0  0  0  0  0  0  0
  187.4330  176.3460  135.2160 C   0  0  1  0  0  3  0  0  0  0  0  0
  188.3660  174.2670  136.2230 C   0  0  2  0  0  3  0  0  0  0  0  0
  189.6960  176.9590  134.3460 C   0  0  0  0  0  2  0  0  0  0  0  0
  189.0410  174.5780  134.9330 C   0  0  0  0  0  0  0  0  0  0  0  0
  189.8520  173.8370  134.4010 O   0  0  0  0  0  0  0  0  0  0  0  0
  187.2320  175.2990  136.3000 C   0  0  2  0  0  0  0  0  0  0  0  0
  190.5930  175.1990  137.2570 C   0  0  0  0  0  2  0  0  0  0  0  0
  189.3120  178.6260  136.9190 O   0  0  0  0  0  0  0  0  0  0  0  0
  188.6000  175.8780  134.3460 C   0  0  1  0  0  3  0  0  0  0  0  0
  186.2650  175.3620  135.1100 C   0  0  1  0  0  3  0  0  0  0  0  0
  189.3120  174.3680  137.4400 C   0  0  0  0  0  2  0  0  0  0  0  0
  190.8250  176.7960  135.3770 C   0  0  0  0  0  2  0  0  0  0  0  0
  186.7930  175.8820  137.6430 C   0  0  0  0  0  1  0  0  0  0  0  0
  189.6040  177.5090  138.9840 C   0  0  0  0  0  0  0  0  0  0  0  0
  189.4180  177.4040  141.7880 C   0  0  0  0  0  3  0  0  0  0  0  0
  188.4640  178.0110  139.6450 C   0  0  0  0  0  0  0  0  0  0  0  0
  188.3740  177.9500  141.0390 C   0  0  0  0  0  3  0  0  0  0  0  0
  190.5560  176.9170  141.1450 C   0  0  0  0  0  3  0  0  0  0  0  0
  187.4250  178.5370  138.9480 F   0  0  0  0  0  0  0  0  0  0  0  0
  190.6500  176.9740  139.7530 C   0  0  0  0  0  3  0  0  0  0  0  0
  184.9680  176.0500  135.4120 C   0  0  0  0  0  0  0  0  0  0  0  0
  183.9030  175.3400  135.9510 O   0  0  0  0  0  1  0  0  0  0  0  0
  184.8570  177.2890  135.2180 O   0  0  0  0  0  0  0  0  0  0  0  0
  1 16  1  0  0  0  0
  2  9  1  0  0  0  0
  2  1  1  0  0  0  0
  3  8  1  0  0  0  0
  4  8  1  0  0  0  0
  4 13  1  0  0  0  0
  5 11  1  0  0  0  0
  5 14  1  0  0  0  0
  6  4  1  0  0  0  0
  7  6  2  0  0  0  0
  8 15  1  0  0  0  0
  9 13  1  0  0  0  0
 10  1  2  0  0  0  0
 11  6  1  0  0  0  0
 11  3  1  0  0  0  0
 12  3  1  0  0  0  0
 12 23  1  0  0  0  0
 12  8  1  0  0  0  0
 14  2  1  0  0  0  0
 16 18  2  0  0  0  0
 16 22  1  0  0  0  0
 18 19  1  0  0  0  0
 19 17  2  0  0  0  0
 20 17  1  0  0  0  0
 21 18  1  0  0  0  0
 22 20  2  0  0  0  0
 23 24  1  0  0  0  0
 25 23  2  0  0  0  0
M  END
>  <MODEL>
9

>  <REMARK>
 VINA RESULT:      -4.3      5.882      8.758
  Name = 
  2 active torsions:
  status: ('A' for Active; 'I' for Inactive)
    1  A    between atoms: C_1  and  C_5
    2  A    between atoms: C_2  and  C_21
                            x       y       z     vdW  Elec       q    Type
                         _______ _______ _______ _____ _____    ______ ____

>  <TORSDO>
F 2

$$$$
