=
 OpenBabel10272414133D

 43 48  0  0  1  0  0  0  0  0999 V2000
  187.1520  178.7140  136.0950 N   0  0  0  0  0  0  0  0  0  0  0  0
  186.8660  178.0840  137.1910 C   0  0  0  0  0  0  0  0  0  0  0  0
  187.7980  178.0170  134.9860 C   0  0  0  0  0  2  0  0  0  0  0  0
  187.2440  176.6360  137.3240 C   0  0  0  0  0  2  0  0  0  0  0  0
  186.2470  178.7940  138.2620 N   0  0  0  0  0  2  0  0  0  0  0  0
  188.6760  176.4070  136.8000 C   0  0  1  0  0  3  0  0  0  0  0  0
  188.9860  177.2020  135.5060 C   0  0  0  0  0  2  0  0  0  0  0  0
  186.2730  178.8430  140.6700 C   0  0  0  0  0  2  0  0  0  0  0  0
  184.8600  179.1490  140.2040 C   0  0  1  0  0  3  0  0  0  0  0  0
  185.7180  178.1460  139.4520 C   0  0  1  0  0  3  0  0  0  0  0  0
  183.8840  178.4860  141.0720 N   0  0  0  0  0  0  0  0  0  0  0  0
  183.9720  178.5950  142.5060 C   0  0  0  0  0  0  0  0  0  0  0  0
  182.9230  179.1060  144.5820 C   0  0  0  0  0  3  0  0  0  0  0  0
  185.2330  178.4330  144.5660 C   0  0  0  0  0  3  0  0  0  0  0  0
  184.1000  178.8230  145.2770 C   0  0  0  0  0  3  0  0  0  0  0  0
  185.1720  178.3170  143.1760 C   0  0  0  0  0  3  0  0  0  0  0  0
  182.8860  178.9910  143.2270 N   0  0  0  0  0  0  0  0  0  0  0  0
  182.9340  177.1600  140.3660 S   0  0  0  0  0  0  0  0  0  0  0  0
  181.8010  178.2730  139.4800 C   0  0  0  0  0  0  0  0  0  0  0  0
  180.9040  179.1560  140.3120 C   0  0  0  0  0  2  0  0  0  0  0  0
  182.1630  178.7810  138.2360 O   0  0  0  0  0  1  0  0  0  0  0  0
  180.3360  177.9380  139.5920 C   0  0  0  0  0  2  0  0  0  0  0  0
  189.6910  176.7310  137.9050 C   0  0  2  0  0  3  0  0  0  0  0  0
  193.4490  174.6960  137.3860 C   0  0  0  0  0  0  0  0  0  0  0  0
  191.0210  174.6280  137.5070 C   0  0  0  0  0  0  0  0  0  0  0  0
  193.4270  176.0730  137.6070 C   0  0  0  0  0  3  0  0  0  0  0  0
  194.6600  174.0400  137.2050 O   0  0  0  0  0  1  0  0  0  0  0  0
  191.0030  176.0190  137.7170 C   0  0  0  0  0  0  0  0  0  0  0  0
  192.2540  173.9750  137.3410 C   0  0  0  0  0  3  0  0  0  0  0  0
  192.2090  176.7340  137.7750 C   0  0  0  0  0  3  0  0  0  0  0  0
  189.4870  173.0130  136.4250 C   0  0  0  0  0  1  0  0  0  0  0  0
  189.8140  173.9180  137.4690 O   0  0  0  0  0  0  0  0  0  0  0  0
  189.1550  176.4220  139.1590 O   0  0  0  0  0  0  0  0  0  0  0  0
  189.4810  177.5130  139.9700 C   0  0  0  0  0  2  0  0  0  0  0  0
  190.5080  177.0930  141.0080 C   0  0  0  0  0  2  0  0  0  0  0  0
  190.0780  178.2540  144.5900 C   0  0  0  0  0  3  0  0  0  0  0  0
  188.9430  177.5300  144.9870 C   0  0  0  0  0  0  0  0  0  0  0  0
  188.8380  176.5190  142.7850 C   0  0  0  0  0  3  0  0  0  0  0  0
  190.5880  178.1120  143.2950 C   0  0  0  0  0  3  0  0  0  0  0  0
  189.9630  177.2470  142.3880 C   0  0  0  0  0  0  0  0  0  0  0  0
  188.3300  176.6630  144.0780 C   0  0  0  0  0  3  0  0  0  0  0  0
  189.0130  177.2710  147.4290 C   0  0  0  0  0  2  0  0  0  0  0  0
  188.3720  177.6600  146.3350 C   0  0  0  0  0  3  0  0  0  0  0  0
  1  2  2  0  0  0  0
  2  4  1  0  0  0  0
  2  5  1  0  0  0  0
  3  7  1  0  0  0  0
  3  1  1  0  0  0  0
  6  4  1  0  0  0  0
  6 23  1  1  0  0  0
  7  6  1  0  0  0  0
  9  8  1  0  0  0  0
  9 11  1  1  0  0  0
 10  5  1  6  0  0  0
 10  9  1  0  0  0  0
 10  8  1  0  0  0  0
 11 12  1  0  0  0  0
 12 16  2  0  0  0  0
 12 17  1  0  0  0  0
 13 15  1  0  0  0  0
 14 15  2  0  0  0  0
 16 14  1  0  0  0  0
 17 13  2  0  0  0  0
 18 11  1  0  0  0  0
 19 22  1  0  0  0  0
 19 20  1  0  0  0  0
 19 18  1  0  0  0  0
 21 19  1  0  0  0  0
 22 20  1  0  0  0  0
 23 33  1  1  0  0  0
 24 26  1  0  0  0  0
 25 28  2  0  0  0  0
 26 30  2  0  0  0  0
 27 24  1  0  0  0  0
 28 30  1  0  0  0  0
 28 23  1  0  0  0  0
 29 24  2  0  0  0  0
 29 25  1  0  0  0  0
 31 32  1  0  0  0  0
 32 25  1  0  0  0  0
 33 34  1  0  0  0  0
 34 35  1  0  0  0  0
 35 40  1  0  0  0  0
 36 37  1  0  0  0  0
 37 43  1  0  0  0  0
 38 41  1  0  0  0  0
 39 36  2  0  0  0  0
 40 38  2  0  0  0  0
 40 39  1  0  0  0  0
 41 37  2  0  0  0  0
 43 42  2  0  0  0  0
M  END
>  <MODEL>
1

>  <REMARK>
 VINA RESULT:      -8.1      0.000      0.000
  Name = 
  13 active torsions:
  status: ('A' for Active; 'I' for Inactive)
    1  A    between atoms: C_1  and  C_8
    2  A    between atoms: C_1  and  C_35
    3  A    between atoms: C_4  and  N_14
    4  A    between atoms: C_8  and  O_34
    5  A    between atoms: C_10  and  S_41
    6  A    between atoms: C_11  and  N_14
    7  A    between atoms: C_12  and  N_17
    8  A    between atoms: N_14  and  S_41
    9  A    between atoms: C_16  and  O_43
   10  A    between atoms: C_19  and  C_37
   11  A    between atoms: C_21  and  C_30
   12  A    between atoms: C_27  and  C_30
   13  A    between atoms: C_30  and  O_34
                            x       y       z     vdW  Elec       q    Type
                         _______ _______ _______ _____ _____    ______ ____

>  <TORSDO>
F 13

$$$$
=
 OpenBabel10272414133D

 43 48  0  0  1  0  0  0  0  0999 V2000
  189.3730  176.9340  136.0090 N   0  0  0  0  0  0  0  0  0  0  0  0
  188.3980  176.5440  136.7680 C   0  0  0  0  0  0  0  0  0  0  0  0
  190.7310  176.4470  136.2380 C   0  0  0  0  0  2  0  0  0  0  0  0
  188.6860  175.6150  137.9150 C   0  0  0  0  0  2  0  0  0  0  0  0
  187.0840  177.0460  136.5300 N   0  0  0  0  0  2  0  0  0  0  0  0
  189.9510  176.0740  138.6680 C   0  0  1  0  0  3  0  0  0  0  0  0
  191.0800  176.5610  137.7250 C   0  0  0  0  0  2  0  0  0  0  0  0
  184.9570  177.6840  137.4620 C   0  0  0  0  0  2  0  0  0  0  0  0
  184.7010  176.7570  136.2870 C   0  0  1  0  0  3  0  0  0  0  0  0
  185.8980  176.5340  137.1960 C   0  0  1  0  0  3  0  0  0  0  0  0
  183.6050  175.8360  136.5950 N   0  0  0  0  0  0  0  0  0  0  0  0
  183.7550  174.4150  136.4060 C   0  0  0  0  0  0  0  0  0  0  0  0
  183.3980  172.4880  135.0540 C   0  0  0  0  0  3  0  0  0  0  0  0
  184.5020  172.2470  137.1780 C   0  0  0  0  0  3  0  0  0  0  0  0
  184.0190  171.6750  136.0030 C   0  0  0  0  0  3  0  0  0  0  0  0
  184.3710  173.6210  137.3830 C   0  0  0  0  0  3  0  0  0  0  0  0
  183.2780  173.8250  135.2750 N   0  0  0  0  0  0  0  0  0  0  0  0
  181.9690  176.5230  136.7020 S   0  0  0  0  0  0  0  0  0  0  0  0
  181.6180  175.7630  138.3180 C   0  0  0  0  0  0  0  0  0  0  0  0
  181.2310  176.6840  139.4480 C   0  0  0  0  0  2  0  0  0  0  0  0
  181.0860  174.4770  138.3760 O   0  0  0  0  0  1  0  0  0  0  0  0
  182.6180  176.0530  139.4070 C   0  0  0  0  0  2  0  0  0  0  0  0
  189.5800  177.1560  139.6920 C   0  0  2  0  0  3  0  0  0  0  0  0
  191.1820  176.3400  143.6040 C   0  0  0  0  0  0  0  0  0  0  0  0
  191.4580  177.2580  141.3690 C   0  0  0  0  0  0  0  0  0  0  0  0
  189.8800  175.9530  143.2900 C   0  0  0  0  0  3  0  0  0  0  0  0
  191.6960  176.0900  144.8700 O   0  0  0  0  0  1  0  0  0  0  0  0
  190.1400  176.8780  141.0610 C   0  0  0  0  0  0  0  0  0  0  0  0
  191.9700  176.9860  142.6490 C   0  0  0  0  0  3  0  0  0  0  0  0
  189.3590  176.2170  142.0220 C   0  0  0  0  0  3  0  0  0  0  0  0
  193.5090  177.4190  139.9890 C   0  0  0  0  0  1  0  0  0  0  0  0
  192.2380  177.9010  140.3990 O   0  0  0  0  0  0  0  0  0  0  0  0
  188.1910  177.2980  139.7640 O   0  0  0  0  0  0  0  0  0  0  0  0
  187.9840  178.4480  140.5310 C   0  0  0  0  0  2  0  0  0  0  0  0
  186.4950  178.7230  140.6530 C   0  0  0  0  0  2  0  0  0  0  0  0
  186.3940  177.9070  144.3530 C   0  0  0  0  0  3  0  0  0  0  0  0
  185.2390  178.5940  144.7610 C   0  0  0  0  0  0  0  0  0  0  0  0
  184.9070  179.3560  142.4830 C   0  0  0  0  0  3  0  0  0  0  0  0
  186.8030  177.9500  143.0150 C   0  0  0  0  0  3  0  0  0  0  0  0
  186.0610  178.6800  142.0800 C   0  0  0  0  0  0  0  0  0  0  0  0
  184.5000  179.3140  143.8190 C   0  0  0  0  0  3  0  0  0  0  0  0
  185.6130  178.4540  147.1850 C   0  0  0  0  0  2  0  0  0  0  0  0
  184.7830  178.5820  146.1590 C   0  0  0  0  0  3  0  0  0  0  0  0
  1  3  1  0  0  0  0
  1  2  2  0  0  0  0
  2  4  1  0  0  0  0
  3  7  1  0  0  0  0
  4  6  1  0  0  0  0
  5  2  1  0  0  0  0
  6 23  1  1  0  0  0
  7  6  1  0  0  0  0
  9 11  1  1  0  0  0
  9 10  1  0  0  0  0
  9  8  1  0  0  0  0
 10  5  1  6  0  0  0
 10  8  1  0  0  0  0
 11 18  1  0  0  0  0
 12 11  1  0  0  0  0
 12 16  1  0  0  0  0
 13 17  1  0  0  0  0
 13 15  2  0  0  0  0
 14 16  2  0  0  0  0
 15 14  1  0  0  0  0
 17 12  2  0  0  0  0
 18 19  1  0  0  0  0
 19 21  1  0  0  0  0
 19 22  1  0  0  0  0
 19 20  1  0  0  0  0
 22 20  1  0  0  0  0
 23 33  1  1  0  0  0
 23 28  1  0  0  0  0
 24 27  1  0  0  0  0
 25 29  1  0  0  0  0
 26 24  1  0  0  0  0
 28 25  2  0  0  0  0
 28 30  1  0  0  0  0
 29 24  2  0  0  0  0
 30 26  2  0  0  0  0
 31 32  1  0  0  0  0
 32 25  1  0  0  0  0
 33 34  1  0  0  0  0
 34 35  1  0  0  0  0
 35 40  1  0  0  0  0
 36 37  1  0  0  0  0
 37 43  1  0  0  0  0
 38 41  1  0  0  0  0
 39 36  2  0  0  0  0
 40 38  2  0  0  0  0
 40 39  1  0  0  0  0
 41 37  2  0  0  0  0
 43 42  2  0  0  0  0
M  END
>  <MODEL>
2

>  <REMARK>
 VINA RESULT:      -7.4      2.900      5.381
  Name = 
  13 active torsions:
  status: ('A' for Active; 'I' for Inactive)
    1  A    between atoms: C_1  and  C_8
    2  A    between atoms: C_1  and  C_35
    3  A    between atoms: C_4  and  N_14
    4  A    between atoms: C_8  and  O_34
    5  A    between atoms: C_10  and  S_41
    6  A    between atoms: C_11  and  N_14
    7  A    between atoms: C_12  and  N_17
    8  A    between atoms: N_14  and  S_41
    9  A    between atoms: C_16  and  O_43
   10  A    between atoms: C_19  and  C_37
   11  A    between atoms: C_21  and  C_30
   12  A    between atoms: C_27  and  C_30
   13  A    between atoms: C_30  and  O_34
                            x       y       z     vdW  Elec       q    Type
                         _______ _______ _______ _____ _____    ______ ____

>  <TORSDO>
F 13

$$$$
=
 OpenBabel10272414133D

 43 48  0  0  1  0  0  0  0  0999 V2000
  183.9740  180.2340  139.2540 N   0  0  0  0  0  0  0  0  0  0  0  0
  184.4920  179.1310  139.6950 C   0  0  0  0  0  0  0  0  0  0  0  0
  182.6030  180.2610  138.7520 C   0  0  0  0  0  2  0  0  0  0  0  0
  183.6780  177.8680  139.6480 C   0  0  0  0  0  2  0  0  0  0  0  0
  185.8380  179.1320  140.1670 N   0  0  0  0  0  2  0  0  0  0  0  0
  182.9570  177.7480  138.2910 C   0  0  1  0  0  3  0  0  0  0  0  0
  182.3810  179.0950  137.7840 C   0  0  0  0  0  2  0  0  0  0  0  0
  187.9280  178.0010  140.5590 C   0  0  0  0  0  2  0  0  0  0  0  0
  187.4230  178.5390  141.8860 C   0  0  1  0  0  3  0  0  0  0  0  0
  186.4480  178.0030  140.8520 C   0  0  1  0  0  3  0  0  0  0  0  0
  187.6700  177.5670  142.9540 N   0  0  0  0  0  0  0  0  0  0  0  0
  187.1850  177.7960  144.2920 C   0  0  0  0  0  0  0  0  0  0  0  0
  187.5180  177.6130  146.6430 C   0  0  0  0  0  3  0  0  0  0  0  0
  185.4870  178.6030  145.8160 C   0  0  0  0  0  3  0  0  0  0  0  0
  186.2850  178.2170  146.8910 C   0  0  0  0  0  3  0  0  0  0  0  0
  185.9360  178.3940  144.5110 C   0  0  0  0  0  3  0  0  0  0  0  0
  187.9350  177.4140  145.3630 N   0  0  0  0  0  0  0  0  0  0  0  0
  188.9820  176.3950  142.7040 S   0  0  0  0  0  0  0  0  0  0  0  0
  190.2970  177.6440  142.8510 C   0  0  0  0  0  0  0  0  0  0  0  0
  191.3930  177.6220  141.8140 C   0  0  0  0  0  2  0  0  0  0  0  0
  190.0080  178.8900  143.4010 O   0  0  0  0  0  1  0  0  0  0  0  0
  191.6580  177.1170  143.2280 C   0  0  0  0  0  2  0  0  0  0  0  0
  183.9040  177.1270  137.2540 C   0  0  2  0  0  3  0  0  0  0  0  0
  182.8210  173.0840  136.2450 C   0  0  0  0  0  0  0  0  0  0  0  0
  182.5980  175.4760  135.8680 C   0  0  0  0  0  0  0  0  0  0  0  0
  183.7340  173.3260  137.2720 C   0  0  0  0  0  3  0  0  0  0  0  0
  182.4810  171.7800  135.9100 O   0  0  0  0  0  1  0  0  0  0  0  0
  183.5290  175.7150  136.8960 C   0  0  0  0  0  0  0  0  0  0  0  0
  182.2520  174.1530  135.5490 C   0  0  0  0  0  3  0  0  0  0  0  0
  184.0860  174.6360  137.6000 C   0  0  0  0  0  3  0  0  0  0  0  0
  180.6600  176.9050  135.2870 C   0  0  0  0  0  1  0  0  0  0  0  0
  182.0330  176.5590  135.1820 O   0  0  0  0  0  0  0  0  0  0  0  0
  185.2230  177.1680  137.7190 O   0  0  0  0  0  0  0  0  0  0  0  0
  185.9480  177.7820  136.6940 C   0  0  0  0  0  2  0  0  0  0  0  0
  186.7790  176.7440  135.9590 C   0  0  0  0  0  2  0  0  0  0  0  0
  190.1440  177.5390  137.5110 C   0  0  0  0  0  3  0  0  0  0  0  0
  190.6250  176.2550  137.8150 C   0  0  0  0  0  0  0  0  0  0  0  0
  188.5930  175.2970  136.9000 C   0  0  0  0  0  3  0  0  0  0  0  0
  188.8920  177.6980  136.9070 C   0  0  0  0  0  3  0  0  0  0  0  0
  188.1130  176.5750  136.6060 C   0  0  0  0  0  0  0  0  0  0  0  0
  189.8430  175.1390  137.5040 C   0  0  0  0  0  3  0  0  0  0  0  0
  193.0750  176.4060  137.8940 C   0  0  0  0  0  2  0  0  0  0  0  0
  191.9300  176.0480  138.4590 C   0  0  0  0  0  3  0  0  0  0  0  0
  1  2  2  0  0  0  0
  2  5  1  0  0  0  0
  3  1  1  0  0  0  0
  4  2  1  0  0  0  0
  6 23  1  6  0  0  0
  6  4  1  0  0  0  0
  7  6  1  0  0  0  0
  7  3  1  0  0  0  0
  8 10  1  0  0  0  0
  8  9  1  0  0  0  0
  9 11  1  1  0  0  0
 10  5  1  6  0  0  0
 10  9  1  0  0  0  0
 11 12  1  0  0  0  0
 12 16  2  0  0  0  0
 12 17  1  0  0  0  0
 13 15  1  0  0  0  0
 14 15  2  0  0  0  0
 16 14  1  0  0  0  0
 17 13  2  0  0  0  0
 18 19  1  0  0  0  0
 18 11  1  0  0  0  0
 19 22  1  0  0  0  0
 19 21  1  0  0  0  0
 20 19  1  0  0  0  0
 20 22  1  0  0  0  0
 23 33  1  1  0  0  0
 24 26  1  0  0  0  0
 25 28  2  0  0  0  0
 26 30  2  0  0  0  0
 27 24  1  0  0  0  0
 28 23  1  0  0  0  0
 28 30  1  0  0  0  0
 29 25  1  0  0  0  0
 29 24  2  0  0  0  0
 32 31  1  0  0  0  0
 32 25  1  0  0  0  0
 34 33  1  0  0  0  0
 35 40  1  0  0  0  0
 35 34  1  0  0  0  0
 36 37  1  0  0  0  0
 37 43  1  0  0  0  0
 38 41  1  0  0  0  0
 39 36  2  0  0  0  0
 40 38  2  0  0  0  0
 40 39  1  0  0  0  0
 41 37  2  0  0  0  0
 42 43  2  0  0  0  0
M  END
>  <MODEL>
3

>  <REMARK>
 VINA RESULT:      -7.2      3.150      7.159
  Name = 
  13 active torsions:
  status: ('A' for Active; 'I' for Inactive)
    1  A    between atoms: C_1  and  C_8
    2  A    between atoms: C_1  and  C_35
    3  A    between atoms: C_4  and  N_14
    4  A    between atoms: C_8  and  O_34
    5  A    between atoms: C_10  and  S_41
    6  A    between atoms: C_11  and  N_14
    7  A    between atoms: C_12  and  N_17
    8  A    between atoms: N_14  and  S_41
    9  A    between atoms: C_16  and  O_43
   10  A    between atoms: C_19  and  C_37
   11  A    between atoms: C_21  and  C_30
   12  A    between atoms: C_27  and  C_30
   13  A    between atoms: C_30  and  O_34
                            x       y       z     vdW  Elec       q    Type
                         _______ _______ _______ _____ _____    ______ ____

>  <TORSDO>
F 13

$$$$
=
 OpenBabel10272414133D

 43 48  0  0  1  0  0  0  0  0999 V2000
  188.5650  179.1460  137.1470 N   0  0  0  0  0  0  0  0  0  0  0  0
  188.3810  178.2330  138.0480 C   0  0  0  0  0  0  0  0  0  0  0  0
  187.4700  179.5550  136.2720 C   0  0  0  0  0  2  0  0  0  0  0  0
  187.0360  177.5700  138.1570 C   0  0  0  0  0  2  0  0  0  0  0  0
  189.4720  177.8440  138.8800 N   0  0  0  0  0  2  0  0  0  0  0  0
  186.5020  177.2140  136.7550 C   0  0  1  0  0  3  0  0  0  0  0  0
  186.7700  178.3180  135.7010 C   0  0  0  0  0  2  0  0  0  0  0  0
  190.6120  177.0010  140.8270 C   0  0  0  0  0  2  0  0  0  0  0  0
  189.4230  177.8230  141.2920 C   0  0  1  0  0  3  0  0  0  0  0  0
  189.3280  176.9730  140.0360 C   0  0  1  0  0  3  0  0  0  0  0  0
  188.7750  177.1760  142.4360 N   0  0  0  0  0  0  0  0  0  0  0  0
  187.5030  177.6410  142.9270 C   0  0  0  0  0  0  0  0  0  0  0  0
  185.5060  178.8870  142.5630 C   0  0  0  0  0  3  0  0  0  0  0  0
  185.8320  177.7770  144.6730 C   0  0  0  0  0  3  0  0  0  0  0  0
  185.0410  178.5650  143.8390 C   0  0  0  0  0  3  0  0  0  0  0  0
  187.0670  177.3130  144.2180 C   0  0  0  0  0  3  0  0  0  0  0  0
  186.7150  178.4270  142.1420 N   0  0  0  0  0  0  0  0  0  0  0  0
  189.7970  176.1810  143.4970 S   0  0  0  0  0  0  0  0  0  0  0  0
  190.3830  177.5990  144.4740 C   0  0  0  0  0  0  0  0  0  0  0  0
  191.3850  177.3210  145.5670 C   0  0  0  0  0  2  0  0  0  0  0  0
  190.4630  178.8580  143.8860 O   0  0  0  0  0  1  0  0  0  0  0  0
  189.9330  177.6310  145.9120 C   0  0  0  0  0  2  0  0  0  0  0  0
  187.0840  175.8660  136.3050 C   0  0  2  0  0  3  0  0  0  0  0  0
  184.2190  172.6630  136.5590 C   0  0  0  0  0  0  0  0  0  0  0  0
  185.0230  174.6820  135.4690 C   0  0  0  0  0  0  0  0  0  0  0  0
  185.2670  172.7360  137.4770 C   0  0  0  0  0  3  0  0  0  0  0  0
  183.3010  171.6220  136.6320 O   0  0  0  0  0  1  0  0  0  0  0  0
  186.0860  174.7440  136.3880 C   0  0  0  0  0  0  0  0  0  0  0  0
  184.0940  173.6330  135.5620 C   0  0  0  0  0  3  0  0  0  0  0  0
  186.1960  173.7740  137.3950 C   0  0  0  0  0  3  0  0  0  0  0  0
  183.7690  176.5020  134.3510 C   0  0  0  0  0  1  0  0  0  0  0  0
  184.9080  175.6650  134.4770 O   0  0  0  0  0  0  0  0  0  0  0  0
  188.2180  175.5540  137.0610 O   0  0  0  0  0  0  0  0  0  0  0  0
  189.1540  175.0880  136.1330 C   0  0  0  0  0  2  0  0  0  0  0  0
  190.3280  176.0500  136.0600 C   0  0  0  0  0  2  0  0  0  0  0  0
  193.5680  175.6480  137.9850 C   0  0  0  0  0  3  0  0  0  0  0  0
  193.8630  174.2930  137.7600 C   0  0  0  0  0  0  0  0  0  0  0  0
  191.8510  174.0950  136.4210 C   0  0  0  0  0  3  0  0  0  0  0  0
  192.4170  176.2200  137.4320 C   0  0  0  0  0  3  0  0  0  0  0  0
  191.5530  175.4400  136.6530 C   0  0  0  0  0  0  0  0  0  0  0  0
  192.9990  173.5250  136.9750 C   0  0  0  0  0  3  0  0  0  0  0  0
  195.9080  174.2960  139.1210 C   0  0  0  0  0  2  0  0  0  0  0  0
  195.0570  173.6540  138.3330 C   0  0  0  0  0  3  0  0  0  0  0  0
  1  2  2  0  0  0  0
  2  4  1  0  0  0  0
  2  5  1  0  0  0  0
  3  1  1  0  0  0  0
  6 23  1  6  0  0  0
  6  4  1  0  0  0  0
  7  3  1  0  0  0  0
  7  6  1  0  0  0  0
  8  9  1  0  0  0  0
  9 11  1  1  0  0  0
 10  5  1  6  0  0  0
 10  8  1  0  0  0  0
 10  9  1  0  0  0  0
 11 12  1  0  0  0  0
 11 18  1  0  0  0  0
 12 16  1  0  0  0  0
 13 15  2  0  0  0  0
 15 14  1  0  0  0  0
 16 14  2  0  0  0  0
 17 13  1  0  0  0  0
 17 12  2  0  0  0  0
 18 19  1  0  0  0  0
 19 20  1  0  0  0  0
 19 22  1  0  0  0  0
 20 22  1  0  0  0  0
 21 19  1  0  0  0  0
 23 28  1  0  0  0  0
 23 33  1  1  0  0  0
 24 27  1  0  0  0  0
 24 26  1  0  0  0  0
 25 29  1  0  0  0  0
 25 28  2  0  0  0  0
 28 30  1  0  0  0  0
 29 24  2  0  0  0  0
 30 26  2  0  0  0  0
 31 32  1  0  0  0  0
 32 25  1  0  0  0  0
 34 33  1  0  0  0  0
 35 34  1  0  0  0  0
 35 40  1  0  0  0  0
 37 36  1  0  0  0  0
 37 43  1  0  0  0  0
 38 40  2  0  0  0  0
 38 41  1  0  0  0  0
 39 36  2  0  0  0  0
 40 39  1  0  0  0  0
 41 37  2  0  0  0  0
 43 42  2  0  0  0  0
M  END
>  <MODEL>
4

>  <REMARK>
 VINA RESULT:      -7.1      3.003      6.742
  Name = 
  13 active torsions:
  status: ('A' for Active; 'I' for Inactive)
    1  A    between atoms: C_1  and  C_8
    2  A    between atoms: C_1  and  C_35
    3  A    between atoms: C_4  and  N_14
    4  A    between atoms: C_8  and  O_34
    5  A    between atoms: C_10  and  S_41
    6  A    between atoms: C_11  and  N_14
    7  A    between atoms: C_12  and  N_17
    8  A    between atoms: N_14  and  S_41
    9  A    between atoms: C_16  and  O_43
   10  A    between atoms: C_19  and  C_37
   11  A    between atoms: C_21  and  C_30
   12  A    between atoms: C_27  and  C_30
   13  A    between atoms: C_30  and  O_34
                            x       y       z     vdW  Elec       q    Type
                         _______ _______ _______ _____ _____    ______ ____

>  <TORSDO>
F 13

$$$$
=
 OpenBabel10272414133D

 43 48  0  0  1  0  0  0  0  0999 V2000
  191.1970  177.9240  139.5530 N   0  0  0  0  0  0  0  0  0  0  0  0
  189.9680  177.5840  139.3220 C   0  0  0  0  0  0  0  0  0  0  0  0
  191.9700  177.2490  140.5910 C   0  0  0  0  0  2  0  0  0  0  0  0
  189.3330  176.5120  140.1640 C   0  0  0  0  0  2  0  0  0  0  0  0
  189.2310  178.2690  138.3110 N   0  0  0  0  0  2  0  0  0  0  0  0
  189.6780  176.7270  141.6510 C   0  0  1  0  0  3  0  0  0  0  0  0
  191.1480  177.1630  141.8800 C   0  0  0  0  0  2  0  0  0  0  0  0
  187.4940  178.7420  136.7110 C   0  0  0  0  0  2  0  0  0  0  0  0
  188.0510  177.3620  136.4130 C   0  0  1  0  0  3  0  0  0  0  0  0
  187.9210  177.8450  137.8470 C   0  0  1  0  0  3  0  0  0  0  0  0
  186.9690  176.4450  136.0470 N   0  0  0  0  0  0  0  0  0  0  0  0
  187.1050  175.0230  136.2390 C   0  0  0  0  0  0  0  0  0  0  0  0
  186.4310  173.0440  137.3800 C   0  0  0  0  0  3  0  0  0  0  0  0
  188.1480  172.9070  135.7000 C   0  0  0  0  0  3  0  0  0  0  0  0
  187.3380  172.2800  136.6440 C   0  0  0  0  0  3  0  0  0  0  0  0
  188.0330  174.2830  135.4940 C   0  0  0  0  0  3  0  0  0  0  0  0
  186.3380  174.3850  137.1660 N   0  0  0  0  0  0  0  0  0  0  0  0
  185.7370  177.0480  134.9170 S   0  0  0  0  0  0  0  0  0  0  0  0
  184.3780  176.8950  136.1160 C   0  0  0  0  0  0  0  0  0  0  0  0
  183.3550  175.8130  135.8730 C   0  0  0  0  0  2  0  0  0  0  0  0
  184.5910  177.2370  137.4490 O   0  0  0  0  0  1  0  0  0  0  0  0
  183.0110  177.2740  135.6060 C   0  0  0  0  0  2  0  0  0  0  0  0
  188.6990  177.7340  142.2700 C   0  0  2  0  0  3  0  0  0  0  0  0
  188.6530  177.5570  146.5710 C   0  0  0  0  0  0  0  0  0  0  0  0
  189.6440  178.3890  144.5130 C   0  0  0  0  0  0  0  0  0  0  0  0
  187.7070  176.8440  145.8340 C   0  0  0  0  0  3  0  0  0  0  0  0
  188.6310  177.5120  147.9590 O   0  0  0  0  0  1  0  0  0  0  0  0
  188.6810  177.6790  143.7730 C   0  0  0  0  0  0  0  0  0  0  0  0
  189.6190  178.3230  145.9150 C   0  0  0  0  0  3  0  0  0  0  0  0
  187.7210  176.9010  144.4390 C   0  0  0  0  0  3  0  0  0  0  0  0
  191.8490  179.5150  144.4290 C   0  0  0  0  0  1  0  0  0  0  0  0
  190.6100  179.1490  143.8400 O   0  0  0  0  0  0  0  0  0  0  0  0
  187.4100  177.5270  141.7680 O   0  0  0  0  0  0  0  0  0  0  0  0
  186.8530  178.8050  141.6630 C   0  0  0  0  0  2  0  0  0  0  0  0
  185.6980  178.7820  140.6760 C   0  0  0  0  0  2  0  0  0  0  0  0
  181.9660  178.8780  141.3280 C   0  0  0  0  0  3  0  0  0  0  0  0
  181.9260  178.9780  142.7280 C   0  0  0  0  0  0  0  0  0  0  0  0
  184.3510  178.9550  142.7810 C   0  0  0  0  0  3  0  0  0  0  0  0
  183.1940  178.8140  140.6600 C   0  0  0  0  0  3  0  0  0  0  0  0
  184.3890  178.8470  141.3880 C   0  0  0  0  0  0  0  0  0  0  0  0
  183.1250  179.0180  143.4470 C   0  0  0  0  0  3  0  0  0  0  0  0
  180.1420  177.9900  144.0970 C   0  0  0  0  0  2  0  0  0  0  0  0
  180.6560  179.0370  143.4660 C   0  0  0  0  0  3  0  0  0  0  0  0
  1  3  1  0  0  0  0
  2  1  2  0  0  0  0
  2  4  1  0  0  0  0
  3  7  1  0  0  0  0
  4  6  1  0  0  0  0
  5  2  1  0  0  0  0
  6  7  1  0  0  0  0
  6 23  1  6  0  0  0
  8 10  1  0  0  0  0
  9 11  1  1  0  0  0
  9  8  1  0  0  0  0
  9 10  1  0  0  0  0
 10  5  1  6  0  0  0
 11 12  1  0  0  0  0
 12 17  1  0  0  0  0
 14 15  2  0  0  0  0
 15 13  1  0  0  0  0
 16 14  1  0  0  0  0
 16 12  2  0  0  0  0
 17 13  2  0  0  0  0
 18 11  1  0  0  0  0
 18 19  1  0  0  0  0
 19 21  1  0  0  0  0
 20 19  1  0  0  0  0
 22 20  1  0  0  0  0
 22 19  1  0  0  0  0
 23 33  1  6  0  0  0
 23 28  1  0  0  0  0
 24 27  1  0  0  0  0
 25 29  2  0  0  0  0
 26 24  2  0  0  0  0
 28 30  2  0  0  0  0
 28 25  1  0  0  0  0
 29 24  1  0  0  0  0
 30 26  1  0  0  0  0
 32 31  1  0  0  0  0
 32 25  1  0  0  0  0
 34 33  1  0  0  0  0
 35 40  1  0  0  0  0
 35 34  1  0  0  0  0
 36 37  1  0  0  0  0
 37 41  2  0  0  0  0
 37 43  1  0  0  0  0
 38 41  1  0  0  0  0
 39 36  2  0  0  0  0
 39 40  1  0  0  0  0
 40 38  2  0  0  0  0
 43 42  2  0  0  0  0
M  END
>  <MODEL>
5

>  <REMARK>
 VINA RESULT:      -7.1      3.150      7.342
  Name = 
  13 active torsions:
  status: ('A' for Active; 'I' for Inactive)
    1  A    between atoms: C_1  and  C_8
    2  A    between atoms: C_1  and  C_35
    3  A    between atoms: C_4  and  N_14
    4  A    between atoms: C_8  and  O_34
    5  A    between atoms: C_10  and  S_41
    6  A    between atoms: C_11  and  N_14
    7  A    between atoms: C_12  and  N_17
    8  A    between atoms: N_14  and  S_41
    9  A    between atoms: C_16  and  O_43
   10  A    between atoms: C_19  and  C_37
   11  A    between atoms: C_21  and  C_30
   12  A    between atoms: C_27  and  C_30
   13  A    between atoms: C_30  and  O_34
                            x       y       z     vdW  Elec       q    Type
                         _______ _______ _______ _____ _____    ______ ____

>  <TORSDO>
F 13

$$$$
=
 OpenBabel10272414133D

 43 48  0  0  1  0  0  0  0  0999 V2000
  191.0130  175.8630  139.1080 N   0  0  0  0  0  0  0  0  0  0  0  0
  190.3970  176.7050  139.8780 C   0  0  0  0  0  0  0  0  0  0  0  0
  191.3600  176.2290  137.7380 C   0  0  0  0  0  2  0  0  0  0  0  0
  190.0070  178.0490  139.3310 C   0  0  0  0  0  2  0  0  0  0  0  0
  190.0590  176.3160  141.2080 N   0  0  0  0  0  2  0  0  0  0  0  0
  189.4020  177.8980  137.9210 C   0  0  1  0  0  3  0  0  0  0  0  0
  190.1480  176.8600  137.0450 C   0  0  0  0  0  2  0  0  0  0  0  0
  188.0600  176.9970  142.3650 C   0  0  0  0  0  2  0  0  0  0  0  0
  189.0300  176.4310  143.3870 C   0  0  1  0  0  3  0  0  0  0  0  0
  189.5410  177.2380  142.2050 C   0  0  1  0  0  3  0  0  0  0  0  0
  188.9970  177.2280  144.6150 N   0  0  0  0  0  0  0  0  0  0  0  0
  187.7460  177.6510  145.1920 C   0  0  0  0  0  0  0  0  0  0  0  0
  186.5330  178.4390  147.0840 C   0  0  0  0  0  3  0  0  0  0  0  0
  185.3690  178.0720  145.0100 C   0  0  0  0  0  3  0  0  0  0  0  0
  185.3500  178.4710  146.3450 C   0  0  0  0  0  3  0  0  0  0  0  0
  186.5700  177.6610  144.4290 C   0  0  0  0  0  3  0  0  0  0  0  0
  187.6920  178.0310  146.4990 N   0  0  0  0  0  0  0  0  0  0  0  0
  190.4880  178.0800  145.0750 S   0  0  0  0  0  0  0  0  0  0  0  0
  191.1790  176.6540  145.9690 C   0  0  0  0  0  0  0  0  0  0  0  0
  190.3770  176.1050  147.1230 C   0  0  0  0  0  2  0  0  0  0  0  0
  191.9740  175.7330  145.2920 O   0  0  0  0  0  1  0  0  0  0  0  0
  191.6360  176.9270  147.3780 C   0  0  0  0  0  2  0  0  0  0  0  0
  187.9090  177.5560  138.0320 C   0  0  2  0  0  3  0  0  0  0  0  0
  186.7510  174.2470  135.5330 C   0  0  0  0  0  0  0  0  0  0  0  0
  187.3490  176.5920  135.7720 C   0  0  0  0  0  0  0  0  0  0  0  0
  186.8990  174.0640  136.9080 C   0  0  0  0  0  3  0  0  0  0  0  0
  186.3900  173.1770  134.7230 O   0  0  0  0  0  1  0  0  0  0  0  0
  187.5110  176.3990  137.1560 C   0  0  0  0  0  0  0  0  0  0  0  0
  186.9700  175.5050  134.9670 C   0  0  0  0  0  3  0  0  0  0  0  0
  187.2750  175.1350  137.7190 C   0  0  0  0  0  3  0  0  0  0  0  0
  186.6440  178.4900  134.3460 C   0  0  0  0  0  1  0  0  0  0  0  0
  187.5690  177.8600  135.2200 O   0  0  0  0  0  0  0  0  0  0  0  0
  187.1320  178.6780  137.7250 O   0  0  0  0  0  0  0  0  0  0  0  0
  185.8820  178.4190  138.2950 C   0  0  0  0  0  2  0  0  0  0  0  0
  185.9170  178.7440  139.7790 C   0  0  0  0  0  2  0  0  0  0  0  0
  182.1360  178.7730  140.0420 C   0  0  0  0  0  3  0  0  0  0  0  0
  181.9500  178.7870  141.4330 C   0  0  0  0  0  0  0  0  0  0  0  0
  184.3560  178.7790  141.7380 C   0  0  0  0  0  3  0  0  0  0  0  0
  183.4270  178.7590  139.5030 C   0  0  0  0  0  3  0  0  0  0  0  0
  184.5400  178.7560  140.3530 C   0  0  0  0  0  0  0  0  0  0  0  0
  183.0670  178.7920  142.2740 C   0  0  0  0  0  3  0  0  0  0  0  0
  180.0530  179.8830  142.5430 C   0  0  0  0  0  2  0  0  0  0  0  0
  180.6100  178.7910  142.0370 C   0  0  0  0  0  3  0  0  0  0  0  0
  1  2  2  0  0  0  0
  2  5  1  0  0  0  0
  3  1  1  0  0  0  0
  4  2  1  0  0  0  0
  6 23  1  1  0  0  0
  6  4  1  0  0  0  0
  7  3  1  0  0  0  0
  7  6  1  0  0  0  0
  8  9  1  0  0  0  0
  9 11  1  1  0  0  0
 10  5  1  6  0  0  0
 10  8  1  0  0  0  0
 10  9  1  0  0  0  0
 11 18  1  0  0  0  0
 11 12  1  0  0  0  0
 12 17  1  0  0  0  0
 14 15  2  0  0  0  0
 15 13  1  0  0  0  0
 16 14  1  0  0  0  0
 16 12  2  0  0  0  0
 17 13  2  0  0  0  0
 18 19  1  0  0  0  0
 19 20  1  0  0  0  0
 19 22  1  0  0  0  0
 20 22  1  0  0  0  0
 21 19  1  0  0  0  0
 23 33  1  6  0  0  0
 24 26  1  0  0  0  0
 25 28  2  0  0  0  0
 26 30  2  0  0  0  0
 27 24  1  0  0  0  0
 28 30  1  0  0  0  0
 28 23  1  0  0  0  0
 29 24  2  0  0  0  0
 29 25  1  0  0  0  0
 31 32  1  0  0  0  0
 32 25  1  0  0  0  0
 33 34  1  0  0  0  0
 34 35  1  0  0  0  0
 35 40  1  0  0  0  0
 36 37  1  0  0  0  0
 37 43  1  0  0  0  0
 37 41  2  0  0  0  0
 38 41  1  0  0  0  0
 39 36  2  0  0  0  0
 39 40  1  0  0  0  0
 40 38  2  0  0  0  0
 43 42  2  0  0  0  0
M  END
>  <MODEL>
6

>  <REMARK>
 VINA RESULT:      -7.0      3.124      6.675
  Name = 
  13 active torsions:
  status: ('A' for Active; 'I' for Inactive)
    1  A    between atoms: C_1  and  C_8
    2  A    between atoms: C_1  and  C_35
    3  A    between atoms: C_4  and  N_14
    4  A    between atoms: C_8  and  O_34
    5  A    between atoms: C_10  and  S_41
    6  A    between atoms: C_11  and  N_14
    7  A    between atoms: C_12  and  N_17
    8  A    between atoms: N_14  and  S_41
    9  A    between atoms: C_16  and  O_43
   10  A    between atoms: C_19  and  C_37
   11  A    between atoms: C_21  and  C_30
   12  A    between atoms: C_27  and  C_30
   13  A    between atoms: C_30  and  O_34
                            x       y       z     vdW  Elec       q    Type
                         _______ _______ _______ _____ _____    ______ ____

>  <TORSDO>
F 13

$$$$
=
 OpenBabel10272414133D

 43 48  0  0  1  0  0  0  0  0999 V2000
  189.1570  178.8910  138.0140 N   0  0  0  0  0  0  0  0  0  0  0  0
  188.7220  178.0450  138.8950 C   0  0  0  0  0  0  0  0  0  0  0  0
  188.9540  178.6480  136.5890 C   0  0  0  0  0  2  0  0  0  0  0  0
  188.0410  176.7880  138.4300 C   0  0  0  0  0  2  0  0  0  0  0  0
  188.9470  178.3010  140.2800 N   0  0  0  0  0  2  0  0  0  0  0  0
  188.8200  176.1610  137.2570 C   0  0  1  0  0  3  0  0  0  0  0  0
  189.3490  177.2090  136.2450 C   0  0  0  0  0  2  0  0  0  0  0  0
  189.4320  176.7730  142.0770 C   0  0  0  0  0  2  0  0  0  0  0  0
  188.8590  178.0440  142.6770 C   0  0  1  0  0  3  0  0  0  0  0  0
  188.3430  177.5210  141.3470 C   0  0  1  0  0  3  0  0  0  0  0  0
  187.9480  177.7210  143.7780 N   0  0  0  0  0  0  0  0  0  0  0  0
  188.4300  177.6160  145.1320 C   0  0  0  0  0  0  0  0  0  0  0  0
  190.2640  177.6120  146.6510 C   0  0  0  0  0  3  0  0  0  0  0  0
  188.0340  177.3050  147.4990 C   0  0  0  0  0  3  0  0  0  0  0  0
  189.4030  177.4160  147.7310 C   0  0  0  0  0  3  0  0  0  0  0  0
  187.5430  177.4060  146.1970 C   0  0  0  0  0  3  0  0  0  0  0  0
  189.7640  177.7030  145.3890 N   0  0  0  0  0  0  0  0  0  0  0  0
  186.3940  176.9680  143.3560 S   0  0  0  0  0  0  0  0  0  0  0  0
  185.4720  178.5350  143.4200 C   0  0  0  0  0  0  0  0  0  0  0  0
  184.2450  178.6540  142.5500 C   0  0  0  0  0  2  0  0  0  0  0  0
  185.4540  179.2790  144.5960 O   0  0  0  0  0  1  0  0  0  0  0  0
  185.5320  179.3790  142.1720 C   0  0  0  0  0  2  0  0  0  0  0  0
  189.9620  175.2910  137.8000 C   0  0  2  0  0  3  0  0  0  0  0  0
  193.8130  176.5170  136.3130 C   0  0  0  0  0  0  0  0  0  0  0  0
  192.1940  176.4170  138.1250 C   0  0  0  0  0  0  0  0  0  0  0  0
  192.9290  175.8320  135.4790 C   0  0  0  0  0  3  0  0  0  0  0  0
  195.0600  176.9010  135.8390 O   0  0  0  0  0  1  0  0  0  0  0  0
  191.3110  175.7140  137.2840 C   0  0  0  0  0  0  0  0  0  0  0  0
  193.4460  176.8120  137.6280 C   0  0  0  0  0  3  0  0  0  0  0  0
  191.6800  175.4330  135.9600 C   0  0  0  0  0  3  0  0  0  0  0  0
  192.5070  177.6390  140.2560 C   0  0  0  0  0  1  0  0  0  0  0  0
  191.8110  176.7100  139.4400 O   0  0  0  0  0  0  0  0  0  0  0  0
  189.7340  173.9460  137.4920 O   0  0  0  0  0  0  0  0  0  0  0  0
  188.5280  173.9370  136.7840 C   0  0  0  0  0  2  0  0  0  0  0  0
  187.9930  172.5180  136.6990 C   0  0  0  0  0  2  0  0  0  0  0  0
  184.4010  171.6160  135.8940 C   0  0  0  0  0  3  0  0  0  0  0  0
  183.6950  172.5050  136.7210 C   0  0  0  0  0  0  0  0  0  0  0  0
  185.8000  173.4020  137.5250 C   0  0  0  0  0  3  0  0  0  0  0  0
  185.8000  171.6200  135.8870 C   0  0  0  0  0  3  0  0  0  0  0  0
  186.5010  172.5110  136.7090 C   0  0  0  0  0  0  0  0  0  0  0  0
  184.4030  173.3960  137.5320 C   0  0  0  0  0  3  0  0  0  0  0  0
  181.5360  173.4920  137.3500 C   0  0  0  0  0  2  0  0  0  0  0  0
  182.2260  172.5240  136.7640 C   0  0  0  0  0  3  0  0  0  0  0  0
  1  2  2  0  0  0  0
  2  5  1  0  0  0  0
  3  1  1  0  0  0  0
  4  2  1  0  0  0  0
  6 23  1  1  0  0  0
  6  4  1  0  0  0  0
  7  3  1  0  0  0  0
  7  6  1  0  0  0  0
  8  9  1  0  0  0  0
  9 11  1  1  0  0  0
 10  5  1  6  0  0  0
 10  8  1  0  0  0  0
 10  9  1  0  0  0  0
 11 12  1  0  0  0  0
 12 17  2  0  0  0  0
 12 16  1  0  0  0  0
 13 15  2  0  0  0  0
 14 15  1  0  0  0  0
 16 14  2  0  0  0  0
 17 13  1  0  0  0  0
 18 19  1  0  0  0  0
 18 11  1  0  0  0  0
 19 21  1  0  0  0  0
 20 19  1  0  0  0  0
 22 20  1  0  0  0  0
 22 19  1  0  0  0  0
 23 33  1  6  0  0  0
 24 29  1  0  0  0  0
 25 32  1  0  0  0  0
 26 30  1  0  0  0  0
 26 24  2  0  0  0  0
 27 24  1  0  0  0  0
 28 23  1  0  0  0  0
 28 25  1  0  0  0  0
 29 25  2  0  0  0  0
 30 28  2  0  0  0  0
 32 31  1  0  0  0  0
 34 33  1  0  0  0  0
 35 40  1  0  0  0  0
 35 34  1  0  0  0  0
 36 37  1  0  0  0  0
 37 43  1  0  0  0  0
 37 41  2  0  0  0  0
 38 41  1  0  0  0  0
 39 36  2  0  0  0  0
 39 40  1  0  0  0  0
 40 38  2  0  0  0  0
 43 42  2  0  0  0  0
M  END
>  <MODEL>
7

>  <REMARK>
 VINA RESULT:      -6.9      3.095      6.018
  Name = 
  13 active torsions:
  status: ('A' for Active; 'I' for Inactive)
    1  A    between atoms: C_1  and  C_8
    2  A    between atoms: C_1  and  C_35
    3  A    between atoms: C_4  and  N_14
    4  A    between atoms: C_8  and  O_34
    5  A    between atoms: C_10  and  S_41
    6  A    between atoms: C_11  and  N_14
    7  A    between atoms: C_12  and  N_17
    8  A    between atoms: N_14  and  S_41
    9  A    between atoms: C_16  and  O_43
   10  A    between atoms: C_19  and  C_37
   11  A    between atoms: C_21  and  C_30
   12  A    between atoms: C_27  and  C_30
   13  A    between atoms: C_30  and  O_34
                            x       y       z     vdW  Elec       q    Type
                         _______ _______ _______ _____ _____    ______ ____

>  <TORSDO>
F 13

$$$$
=
 OpenBabel10272414133D

 43 48  0  0  1  0  0  0  0  0999 V2000
  191.4480  177.7730  139.2710 N   0  0  0  0  0  0  0  0  0  0  0  0
  190.2380  177.3370  139.1100 C   0  0  0  0  0  0  0  0  0  0  0  0
  192.2760  177.2740  140.3640 C   0  0  0  0  0  2  0  0  0  0  0  0
  189.6820  176.3390  140.0870 C   0  0  0  0  0  2  0  0  0  0  0  0
  189.4460  177.8520  138.0410 N   0  0  0  0  0  2  0  0  0  0  0  0
  190.0360  176.7500  141.5300 C   0  0  1  0  0  3  0  0  0  0  0  0
  191.4800  177.2950  141.6720 C   0  0  0  0  0  2  0  0  0  0  0  0
  187.4690  178.2700  136.7310 C   0  0  0  0  0  2  0  0  0  0  0  0
  188.1650  177.0460  136.1630 C   0  0  1  0  0  3  0  0  0  0  0  0
  188.1560  177.3000  137.6610 C   0  0  1  0  0  3  0  0  0  0  0  0
  187.1780  176.0340  135.7780 N   0  0  0  0  0  0  0  0  0  0  0  0
  187.5170  174.6330  135.7710 C   0  0  0  0  0  0  0  0  0  0  0  0
  187.9820  172.6530  134.5330 C   0  0  0  0  0  3  0  0  0  0  0  0
  188.0110  172.5710  136.9370 C   0  0  0  0  0  3  0  0  0  0  0  0
  188.1680  171.9280  135.7110 C   0  0  0  0  0  3  0  0  0  0  0  0
  187.6850  173.9280  136.9700 C   0  0  0  0  0  3  0  0  0  0  0  0
  187.6610  173.9740  134.5880 N   0  0  0  0  0  0  0  0  0  0  0  0
  185.7670  176.5830  134.8470 S   0  0  0  0  0  0  0  0  0  0  0  0
  184.5760  175.6600  135.8660 C   0  0  0  0  0  0  0  0  0  0  0  0
  183.4140  176.4300  136.4440 C   0  0  0  0  0  2  0  0  0  0  0  0
  184.3380  174.3140  135.6010 O   0  0  0  0  0  1  0  0  0  0  0  0
  184.5740  175.9970  137.3340 C   0  0  0  0  0  2  0  0  0  0  0  0
  189.0080  177.7670  142.0460 C   0  0  2  0  0  3  0  0  0  0  0  0
  188.5050  177.5750  146.3180 C   0  0  0  0  0  0  0  0  0  0  0  0
  189.7110  178.4120  144.3790 C   0  0  0  0  0  0  0  0  0  0  0  0
  187.6410  176.8670  145.4820 C   0  0  0  0  0  3  0  0  0  0  0  0
  188.3350  177.5250  147.6960 O   0  0  0  0  0  1  0  0  0  0  0  0
  188.8300  177.7070  143.5390 C   0  0  0  0  0  0  0  0  0  0  0  0
  189.5370  178.3410  145.7710 C   0  0  0  0  0  3  0  0  0  0  0  0
  187.8030  176.9290  144.0970 C   0  0  0  0  0  3  0  0  0  0  0  0
  191.9850  179.3880  144.4710 C   0  0  0  0  0  1  0  0  0  0  0  0
  190.7440  179.1720  143.8160 O   0  0  0  0  0  0  0  0  0  0  0  0
  187.7770  177.5760  141.4100 O   0  0  0  0  0  0  0  0  0  0  0  0
  187.2920  178.8640  141.1680 C   0  0  0  0  0  2  0  0  0  0  0  0
  186.0240  179.0950  141.9720 C   0  0  0  0  0  2  0  0  0  0  0  0
  183.7140  179.1470  138.9680 C   0  0  0  0  0  3  0  0  0  0  0  0
  182.5320  178.6190  139.5120 C   0  0  0  0  0  0  0  0  0  0  0  0
  183.6350  178.4100  141.6620 C   0  0  0  0  0  3  0  0  0  0  0  0
  184.8510  179.3010  139.7690 C   0  0  0  0  0  3  0  0  0  0  0  0
  184.8130  178.9270  141.1170 C   0  0  0  0  0  0  0  0  0  0  0  0
  182.5010  178.2550  140.8610 C   0  0  0  0  0  3  0  0  0  0  0  0
  181.0820  179.1240  137.5950 C   0  0  0  0  0  2  0  0  0  0  0  0
  181.3210  178.4320  138.7000 C   0  0  0  0  0  3  0  0  0  0  0  0
  1  3  1  0  0  0  0
  2  1  2  0  0  0  0
  2  4  1  0  0  0  0
  3  7  1  0  0  0  0
  4  6  1  0  0  0  0
  5  2  1  0  0  0  0
  6  7  1  0  0  0  0
  6 23  1  6  0  0  0
  8 10  1  0  0  0  0
  9 11  1  1  0  0  0
  9  8  1  0  0  0  0
  9 10  1  0  0  0  0
 10  5  1  6  0  0  0
 12 11  1  0  0  0  0
 12 16  1  0  0  0  0
 13 17  1  0  0  0  0
 13 15  2  0  0  0  0
 14 16  2  0  0  0  0
 15 14  1  0  0  0  0
 17 12  2  0  0  0  0
 18 11  1  0  0  0  0
 18 19  1  0  0  0  0
 19 20  1  0  0  0  0
 19 22  1  0  0  0  0
 20 22  1  0  0  0  0
 21 19  1  0  0  0  0
 23 33  1  6  0  0  0
 23 28  1  0  0  0  0
 24 27  1  0  0  0  0
 25 29  2  0  0  0  0
 26 24  2  0  0  0  0
 28 30  2  0  0  0  0
 28 25  1  0  0  0  0
 29 24  1  0  0  0  0
 30 26  1  0  0  0  0
 32 25  1  0  0  0  0
 32 31  1  0  0  0  0
 34 33  1  0  0  0  0
 34 35  1  0  0  0  0
 36 37  2  0  0  0  0
 36 39  1  0  0  0  0
 37 41  1  0  0  0  0
 39 40  2  0  0  0  0
 40 38  1  0  0  0  0
 40 35  1  0  0  0  0
 41 38  2  0  0  0  0
 42 43  2  0  0  0  0
 43 37  1  0  0  0  0
M  END
>  <MODEL>
8

>  <REMARK>
 VINA RESULT:      -6.9      3.243      7.740
  Name = 
  13 active torsions:
  status: ('A' for Active; 'I' for Inactive)
    1  A    between atoms: C_1  and  C_8
    2  A    between atoms: C_1  and  C_35
    3  A    between atoms: C_4  and  N_14
    4  A    between atoms: C_8  and  O_34
    5  A    between atoms: C_10  and  S_41
    6  A    between atoms: C_11  and  N_14
    7  A    between atoms: C_12  and  N_17
    8  A    between atoms: N_14  and  S_41
    9  A    between atoms: C_16  and  O_43
   10  A    between atoms: C_19  and  C_37
   11  A    between atoms: C_21  and  C_30
   12  A    between atoms: C_27  and  C_30
   13  A    between atoms: C_30  and  O_34
                            x       y       z     vdW  Elec       q    Type
                         _______ _______ _______ _____ _____    ______ ____

>  <TORSDO>
F 13

$$$$
=
 OpenBabel10272414133D

 43 48  0  0  1  0  0  0  0  0999 V2000
  183.6540  180.1840  139.4500 N   0  0  0  0  0  0  0  0  0  0  0  0
  184.2830  179.1480  139.9090 C   0  0  0  0  0  0  0  0  0  0  0  0
  182.3310  180.0410  138.8480 C   0  0  0  0  0  2  0  0  0  0  0  0
  183.6520  177.7890  139.7780 C   0  0  0  0  0  2  0  0  0  0  0  0
  185.5790  179.3150  140.4800 N   0  0  0  0  0  2  0  0  0  0  0  0
  183.0540  177.6120  138.3690 C   0  0  1  0  0  3  0  0  0  0  0  0
  182.3380  178.8840  137.8450 C   0  0  0  0  0  2  0  0  0  0  0  0
  187.7380  178.2890  140.7790 C   0  0  0  0  0  2  0  0  0  0  0  0
  187.3150  178.8990  142.1030 C   0  0  1  0  0  3  0  0  0  0  0  0
  186.2850  178.2590  141.1870 C   0  0  1  0  0  3  0  0  0  0  0  0
  187.6810  178.0130  143.2110 N   0  0  0  0  0  0  0  0  0  0  0  0
  189.0370  177.5540  143.3750 C   0  0  0  0  0  0  0  0  0  0  0  0
  190.6440  175.8120  143.1430 C   0  0  0  0  0  3  0  0  0  0  0  0
  191.3230  177.9210  144.0810 C   0  0  0  0  0  3  0  0  0  0  0  0
  191.6430  176.6250  143.6790 C   0  0  0  0  0  3  0  0  0  0  0  0
  190.0170  178.3890  143.9290 C   0  0  0  0  0  3  0  0  0  0  0  0
  189.3770  176.2870  143.0080 N   0  0  0  0  0  0  0  0  0  0  0  0
  186.3680  177.1240  144.0130 S   0  0  0  0  0  0  0  0  0  0  0  0
  186.3050  178.2500  145.4400 C   0  0  0  0  0  0  0  0  0  0  0  0
  184.9800  178.4020  146.1450 C   0  0  0  0  0  2  0  0  0  0  0  0
  187.4360  178.4240  146.2330 O   0  0  0  0  0  1  0  0  0  0  0  0
  185.5050  179.5110  145.2410 C   0  0  0  0  0  2  0  0  0  0  0  0
  184.1480  177.1530  137.3950 C   0  0  2  0  0  3  0  0  0  0  0  0
  183.4140  173.2070  135.8370 C   0  0  0  0  0  0  0  0  0  0  0  0
  183.3750  175.6210  135.5480 C   0  0  0  0  0  0  0  0  0  0  0  0
  183.9190  173.3640  137.1280 C   0  0  0  0  0  3  0  0  0  0  0  0
  183.1890  171.9340  135.3280 O   0  0  0  0  0  1  0  0  0  0  0  0
  183.8970  175.7750  136.8460 C   0  0  0  0  0  0  0  0  0  0  0  0
  183.1390  174.3290  135.0520 C   0  0  0  0  0  3  0  0  0  0  0  0
  184.1570  174.6430  137.6340 C   0  0  0  0  0  3  0  0  0  0  0  0
  181.7800  177.1820  134.4740 C   0  0  0  0  0  1  0  0  0  0  0  0
  183.1000  176.7560  134.7740 O   0  0  0  0  0  0  0  0  0  0  0  0
  185.3990  177.1980  138.0170 O   0  0  0  0  0  0  0  0  0  0  0  0
  186.2200  177.8990  137.1280 C   0  0  0  0  0  2  0  0  0  0  0  0
  186.9170  176.9230  136.1950 C   0  0  0  0  0  2  0  0  0  0  0  0
  189.9260  174.8940  137.2890 C   0  0  0  0  0  3  0  0  0  0  0  0
  190.8150  175.9040  137.6920 C   0  0  0  0  0  0  0  0  0  0  0  0
  189.1520  177.5740  137.1210 C   0  0  0  0  0  3  0  0  0  0  0  0
  188.6570  175.2260  136.8010 C   0  0  0  0  0  3  0  0  0  0  0  0
  188.2710  176.5690  136.7120 C   0  0  0  0  0  0  0  0  0  0  0  0
  190.4190  177.2420  137.6060 C   0  0  0  0  0  3  0  0  0  0  0  0
  193.1140  176.5110  138.3110 C   0  0  0  0  0  2  0  0  0  0  0  0
  192.1600  175.5960  138.1990 C   0  0  0  0  0  3  0  0  0  0  0  0
  1  2  2  0  0  0  0
  2  5  1  0  0  0  0
  3  1  1  0  0  0  0
  4  2  1  0  0  0  0
  6 23  1  6  0  0  0
  6  4  1  0  0  0  0
  7  6  1  0  0  0  0
  7  3  1  0  0  0  0
  8 10  1  0  0  0  0
  8  9  1  0  0  0  0
  9 11  1  1  0  0  0
 10  5  1  6  0  0  0
 10  9  1  0  0  0  0
 11 12  1  0  0  0  0
 11 18  1  0  0  0  0
 12 16  1  0  0  0  0
 13 15  2  0  0  0  0
 15 14  1  0  0  0  0
 16 14  2  0  0  0  0
 17 13  1  0  0  0  0
 17 12  2  0  0  0  0
 18 19  1  0  0  0  0
 19 20  1  0  0  0  0
 19 21  1  0  0  0  0
 22 19  1  0  0  0  0
 22 20  1  0  0  0  0
 23 33  1  1  0  0  0
 24 26  1  0  0  0  0
 25 28  2  0  0  0  0
 26 30  2  0  0  0  0
 27 24  1  0  0  0  0
 28 23  1  0  0  0  0
 28 30  1  0  0  0  0
 29 25  1  0  0  0  0
 29 24  2  0  0  0  0
 31 32  1  0  0  0  0
 32 25  1  0  0  0  0
 34 33  1  0  0  0  0
 35 40  1  0  0  0  0
 35 34  1  0  0  0  0
 36 37  1  0  0  0  0
 37 43  1  0  0  0  0
 38 41  1  0  0  0  0
 39 36  2  0  0  0  0
 40 39  1  0  0  0  0
 40 38  2  0  0  0  0
 41 37  2  0  0  0  0
 43 42  2  0  0  0  0
M  END
>  <MODEL>
9

>  <REMARK>
 VINA RESULT:      -6.8      3.176      7.048
  Name = 
  13 active torsions:
  status: ('A' for Active; 'I' for Inactive)
    1  A    between atoms: C_1  and  C_8
    2  A    between atoms: C_1  and  C_35
    3  A    between atoms: C_4  and  N_14
    4  A    between atoms: C_8  and  O_34
    5  A    between atoms: C_10  and  S_41
    6  A    between atoms: C_11  and  N_14
    7  A    between atoms: C_12  and  N_17
    8  A    between atoms: N_14  and  S_41
    9  A    between atoms: C_16  and  O_43
   10  A    between atoms: C_19  and  C_37
   11  A    between atoms: C_21  and  C_30
   12  A    between atoms: C_27  and  C_30
   13  A    between atoms: C_30  and  O_34
                            x       y       z     vdW  Elec       q    Type
                         _______ _______ _______ _____ _____    ______ ____

>  <TORSDO>
F 13

$$$$
