=
 OpenBabel10272400073D

 34 37  0  0  1  0  0  0  0  0999 V2000
  188.5300  177.7700  141.6570 N   0  0  0  0  0  0  0  0  0  0  0  0
  190.5880  177.9930  142.9110 C   0  0  2  0  0  3  0  0  0  0  0  0
  189.6570  177.6380  140.7390 C   0  0  1  0  0  3  0  0  0  0  0  0
  190.8960  177.3740  141.5660 C   0  0  1  0  0  3  0  0  0  0  0  0
  189.0730  177.9390  143.0080 C   0  0  2  0  0  3  0  0  0  0  0  0
  190.9940  179.3290  142.9530 O   0  0  0  0  0  1  0  0  0  0  0  0
  190.3170  176.7740  145.7660 C   0  0  0  0  0  3  0  0  0  0  0  0
  188.0770  177.5550  146.3000 C   0  0  0  0  0  0  0  0  0  0  0  0
  188.6080  176.7880  143.9220 C   0  0  2  0  0  3  0  0  0  0  0  0
  188.4900  177.8020  147.6130 C   0  0  0  0  0  3  0  0  0  0  0  0
  186.6190  177.7190  145.9700 C   0  0  0  0  0  2  0  0  0  0  0  0
  187.0950  176.5670  143.8040 C   0  0  0  0  0  2  0  0  0  0  0  0
  188.9990  177.0310  145.3630 C   0  0  0  0  0  0  0  0  0  0  0  0
  189.8090  177.5540  147.9990 C   0  0  0  0  0  3  0  0  0  0  0  0
  190.7210  177.0370  147.0770 C   0  0  0  0  0  3  0  0  0  0  0  0
  186.3470  177.7160  144.4690 C   0  0  0  0  0  2  0  0  0  0  0  0
  192.0220  177.9540  140.9710 O   0  0  0  0  0  0  0  0  0  0  0  0
  192.8640  176.8810  140.6790 C   0  0  0  0  0  2  0  0  0  0  0  0
  193.1240  176.7890  138.8870 S   0  0  0  0  0  1  0  0  0  0  0  0
  187.8450  179.0060  141.3170 C   0  0  0  0  0  2  0  0  0  0  0  0
  186.5740  178.6710  140.0680 S   0  0  0  0  0  0  0  0  0  0  0  0
  185.2410  179.0800  141.2260 C   0  0  0  0  0  2  0  0  0  0  0  0
  183.9030  178.7680  140.5840 C   0  0  0  0  0  2  0  0  0  0  0  0
  182.3370  178.7390  143.9490 C   0  0  0  0  0  2  0  0  0  0  0  0
  182.9500  178.3630  141.6030 N   0  0  0  0  0  0  0  0  0  0  0  0
  183.2580  179.1440  142.8000 C   0  0  0  0  0  2  0  0  0  0  0  0
  179.9840  178.9420  144.3810 N   0  0  0  0  0  2  0  0  0  0  0  0
  180.5530  178.3250  142.1320 C   0  0  0  0  0  2  0  0  0  0  0  0
  181.6230  178.7660  141.1340 C   0  0  0  0  0  2  0  0  0  0  0  0
  180.9070  178.8220  143.5030 C   0  0  0  0  0  0  0  0  0  0  0  0
  189.4040  176.4850  139.7830 C   0  0  0  0  0  2  0  0  0  0  0  0
  189.4400  177.0720  138.0640 S   0  0  0  0  0  0  0  0  0  0  0  0
  188.4430  175.6670  137.4970 C   0  0  0  0  0  2  0  0  0  0  0  0
  187.0990  176.1680  137.0120 C   0  0  0  0  0  1  0  0  0  0  0  0
  2  6  1  6  0  0  0
  2  5  1  0  0  0  0
  3 31  1  6  0  0  0
  3  4  1  0  0  0  0
  3  1  1  0  0  0  0
  4 17  1  6  0  0  0
  4  2  1  0  0  0  0
  5  1  1  6  0  0  0
  5  9  1  0  0  0  0
  7 15  1  0  0  0  0
  8 10  2  0  0  0  0
  9 12  1  1  0  0  0
  9 13  1  0  0  0  0
 10 14  1  0  0  0  0
 11  8  1  0  0  0  0
 12 16  1  0  0  0  0
 13  7  2  0  0  0  0
 13  8  1  0  0  0  0
 15 14  2  0  0  0  0
 16 11  1  0  0  0  0
 18 17  1  0  0  0  0
 19 18  1  0  0  0  0
 20  1  1  0  0  0  0
 21 22  1  0  0  0  0
 21 20  1  0  0  0  0
 23 22  1  0  0  0  0
 23 25  1  0  0  0  0
 25 26  1  0  0  0  0
 26 24  1  0  0  0  0
 28 30  1  0  0  0  0
 29 25  1  0  0  0  0
 29 28  1  0  0  0  0
 30 24  1  0  0  0  0
 30 27  2  0  0  0  0
 32 31  1  0  0  0  0
 33 32  1  0  0  0  0
 34 33  1  0  0  0  0
M  END
>  <MODEL>
1

>  <REMARK>
 VINA RESULT:      -6.5      0.000      0.000
  Name = 
  11 active torsions:
  status: ('A' for Active; 'I' for Inactive)
    1  A    between atoms: C_3  and  N_13
    2  A    between atoms: C_3  and  C_17
    3  A    between atoms: C_4  and  C_31
    4  A    between atoms: N_5  and  C_18
    5  A    between atoms: C_7  and  O_8
    6  A    between atoms: O_8  and  C_28
    7  A    between atoms: C_12  and  S_16
    8  A    between atoms: S_16  and  C_23
    9  A    between atoms: C_17  and  S_29
   10  A    between atoms: C_18  and  S_29
   11  A    between atoms: C_23  and  C_26
                            x       y       z     vdW  Elec       q    Type
                         _______ _______ _______ _____ _____    ______ ____

>  <TORSDO>
F 11

$$$$
=
 OpenBabel10272400073D

 34 37  0  0  1  0  0  0  0  0999 V2000
  188.6150  177.7640  141.6720 N   0  0  0  0  0  0  0  0  0  0  0  0
  190.8280  177.8720  142.6460 C   0  0  2  0  0  3  0  0  0  0  0  0
  189.6050  177.6760  140.6020 C   0  0  1  0  0  3  0  0  0  0  0  0
  190.9370  177.3390  141.2340 C   0  0  1  0  0  3  0  0  0  0  0  0
  189.3390  177.8350  142.9450 C   0  0  2  0  0  3  0  0  0  0  0  0
  191.2690  179.1960  142.7160 O   0  0  0  0  0  1  0  0  0  0  0  0
  191.0830  176.2070  145.1410 C   0  0  0  0  0  3  0  0  0  0  0  0
  189.1830  177.1460  146.3330 C   0  0  0  0  0  0  0  0  0  0  0  0
  188.9750  176.6340  143.8390 C   0  0  2  0  0  3  0  0  0  0  0  0
  189.9490  177.1810  147.5020 C   0  0  0  0  0  3  0  0  0  0  0  0
  187.7250  177.5040  146.4270 C   0  0  0  0  0  2  0  0  0  0  0  0
  187.4660  176.5900  144.1160 C   0  0  0  0  0  2  0  0  0  0  0  0
  189.7530  176.6500  145.1360 C   0  0  0  0  0  0  0  0  0  0  0  0
  191.2770  176.7480  147.4910 C   0  0  0  0  0  3  0  0  0  0  0  0
  191.8430  176.2580  146.3110 C   0  0  0  0  0  3  0  0  0  0  0  0
  187.0770  177.7190  145.0620 C   0  0  0  0  0  2  0  0  0  0  0  0
  191.9860  177.9390  140.5300 O   0  0  0  0  0  0  0  0  0  0  0  0
  192.8650  176.8960  140.2410 C   0  0  0  0  0  2  0  0  0  0  0  0
  192.8540  176.5750  138.4560 S   0  0  0  0  0  1  0  0  0  0  0  0
  187.9200  179.0310  141.5080 C   0  0  0  0  0  2  0  0  0  0  0  0
  186.1370  178.7740  141.7130 S   0  0  0  0  0  0  0  0  0  0  0  0
  185.8780  178.7130  139.9200 C   0  0  0  0  0  2  0  0  0  0  0  0
  184.4690  179.1700  139.5990 C   0  0  0  0  0  2  0  0  0  0  0  0
  184.1500  176.4320  137.1150 C   0  0  0  0  0  2  0  0  0  0  0  0
  183.7810  178.1480  138.8290 N   0  0  0  0  0  0  0  0  0  0  0  0
  184.7960  177.4890  138.0080 C   0  0  0  0  0  2  0  0  0  0  0  0
  183.0530  174.3330  137.5030 N   0  0  0  0  0  2  0  0  0  0  0  0
  182.4820  176.0770  139.0500 C   0  0  0  0  0  2  0  0  0  0  0  0
  183.2680  177.1640  139.7820 C   0  0  0  0  0  2  0  0  0  0  0  0
  183.3250  175.4990  137.9520 C   0  0  0  0  0  0  0  0  0  0  0  0
  189.1960  176.5930  139.6190 C   0  0  0  0  0  2  0  0  0  0  0  0
  188.9090  177.3100  137.9750 S   0  0  0  0  0  0  0  0  0  0  0  0
  188.1180  175.7910  137.3810 C   0  0  0  0  0  2  0  0  0  0  0  0
  187.7350  175.9590  135.9250 C   0  0  0  0  0  1  0  0  0  0  0  0
  2  6  1  6  0  0  0
  2  5  1  0  0  0  0
  3 31  1  6  0  0  0
  3  4  1  0  0  0  0
  3  1  1  0  0  0  0
  4 17  1  6  0  0  0
  4  2  1  0  0  0  0
  5  1  1  6  0  0  0
  5  9  1  0  0  0  0
  7 15  1  0  0  0  0
  8 11  1  0  0  0  0
  8 10  2  0  0  0  0
  9 12  1  1  0  0  0
  9 13  1  0  0  0  0
 12 16  1  0  0  0  0
 13  7  2  0  0  0  0
 13  8  1  0  0  0  0
 14 10  1  0  0  0  0
 15 14  2  0  0  0  0
 16 11  1  0  0  0  0
 18 17  1  0  0  0  0
 19 18  1  0  0  0  0
 20  1  1  0  0  0  0
 20 21  1  0  0  0  0
 22 21  1  0  0  0  0
 23 22  1  0  0  0  0
 24 30  1  0  0  0  0
 24 26  1  0  0  0  0
 25 23  1  0  0  0  0
 25 29  1  0  0  0  0
 26 25  1  0  0  0  0
 27 30  2  0  0  0  0
 28 29  1  0  0  0  0
 30 28  1  0  0  0  0
 32 31  1  0  0  0  0
 33 32  1  0  0  0  0
 34 33  1  0  0  0  0
M  END
>  <MODEL>
2

>  <REMARK>
 VINA RESULT:      -6.4      2.079      2.803
  Name = 
  11 active torsions:
  status: ('A' for Active; 'I' for Inactive)
    1  A    between atoms: C_3  and  N_13
    2  A    between atoms: C_3  and  C_17
    3  A    between atoms: C_4  and  C_31
    4  A    between atoms: N_5  and  C_18
    5  A    between atoms: C_7  and  O_8
    6  A    between atoms: O_8  and  C_28
    7  A    between atoms: C_12  and  S_16
    8  A    between atoms: S_16  and  C_23
    9  A    between atoms: C_17  and  S_29
   10  A    between atoms: C_18  and  S_29
   11  A    between atoms: C_23  and  C_26
                            x       y       z     vdW  Elec       q    Type
                         _______ _______ _______ _____ _____    ______ ____

>  <TORSDO>
F 11

$$$$
=
 OpenBabel10272400073D

 34 37  0  0  1  0  0  0  0  0999 V2000
  188.0310  177.9540  142.0400 N   0  0  0  0  0  0  0  0  0  0  0  0
  190.0470  178.1770  143.3600 C   0  0  2  0  0  3  0  0  0  0  0  0
  189.1870  177.7650  141.1690 C   0  0  1  0  0  3  0  0  0  0  0  0
  190.3900  177.5040  142.0490 C   0  0  1  0  0  3  0  0  0  0  0  0
  188.5290  178.1590  143.4030 C   0  0  2  0  0  3  0  0  0  0  0  0
  190.4820  179.5040  143.3710 O   0  0  0  0  0  1  0  0  0  0  0  0
  189.6650  177.0430  146.2280 C   0  0  0  0  0  3  0  0  0  0  0  0
  187.4370  177.9070  146.6780 C   0  0  0  0  0  0  0  0  0  0  0  0
  188.0050  177.0510  144.3400 C   0  0  2  0  0  3  0  0  0  0  0  0
  187.8230  178.1830  147.9940 C   0  0  0  0  0  3  0  0  0  0  0  0
  185.9940  178.1050  146.3040 C   0  0  0  0  0  2  0  0  0  0  0  0
  186.4890  176.8730  144.1880 C   0  0  0  0  0  2  0  0  0  0  0  0
  188.3670  177.3270  145.7820 C   0  0  0  0  0  0  0  0  0  0  0  0
  189.1240  177.9070  148.4220 C   0  0  0  0  0  3  0  0  0  0  0  0
  190.0440  177.3340  147.5400 C   0  0  0  0  0  3  0  0  0  0  0  0
  185.7600  178.0640  144.7970 C   0  0  0  0  0  2  0  0  0  0  0  0
  191.5490  178.0380  141.4770 O   0  0  0  0  0  0  0  0  0  0  0  0
  192.3980  176.9450  141.3050 C   0  0  0  0  0  2  0  0  0  0  0  0
  193.3230  177.1380  139.7570 S   0  0  0  0  0  1  0  0  0  0  0  0
  187.3870  179.1920  141.6330 C   0  0  0  0  0  2  0  0  0  0  0  0
  185.6050  178.9130  141.4440 S   0  0  0  0  0  0  0  0  0  0  0  0
  185.7650  178.7090  139.6510 C   0  0  0  0  0  2  0  0  0  0  0  0
  184.3860  178.7100  139.0200 C   0  0  0  0  0  2  0  0  0  0  0  0
  185.8870  176.6400  136.3290 C   0  0  0  0  0  2  0  0  0  0  0  0
  184.3920  177.8880  137.8220 N   0  0  0  0  0  0  0  0  0  0  0  0
  185.7760  177.4660  137.6090 C   0  0  0  0  0  2  0  0  0  0  0  0
  185.0900  174.4860  135.6330 N   0  0  0  0  0  2  0  0  0  0  0  0
  183.5140  175.7970  136.8820 C   0  0  0  0  0  2  0  0  0  0  0  0
  183.6000  176.6920  138.1170 C   0  0  0  0  0  2  0  0  0  0  0  0
  184.8940  175.5170  136.3650 C   0  0  0  0  0  0  0  0  0  0  0  0
  188.9420  176.5850  140.2450 C   0  0  0  0  0  2  0  0  0  0  0  0
  189.7140  176.8790  138.6270 S   0  0  0  0  0  0  0  0  0  0  0  0
  189.2370  178.6280  138.6470 C   0  0  0  0  0  2  0  0  0  0  0  0
  189.0320  179.1100  137.2260 C   0  0  0  0  0  1  0  0  0  0  0  0
  2  6  1  6  0  0  0
  2  5  1  0  0  0  0
  3 31  1  6  0  0  0
  3  1  1  0  0  0  0
  3  4  1  0  0  0  0
  4 17  1  6  0  0  0
  4  2  1  0  0  0  0
  5  1  1  6  0  0  0
  5  9  1  0  0  0  0
  7 15  1  0  0  0  0
  8 10  2  0  0  0  0
  9 12  1  1  0  0  0
  9 13  1  0  0  0  0
 10 14  1  0  0  0  0
 11  8  1  0  0  0  0
 12 16  1  0  0  0  0
 13  7  2  0  0  0  0
 13  8  1  0  0  0  0
 15 14  2  0  0  0  0
 16 11  1  0  0  0  0
 18 17  1  0  0  0  0
 19 18  1  0  0  0  0
 20  1  1  0  0  0  0
 21 20  1  0  0  0  0
 22 21  1  0  0  0  0
 23 22  1  0  0  0  0
 24 30  1  0  0  0  0
 24 26  1  0  0  0  0
 25 29  1  0  0  0  0
 25 23  1  0  0  0  0
 26 25  1  0  0  0  0
 27 30  2  0  0  0  0
 28 29  1  0  0  0  0
 30 28  1  0  0  0  0
 32 33  1  0  0  0  0
 32 31  1  0  0  0  0
 34 33  1  0  0  0  0
M  END
>  <MODEL>
3

>  <REMARK>
 VINA RESULT:      -6.3      2.415      3.566
  Name = 
  11 active torsions:
  status: ('A' for Active; 'I' for Inactive)
    1  A    between atoms: C_3  and  N_13
    2  A    between atoms: C_3  and  C_17
    3  A    between atoms: C_4  and  C_31
    4  A    between atoms: N_5  and  C_18
    5  A    between atoms: C_7  and  O_8
    6  A    between atoms: O_8  and  C_28
    7  A    between atoms: C_12  and  S_16
    8  A    between atoms: S_16  and  C_23
    9  A    between atoms: C_17  and  S_29
   10  A    between atoms: C_18  and  S_29
   11  A    between atoms: C_23  and  C_26
                            x       y       z     vdW  Elec       q    Type
                         _______ _______ _______ _____ _____    ______ ____

>  <TORSDO>
F 11

$$$$
=
 OpenBabel10272400073D

 34 37  0  0  1  0  0  0  0  0999 V2000
  186.8600  177.8680  139.2600 N   0  0  0  0  0  0  0  0  0  0  0  0
  188.8490  178.3660  137.9730 C   0  0  2  0  0  3  0  0  0  0  0  0
  186.5100  177.8950  137.8430 C   0  0  1  0  0  3  0  0  0  0  0  0
  187.7940  177.8000  137.0490 C   0  0  1  0  0  3  0  0  0  0  0  0
  188.3030  178.1050  139.3670 C   0  0  2  0  0  3  0  0  0  0  0  0
  188.9840  179.7450  137.7930 O   0  0  0  0  0  1  0  0  0  0  0  0
  190.8380  176.3230  138.4130 C   0  0  0  0  0  3  0  0  0  0  0  0
  191.4650  177.3250  140.5380 C   0  0  0  0  0  0  0  0  0  0  0  0
  188.9990  176.8990  140.0270 C   0  0  2  0  0  3  0  0  0  0  0  0
  192.8070  177.2860  140.1470 C   0  0  0  0  0  3  0  0  0  0  0  0
  191.1460  177.7570  141.9430 C   0  0  0  0  0  2  0  0  0  0  0  0
  188.8220  176.9270  141.5510 C   0  0  0  0  0  2  0  0  0  0  0  0
  190.4650  176.8360  139.6630 C   0  0  0  0  0  0  0  0  0  0  0  0
  193.1640  176.7840  138.8930 C   0  0  0  0  0  3  0  0  0  0  0  0
  192.1800  176.3000  138.0280 C   0  0  0  0  0  3  0  0  0  0  0  0
  189.6630  178.0460  142.1530 C   0  0  0  0  0  2  0  0  0  0  0  0
  187.6970  178.5300  135.8590 O   0  0  0  0  0  0  0  0  0  0  0  0
  187.7760  177.5740  134.8470 C   0  0  0  0  0  2  0  0  0  0  0  0
  189.5160  177.1640  134.5390 S   0  0  0  0  0  1  0  0  0  0  0  0
  186.1970  179.0010  139.8850 C   0  0  0  0  0  2  0  0  0  0  0  0
  184.8070  178.4100  140.8890 S   0  0  0  0  0  0  0  0  0  0  0  0
  185.5520  179.0550  142.4100 C   0  0  0  0  0  2  0  0  0  0  0  0
  185.3090  178.0780  143.5430 C   0  0  0  0  0  2  0  0  0  0  0  0
  186.0840  178.8360  147.0920 C   0  0  0  0  0  2  0  0  0  0  0  0
  186.1540  178.4160  144.6760 N   0  0  0  0  0  0  0  0  0  0  0  0
  185.2880  178.4290  145.8540 C   0  0  0  0  0  2  0  0  0  0  0  0
  187.8580  177.8380  148.3650 N   0  0  0  0  0  2  0  0  0  0  0  0
  188.0770  177.6320  145.9840 C   0  0  0  0  0  2  0  0  0  0  0  0
  187.1140  177.3240  144.8380 C   0  0  0  0  0  2  0  0  0  0  0  0
  187.2980  177.9640  147.2220 C   0  0  0  0  0  0  0  0  0  0  0  0
  185.6000  176.7210  137.5210 C   0  0  0  0  0  2  0  0  0  0  0  0
  183.8880  177.2900  137.3090 S   0  0  0  0  0  0  0  0  0  0  0  0
  183.2380  175.8830  138.2490 C   0  0  0  0  0  2  0  0  0  0  0  0
  182.1010  176.3500  139.1330 C   0  0  0  0  0  1  0  0  0  0  0  0
  1 20  1  0  0  0  0
  2  6  1  6  0  0  0
  2  5  1  0  0  0  0
  3 31  1  6  0  0  0
  3  1  1  0  0  0  0
  4 17  1  6  0  0  0
  4  3  1  0  0  0  0
  4  2  1  0  0  0  0
  5  1  1  6  0  0  0
  5  9  1  0  0  0  0
  7 13  1  0  0  0  0
  8 11  1  0  0  0  0
  9 12  1  1  0  0  0
 10  8  1  0  0  0  0
 11 16  1  0  0  0  0
 12 16  1  0  0  0  0
 13  9  1  0  0  0  0
 13  8  2  0  0  0  0
 14 10  2  0  0  0  0
 15  7  2  0  0  0  0
 15 14  1  0  0  0  0
 18 17  1  0  0  0  0
 19 18  1  0  0  0  0
 20 21  1  0  0  0  0
 21 22  1  0  0  0  0
 22 23  1  0  0  0  0
 23 25  1  0  0  0  0
 24 30  1  0  0  0  0
 25 29  1  0  0  0  0
 25 26  1  0  0  0  0
 26 24  1  0  0  0  0
 28 30  1  0  0  0  0
 29 28  1  0  0  0  0
 30 27  2  0  0  0  0
 32 31  1  0  0  0  0
 32 33  1  0  0  0  0
 33 34  1  0  0  0  0
M  END
>  <MODEL>
4

>  <REMARK>
 VINA RESULT:      -6.2      2.900      5.869
  Name = 
  11 active torsions:
  status: ('A' for Active; 'I' for Inactive)
    1  A    between atoms: C_3  and  N_13
    2  A    between atoms: C_3  and  C_17
    3  A    between atoms: C_4  and  C_31
    4  A    between atoms: N_5  and  C_18
    5  A    between atoms: C_7  and  O_8
    6  A    between atoms: O_8  and  C_28
    7  A    between atoms: C_12  and  S_16
    8  A    between atoms: S_16  and  C_23
    9  A    between atoms: C_17  and  S_29
   10  A    between atoms: C_18  and  S_29
   11  A    between atoms: C_23  and  C_26
                            x       y       z     vdW  Elec       q    Type
                         _______ _______ _______ _____ _____    ______ ____

>  <TORSDO>
F 11

$$$$
=
 OpenBabel10272400073D

 34 37  0  0  1  0  0  0  0  0999 V2000
  191.1120  176.2380  137.6660 N   0  0  0  0  0  0  0  0  0  0  0  0
  189.9740  174.4280  136.5320 C   0  0  2  0  0  3  0  0  0  0  0  0
  192.1090  175.3020  137.1550 C   0  0  1  0  0  3  0  0  0  0  0  0
  191.4320  174.4230  136.1270 C   0  0  1  0  0  3  0  0  0  0  0  0
  189.7920  175.7520  137.2540 C   0  0  2  0  0  3  0  0  0  0  0  0
  189.6990  173.3870  137.4230 O   0  0  0  0  0  1  0  0  0  0  0  0
  187.3530  175.4430  135.1410 C   0  0  0  0  0  3  0  0  0  0  0  0
  186.5930  177.0070  136.8400 C   0  0  0  0  0  0  0  0  0  0  0  0
  189.0920  176.7910  136.3560 C   0  0  2  0  0  3  0  0  0  0  0  0
  185.2740  176.6080  136.6010 C   0  0  0  0  0  3  0  0  0  0  0  0
  186.8280  178.1570  137.7800 C   0  0  0  0  0  2  0  0  0  0  0  0
  189.1890  178.1970  136.9620 C   0  0  0  0  0  2  0  0  0  0  0  0
  187.6480  176.4210  136.1010 C   0  0  0  0  0  0  0  0  0  0  0  0
  184.9950  175.6230  135.6500 C   0  0  0  0  0  3  0  0  0  0  0  0
  186.0330  175.0430  134.9180 C   0  0  0  0  0  3  0  0  0  0  0  0
  188.2910  178.3000  138.1890 C   0  0  0  0  0  2  0  0  0  0  0  0
  191.9730  173.1330  136.1440 O   0  0  0  0  0  0  0  0  0  0  0  0
  192.0470  172.7600  134.8020 C   0  0  0  0  0  2  0  0  0  0  0  0
  192.6480  171.0530  134.6830 S   0  0  0  0  0  1  0  0  0  0  0  0
  191.1580  176.1620  139.1180 C   0  0  0  0  0  2  0  0  0  0  0  0
  192.2840  177.4330  139.7550 S   0  0  0  0  0  0  0  0  0  0  0  0
  191.5410  177.3490  141.4060 C   0  0  0  0  0  2  0  0  0  0  0  0
  190.0990  176.8970  141.2860 C   0  0  0  0  0  2  0  0  0  0  0  0
  189.8190  177.2640  144.9680 C   0  0  0  0  0  2  0  0  0  0  0  0
  189.5470  176.6530  142.6080 N   0  0  0  0  0  0  0  0  0  0  0  0
  190.2950  177.5000  143.5360 C   0  0  0  0  0  2  0  0  0  0  0  0
  187.7820  177.6940  146.1650 N   0  0  0  0  0  2  0  0  0  0  0  0
  187.4920  176.8550  143.9350 C   0  0  0  0  0  2  0  0  0  0  0  0
  188.1620  177.1260  142.5880 C   0  0  0  0  0  2  0  0  0  0  0  0
  188.3290  177.4290  145.0390 C   0  0  0  0  0  0  0  0  0  0  0  0
  193.2530  176.0740  136.5200 C   0  0  0  0  0  2  0  0  0  0  0  0
  194.7590  175.0570  136.4900 S   0  0  0  0  0  0  0  0  0  0  0  0
  194.5780  174.6260  138.2420 C   0  0  0  0  0  2  0  0  0  0  0  0
  195.4000  173.3900  138.5420 C   0  0  0  0  0  1  0  0  0  0  0  0
  1 20  1  0  0  0  0
  2  5  1  0  0  0  0
  2  6  1  1  0  0  0
  3 31  1  6  0  0  0
  3  1  1  0  0  0  0
  4 17  1  1  0  0  0
  4  2  1  0  0  0  0
  4  3  1  0  0  0  0
  5  1  1  6  0  0  0
  7 13  1  0  0  0  0
  8 11  1  0  0  0  0
  9 12  1  1  0  0  0
  9  5  1  0  0  0  0
 10  8  1  0  0  0  0
 11 16  1  0  0  0  0
 12 16  1  0  0  0  0
 13  9  1  0  0  0  0
 13  8  2  0  0  0  0
 14 10  2  0  0  0  0
 15  7  2  0  0  0  0
 15 14  1  0  0  0  0
 18 17  1  0  0  0  0
 19 18  1  0  0  0  0
 20 21  1  0  0  0  0
 21 22  1  0  0  0  0
 23 22  1  0  0  0  0
 23 25  1  0  0  0  0
 24 30  1  0  0  0  0
 25 26  1  0  0  0  0
 26 24  1  0  0  0  0
 28 30  1  0  0  0  0
 29 25  1  0  0  0  0
 29 28  1  0  0  0  0
 30 27  2  0  0  0  0
 32 31  1  0  0  0  0
 32 33  1  0  0  0  0
 33 34  1  0  0  0  0
M  END
>  <MODEL>
5

>  <REMARK>
 VINA RESULT:      -5.7      3.993      7.890
  Name = 
  11 active torsions:
  status: ('A' for Active; 'I' for Inactive)
    1  A    between atoms: C_3  and  N_13
    2  A    between atoms: C_3  and  C_17
    3  A    between atoms: C_4  and  C_31
    4  A    between atoms: N_5  and  C_18
    5  A    between atoms: C_7  and  O_8
    6  A    between atoms: O_8  and  C_28
    7  A    between atoms: C_12  and  S_16
    8  A    between atoms: S_16  and  C_23
    9  A    between atoms: C_17  and  S_29
   10  A    between atoms: C_18  and  S_29
   11  A    between atoms: C_23  and  C_26
                            x       y       z     vdW  Elec       q    Type
                         _______ _______ _______ _____ _____    ______ ____

>  <TORSDO>
F 11

$$$$
=
 OpenBabel10272400073D

 34 37  0  0  1  0  0  0  0  0999 V2000
  189.6730  177.6530  142.0380 N   0  0  0  0  0  0  0  0  0  0  0  0
  187.8190  177.1100  143.4960 C   0  0  2  0  0  3  0  0  0  0  0  0
  188.4240  177.8970  141.3220 C   0  0  1  0  0  3  0  0  0  0  0  0
  187.3100  177.9480  142.3440 C   0  0  1  0  0  3  0  0  0  0  0  0
  189.3310  177.2170  143.3950 C   0  0  2  0  0  3  0  0  0  0  0  0
  187.4500  175.7720  143.3430 O   0  0  0  0  0  1  0  0  0  0  0  0
  188.0470  178.4000  146.1270 C   0  0  0  0  0  3  0  0  0  0  0  0
  190.0570  177.1980  146.7790 C   0  0  0  0  0  0  0  0  0  0  0  0
  189.8970  178.2020  144.4360 C   0  0  2  0  0  3  0  0  0  0  0  0
  189.4840  176.9420  148.0290 C   0  0  0  0  0  3  0  0  0  0  0  0
  191.4900  176.7970  146.5580 C   0  0  0  0  0  2  0  0  0  0  0  0
  191.4310  178.1560  144.4630 C   0  0  0  0  0  2  0  0  0  0  0  0
  189.3340  177.9390  145.8140 C   0  0  0  0  0  0  0  0  0  0  0  0
  188.1960  177.3970  148.3230 C   0  0  0  0  0  3  0  0  0  0  0  0
  187.4800  178.1290  147.3730 C   0  0  0  0  0  3  0  0  0  0  0  0
  191.9020  176.8500  145.0900 C   0  0  0  0  0  2  0  0  0  0  0  0
  186.1240  177.4340  141.8110 O   0  0  0  0  0  0  0  0  0  0  0  0
  185.1680  178.4230  142.0460 C   0  0  0  0  0  2  0  0  0  0  0  0
  184.3770  178.8810  140.4810 S   0  0  0  0  0  1  0  0  0  0  0  0
  190.3280  176.5320  141.3840 C   0  0  0  0  0  2  0  0  0  0  0  0
  191.9020  177.0830  140.6700 S   0  0  0  0  0  0  0  0  0  0  0  0
  191.5130  176.3220  139.0720 C   0  0  0  0  0  2  0  0  0  0  0  0
  192.6620  176.5550  138.1110 C   0  0  0  0  0  2  0  0  0  0  0  0
  194.0220  173.6710  136.2110 C   0  0  0  0  0  2  0  0  0  0  0  0
  192.6700  175.5200  137.0910 N   0  0  0  0  0  0  0  0  0  0  0  0
  193.9000  174.7520  137.2840 C   0  0  0  0  0  2  0  0  0  0  0  0
  192.8120  171.6660  135.6860 N   0  0  0  0  0  2  0  0  0  0  0  0
  191.4480  173.5420  136.3040 C   0  0  0  0  0  2  0  0  0  0  0  0
  191.5400  174.6330  137.3700 C   0  0  0  0  0  2  0  0  0  0  0  0
  192.7700  172.8450  136.1820 C   0  0  0  0  0  0  0  0  0  0  0  0
  188.5160  179.2150  140.5720 C   0  0  0  0  0  2  0  0  0  0  0  0
  188.9710  178.9230  138.8380 S   0  0  0  0  0  0  0  0  0  0  0  0
  187.7070  177.6360  138.6570 C   0  0  0  0  0  2  0  0  0  0  0  0
  186.7230  178.0460  137.5810 C   0  0  0  0  0  1  0  0  0  0  0  0
  2  6  1  6  0  0  0
  3 31  1  1  0  0  0
  3  1  1  0  0  0  0
  3  4  1  0  0  0  0
  4 17  1  6  0  0  0
  4  2  1  0  0  0  0
  5  1  1  6  0  0  0
  5  2  1  0  0  0  0
  5  9  1  0  0  0  0
  7 15  1  0  0  0  0
  8 10  2  0  0  0  0
  9 12  1  1  0  0  0
  9 13  1  0  0  0  0
 10 14  1  0  0  0  0
 11  8  1  0  0  0  0
 12 16  1  0  0  0  0
 13  7  2  0  0  0  0
 13  8  1  0  0  0  0
 15 14  2  0  0  0  0
 16 11  1  0  0  0  0
 17 18  1  0  0  0  0
 19 18  1  0  0  0  0
 20  1  1  0  0  0  0
 21 20  1  0  0  0  0
 22 21  1  0  0  0  0
 23 22  1  0  0  0  0
 24 26  1  0  0  0  0
 25 26  1  0  0  0  0
 25 29  1  0  0  0  0
 25 23  1  0  0  0  0
 27 30  2  0  0  0  0
 28 29  1  0  0  0  0
 30 24  1  0  0  0  0
 30 28  1  0  0  0  0
 32 31  1  0  0  0  0
 33 32  1  0  0  0  0
 34 33  1  0  0  0  0
M  END
>  <MODEL>
6

>  <REMARK>
 VINA RESULT:      -5.7      3.212      7.454
  Name = 
  11 active torsions:
  status: ('A' for Active; 'I' for Inactive)
    1  A    between atoms: C_3  and  N_13
    2  A    between atoms: C_3  and  C_17
    3  A    between atoms: C_4  and  C_31
    4  A    between atoms: N_5  and  C_18
    5  A    between atoms: C_7  and  O_8
    6  A    between atoms: O_8  and  C_28
    7  A    between atoms: C_12  and  S_16
    8  A    between atoms: S_16  and  C_23
    9  A    between atoms: C_17  and  S_29
   10  A    between atoms: C_18  and  S_29
   11  A    between atoms: C_23  and  C_26
                            x       y       z     vdW  Elec       q    Type
                         _______ _______ _______ _____ _____    ______ ____

>  <TORSDO>
F 11

$$$$
=
 OpenBabel10272400073D

 34 37  0  0  1  0  0  0  0  0999 V2000
  188.3780  177.5030  143.4630 N   0  0  0  0  0  0  0  0  0  0  0  0
  190.3810  176.2400  142.9640 C   0  0  2  0  0  3  0  0  0  0  0  0
  189.0630  177.1930  144.7150 C   0  0  1  0  0  3  0  0  0  0  0  0
  190.4770  176.7780  144.3750 C   0  0  1  0  0  3  0  0  0  0  0  0
  189.1920  176.9720  142.3660 C   0  0  2  0  0  3  0  0  0  0  0  0
  190.1110  174.8700  142.9680 O   0  0  0  0  0  1  0  0  0  0  0  0
  191.9610  177.4210  140.7400 C   0  0  0  0  0  3  0  0  0  0  0  0
  190.1960  177.3080  139.0710 C   0  0  0  0  0  0  0  0  0  0  0  0
  189.6450  178.1120  141.4320 C   0  0  2  0  0  3  0  0  0  0  0  0
  191.1210  176.8160  138.1440 C   0  0  0  0  0  3  0  0  0  0  0  0
  188.8080  177.6280  138.5890 C   0  0  0  0  0  2  0  0  0  0  0  0
  188.4400  178.7920  140.7690 C   0  0  0  0  0  2  0  0  0  0  0  0
  190.6190  177.6180  140.3850 C   0  0  0  0  0  0  0  0  0  0  0  0
  192.4530  176.6130  138.5130 C   0  0  0  0  0  3  0  0  0  0  0  0
  192.8730  176.9180  139.8100 C   0  0  0  0  0  3  0  0  0  0  0  0
  187.8230  177.8640  139.7300 C   0  0  0  0  0  2  0  0  0  0  0  0
  190.9380  175.8080  145.2720 O   0  0  0  0  0  0  0  0  0  0  0  0
  191.9830  176.4260  145.9590 C   0  0  0  0  0  2  0  0  0  0  0  0
  192.1430  175.6830  147.6060 S   0  0  0  0  0  1  0  0  0  0  0  0
  187.1290  176.7570  143.4640 C   0  0  0  0  0  2  0  0  0  0  0  0
  185.7850  177.8290  144.0400 S   0  0  0  0  0  0  0  0  0  0  0  0
  185.3810  178.3360  142.3470 C   0  0  0  0  0  2  0  0  0  0  0  0
  183.8850  178.5480  142.2280 C   0  0  0  0  0  2  0  0  0  0  0  0
  181.4570  178.1370  139.4520 C   0  0  0  0  0  2  0  0  0  0  0  0
  183.4330  178.1480  140.9070 N   0  0  0  0  0  0  0  0  0  0  0  0
  182.0370  178.5710  140.7960 C   0  0  0  0  0  2  0  0  0  0  0  0
  181.8570  178.7420  137.1630 N   0  0  0  0  0  2  0  0  0  0  0  0
  183.8290  178.5120  138.5120 C   0  0  0  0  0  2  0  0  0  0  0  0
  184.2120  178.9170  139.9350 C   0  0  0  0  0  2  0  0  0  0  0  0
  182.3430  178.6180  138.3400 C   0  0  0  0  0  0  0  0  0  0  0  0
  189.0720  178.4220  145.6070 C   0  0  0  0  0  2  0  0  0  0  0  0
  189.0610  177.9310  147.3560 S   0  0  0  0  0  0  0  0  0  0  0  0
  187.2690  177.6580  147.3330 C   0  0  0  0  0  2  0  0  0  0  0  0
  186.5560  178.9880  147.4620 C   0  0  0  0  0  1  0  0  0  0  0  0
  1 20  1  0  0  0  0
  1  3  1  0  0  0  0
  2  6  1  1  0  0  0
  2  4  1  0  0  0  0
  3 31  1  1  0  0  0
  4  3  1  0  0  0  0
  4 17  1  1  0  0  0
  5  2  1  0  0  0  0
  5  1  1  1  0  0  0
  8 13  2  0  0  0  0
  9 12  1  6  0  0  0
  9  5  1  0  0  0  0
 10 14  2  0  0  0  0
 10  8  1  0  0  0  0
 11  8  1  0  0  0  0
 11 16  1  0  0  0  0
 13  7  1  0  0  0  0
 13  9  1  0  0  0  0
 14 15  1  0  0  0  0
 15  7  2  0  0  0  0
 16 12  1  0  0  0  0
 17 18  1  0  0  0  0
 18 19  1  0  0  0  0
 20 21  1  0  0  0  0
 22 21  1  0  0  0  0
 23 22  1  0  0  0  0
 24 26  1  0  0  0  0
 25 23  1  0  0  0  0
 26 25  1  0  0  0  0
 27 30  2  0  0  0  0
 28 29  1  0  0  0  0
 29 25  1  0  0  0  0
 30 28  1  0  0  0  0
 30 24  1  0  0  0  0
 31 32  1  0  0  0  0
 33 32  1  0  0  0  0
 33 34  1  0  0  0  0
M  END
>  <MODEL>
7

>  <REMARK>
 VINA RESULT:      -5.6      2.845      5.892
  Name = 
  11 active torsions:
  status: ('A' for Active; 'I' for Inactive)
    1  A    between atoms: C_3  and  N_13
    2  A    between atoms: C_3  and  C_17
    3  A    between atoms: C_4  and  C_31
    4  A    between atoms: N_5  and  C_18
    5  A    between atoms: C_7  and  O_8
    6  A    between atoms: O_8  and  C_28
    7  A    between atoms: C_12  and  S_16
    8  A    between atoms: S_16  and  C_23
    9  A    between atoms: C_17  and  S_29
   10  A    between atoms: C_18  and  S_29
   11  A    between atoms: C_23  and  C_26
                            x       y       z     vdW  Elec       q    Type
                         _______ _______ _______ _____ _____    ______ ____

>  <TORSDO>
F 11

$$$$
=
 OpenBabel10272400073D

 34 37  0  0  1  0  0  0  0  0999 V2000
  182.7330  177.8040  137.8340 N   0  0  0  0  0  0  0  0  0  0  0  0
  183.0210  179.7810  139.2000 C   0  0  2  0  0  3  0  0  0  0  0  0
  183.2310  177.4010  139.1460 C   0  0  1  0  0  3  0  0  0  0  0  0
  183.0210  178.5610  140.0940 C   0  0  1  0  0  3  0  0  0  0  0  0
  182.5470  179.2580  137.8550 C   0  0  2  0  0  3  0  0  0  0  0  0
  184.3120  180.2950  139.0540 O   0  0  0  0  0  1  0  0  0  0  0  0
  180.9980  182.1050  137.9360 C   0  0  0  0  0  3  0  0  0  0  0  0
  180.7540  181.2560  135.6710 C   0  0  0  0  0  0  0  0  0  0  0  0
  181.0690  179.6140  137.6020 C   0  0  2  0  0  3  0  0  0  0  0  0
  180.6620  182.5700  135.2010 C   0  0  0  0  0  3  0  0  0  0  0  0
  180.5240  180.1350  134.6950 C   0  0  0  0  0  2  0  0  0  0  0  0
  180.4090  178.5970  136.6620 C   0  0  0  0  0  2  0  0  0  0  0  0
  180.9210  181.0170  137.0560 C   0  0  0  0  0  0  0  0  0  0  0  0
  180.7520  183.6460  136.0880 C   0  0  0  0  0  3  0  0  0  0  0  0
  180.9170  183.4140  137.4550 C   0  0  0  0  0  3  0  0  0  0  0  0
  180.9430  178.7750  135.2460 C   0  0  0  0  0  2  0  0  0  0  0  0
  184.0440  178.6140  141.0480 O   0  0  0  0  0  0  0  0  0  0  0  0
  183.3850  178.6340  142.2770 C   0  0  0  0  0  2  0  0  0  0  0  0
  184.5180  179.2390  143.5570 S   0  0  0  0  0  1  0  0  0  0  0  0
  183.7880  177.5250  136.8730 C   0  0  0  0  0  2  0  0  0  0  0  0
  183.6180  175.8260  136.2630 S   0  0  0  0  0  0  0  0  0  0  0  0
  185.3760  175.7390  135.8350 C   0  0  0  0  0  2  0  0  0  0  0  0
  185.9180  177.1420  135.6450 C   0  0  0  0  0  2  0  0  0  0  0  0
  188.7990  178.7920  137.3030 C   0  0  0  0  0  2  0  0  0  0  0  0
  187.2570  177.2340  136.2010 N   0  0  0  0  0  0  0  0  0  0  0  0
  187.3920  178.5840  136.7460 C   0  0  0  0  0  2  0  0  0  0  0  0
  190.0360  177.8860  139.1500 N   0  0  0  0  0  2  0  0  0  0  0  0
  188.7250  176.2910  137.9270 C   0  0  0  0  0  2  0  0  0  0  0  0
  187.3230  176.2910  137.3190 C   0  0  0  0  0  2  0  0  0  0  0  0
  189.1250  177.6940  138.2730 C   0  0  0  0  0  0  0  0  0  0  0  0
  182.4680  176.1790  139.6280 C   0  0  0  0  0  2  0  0  0  0  0  0
  180.7420  176.6160  139.9880 S   0  0  0  0  0  0  0  0  0  0  0  0
  180.1540  174.9820  139.4670 C   0  0  0  0  0  2  0  0  0  0  0  0
  180.2640  174.8640  137.9610 C   0  0  0  0  0  1  0  0  0  0  0  0
  1  3  1  0  0  0  0
  2  6  1  6  0  0  0
  2  4  1  0  0  0  0
  3 31  1  1  0  0  0
  3  4  1  0  0  0  0
  4 17  1  1  0  0  0
  5  1  1  1  0  0  0
  5  2  1  0  0  0  0
  8 13  1  0  0  0  0
  9 12  1  6  0  0  0
  9  5  1  0  0  0  0
 10  8  2  0  0  0  0
 10 14  1  0  0  0  0
 11 16  1  0  0  0  0
 11  8  1  0  0  0  0
 13  9  1  0  0  0  0
 13  7  2  0  0  0  0
 14 15  2  0  0  0  0
 15  7  1  0  0  0  0
 16 12  1  0  0  0  0
 17 18  1  0  0  0  0
 18 19  1  0  0  0  0
 20  1  1  0  0  0  0
 21 20  1  0  0  0  0
 22 21  1  0  0  0  0
 23 22  1  0  0  0  0
 23 25  1  0  0  0  0
 24 30  1  0  0  0  0
 25 26  1  0  0  0  0
 25 29  1  0  0  0  0
 26 24  1  0  0  0  0
 28 30  1  0  0  0  0
 29 28  1  0  0  0  0
 30 27  2  0  0  0  0
 31 32  1  0  0  0  0
 33 32  1  0  0  0  0
 34 33  1  0  0  0  0
M  END
>  <MODEL>
8

>  <REMARK>
 VINA RESULT:      -5.6      5.209      9.849
  Name = 
  11 active torsions:
  status: ('A' for Active; 'I' for Inactive)
    1  A    between atoms: C_3  and  N_13
    2  A    between atoms: C_3  and  C_17
    3  A    between atoms: C_4  and  C_31
    4  A    between atoms: N_5  and  C_18
    5  A    between atoms: C_7  and  O_8
    6  A    between atoms: O_8  and  C_28
    7  A    between atoms: C_12  and  S_16
    8  A    between atoms: S_16  and  C_23
    9  A    between atoms: C_17  and  S_29
   10  A    between atoms: C_18  and  S_29
   11  A    between atoms: C_23  and  C_26
                            x       y       z     vdW  Elec       q    Type
                         _______ _______ _______ _____ _____    ______ ____

>  <TORSDO>
F 11

$$$$
=
 OpenBabel10272400073D

 34 37  0  0  1  0  0  0  0  0999 V2000
  188.6360  177.4030  140.4790 N   0  0  0  0  0  0  0  0  0  0  0  0
  190.9410  177.1840  141.1860 C   0  0  2  0  0  3  0  0  0  0  0  0
  189.4550  177.0660  139.3190 C   0  0  1  0  0  3  0  0  0  0  0  0
  190.7800  176.5420  139.8260 C   0  0  1  0  0  3  0  0  0  0  0  0
  189.5160  177.4330  141.6520 C   0  0  2  0  0  3  0  0  0  0  0  0
  191.6030  178.4100  141.0870 O   0  0  0  0  0  1  0  0  0  0  0  0
  191.1730  175.8960  143.9760 C   0  0  0  0  0  3  0  0  0  0  0  0
  189.4150  177.1460  145.0990 C   0  0  0  0  0  0  0  0  0  0  0  0
  189.0700  176.3820  142.6870 C   0  0  2  0  0  3  0  0  0  0  0  0
  190.2230  177.2350  146.2380 C   0  0  0  0  0  3  0  0  0  0  0  0
  188.0030  177.6550  145.1880 C   0  0  0  0  0  2  0  0  0  0  0  0
  187.5760  176.5190  143.0030 C   0  0  0  0  0  2  0  0  0  0  0  0
  189.8920  176.4660  143.9530 C   0  0  0  0  0  0  0  0  0  0  0  0
  191.5020  176.6740  146.2430 C   0  0  0  0  0  3  0  0  0  0  0  0
  191.9760  176.0010  145.1140 C   0  0  0  0  0  3  0  0  0  0  0  0
  187.3310  177.7800  143.8240 C   0  0  0  0  0  2  0  0  0  0  0  0
  191.8180  176.8960  138.9570 O   0  0  0  0  0  0  0  0  0  0  0  0
  192.0030  175.7760  138.1470 C   0  0  0  0  0  2  0  0  0  0  0  0
  193.7070  175.7550  137.5260 S   0  0  0  0  0  1  0  0  0  0  0  0
  188.1500  178.7590  140.2800 C   0  0  0  0  0  2  0  0  0  0  0  0
  186.6440  178.7190  139.2710 S   0  0  0  0  0  0  0  0  0  0  0  0
  185.5850  178.8200  140.7380 C   0  0  0  0  0  2  0  0  0  0  0  0
  184.1860  178.3580  140.3810 C   0  0  0  0  0  2  0  0  0  0  0  0
  180.8360  178.9460  141.8670 C   0  0  0  0  0  2  0  0  0  0  0  0
  183.2260  178.9230  141.3150 N   0  0  0  0  0  0  0  0  0  0  0  0
  181.9220  178.3580  140.9680 C   0  0  0  0  0  2  0  0  0  0  0  0
  180.3150  178.8010  144.2060 N   0  0  0  0  0  2  0  0  0  0  0  0
  182.6490  179.0320  143.6980 C   0  0  0  0  0  2  0  0  0  0  0  0
  183.5850  178.4360  142.6470 C   0  0  0  0  0  2  0  0  0  0  0  0
  181.2240  178.7770  143.3060 C   0  0  0  0  0  0  0  0  0  0  0  0
  188.7490  176.0070  138.4890 C   0  0  0  0  0  2  0  0  0  0  0  0
  188.5040  176.5970  136.7890 S   0  0  0  0  0  0  0  0  0  0  0  0
  187.4710  175.1660  136.3740 C   0  0  0  0  0  2  0  0  0  0  0  0
  186.0590  175.4060  136.8670 C   0  0  0  0  0  1  0  0  0  0  0  0
  2  6  1  6  0  0  0
  2  5  1  0  0  0  0
  3 31  1  1  0  0  0
  3  4  1  0  0  0  0
  3  1  1  0  0  0  0
  4 17  1  6  0  0  0
  4  2  1  0  0  0  0
  5  1  1  6  0  0  0
  5  9  1  0  0  0  0
  7 15  1  0  0  0  0
  8 11  1  0  0  0  0
  8 10  2  0  0  0  0
  9 12  1  1  0  0  0
  9 13  1  0  0  0  0
 10 14  1  0  0  0  0
 12 16  1  0  0  0  0
 13  7  2  0  0  0  0
 13  8  1  0  0  0  0
 15 14  2  0  0  0  0
 16 11  1  0  0  0  0
 18 17  1  0  0  0  0
 19 18  1  0  0  0  0
 20  1  1  0  0  0  0
 21 20  1  0  0  0  0
 21 22  1  0  0  0  0
 23 22  1  0  0  0  0
 23 25  1  0  0  0  0
 24 30  1  0  0  0  0
 25 29  1  0  0  0  0
 26 25  1  0  0  0  0
 26 24  1  0  0  0  0
 29 28  1  0  0  0  0
 30 28  1  0  0  0  0
 30 27  2  0  0  0  0
 32 31  1  0  0  0  0
 33 32  1  0  0  0  0
 33 34  1  0  0  0  0
M  END
>  <MODEL>
9

>  <REMARK>
 VINA RESULT:      -5.6      1.241      1.800
  Name = 
  11 active torsions:
  status: ('A' for Active; 'I' for Inactive)
    1  A    between atoms: C_3  and  N_13
    2  A    between atoms: C_3  and  C_17
    3  A    between atoms: C_4  and  C_31
    4  A    between atoms: N_5  and  C_18
    5  A    between atoms: C_7  and  O_8
    6  A    between atoms: O_8  and  C_28
    7  A    between atoms: C_12  and  S_16
    8  A    between atoms: S_16  and  C_23
    9  A    between atoms: C_17  and  S_29
   10  A    between atoms: C_18  and  S_29
   11  A    between atoms: C_23  and  C_26
                            x       y       z     vdW  Elec       q    Type
                         _______ _______ _______ _____ _____    ______ ____

>  <TORSDO>
F 11

$$$$
