=
 OpenBabel10272413123D

 32 36  0  0  0  0  0  0  0  0999 V2000
  186.1780  178.1730  144.3600 C   0  0  0  0  0  0  0  0  0  0  0  0
  186.5810  178.3120  141.5750 C   0  0  0  0  0  0  0  0  0  0  0  0
  185.9910  178.0720  145.7460 C   0  0  0  0  0  3  0  0  0  0  0  0
  185.0870  178.5530  143.5210 C   0  0  0  0  0  0  0  0  0  0  0  0
  184.2780  178.9920  141.2170 C   0  0  0  0  0  3  0  0  0  0  0  0
  188.1760  178.6970  138.2120 N   0  0  0  0  0  2  0  0  0  0  0  0
  185.3020  178.6230  142.1120 C   0  0  0  0  0  0  0  0  0  0  0  0
  186.0160  178.7710  137.9620 O   0  0  0  0  0  0  0  0  0  0  0  0
  185.7520  178.7280  139.3320 C   0  0  0  0  0  0  0  0  0  0  0  0
  183.8280  178.8380  144.1310 C   0  0  0  0  0  0  0  0  0  0  0  0
  184.4970  179.0470  139.8400 C   0  0  0  0  0  3  0  0  0  0  0  0
  183.6910  178.7300  145.5240 C   0  0  0  0  0  3  0  0  0  0  0  0
  187.6240  177.9500  142.4260 C   0  0  0  0  0  3  0  0  0  0  0  0
  187.4430  177.8870  143.8040 C   0  0  0  0  0  0  0  0  0  0  0  0
  186.7960  178.3790  140.1850 C   0  0  0  0  0  0  0  0  0  0  0  0
  184.7600  178.3480  146.3250 C   0  0  0  0  0  3  0  0  0  0  0  0
  187.1410  178.2040  137.4700 O   0  0  0  0  0  0  0  0  0  0  0  0
  188.1210  178.0770  139.5410 C   0  0  0  0  0  2  0  0  0  0  0  0
  190.7820  176.4660  144.9280 C   0  0  0  0  0  0  0  0  0  0  0  0
  191.8790  175.7820  144.4180 O   0  0  0  0  0  1  0  0  0  0  0  0
  188.6020  177.5020  144.6360 C   0  0  0  0  0  0  0  0  0  0  0  0
  190.7590  176.8070  146.2820 C   0  0  0  0  0  3  0  0  0  0  0  0
  188.5890  177.8300  145.9970 C   0  0  0  0  0  3  0  0  0  0  0  0
  189.7040  176.8050  144.0970 C   0  0  0  0  0  0  0  0  0  0  0  0
  189.7340  176.3190  142.4020 Cl  0  0  0  0  0  0  0  0  0  0  0  0
  189.6610  177.4900  146.8260 C   0  0  0  0  0  0  0  0  0  0  0  0
  188.3880  178.0720  148.8640 C   0  0  0  0  0  1  0  0  0  0  0  0
  189.6100  177.8400  148.1770 O   0  0  0  0  0  0  0  0  0  0  0  0
  182.7220  179.2240  143.3620 O   0  0  0  0  0  0  0  0  0  0  0  0
  181.3980  178.7740  143.6200 C   0  0  0  0  0  2  0  0  0  0  0  0
  180.4540  179.4640  142.6970 C   0  0  0  0  0  3  0  0  0  0  0  0
  180.1590  180.6310  142.8900 O   0  0  0  0  0  0  0  0  0  0  0  0
  1  3  2  0  0  0  0
  2  7  1  0  0  0  0
  2 13  1  0  0  0  0
  3 16  1  0  0  0  0
  4 10  2  0  0  0  0
  4  1  1  0  0  0  0
  5  7  2  0  0  0  0
  6 18  1  0  0  0  0
  7  4  1  0  0  0  0
  8  9  1  0  0  0  0
  9 11  2  0  0  0  0
  9 15  1  0  0  0  0
 10 12  1  0  0  0  0
 11  5  1  0  0  0  0
 12 16  2  0  0  0  0
 13 14  2  0  0  0  0
 14  1  1  0  0  0  0
 14 21  1  0  0  0  0
 15  2  2  0  0  0  0
 17  8  1  0  0  0  0
 17  6  1  0  0  0  0
 18 15  1  0  0  0  0
 19 22  1  0  0  0  0
 20 19  1  0  0  0  0
 21 23  2  0  0  0  0
 22 26  2  0  0  0  0
 23 26  1  0  0  0  0
 24 21  1  0  0  0  0
 24 19  2  0  0  0  0
 25 24  1  0  0  0  0
 26 28  1  0  0  0  0
 28 27  1  0  0  0  0
 29 30  1  0  0  0  0
 29 10  1  0  0  0  0
 31 32  2  0  0  0  0
 31 30  1  0  0  0  0
M  END
>  <MODEL>
1

>  <REMARK>
 VINA RESULT:     -10.8      0.000      0.000
  Name = 
  5 active torsions:
  status: ('A' for Active; 'I' for Inactive)
    1  A    between atoms: C_13  and  C_18
    2  A    between atoms: C_14  and  O_29
    3  A    between atoms: O_15  and  C_26
    4  A    between atoms: C_16  and  C_27
    5  A    between atoms: C_18  and  O_29
                            x       y       z     vdW  Elec       q    Type
                         _______ _______ _______ _____ _____    ______ ____

>  <TORSDO>
F 5

$$$$
=
 OpenBabel10272413123D

 32 36  0  0  0  0  0  0  0  0999 V2000
  188.1820  177.8950  142.8240 C   0  0  0  0  0  0  0  0  0  0  0  0
  185.4190  178.4120  143.0120 C   0  0  0  0  0  0  0  0  0  0  0  0
  189.5630  177.6630  142.7540 C   0  0  0  0  0  3  0  0  0  0  0  0
  187.4400  178.1390  141.6280 C   0  0  0  0  0  0  0  0  0  0  0  0
  185.2390  178.6440  140.6020 C   0  0  0  0  0  3  0  0  0  0  0  0
  181.8700  178.4800  144.2000 N   0  0  0  0  0  2  0  0  0  0  0  0
  186.0400  178.3970  141.7340 C   0  0  0  0  0  0  0  0  0  0  0  0
  181.9210  179.1820  142.1420 O   0  0  0  0  0  0  0  0  0  0  0  0
  183.2830  178.9270  141.9780 C   0  0  0  0  0  0  0  0  0  0  0  0
  188.1360  178.1210  140.3820 C   0  0  0  0  0  0  0  0  0  0  0  0
  183.8730  178.9050  140.7180 C   0  0  0  0  0  3  0  0  0  0  0  0
  189.5190  177.8770  140.3610 C   0  0  0  0  0  3  0  0  0  0  0  0
  186.1740  178.1640  144.1570 C   0  0  0  0  0  3  0  0  0  0  0  0
  187.5370  177.8980  144.0790 C   0  0  0  0  0  0  0  0  0  0  0  0
  184.0380  178.6670  143.1200 C   0  0  0  0  0  0  0  0  0  0  0  0
  190.2270  177.6520  141.5350 C   0  0  0  0  0  3  0  0  0  0  0  0
  181.4260  179.4670  143.3680 O   0  0  0  0  0  0  0  0  0  0  0  0
  183.3040  178.6890  144.4330 C   0  0  0  0  0  2  0  0  0  0  0  0
  188.4080  177.6220  147.7670 C   0  0  0  0  0  0  0  0  0  0  0  0
  187.8510  177.8580  149.0170 O   0  0  0  0  0  1  0  0  0  0  0  0
  188.2640  177.6390  145.3390 C   0  0  0  0  0  0  0  0  0  0  0  0
  189.7100  177.1220  147.6830 C   0  0  0  0  0  3  0  0  0  0  0  0
  189.5720  177.1450  145.2700 C   0  0  0  0  0  3  0  0  0  0  0  0
  187.6780  177.8890  146.5980 C   0  0  0  0  0  0  0  0  0  0  0  0
  186.0560  178.5670  146.7300 Cl  0  0  0  0  0  0  0  0  0  0  0  0
  190.3000  176.8820  146.4330 C   0  0  0  0  0  0  0  0  0  0  0  0
  192.2680  175.7270  147.3880 C   0  0  0  0  0  1  0  0  0  0  0  0
  191.6020  176.3870  146.3200 O   0  0  0  0  0  0  0  0  0  0  0  0
  187.4620  178.3440  139.1740 O   0  0  0  0  0  0  0  0  0  0  0  0
  187.7840  177.6670  137.9660 C   0  0  0  0  0  2  0  0  0  0  0  0
  188.2720  178.6530  136.9620 C   0  0  0  0  0  3  0  0  0  0  0  0
  188.8040  179.6850  137.3330 O   0  0  0  0  0  0  0  0  0  0  0  0
  1 14  1  0  0  0  0
  2 15  1  0  0  0  0
  2 13  1  0  0  0  0
  3  1  1  0  0  0  0
  4  7  1  0  0  0  0
  4  1  2  0  0  0  0
  5 11  2  0  0  0  0
  5  7  1  0  0  0  0
  6 18  1  0  0  0  0
  7  2  2  0  0  0  0
  8 17  1  0  0  0  0
  9  8  1  0  0  0  0
  9 15  2  0  0  0  0
 10  4  1  0  0  0  0
 11  9  1  0  0  0  0
 12 10  2  0  0  0  0
 12 16  1  0  0  0  0
 14 13  2  0  0  0  0
 14 21  1  0  0  0  0
 15 18  1  0  0  0  0
 16  3  2  0  0  0  0
 17  6  1  0  0  0  0
 19 20  1  0  0  0  0
 21 24  1  0  0  0  0
 22 19  1  0  0  0  0
 23 21  2  0  0  0  0
 23 26  1  0  0  0  0
 24 25  1  0  0  0  0
 24 19  2  0  0  0  0
 26 22  2  0  0  0  0
 28 26  1  0  0  0  0
 28 27  1  0  0  0  0
 29 10  1  0  0  0  0
 30 29  1  0  0  0  0
 31 32  2  0  0  0  0
 31 30  1  0  0  0  0
M  END
>  <MODEL>
2

>  <REMARK>
 VINA RESULT:     -10.6      2.326      5.344
  Name = 
  5 active torsions:
  status: ('A' for Active; 'I' for Inactive)
    1  A    between atoms: C_13  and  C_18
    2  A    between atoms: C_14  and  O_29
    3  A    between atoms: O_15  and  C_26
    4  A    between atoms: C_16  and  C_27
    5  A    between atoms: C_18  and  O_29
                            x       y       z     vdW  Elec       q    Type
                         _______ _______ _______ _____ _____    ______ ____

>  <TORSDO>
F 5

$$$$
=
 OpenBabel10272413123D

 32 36  0  0  0  0  0  0  0  0999 V2000
  189.4450  177.2040  142.9820 C   0  0  0  0  0  0  0  0  0  0  0  0
  186.9350  178.0250  143.9630 C   0  0  0  0  0  0  0  0  0  0  0  0
  190.6780  176.7730  142.4720 C   0  0  0  0  0  3  0  0  0  0  0  0
  189.2220  177.2120  144.3920 C   0  0  0  0  0  0  0  0  0  0  0  0
  187.6500  177.6710  146.2560 C   0  0  0  0  0  3  0  0  0  0  0  0
  183.6030  179.6960  144.2980 N   0  0  0  0  0  2  0  0  0  0  0  0
  187.9480  177.6320  144.8800 C   0  0  0  0  0  0  0  0  0  0  0  0
  184.1480  178.8540  146.2280 O   0  0  0  0  0  0  0  0  0  0  0  0
  185.4140  178.4430  145.8090 C   0  0  0  0  0  0  0  0  0  0  0  0
  190.2830  176.7910  145.2500 C   0  0  0  0  0  0  0  0  0  0  0  0
  186.3970  178.0730  146.7200 C   0  0  0  0  0  3  0  0  0  0  0  0
  191.5030  176.3760  144.6940 C   0  0  0  0  0  3  0  0  0  0  0  0
  187.1910  178.0090  142.5930 C   0  0  0  0  0  3  0  0  0  0  0  0
  188.4280  177.6160  142.0940 C   0  0  0  0  0  0  0  0  0  0  0  0
  185.6760  178.4390  144.4400 C   0  0  0  0  0  0  0  0  0  0  0  0
  191.6990  176.3640  143.3190 C   0  0  0  0  0  3  0  0  0  0  0  0
  183.1340  178.9450  145.3370 O   0  0  0  0  0  0  0  0  0  0  0  0
  184.5570  178.8790  143.5380 C   0  0  0  0  0  2  0  0  0  0  0  0
  187.8710  178.1540  138.3750 C   0  0  0  0  0  0  0  0  0  0  0  0
  186.9210  178.6640  137.4990 O   0  0  0  0  0  1  0  0  0  0  0  0
  188.6200  177.6350  140.6290 C   0  0  0  0  0  0  0  0  0  0  0  0
  189.0610  177.6320  137.8630 C   0  0  0  0  0  3  0  0  0  0  0  0
  189.8050  177.1070  140.1010 C   0  0  0  0  0  3  0  0  0  0  0  0
  187.6400  178.1560  139.7590 C   0  0  0  0  0  0  0  0  0  0  0  0
  186.1090  178.7750  140.3770 Cl  0  0  0  0  0  0  0  0  0  0  0  0
  190.0340  177.1020  138.7230 C   0  0  0  0  0  0  0  0  0  0  0  0
  191.3110  175.2840  137.6370 C   0  0  0  0  0  1  0  0  0  0  0  0
  191.2310  176.5690  138.2370 O   0  0  0  0  0  0  0  0  0  0  0  0
  190.1290  176.7860  146.6430 O   0  0  0  0  0  0  0  0  0  0  0  0
  191.1970  177.0390  147.5460 C   0  0  0  0  0  2  0  0  0  0  0  0
  192.0000  175.7960  147.7210 C   0  0  0  0  0  3  0  0  0  0  0  0
  193.1250  175.8590  148.1860 O   0  0  0  0  0  0  0  0  0  0  0  0
  1  4  1  0  0  0  0
  2 15  2  0  0  0  0
  2  7  1  0  0  0  0
  3  1  2  0  0  0  0
  3 16  1  0  0  0  0
  4  7  1  0  0  0  0
  4 10  2  0  0  0  0
  5 11  1  0  0  0  0
  6 17  1  0  0  0  0
  7  5  2  0  0  0  0
  9  8  1  0  0  0  0
  9 11  2  0  0  0  0
 10 29  1  0  0  0  0
 12 10  1  0  0  0  0
 13  2  1  0  0  0  0
 14 13  2  0  0  0  0
 14  1  1  0  0  0  0
 15  9  1  0  0  0  0
 16 12  2  0  0  0  0
 17  8  1  0  0  0  0
 18  6  1  0  0  0  0
 18 15  1  0  0  0  0
 19 24  1  0  0  0  0
 20 19  1  0  0  0  0
 21 14  1  0  0  0  0
 22 19  2  0  0  0  0
 22 26  1  0  0  0  0
 23 21  1  0  0  0  0
 24 25  1  0  0  0  0
 24 21  2  0  0  0  0
 26 23  2  0  0  0  0
 27 28  1  0  0  0  0
 28 26  1  0  0  0  0
 29 30  1  0  0  0  0
 30 31  1  0  0  0  0
 31 32  2  0  0  0  0
M  END
>  <MODEL>
3

>  <REMARK>
 VINA RESULT:     -10.4      2.477      7.620
  Name = 
  5 active torsions:
  status: ('A' for Active; 'I' for Inactive)
    1  A    between atoms: C_13  and  C_18
    2  A    between atoms: C_14  and  O_29
    3  A    between atoms: O_15  and  C_26
    4  A    between atoms: C_16  and  C_27
    5  A    between atoms: C_18  and  O_29
                            x       y       z     vdW  Elec       q    Type
                         _______ _______ _______ _____ _____    ______ ____

>  <TORSDO>
F 5

$$$$
=
 OpenBabel10272413123D

 32 36  0  0  0  0  0  0  0  0999 V2000
  186.4550  178.1290  144.3290 C   0  0  0  0  0  0  0  0  0  0  0  0
  188.3020  177.7320  142.2390 C   0  0  0  0  0  0  0  0  0  0  0  0
  185.5260  178.3560  145.3540 C   0  0  0  0  0  3  0  0  0  0  0  0
  187.8180  177.8510  144.6520 C   0  0  0  0  0  0  0  0  0  0  0  0
  190.1050  177.3680  143.8230 C   0  0  0  0  0  3  0  0  0  0  0  0
  189.8180  176.8800  138.9250 N   0  0  0  0  0  2  0  0  0  0  0  0
  188.7460  177.6490  143.5870 C   0  0  0  0  0  0  0  0  0  0  0  0
  191.4210  177.1000  140.3790 O   0  0  0  0  0  0  0  0  0  0  0  0
  190.5570  177.2800  141.4600 C   0  0  0  0  0  0  0  0  0  0  0  0
  188.1910  177.7960  146.0300 C   0  0  0  0  0  0  0  0  0  0  0  0
  191.0060  177.1830  142.7730 C   0  0  0  0  0  3  0  0  0  0  0  0
  187.2240  178.0230  147.0220 C   0  0  0  0  0  3  0  0  0  0  0  0
  186.9630  178.0000  141.9610 C   0  0  0  0  0  3  0  0  0  0  0  0
  186.0380  178.1880  142.9820 C   0  0  0  0  0  0  0  0  0  0  0  0
  189.2150  177.5350  141.1840 C   0  0  0  0  0  0  0  0  0  0  0  0
  185.9050  178.3020  146.6890 C   0  0  0  0  0  3  0  0  0  0  0  0
  191.0350  177.4620  139.1340 O   0  0  0  0  0  0  0  0  0  0  0  0
  188.8240  177.5950  139.7330 C   0  0  0  0  0  2  0  0  0  0  0  0
  182.9180  178.9590  140.9550 C   0  0  0  0  0  0  0  0  0  0  0  0
  182.5290  179.2030  139.6440 O   0  0  0  0  0  1  0  0  0  0  0  0
  184.6360  178.4610  142.6030 C   0  0  0  0  0  0  0  0  0  0  0  0
  181.9560  178.9710  141.9670 C   0  0  0  0  0  3  0  0  0  0  0  0
  183.6610  178.4840  143.6080 C   0  0  0  0  0  3  0  0  0  0  0  0
  184.2640  178.7090  141.2640 C   0  0  0  0  0  0  0  0  0  0  0  0
  185.4680  178.7490  139.9770 Cl  0  0  0  0  0  0  0  0  0  0  0  0
  182.3220  178.7360  143.3000 C   0  0  0  0  0  0  0  0  0  0  0  0
  179.9820  178.6460  144.0970 C   0  0  0  0  0  1  0  0  0  0  0  0
  181.3800  178.7460  144.3320 O   0  0  0  0  0  0  0  0  0  0  0  0
  189.5110  177.5190  146.4110 O   0  0  0  0  0  0  0  0  0  0  0  0
  189.8450  176.6380  147.4760 C   0  0  0  0  0  2  0  0  0  0  0  0
  191.3090  176.3640  147.4480 C   0  0  0  0  0  3  0  0  0  0  0  0
  191.9950  176.8160  146.5470 O   0  0  0  0  0  0  0  0  0  0  0  0
  1  4  1  0  0  0  0
  1  3  2  0  0  0  0
  2  7  1  0  0  0  0
  3 16  1  0  0  0  0
  4 10  2  0  0  0  0
  6 17  1  0  0  0  0
  6 18  1  0  0  0  0
  7  5  2  0  0  0  0
  7  4  1  0  0  0  0
  8  9  1  0  0  0  0
  9 11  2  0  0  0  0
 10 29  1  0  0  0  0
 10 12  1  0  0  0  0
 11  5  1  0  0  0  0
 13  2  1  0  0  0  0
 13 14  2  0  0  0  0
 14  1  1  0  0  0  0
 15  9  1  0  0  0  0
 15  2  2  0  0  0  0
 16 12  2  0  0  0  0
 17  8  1  0  0  0  0
 18 15  1  0  0  0  0
 19 24  2  0  0  0  0
 19 22  1  0  0  0  0
 20 19  1  0  0  0  0
 21 14  1  0  0  0  0
 21 23  2  0  0  0  0
 22 26  2  0  0  0  0
 24 21  1  0  0  0  0
 25 24  1  0  0  0  0
 26 23  1  0  0  0  0
 26 28  1  0  0  0  0
 27 28  1  0  0  0  0
 29 30  1  0  0  0  0
 31 30  1  0  0  0  0
 32 31  2  0  0  0  0
M  END
>  <MODEL>
4

>  <REMARK>
 VINA RESULT:     -10.0      2.070      6.643
  Name = 
  5 active torsions:
  status: ('A' for Active; 'I' for Inactive)
    1  A    between atoms: C_13  and  C_18
    2  A    between atoms: C_14  and  O_29
    3  A    between atoms: O_15  and  C_26
    4  A    between atoms: C_16  and  C_27
    5  A    between atoms: C_18  and  O_29
                            x       y       z     vdW  Elec       q    Type
                         _______ _______ _______ _____ _____    ______ ____

>  <TORSDO>
F 5

$$$$
=
 OpenBabel10272413123D

 32 36  0  0  0  0  0  0  0  0999 V2000
  189.1480  177.3060  143.0440 C   0  0  0  0  0  0  0  0  0  0  0  0
  186.5050  178.0440  143.6820 C   0  0  0  0  0  0  0  0  0  0  0  0
  190.4510  176.9160  142.7030 C   0  0  0  0  0  3  0  0  0  0  0  0
  188.7400  177.3040  144.4120 C   0  0  0  0  0  0  0  0  0  0  0  0
  186.9210  177.7070  146.0500 C   0  0  0  0  0  3  0  0  0  0  0  0
  183.1070  179.6070  143.5690 N   0  0  0  0  0  2  0  0  0  0  0  0
  187.4000  177.6820  144.7260 C   0  0  0  0  0  0  0  0  0  0  0  0
  183.4180  178.7780  145.5570 O   0  0  0  0  0  0  0  0  0  0  0  0
  184.7410  178.4090  145.3090 C   0  0  0  0  0  0  0  0  0  0  0  0
  189.6910  176.9150  145.4040 C   0  0  0  0  0  0  0  0  0  0  0  0
  185.6060  178.0680  146.3440 C   0  0  0  0  0  3  0  0  0  0  0  0
  190.9870  176.5400  145.0150 C   0  0  0  0  0  3  0  0  0  0  0  0
  186.9410  178.0400  142.3590 C   0  0  0  0  0  3  0  0  0  0  0  0
  188.2450  177.6870  142.0290 C   0  0  0  0  0  0  0  0  0  0  0  0
  185.1820  178.4160  143.9880 C   0  0  0  0  0  0  0  0  0  0  0  0
  191.3640  176.5370  143.6780 C   0  0  0  0  0  3  0  0  0  0  0  0
  182.5280  178.8400  144.5390 O   0  0  0  0  0  0  0  0  0  0  0  0
  184.1780  178.8230  142.9440 C   0  0  0  0  0  2  0  0  0  0  0  0
  188.1710  178.2220  138.2680 C   0  0  0  0  0  0  0  0  0  0  0  0
  187.3320  178.7090  137.2740 O   0  0  0  0  0  1  0  0  0  0  0  0
  188.6290  177.7160  140.6020 C   0  0  0  0  0  0  0  0  0  0  0  0
  189.4320  177.7330  137.9180 C   0  0  0  0  0  3  0  0  0  0  0  0
  189.8870  177.2220  140.2350 C   0  0  0  0  0  3  0  0  0  0  0  0
  187.7580  178.2130  139.6090 C   0  0  0  0  0  0  0  0  0  0  0  0
  186.1430  178.7880  140.0190 Cl  0  0  0  0  0  0  0  0  0  0  0  0
  190.2970  177.2280  138.9000 C   0  0  0  0  0  0  0  0  0  0  0  0
  191.7580  175.4320  138.0320 C   0  0  0  0  0  1  0  0  0  0  0  0
  191.5610  176.7290  138.5780 O   0  0  0  0  0  0  0  0  0  0  0  0
  189.3540  176.9010  146.7640 O   0  0  0  0  0  0  0  0  0  0  0  0
  190.1640  177.4880  147.7740 C   0  0  0  0  0  2  0  0  0  0  0  0
  189.3350  178.4130  148.5960 C   0  0  0  0  0  3  0  0  0  0  0  0
  188.2720  178.0310  149.0550 O   0  0  0  0  0  0  0  0  0  0  0  0
  1  4  1  0  0  0  0
  2 15  2  0  0  0  0
  2  7  1  0  0  0  0
  3  1  2  0  0  0  0
  3 16  1  0  0  0  0
  4  7  1  0  0  0  0
  4 10  2  0  0  0  0
  5 11  1  0  0  0  0
  6 17  1  0  0  0  0
  7  5  2  0  0  0  0
  9  8  1  0  0  0  0
  9 11  2  0  0  0  0
 10 29  1  0  0  0  0
 12 10  1  0  0  0  0
 13  2  1  0  0  0  0
 14 13  2  0  0  0  0
 14  1  1  0  0  0  0
 15  9  1  0  0  0  0
 16 12  2  0  0  0  0
 17  8  1  0  0  0  0
 18  6  1  0  0  0  0
 18 15  1  0  0  0  0
 19 24  1  0  0  0  0
 20 19  1  0  0  0  0
 21 14  1  0  0  0  0
 22 19  2  0  0  0  0
 22 26  1  0  0  0  0
 23 21  1  0  0  0  0
 24 25  1  0  0  0  0
 24 21  2  0  0  0  0
 26 23  2  0  0  0  0
 27 28  1  0  0  0  0
 28 26  1  0  0  0  0
 29 30  1  0  0  0  0
 30 31  1  0  0  0  0
 31 32  2  0  0  0  0
M  END
>  <MODEL>
5

>  <REMARK>
 VINA RESULT:     -10.0      2.325      6.998
  Name = 
  5 active torsions:
  status: ('A' for Active; 'I' for Inactive)
    1  A    between atoms: C_13  and  C_18
    2  A    between atoms: C_14  and  O_29
    3  A    between atoms: O_15  and  C_26
    4  A    between atoms: C_16  and  C_27
    5  A    between atoms: C_18  and  O_29
                            x       y       z     vdW  Elec       q    Type
                         _______ _______ _______ _____ _____    ______ ____

>  <TORSDO>
F 5

$$$$
=
 OpenBabel10272413123D

 32 36  0  0  0  0  0  0  0  0999 V2000
  187.7220  178.0270  141.7200 C   0  0  0  0  0  0  0  0  0  0  0  0
  189.2620  177.3130  143.9680 C   0  0  0  0  0  0  0  0  0  0  0  0
  186.9320  178.3590  140.6100 C   0  0  0  0  0  3  0  0  0  0  0  0
  189.1010  177.7020  141.5400 C   0  0  0  0  0  0  0  0  0  0  0  0
  191.2390  177.0130  142.5910 C   0  0  0  0  0  3  0  0  0  0  0  0
  190.5400  177.0100  147.4720 N   0  0  0  0  0  2  0  0  0  0  0  0
  189.8730  177.3440  142.6850 C   0  0  0  0  0  0  0  0  0  0  0  0
  192.0690  176.2660  146.1150 O   0  0  0  0  0  0  0  0  0  0  0  0
  191.3650  176.6170  144.9630 C   0  0  0  0  0  0  0  0  0  0  0  0
  189.6410  177.7430  140.2180 C   0  0  0  0  0  0  0  0  0  0  0  0
  191.9820  176.6540  143.7160 C   0  0  0  0  0  3  0  0  0  0  0  0
  188.8120  178.0890  139.1390 C   0  0  0  0  0  3  0  0  0  0  0  0
  187.9150  177.6410  144.1060 C   0  0  0  0  0  3  0  0  0  0  0  0
  187.1440  178.0050  143.0070 C   0  0  0  0  0  0  0  0  0  0  0  0
  190.0210  176.9590  145.1000 C   0  0  0  0  0  0  0  0  0  0  0  0
  187.4700  178.3910  139.3310 C   0  0  0  0  0  3  0  0  0  0  0  0
  191.4020  175.9740  147.2550 O   0  0  0  0  0  0  0  0  0  0  0  0
  189.4520  176.9120  146.4920 C   0  0  0  0  0  2  0  0  0  0  0  0
  183.8690  178.9150  144.7050 C   0  0  0  0  0  0  0  0  0  0  0  0
  183.3550  179.1630  145.9710 O   0  0  0  0  0  1  0  0  0  0  0  0
  185.7250  178.3460  143.2400 C   0  0  0  0  0  0  0  0  0  0  0  0
  183.0210  178.9840  143.5970 C   0  0  0  0  0  3  0  0  0  0  0  0
  184.8610  178.4110  142.1400 C   0  0  0  0  0  3  0  0  0  0  0  0
  185.2240  178.5920  144.5360 C   0  0  0  0  0  0  0  0  0  0  0  0
  186.2640  178.4610  145.9540 Cl  0  0  0  0  0  0  0  0  0  0  0  0
  183.5110  178.7300  142.3080 C   0  0  0  0  0  0  0  0  0  0  0  0
  181.2660  178.7510  141.2710 C   0  0  0  0  0  1  0  0  0  0  0  0
  182.6840  178.7880  141.1840 O   0  0  0  0  0  0  0  0  0  0  0  0
  190.9880  177.4440  139.9780 O   0  0  0  0  0  0  0  0  0  0  0  0
  191.4300  176.6740  138.8670 C   0  0  0  0  0  2  0  0  0  0  0  0
  192.9190  176.6570  138.8390 C   0  0  0  0  0  3  0  0  0  0  0  0
  193.5500  177.2890  139.6690 O   0  0  0  0  0  0  0  0  0  0  0  0
  1 14  1  0  0  0  0
  2 13  1  0  0  0  0
  2 15  1  0  0  0  0
  3  1  1  0  0  0  0
  4  1  2  0  0  0  0
  4  7  1  0  0  0  0
  5  7  1  0  0  0  0
  5 11  2  0  0  0  0
  7  2  2  0  0  0  0
  8 17  1  0  0  0  0
  9 15  2  0  0  0  0
  9  8  1  0  0  0  0
 10  4  1  0  0  0  0
 11  9  1  0  0  0  0
 12 16  1  0  0  0  0
 12 10  2  0  0  0  0
 14 21  1  0  0  0  0
 14 13  2  0  0  0  0
 15 18  1  0  0  0  0
 16  3  2  0  0  0  0
 17  6  1  0  0  0  0
 18  6  1  0  0  0  0
 19 20  1  0  0  0  0
 21 24  2  0  0  0  0
 22 19  2  0  0  0  0
 23 26  2  0  0  0  0
 23 21  1  0  0  0  0
 24 19  1  0  0  0  0
 24 25  1  0  0  0  0
 26 22  1  0  0  0  0
 28 27  1  0  0  0  0
 28 26  1  0  0  0  0
 29 10  1  0  0  0  0
 30 29  1  0  0  0  0
 31 30  1  0  0  0  0
 31 32  2  0  0  0  0
M  END
>  <MODEL>
6

>  <REMARK>
 VINA RESULT:      -9.9      2.870      7.988
  Name = 
  5 active torsions:
  status: ('A' for Active; 'I' for Inactive)
    1  A    between atoms: C_13  and  C_18
    2  A    between atoms: C_14  and  O_29
    3  A    between atoms: O_15  and  C_26
    4  A    between atoms: C_16  and  C_27
    5  A    between atoms: C_18  and  O_29
                            x       y       z     vdW  Elec       q    Type
                         _______ _______ _______ _____ _____    ______ ____

>  <TORSDO>
F 5

$$$$
=
 OpenBabel10272413123D

 32 36  0  0  0  0  0  0  0  0999 V2000
  188.0870  177.7780  141.4240 C   0  0  0  0  0  0  0  0  0  0  0  0
  189.4830  177.2630  143.8160 C   0  0  0  0  0  0  0  0  0  0  0  0
  187.4190  178.0550  140.2230 C   0  0  0  0  0  3  0  0  0  0  0  0
  187.4280  177.9990  142.6720 C   0  0  0  0  0  0  0  0  0  0  0  0
  187.5620  177.9220  145.1470 C   0  0  0  0  0  3  0  0  0  0  0  0
  191.8840  175.8570  146.3180 N   0  0  0  0  0  2  0  0  0  0  0  0
  188.1420  177.7330  143.8780 C   0  0  0  0  0  0  0  0  0  0  0  0
  190.3380  176.9520  147.3880 O   0  0  0  0  0  0  0  0  0  0  0  0
  189.5890  177.2200  146.2410 C   0  0  0  0  0  0  0  0  0  0  0  0
  186.0850  178.4840  142.6530 C   0  0  0  0  0  0  0  0  0  0  0  0
  188.2740  177.6680  146.3200 C   0  0  0  0  0  3  0  0  0  0  0  0
  185.4540  178.7390  141.4250 C   0  0  0  0  0  3  0  0  0  0  0  0
  190.0920  177.0540  142.5800 C   0  0  0  0  0  3  0  0  0  0  0  0
  189.4120  177.2950  141.3900 C   0  0  0  0  0  0  0  0  0  0  0  0
  190.1910  177.0000  145.0040 C   0  0  0  0  0  0  0  0  0  0  0  0
  186.1140  178.5290  140.2210 C   0  0  0  0  0  3  0  0  0  0  0  0
  191.6770  176.7840  147.3000 O   0  0  0  0  0  0  0  0  0  0  0  0
  191.6070  176.4920  145.0250 C   0  0  0  0  0  2  0  0  0  0  0  0
  192.1620  176.9050  138.7980 C   0  0  0  0  0  0  0  0  0  0  0  0
  193.5420  177.0140  138.6800 O   0  0  0  0  0  1  0  0  0  0  0  0
  190.1270  177.0410  140.1230 C   0  0  0  0  0  0  0  0  0  0  0  0
  191.4070  176.5450  137.6810 C   0  0  0  0  0  3  0  0  0  0  0  0
  189.3820  176.6870  138.9910 C   0  0  0  0  0  3  0  0  0  0  0  0
  191.5300  177.1600  140.0250 C   0  0  0  0  0  0  0  0  0  0  0  0
  192.5000  177.6630  141.4090 Cl  0  0  0  0  0  0  0  0  0  0  0  0
  190.0110  176.4350  137.7700 C   0  0  0  0  0  0  0  0  0  0  0  0
  187.8350  176.3410  136.5980 C   0  0  0  0  0  1  0  0  0  0  0  0
  189.2310  176.0810  136.6660 O   0  0  0  0  0  0  0  0  0  0  0  0
  185.3820  178.7120  143.8440 O   0  0  0  0  0  0  0  0  0  0  0  0
  184.0040  179.0600  143.8810 C   0  0  0  0  0  2  0  0  0  0  0  0
  183.4650  178.7940  145.2440 C   0  0  0  0  0  3  0  0  0  0  0  0
  184.2150  178.7890  146.2050 O   0  0  0  0  0  0  0  0  0  0  0  0
  1  4  1  0  0  0  0
  2  7  1  0  0  0  0
  2 15  1  0  0  0  0
  3  1  1  0  0  0  0
  4  7  2  0  0  0  0
  5 11  2  0  0  0  0
  6 17  1  0  0  0  0
  7  5  1  0  0  0  0
  9 11  1  0  0  0  0
  9  8  1  0  0  0  0
 10  4  1  0  0  0  0
 10 29  1  0  0  0  0
 12 10  2  0  0  0  0
 13  2  2  0  0  0  0
 14  1  2  0  0  0  0
 14 13  1  0  0  0  0
 15 18  1  0  0  0  0
 15  9  2  0  0  0  0
 16  3  2  0  0  0  0
 16 12  1  0  0  0  0
 17  8  1  0  0  0  0
 18  6  1  0  0  0  0
 19 24  1  0  0  0  0
 20 19  1  0  0  0  0
 21 14  1  0  0  0  0
 22 26  1  0  0  0  0
 22 19  2  0  0  0  0
 23 21  1  0  0  0  0
 24 21  2  0  0  0  0
 24 25  1  0  0  0  0
 26 23  2  0  0  0  0
 27 28  1  0  0  0  0
 28 26  1  0  0  0  0
 29 30  1  0  0  0  0
 30 31  1  0  0  0  0
 31 32  2  0  0  0  0
M  END
>  <MODEL>
7

>  <REMARK>
 VINA RESULT:      -9.8      2.875      6.616
  Name = 
  5 active torsions:
  status: ('A' for Active; 'I' for Inactive)
    1  A    between atoms: C_13  and  C_18
    2  A    between atoms: C_14  and  O_29
    3  A    between atoms: O_15  and  C_26
    4  A    between atoms: C_16  and  C_27
    5  A    between atoms: C_18  and  O_29
                            x       y       z     vdW  Elec       q    Type
                         _______ _______ _______ _____ _____    ______ ____

>  <TORSDO>
F 5

$$$$
=
 OpenBabel10272413123D

 32 36  0  0  0  0  0  0  0  0999 V2000
  185.9750  178.3750  142.1090 C   0  0  0  0  0  0  0  0  0  0  0  0
  187.0130  178.1050  144.7140 C   0  0  0  0  0  0  0  0  0  0  0  0
  185.4840  178.5320  140.8050 C   0  0  0  0  0  3  0  0  0  0  0  0
  185.0980  178.5350  143.2240 C   0  0  0  0  0  0  0  0  0  0  0  0
  184.8330  178.5350  145.6900 C   0  0  0  0  0  3  0  0  0  0  0  0
  189.1300  177.0880  147.6280 N   0  0  0  0  0  2  0  0  0  0  0  0
  185.6320  178.3940  144.5390 C   0  0  0  0  0  0  0  0  0  0  0  0
  187.3020  177.9930  148.3870 O   0  0  0  0  0  0  0  0  0  0  0  0
  186.7240  178.1330  147.1240 C   0  0  0  0  0  0  0  0  0  0  0  0
  183.7260  178.8380  142.9700 C   0  0  0  0  0  0  0  0  0  0  0  0
  185.3680  178.4050  146.9720 C   0  0  0  0  0  3  0  0  0  0  0  0
  183.2780  178.9780  141.6460 C   0  0  0  0  0  3  0  0  0  0  0  0
  187.8380  177.9500  143.6020 C   0  0  0  0  0  3  0  0  0  0  0  0
  187.3380  178.0700  142.3090 C   0  0  0  0  0  0  0  0  0  0  0  0
  187.5450  177.9660  146.0110 C   0  0  0  0  0  0  0  0  0  0  0  0
  184.1480  178.8300  140.5740 C   0  0  0  0  0  3  0  0  0  0  0  0
  188.6480  178.0010  148.5220 O   0  0  0  0  0  0  0  0  0  0  0  0
  188.9900  177.6500  146.2800 C   0  0  0  0  0  2  0  0  0  0  0  0
  190.2040  176.8150  140.1540 C   0  0  0  0  0  0  0  0  0  0  0  0
  191.2550  175.9070  140.1950 O   0  0  0  0  0  1  0  0  0  0  0  0
  188.2790  177.8840  141.1850 C   0  0  0  0  0  0  0  0  0  0  0  0
  190.0190  177.5930  139.0090 C   0  0  0  0  0  3  0  0  0  0  0  0
  188.1110  178.6630  140.0330 C   0  0  0  0  0  3  0  0  0  0  0  0
  189.3400  176.9570  141.2510 C   0  0  0  0  0  0  0  0  0  0  0  0
  189.6250  176.0000  142.7030 Cl  0  0  0  0  0  0  0  0  0  0  0  0
  188.9720  178.5240  138.9420 C   0  0  0  0  0  0  0  0  0  0  0  0
  188.1220  178.8340  136.6410 C   0  0  0  0  0  1  0  0  0  0  0  0
  188.7670  179.3180  137.8120 O   0  0  0  0  0  0  0  0  0  0  0  0
  182.8130  178.9980  144.0210 O   0  0  0  0  0  0  0  0  0  0  0  0
  181.4910  178.4760  143.9920 C   0  0  0  0  0  2  0  0  0  0  0  0
  180.6610  179.2870  143.0580 C   0  0  0  0  0  3  0  0  0  0  0  0
  180.5040  180.4790  143.2630 O   0  0  0  0  0  0  0  0  0  0  0  0
  1 14  2  0  0  0  0
  1  4  1  0  0  0  0
  2 15  1  0  0  0  0
  3  1  1  0  0  0  0
  4  7  2  0  0  0  0
  5 11  2  0  0  0  0
  6 17  1  0  0  0  0
  7  2  1  0  0  0  0
  7  5  1  0  0  0  0
  8 17  1  0  0  0  0
  9  8  1  0  0  0  0
 10  4  1  0  0  0  0
 10 29  1  0  0  0  0
 11  9  1  0  0  0  0
 12 10  2  0  0  0  0
 13  2  2  0  0  0  0
 14 13  1  0  0  0  0
 15 18  1  0  0  0  0
 15  9  2  0  0  0  0
 16  3  2  0  0  0  0
 16 12  1  0  0  0  0
 18  6  1  0  0  0  0
 19 20  1  0  0  0  0
 19 24  1  0  0  0  0
 21 24  2  0  0  0  0
 21 14  1  0  0  0  0
 22 19  2  0  0  0  0
 23 21  1  0  0  0  0
 24 25  1  0  0  0  0
 26 22  1  0  0  0  0
 26 23  2  0  0  0  0
 27 28  1  0  0  0  0
 28 26  1  0  0  0  0
 30 29  1  0  0  0  0
 31 32  2  0  0  0  0
 31 30  1  0  0  0  0
M  END
>  <MODEL>
8

>  <REMARK>
 VINA RESULT:      -9.6      2.255      5.920
  Name = 
  5 active torsions:
  status: ('A' for Active; 'I' for Inactive)
    1  A    between atoms: C_13  and  C_18
    2  A    between atoms: C_14  and  O_29
    3  A    between atoms: O_15  and  C_26
    4  A    between atoms: C_16  and  C_27
    5  A    between atoms: C_18  and  O_29
                            x       y       z     vdW  Elec       q    Type
                         _______ _______ _______ _____ _____    ______ ____

>  <TORSDO>
F 5

$$$$
=
 OpenBabel10272413123D

 32 36  0  0  0  0  0  0  0  0999 V2000
  184.0980  178.7580  142.1190 C   0  0  0  0  0  0  0  0  0  0  0  0
  186.6340  178.2900  140.9840 C   0  0  0  0  0  0  0  0  0  0  0  0
  182.8340  179.0190  142.6650 C   0  0  0  0  0  3  0  0  0  0  0  0
  185.2090  178.5150  142.9820 C   0  0  0  0  0  0  0  0  0  0  0  0
  187.6330  178.0260  143.1810 C   0  0  0  0  0  3  0  0  0  0  0  0
  189.3630  177.3060  138.6200 N   0  0  0  0  0  2  0  0  0  0  0  0
  186.4890  178.2760  142.3980 C   0  0  0  0  0  0  0  0  0  0  0  0
  190.2360  177.6160  140.5880 O   0  0  0  0  0  0  0  0  0  0  0  0
  189.0080  177.8330  141.2130 C   0  0  0  0  0  0  0  0  0  0  0  0
  184.9880  178.5290  144.3930 C   0  0  0  0  0  0  0  0  0  0  0  0
  188.8820  177.8040  142.5990 C   0  0  0  0  0  3  0  0  0  0  0  0
  183.7020  178.7880  144.8930 C   0  0  0  0  0  3  0  0  0  0  0  0
  185.5260  178.5260  140.1730 C   0  0  0  0  0  3  0  0  0  0  0  0
  184.2660  178.7490  140.7180 C   0  0  0  0  0  0  0  0  0  0  0  0
  187.8960  178.0570  140.4040 C   0  0  0  0  0  0  0  0  0  0  0  0
  182.6350  179.0330  144.0390 C   0  0  0  0  0  3  0  0  0  0  0  0
  190.3930  177.9140  139.2780 O   0  0  0  0  0  0  0  0  0  0  0  0
  188.1300  178.0440  138.9180 C   0  0  0  0  0  2  0  0  0  0  0  0
  181.2540  178.2080  138.4650 C   0  0  0  0  0  0  0  0  0  0  0  0
  180.4220  177.1880  138.0200 O   0  0  0  0  0  1  0  0  0  0  0  0
  183.1420  178.9840  139.7880 C   0  0  0  0  0  0  0  0  0  0  0  0
  181.0340  179.5130  138.0210 C   0  0  0  0  0  3  0  0  0  0  0  0
  182.9130  180.2860  139.3270 C   0  0  0  0  0  3  0  0  0  0  0  0
  182.3110  177.9320  139.3470 C   0  0  0  0  0  0  0  0  0  0  0  0
  182.6010  176.2680  139.8540 Cl  0  0  0  0  0  0  0  0  0  0  0  0
  181.8630  180.5600  138.4470 C   0  0  0  0  0  0  0  0  0  0  0  0
  180.5360  182.2710  137.2530 C   0  0  0  0  0  1  0  0  0  0  0  0
  181.6680  181.8740  138.0150 O   0  0  0  0  0  0  0  0  0  0  0  0
  186.0360  178.2880  145.2920 O   0  0  0  0  0  0  0  0  0  0  0  0
  185.9370  178.5350  146.6890 C   0  0  0  0  0  2  0  0  0  0  0  0
  187.1680  178.0380  147.3660 C   0  0  0  0  0  3  0  0  0  0  0  0
  188.1480  177.7420  146.7050 O   0  0  0  0  0  0  0  0  0  0  0  0
  1  3  2  0  0  0  0
  1  4  1  0  0  0  0
  2  7  1  0  0  0  0
  3 16  1  0  0  0  0
  4 10  2  0  0  0  0
  6 18  1  0  0  0  0
  6 17  1  0  0  0  0
  7  4  1  0  0  0  0
  7  5  2  0  0  0  0
  8  9  1  0  0  0  0
  9 11  2  0  0  0  0
 10 12  1  0  0  0  0
 10 29  1  0  0  0  0
 11  5  1  0  0  0  0
 13 14  2  0  0  0  0
 13  2  1  0  0  0  0
 14  1  1  0  0  0  0
 15  2  2  0  0  0  0
 15  9  1  0  0  0  0
 16 12  2  0  0  0  0
 17  8  1  0  0  0  0
 18 15  1  0  0  0  0
 19 24  1  0  0  0  0
 20 19  1  0  0  0  0
 21 14  1  0  0  0  0
 22 26  1  0  0  0  0
 22 19  2  0  0  0  0
 23 21  1  0  0  0  0
 24 21  2  0  0  0  0
 24 25  1  0  0  0  0
 26 23  2  0  0  0  0
 27 28  1  0  0  0  0
 28 26  1  0  0  0  0
 29 30  1  0  0  0  0
 30 31  1  0  0  0  0
 32 31  2  0  0  0  0
M  END
>  <MODEL>
9

>  <REMARK>
 VINA RESULT:      -9.5      2.965      7.228
  Name = 
  5 active torsions:
  status: ('A' for Active; 'I' for Inactive)
    1  A    between atoms: C_13  and  C_18
    2  A    between atoms: C_14  and  O_29
    3  A    between atoms: O_15  and  C_26
    4  A    between atoms: C_16  and  C_27
    5  A    between atoms: C_18  and  O_29
                            x       y       z     vdW  Elec       q    Type
                         _______ _______ _______ _____ _____    ______ ____

>  <TORSDO>
F 5

$$$$
