=
 OpenBabel10272400483D

 25 28  0  0  1  0  0  0  0  0999 V2000
  187.0940  177.9710  145.6510 C   0  0  0  0  0  0  0  0  0  0  0  0
  188.3480  177.2090  145.3580 C   0  0  1  0  0  3  0  0  0  0  0  0
  187.5270  178.1580  148.0340 C   0  0  0  0  0  3  0  0  0  0  0  0
  186.0070  178.1960  144.9360 C   0  0  0  0  0  0  0  0  0  0  0  0
  183.5090  178.8140  143.9040 C   0  0  0  0  0  3  0  0  0  0  0  0
  188.8890  177.6230  147.7850 C   0  0  0  0  0  3  0  0  0  0  0  0
  185.0210  178.7170  145.7680 C   0  0  0  0  0  0  0  0  0  0  0  0
  183.7600  179.0400  145.2690 C   0  0  0  0  0  3  0  0  0  0  0  0
  190.6970  176.8390  146.3050 C   0  0  0  0  0  0  0  0  0  0  0  0
  191.5880  176.3720  147.4040 C   0  0  0  0  0  1  0  0  0  0  0  0
  189.0460  177.6600  144.1030 C   0  0  0  0  0  3  0  0  0  0  0  0
  184.5060  178.2680  143.0710 C   0  0  0  0  0  3  0  0  0  0  0  0
  186.7180  178.3360  146.9930 C   0  0  0  0  0  0  0  0  0  0  0  0
  185.3790  178.8230  147.0130 N   0  0  0  0  0  0  0  0  0  0  0  0
  191.1940  176.9680  145.0690 C   0  0  0  0  0  3  0  0  0  0  0  0
  185.7730  177.9470  143.5840 C   0  0  0  0  0  3  0  0  0  0  0  0
  190.3650  177.4870  143.9560 C   0  0  0  0  0  0  0  0  0  0  0  0
  189.2930  177.2290  146.5560 C   0  0  0  0  0  0  0  0  0  0  0  0
  191.0130  177.8480  142.6660 C   0  0  0  0  0  2  0  0  0  0  0  0
  190.7720  176.8030  141.6870 N   0  0  0  0  0  2  0  0  0  0  0  0
  190.3730  177.4660  140.4580 C   0  0  0  0  0  2  0  0  0  0  0  0
  188.8690  177.6660  140.4460 C   0  0  0  0  0  2  0  0  0  0  0  0
  188.5440  178.7760  139.6650 O   0  0  0  0  0  0  0  0  0  0  0  0
  189.2080  178.5620  138.4580 C   0  0  0  0  0  2  0  0  0  0  0  0
  188.9410  179.6160  137.5870 O   0  0  0  0  0  1  0  0  0  0  0  0
  1 13  1  0  0  0  0
  2 11  1  6  0  0  0
  2  1  1  0  0  0  0
  2 18  1  0  0  0  0
  4  1  2  0  0  0  0
  4  7  1  0  0  0  0
  5  8  2  0  0  0  0
  6  3  1  0  0  0  0
  7 14  2  0  0  0  0
  8  7  1  0  0  0  0
  9 18  1  0  0  0  0
  9 10  1  0  0  0  0
 12 16  2  0  0  0  0
 12  5  1  0  0  0  0
 13 14  1  0  0  0  0
 13  3  2  0  0  0  0
 15  9  2  0  0  0  0
 16  4  1  0  0  0  0
 17 11  2  0  0  0  0
 17 15  1  0  0  0  0
 18  6  2  0  0  0  0
 19 17  1  0  0  0  0
 20 19  1  0  0  0  0
 21 20  1  0  0  0  0
 22 21  1  0  0  0  0
 23 22  1  0  0  0  0
 24 23  1  0  0  0  0
 25 24  1  0  0  0  0
M  END
>  <MODEL>
1

>  <REMARK>
 VINA RESULT:     -10.5      0.000      0.000
  Name = 
  6 active torsions:
  status: ('A' for Active; 'I' for Inactive)
    1  A    between atoms: O_2  and  C_7
    2  A    between atoms: O_2  and  C_25
    3  A    between atoms: C_6  and  N_15
    4  A    between atoms: C_6  and  C_23
    5  A    between atoms: N_15  and  C_21
    6  A    between atoms: C_21  and  C_25
                            x       y       z     vdW  Elec       q    Type
                         _______ _______ _______ _____ _____    ______ ____

>  <TORSDO>
F 6

$$$$
=
 OpenBabel10272400483D

 25 28  0  0  1  0  0  0  0  0999 V2000
  187.1470  177.9650  145.6070 C   0  0  0  0  0  0  0  0  0  0  0  0
  188.4180  177.2200  145.3420 C   0  0  1  0  0  3  0  0  0  0  0  0
  187.4960  178.1070  148.0070 C   0  0  0  0  0  3  0  0  0  0  0  0
  186.0830  178.1940  144.8590 C   0  0  0  0  0  0  0  0  0  0  0  0
  183.6150  178.8080  143.7560 C   0  0  0  0  0  3  0  0  0  0  0  0
  188.8720  177.5900  147.7940 C   0  0  0  0  0  3  0  0  0  0  0  0
  185.0640  178.6880  145.6670 C   0  0  0  0  0  0  0  0  0  0  0  0
  183.8170  179.0080  145.1320 C   0  0  0  0  0  3  0  0  0  0  0  0
  190.7360  176.8540  146.3610 C   0  0  0  0  0  0  0  0  0  0  0  0
  191.5950  176.3740  147.4810 C   0  0  0  0  0  1  0  0  0  0  0  0
  189.1540  177.7030  144.1210 C   0  0  0  0  0  3  0  0  0  0  0  0
  184.6450  178.2890  142.9460 C   0  0  0  0  0  3  0  0  0  0  0  0
  186.7220  178.2980  146.9420 C   0  0  0  0  0  0  0  0  0  0  0  0
  185.3780  178.7710  146.9260 N   0  0  0  0  0  0  0  0  0  0  0  0
  191.2740  177.0130  145.1460 C   0  0  0  0  0  3  0  0  0  0  0  0
  185.8970  177.9690  143.4960 C   0  0  0  0  0  3  0  0  0  0  0  0
  190.4790  177.5460  144.0160 C   0  0  0  0  0  0  0  0  0  0  0  0
  189.3210  177.2250  146.5720 C   0  0  0  0  0  0  0  0  0  0  0  0
  191.1670  177.9400  142.7570 C   0  0  0  0  0  2  0  0  0  0  0  0
  190.4280  177.4300  141.6140 N   0  0  0  0  0  2  0  0  0  0  0  0
  191.3700  177.3440  140.5120 C   0  0  0  0  0  2  0  0  0  0  0  0
  190.7440  176.5850  139.3580 C   0  0  0  0  0  2  0  0  0  0  0  0
  191.3900  176.9150  138.1660 O   0  0  0  0  0  0  0  0  0  0  0  0
  192.5610  176.1580  138.1810 C   0  0  0  0  0  2  0  0  0  0  0  0
  193.6030  176.9030  137.6310 O   0  0  0  0  0  1  0  0  0  0  0  0
  1 13  1  0  0  0  0
  2 11  1  6  0  0  0
  2  1  1  0  0  0  0
  2 18  1  0  0  0  0
  4  1  2  0  0  0  0
  4  7  1  0  0  0  0
  5  8  2  0  0  0  0
  6  3  1  0  0  0  0
  7 14  2  0  0  0  0
  8  7  1  0  0  0  0
  9 18  1  0  0  0  0
  9 10  1  0  0  0  0
 12 16  2  0  0  0  0
 12  5  1  0  0  0  0
 13  3  2  0  0  0  0
 14 13  1  0  0  0  0
 15  9  2  0  0  0  0
 16  4  1  0  0  0  0
 17 11  2  0  0  0  0
 17 15  1  0  0  0  0
 18  6  2  0  0  0  0
 19 17  1  0  0  0  0
 20 19  1  0  0  0  0
 21 20  1  0  0  0  0
 22 21  1  0  0  0  0
 23 24  1  0  0  0  0
 23 22  1  0  0  0  0
 25 24  1  0  0  0  0
M  END
>  <MODEL>
2

>  <REMARK>
 VINA RESULT:     -10.0      1.527      1.645
  Name = 
  6 active torsions:
  status: ('A' for Active; 'I' for Inactive)
    1  A    between atoms: O_2  and  C_7
    2  A    between atoms: O_2  and  C_25
    3  A    between atoms: C_6  and  N_15
    4  A    between atoms: C_6  and  C_23
    5  A    between atoms: N_15  and  C_21
    6  A    between atoms: C_21  and  C_25
                            x       y       z     vdW  Elec       q    Type
                         _______ _______ _______ _____ _____    ______ ____

>  <TORSDO>
F 6

$$$$
=
 OpenBabel10272400483D

 25 28  0  0  1  0  0  0  0  0999 V2000
  185.7150  178.1870  144.6530 C   0  0  0  0  0  0  0  0  0  0  0  0
  187.0050  177.4290  144.6820 C   0  0  1  0  0  3  0  0  0  0  0  0
  185.6710  178.6010  147.0470 C   0  0  0  0  0  3  0  0  0  0  0  0
  184.7890  178.3210  143.7220 C   0  0  0  0  0  0  0  0  0  0  0  0
  182.5390  178.7850  142.1700 C   0  0  0  0  0  3  0  0  0  0  0  0
  187.0590  178.0750  147.1190 C   0  0  0  0  0  3  0  0  0  0  0  0
  183.6570  178.8940  144.2930 C   0  0  0  0  0  0  0  0  0  0  0  0
  182.5170  179.1410  143.5300 C   0  0  0  0  0  3  0  0  0  0  0  0
  189.1240  177.1990  146.1000 C   0  0  0  0  0  0  0  0  0  0  0  0
  189.7850  176.8560  147.3910 C   0  0  0  0  0  1  0  0  0  0  0  0
  187.9340  177.7780  143.5510 C   0  0  0  0  0  3  0  0  0  0  0  0
  183.6820  178.1880  141.6020 C   0  0  0  0  0  3  0  0  0  0  0  0
  185.0820  178.6640  145.8550 C   0  0  0  0  0  0  0  0  0  0  0  0
  183.7640  179.1210  145.5680 N   0  0  0  0  0  0  0  0  0  0  0  0
  189.8530  177.2260  144.9780 C   0  0  0  0  0  3  0  0  0  0  0  0
  184.8240  177.9430  142.3800 C   0  0  0  0  0  3  0  0  0  0  0  0
  189.2570  177.6220  143.6810 C   0  0  0  0  0  0  0  0  0  0  0  0
  187.6970  177.5800  146.0340 C   0  0  0  0  0  0  0  0  0  0  0  0
  190.1440  177.8780  142.5140 C   0  0  0  0  0  2  0  0  0  0  0  0
  189.7860  176.9890  141.4220 N   0  0  0  0  0  2  0  0  0  0  0  0
  190.7630  177.2070  140.3690 C   0  0  0  0  0  2  0  0  0  0  0  0
  190.0620  177.6640  139.1030 C   0  0  0  0  0  2  0  0  0  0  0  0
  188.7140  177.3040  139.1510 O   0  0  0  0  0  0  0  0  0  0  0  0
  188.0890  178.1700  138.2540 C   0  0  0  0  0  2  0  0  0  0  0  0
  189.0490  178.7630  137.4360 O   0  0  0  0  0  1  0  0  0  0  0  0
  1  2  1  0  0  0  0
  1 13  1  0  0  0  0
  2 11  1  6  0  0  0
  2 18  1  0  0  0  0
  3  6  1  0  0  0  0
  4  7  1  0  0  0  0
  4  1  2  0  0  0  0
  5  8  2  0  0  0  0
  7 14  2  0  0  0  0
  8  7  1  0  0  0  0
  9 10  1  0  0  0  0
 11 17  2  0  0  0  0
 12  5  1  0  0  0  0
 12 16  2  0  0  0  0
 13  3  2  0  0  0  0
 14 13  1  0  0  0  0
 15  9  2  0  0  0  0
 16  4  1  0  0  0  0
 17 15  1  0  0  0  0
 18  9  1  0  0  0  0
 18  6  2  0  0  0  0
 19 17  1  0  0  0  0
 20 19  1  0  0  0  0
 21 20  1  0  0  0  0
 22 23  1  0  0  0  0
 22 21  1  0  0  0  0
 24 23  1  0  0  0  0
 25 24  1  0  0  0  0
M  END
>  <MODEL>
3

>  <REMARK>
 VINA RESULT:      -9.4      1.121      1.641
  Name = 
  6 active torsions:
  status: ('A' for Active; 'I' for Inactive)
    1  A    between atoms: O_2  and  C_7
    2  A    between atoms: O_2  and  C_25
    3  A    between atoms: C_6  and  N_15
    4  A    between atoms: C_6  and  C_23
    5  A    between atoms: N_15  and  C_21
    6  A    between atoms: C_21  and  C_25
                            x       y       z     vdW  Elec       q    Type
                         _______ _______ _______ _____ _____    ______ ____

>  <TORSDO>
F 6

$$$$
=
 OpenBabel10272400483D

 25 28  0  0  1  0  0  0  0  0999 V2000
  187.2780  177.9730  142.4920 C   0  0  0  0  0  0  0  0  0  0  0  0
  186.4800  177.6650  143.7200 C   0  0  1  0  0  3  0  0  0  0  0  0
  185.4900  179.1920  141.3900 C   0  0  0  0  0  3  0  0  0  0  0  0
  188.4270  177.5000  142.0410 C   0  0  0  0  0  0  0  0  0  0  0  0
  190.6860  176.7330  140.6300 C   0  0  0  0  0  3  0  0  0  0  0  0
  184.7260  179.1330  142.6630 C   0  0  0  0  0  3  0  0  0  0  0  0
  188.5910  177.9040  140.7200 C   0  0  0  0  0  0  0  0  0  0  0  0
  189.7210  177.5330  139.9930 C   0  0  0  0  0  3  0  0  0  0  0  0
  184.4820  178.5570  145.0460 C   0  0  0  0  0  0  0  0  0  0  0  0
  183.0330  178.8990  145.1270 C   0  0  0  0  0  1  0  0  0  0  0  0
  187.2580  177.8250  144.9980 C   0  0  0  0  0  3  0  0  0  0  0  0
  190.5040  176.3110  141.9620 C   0  0  0  0  0  3  0  0  0  0  0  0
  186.7070  178.6560  141.3610 C   0  0  0  0  0  0  0  0  0  0  0  0
  187.5960  178.5950  140.2490 N   0  0  0  0  0  0  0  0  0  0  0  0
  185.1760  178.3780  146.1760 C   0  0  0  0  0  3  0  0  0  0  0  0
  189.3610  176.6900  142.6840 C   0  0  0  0  0  3  0  0  0  0  0  0
  186.6310  178.0980  146.1490 C   0  0  0  0  0  0  0  0  0  0  0  0
  185.1890  178.4780  143.7510 C   0  0  0  0  0  0  0  0  0  0  0  0
  187.4110  178.1510  147.4150 C   0  0  0  0  0  2  0  0  0  0  0  0
  188.2740  176.9860  147.5080 N   0  0  0  0  0  2  0  0  0  0  0  0
  189.6350  177.4810  147.6110 C   0  0  0  0  0  2  0  0  0  0  0  0
  190.4570  176.9730  146.4420 C   0  0  0  0  0  2  0  0  0  0  0  0
  191.8160  177.0330  146.7550 O   0  0  0  0  0  0  0  0  0  0  0  0
  192.0900  175.8070  147.3610 C   0  0  0  0  0  2  0  0  0  0  0  0
  192.9820  175.9990  148.4140 O   0  0  0  0  0  1  0  0  0  0  0  0
  1  2  1  0  0  0  0
  2 18  1  0  0  0  0
  2 11  1  1  0  0  0
  3  6  1  0  0  0  0
  4  1  2  0  0  0  0
  4 16  1  0  0  0  0
  5 12  1  0  0  0  0
  6 18  2  0  0  0  0
  7  4  1  0  0  0  0
  8  5  2  0  0  0  0
  8  7  1  0  0  0  0
  9 10  1  0  0  0  0
  9 15  2  0  0  0  0
 11 17  2  0  0  0  0
 12 16  2  0  0  0  0
 13  3  2  0  0  0  0
 13  1  1  0  0  0  0
 14  7  2  0  0  0  0
 14 13  1  0  0  0  0
 17 15  1  0  0  0  0
 17 19  1  0  0  0  0
 18  9  1  0  0  0  0
 19 20  1  0  0  0  0
 20 21  1  0  0  0  0
 22 23  1  0  0  0  0
 22 21  1  0  0  0  0
 23 24  1  0  0  0  0
 24 25  1  0  0  0  0
M  END
>  <MODEL>
4

>  <REMARK>
 VINA RESULT:      -9.4      3.012      6.709
  Name = 
  6 active torsions:
  status: ('A' for Active; 'I' for Inactive)
    1  A    between atoms: O_2  and  C_7
    2  A    between atoms: O_2  and  C_25
    3  A    between atoms: C_6  and  N_15
    4  A    between atoms: C_6  and  C_23
    5  A    between atoms: N_15  and  C_21
    6  A    between atoms: C_21  and  C_25
                            x       y       z     vdW  Elec       q    Type
                         _______ _______ _______ _____ _____    ______ ____

>  <TORSDO>
F 6

$$$$
=
 OpenBabel10272400483D

 25 28  0  0  1  0  0  0  0  0999 V2000
  189.5770  177.3920  143.9370 C   0  0  0  0  0  0  0  0  0  0  0  0
  188.8820  178.0740  145.0740 C   0  0  1  0  0  3  0  0  0  0  0  0
  191.4130  176.5600  145.2930 C   0  0  0  0  0  3  0  0  0  0  0  0
  189.4160  177.4680  142.6280 C   0  0  0  0  0  0  0  0  0  0  0  0
  189.5600  177.3890  139.8610 C   0  0  0  0  0  3  0  0  0  0  0  0
  190.6650  177.0020  146.4980 C   0  0  0  0  0  3  0  0  0  0  0  0
  190.4980  176.8540  142.0060 C   0  0  0  0  0  0  0  0  0  0  0  0
  190.5880  176.7980  140.6170 C   0  0  0  0  0  3  0  0  0  0  0  0
  188.6890  177.9510  147.6230 C   0  0  0  0  0  0  0  0  0  0  0  0
  189.3170  178.0290  148.9720 C   0  0  0  0  0  1  0  0  0  0  0  0
  187.3890  177.8900  145.0630 C   0  0  0  0  0  3  0  0  0  0  0  0
  188.4760  178.0260  140.4970 C   0  0  0  0  0  3  0  0  0  0  0  0
  190.8490  176.7370  144.1010 C   0  0  0  0  0  0  0  0  0  0  0  0
  191.3950  176.3990  142.8300 N   0  0  0  0  0  0  0  0  0  0  0  0
  187.3630  178.0920  147.5100 C   0  0  0  0  0  3  0  0  0  0  0  0
  188.3960  178.0760  141.8980 C   0  0  0  0  0  3  0  0  0  0  0  0
  186.6840  177.9610  146.1990 C   0  0  0  0  0  0  0  0  0  0  0  0
  189.4830  177.6530  146.4130 C   0  0  0  0  0  0  0  0  0  0  0  0
  185.1990  177.8770  146.1480 C   0  0  0  0  0  2  0  0  0  0  0  0
  184.6490  179.1630  145.7560 N   0  0  0  0  0  2  0  0  0  0  0  0
  183.7560  178.9120  144.6380 C   0  0  0  0  0  2  0  0  0  0  0  0
  184.4040  179.3750  143.3470 C   0  0  0  0  0  2  0  0  0  0  0  0
  184.9060  178.2760  142.6470 O   0  0  0  0  0  0  0  0  0  0  0  0
  184.4970  178.4850  141.3310 C   0  0  0  0  0  2  0  0  0  0  0  0
  185.2250  179.5370  140.7800 O   0  0  0  0  0  1  0  0  0  0  0  0
  1 13  1  0  0  0  0
  1  2  1  0  0  0  0
  2 11  1  1  0  0  0
  2 18  1  0  0  0  0
  3  6  1  0  0  0  0
  4  1  2  0  0  0  0
  5 12  1  0  0  0  0
  5  8  2  0  0  0  0
  7  4  1  0  0  0  0
  7 14  2  0  0  0  0
  8  7  1  0  0  0  0
  9 10  1  0  0  0  0
 11 17  2  0  0  0  0
 12 16  2  0  0  0  0
 13  3  2  0  0  0  0
 14 13  1  0  0  0  0
 15  9  2  0  0  0  0
 16  4  1  0  0  0  0
 17 15  1  0  0  0  0
 18  6  2  0  0  0  0
 18  9  1  0  0  0  0
 19 17  1  0  0  0  0
 20 19  1  0  0  0  0
 21 20  1  0  0  0  0
 22 21  1  0  0  0  0
 23 22  1  0  0  0  0
 24 23  1  0  0  0  0
 25 24  1  0  0  0  0
M  END
>  <MODEL>
5

>  <REMARK>
 VINA RESULT:      -8.9      1.581      5.265
  Name = 
  6 active torsions:
  status: ('A' for Active; 'I' for Inactive)
    1  A    between atoms: O_2  and  C_7
    2  A    between atoms: O_2  and  C_25
    3  A    between atoms: C_6  and  N_15
    4  A    between atoms: C_6  and  C_23
    5  A    between atoms: N_15  and  C_21
    6  A    between atoms: C_21  and  C_25
                            x       y       z     vdW  Elec       q    Type
                         _______ _______ _______ _____ _____    ______ ____

>  <TORSDO>
F 6

$$$$
=
 OpenBabel10272400483D

 25 28  0  0  0  0  0  0  0  0999 V2000
  186.9390  177.8340  144.2840 C   0  0  0  0  0  0  0  0  0  0  0  0
  187.9140  177.0730  143.4400 C   0  0  0  0  0  0  0  0  0  0  0  0
  188.2660  177.6810  146.3120 C   0  0  0  0  0  3  0  0  0  0  0  0
  185.6840  178.1930  144.0800 C   0  0  0  0  0  0  0  0  0  0  0  0
  183.0450  179.0340  144.1830 C   0  0  0  0  0  3  0  0  0  0  0  0
  189.3770  177.1350  145.4920 C   0  0  0  0  0  3  0  0  0  0  0  0
  185.1420  178.6320  145.2830 C   0  0  0  0  0  0  0  0  0  0  0  0
  183.8190  179.0640  145.3570 C   0  0  0  0  0  3  0  0  0  0  0  0
  190.4050  176.4940  143.3460 C   0  0  0  0  0  0  0  0  0  0  0  0
  191.6060  175.8510  143.9500 C   0  0  0  0  0  1  0  0  0  0  0  0
  188.1130  177.6640  142.0710 C   0  0  0  0  0  2  0  0  0  0  0  0
  183.5950  178.5710  142.9710 C   0  0  0  0  0  3  0  0  0  0  0  0
  187.1390  178.0270  145.6970 C   0  0  0  0  0  0  0  0  0  0  0  0
  185.9570  178.5550  146.2920 N   0  0  0  0  0  0  0  0  0  0  0  0
  190.3990  176.7710  142.0370 C   0  0  0  0  0  3  0  0  0  0  0  0
  184.9290  178.1370  142.9090 C   0  0  0  0  0  3  0  0  0  0  0  0
  189.2550  177.4650  141.4010 C   0  0  0  0  0  0  0  0  0  0  0  0
  189.2440  176.8970  144.1670 C   0  0  0  0  0  0  0  0  0  0  0  0
  189.3880  177.9740  140.0090 C   0  0  0  0  0  2  0  0  0  0  0  0
  189.7540  176.8840  139.1210 N   0  0  0  0  0  2  0  0  0  0  0  0
  189.3950  177.3020  137.7770 C   0  0  0  0  0  2  0  0  0  0  0  0
  188.9890  178.7640  137.7840 C   0  0  0  0  0  2  0  0  0  0  0  0
  187.8840  178.9530  136.9530 O   0  0  0  0  0  0  0  0  0  0  0  0
  186.9270  178.0600  137.4330 C   0  0  0  0  0  2  0  0  0  0  0  0
  185.9930  178.7500  138.2030 O   0  0  0  0  0  1  0  0  0  0  0  0
  1 13  1  0  0  0  0
  2 18  1  0  0  0  0
  2  1  2  0  0  0  0
  4  1  1  0  0  0  0
  4  7  1  0  0  0  0
  5  8  1  0  0  0  0
  6  3  2  0  0  0  0
  7  8  2  0  0  0  0
  7 14  1  0  0  0  0
  9 10  1  0  0  0  0
  9 18  2  0  0  0  0
 11  2  1  0  0  0  0
 12  5  2  0  0  0  0
 13 14  2  0  0  0  0
 13  3  1  0  0  0  0
 15  9  1  0  0  0  0
 16 12  1  0  0  0  0
 16  4  2  0  0  0  0
 17 15  2  0  0  0  0
 17 11  1  0  0  0  0
 18  6  1  0  0  0  0
 19 17  1  0  0  0  0
 20 19  1  0  0  0  0
 21 22  1  0  0  0  0
 21 20  1  0  0  0  0
 23 24  1  0  0  0  0
 23 22  1  0  0  0  0
 24 25  1  0  0  0  0
M  END
>  <MODEL>
6

>  <REMARK>
 VINA RESULT:      -8.9      1.436      2.274
  Name = 
  6 active torsions:
  status: ('A' for Active; 'I' for Inactive)
    1  A    between atoms: O_2  and  C_7
    2  A    between atoms: O_2  and  C_25
    3  A    between atoms: C_6  and  N_15
    4  A    between atoms: C_6  and  C_23
    5  A    between atoms: N_15  and  C_21
    6  A    between atoms: C_21  and  C_25
                            x       y       z     vdW  Elec       q    Type
                         _______ _______ _______ _____ _____    ______ ____

>  <TORSDO>
F 6

$$$$
=
 OpenBabel10272400483D

 25 28  0  0  1  0  0  0  0  0999 V2000
  189.6340  177.3590  143.9860 C   0  0  0  0  0  0  0  0  0  0  0  0
  188.8300  177.1740  142.7380 C   0  0  0  0  0  0  0  0  0  0  0  0
  191.7830  177.2330  142.8610 C   0  0  0  0  0  3  0  0  0  0  0  0
  189.3080  177.3050  145.2650 C   0  0  0  0  0  0  0  0  0  0  0  0
  189.1540  177.1580  148.0290 C   0  0  0  0  0  3  0  0  0  0  0  0
  191.0590  177.2870  141.5660 C   0  0  0  0  0  3  0  0  0  0  0  0
  190.4730  177.2650  146.0250 C   0  0  0  0  0  0  0  0  0  0  0  0
  190.4180  177.1950  147.4160 C   0  0  0  0  0  3  0  0  0  0  0  0
  189.0150  177.5090  140.2070 C   0  0  0  0  0  0  0  0  0  0  0  0
  189.6740  177.1980  138.9070 C   0  0  0  0  0  1  0  0  0  0  0  0
  187.6290  178.0770  142.6570 C   0  0  0  0  0  3  0  0  0  0  0  0
  187.9780  177.1800  147.2530 C   0  0  0  0  0  3  0  0  0  0  0  0
  191.0730  177.3000  143.9840 C   0  0  0  0  0  0  0  0  0  0  0  0
  191.5650  177.2540  145.3200 N   0  0  0  0  0  0  0  0  0  0  0  0
  187.7870  178.0420  140.2080 C   0  0  0  0  0  3  0  0  0  0  0  0
  188.0440  177.2490  145.8520 C   0  0  0  0  0  3  0  0  0  0  0  0
  187.1150  178.4260  141.4710 C   0  0  0  0  0  0  0  0  0  0  0  0
  189.7080  177.3080  141.4970 C   0  0  2  0  0  3  0  0  0  0  0  0
  185.8680  179.2360  141.4220 C   0  0  0  0  0  2  0  0  0  0  0  0
  184.8050  178.5440  142.1300 N   0  0  0  0  0  2  0  0  0  0  0  0
  184.3400  179.4460  143.1690 C   0  0  0  0  0  2  0  0  0  0  0  0
  183.3140  178.7440  144.0380 C   0  0  0  0  0  2  0  0  0  0  0  0
  183.4420  179.1690  145.3620 O   0  0  0  0  0  0  0  0  0  0  0  0
  184.7250  178.7710  145.7350 C   0  0  0  0  0  2  0  0  0  0  0  0
  184.7580  178.5370  147.1080 O   0  0  0  0  0  1  0  0  0  0  0  0
  1  4  1  0  0  0  0
  2  1  2  0  0  0  0
  3 13  1  0  0  0  0
  4 16  2  0  0  0  0
  4  7  1  0  0  0  0
  6  3  2  0  0  0  0
  7  8  2  0  0  0  0
  8  5  1  0  0  0  0
  9 15  2  0  0  0  0
  9 18  1  0  0  0  0
 10  9  1  0  0  0  0
 11  2  1  0  0  0  0
 12  5  2  0  0  0  0
 13  1  1  0  0  0  0
 13 14  2  0  0  0  0
 14  7  1  0  0  0  0
 15 17  1  0  0  0  0
 16 12  1  0  0  0  0
 17 11  2  0  0  0  0
 18  6  1  1  0  0  0
 18  2  1  0  0  0  0
 19 17  1  0  0  0  0
 19 20  1  0  0  0  0
 20 21  1  0  0  0  0
 21 22  1  0  0  0  0
 22 23  1  0  0  0  0
 23 24  1  0  0  0  0
 24 25  1  0  0  0  0
M  END
>  <MODEL>
7

>  <REMARK>
 VINA RESULT:      -8.5      2.937      6.233
  Name = 
  6 active torsions:
  status: ('A' for Active; 'I' for Inactive)
    1  A    between atoms: O_2  and  C_7
    2  A    between atoms: O_2  and  C_25
    3  A    between atoms: C_6  and  N_15
    4  A    between atoms: C_6  and  C_23
    5  A    between atoms: N_15  and  C_21
    6  A    between atoms: C_21  and  C_25
                            x       y       z     vdW  Elec       q    Type
                         _______ _______ _______ _____ _____    ______ ____

>  <TORSDO>
F 6

$$$$
=
 OpenBabel10272400483D

 25 28  0  0  1  0  0  0  0  0999 V2000
  186.0940  178.3830  142.5200 C   0  0  0  0  0  0  0  0  0  0  0  0
  187.5020  178.3950  142.0140 C   0  0  0  0  0  0  0  0  0  0  0  0
  185.0930  178.7710  140.3410 C   0  0  0  0  0  3  0  0  0  0  0  0
  185.5920  178.4420  143.7410 C   0  0  0  0  0  0  0  0  0  0  0  0
  184.0770  178.6820  146.0490 C   0  0  0  0  0  3  0  0  0  0  0  0
  186.4330  178.5580  139.7370 C   0  0  0  0  0  3  0  0  0  0  0  0
  184.2250  178.6830  143.6520 C   0  0  1  0  0  3  0  0  0  0  0  0
  183.4430  178.8030  144.8000 C   0  0  0  0  0  3  0  0  0  0  0  0
  188.8260  177.9840  139.8630 C   0  0  0  0  0  0  0  0  0  0  0  0
  189.1300  178.3320  138.4460 C   0  0  0  0  0  1  0  0  0  0  0  0
  188.3690  177.3250  142.6200 C   0  0  0  0  0  3  0  0  0  0  0  0
  185.4650  178.4570  146.1320 C   0  0  0  0  0  3  0  0  0  0  0  0
  184.9710  178.6490  141.6600 C   0  0  0  0  0  0  0  0  0  0  0  0
  183.7880  178.8230  142.4360 N   0  0  0  0  0  0  0  0  0  0  0  0
  189.7180  177.2790  140.5690 C   0  0  0  0  0  3  0  0  0  0  0  0
  186.2430  178.3390  144.9690 C   0  0  0  0  0  3  0  0  0  0  0  0
  189.4350  176.8550  141.9600 C   0  0  0  0  0  0  0  0  0  0  0  0
  187.5350  178.3380  140.4890 C   0  0  0  0  0  0  0  0  0  0  0  0
  190.3330  175.8720  142.6240 C   0  0  0  0  0  2  0  0  0  0  0  0
  191.4770  176.5600  143.1970 N   0  0  0  0  0  2  0  0  0  0  0  0
  191.7160  175.9610  144.4990 C   0  0  0  0  0  2  0  0  0  0  0  0
  191.0260  176.7770  145.5750 C   0  0  0  0  0  2  0  0  0  0  0  0
  191.9260  177.0640  146.6030 O   0  0  0  0  0  0  0  0  0  0  0  0
  191.9380  175.9120  147.3890 C   0  0  0  0  0  2  0  0  0  0  0  0
  192.9460  176.0130  148.3460 O   0  0  0  0  0  1  0  0  0  0  0  0
  1  4  2  0  0  0  0
  2  1  1  0  0  0  0
  2 11  1  0  0  0  0
  3 13  1  0  0  0  0
  4 16  1  0  0  0  0
  5 12  1  0  0  0  0
  6  3  2  0  0  0  0
  6 18  1  0  0  0  0
  7  4  1  0  0  0  0
  7  8  1  1  0  0  0
  8  5  2  0  0  0  0
  9 18  1  0  0  0  0
  9 15  2  0  0  0  0
 10  9  1  0  0  0  0
 13 14  2  0  0  0  0
 13  1  1  0  0  0  0
 14  7  1  0  0  0  0
 15 17  1  0  0  0  0
 16 12  2  0  0  0  0
 17 11  2  0  0  0  0
 17 19  1  0  0  0  0
 18  2  2  0  0  0  0
 19 20  1  0  0  0  0
 20 21  1  0  0  0  0
 21 22  1  0  0  0  0
 22 23  1  0  0  0  0
 23 24  1  0  0  0  0
 24 25  1  0  0  0  0
M  END
>  <MODEL>
8

>  <REMARK>
 VINA RESULT:      -8.4      3.057      5.693
  Name = 
  6 active torsions:
  status: ('A' for Active; 'I' for Inactive)
    1  A    between atoms: O_2  and  C_7
    2  A    between atoms: O_2  and  C_25
    3  A    between atoms: C_6  and  N_15
    4  A    between atoms: C_6  and  C_23
    5  A    between atoms: N_15  and  C_21
    6  A    between atoms: C_21  and  C_25
                            x       y       z     vdW  Elec       q    Type
                         _______ _______ _______ _____ _____    ______ ____

>  <TORSDO>
F 6

$$$$
=
 OpenBabel10272400483D

 25 28  0  0  1  0  0  0  0  0999 V2000
  189.3400  177.3630  144.5490 C   0  0  0  0  0  0  0  0  0  0  0  0
  188.8280  177.0540  143.1770 C   0  0  0  0  0  0  0  0  0  0  0  0
  191.6740  177.0070  143.9780 C   0  0  0  0  0  3  0  0  0  0  0  0
  188.7300  177.4870  145.7140 C   0  0  0  0  0  0  0  0  0  0  0  0
  187.9450  177.7000  148.3640 C   0  0  0  0  0  3  0  0  0  0  0  0
  191.2670  176.9250  142.5520 C   0  0  0  0  0  3  0  0  0  0  0  0
  189.6870  177.4960  146.7230 C   0  0  0  0  0  0  0  0  0  0  0  0
  189.3150  177.6070  148.0620 C   0  0  0  0  0  3  0  0  0  0  0  0
  189.6040  177.0550  140.7380 C   0  0  0  0  0  0  0  0  0  0  0  0
  190.5170  176.5540  139.6720 C   0  0  0  0  0  1  0  0  0  0  0  0
  187.7420  177.9880  142.7160 C   0  0  0  0  0  3  0  0  0  0  0  0
  186.9790  177.6710  147.3380 C   0  0  0  0  0  3  0  0  0  0  0  0
  190.7340  177.2460  144.8880 C   0  0  0  0  0  0  0  0  0  0  0  0
  190.9070  177.3510  146.2990 N   0  0  0  0  0  0  0  0  0  0  0  0
  188.4480  177.6340  140.3910 C   0  0  0  0  0  3  0  0  0  0  0  0
  187.3660  177.5580  145.9930 C   0  0  0  0  0  3  0  0  0  0  0  0
  187.5360  178.2030  141.4100 C   0  0  0  0  0  0  0  0  0  0  0  0
  189.9720  176.9920  142.1680 C   0  0  2  0  0  3  0  0  0  0  0  0
  186.3910  179.0510  140.9790 C   0  0  0  0  0  2  0  0  0  0  0  0
  185.2110  178.7140  141.7560 N   0  0  0  0  0  2  0  0  0  0  0  0
  184.0720  178.8500  140.8650 C   0  0  0  0  0  2  0  0  0  0  0  0
  184.5520  179.1270  139.4530 C   0  0  0  0  0  2  0  0  0  0  0  0
  184.0620  180.3590  139.0180 O   0  0  0  0  0  0  0  0  0  0  0  0
  182.7170  180.1220  138.7370 C   0  0  0  0  0  2  0  0  0  0  0  0
  182.0600  181.3360  138.5490 O   0  0  0  0  0  1  0  0  0  0  0  0
  1 13  1  0  0  0  0
  1  4  1  0  0  0  0
  2  1  2  0  0  0  0
  3 13  1  0  0  0  0
  4 16  2  0  0  0  0
  4  7  1  0  0  0  0
  6  3  2  0  0  0  0
  7  8  2  0  0  0  0
  8  5  1  0  0  0  0
  9 18  1  0  0  0  0
 10  9  1  0  0  0  0
 11  2  1  0  0  0  0
 12  5  2  0  0  0  0
 13 14  2  0  0  0  0
 14  7  1  0  0  0  0
 15  9  2  0  0  0  0
 15 17  1  0  0  0  0
 16 12  1  0  0  0  0
 17 11  2  0  0  0  0
 18  6  1  1  0  0  0
 18  2  1  0  0  0  0
 19 17  1  0  0  0  0
 19 20  1  0  0  0  0
 21 20  1  0  0  0  0
 22 21  1  0  0  0  0
 23 22  1  0  0  0  0
 24 23  1  0  0  0  0
 25 24  1  0  0  0  0
M  END
>  <MODEL>
9

>  <REMARK>
 VINA RESULT:      -8.0      2.779      5.241
  Name = 
  6 active torsions:
  status: ('A' for Active; 'I' for Inactive)
    1  A    between atoms: O_2  and  C_7
    2  A    between atoms: O_2  and  C_25
    3  A    between atoms: C_6  and  N_15
    4  A    between atoms: C_6  and  C_23
    5  A    between atoms: N_15  and  C_21
    6  A    between atoms: C_21  and  C_25
                            x       y       z     vdW  Elec       q    Type
                         _______ _______ _______ _____ _____    ______ ____

>  <TORSDO>
F 6

$$$$
