=
 OpenBabel10272402103D

 32 36  0  0  1  0  0  0  0  0999 V2000
  188.7730  178.8100  139.5000 C   0  0  0  0  0  2  0  0  0  0  0  0
  189.9270  176.5290  140.7040 C   0  0  0  0  0  2  0  0  0  0  0  0
  188.3800  178.4350  140.9320 C   0  0  2  0  0  3  0  0  0  0  0  0
  188.4420  176.7520  142.7270 C   0  0  0  0  0  2  0  0  0  0  0  0
  189.9790  176.5990  139.2330 N   0  0  1  0  0  0  0  0  0  0  0  0
  187.1710  177.3620  143.2710 C   0  0  0  0  0  0  0  0  0  0  0  0
  188.5680  176.9590  141.2270 C   0  0  2  0  0  3  0  0  0  0  0  0
  186.9380  178.8070  141.2410 C   0  0  0  0  0  2  0  0  0  0  0  0
  189.0720  177.5920  138.5980 C   0  0  1  0  0  3  0  0  0  0  0  0
  186.7260  176.8900  144.5000 O   0  0  0  0  0  1  0  0  0  0  0  0
  186.5150  178.3600  142.6220 C   0  0  0  0  0  0  0  0  0  0  0  0
  186.9960  175.8760  135.8280 C   0  0  1  0  0  0  0  0  0  0  0  0
  185.4730  177.6240  138.1590 O   0  0  0  0  0  1  0  0  0  0  0  0
  186.1930  174.7360  135.7450 O   0  0  0  0  0  1  0  0  0  0  0  0
  187.2980  176.5140  134.4770 C   0  0  1  0  0  3  0  0  0  0  0  0
  186.7450  178.0130  137.7340 C   0  0  2  0  0  3  0  0  0  0  0  0
  186.2580  177.1460  135.4260 C   0  0  2  0  0  3  0  0  0  0  0  0
  186.7380  178.3500  136.2440 C   0  0  0  0  0  2  0  0  0  0  0  0
  188.0710  175.9390  136.9380 C   0  0  2  0  0  3  0  0  0  0  0  0
  188.3850  174.5550  137.4870 C   0  0  0  0  0  1  0  0  0  0  0  0
  187.7780  176.9290  138.0890 C   0  0  1  0  0  3  0  0  0  0  0  0
  189.7690  176.2590  134.3460 C   0  0  0  0  0  1  0  0  0  0  0  0
  188.6330  177.2590  134.4210 C   0  0  0  0  0  2  0  0  0  0  0  0
  193.7420  177.0880  139.6780 C   0  0  0  0  0  2  0  0  0  0  0  0
  193.4900  175.6340  137.9920 C   0  0  0  0  0  2  0  0  0  0  0  0
  191.9570  175.5800  138.0530 C   0  0  0  0  0  2  0  0  0  0  0  0
  191.3710  176.7900  138.8090 C   0  0  0  0  0  3  0  0  0  0  0  0
  193.9680  176.9190  138.3010 O   0  0  0  0  0  0  0  0  0  0  0  0
  192.2470  177.2590  139.9800 C   0  0  0  0  0  2  0  0  0  0  0  0
  185.3310  178.9820  143.1480 N   0  0  0  0  0  2  0  0  0  0  0  0
  183.9660  178.7490  142.7040 C   0  0  0  0  0  2  0  0  0  0  0  0
  182.8340  178.9370  144.1070 S   0  0  0  0  0  1  0  0  0  0  0  0
  3  1  1  6  0  0  0
  3  7  1  0  0  0  0
  3  8  1  0  0  0  0
  4  6  1  0  0  0  0
  5 27  1  1  0  0  0
  5  2  1  0  0  0  0
  6 10  1  0  0  0  0
  7  2  1  1  0  0  0
  7  4  1  0  0  0  0
  8 11  1  0  0  0  0
  9  5  1  0  0  0  0
  9  1  1  1  0  0  0
 11 30  1  0  0  0  0
 11  6  2  0  0  0  0
 12 14  1  6  0  0  0
 12 19  1  0  0  0  0
 15 23  1  1  0  0  0
 15 17  1  0  0  0  0
 15 12  1  0  0  0  0
 16 21  1  0  0  0  0
 16 13  1  6  0  0  0
 17 12  1  0  0  0  0
 17 18  1  1  0  0  0
 18 16  1  0  0  0  0
 19 20  1  1  0  0  0
 19 21  1  0  0  0  0
 21  9  1  6  0  0  0
 22 23  1  0  0  0  0
 24 29  1  0  0  0  0
 25 26  1  0  0  0  0
 25 28  1  0  0  0  0
 26 27  1  0  0  0  0
 27 29  1  0  0  0  0
 28 24  1  0  0  0  0
 31 30  1  0  0  0  0
 31 32  1  0  0  0  0
M  END
>  <MODEL>
1

>  <REMARK>
 VINA RESULT:      -6.0      0.000      0.000
  Name = 
  5 active torsions:
  status: ('A' for Active; 'I' for Inactive)
    1  A    between atoms: N_10  and  C_28
    2  A    between atoms: N_14  and  C_21
    3  A    between atoms: N_14  and  C_29
    4  A    between atoms: C_15  and  C_26
    5  A    between atoms: C_24  and  C_27
                            x       y       z     vdW  Elec       q    Type
                         _______ _______ _______ _____ _____    ______ ____

>  <TORSDO>
F 5

$$$$
=
 OpenBabel10272402103D

 32 36  0  0  1  0  0  0  0  0999 V2000
  184.4500  175.8090  137.6460 C   0  0  0  0  0  2  0  0  0  0  0  0
  184.7750  175.7980  134.8390 C   0  0  0  0  0  2  0  0  0  0  0  0
  183.3470  176.3930  136.7580 C   0  0  2  0  0  3  0  0  0  0  0  0
  182.6700  177.1440  134.5130 C   0  0  0  0  0  2  0  0  0  0  0  0
  185.9980  175.6480  135.6480 N   0  0  1  0  0  0  0  0  0  0  0  0
  181.6680  178.0580  135.1790 C   0  0  0  0  0  0  0  0  0  0  0  0
  183.8640  176.8670  135.4130 C   0  0  2  0  0  3  0  0  0  0  0  0
  182.6300  177.5520  137.4330 C   0  0  0  0  0  2  0  0  0  0  0  0
  185.8750  176.0130  137.0840 C   0  0  1  0  0  3  0  0  0  0  0  0
  180.7760  178.7210  134.3460 O   0  0  0  0  0  1  0  0  0  0  0  0
  181.6000  178.1930  136.5300 C   0  0  0  0  0  0  0  0  0  0  0  0
  188.7360  178.5170  137.7720 C   0  0  1  0  0  0  0  0  0  0  0  0
  185.7200  179.1320  138.9260 O   0  0  0  0  0  1  0  0  0  0  0  0
  189.1150  179.7620  137.2640 O   0  0  0  0  0  1  0  0  0  0  0  0
  189.7810  177.8800  138.6810 C   0  0  1  0  0  3  0  0  0  0  0  0
  186.1560  177.8090  138.8250 C   0  0  2  0  0  3  0  0  0  0  0  0
  188.5190  178.5360  139.2790 C   0  0  2  0  0  3  0  0  0  0  0  0
  187.3930  177.5810  139.6910 C   0  0  0  0  0  2  0  0  0  0  0  0
  187.8590  177.5990  136.8880 C   0  0  2  0  0  3  0  0  0  0  0  0
  187.9190  178.0120  135.4260 C   0  0  0  0  0  1  0  0  0  0  0  0
  186.3920  177.4400  137.3510 C   0  0  1  0  0  3  0  0  0  0  0  0
  191.0410  175.8200  138.0840 C   0  0  0  0  0  1  0  0  0  0  0  0
  189.7560  176.3500  138.6870 C   0  0  0  0  0  2  0  0  0  0  0  0
  187.7160  172.3990  136.6920 C   0  0  0  0  0  2  0  0  0  0  0  0
  185.9480  171.8070  135.4500 C   0  0  0  0  0  2  0  0  0  0  0  0
  185.4310  173.2330  135.2140 C   0  0  0  0  0  2  0  0  0  0  0  0
  186.5240  174.2890  135.4780 C   0  0  0  0  0  3  0  0  0  0  0  0
  187.3520  171.7720  135.4870 O   0  0  0  0  0  0  0  0  0  0  0  0
  187.4690  173.9130  136.6280 C   0  0  0  0  0  2  0  0  0  0  0  0
  180.6240  179.0230  137.1800 N   0  0  0  0  0  2  0  0  0  0  0  0
  180.7290  179.5920  138.5150 C   0  0  0  0  0  2  0  0  0  0  0  0
  181.6570  181.1470  138.4370 S   0  0  0  0  0  1  0  0  0  0  0  0
  2  7  1  0  0  0  0
  2  5  1  0  0  0  0
  3  8  1  1  0  0  0
  3  1  1  0  0  0  0
  4  6  1  0  0  0  0
  5 27  1  1  0  0  0
  5  9  1  0  0  0  0
  6 11  2  0  0  0  0
  7  4  1  6  0  0  0
  7  3  1  0  0  0  0
  9  1  1  6  0  0  0
 10  6  1  0  0  0  0
 11 30  1  0  0  0  0
 11  8  1  0  0  0  0
 12 14  1  6  0  0  0
 12 15  1  0  0  0  0
 12 17  1  0  0  0  0
 15 23  1  6  0  0  0
 15 17  1  0  0  0  0
 16 13  1  6  0  0  0
 16 18  1  0  0  0  0
 17 18  1  6  0  0  0
 19 20  1  6  0  0  0
 19 21  1  0  0  0  0
 19 12  1  0  0  0  0
 21  9  1  1  0  0  0
 21 16  1  0  0  0  0
 22 23  1  0  0  0  0
 25 28  1  0  0  0  0
 26 25  1  0  0  0  0
 26 27  1  0  0  0  0
 27 29  1  0  0  0  0
 28 24  1  0  0  0  0
 29 24  1  0  0  0  0
 30 31  1  0  0  0  0
 32 31  1  0  0  0  0
M  END
>  <MODEL>
2

>  <REMARK>
 VINA RESULT:      -4.7      3.479      6.468
  Name = 
  5 active torsions:
  status: ('A' for Active; 'I' for Inactive)
    1  A    between atoms: N_10  and  C_28
    2  A    between atoms: N_14  and  C_21
    3  A    between atoms: N_14  and  C_29
    4  A    between atoms: C_15  and  C_26
    5  A    between atoms: C_24  and  C_27
                            x       y       z     vdW  Elec       q    Type
                         _______ _______ _______ _____ _____    ______ ____

>  <TORSDO>
F 5

$$$$
=
 OpenBabel10272402103D

 32 36  0  0  1  0  0  0  0  0999 V2000
  183.3570  175.4600  138.6450 C   0  0  0  0  0  2  0  0  0  0  0  0
  181.0140  176.3740  137.3560 C   0  0  0  0  0  2  0  0  0  0  0  0
  182.4180  176.4220  139.3810 C   0  0  2  0  0  3  0  0  0  0  0  0
  180.5000  177.9570  139.2470 C   0  0  0  0  0  2  0  0  0  0  0  0
  182.0780  175.8340  136.4910 N   0  0  1  0  0  0  0  0  0  0  0  0
  181.0670  178.6860  140.4430 C   0  0  0  0  0  0  0  0  0  0  0  0
  181.5880  177.2710  138.4380 C   0  0  2  0  0  3  0  0  0  0  0  0
  183.1770  177.3470  140.3190 C   0  0  0  0  0  2  0  0  0  0  0  0
  183.4190  175.6980  137.1190 C   0  0  1  0  0  3  0  0  0  0  0  0
  180.2760  179.6810  141.0030 O   0  0  0  0  0  1  0  0  0  0  0  0
  182.2710  178.3590  140.9830 C   0  0  0  0  0  0  0  0  0  0  0  0
  186.2200  177.3220  135.0120 C   0  0  1  0  0  0  0  0  0  0  0  0
  185.7430  178.2950  138.1150 O   0  0  0  0  0  1  0  0  0  0  0  0
  186.3900  178.5380  134.3460 O   0  0  0  0  0  1  0  0  0  0  0  0
  187.3010  176.2930  134.6970 C   0  0  1  0  0  3  0  0  0  0  0  0
  185.4930  176.9650  137.7710 C   0  0  2  0  0  3  0  0  0  0  0  0
  187.3130  177.0550  136.0390 C   0  0  2  0  0  3  0  0  0  0  0  0
  186.7640  176.2950  137.2510 C   0  0  0  0  0  2  0  0  0  0  0  0
  184.7810  176.8280  135.2870 C   0  0  2  0  0  3  0  0  0  0  0  0
  183.7720  177.5310  134.3910 C   0  0  0  0  0  1  0  0  0  0  0  0
  184.3320  176.8880  136.7660 C   0  0  1  0  0  3  0  0  0  0  0  0
  187.9410  173.9160  134.3460 C   0  0  0  0  0  1  0  0  0  0  0  0
  186.8320  174.8410  134.8040 C   0  0  0  0  0  2  0  0  0  0  0  0
  182.4020  172.2470  135.2170 C   0  0  0  0  0  2  0  0  0  0  0  0
  180.4760  172.3400  136.3580 C   0  0  0  0  0  2  0  0  0  0  0  0
  180.6100  173.8090  136.7830 C   0  0  0  0  0  2  0  0  0  0  0  0
  181.6240  174.5680  135.9030 C   0  0  0  0  0  3  0  0  0  0  0  0
  181.0080  172.1290  135.0750 O   0  0  0  0  0  0  0  0  0  0  0  0
  182.8140  173.7050  135.4610 C   0  0  0  0  0  2  0  0  0  0  0  0
  182.8040  179.0120  142.1470 N   0  0  0  0  0  2  0  0  0  0  0  0
  184.1010  178.7630  142.7550 C   0  0  0  0  0  2  0  0  0  0  0  0
  183.9550  178.8860  144.5580 S   0  0  0  0  0  1  0  0  0  0  0  0
  3  1  1  6  0  0  0
  3  8  1  0  0  0  0
  4  6  1  0  0  0  0
  5 27  1  1  0  0  0
  5  9  1  0  0  0  0
  5  2  1  0  0  0  0
  6 11  2  0  0  0  0
  6 10  1  0  0  0  0
  7  2  1  6  0  0  0
  7  4  1  0  0  0  0
  7  3  1  0  0  0  0
  8 11  1  0  0  0  0
  9  1  1  1  0  0  0
 11 30  1  0  0  0  0
 12 14  1  6  0  0  0
 12 19  1  0  0  0  0
 12 17  1  0  0  0  0
 15 23  1  1  0  0  0
 15 12  1  0  0  0  0
 15 17  1  0  0  0  0
 16 13  1  6  0  0  0
 17 18  1  1  0  0  0
 18 16  1  0  0  0  0
 19 20  1  6  0  0  0
 19 21  1  0  0  0  0
 21  9  1  1  0  0  0
 21 16  1  0  0  0  0
 22 23  1  0  0  0  0
 24 29  1  0  0  0  0
 25 26  1  0  0  0  0
 27 26  1  0  0  0  0
 28 24  1  0  0  0  0
 28 25  1  0  0  0  0
 29 27  1  0  0  0  0
 30 31  1  0  0  0  0
 31 32  1  0  0  0  0
M  END
>  <MODEL>
3

>  <REMARK>
 VINA RESULT:      -4.6      4.169      7.085
  Name = 
  5 active torsions:
  status: ('A' for Active; 'I' for Inactive)
    1  A    between atoms: N_10  and  C_28
    2  A    between atoms: N_14  and  C_21
    3  A    between atoms: N_14  and  C_29
    4  A    between atoms: C_15  and  C_26
    5  A    between atoms: C_24  and  C_27
                            x       y       z     vdW  Elec       q    Type
                         _______ _______ _______ _____ _____    ______ ____

>  <TORSDO>
F 5

$$$$
=
 OpenBabel10272402103D

 32 36  0  0  1  0  0  0  0  0999 V2000
  186.0410  179.5870  141.4640 C   0  0  0  0  0  2  0  0  0  0  0  0
  184.4200  177.7520  142.8750 C   0  0  0  0  0  2  0  0  0  0  0  0
  184.8080  178.9890  140.7790 C   0  0  2  0  0  3  0  0  0  0  0  0
  183.0250  177.2930  140.8280 C   0  0  0  0  0  2  0  0  0  0  0  0
  185.7900  177.9510  143.3810 N   0  0  1  0  0  0  0  0  0  0  0  0
  182.9670  177.3870  139.3210 C   0  0  0  0  0  0  0  0  0  0  0  0
  184.4030  177.6480  141.3610 C   0  0  2  0  0  3  0  0  0  0  0  0
  185.0180  178.8200  139.2820 C   0  0  0  0  0  2  0  0  0  0  0  0
  186.7350  178.6200  142.4490 C   0  0  1  0  0  3  0  0  0  0  0  0
  181.9390  176.6970  138.6900 O   0  0  0  0  0  1  0  0  0  0  0  0
  183.8410  178.1480  138.6110 C   0  0  0  0  0  0  0  0  0  0  0  0
  190.0850  176.7610  141.9480 C   0  0  1  0  0  0  0  0  0  0  0  0
  188.1020  177.2660  139.3760 O   0  0  0  0  0  1  0  0  0  0  0  0
  190.4700  175.4310  141.7650 O   0  0  0  0  0  1  0  0  0  0  0  0
  191.2520  177.7080  142.2040 C   0  0  1  0  0  3  0  0  0  0  0  0
  188.1430  178.2120  140.4020 C   0  0  2  0  0  3  0  0  0  0  0  0
  190.5620  177.6720  140.8240 C   0  0  2  0  0  3  0  0  0  0  0  0
  189.5500  178.7900  140.5480 C   0  0  0  0  0  2  0  0  0  0  0  0
  188.7300  177.0460  142.6370 C   0  0  2  0  0  3  0  0  0  0  0  0
  188.2340  175.8340  143.4100 C   0  0  0  0  0  1  0  0  0  0  0  0
  187.6200  177.5960  141.7110 C   0  0  1  0  0  3  0  0  0  0  0  0
  191.5590  178.8150  144.4110 C   0  0  0  0  0  1  0  0  0  0  0  0
  190.8930  178.9280  143.0550 C   0  0  0  0  0  2  0  0  0  0  0  0
  184.3440  178.8730  146.7950 C   0  0  0  0  0  2  0  0  0  0  0  0
  186.5540  178.6450  147.0860 C   0  0  0  0  0  2  0  0  0  0  0  0
  186.8670  178.2430  145.6380 C   0  0  0  0  0  2  0  0  0  0  0  0
  185.7290  178.6390  144.6760 C   0  0  0  0  0  3  0  0  0  0  0  0
  185.5080  179.5810  147.1420 O   0  0  0  0  0  0  0  0  0  0  0  0
  184.3320  178.5190  145.3020 C   0  0  0  0  0  2  0  0  0  0  0  0
  183.7710  178.2840  137.1820 N   0  0  0  0  0  2  0  0  0  0  0  0
  184.1090  177.2630  136.2020 C   0  0  0  0  0  2  0  0  0  0  0  0
  185.9080  177.2010  135.9920 S   0  0  0  0  0  1  0  0  0  0  0  0
  2  5  1  0  0  0  0
  3  8  1  6  0  0  0
  3  7  1  0  0  0  0
  3  1  1  0  0  0  0
  5 27  1  1  0  0  0
  6  4  1  0  0  0  0
  7  4  1  6  0  0  0
  7  2  1  0  0  0  0
  9  1  1  6  0  0  0
  9  5  1  0  0  0  0
 10  6  1  0  0  0  0
 11  8  1  0  0  0  0
 11  6  2  0  0  0  0
 12 14  1  6  0  0  0
 12 15  1  0  0  0  0
 12 19  1  0  0  0  0
 15 23  1  1  0  0  0
 16 13  1  6  0  0  0
 16 18  1  0  0  0  0
 16 21  1  0  0  0  0
 17 18  1  1  0  0  0
 17 12  1  0  0  0  0
 17 15  1  0  0  0  0
 19 20  1  6  0  0  0
 21  9  1  1  0  0  0
 21 19  1  0  0  0  0
 23 22  1  0  0  0  0
 24 28  1  0  0  0  0
 25 28  1  0  0  0  0
 26 25  1  0  0  0  0
 27 29  1  0  0  0  0
 27 26  1  0  0  0  0
 29 24  1  0  0  0  0
 30 11  1  0  0  0  0
 31 30  1  0  0  0  0
 32 31  1  0  0  0  0
M  END
>  <MODEL>
4

>  <REMARK>
 VINA RESULT:      -4.5      3.583      7.276
  Name = 
  5 active torsions:
  status: ('A' for Active; 'I' for Inactive)
    1  A    between atoms: N_10  and  C_28
    2  A    between atoms: N_14  and  C_21
    3  A    between atoms: N_14  and  C_29
    4  A    between atoms: C_15  and  C_26
    5  A    between atoms: C_24  and  C_27
                            x       y       z     vdW  Elec       q    Type
                         _______ _______ _______ _____ _____    ______ ____

>  <TORSDO>
F 5

$$$$
=
 OpenBabel10272402103D

 32 36  0  0  1  0  0  0  0  0999 V2000
  183.8360  176.3860  138.2140 C   0  0  0  0  0  2  0  0  0  0  0  0
  182.7570  176.0540  135.6240 C   0  0  0  0  0  2  0  0  0  0  0  0
  182.7040  177.3060  137.7460 C   0  0  2  0  0  3  0  0  0  0  0  0
  181.3260  178.1120  135.8730 C   0  0  0  0  0  2  0  0  0  0  0  0
  184.0920  175.4760  135.8640 N   0  0  1  0  0  0  0  0  0  0  0  0
  181.1250  179.3970  136.6430 C   0  0  0  0  0  0  0  0  0  0  0  0
  182.6380  177.4370  136.2370 C   0  0  2  0  0  3  0  0  0  0  0  0
  182.8210  178.6990  138.3450 C   0  0  0  0  0  2  0  0  0  0  0  0
  184.7960  175.9560  137.0830 C   0  0  1  0  0  3  0  0  0  0  0  0
  180.2170  180.3070  136.1160 O   0  0  0  0  0  1  0  0  0  0  0  0
  181.7600  179.6400  137.8200 C   0  0  0  0  0  0  0  0  0  0  0  0
  188.3280  177.1280  136.0430 C   0  0  1  0  0  0  0  0  0  0  0  0
  186.4500  179.0750  137.9090 O   0  0  0  0  0  1  0  0  0  0  0  0
  188.8460  178.0270  135.1080 O   0  0  0  0  0  1  0  0  0  0  0  0
  189.3850  176.2430  136.6950 C   0  0  1  0  0  3  0  0  0  0  0  0
  186.3460  177.6900  138.0480 C   0  0  2  0  0  3  0  0  0  0  0  0
  188.7780  177.4330  137.4660 C   0  0  2  0  0  3  0  0  0  0  0  0
  187.6820  177.0890  138.4810 C   0  0  0  0  0  2  0  0  0  0  0  0
  186.9170  176.5440  135.7990 C   0  0  2  0  0  3  0  0  0  0  0  0
  186.4950  176.6990  134.3460 C   0  0  0  0  0  1  0  0  0  0  0  0
  185.8120  177.0650  136.7470 C   0  0  1  0  0  3  0  0  0  0  0  0
  189.6390  173.7830  136.4290 C   0  0  0  0  0  1  0  0  0  0  0  0
  188.8670  174.8740  137.1410 C   0  0  0  0  0  2  0  0  0  0  0  0
  185.2950  171.8760  136.2910 C   0  0  0  0  0  2  0  0  0  0  0  0
  183.2030  171.9410  137.0910 C   0  0  0  0  0  2  0  0  0  0  0  0
  182.9860  173.4420  136.8550 C   0  0  0  0  0  2  0  0  0  0  0  0
  183.9940  174.0120  135.8370 C   0  0  0  0  0  3  0  0  0  0  0  0
  183.9990  171.3750  136.0810 O   0  0  0  0  0  0  0  0  0  0  0  0
  185.3830  173.3630  135.9250 C   0  0  0  0  0  2  0  0  0  0  0  0
  181.5460  180.8360  138.5860 N   0  0  0  0  0  2  0  0  0  0  0  0
  180.3570  181.1650  139.3570 C   0  0  0  0  0  2  0  0  0  0  0  0
  180.1510  179.9590  140.6940 S   0  0  0  0  0  1  0  0  0  0  0  0
  2  5  1  0  0  0  0
  3  1  1  6  0  0  0
  3  8  1  0  0  0  0
  4  7  1  0  0  0  0
  4  6  1  0  0  0  0
  5 27  1  1  0  0  0
  5  9  1  0  0  0  0
  6 11  2  0  0  0  0
  7  2  1  6  0  0  0
  7  3  1  0  0  0  0
  9  1  1  1  0  0  0
 10  6  1  0  0  0  0
 11  8  1  0  0  0  0
 11 30  1  0  0  0  0
 12 14  1  6  0  0  0
 12 15  1  0  0  0  0
 12 17  1  0  0  0  0
 15 23  1  1  0  0  0
 15 17  1  0  0  0  0
 16 13  1  6  0  0  0
 16 18  1  0  0  0  0
 17 18  1  1  0  0  0
 19 20  1  6  0  0  0
 19 12  1  0  0  0  0
 19 21  1  0  0  0  0
 21  9  1  1  0  0  0
 21 16  1  0  0  0  0
 22 23  1  0  0  0  0
 26 25  1  0  0  0  0
 27 29  1  0  0  0  0
 27 26  1  0  0  0  0
 28 24  1  0  0  0  0
 28 25  1  0  0  0  0
 29 24  1  0  0  0  0
 30 31  1  0  0  0  0
 31 32  1  0  0  0  0
M  END
>  <MODEL>
5

>  <REMARK>
 VINA RESULT:      -4.5      3.886      6.750
  Name = 
  5 active torsions:
  status: ('A' for Active; 'I' for Inactive)
    1  A    between atoms: N_10  and  C_28
    2  A    between atoms: N_14  and  C_21
    3  A    between atoms: N_14  and  C_29
    4  A    between atoms: C_15  and  C_26
    5  A    between atoms: C_24  and  C_27
                            x       y       z     vdW  Elec       q    Type
                         _______ _______ _______ _____ _____    ______ ____

>  <TORSDO>
F 5

$$$$
=
 OpenBabel10272402103D

 32 36  0  0  1  0  0  0  0  0999 V2000
  188.5940  179.2290  140.2930 C   0  0  0  0  0  2  0  0  0  0  0  0
  186.0750  177.9570  140.1400 C   0  0  0  0  0  2  0  0  0  0  0  0
  188.0540  178.7880  138.9280 C   0  0  2  0  0  3  0  0  0  0  0  0
  186.3750  177.4910  137.6820 C   0  0  0  0  0  2  0  0  0  0  0  0
  186.7370  177.9590  141.4570 N   0  0  1  0  0  0  0  0  0  0  0  0
  187.3740  177.3810  136.5540 C   0  0  0  0  0  0  0  0  0  0  0  0
  187.0620  177.6460  139.0290 C   0  0  2  0  0  3  0  0  0  0  0  0
  189.1720  178.3730  137.9840 C   0  0  0  0  0  2  0  0  0  0  0  0
  188.1860  178.2960  141.4540 C   0  0  1  0  0  3  0  0  0  0  0  0
  186.9190  176.8180  135.3680 O   0  0  0  0  0  1  0  0  0  0  0  0
  188.6440  177.8510  136.6660 C   0  0  0  0  0  0  0  0  0  0  0  0
  190.6300  175.9150  143.2670 C   0  0  1  0  0  0  0  0  0  0  0  0
  190.7270  176.1630  139.9910 O   0  0  0  0  0  1  0  0  0  0  0  0
  190.7190  174.5340  143.4590 O   0  0  0  0  0  1  0  0  0  0  0  0
  191.6070  176.7180  144.1180 C   0  0  1  0  0  3  0  0  0  0  0  0
  190.3800  177.2820  140.7510 C   0  0  2  0  0  3  0  0  0  0  0  0
  191.8750  176.5000  142.6140 C   0  0  2  0  0  3  0  0  0  0  0  0
  191.5200  177.6710  141.6900 C   0  0  0  0  0  2  0  0  0  0  0  0
  189.2450  176.5250  142.9490 C   0  0  2  0  0  3  0  0  0  0  0  0
  188.1180  175.5790  143.3370 C   0  0  0  0  0  1  0  0  0  0  0  0
  189.0600  177.0270  141.4980 C   0  0  1  0  0  3  0  0  0  0  0  0
  190.1090  178.0410  145.5980 C   0  0  0  0  0  1  0  0  0  0  0  0
  191.1190  178.1240  144.4730 C   0  0  0  0  0  2  0  0  0  0  0  0
  183.6400  179.3560  143.2040 C   0  0  0  0  0  2  0  0  0  0  0  0
  185.2200  179.1610  144.7800 C   0  0  0  0  0  2  0  0  0  0  0  0
  186.2930  178.5590  143.8610 C   0  0  0  0  0  2  0  0  0  0  0  0
  185.9830  178.8210  142.3730 C   0  0  0  0  0  3  0  0  0  0  0  0
  184.4300  180.1000  144.0970 O   0  0  0  0  0  0  0  0  0  0  0  0
  184.4830  178.7960  142.0490 C   0  0  0  0  0  2  0  0  0  0  0  0
  189.5920  177.7950  135.5880 N   0  0  0  0  0  2  0  0  0  0  0  0
  190.1830  176.5930  135.0220 C   0  0  0  0  0  2  0  0  0  0  0  0
  191.2350  175.7960  136.2640 S   0  0  0  0  0  1  0  0  0  0  0  0
  2  5  1  0  0  0  0
  3  8  1  6  0  0  0
  3  7  1  0  0  0  0
  3  1  1  0  0  0  0
  5 27  1  1  0  0  0
  6 11  2  0  0  0  0
  6  4  1  0  0  0  0
  7  4  1  6  0  0  0
  7  2  1  0  0  0  0
  9  1  1  6  0  0  0
  9  5  1  0  0  0  0
 10  6  1  0  0  0  0
 11  8  1  0  0  0  0
 12 14  1  1  0  0  0
 12 15  1  0  0  0  0
 15 23  1  6  0  0  0
 16 13  1  1  0  0  0
 16 21  1  0  0  0  0
 16 18  1  0  0  0  0
 17 18  1  6  0  0  0
 17 12  1  0  0  0  0
 17 15  1  0  0  0  0
 19 12  1  0  0  0  0
 19 20  1  6  0  0  0
 21  9  1  1  0  0  0
 21 19  1  0  0  0  0
 23 22  1  0  0  0  0
 24 28  1  0  0  0  0
 26 25  1  0  0  0  0
 27 26  1  0  0  0  0
 28 25  1  0  0  0  0
 29 27  1  0  0  0  0
 29 24  1  0  0  0  0
 30 11  1  0  0  0  0
 31 30  1  0  0  0  0
 31 32  1  0  0  0  0
M  END
>  <MODEL>
6

>  <REMARK>
 VINA RESULT:      -4.3      3.066      7.783
  Name = 
  5 active torsions:
  status: ('A' for Active; 'I' for Inactive)
    1  A    between atoms: N_10  and  C_28
    2  A    between atoms: N_14  and  C_21
    3  A    between atoms: N_14  and  C_29
    4  A    between atoms: C_15  and  C_26
    5  A    between atoms: C_24  and  C_27
                            x       y       z     vdW  Elec       q    Type
                         _______ _______ _______ _____ _____    ______ ____

>  <TORSDO>
F 5

$$$$
=
 OpenBabel10272402103D

 32 36  0  0  1  0  0  0  0  0999 V2000
  184.1290  176.5420  135.1080 C   0  0  0  0  0  2  0  0  0  0  0  0
  185.7730  176.8260  137.3890 C   0  0  0  0  0  2  0  0  0  0  0  0
  183.7440  177.5520  136.1930 C   0  0  2  0  0  3  0  0  0  0  0  0
  184.1280  178.3960  138.4730 C   0  0  0  0  0  2  0  0  0  0  0  0
  185.9210  175.5790  136.6170 N   0  0  1  0  0  0  0  0  0  0  0  0
  182.6990  178.8850  138.4770 C   0  0  0  0  0  0  0  0  0  0  0  0
  184.3110  177.1990  137.5550 C   0  0  2  0  0  3  0  0  0  0  0  0
  182.2360  177.6970  136.3240 C   0  0  0  0  0  2  0  0  0  0  0  0
  184.8270  175.2770  135.6560 C   0  0  1  0  0  3  0  0  0  0  0  0
  182.3060  179.6640  139.5570 O   0  0  0  0  0  1  0  0  0  0  0  0
  181.8440  178.6240  137.4520 C   0  0  0  0  0  0  0  0  0  0  0  0
  183.6560  171.6770  136.4300 C   0  0  1  0  0  0  0  0  0  0  0  0
  181.4300  174.0550  135.9910 O   0  0  0  0  0  1  0  0  0  0  0  0
  183.1560  171.0100  137.5510 O   0  0  0  0  0  1  0  0  0  0  0  0
  184.0150  170.7510  135.2740 C   0  0  1  0  0  3  0  0  0  0  0  0
  182.6310  174.1050  135.2810 C   0  0  2  0  0  3  0  0  0  0  0  0
  182.7230  171.5930  135.2300 C   0  0  2  0  0  3  0  0  0  0  0  0
  182.7820  172.8740  134.3890 C   0  0  0  0  0  2  0  0  0  0  0  0
  184.5010  172.9540  136.6500 C   0  0  2  0  0  3  0  0  0  0  0  0
  185.0300  173.0320  138.0740 C   0  0  0  0  0  1  0  0  0  0  0  0
  183.8130  174.2800  136.2490 C   0  0  1  0  0  3  0  0  0  0  0  0
  186.4220  170.5310  134.6840 C   0  0  0  0  0  1  0  0  0  0  0  0
  185.1380  171.2750  134.3770 C   0  0  0  0  0  2  0  0  0  0  0  0
  189.7240  175.8600  136.3870 C   0  0  0  0  0  2  0  0  0  0  0  0
  189.1420  174.1150  135.1080 C   0  0  0  0  0  2  0  0  0  0  0  0
  187.6380  174.1910  135.4050 C   0  0  0  0  0  2  0  0  0  0  0  0
  187.2340  175.5710  135.9620 C   0  0  0  0  0  3  0  0  0  0  0  0
  189.7190  175.3950  135.0610 O   0  0  0  0  0  0  0  0  0  0  0  0
  188.3060  176.2030  136.8620 C   0  0  0  0  0  2  0  0  0  0  0  0
  180.4960  179.1200  137.4180 N   0  0  0  0  0  2  0  0  0  0  0  0
  180.0920  180.5050  137.2310 C   0  0  0  0  0  2  0  0  0  0  0  0
  180.3010  180.9640  135.4900 S   0  0  0  0  0  1  0  0  0  0  0  0
  3  1  1  6  0  0  0
  3  8  1  0  0  0  0
  3  7  1  0  0  0  0
  4  6  1  0  0  0  0
  5 27  1  6  0  0  0
  5  2  1  0  0  0  0
  6 10  1  0  0  0  0
  7  2  1  6  0  0  0
  7  4  1  0  0  0  0
  8 11  1  0  0  0  0
  9  1  1  1  0  0  0
  9  5  1  0  0  0  0
 11  6  2  0  0  0  0
 12 19  1  0  0  0  0
 12 14  1  1  0  0  0
 15 23  1  6  0  0  0
 15 12  1  0  0  0  0
 16 13  1  1  0  0  0
 16 21  1  0  0  0  0
 17 18  1  6  0  0  0
 17 15  1  0  0  0  0
 17 12  1  0  0  0  0
 18 16  1  0  0  0  0
 19 20  1  1  0  0  0
 21  9  1  6  0  0  0
 21 19  1  0  0  0  0
 23 22  1  0  0  0  0
 24 29  1  0  0  0  0
 25 26  1  0  0  0  0
 26 27  1  0  0  0  0
 27 29  1  0  0  0  0
 28 25  1  0  0  0  0
 28 24  1  0  0  0  0
 30 11  1  0  0  0  0
 31 30  1  0  0  0  0
 32 31  1  0  0  0  0
M  END
>  <MODEL>
7

>  <REMARK>
 VINA RESULT:      -4.1      4.499      6.166
  Name = 
  5 active torsions:
  status: ('A' for Active; 'I' for Inactive)
    1  A    between atoms: N_10  and  C_28
    2  A    between atoms: N_14  and  C_21
    3  A    between atoms: N_14  and  C_29
    4  A    between atoms: C_15  and  C_26
    5  A    between atoms: C_24  and  C_27
                            x       y       z     vdW  Elec       q    Type
                         _______ _______ _______ _____ _____    ______ ____

>  <TORSDO>
F 5

$$$$
=
 OpenBabel10272402103D

 32 36  0  0  1  0  0  0  0  0999 V2000
  189.2270  175.4220  138.6030 C   0  0  0  0  0  2  0  0  0  0  0  0
  190.8960  176.5230  136.6060 C   0  0  0  0  0  2  0  0  0  0  0  0
  188.5960  176.1450  137.4090 C   0  0  2  0  0  3  0  0  0  0  0  0
  188.9320  177.5930  135.4470 C   0  0  0  0  0  2  0  0  0  0  0  0
  191.5210  176.2440  137.9120 N   0  0  1  0  0  0  0  0  0  0  0  0
  187.4970  178.0410  135.5980 C   0  0  0  0  0  0  0  0  0  0  0  0
  189.5290  177.1600  136.7760 C   0  0  2  0  0  3  0  0  0  0  0  0
  187.3050  176.8520  137.7920 C   0  0  0  0  0  2  0  0  0  0  0  0
  190.5840  176.0150  139.0440 C   0  0  1  0  0  3  0  0  0  0  0  0
  186.9820  178.8440  134.5880 O   0  0  0  0  0  1  0  0  0  0  0  0
  186.7220  177.6420  136.6420 C   0  0  0  0  0  0  0  0  0  0  0  0
  190.8100  177.9330  142.3900 C   0  0  1  0  0  0  0  0  0  0  0  0
  188.5300  178.7790  140.1780 O   0  0  0  0  0  1  0  0  0  0  0  0
  191.3010  179.1760  142.7960 O   0  0  0  0  0  1  0  0  0  0  0  0
  190.4400  177.0110  143.5470 C   0  0  1  0  0  3  0  0  0  0  0  0
  188.9190  177.4420  140.2810 C   0  0  2  0  0  3  0  0  0  0  0  0
  189.3410  177.7360  142.7410 C   0  0  2  0  0  3  0  0  0  0  0  0
  188.6230  176.8990  141.6770 C   0  0  0  0  0  2  0  0  0  0  0  0
  191.3730  177.3080  141.0920 C   0  0  2  0  0  3  0  0  0  0  0  0
  192.6980  177.9430  140.6990 C   0  0  0  0  0  1  0  0  0  0  0  0
  190.3990  177.2890  139.8900 C   0  0  1  0  0  3  0  0  0  0  0  0
  191.7420  174.9410  143.9980 C   0  0  0  0  0  1  0  0  0  0  0  0
  190.5740  175.5210  143.2270 C   0  0  0  0  0  2  0  0  0  0  0  0
  193.4640  173.5160  136.0740 C   0  0  0  0  0  2  0  0  0  0  0  0
  194.9200  174.5020  137.4620 C   0  0  0  0  0  2  0  0  0  0  0  0
  193.9370  175.5430  138.0160 C   0  0  0  0  0  2  0  0  0  0  0  0
  192.4710  175.1360  137.7640 C   0  0  0  0  0  3  0  0  0  0  0  0
  194.2760  173.2820  137.1970 O   0  0  0  0  0  0  0  0  0  0  0  0
  192.2630  174.4020  136.4310 C   0  0  0  0  0  2  0  0  0  0  0  0
  185.3430  178.0220  136.7760 N   0  0  0  0  0  2  0  0  0  0  0  0
  184.5610  178.0060  138.0020 C   0  0  0  0  0  2  0  0  0  0  0  0
  182.8320  177.6270  137.6100 S   0  0  0  0  0  1  0  0  0  0  0  0
  2  7  1  0  0  0  0
  2  5  1  0  0  0  0
  3  8  1  1  0  0  0
  3  1  1  0  0  0  0
  4  6  1  0  0  0  0
  5 27  1  6  0  0  0
  5  9  1  0  0  0  0
  6 11  2  0  0  0  0
  7  4  1  6  0  0  0
  7  3  1  0  0  0  0
  9  1  1  6  0  0  0
 10  6  1  0  0  0  0
 11 30  1  0  0  0  0
 11  8  1  0  0  0  0
 12 17  1  0  0  0  0
 12 14  1  1  0  0  0
 12 15  1  0  0  0  0
 15 23  1  6  0  0  0
 16 13  1  1  0  0  0
 16 18  1  0  0  0  0
 17 18  1  6  0  0  0
 17 15  1  0  0  0  0
 19 20  1  6  0  0  0
 19 12  1  0  0  0  0
 21  9  1  1  0  0  0
 21 16  1  0  0  0  0
 21 19  1  0  0  0  0
 23 22  1  0  0  0  0
 24 29  1  0  0  0  0
 24 28  1  0  0  0  0
 25 26  1  0  0  0  0
 27 26  1  0  0  0  0
 28 25  1  0  0  0  0
 29 27  1  0  0  0  0
 30 31  1  0  0  0  0
 32 31  1  0  0  0  0
M  END
>  <MODEL>
8

>  <REMARK>
 VINA RESULT:      -3.9      2.745      6.037
  Name = 
  5 active torsions:
  status: ('A' for Active; 'I' for Inactive)
    1  A    between atoms: N_10  and  C_28
    2  A    between atoms: N_14  and  C_21
    3  A    between atoms: N_14  and  C_29
    4  A    between atoms: C_15  and  C_26
    5  A    between atoms: C_24  and  C_27
                            x       y       z     vdW  Elec       q    Type
                         _______ _______ _______ _____ _____    ______ ____

>  <TORSDO>
F 5

$$$$
=
 OpenBabel10272402103D

 32 36  0  0  1  0  0  0  0  0999 V2000
  189.5660  178.4490  138.9380 C   0  0  0  0  0  2  0  0  0  0  0  0
  190.9600  176.0180  139.3060 C   0  0  0  0  0  2  0  0  0  0  0  0
  189.8810  177.9680  140.3580 C   0  0  2  0  0  3  0  0  0  0  0  0
  190.6560  176.1330  141.8040 C   0  0  0  0  0  2  0  0  0  0  0  0
  190.3040  176.2140  138.0000 N   0  0  1  0  0  0  0  0  0  0  0  0
  189.8600  176.7540  142.9290 C   0  0  0  0  0  0  0  0  0  0  0  0
  190.0620  176.4650  140.4450 C   0  0  2  0  0  3  0  0  0  0  0  0
  188.8030  178.3810  141.3480 C   0  0  0  0  0  2  0  0  0  0  0  0
  189.2910  177.3010  137.9400 C   0  0  1  0  0  3  0  0  0  0  0  0
  190.0230  176.1990  144.1910 O   0  0  0  0  0  1  0  0  0  0  0  0
  189.0600  177.8360  142.7350 C   0  0  0  0  0  0  0  0  0  0  0  0
  186.0570  175.7950  136.4550 C   0  0  1  0  0  0  0  0  0  0  0  0
  185.9010  177.6180  139.1860 O   0  0  0  0  0  1  0  0  0  0  0  0
  185.2210  174.7220  136.7710 O   0  0  0  0  0  1  0  0  0  0  0  0
  185.7590  176.4300  135.1020 C   0  0  1  0  0  3  0  0  0  0  0  0
  186.8660  177.9150  138.2220 C   0  0  2  0  0  3  0  0  0  0  0  0
  185.3160  177.1250  136.4060 C   0  0  2  0  0  3  0  0  0  0  0  0
  186.2060  178.2750  136.8920 C   0  0  0  0  0  2  0  0  0  0  0  0
  187.5210  175.7570  136.9530 C   0  0  2  0  0  3  0  0  0  0  0  0
  187.9440  174.3450  137.3270 C   0  0  0  0  0  1  0  0  0  0  0  0
  187.8600  176.7490  138.0900 C   0  0  1  0  0  3  0  0  0  0  0  0
  188.1150  176.0740  134.3880 C   0  0  0  0  0  1  0  0  0  0  0  0
  186.9740  177.0700  134.4290 C   0  0  0  0  0  2  0  0  0  0  0  0
  193.8390  176.2970  136.5540 C   0  0  0  0  0  2  0  0  0  0  0  0
  192.5630  175.2420  135.0430 C   0  0  0  0  0  2  0  0  0  0  0  0
  191.2640  175.3010  135.8590 C   0  0  0  0  0  2  0  0  0  0  0  0
  191.3310  176.3740  136.9640 C   0  0  0  0  0  3  0  0  0  0  0  0
  193.3430  176.3940  135.2420 O   0  0  0  0  0  0  0  0  0  0  0  0
  192.7260  176.5230  137.5870 C   0  0  0  0  0  2  0  0  0  0  0  0
  188.3330  178.4650  143.8020 N   0  0  0  0  0  2  0  0  0  0  0  0
  187.0760  178.0080  144.3750 C   0  0  0  0  0  2  0  0  0  0  0  0
  187.3000  177.6920  146.1460 S   0  0  0  0  0  1  0  0  0  0  0  0
  3  1  1  6  0  0  0
  3  7  1  0  0  0  0
  3  8  1  0  0  0  0
  4  6  1  0  0  0  0
  5 27  1  6  0  0  0
  5  2  1  0  0  0  0
  6 10  1  0  0  0  0
  7  2  1  6  0  0  0
  7  4  1  0  0  0  0
  8 11  1  0  0  0  0
  9  5  1  0  0  0  0
  9  1  1  1  0  0  0
 11  6  2  0  0  0  0
 11 30  1  0  0  0  0
 12 14  1  1  0  0  0
 12 19  1  0  0  0  0
 15 23  1  1  0  0  0
 15 17  1  0  0  0  0
 15 12  1  0  0  0  0
 16 13  1  1  0  0  0
 17 12  1  0  0  0  0
 17 18  1  1  0  0  0
 18 16  1  0  0  0  0
 19 20  1  1  0  0  0
 19 21  1  0  0  0  0
 21  9  1  6  0  0  0
 21 16  1  0  0  0  0
 22 23  1  0  0  0  0
 24 29  1  0  0  0  0
 25 28  1  0  0  0  0
 25 26  1  0  0  0  0
 26 27  1  0  0  0  0
 27 29  1  0  0  0  0
 28 24  1  0  0  0  0
 30 31  1  0  0  0  0
 31 32  1  0  0  0  0
M  END
>  <MODEL>
9

>  <REMARK>
 VINA RESULT:      -3.7      1.868      2.226
  Name = 
  5 active torsions:
  status: ('A' for Active; 'I' for Inactive)
    1  A    between atoms: N_10  and  C_28
    2  A    between atoms: N_14  and  C_21
    3  A    between atoms: N_14  and  C_29
    4  A    between atoms: C_15  and  C_26
    5  A    between atoms: C_24  and  C_27
                            x       y       z     vdW  Elec       q    Type
                         _______ _______ _______ _____ _____    ______ ____

>  <TORSDO>
F 5

$$$$
