=
 OpenBabel10272402053D

 32 35  0  0  1  0  0  0  0  0999 V2000
  189.2760  175.3650  137.7110 C   0  0  1  0  0  3  0  0  0  0  0  0
  188.6410  176.6010  138.3810 C   0  0  2  0  0  3  0  0  0  0  0  0
  188.4050  174.6600  136.6530 C   0  0  2  0  0  3  0  0  0  0  0  0
  184.0080  177.4840  137.3340 C   0  0  0  0  0  3  0  0  0  0  0  0
  187.7710  177.4350  137.4540 C   0  0  0  0  0  2  0  0  0  0  0  0
  184.6810  175.1730  137.1290 C   0  0  0  0  0  3  0  0  0  0  0  0
  186.0310  175.5320  137.2210 C   0  0  0  0  0  0  0  0  0  0  0  0
  188.3010  175.3510  135.2860 C   0  0  0  0  0  2  0  0  0  0  0  0
  190.7540  175.3950  137.4150 C   0  0  0  0  0  0  0  0  0  0  0  0
  187.0140  174.3810  137.2250 C   0  0  0  0  0  2  0  0  0  0  0  0
  191.3700  176.1780  136.2880 C   0  0  0  0  0  2  0  0  0  0  0  0
  191.4950  174.7340  138.1230 O   0  0  0  0  0  0  0  0  0  0  0  0
  189.6400  175.5660  134.6060 C   0  0  0  0  0  2  0  0  0  0  0  0
  186.3680  176.9060  137.3990 C   0  0  0  0  0  0  0  0  0  0  0  0
  190.3710  176.7130  135.2770 C   0  0  0  0  0  2  0  0  0  0  0  0
  183.6750  176.1400  137.1800 C   0  0  0  0  0  3  0  0  0  0  0  0
  185.3460  177.8620  137.4380 C   0  0  0  0  0  3  0  0  0  0  0  0
  189.7350  178.6500  138.9840 O   0  0  0  0  0  1  0  0  0  0  0  0
  189.4320  177.3710  139.4680 C   0  0  1  0  0  0  0  0  0  0  0  0
  188.0270  176.9170  142.9450 C   0  0  0  0  0  3  0  0  0  0  0  0
  186.7230  178.5780  141.8000 C   0  0  0  0  0  3  0  0  0  0  0  0
  188.5830  177.5280  140.6800 N   0  0  0  0  0  0  0  0  0  0  0  0
  186.9680  177.8270  142.9520 C   0  0  0  0  0  0  0  0  0  0  0  0
  187.5360  178.4120  140.6810 C   0  0  0  0  0  3  0  0  0  0  0  0
  188.8230  176.7720  141.8070 C   0  0  0  0  0  0  0  0  0  0  0  0
  189.7650  175.9330  141.8370 O   0  0  0  0  0  0  0  0  0  0  0  0
  184.9110  178.4350  144.0440 N   0  0  0  0  0  2  0  0  0  0  0  0
  186.6370  177.6490  145.5080 C   0  0  0  0  0  1  0  0  0  0  0  0
  186.1200  177.9900  144.1510 C   0  0  0  0  0  0  0  0  0  0  0  0
  190.7650  176.6470  139.7900 C   0  0  0  0  0  2  0  0  0  0  0  0
  191.8740  177.5570  140.3030 C   0  0  0  0  0  2  0  0  0  0  0  0
  193.1970  177.1980  139.6550 C   0  0  0  0  0  1  0  0  0  0  0  0
  1  9  1  6  0  0  0
  1  2  1  0  0  0  0
  2 19  1  6  0  0  0
  3  8  1  6  0  0  0
  3 10  1  0  0  0  0
  3  1  1  0  0  0  0
  4 17  1  0  0  0  0
  5  2  1  0  0  0  0
  6 16  1  0  0  0  0
  6  7  2  0  0  0  0
  7 10  1  0  0  0  0
  7 14  1  0  0  0  0
  9 12  2  0  0  0  0
 11  9  1  0  0  0  0
 13 15  1  0  0  0  0
 13  8  1  0  0  0  0
 14 17  2  0  0  0  0
 14  5  1  0  0  0  0
 15 11  1  0  0  0  0
 16  4  2  0  0  0  0
 19 18  1  6  0  0  0
 19 30  1  0  0  0  0
 19 22  1  0  0  0  0
 20 23  2  0  0  0  0
 21 23  1  0  0  0  0
 22 24  1  0  0  0  0
 22 25  1  0  0  0  0
 23 29  1  0  0  0  0
 24 21  2  0  0  0  0
 25 26  2  0  0  0  0
 25 20  1  0  0  0  0
 27 29  2  0  0  0  0
 29 28  1  0  0  0  0
 30 31  1  0  0  0  0
 32 31  1  0  0  0  0
M  END
>  <MODEL>
1

>  <REMARK>
 VINA RESULT:      -7.1      0.000      0.000
  Name = 
  5 active torsions:
  status: ('A' for Active; 'I' for Inactive)
    1  A    between atoms: C_1  and  C_4
    2  A    between atoms: C_1  and  C_27
    3  A    between atoms: C_5  and  C_27
    4  A    between atoms: N_16  and  C_27
    5  A    between atoms: C_19  and  C_26
                            x       y       z     vdW  Elec       q    Type
                         _______ _______ _______ _____ _____    ______ ____

>  <TORSDO>
F 5

$$$$
=
 OpenBabel10272402053D

 32 35  0  0  1  0  0  0  0  0999 V2000
  183.5750  177.0650  135.5170 C   0  0  1  0  0  3  0  0  0  0  0  0
  183.9460  177.4210  136.9710 C   0  0  2  0  0  3  0  0  0  0  0  0
  184.7480  176.6260  134.6180 C   0  0  2  0  0  3  0  0  0  0  0  0
  188.6600  177.5590  138.0240 C   0  0  0  0  0  3  0  0  0  0  0  0
  185.0580  176.5660  137.5590 C   0  0  0  0  0  2  0  0  0  0  0  0
  188.1150  177.9770  135.7080 C   0  0  0  0  0  3  0  0  0  0  0  0
  186.8030  177.5340  135.9100 C   0  0  0  0  0  0  0  0  0  0  0  0
  185.2760  175.2010  134.8350 C   0  0  0  0  0  2  0  0  0  0  0  0
  182.2690  176.3520  135.2680 C   0  0  0  0  0  0  0  0  0  0  0  0
  185.8840  177.6450  134.7110 C   0  0  0  0  0  2  0  0  0  0  0  0
  182.0380  174.8950  135.5620 C   0  0  0  0  0  2  0  0  0  0  0  0
  181.3490  176.9910  134.7890 O   0  0  0  0  0  0  0  0  0  0  0  0
  184.2230  174.1240  134.6530 C   0  0  0  0  0  2  0  0  0  0  0  0
  186.4100  177.1160  137.2160 C   0  0  0  0  0  0  0  0  0  0  0  0
  183.3020  174.1070  135.8570 C   0  0  0  0  0  2  0  0  0  0  0  0
  189.0400  177.9860  136.7540 C   0  0  0  0  0  3  0  0  0  0  0  0
  187.3540  177.1230  138.2500 C   0  0  0  0  0  3  0  0  0  0  0  0
  181.8940  176.8620  138.0810 O   0  0  0  0  0  1  0  0  0  0  0  0
  182.8390  177.8870  137.9500 C   0  0  1  0  0  0  0  0  0  0  0  0
  184.9440  179.3580  140.7200 C   0  0  0  0  0  3  0  0  0  0  0  0
  183.6110  177.5800  141.6300 C   0  0  0  0  0  3  0  0  0  0  0  0
  183.4360  178.1360  139.2900 N   0  0  0  0  0  0  0  0  0  0  0  0
  184.5590  178.5870  141.8190 C   0  0  0  0  0  0  0  0  0  0  0  0
  183.0670  177.3700  140.3640 C   0  0  0  0  0  3  0  0  0  0  0  0
  184.3830  179.1230  139.4640 C   0  0  0  0  0  0  0  0  0  0  0  0
  184.7630  179.8350  138.4940 O   0  0  0  0  0  0  0  0  0  0  0  0
  184.7180  179.8000  143.8910 N   0  0  0  0  0  2  0  0  0  0  0  0
  186.2420  177.9630  143.6770 C   0  0  0  0  0  1  0  0  0  0  0  0
  185.1460  178.8290  143.1530 C   0  0  0  0  0  0  0  0  0  0  0  0
  182.1180  179.1450  137.4000 C   0  0  0  0  0  2  0  0  0  0  0  0
  181.1090  179.7680  138.3580 C   0  0  0  0  0  2  0  0  0  0  0  0
  181.3810  181.2500  138.5220 C   0  0  0  0  0  1  0  0  0  0  0  0
  1  9  1  1  0  0  0
  1  2  1  0  0  0  0
  2  5  1  0  0  0  0
  2 19  1  1  0  0  0
  3 10  1  1  0  0  0
  3  8  1  0  0  0  0
  3  1  1  0  0  0  0
  4 17  1  0  0  0  0
  6  7  2  0  0  0  0
  6 16  1  0  0  0  0
  7 14  1  0  0  0  0
  9 11  1  0  0  0  0
 10  7  1  0  0  0  0
 11 15  1  0  0  0  0
 12  9  2  0  0  0  0
 13  8  1  0  0  0  0
 13 15  1  0  0  0  0
 14  5  1  0  0  0  0
 14 17  2  0  0  0  0
 16  4  2  0  0  0  0
 19 18  1  1  0  0  0
 19 22  1  0  0  0  0
 20 23  2  0  0  0  0
 21 23  1  0  0  0  0
 22 25  1  0  0  0  0
 22 24  1  0  0  0  0
 23 29  1  0  0  0  0
 24 21  2  0  0  0  0
 25 20  1  0  0  0  0
 26 25  2  0  0  0  0
 29 28  1  0  0  0  0
 29 27  2  0  0  0  0
 30 19  1  0  0  0  0
 30 31  1  0  0  0  0
 31 32  1  0  0  0  0
M  END
>  <MODEL>
2

>  <REMARK>
 VINA RESULT:      -6.6      3.339      6.234
  Name = 
  5 active torsions:
  status: ('A' for Active; 'I' for Inactive)
    1  A    between atoms: C_1  and  C_4
    2  A    between atoms: C_1  and  C_27
    3  A    between atoms: C_5  and  C_27
    4  A    between atoms: N_16  and  C_27
    5  A    between atoms: C_19  and  C_26
                            x       y       z     vdW  Elec       q    Type
                         _______ _______ _______ _____ _____    ______ ____

>  <TORSDO>
F 5

$$$$
=
 OpenBabel10272402053D

 32 35  0  0  1  0  0  0  0  0999 V2000
  187.3690  176.1730  137.3440 C   0  0  1  0  0  3  0  0  0  0  0  0
  187.3800  177.3490  138.3420 C   0  0  2  0  0  3  0  0  0  0  0  0
  186.0340  175.9310  136.6130 C   0  0  2  0  0  3  0  0  0  0  0  0
  183.1320  179.4820  139.2110 C   0  0  0  0  0  3  0  0  0  0  0  0
  186.5390  178.5400  137.9110 C   0  0  0  0  0  2  0  0  0  0  0  0
  182.9950  177.1770  138.5010 C   0  0  0  0  0  3  0  0  0  0  0  0
  184.3420  177.1860  138.1230 C   0  0  0  0  0  0  0  0  0  0  0  0
  185.6950  176.9040  135.4740 C   0  0  0  0  0  2  0  0  0  0  0  0
  188.6090  175.9230  136.5230 C   0  0  0  0  0  0  0  0  0  0  0  0
  184.8900  175.8650  137.6260 C   0  0  0  0  0  2  0  0  0  0  0  0
  189.0230  176.7650  135.3470 C   0  0  0  0  0  2  0  0  0  0  0  0
  189.3140  174.9730  136.8210 O   0  0  0  0  0  0  0  0  0  0  0  0
  186.7390  176.9440  134.3740 C   0  0  0  0  0  2  0  0  0  0  0  0
  185.1050  178.3740  138.3220 C   0  0  0  0  0  0  0  0  0  0  0  0
  187.9500  177.7200  134.8520 C   0  0  0  0  0  2  0  0  0  0  0  0
  182.3900  178.3150  139.0360 C   0  0  0  0  0  3  0  0  0  0  0  0
  184.4800  179.5090  138.8510 C   0  0  0  0  0  3  0  0  0  0  0  0
  189.1130  178.9470  138.7890 O   0  0  0  0  0  1  0  0  0  0  0  0
  188.6720  177.6650  139.1380 C   0  0  1  0  0  0  0  0  0  0  0  0
  188.8400  176.9050  142.8340 C   0  0  0  0  0  3  0  0  0  0  0  0
  187.0100  178.4100  142.4410 C   0  0  0  0  0  3  0  0  0  0  0  0
  188.3680  177.6630  140.5940 N   0  0  0  0  0  0  0  0  0  0  0  0
  187.7780  177.6620  143.3340 C   0  0  0  0  0  0  0  0  0  0  0  0
  187.3190  178.3950  141.0820 C   0  0  0  0  0  3  0  0  0  0  0  0
  189.1230  176.9080  141.4670 C   0  0  0  0  0  0  0  0  0  0  0  0
  190.0850  176.2050  141.0520 O   0  0  0  0  0  0  0  0  0  0  0  0
  188.3830  177.3650  145.6450 N   0  0  0  0  0  2  0  0  0  0  0  0
  186.1070  178.0170  145.2730 C   0  0  0  0  0  1  0  0  0  0  0  0
  187.4710  177.6670  144.7800 C   0  0  0  0  0  0  0  0  0  0  0  0
  189.7920  176.6530  138.7820 C   0  0  0  0  0  2  0  0  0  0  0  0
  191.1210  177.2900  138.3920 C   0  0  0  0  0  2  0  0  0  0  0  0
  192.1540  176.2210  138.0970 C   0  0  0  0  0  1  0  0  0  0  0  0
  1  9  1  6  0  0  0
  1  2  1  0  0  0  0
  2 19  1  6  0  0  0
  3  8  1  6  0  0  0
  3  1  1  0  0  0  0
  3 10  1  0  0  0  0
  5 14  1  0  0  0  0
  5  2  1  0  0  0  0
  6 16  2  0  0  0  0
  7 14  2  0  0  0  0
  7  6  1  0  0  0  0
  9 12  2  0  0  0  0
 10  7  1  0  0  0  0
 11  9  1  0  0  0  0
 13 15  1  0  0  0  0
 13  8  1  0  0  0  0
 14 17  1  0  0  0  0
 15 11  1  0  0  0  0
 16  4  1  0  0  0  0
 17  4  2  0  0  0  0
 19 18  1  6  0  0  0
 19 22  1  0  0  0  0
 20 23  2  0  0  0  0
 21 23  1  0  0  0  0
 22 24  1  0  0  0  0
 22 25  1  0  0  0  0
 23 29  1  0  0  0  0
 24 21  2  0  0  0  0
 25 20  1  0  0  0  0
 26 25  2  0  0  0  0
 29 28  1  0  0  0  0
 29 27  2  0  0  0  0
 30 19  1  0  0  0  0
 31 30  1  0  0  0  0
 32 31  1  0  0  0  0
M  END
>  <MODEL>
3

>  <REMARK>
 VINA RESULT:      -6.5      1.628      2.139
  Name = 
  5 active torsions:
  status: ('A' for Active; 'I' for Inactive)
    1  A    between atoms: C_1  and  C_4
    2  A    between atoms: C_1  and  C_27
    3  A    between atoms: C_5  and  C_27
    4  A    between atoms: N_16  and  C_27
    5  A    between atoms: C_19  and  C_26
                            x       y       z     vdW  Elec       q    Type
                         _______ _______ _______ _____ _____    ______ ____

>  <TORSDO>
F 5

$$$$
=
 OpenBabel10272402053D

 32 35  0  0  1  0  0  0  0  0999 V2000
  187.1140  173.9980  136.9330 C   0  0  1  0  0  3  0  0  0  0  0  0
  186.9910  175.4250  136.3570 C   0  0  2  0  0  3  0  0  0  0  0  0
  185.7980  173.2010  137.0230 C   0  0  2  0  0  3  0  0  0  0  0  0
  182.5130  177.0550  135.5640 C   0  0  0  0  0  3  0  0  0  0  0  0
  185.9560  175.5640  135.2520 C   0  0  0  0  0  2  0  0  0  0  0  0
  182.6980  175.3640  137.2800 C   0  0  0  0  0  3  0  0  0  0  0  0
  184.0080  175.0710  136.8840 C   0  0  0  0  0  0  0  0  0  0  0  0
  185.2590  172.6260  135.7060 C   0  0  0  0  0  2  0  0  0  0  0  0
  188.3370  173.1900  136.5790 C   0  0  0  0  0  0  0  0  0  0  0  0
  184.7290  174.0390  137.7260 C   0  0  0  0  0  2  0  0  0  0  0  0
  188.5570  172.5420  135.2390 C   0  0  0  0  0  2  0  0  0  0  0  0
  189.1930  173.0390  137.4340 O   0  0  0  0  0  0  0  0  0  0  0  0
  186.2290  171.6960  135.0020 C   0  0  0  0  0  2  0  0  0  0  0  0
  184.5880  175.8130  135.8130 C   0  0  0  0  0  0  0  0  0  0  0  0
  187.3280  172.5100  134.3480 C   0  0  0  0  0  2  0  0  0  0  0  0
  181.9520  176.3450  136.6240 C   0  0  0  0  0  3  0  0  0  0  0  0
  183.8210  176.7860  135.1610 C   0  0  0  0  0  3  0  0  0  0  0  0
  187.9060  177.5120  135.6070 O   0  0  0  0  0  1  0  0  0  0  0  0
  188.2560  176.3120  136.2380 C   0  0  1  0  0  0  0  0  0  0  0  0
  188.4590  177.6640  139.7590 C   0  0  0  0  0  3  0  0  0  0  0  0
  190.5160  176.5330  139.2500 C   0  0  0  0  0  3  0  0  0  0  0  0
  188.7610  176.6370  137.5990 N   0  0  0  0  0  0  0  0  0  0  0  0
  189.7320  177.2500  140.1560 C   0  0  0  0  0  0  0  0  0  0  0  0
  190.0150  176.2410  137.9830 C   0  0  0  0  0  3  0  0  0  0  0  0
  187.9860  177.3580  138.4820 C   0  0  0  0  0  0  0  0  0  0  0  0
  186.8340  177.7570  138.1560 O   0  0  0  0  0  0  0  0  0  0  0  0
  189.4600  178.0860  142.3970 N   0  0  0  0  0  2  0  0  0  0  0  0
  191.6630  177.2990  141.8730 C   0  0  0  0  0  1  0  0  0  0  0  0
  190.2410  177.5670  141.5070 C   0  0  0  0  0  0  0  0  0  0  0  0
  189.3370  175.6100  135.3760 C   0  0  0  0  0  2  0  0  0  0  0  0
  190.1280  176.5420  134.4660 C   0  0  0  0  0  2  0  0  0  0  0  0
  191.5970  176.1660  134.4700 C   0  0  0  0  0  1  0  0  0  0  0  0
  1  9  1  6  0  0  0
  1  3  1  0  0  0  0
  2 19  1  6  0  0  0
  2  1  1  0  0  0  0
  3  8  1  6  0  0  0
  3 10  1  0  0  0  0
  4 16  1  0  0  0  0
  5 14  1  0  0  0  0
  5  2  1  0  0  0  0
  7  6  1  0  0  0  0
  7 10  1  0  0  0  0
  9 12  2  0  0  0  0
 11  9  1  0  0  0  0
 13  8  1  0  0  0  0
 14  7  2  0  0  0  0
 15 13  1  0  0  0  0
 15 11  1  0  0  0  0
 16  6  2  0  0  0  0
 17  4  2  0  0  0  0
 17 14  1  0  0  0  0
 19 18  1  6  0  0  0
 19 22  1  0  0  0  0
 20 23  2  0  0  0  0
 21 23  1  0  0  0  0
 22 24  1  0  0  0  0
 22 25  1  0  0  0  0
 23 29  1  0  0  0  0
 24 21  2  0  0  0  0
 25 20  1  0  0  0  0
 26 25  2  0  0  0  0
 29 28  1  0  0  0  0
 29 27  2  0  0  0  0
 30 19  1  0  0  0  0
 31 32  1  0  0  0  0
 31 30  1  0  0  0  0
M  END
>  <MODEL>
4

>  <REMARK>
 VINA RESULT:      -6.5      2.511      4.002
  Name = 
  5 active torsions:
  status: ('A' for Active; 'I' for Inactive)
    1  A    between atoms: C_1  and  C_4
    2  A    between atoms: C_1  and  C_27
    3  A    between atoms: C_5  and  C_27
    4  A    between atoms: N_16  and  C_27
    5  A    between atoms: C_19  and  C_26
                            x       y       z     vdW  Elec       q    Type
                         _______ _______ _______ _____ _____    ______ ____

>  <TORSDO>
F 5

$$$$
=
 OpenBabel10272402053D

 32 35  0  0  1  0  0  0  0  0999 V2000
  182.0800  174.0670  135.5280 C   0  0  1  0  0  3  0  0  0  0  0  0
  183.2260  174.8550  136.1950 C   0  0  2  0  0  3  0  0  0  0  0  0
  182.3280  172.5570  135.3450 C   0  0  2  0  0  3  0  0  0  0  0  0
  187.3430  172.4450  136.9610 C   0  0  0  0  0  3  0  0  0  0  0  0
  183.9680  174.0840  137.2750 C   0  0  0  0  0  2  0  0  0  0  0  0
  185.9910  171.6090  135.1420 C   0  0  0  0  0  3  0  0  0  0  0  0
  184.9060  172.3910  135.5560 C   0  0  0  0  0  0  0  0  0  0  0  0
  182.1980  171.6880  136.6040 C   0  0  0  0  0  2  0  0  0  0  0  0
  180.6610  174.4520  135.8630 C   0  0  0  0  0  0  0  0  0  0  0  0
  183.6800  172.3300  134.6680 C   0  0  0  0  0  2  0  0  0  0  0  0
  179.9820  174.1140  137.1630 C   0  0  0  0  0  2  0  0  0  0  0  0
  180.0190  175.0640  135.0260 O   0  0  0  0  0  0  0  0  0  0  0  0
  180.8390  171.7800  137.2720 C   0  0  0  0  0  2  0  0  0  0  0  0
  185.0620  173.2400  136.6910 C   0  0  0  0  0  0  0  0  0  0  0  0
  180.7260  173.0980  138.0120 C   0  0  0  0  0  2  0  0  0  0  0  0
  187.2000  171.6300  135.8400 C   0  0  0  0  0  3  0  0  0  0  0  0
  186.2780  173.2410  137.3830 C   0  0  0  0  0  3  0  0  0  0  0  0
  182.1580  176.6040  137.4420 O   0  0  0  0  0  1  0  0  0  0  0  0
  183.0790  176.3830  136.4110 C   0  0  1  0  0  0  0  0  0  0  0  0
  186.7210  177.3820  136.4070 C   0  0  0  0  0  3  0  0  0  0  0  0
  185.7280  178.1050  138.4710 C   0  0  0  0  0  3  0  0  0  0  0  0
  184.3870  176.9510  136.8320 N   0  0  0  0  0  0  0  0  0  0  0  0
  186.8490  178.0200  137.6430 C   0  0  0  0  0  0  0  0  0  0  0  0
  184.5140  177.5650  138.0490 C   0  0  0  0  0  3  0  0  0  0  0  0
  185.4920  176.8490  136.0140 C   0  0  0  0  0  0  0  0  0  0  0  0
  185.4190  176.2730  134.8940 O   0  0  0  0  0  0  0  0  0  0  0  0
  188.8350  179.3240  137.2590 N   0  0  0  0  0  2  0  0  0  0  0  0
  188.6860  178.3290  139.4340 C   0  0  0  0  0  1  0  0  0  0  0  0
  188.1450  178.5890  138.0680 C   0  0  0  0  0  0  0  0  0  0  0  0
  182.5410  177.0660  135.1270 C   0  0  0  0  0  2  0  0  0  0  0  0
  181.7840  178.3660  135.3700 C   0  0  0  0  0  2  0  0  0  0  0  0
  180.6780  178.5350  134.3460 C   0  0  0  0  0  1  0  0  0  0  0  0
  1  9  1  1  0  0  0
  1  2  1  0  0  0  0
  2 19  1  1  0  0  0
  2  5  1  0  0  0  0
  3 10  1  1  0  0  0
  3  1  1  0  0  0  0
  3  8  1  0  0  0  0
  4 17  1  0  0  0  0
  6  7  2  0  0  0  0
  6 16  1  0  0  0  0
  7 14  1  0  0  0  0
  8 13  1  0  0  0  0
  9 11  1  0  0  0  0
 10  7  1  0  0  0  0
 11 15  1  0  0  0  0
 12  9  2  0  0  0  0
 13 15  1  0  0  0  0
 14  5  1  0  0  0  0
 14 17  2  0  0  0  0
 16  4  2  0  0  0  0
 19 22  1  0  0  0  0
 19 18  1  1  0  0  0
 20 23  2  0  0  0  0
 22 24  1  0  0  0  0
 23 29  1  0  0  0  0
 23 21  1  0  0  0  0
 24 21  2  0  0  0  0
 25 20  1  0  0  0  0
 25 22  1  0  0  0  0
 26 25  2  0  0  0  0
 27 29  2  0  0  0  0
 29 28  1  0  0  0  0
 30 31  1  0  0  0  0
 30 19  1  0  0  0  0
 32 31  1  0  0  0  0
M  END
>  <MODEL>
5

>  <REMARK>
 VINA RESULT:      -6.4      3.980      7.671
  Name = 
  5 active torsions:
  status: ('A' for Active; 'I' for Inactive)
    1  A    between atoms: C_1  and  C_4
    2  A    between atoms: C_1  and  C_27
    3  A    between atoms: C_5  and  C_27
    4  A    between atoms: N_16  and  C_27
    5  A    between atoms: C_19  and  C_26
                            x       y       z     vdW  Elec       q    Type
                         _______ _______ _______ _____ _____    ______ ____

>  <TORSDO>
F 5

$$$$
=
 OpenBabel10272402053D

 32 35  0  0  1  0  0  0  0  0999 V2000
  185.3220  175.0170  137.3310 C   0  0  1  0  0  3  0  0  0  0  0  0
  185.3530  176.4900  136.8740 C   0  0  2  0  0  3  0  0  0  0  0  0
  183.9240  174.4400  137.6280 C   0  0  2  0  0  3  0  0  0  0  0  0
  181.1670  178.8950  137.0590 C   0  0  0  0  0  3  0  0  0  0  0  0
  184.1770  176.8960  136.0000 C   0  0  0  0  0  2  0  0  0  0  0  0
  181.3560  177.0480  138.6040 C   0  0  0  0  0  3  0  0  0  0  0  0
  182.5000  176.5820  137.9470 C   0  0  0  0  0  0  0  0  0  0  0  0
  183.0620  174.0830  136.4080 C   0  0  0  0  0  2  0  0  0  0  0  0
  186.2980  174.0540  136.7010 C   0  0  0  0  0  0  0  0  0  0  0  0
  183.1650  175.3740  138.5720 C   0  0  0  0  0  2  0  0  0  0  0  0
  186.1540  173.5040  135.3080 C   0  0  0  0  0  2  0  0  0  0  0  0
  187.2530  173.6890  137.3640 O   0  0  0  0  0  0  0  0  0  0  0  0
  183.7080  173.0750  135.4770 C   0  0  0  0  0  2  0  0  0  0  0  0
  182.9990  177.3140  136.8290 C   0  0  0  0  0  0  0  0  0  0  0  0
  184.7980  173.7550  134.6720 C   0  0  0  0  0  2  0  0  0  0  0  0
  180.6900  178.1930  138.1640 C   0  0  0  0  0  3  0  0  0  0  0  0
  182.3120  178.4540  136.3960 C   0  0  0  0  0  3  0  0  0  0  0  0
  186.4730  178.4570  136.0780 O   0  0  0  0  0  1  0  0  0  0  0  0
  186.7130  177.1660  136.5650 C   0  0  1  0  0  0  0  0  0  0  0  0
  187.7880  178.1810  140.0400 C   0  0  0  0  0  3  0  0  0  0  0  0
  189.4630  176.7320  139.1110 C   0  0  0  0  0  3  0  0  0  0  0  0
  187.5020  177.2860  137.8200 N   0  0  0  0  0  0  0  0  0  0  0  0
  189.0040  177.5090  140.1760 C   0  0  0  0  0  0  0  0  0  0  0  0
  188.7010  176.6370  137.9470 C   0  0  0  0  0  3  0  0  0  0  0  0
  187.0490  178.0670  138.8620 C   0  0  0  0  0  0  0  0  0  0  0  0
  185.9590  178.6960  138.7740 O   0  0  0  0  0  0  0  0  0  0  0  0
  189.2260  177.9760  142.5270 N   0  0  0  0  0  2  0  0  0  0  0  0
  191.2580  177.3320  141.4290 C   0  0  0  0  0  1  0  0  0  0  0  0
  189.7940  177.6220  141.4210 C   0  0  0  0  0  0  0  0  0  0  0  0
  187.4820  176.3730  135.4760 C   0  0  0  0  0  2  0  0  0  0  0  0
  188.0420  177.2280  134.3460 C   0  0  0  0  0  2  0  0  0  0  0  0
  189.5560  177.2670  134.4110 C   0  0  0  0  0  1  0  0  0  0  0  0
  1  9  1  6  0  0  0
  1  3  1  0  0  0  0
  2 19  1  6  0  0  0
  2  1  1  0  0  0  0
  3  8  1  6  0  0  0
  3 10  1  0  0  0  0
  4 16  1  0  0  0  0
  5 14  1  0  0  0  0
  5  2  1  0  0  0  0
  7 10  1  0  0  0  0
  7  6  1  0  0  0  0
  9 12  2  0  0  0  0
 11  9  1  0  0  0  0
 13  8  1  0  0  0  0
 14  7  2  0  0  0  0
 15 11  1  0  0  0  0
 15 13  1  0  0  0  0
 16  6  2  0  0  0  0
 17 14  1  0  0  0  0
 17  4  2  0  0  0  0
 19 18  1  6  0  0  0
 19 22  1  0  0  0  0
 20 23  2  0  0  0  0
 21 23  1  0  0  0  0
 22 24  1  0  0  0  0
 22 25  1  0  0  0  0
 23 29  1  0  0  0  0
 24 21  2  0  0  0  0
 25 20  1  0  0  0  0
 26 25  2  0  0  0  0
 29 28  1  0  0  0  0
 29 27  2  0  0  0  0
 30 19  1  0  0  0  0
 31 32  1  0  0  0  0
 31 30  1  0  0  0  0
M  END
>  <MODEL>
6

>  <REMARK>
 VINA RESULT:      -6.4      2.548      4.653
  Name = 
  5 active torsions:
  status: ('A' for Active; 'I' for Inactive)
    1  A    between atoms: C_1  and  C_4
    2  A    between atoms: C_1  and  C_27
    3  A    between atoms: C_5  and  C_27
    4  A    between atoms: N_16  and  C_27
    5  A    between atoms: C_19  and  C_26
                            x       y       z     vdW  Elec       q    Type
                         _______ _______ _______ _____ _____    ______ ____

>  <TORSDO>
F 5

$$$$
=
 OpenBabel10272402053D

 32 35  0  0  1  0  0  0  0  0999 V2000
  182.3420  178.5900  138.1440 C   0  0  1  0  0  3  0  0  0  0  0  0
  183.7070  177.9170  138.4000 C   0  0  2  0  0  3  0  0  0  0  0  0
  181.2080  177.6470  137.6980 C   0  0  2  0  0  3  0  0  0  0  0  0
  184.0720  173.2510  137.2040 C   0  0  0  0  0  3  0  0  0  0  0  0
  183.6130  176.5260  139.0050 C   0  0  0  0  0  2  0  0  0  0  0  0
  182.4110  174.4970  135.9700 C   0  0  0  0  0  3  0  0  0  0  0  0
  182.5140  175.5680  136.8650 C   0  0  0  0  0  0  0  0  0  0  0  0
  180.5760  176.7760  138.7930 C   0  0  0  0  0  2  0  0  0  0  0  0
  181.9240  179.7210  139.0490 C   0  0  0  0  0  0  0  0  0  0  0  0
  181.6790  176.7850  136.5250 C   0  0  0  0  0  2  0  0  0  0  0  0
  181.4340  179.5320  140.4590 C   0  0  0  0  0  2  0  0  0  0  0  0
  181.9710  180.8570  138.6090 O   0  0  0  0  0  0  0  0  0  0  0  0
  179.9900  177.5720  139.9440 C   0  0  0  0  0  2  0  0  0  0  0  0
  183.4430  175.4800  137.9430 C   0  0  0  0  0  0  0  0  0  0  0  0
  181.1100  178.0930  140.8220 C   0  0  0  0  0  2  0  0  0  0  0  0
  183.1800  173.3440  136.1380 C   0  0  0  0  0  3  0  0  0  0  0  0
  184.1980  174.3120  138.1010 C   0  0  0  0  0  3  0  0  0  0  0  0
  184.5930  180.1330  138.6510 O   0  0  0  0  0  1  0  0  0  0  0  0
  184.9150  178.7830  138.8390 C   0  0  1  0  0  0  0  0  0  0  0  0
  186.7120  178.3720  142.1360 C   0  0  0  0  0  3  0  0  0  0  0  0
  184.3510  178.1420  142.5140 C   0  0  0  0  0  3  0  0  0  0  0  0
  185.1760  178.5700  140.2880 N   0  0  0  0  0  0  0  0  0  0  0  0
  185.6520  178.1580  143.0200 C   0  0  0  0  0  0  0  0  0  0  0  0
  184.1360  178.3470  141.1520 C   0  0  0  0  0  3  0  0  0  0  0  0
  186.4650  178.5720  140.7770 C   0  0  0  0  0  0  0  0  0  0  0  0
  187.4490  178.7550  140.0090 O   0  0  0  0  0  0  0  0  0  0  0  0
  186.8570  177.1690  144.8540 N   0  0  0  0  0  2  0  0  0  0  0  0
  185.0600  178.6210  145.4920 C   0  0  0  0  0  1  0  0  0  0  0  0
  185.9020  177.9460  144.4610 C   0  0  0  0  0  0  0  0  0  0  0  0
  186.1620  178.4580  137.9770 C   0  0  0  0  0  2  0  0  0  0  0  0
  185.8570  177.7440  136.6650 C   0  0  0  0  0  2  0  0  0  0  0  0
  186.7190  176.5040  136.5240 C   0  0  0  0  0  1  0  0  0  0  0  0
  1  2  1  0  0  0  0
  1  9  1  1  0  0  0
  2 19  1  1  0  0  0
  2  5  1  0  0  0  0
  3 10  1  6  0  0  0
  3  1  1  0  0  0  0
  3  8  1  0  0  0  0
  4 17  1  0  0  0  0
  6 16  1  0  0  0  0
  6  7  2  0  0  0  0
  7 14  1  0  0  0  0
  8 13  1  0  0  0  0
  9 11  1  0  0  0  0
 10  7  1  0  0  0  0
 11 15  1  0  0  0  0
 12  9  2  0  0  0  0
 13 15  1  0  0  0  0
 14 17  2  0  0  0  0
 14  5  1  0  0  0  0
 16  4  2  0  0  0  0
 19 18  1  6  0  0  0
 19 22  1  0  0  0  0
 20 23  2  0  0  0  0
 21 23  1  0  0  0  0
 22 25  1  0  0  0  0
 22 24  1  0  0  0  0
 23 29  1  0  0  0  0
 24 21  2  0  0  0  0
 25 20  1  0  0  0  0
 26 25  2  0  0  0  0
 29 27  2  0  0  0  0
 29 28  1  0  0  0  0
 30 19  1  0  0  0  0
 31 30  1  0  0  0  0
 32 31  1  0  0  0  0
M  END
>  <MODEL>
7

>  <REMARK>
 VINA RESULT:      -6.3      3.163      6.127
  Name = 
  5 active torsions:
  status: ('A' for Active; 'I' for Inactive)
    1  A    between atoms: C_1  and  C_4
    2  A    between atoms: C_1  and  C_27
    3  A    between atoms: C_5  and  C_27
    4  A    between atoms: N_16  and  C_27
    5  A    between atoms: C_19  and  C_26
                            x       y       z     vdW  Elec       q    Type
                         _______ _______ _______ _____ _____    ______ ____

>  <TORSDO>
F 5

$$$$
=
 OpenBabel10272402053D

 32 35  0  0  1  0  0  0  0  0999 V2000
  181.6340  177.5010  138.1740 C   0  0  1  0  0  3  0  0  0  0  0  0
  183.1400  177.3570  137.8740 C   0  0  2  0  0  3  0  0  0  0  0  0
  181.2820  178.2450  139.4770 C   0  0  2  0  0  3  0  0  0  0  0  0
  186.1800  178.7880  141.3450 C   0  0  0  0  0  3  0  0  0  0  0  0
  183.9780  178.5520  138.3000 C   0  0  0  0  0  2  0  0  0  0  0  0
  183.9970  178.1000  142.1160 C   0  0  0  0  0  3  0  0  0  0  0  0
  183.5030  178.1100  140.8070 C   0  0  0  0  0  0  0  0  0  0  0  0
  181.4260  179.7730  139.4480 C   0  0  0  0  0  2  0  0  0  0  0  0
  180.6970  177.7440  137.0180 C   0  0  0  0  0  0  0  0  0  0  0  0
  182.0700  177.6490  140.6450 C   0  0  0  0  0  2  0  0  0  0  0  0
  180.5620  179.0640  136.3080 C   0  0  0  0  0  2  0  0  0  0  0  0
  179.9940  176.8210  136.6430 O   0  0  0  0  0  0  0  0  0  0  0  0
  180.5860  180.4460  138.3780 C   0  0  0  0  0  2  0  0  0  0  0  0
  184.3880  178.4460  139.7390 C   0  0  0  0  0  0  0  0  0  0  0  0
  181.2270  180.2290  137.0210 C   0  0  0  0  0  2  0  0  0  0  0  0
  185.3230  178.4400  142.3870 C   0  0  0  0  0  3  0  0  0  0  0  0
  185.7110  178.7940  140.0320 C   0  0  0  0  0  3  0  0  0  0  0  0
  183.3940  177.4490  135.4900 O   0  0  0  0  0  1  0  0  0  0  0  0
  183.5960  176.6120  136.5940 C   0  0  1  0  0  0  0  0  0  0  0  0
  186.8580  174.8630  137.3460 C   0  0  0  0  0  3  0  0  0  0  0  0
  187.3400  176.9680  136.2960 C   0  0  0  0  0  3  0  0  0  0  0  0
  185.0510  176.3160  136.6860 N   0  0  0  0  0  0  0  0  0  0  0  0
  187.7970  175.7760  136.8610 C   0  0  0  0  0  0  0  0  0  0  0  0
  185.9710  177.2180  136.2210 C   0  0  0  0  0  3  0  0  0  0  0  0
  185.4940  175.1420  137.2590 C   0  0  0  0  0  0  0  0  0  0  0  0
  184.6770  174.2960  137.7160 O   0  0  0  0  0  0  0  0  0  0  0  0
  189.6600  174.3300  137.3390 N   0  0  0  0  0  2  0  0  0  0  0  0
  190.2540  176.5270  136.5870 C   0  0  0  0  0  1  0  0  0  0  0  0
  189.2440  175.4890  136.9470 C   0  0  0  0  0  0  0  0  0  0  0  0
  182.7600  175.3230  136.3850 C   0  0  0  0  0  2  0  0  0  0  0  0
  182.5220  174.9500  134.9260 C   0  0  0  0  0  2  0  0  0  0  0  0
  183.2260  173.6510  134.5890 C   0  0  0  0  0  1  0  0  0  0  0  0
  1  9  1  6  0  0  0
  1  3  1  0  0  0  0
  2 19  1  6  0  0  0
  2  1  1  0  0  0  0
  2  5  1  0  0  0  0
  3  8  1  6  0  0  0
  3 10  1  0  0  0  0
  4 16  1  0  0  0  0
  5 14  1  0  0  0  0
  6 16  2  0  0  0  0
  7  6  1  0  0  0  0
 10  7  1  0  0  0  0
 11  9  1  0  0  0  0
 11 15  1  0  0  0  0
 12  9  2  0  0  0  0
 13  8  1  0  0  0  0
 14 17  1  0  0  0  0
 14  7  2  0  0  0  0
 15 13  1  0  0  0  0
 17  4  2  0  0  0  0
 19 18  1  6  0  0  0
 19 22  1  0  0  0  0
 21 23  1  0  0  0  0
 22 25  1  0  0  0  0
 23 29  1  0  0  0  0
 23 20  2  0  0  0  0
 24 21  2  0  0  0  0
 24 22  1  0  0  0  0
 25 20  1  0  0  0  0
 25 26  2  0  0  0  0
 28 29  1  0  0  0  0
 29 27  2  0  0  0  0
 30 19  1  0  0  0  0
 31 30  1  0  0  0  0
 32 31  1  0  0  0  0
M  END
>  <MODEL>
8

>  <REMARK>
 VINA RESULT:      -6.3      3.683      7.840
  Name = 
  5 active torsions:
  status: ('A' for Active; 'I' for Inactive)
    1  A    between atoms: C_1  and  C_4
    2  A    between atoms: C_1  and  C_27
    3  A    between atoms: C_5  and  C_27
    4  A    between atoms: N_16  and  C_27
    5  A    between atoms: C_19  and  C_26
                            x       y       z     vdW  Elec       q    Type
                         _______ _______ _______ _____ _____    ______ ____

>  <TORSDO>
F 5

$$$$
=
 OpenBabel10272402053D

 32 35  0  0  1  0  0  0  0  0999 V2000
  187.1860  177.4950  136.1120 C   0  0  1  0  0  3  0  0  0  0  0  0
  188.3300  176.6980  136.7740 C   0  0  2  0  0  3  0  0  0  0  0  0
  186.0640  176.6490  135.4800 C   0  0  2  0  0  3  0  0  0  0  0  0
  188.2610  171.9060  136.1560 C   0  0  0  0  0  3  0  0  0  0  0  0
  187.8820  175.4180  137.4610 C   0  0  0  0  0  2  0  0  0  0  0  0
  187.1570  173.1780  134.4240 C   0  0  0  0  0  3  0  0  0  0  0  0
  187.2010  174.3350  135.2100 C   0  0  0  0  0  0  0  0  0  0  0  0
  185.0610  176.0110  136.4520 C   0  0  0  0  0  2  0  0  0  0  0  0
  186.7370  178.7760  136.7690 C   0  0  0  0  0  0  0  0  0  0  0  0
  186.6680  175.5920  134.5540 C   0  0  0  0  0  2  0  0  0  0  0  0
  185.8990  178.8320  138.0170 C   0  0  0  0  0  2  0  0  0  0  0  0
  187.0620  179.8310  136.2510 O   0  0  0  0  0  0  0  0  0  0  0  0
  184.3410  177.0150  137.3330 C   0  0  0  0  0  2  0  0  0  0  0  0
  187.8170  174.2720  136.4950 C   0  0  0  0  0  0  0  0  0  0  0  0
  185.2820  177.5030  138.4170 C   0  0  0  0  0  2  0  0  0  0  0  0
  187.6780  171.9710  134.8920 C   0  0  0  0  0  3  0  0  0  0  0  0
  188.3250  173.0510  136.9510 C   0  0  0  0  0  3  0  0  0  0  0  0
  189.4830  178.7900  136.9970 O   0  0  0  0  0  1  0  0  0  0  0  0
  189.5130  177.4570  137.4260 C   0  0  1  0  0  0  0  0  0  0  0  0
  189.8920  176.5250  141.0660 C   0  0  0  0  0  3  0  0  0  0  0  0
  188.3280  178.3390  140.8970 C   0  0  0  0  0  3  0  0  0  0  0  0
  189.3520  177.4460  138.9050 N   0  0  0  0  0  0  0  0  0  0  0  0
  189.0330  177.4320  141.6900 C   0  0  0  0  0  0  0  0  0  0  0  0
  188.4990  178.3280  139.5140 C   0  0  0  0  0  3  0  0  0  0  0  0
  190.0420  176.5370  139.6780 C   0  0  0  0  0  0  0  0  0  0  0  0
  190.8210  175.6960  139.1510 O   0  0  0  0  0  0  0  0  0  0  0  0
  189.7080  178.0610  143.9130 N   0  0  0  0  0  2  0  0  0  0  0  0
  187.7390  176.6980  143.8030 C   0  0  0  0  0  1  0  0  0  0  0  0
  188.8690  177.4290  143.1590 C   0  0  0  0  0  0  0  0  0  0  0  0
  190.8660  176.8380  136.9890 C   0  0  0  0  0  2  0  0  0  0  0  0
  190.8480  176.1780  135.6160 C   0  0  0  0  0  2  0  0  0  0  0  0
  191.4070  174.7720  135.6960 C   0  0  0  0  0  1  0  0  0  0  0  0
  1  9  1  1  0  0  0
  1  2  1  0  0  0  0
  2 19  1  1  0  0  0
  2  5  1  0  0  0  0
  3 10  1  1  0  0  0
  3  1  1  0  0  0  0
  3  8  1  0  0  0  0
  4 17  1  0  0  0  0
  6 16  1  0  0  0  0
  6  7  2  0  0  0  0
  7 14  1  0  0  0  0
  8 13  1  0  0  0  0
  9 11  1  0  0  0  0
 10  7  1  0  0  0  0
 11 15  1  0  0  0  0
 12  9  2  0  0  0  0
 13 15  1  0  0  0  0
 14 17  2  0  0  0  0
 14  5  1  0  0  0  0
 16  4  2  0  0  0  0
 19 18  1  6  0  0  0
 19 22  1  0  0  0  0
 20 23  2  0  0  0  0
 21 23  1  0  0  0  0
 22 24  1  0  0  0  0
 22 25  1  0  0  0  0
 23 29  1  0  0  0  0
 24 21  2  0  0  0  0
 25 20  1  0  0  0  0
 26 25  2  0  0  0  0
 29 28  1  0  0  0  0
 29 27  2  0  0  0  0
 30 19  1  0  0  0  0
 31 32  1  0  0  0  0
 31 30  1  0  0  0  0
M  END
>  <MODEL>
9

>  <REMARK>
 VINA RESULT:      -6.2      1.789      4.095
  Name = 
  5 active torsions:
  status: ('A' for Active; 'I' for Inactive)
    1  A    between atoms: C_1  and  C_4
    2  A    between atoms: C_1  and  C_27
    3  A    between atoms: C_5  and  C_27
    4  A    between atoms: N_16  and  C_27
    5  A    between atoms: C_19  and  C_26
                            x       y       z     vdW  Elec       q    Type
                         _______ _______ _______ _____ _____    ______ ____

>  <TORSDO>
F 5

$$$$
