=
 OpenBabel10272401043D

 27 31  0  0  1  0  0  0  0  0999 V2000
  188.5160  177.1360  144.3850 N   0  0  0  0  0  0  0  0  0  0  0  0
  187.3050  177.6050  142.3020 C   0  0  2  0  0  3  0  0  0  0  0  0
  189.8360  176.9250  142.3440 C   0  0  1  0  0  3  0  0  0  0  0  0
  187.4720  178.0840  138.3570 N   0  0  0  0  0  0  0  0  0  0  0  0
  189.0180  176.8950  136.7050 C   0  0  0  0  0  1  0  0  0  0  0  0
  186.3190  178.5240  141.6020 C   0  0  0  0  0  3  0  0  0  0  0  0
  189.4970  177.3790  139.1140 C   0  0  0  0  0  0  0  0  0  0  0  0
  192.0710  178.4900  144.3400 C   0  0  0  0  0  2  0  0  0  0  0  0
  190.8660  176.7880  139.1240 C   0  0  0  0  0  1  0  0  0  0  0  0
  191.2520  178.1190  145.5670 C   0  0  0  0  0  2  0  0  0  0  0  0
  188.8460  178.0990  140.2510 C   0  0  1  0  0  3  0  0  0  0  0  0
  187.6260  178.0680  143.7280 C   0  0  1  0  0  3  0  0  0  0  0  0
  188.7060  177.4530  138.0520 C   0  0  0  0  0  0  0  0  0  0  0  0
  187.5530  178.4340  139.5970 C   0  0  0  0  0  0  0  0  0  0  0  0
  189.5310  176.6120  143.7890 C   0  0  0  0  0  0  0  0  0  0  0  0
  188.5780  177.2170  141.4830 C   0  0  2  0  0  3  0  0  0  0  0  0
  191.1550  178.9660  143.2220 C   0  0  0  0  0  2  0  0  0  0  0  0
  186.4230  178.8530  140.3500 N   0  0  0  0  0  0  0  0  0  0  0  0
  191.1200  176.6030  145.7630 C   0  0  0  0  0  2  0  0  0  0  0  0
  190.5360  175.8270  144.5720 C   0  0  0  0  0  2  0  0  0  0  0  0
  191.0280  177.8840  142.1550 C   0  0  0  0  0  2  0  0  0  0  0  0
  184.1200  178.6100  146.1570 C   0  0  0  0  0  3  0  0  0  0  0  0
  186.3950  178.2600  144.5630 C   0  0  0  0  0  0  0  0  0  0  0  0
  186.4860  178.1370  145.9540 C   0  0  0  0  0  3  0  0  0  0  0  0
  185.3510  178.3120  146.7500 C   0  0  0  0  0  3  0  0  0  0  0  0
  184.0230  178.7320  144.7680 C   0  0  0  0  0  3  0  0  0  0  0  0
  185.1590  178.5570  143.9710 C   0  0  0  0  0  3  0  0  0  0  0  0
  2  6  1  6  0  0  0
  2 12  1  0  0  0  0
  3 21  1  1  0  0  0
  3 15  1  0  0  0  0
  4 14  2  0  0  0  0
  5 13  1  0  0  0  0
  7  9  1  0  0  0  0
  8 10  1  0  0  0  0
 10 19  1  0  0  0  0
 11  7  1  6  0  0  0
 11 16  1  0  0  0  0
 12  1  1  0  0  0  0
 12 23  1  1  0  0  0
 13  4  1  0  0  0  0
 13  7  2  0  0  0  0
 14 11  1  0  0  0  0
 14 18  1  0  0  0  0
 15  1  2  0  0  0  0
 15 20  1  0  0  0  0
 16  2  1  0  0  0  0
 16  3  1  0  0  0  0
 17  8  1  0  0  0  0
 18  6  2  0  0  0  0
 20 19  1  0  0  0  0
 21 17  1  0  0  0  0
 22 25  1  0  0  0  0
 23 24  1  0  0  0  0
 24 25  2  0  0  0  0
 26 22  2  0  0  0  0
 27 23  2  0  0  0  0
 27 26  1  0  0  0  0
M  END
>  <MODEL>
1

>  <REMARK>
 VINA RESULT:      -8.9      0.000      0.000
  Name = 
  1 active torsions:
  status: ('A' for Active; 'I' for Inactive)
    1  A    between atoms: C_9  and  C_15
                            x       y       z     vdW  Elec       q    Type
                         _______ _______ _______ _____ _____    ______ ____

>  <TORSDO>
F 1

$$$$
=
 OpenBabel10272401043D

 27 31  0  0  1  0  0  0  0  0999 V2000
  189.2510  178.1970  140.9880 N   0  0  0  0  0  0  0  0  0  0  0  0
  186.8520  178.5340  140.5920 C   0  0  2  0  0  3  0  0  0  0  0  0
  187.8670  178.2840  142.9960 C   0  0  1  0  0  3  0  0  0  0  0  0
  183.1870  178.7020  142.1290 N   0  0  0  0  0  0  0  0  0  0  0  0
  182.5020  179.5490  144.4410 C   0  0  0  0  0  1  0  0  0  0  0  0
  185.6510  178.1420  139.7480 C   0  0  0  0  0  3  0  0  0  0  0  0
  184.7000  178.5280  143.8160 C   0  0  0  0  0  0  0  0  0  0  0  0
  189.9310  175.7310  143.8040 C   0  0  0  0  0  2  0  0  0  0  0  0
  185.3020  178.6010  145.1790 C   0  0  0  0  0  1  0  0  0  0  0  0
  190.8950  176.1480  142.7050 C   0  0  0  0  0  2  0  0  0  0  0  0
  185.3280  177.8950  142.6160 C   0  0  1  0  0  3  0  0  0  0  0  0
  188.1150  177.7530  140.2090 C   0  0  1  0  0  3  0  0  0  0  0  0
  183.4700  178.9120  143.5030 C   0  0  0  0  0  0  0  0  0  0  0  0
  184.2390  178.1410  141.6340 C   0  0  0  0  0  0  0  0  0  0  0  0
  189.1720  178.4330  142.2530 C   0  0  0  0  0  0  0  0  0  0  0  0
  186.6130  178.5920  142.1350 C   0  0  2  0  0  3  0  0  0  0  0  0
  188.4960  175.7950  143.2970 C   0  0  0  0  0  2  0  0  0  0  0  0
  184.4540  178.0150  140.2350 N   0  0  0  0  0  0  0  0  0  0  0  0
  191.4600  177.5600  142.9070 C   0  0  0  0  0  2  0  0  0  0  0  0
  190.4170  178.6790  143.0470 C   0  0  0  0  0  2  0  0  0  0  0  0
  187.7940  177.0190  143.8750 C   0  0  0  0  0  2  0  0  0  0  0  0
  189.0320  178.0110  136.0160 C   0  0  0  0  0  3  0  0  0  0  0  0
  188.4370  177.8580  138.7490 C   0  0  0  0  0  0  0  0  0  0  0  0
  188.3280  176.7210  137.9410 C   0  0  0  0  0  3  0  0  0  0  0  0
  188.6240  176.7970  136.5770 C   0  0  0  0  0  3  0  0  0  0  0  0
  189.1450  179.1500  136.8190 C   0  0  0  0  0  3  0  0  0  0  0  0
  188.8490  179.0750  138.1840 C   0  0  0  0  0  3  0  0  0  0  0  0
  1 15  2  0  0  0  0
  2  6  1  6  0  0  0
  2 16  1  0  0  0  0
  3 21  1  6  0  0  0
  4 13  1  0  0  0  0
  6 18  2  0  0  0  0
  7  9  1  0  0  0  0
 10 19  1  0  0  0  0
 10  8  1  0  0  0  0
 11 14  1  6  0  0  0
 11  7  1  0  0  0  0
 12 23  1  6  0  0  0
 12  2  1  0  0  0  0
 12  1  1  0  0  0  0
 13  7  2  0  0  0  0
 13  5  1  0  0  0  0
 14  4  2  0  0  0  0
 15  3  1  0  0  0  0
 15 20  1  0  0  0  0
 16 11  1  0  0  0  0
 16  3  1  0  0  0  0
 17  8  1  0  0  0  0
 17 21  1  0  0  0  0
 18 14  1  0  0  0  0
 19 20  1  0  0  0  0
 22 25  2  0  0  0  0
 22 26  1  0  0  0  0
 24 23  2  0  0  0  0
 25 24  1  0  0  0  0
 26 27  2  0  0  0  0
 27 23  1  0  0  0  0
M  END
>  <MODEL>
2

>  <REMARK>
 VINA RESULT:      -8.1      1.678      6.003
  Name = 
  1 active torsions:
  status: ('A' for Active; 'I' for Inactive)
    1  A    between atoms: C_9  and  C_15
                            x       y       z     vdW  Elec       q    Type
                         _______ _______ _______ _____ _____    ______ ____

>  <TORSDO>
F 1

$$$$
=
 OpenBabel10272401043D

 27 31  0  0  1  0  0  0  0  0999 V2000
  183.5230  178.8210  141.3170 N   0  0  0  0  0  0  0  0  0  0  0  0
  185.9670  178.7150  141.1140 C   0  0  2  0  0  3  0  0  0  0  0  0
  184.3700  178.5900  139.0400 C   0  0  1  0  0  3  0  0  0  0  0  0
  189.1190  178.1510  138.7530 N   0  0  0  0  0  0  0  0  0  0  0  0
  189.3570  178.7880  136.2900 C   0  0  0  0  0  1  0  0  0  0  0  0
  187.2500  178.1300  141.6800 C   0  0  0  0  0  3  0  0  0  0  0  0
  187.2330  178.2150  137.4850 C   0  0  0  0  0  0  0  0  0  0  0  0
  181.7580  176.4460  138.9250 C   0  0  0  0  0  2  0  0  0  0  0  0
  186.3400  178.3600  136.2990 C   0  0  0  0  0  1  0  0  0  0  0  0
  181.1790  177.0670  140.1870 C   0  0  0  0  0  2  0  0  0  0  0  0
  186.8160  177.7450  138.8420 C   0  0  1  0  0  3  0  0  0  0  0  0
  184.7190  178.1960  141.8380 C   0  0  1  0  0  3  0  0  0  0  0  0
  188.5500  178.3710  137.4720 C   0  0  0  0  0  0  0  0  0  0  0  0
  188.1370  177.8110  139.5210 C   0  0  0  0  0  0  0  0  0  0  0  0
  183.3320  179.0020  140.0550 C   0  0  0  0  0  0  0  0  0  0  0  0
  185.8300  178.6840  139.5580 C   0  0  2  0  0  3  0  0  0  0  0  0
  183.2610  176.2560  139.0760 C   0  0  0  0  0  2  0  0  0  0  0  0
  188.2510  177.7680  140.9370 N   0  0  0  0  0  0  0  0  0  0  0  0
  180.8370  178.5540  140.0210 C   0  0  0  0  0  2  0  0  0  0  0  0
  181.9940  179.4540  139.5590 C   0  0  0  0  0  2  0  0  0  0  0  0
  184.0040  177.3100  138.2630 C   0  0  0  0  0  2  0  0  0  0  0  0
  184.8720  178.8010  146.0920 C   0  0  0  0  0  3  0  0  0  0  0  0
  184.7860  178.4000  143.3220 C   0  0  0  0  0  0  0  0  0  0  0  0
  183.6900  178.9640  143.9850 C   0  0  0  0  0  3  0  0  0  0  0  0
  183.7320  179.1630  145.3680 C   0  0  0  0  0  3  0  0  0  0  0  0
  185.9690  178.2380  145.4350 C   0  0  0  0  0  3  0  0  0  0  0  0
  185.9280  178.0380  144.0510 C   0  0  0  0  0  3  0  0  0  0  0  0
  1 12  1  0  0  0  0
  2  6  1  6  0  0  0
  2 12  1  0  0  0  0
  3 21  1  1  0  0  0
  3 16  1  0  0  0  0
  3 15  1  0  0  0  0
  4 14  2  0  0  0  0
  5 13  1  0  0  0  0
  8 17  1  0  0  0  0
  8 10  1  0  0  0  0
  9  7  1  0  0  0  0
 11  7  1  6  0  0  0
 11 14  1  0  0  0  0
 11 16  1  0  0  0  0
 12 23  1  1  0  0  0
 13  7  2  0  0  0  0
 13  4  1  0  0  0  0
 14 18  1  0  0  0  0
 15  1  2  0  0  0  0
 16  2  1  0  0  0  0
 18  6  2  0  0  0  0
 19 10  1  0  0  0  0
 20 19  1  0  0  0  0
 20 15  1  0  0  0  0
 21 17  1  0  0  0  0
 23 24  2  0  0  0  0
 23 27  1  0  0  0  0
 24 25  1  0  0  0  0
 25 22  2  0  0  0  0
 26 22  1  0  0  0  0
 27 26  2  0  0  0  0
M  END
>  <MODEL>
3

>  <REMARK>
 VINA RESULT:      -7.8      2.887      5.880
  Name = 
  1 active torsions:
  status: ('A' for Active; 'I' for Inactive)
    1  A    between atoms: C_9  and  C_15
                            x       y       z     vdW  Elec       q    Type
                         _______ _______ _______ _____ _____    ______ ____

>  <TORSDO>
F 1

$$$$
=
 OpenBabel10272401043D

 27 31  0  0  1  0  0  0  0  0999 V2000
  186.8740  178.6590  138.1610 N   0  0  0  0  0  0  0  0  0  0  0  0
  186.5120  178.6070  140.5880 C   0  0  2  0  0  3  0  0  0  0  0  0
  188.8590  178.1910  139.5000 C   0  0  1  0  0  3  0  0  0  0  0  0
  188.0230  177.8710  144.1930 N   0  0  0  0  0  0  0  0  0  0  0  0
  190.4300  178.2230  144.9770 C   0  0  0  0  0  1  0  0  0  0  0  0
  185.6070  178.1330  141.7140 C   0  0  0  0  0  3  0  0  0  0  0  0
  189.6790  177.7260  142.6420 C   0  0  0  0  0  0  0  0  0  0  0  0
  189.2930  175.9670  136.9910 C   0  0  0  0  0  2  0  0  0  0  0  0
  191.0420  177.7040  142.0380 C   0  0  0  0  0  1  0  0  0  0  0  0
  188.2770  176.7120  136.1390 C   0  0  0  0  0  2  0  0  0  0  0  0
  188.4020  177.4050  141.9320 C   0  0  1  0  0  3  0  0  0  0  0  0
  186.0270  178.1370  139.2110 C   0  0  1  0  0  3  0  0  0  0  0  0
  189.4160  177.9220  143.9270 C   0  0  0  0  0  0  0  0  0  0  0  0
  187.4590  177.5920  143.0660 C   0  0  0  0  0  0  0  0  0  0  0  0
  188.1590  178.6850  138.2580 C   0  0  0  0  0  0  0  0  0  0  0  0
  188.0430  178.3900  140.8050 C   0  0  2  0  0  3  0  0  0  0  0  0
  188.7890  175.8430  138.4220 C   0  0  0  0  0  2  0  0  0  0  0  0
  186.0590  177.7190  142.8580 N   0  0  0  0  0  0  0  0  0  0  0  0
  188.6940  178.1570  135.8370 C   0  0  0  0  0  2  0  0  0  0  0  0
  188.9920  179.0340  137.0640 C   0  0  0  0  0  2  0  0  0  0  0  0
  189.5370  176.8170  139.3240 C   0  0  0  0  0  2  0  0  0  0  0  0
  181.9310  179.1840  138.4250 C   0  0  0  0  0  3  0  0  0  0  0  0
  184.6020  178.5160  138.9410 C   0  0  0  0  0  0  0  0  0  0  0  0
  183.6980  177.5310  138.5290 C   0  0  0  0  0  3  0  0  0  0  0  0
  182.3650  177.8630  138.2720 C   0  0  0  0  0  3  0  0  0  0  0  0
  182.8300  180.1720  138.8350 C   0  0  0  0  0  3  0  0  0  0  0  0
  184.1640  179.8410  139.0920 C   0  0  0  0  0  3  0  0  0  0  0  0
  1 15  2  0  0  0  0
  1 12  1  0  0  0  0
  2 16  1  0  0  0  0
  2  6  1  1  0  0  0
  3 21  1  6  0  0  0
  3 16  1  0  0  0  0
  6 18  2  0  0  0  0
  7 13  2  0  0  0  0
  8 17  1  0  0  0  0
  9  7  1  0  0  0  0
 10  8  1  0  0  0  0
 11  7  1  1  0  0  0
 11 14  1  0  0  0  0
 12 23  1  6  0  0  0
 12  2  1  0  0  0  0
 13  4  1  0  0  0  0
 13  5  1  0  0  0  0
 14  4  2  0  0  0  0
 15  3  1  0  0  0  0
 16 11  1  0  0  0  0
 17 21  1  0  0  0  0
 18 14  1  0  0  0  0
 19 10  1  0  0  0  0
 19 20  1  0  0  0  0
 20 15  1  0  0  0  0
 22 26  1  0  0  0  0
 23 27  1  0  0  0  0
 24 23  2  0  0  0  0
 25 22  2  0  0  0  0
 25 24  1  0  0  0  0
 26 27  2  0  0  0  0
M  END
>  <MODEL>
4

>  <REMARK>
 VINA RESULT:      -7.8      2.362      6.122
  Name = 
  1 active torsions:
  status: ('A' for Active; 'I' for Inactive)
    1  A    between atoms: C_9  and  C_15
                            x       y       z     vdW  Elec       q    Type
                         _______ _______ _______ _____ _____    ______ ____

>  <TORSDO>
F 1

$$$$
=
 OpenBabel10272401043D

 27 31  0  0  1  0  0  0  0  0999 V2000
  188.5140  176.9960  144.5420 N   0  0  0  0  0  0  0  0  0  0  0  0
  186.3270  177.9300  145.1500 C   0  0  2  0  0  3  0  0  0  0  0  0
  186.9450  177.2610  142.6930 C   0  0  1  0  0  3  0  0  0  0  0  0
  182.8030  179.3040  143.9190 N   0  0  0  0  0  0  0  0  0  0  0  0
  181.4460  178.5280  141.8970 C   0  0  0  0  0  1  0  0  0  0  0  0
  185.5930  178.9850  145.9610 C   0  0  0  0  0  3  0  0  0  0  0  0
  183.9360  178.4460  142.1440 C   0  0  0  0  0  0  0  0  0  0  0  0
  189.7930  178.3280  141.2160 C   0  0  0  0  0  2  0  0  0  0  0  0
  184.2100  177.8690  140.7960 C   0  0  0  0  0  1  0  0  0  0  0  0
  190.6190  177.6830  142.3180 C   0  0  0  0  0  2  0  0  0  0  0  0
  184.9680  178.8840  143.1340 C   0  0  1  0  0  3  0  0  0  0  0  0
  187.8510  178.0530  145.2740 C   0  0  1  0  0  3  0  0  0  0  0  0
  182.7350  178.7610  142.6100 C   0  0  0  0  0  0  0  0  0  0  0  0
  184.0600  179.3590  144.2120 C   0  0  0  0  0  0  0  0  0  0  0  0
  188.1350  176.6240  143.3680 C   0  0  0  0  0  0  0  0  0  0  0  0
  185.8450  177.7420  143.6770 C   0  0  2  0  0  3  0  0  0  0  0  0
  188.5920  179.0480  141.8120 C   0  0  0  0  0  2  0  0  0  0  0  0
  184.5290  179.5920  145.5330 N   0  0  0  0  0  0  0  0  0  0  0  0
  190.4310  176.1630  142.3970 C   0  0  0  0  0  2  0  0  0  0  0  0
  188.9820  175.6810  142.5710 C   0  0  0  0  0  2  0  0  0  0  0  0
  187.3230  178.2400  141.5630 C   0  0  0  0  0  2  0  0  0  0  0  0
  189.2290  178.0320  149.3460 C   0  0  0  0  0  3  0  0  0  0  0  0
  188.3170  178.0460  146.6980 C   0  0  0  0  0  0  0  0  0  0  0  0
  189.6900  178.0380  146.9690 C   0  0  0  0  0  3  0  0  0  0  0  0
  190.1460  178.0320  148.2900 C   0  0  0  0  0  3  0  0  0  0  0  0
  187.8570  178.0380  149.0810 C   0  0  0  0  0  3  0  0  0  0  0  0
  187.4000  178.0450  147.7600 C   0  0  0  0  0  3  0  0  0  0  0  0
  1 12  1  0  0  0  0
  2 12  1  0  0  0  0
  2  6  1  6  0  0  0
  3 21  1  1  0  0  0
  3 15  1  0  0  0  0
  3 16  1  0  0  0  0
  4 14  2  0  0  0  0
  5 13  1  0  0  0  0
  7 13  2  0  0  0  0
  8 17  1  0  0  0  0
  8 10  1  0  0  0  0
  9  7  1  0  0  0  0
 10 19  1  0  0  0  0
 11  7  1  6  0  0  0
 11 16  1  0  0  0  0
 11 14  1  0  0  0  0
 12 23  1  1  0  0  0
 13  4  1  0  0  0  0
 14 18  1  0  0  0  0
 15  1  2  0  0  0  0
 16  2  1  0  0  0  0
 18  6  2  0  0  0  0
 19 20  1  0  0  0  0
 20 15  1  0  0  0  0
 21 17  1  0  0  0  0
 23 24  2  0  0  0  0
 23 27  1  0  0  0  0
 24 25  1  0  0  0  0
 25 22  2  0  0  0  0
 26 22  1  0  0  0  0
 27 26  2  0  0  0  0
M  END
>  <MODEL>
5

>  <REMARK>
 VINA RESULT:      -7.8      2.437      4.851
  Name = 
  1 active torsions:
  status: ('A' for Active; 'I' for Inactive)
    1  A    between atoms: C_9  and  C_15
                            x       y       z     vdW  Elec       q    Type
                         _______ _______ _______ _____ _____    ______ ____

>  <TORSDO>
F 1

$$$$
=
 OpenBabel10272401043D

 27 31  0  0  1  0  0  0  0  0999 V2000
  190.0700  175.5730  136.4390 N   0  0  0  0  0  0  0  0  0  0  0  0
  191.5860  175.9650  138.3290 C   0  0  2  0  0  3  0  0  0  0  0  0
  189.0260  176.5170  138.4320 C   0  0  1  0  0  3  0  0  0  0  0  0
  192.0840  177.4700  141.9770 N   0  0  0  0  0  0  0  0  0  0  0  0
  190.3670  177.5800  143.8670 C   0  0  0  0  0  1  0  0  0  0  0  0
  192.9470  176.4850  138.7610 C   0  0  0  0  0  3  0  0  0  0  0  0
  189.8850  177.5870  141.4110 C   0  0  0  0  0  0  0  0  0  0  0  0
  187.4980  178.3460  136.0350 C   0  0  0  0  0  2  0  0  0  0  0  0
  188.4040  177.6980  141.5410 C   0  0  0  0  0  1  0  0  0  0  0  0
  187.9290  177.3420  134.9780 C   0  0  0  0  0  2  0  0  0  0  0  0
  190.6560  177.6130  140.1290 C   0  0  1  0  0  3  0  0  0  0  0  0
  191.3450  176.1360  136.8240 C   0  0  1  0  0  3  0  0  0  0  0  0
  190.7410  177.5670  142.4240 C   0  0  0  0  0  0  0  0  0  0  0  0
  192.0280  177.4840  140.6870 C   0  0  0  0  0  0  0  0  0  0  0  0
  189.0010  175.7380  137.1400 C   0  0  0  0  0  0  0  0  0  0  0  0
  190.3720  176.4200  139.2000 C   0  0  2  0  0  3  0  0  0  0  0  0
  188.6480  178.6290  136.9920 C   0  0  0  0  0  2  0  0  0  0  0  0
  193.1360  177.1360  139.8680 N   0  0  0  0  0  0  0  0  0  0  0  0
  187.3600  175.9380  135.2170 C   0  0  0  0  0  2  0  0  0  0  0  0
  187.6730  175.3190  136.5890 C   0  0  0  0  0  2  0  0  0  0  0  0
  188.4050  177.9230  138.3210 C   0  0  0  0  0  2  0  0  0  0  0  0
  194.4580  174.3540  134.4540 C   0  0  0  0  0  3  0  0  0  0  0  0
  192.4340  175.5290  135.9930 C   0  0  0  0  0  0  0  0  0  0  0  0
  192.6110  174.1400  136.0050 C   0  0  0  0  0  3  0  0  0  0  0  0
  193.6210  173.5540  135.2370 C   0  0  0  0  0  3  0  0  0  0  0  0
  194.2870  175.7410  134.4390 C   0  0  0  0  0  3  0  0  0  0  0  0
  193.2770  176.3290  135.2070 C   0  0  0  0  0  3  0  0  0  0  0  0
  1 12  1  0  0  0  0
  1 15  2  0  0  0  0
  2  6  1  1  0  0  0
  2 16  1  0  0  0  0
  3 21  1  6  0  0  0
  3 16  1  0  0  0  0
  4 13  1  0  0  0  0
  6 18  2  0  0  0  0
  7  9  1  0  0  0  0
  7 13  2  0  0  0  0
  8 17  1  0  0  0  0
 10 19  1  0  0  0  0
 10  8  1  0  0  0  0
 11 14  1  1  0  0  0
 11  7  1  0  0  0  0
 12 23  1  6  0  0  0
 12  2  1  0  0  0  0
 13  5  1  0  0  0  0
 14  4  2  0  0  0  0
 15  3  1  0  0  0  0
 16 11  1  0  0  0  0
 17 21  1  0  0  0  0
 18 14  1  0  0  0  0
 19 20  1  0  0  0  0
 20 15  1  0  0  0  0
 22 25  1  0  0  0  0
 23 24  1  0  0  0  0
 25 24  2  0  0  0  0
 26 22  2  0  0  0  0
 26 27  1  0  0  0  0
 27 23  2  0  0  0  0
M  END
>  <MODEL>
6

>  <REMARK>
 VINA RESULT:      -7.5      3.216      8.825
  Name = 
  1 active torsions:
  status: ('A' for Active; 'I' for Inactive)
    1  A    between atoms: C_9  and  C_15
                            x       y       z     vdW  Elec       q    Type
                         _______ _______ _______ _____ _____    ______ ____

>  <TORSDO>
F 1

$$$$
=
 OpenBabel10272401043D

 27 31  0  0  1  0  0  0  0  0999 V2000
  190.6520  177.7200  141.2980 N   0  0  0  0  0  0  0  0  0  0  0  0
  189.0560  177.7860  139.4340 C   0  0  2  0  0  3  0  0  0  0  0  0
  188.4130  178.5030  141.8720 C   0  0  1  0  0  3  0  0  0  0  0  0
  185.3070  178.3760  138.2430 N   0  0  0  0  0  0  0  0  0  0  0  0
  183.5980  180.0040  139.2210 C   0  0  0  0  0  1  0  0  0  0  0  0
  188.5190  177.0570  138.2140 C   0  0  0  0  0  3  0  0  0  0  0  0
  185.4880  178.9120  140.4450 C   0  0  0  0  0  0  0  0  0  0  0  0
  189.0560  176.5290  144.5400 C   0  0  0  0  0  2  0  0  0  0  0  0
  185.1880  179.5190  141.7740 C   0  0  0  0  0  1  0  0  0  0  0  0
  190.5390  176.5380  144.2030 C   0  0  0  0  0  2  0  0  0  0  0  0
  186.5520  177.8980  140.1670 C   0  0  1  0  0  3  0  0  0  0  0  0
  190.1180  176.9700  140.1820 C   0  0  1  0  0  3  0  0  0  0  0  0
  184.7770  179.1000  139.3420 C   0  0  0  0  0  0  0  0  0  0  0  0
  186.3110  177.7120  138.7110 C   0  0  0  0  0  0  0  0  0  0  0  0
  189.9040  178.4130  142.0870 C   0  0  0  0  0  0  0  0  0  0  0  0
  187.9850  178.4130  140.3820 C   0  0  2  0  0  3  0  0  0  0  0  0
  188.2310  176.3400  143.2750 C   0  0  0  0  0  2  0  0  0  0  0  0
  187.2670  177.0760  137.8730 N   0  0  0  0  0  0  0  0  0  0  0  0
  191.1540  177.9430  144.2420 C   0  0  0  0  0  2  0  0  0  0  0  0
  190.4760  178.9900  143.3450 C   0  0  0  0  0  2  0  0  0  0  0  0
  187.5900  177.6620  142.8680 C   0  0  0  0  0  2  0  0  0  0  0  0
  193.3610  175.7340  137.6450 C   0  0  0  0  0  3  0  0  0  0  0  0
  191.2400  176.5280  139.2920 C   0  0  0  0  0  0  0  0  0  0  0  0
  192.4840  177.1600  139.3950 C   0  0  0  0  0  3  0  0  0  0  0  0
  193.5440  176.7630  138.5740 C   0  0  0  0  0  3  0  0  0  0  0  0
  192.1190  175.1010  137.5370 C   0  0  0  0  0  3  0  0  0  0  0  0
  191.0590  175.4970  138.3580 C   0  0  0  0  0  3  0  0  0  0  0  0
  1 15  2  0  0  0  0
  2  6  1  6  0  0  0
  2 12  1  0  0  0  0
  2 16  1  0  0  0  0
  3 15  1  0  0  0  0
  3 21  1  1  0  0  0
  4 14  2  0  0  0  0
  4 13  1  0  0  0  0
  5 13  1  0  0  0  0
  7  9  1  0  0  0  0
 10 19  1  0  0  0  0
 10  8  1  0  0  0  0
 11 14  1  6  0  0  0
 11 16  1  0  0  0  0
 11  7  1  0  0  0  0
 12 23  1  6  0  0  0
 12  1  1  0  0  0  0
 13  7  2  0  0  0  0
 15 20  1  0  0  0  0
 16  3  1  0  0  0  0
 17  8  1  0  0  0  0
 18  6  2  0  0  0  0
 18 14  1  0  0  0  0
 20 19  1  0  0  0  0
 21 17  1  0  0  0  0
 22 25  1  0  0  0  0
 23 24  1  0  0  0  0
 25 24  2  0  0  0  0
 26 22  2  0  0  0  0
 26 27  1  0  0  0  0
 27 23  2  0  0  0  0
M  END
>  <MODEL>
7

>  <REMARK>
 VINA RESULT:      -7.1      2.086      5.894
  Name = 
  1 active torsions:
  status: ('A' for Active; 'I' for Inactive)
    1  A    between atoms: C_9  and  C_15
                            x       y       z     vdW  Elec       q    Type
                         _______ _______ _______ _____ _____    ______ ____

>  <TORSDO>
F 1

$$$$
=
 OpenBabel10272401043D

 27 31  0  0  1  0  0  0  0  0999 V2000
  190.5460  175.3350  138.3510 N   0  0  0  0  0  0  0  0  0  0  0  0
  188.4940  176.6060  138.7970 C   0  0  2  0  0  3  0  0  0  0  0  0
  188.9150  175.3490  136.5360 C   0  0  1  0  0  3  0  0  0  0  0  0
  185.0590  178.0380  137.3910 N   0  0  0  0  0  0  0  0  0  0  0  0
  183.5300  176.9820  135.6370 C   0  0  0  0  0  1  0  0  0  0  0  0
  187.9080  177.8860  139.3700 C   0  0  0  0  0  3  0  0  0  0  0  0
  186.0100  176.6940  135.8230 C   0  0  0  0  0  0  0  0  0  0  0  0
  191.7720  175.7550  134.7740 C   0  0  0  0  0  2  0  0  0  0  0  0
  186.1560  175.8080  134.6320 C   0  0  0  0  0  1  0  0  0  0  0  0
  192.5880  175.2870  135.9690 C   0  0  0  0  0  2  0  0  0  0  0  0
  187.1290  177.2290  136.6580 C   0  0  1  0  0  3  0  0  0  0  0  0
  190.0270  176.5920  138.8440 C   0  0  1  0  0  3  0  0  0  0  0  0
  184.8710  177.2300  136.2400 C   0  0  0  0  0  0  0  0  0  0  0  0
  186.3290  178.0240  137.6270 C   0  0  0  0  0  0  0  0  0  0  0  0
  190.0720  174.7550  137.3030 C   0  0  0  0  0  0  0  0  0  0  0  0
  187.9190  176.1490  137.4180 C   0  0  2  0  0  3  0  0  0  0  0  0
  190.6780  176.7120  135.2280 C   0  0  0  0  0  2  0  0  0  0  0  0
  186.8870  178.4930  138.8470 N   0  0  0  0  0  0  0  0  0  0  0  0
  192.2580  173.8500  136.3940 C   0  0  0  0  0  2  0  0  0  0  0  0
  190.7810  173.5750  136.7150 C   0  0  0  0  0  2  0  0  0  0  0  0
  189.3260  176.0080  135.2040 C   0  0  0  0  0  2  0  0  0  0  0  0
  191.6040  177.3510  142.7710 C   0  0  0  0  0  3  0  0  0  0  0  0
  190.5640  176.8520  140.2190 C   0  0  0  0  0  0  0  0  0  0  0  0
  191.8380  177.4130  140.3620 C   0  0  0  0  0  3  0  0  0  0  0  0
  192.3570  177.6630  141.6350 C   0  0  0  0  0  3  0  0  0  0  0  0
  190.3320  176.7890  142.6350 C   0  0  0  0  0  3  0  0  0  0  0  0
  189.8110  176.5380  141.3610 C   0  0  0  0  0  3  0  0  0  0  0  0
  1 12  1  0  0  0  0
  2 12  1  0  0  0  0
  2  6  1  6  0  0  0
  3 21  1  6  0  0  0
  3 15  1  0  0  0  0
  3 16  1  0  0  0  0
  4 14  2  0  0  0  0
  5 13  1  0  0  0  0
  7 13  2  0  0  0  0
  8 17  1  0  0  0  0
  8 10  1  0  0  0  0
  9  7  1  0  0  0  0
 10 19  1  0  0  0  0
 11  7  1  6  0  0  0
 11 16  1  0  0  0  0
 11 14  1  0  0  0  0
 12 23  1  1  0  0  0
 13  4  1  0  0  0  0
 14 18  1  0  0  0  0
 15  1  2  0  0  0  0
 16  2  1  0  0  0  0
 18  6  2  0  0  0  0
 19 20  1  0  0  0  0
 20 15  1  0  0  0  0
 21 17  1  0  0  0  0
 23 24  2  0  0  0  0
 23 27  1  0  0  0  0
 24 25  1  0  0  0  0
 25 22  2  0  0  0  0
 26 22  1  0  0  0  0
 27 26  2  0  0  0  0
M  END
>  <MODEL>
8

>  <REMARK>
 VINA RESULT:      -6.7      3.493      6.553
  Name = 
  1 active torsions:
  status: ('A' for Active; 'I' for Inactive)
    1  A    between atoms: C_9  and  C_15
                            x       y       z     vdW  Elec       q    Type
                         _______ _______ _______ _____ _____    ______ ____

>  <TORSDO>
F 1

$$$$
=
 OpenBabel10272401043D

 27 31  0  0  1  0  0  0  0  0999 V2000
  183.4450  177.4040  137.8700 N   0  0  0  0  0  0  0  0  0  0  0  0
  184.9620  177.7900  139.7600 C   0  0  2  0  0  3  0  0  0  0  0  0
  182.3620  178.0570  139.9560 C   0  0  1  0  0  3  0  0  0  0  0  0
  185.3990  179.0220  143.5160 N   0  0  0  0  0  0  0  0  0  0  0  0
  183.7320  178.7870  145.4390 C   0  0  0  0  0  1  0  0  0  0  0  0
  186.2720  178.4130  140.2110 C   0  0  0  0  0  3  0  0  0  0  0  0
  183.1860  178.9540  143.0020 C   0  0  0  0  0  0  0  0  0  0  0  0
  180.5880  179.9140  137.7570 C   0  0  0  0  0  2  0  0  0  0  0  0
  181.7050  178.8960  143.1670 C   0  0  0  0  0  1  0  0  0  0  0  0
  181.0930  179.0550  136.6080 C   0  0  0  0  0  2  0  0  0  0  0  0
  183.9140  179.1710  141.7140 C   0  0  1  0  0  3  0  0  0  0  0  0
  184.6650  178.0640  138.2800 C   0  0  1  0  0  3  0  0  0  0  0  0
  184.0660  178.9380  143.9940 C   0  0  0  0  0  0  0  0  0  0  0  0
  185.3070  179.1410  142.2340 C   0  0  0  0  0  0  0  0  0  0  0  0
  182.3830  177.3940  138.6010 C   0  0  0  0  0  0  0  0  0  0  0  0
  183.7310  178.0390  140.6880 C   0  0  2  0  0  3  0  0  0  0  0  0
  181.7280  180.2330  138.7140 C   0  0  0  0  0  2  0  0  0  0  0  0
  186.4230  178.9840  141.3680 N   0  0  0  0  0  0  0  0  0  0  0  0
  180.6800  177.5830  136.7330 C   0  0  0  0  0  2  0  0  0  0  0  0
  181.0920  176.8860  138.0390 C   0  0  0  0  0  2  0  0  0  0  0  0
  181.5960  179.3950  139.9810 C   0  0  0  0  0  2  0  0  0  0  0  0
  187.8730  176.8310  135.6970 C   0  0  0  0  0  3  0  0  0  0  0  0
  185.7880  177.6480  137.3790 C   0  0  0  0  0  0  0  0  0  0  0  0
  185.8810  176.3130  136.9730 C   0  0  0  0  0  3  0  0  0  0  0  0
  186.9210  175.9040  136.1320 C   0  0  0  0  0  3  0  0  0  0  0  0
  187.7860  178.1660  136.1010 C   0  0  0  0  0  3  0  0  0  0  0  0
  186.7460  178.5760  136.9420 C   0  0  0  0  0  3  0  0  0  0  0  0
  1 12  1  0  0  0  0
  1 15  2  0  0  0  0
  2  6  1  1  0  0  0
  2 16  1  0  0  0  0
  3 21  1  6  0  0  0
  3 16  1  0  0  0  0
  4 13  1  0  0  0  0
  6 18  2  0  0  0  0
  7  9  1  0  0  0  0
  7 13  2  0  0  0  0
  8 17  1  0  0  0  0
 10 19  1  0  0  0  0
 10  8  1  0  0  0  0
 11 14  1  1  0  0  0
 11  7  1  0  0  0  0
 12 23  1  6  0  0  0
 12  2  1  0  0  0  0
 13  5  1  0  0  0  0
 14  4  2  0  0  0  0
 15  3  1  0  0  0  0
 16 11  1  0  0  0  0
 17 21  1  0  0  0  0
 18 14  1  0  0  0  0
 19 20  1  0  0  0  0
 20 15  1  0  0  0  0
 22 26  2  0  0  0  0
 22 25  1  0  0  0  0
 24 23  1  0  0  0  0
 25 24  2  0  0  0  0
 26 27  1  0  0  0  0
 27 23  2  0  0  0  0
M  END
>  <MODEL>
9

>  <REMARK>
 VINA RESULT:      -6.7      3.956      8.835
  Name = 
  1 active torsions:
  status: ('A' for Active; 'I' for Inactive)
    1  A    between atoms: C_9  and  C_15
                            x       y       z     vdW  Elec       q    Type
                         _______ _______ _______ _____ _____    ______ ____

>  <TORSDO>
F 1

$$$$
