=
 OpenBabel10272414593D

 37 45  0  0  1  0  0  0  0  0999 V2000
  189.6190  176.1830  143.2760 C   0  0  1  0  0  3  0  0  0  0  0  0
  188.7770  177.0670  147.8350 C   0  0  2  0  0  3  0  0  0  0  0  0
  185.7680  178.0150  144.6670 C   0  0  1  0  0  3  0  0  0  0  0  0
  186.3450  179.1630  141.1680 C   0  0  0  0  0  2  0  0  0  0  0  0
  186.7230  178.2070  147.0510 C   0  0  2  0  0  3  0  0  0  0  0  0
  186.1910  178.0000  143.4080 C   0  0  1  0  0  3  0  0  0  0  0  0
  191.7130  176.5940  144.6600 C   0  0  0  0  0  1  0  0  0  0  0  0
  186.8960  177.7020  145.6110 C   0  0  2  0  0  3  0  0  0  0  0  0
  185.4670  178.5660  142.2410 C   0  0  0  0  0  0  0  0  0  0  0  0
  185.7760  179.3940  147.1630 C   0  0  0  0  0  2  0  0  0  0  0  0
  188.1340  178.1840  144.8540 C   0  0  1  0  0  3  0  0  0  0  0  0
  189.4410  176.6160  146.5190 C   0  0  1  0  0  3  0  0  0  0  0  0
  183.3470  178.1320  144.4750 C   0  0  0  0  0  3  0  0  0  0  0  0
  190.3830  177.1640  144.1820 C   0  0  2  0  0  3  0  0  0  0  0  0
  184.4280  178.9800  146.5740 C   0  0  0  0  0  2  0  0  0  0  0  0
  189.4910  177.6200  145.3430 C   0  0  1  0  0  3  0  0  0  0  0  0
  187.5930  178.3210  140.9220 C   0  0  0  0  0  2  0  0  0  0  0  0
  184.5480  178.7850  145.0630 C   0  0  1  0  0  3  0  0  0  0  0  0
  187.6710  177.8710  143.4330 C   0  0  2  0  0  0  0  0  0  0  0  0
  188.0610  178.4160  147.7490 C   0  0  0  0  0  2  0  0  0  0  0  0
  184.1070  178.5710  142.1140 C   0  0  0  0  0  0  0  0  0  0  0  0
  190.2680  177.2090  147.6500 C   0  0  0  0  0  2  0  0  0  0  0  0
  188.4660  178.1790  142.1730 C   0  0  1  0  0  3  0  0  0  0  0  0
  188.3060  176.7260  142.6620 C   0  0  1  0  0  3  0  0  0  0  0  0
  183.1720  178.0550  143.1530 C   0  0  0  0  0  3  0  0  0  0  0  0
  184.2140  179.4560  139.7680 C   0  0  0  0  0  3  0  0  0  0  0  0
  183.4540  179.0570  140.8770 C   0  0  0  0  0  0  0  0  0  0  0  0
  182.0590  179.1790  140.8240 C   0  0  0  0  0  3  0  0  0  0  0  0
  180.1040  179.7800  139.6040 F   0  0  0  0  0  0  0  0  0  0  0  0
  182.2130  180.0340  138.5990 N   0  0  0  0  0  0  0  0  0  0  0  0
  181.4520  179.6680  139.6650 C   0  0  0  0  0  0  0  0  0  0  0  0
  183.5700  179.9390  138.6280 C   0  0  0  0  0  3  0  0  0  0  0  0
  190.4250  175.5020  142.3360 O   0  0  0  0  0  0  0  0  0  0  0  0
  190.9260  176.4290  141.4070 C   0  0  0  0  0  2  0  0  0  0  0  0
  190.4780  176.0940  140.1300 O   0  0  0  0  0  0  0  0  0  0  0  0
  190.9140  177.1430  139.3210 C   0  0  0  0  0  2  0  0  0  0  0  0
  189.9340  177.4390  138.3750 O   0  0  0  0  0  1  0  0  0  0  0  0
  1 33  1  6  0  0  0
  1 14  1  0  0  0  0
  2 22  1  1  0  0  0
  3 18  1  0  0  0  0
  3  8  1  0  0  0  0
  4  9  1  0  0  0  0
  5 10  1  0  0  0  0
  5 20  1  0  0  0  0
  6 19  1  0  0  0  0
  6  3  1  0  0  0  0
  8  5  1  0  0  0  0
  9  6  1  0  0  0  0
 11 16  1  0  0  0  0
 11  8  1  0  0  0  0
 12 22  1  0  0  0  0
 12  2  1  0  0  0  0
 13 18  1  0  0  0  0
 14  7  1  0  0  0  0
 14 16  1  0  0  0  0
 15 10  1  0  0  0  0
 16 12  1  0  0  0  0
 17  4  1  0  0  0  0
 17 23  1  0  0  0  0
 18 15  1  0  0  0  0
 19 11  1  0  0  0  0
 20  2  1  0  0  0  0
 21  9  2  0  0  0  0
 21 25  1  0  0  0  0
 23 24  1  0  0  0  0
 23 19  1  0  0  0  0
 24  1  1  0  0  0  0
 24 19  1  0  0  0  0
 25 13  2  0  0  0  0
 26 27  1  0  0  0  0
 27 21  1  0  0  0  0
 28 27  2  0  0  0  0
 29 31  1  0  0  0  0
 30 32  1  0  0  0  0
 30 31  2  0  0  0  0
 31 28  1  0  0  0  0
 32 26  2  0  0  0  0
 34 33  1  0  0  0  0
 35 34  1  0  0  0  0
 36 35  1  0  0  0  0
 37 36  1  0  0  0  0
M  END
>  <MODEL>
1

>  <REMARK>
 VINA RESULT:     -10.1      0.000      0.000
  Name = 
  5 active torsions:
  status: ('A' for Active; 'I' for Inactive)
    1  A    between atoms: C_1  and  O_5
    2  A    between atoms: O_5  and  C_17
    3  A    between atoms: C_6  and  C_31
    4  A    between atoms: C_11  and  O_26
    5  A    between atoms: C_17  and  O_26
                            x       y       z     vdW  Elec       q    Type
                         _______ _______ _______ _____ _____    ______ ____

>  <TORSDO>
F 5

$$$$
=
 OpenBabel10272414593D

 37 45  0  0  1  0  0  0  0  0999 V2000
  188.0570  176.5140  137.4430 C   0  0  1  0  0  3  0  0  0  0  0  0
  192.6330  176.2040  138.5570 C   0  0  2  0  0  3  0  0  0  0  0  0
  189.5120  177.0050  141.6570 C   0  0  1  0  0  3  0  0  0  0  0  0
  186.3520  178.9550  141.3380 C   0  0  0  0  0  2  0  0  0  0  0  0
  191.9470  176.9340  140.8230 C   0  0  2  0  0  3  0  0  0  0  0  0
  188.3060  177.3540  141.2230 C   0  0  1  0  0  3  0  0  0  0  0  0
  189.6350  177.1380  135.5470 C   0  0  0  0  0  1  0  0  0  0  0  0
  190.4510  176.7950  140.5020 C   0  0  2  0  0  3  0  0  0  0  0  0
  187.2240  177.9510  142.0500 C   0  0  0  0  0  0  0  0  0  0  0  0
  192.2230  177.7980  142.0450 C   0  0  0  0  0  2  0  0  0  0  0  0
  189.8900  177.7140  139.4170 C   0  0  1  0  0  3  0  0  0  0  0  0
  191.3030  176.2120  137.7790 C   0  0  1  0  0  3  0  0  0  0  0  0
  189.1810  176.5530  144.0230 C   0  0  0  0  0  3  0  0  0  0  0  0
  189.1870  177.4460  136.9710 C   0  0  2  0  0  3  0  0  0  0  0  0
  191.4740  177.1920  143.2310 C   0  0  0  0  0  2  0  0  0  0  0  0
  190.3510  177.4170  137.9690 C   0  0  1  0  0  3  0  0  0  0  0  0
  186.0310  178.5180  139.9110 C   0  0  0  0  0  2  0  0  0  0  0  0
  189.9660  177.3480  143.0410 C   0  0  1  0  0  3  0  0  0  0  0  0
  188.4060  177.5960  139.7610 C   0  0  2  0  0  0  0  0  0  0  0  0
  192.7620  177.3200  139.5950 C   0  0  0  0  0  2  0  0  0  0  0  0
  187.0080  177.6430  143.3630 C   0  0  0  0  0  0  0  0  0  0  0  0
  192.5820  176.7470  137.1500 C   0  0  0  0  0  2  0  0  0  0  0  0
  187.2880  178.3440  139.0510 C   0  0  1  0  0  3  0  0  0  0  0  0
  187.4720  176.8280  138.8410 C   0  0  1  0  0  3  0  0  0  0  0  0
  187.8600  176.7080  144.1500 C   0  0  0  0  0  3  0  0  0  0  0  0
  185.9460  178.5250  145.4590 C   0  0  0  0  0  3  0  0  0  0  0  0
  185.8480  178.1960  144.0990 C   0  0  0  0  0  0  0  0  0  0  0  0
  184.6130  178.3400  143.4520 C   0  0  0  0  0  3  0  0  0  0  0  0
  182.3220  178.9810  143.5400 F   0  0  0  0  0  0  0  0  0  0  0  0
  183.6420  179.1560  145.4750 N   0  0  0  0  0  0  0  0  0  0  0  0
  183.5150  178.8310  144.1610 C   0  0  0  0  0  0  0  0  0  0  0  0
  184.8250  179.0130  146.1330 C   0  0  0  0  0  3  0  0  0  0  0  0
  187.0600  176.2630  136.4730 O   0  0  0  0  0  0  0  0  0  0  0  0
  186.4420  175.0350  136.7610 C   0  0  0  0  0  2  0  0  0  0  0  0
  187.4060  174.0290  136.8030 O   0  0  0  0  0  0  0  0  0  0  0  0
  186.6810  172.8590  137.0300 C   0  0  0  0  0  2  0  0  0  0  0  0
  185.7480  173.0790  138.0410 O   0  0  0  0  0  1  0  0  0  0  0  0
  1 33  1  6  0  0  0
  1 24  1  0  0  0  0
  2 22  1  6  0  0  0
  2 20  1  0  0  0  0
  3 18  1  0  0  0  0
  4  9  1  0  0  0  0
  5 10  1  0  0  0  0
  6  3  1  0  0  0  0
  6  9  1  0  0  0  0
  7 14  1  0  0  0  0
  8  5  1  0  0  0  0
  8  3  1  0  0  0  0
  9 21  2  0  0  0  0
 10 15  1  0  0  0  0
 11 19  1  0  0  0  0
 11  8  1  0  0  0  0
 12 16  1  0  0  0  0
 12  2  1  0  0  0  0
 13 25  2  0  0  0  0
 14  1  1  0  0  0  0
 14 16  1  0  0  0  0
 16 11  1  0  0  0  0
 17  4  1  0  0  0  0
 18 15  1  0  0  0  0
 18 13  1  0  0  0  0
 19  6  1  0  0  0  0
 20  5  1  0  0  0  0
 21 27  1  0  0  0  0
 21 25  1  0  0  0  0
 22 12  1  0  0  0  0
 23 19  1  0  0  0  0
 23 17  1  0  0  0  0
 24 23  1  0  0  0  0
 24 19  1  0  0  0  0
 26 32  1  0  0  0  0
 27 26  2  0  0  0  0
 28 27  1  0  0  0  0
 28 31  2  0  0  0  0
 29 31  1  0  0  0  0
 30 32  2  0  0  0  0
 31 30  1  0  0  0  0
 33 34  1  0  0  0  0
 34 35  1  0  0  0  0
 35 36  1  0  0  0  0
 36 37  1  0  0  0  0
M  END
>  <MODEL>
2

>  <REMARK>
 VINA RESULT:      -9.4      2.891      6.365
  Name = 
  5 active torsions:
  status: ('A' for Active; 'I' for Inactive)
    1  A    between atoms: C_1  and  O_5
    2  A    between atoms: O_5  and  C_17
    3  A    between atoms: C_6  and  C_31
    4  A    between atoms: C_11  and  O_26
    5  A    between atoms: C_17  and  O_26
                            x       y       z     vdW  Elec       q    Type
                         _______ _______ _______ _____ _____    ______ ____

>  <TORSDO>
F 5

$$$$
=
 OpenBabel10272414593D

 37 45  0  0  1  0  0  0  0  0999 V2000
  185.5170  179.3710  142.6290 C   0  0  1  0  0  3  0  0  0  0  0  0
  186.3120  178.6100  147.2180 C   0  0  2  0  0  3  0  0  0  0  0  0
  189.5100  178.0080  144.1520 C   0  0  1  0  0  3  0  0  0  0  0  0
  189.1810  176.7870  140.6460 C   0  0  0  0  0  2  0  0  0  0  0  0
  188.5090  177.7150  146.5070 C   0  0  2  0  0  3  0  0  0  0  0  0
  189.1270  177.9700  142.8800 C   0  0  1  0  0  3  0  0  0  0  0  0
  183.4420  178.7240  143.9510 C   0  0  0  0  0  1  0  0  0  0  0  0
  188.3240  178.1910  145.0580 C   0  0  2  0  0  3  0  0  0  0  0  0
  189.9490  177.4870  141.7400 C   0  0  0  0  0  0  0  0  0  0  0  0
  189.5850  176.6480  146.6570 C   0  0  0  0  0  2  0  0  0  0  0  0
  187.1750  177.5650  144.2680 C   0  0  1  0  0  3  0  0  0  0  0  0
  185.6420  178.9750  145.8790 C   0  0  1  0  0  3  0  0  0  0  0  0
  191.9320  178.1750  144.0350 C   0  0  0  0  0  3  0  0  0  0  0  0
  184.8440  178.3110  143.5190 C   0  0  2  0  0  3  0  0  0  0  0  0
  190.8930  177.2150  146.1070 C   0  0  0  0  0  2  0  0  0  0  0  0
  185.7460  177.9680  144.7100 C   0  0  1  0  0  3  0  0  0  0  0  0
  187.8510  177.4770  140.3540 C   0  0  0  0  0  2  0  0  0  0  0  0
  190.7990  177.3890  144.5910 C   0  0  1  0  0  3  0  0  0  0  0  0
  187.6420  177.9240  142.8590 C   0  0  2  0  0  0  0  0  0  0  0  0
  187.1840  177.3540  147.1650 C   0  0  0  0  0  2  0  0  0  0  0  0
  191.3040  177.6410  141.6550 C   0  0  0  0  0  0  0  0  0  0  0  0
  184.8550  178.2930  146.9890 C   0  0  0  0  0  2  0  0  0  0  0  0
  186.9290  177.5200  141.5770 C   0  0  1  0  0  3  0  0  0  0  0  0
  186.9030  178.9840  142.0600 C   0  0  1  0  0  3  0  0  0  0  0  0
  192.1380  178.2670  142.7180 C   0  0  0  0  0  3  0  0  0  0  0  0
  193.4490  177.1800  140.4380 C   0  0  0  0  0  3  0  0  0  0  0  0
  192.0480  177.2300  140.4420 C   0  0  0  0  0  0  0  0  0  0  0  0
  191.3540  176.9410  139.2600 C   0  0  0  0  0  3  0  0  0  0  0  0
  191.3990  176.2970  136.9680 F   0  0  0  0  0  0  0  0  0  0  0  0
  193.4220  176.5310  138.1390 N   0  0  0  0  0  0  0  0  0  0  0  0
  192.0640  176.5850  138.1120 C   0  0  0  0  0  0  0  0  0  0  0  0
  194.1230  176.8200  139.2690 C   0  0  0  0  0  3  0  0  0  0  0  0
  184.6660  179.9500  141.6600 O   0  0  0  0  0  0  0  0  0  0  0  0
  184.4890  179.0390  140.6050 C   0  0  0  0  0  2  0  0  0  0  0  0
  184.7890  179.6650  139.3960 O   0  0  0  0  0  0  0  0  0  0  0  0
  184.9340  178.6180  138.4870 C   0  0  0  0  0  2  0  0  0  0  0  0
  186.1100  178.7930  137.7600 O   0  0  0  0  0  1  0  0  0  0  0  0
  1 33  1  6  0  0  0
  1 14  1  0  0  0  0
  2 22  1  1  0  0  0
  3 18  1  0  0  0  0
  3  8  1  0  0  0  0
  4  9  1  0  0  0  0
  5 10  1  0  0  0  0
  5 20  1  0  0  0  0
  6  3  1  0  0  0  0
  8  5  1  0  0  0  0
  9  6  1  0  0  0  0
 11 16  1  0  0  0  0
 11  8  1  0  0  0  0
 12 22  1  0  0  0  0
 12  2  1  0  0  0  0
 13 18  1  0  0  0  0
 14  7  1  0  0  0  0
 14 16  1  0  0  0  0
 15 10  1  0  0  0  0
 16 12  1  0  0  0  0
 17  4  1  0  0  0  0
 17 23  1  0  0  0  0
 18 15  1  0  0  0  0
 19  6  1  0  0  0  0
 19 11  1  0  0  0  0
 20  2  1  0  0  0  0
 21  9  2  0  0  0  0
 21 25  1  0  0  0  0
 23 24  1  0  0  0  0
 23 19  1  0  0  0  0
 24  1  1  0  0  0  0
 24 19  1  0  0  0  0
 25 13  2  0  0  0  0
 26 27  1  0  0  0  0
 27 21  1  0  0  0  0
 28 27  2  0  0  0  0
 29 31  1  0  0  0  0
 30 32  1  0  0  0  0
 31 30  2  0  0  0  0
 31 28  1  0  0  0  0
 32 26  2  0  0  0  0
 34 33  1  0  0  0  0
 35 34  1  0  0  0  0
 36 35  1  0  0  0  0
 37 36  1  0  0  0  0
M  END
>  <MODEL>
3

>  <REMARK>
 VINA RESULT:      -9.2      3.463      6.579
  Name = 
  5 active torsions:
  status: ('A' for Active; 'I' for Inactive)
    1  A    between atoms: C_1  and  O_5
    2  A    between atoms: O_5  and  C_17
    3  A    between atoms: C_6  and  C_31
    4  A    between atoms: C_11  and  O_26
    5  A    between atoms: C_17  and  O_26
                            x       y       z     vdW  Elec       q    Type
                         _______ _______ _______ _____ _____    ______ ____

>  <TORSDO>
F 5

$$$$
=
 OpenBabel10272414593D

 37 45  0  0  1  0  0  0  0  0999 V2000
  182.4050  179.6670  139.9240 C   0  0  1  0  0  3  0  0  0  0  0  0
  184.0240  179.2790  144.3400 C   0  0  2  0  0  3  0  0  0  0  0  0
  186.6490  178.5140  140.8030 C   0  0  1  0  0  3  0  0  0  0  0  0
  185.7510  177.0190  137.5090 C   0  0  0  0  0  2  0  0  0  0  0  0
  186.0910  178.3810  143.3130 C   0  0  2  0  0  3  0  0  0  0  0  0
  186.0500  178.3690  139.6260 C   0  0  1  0  0  3  0  0  0  0  0  0
  180.6200  179.0780  141.6380 C   0  0  0  0  0  1  0  0  0  0  0  0
  185.6360  178.7400  141.8910 C   0  0  2  0  0  3  0  0  0  0  0  0
  186.6750  177.8180  138.3950 C   0  0  0  0  0  0  0  0  0  0  0  0
  187.2130  177.3530  143.3460 C   0  0  0  0  0  2  0  0  0  0  0  0
  184.3890  178.0300  141.3660 C   0  0  1  0  0  3  0  0  0  0  0  0
  183.1150  179.5260  143.1190 C   0  0  1  0  0  3  0  0  0  0  0  0
  189.0060  178.7250  140.2440 C   0  0  0  0  0  3  0  0  0  0  0  0
  181.9370  178.6640  140.9930 C   0  0  2  0  0  3  0  0  0  0  0  0
  188.3830  177.9050  142.5310 C   0  0  0  0  0  2  0  0  0  0  0  0
  183.0470  178.4340  142.0260 C   0  0  1  0  0  3  0  0  0  0  0  0
  184.3670  177.6550  137.4110 C   0  0  0  0  0  2  0  0  0  0  0  0
  188.0170  177.9590  141.0480 C   0  0  1  0  0  3  0  0  0  0  0  0
  184.5870  178.2890  139.8740 C   0  0  2  0  0  0  0  0  0  0  0  0
  184.9160  178.0430  144.2220 C   0  0  0  0  0  2  0  0  0  0  0  0
  187.9860  177.9950  138.0590 C   0  0  0  0  0  0  0  0  0  0  0  0
  182.5610  178.9140  144.3980 C   0  0  0  0  0  2  0  0  0  0  0  0
  183.6730  177.7720  138.7730 C   0  0  1  0  0  3  0  0  0  0  0  0
  183.6810  179.2680  139.1460 C   0  0  1  0  0  3  0  0  0  0  0  0
  188.9730  178.7200  138.9080 C   0  0  0  0  0  3  0  0  0  0  0  0
  187.9690  177.9410  135.5500 C   0  0  0  0  0  3  0  0  0  0  0  0
  188.5190  177.5080  136.7650 C   0  0  0  0  0  0  0  0  0  0  0  0
  189.5490  176.5580  136.7460 C   0  0  0  0  0  3  0  0  0  0  0  0
  191.0250  175.1690  135.4960 F   0  0  0  0  0  0  0  0  0  0  0  0
  189.4820  176.5280  134.3590 N   0  0  0  0  0  0  0  0  0  0  0  0
  190.0240  176.0810  135.5230 C   0  0  0  0  0  0  0  0  0  0  0  0
  188.4710  177.4390  134.3480 C   0  0  0  0  0  3  0  0  0  0  0  0
  181.3760  180.1510  139.0830 O   0  0  0  0  0  0  0  0  0  0  0  0
  181.8270  181.3110  138.4320 C   0  0  0  0  0  2  0  0  0  0  0  0
  180.8480  182.3000  138.5160 O   0  0  0  0  0  0  0  0  0  0  0  0
  180.8290  182.8820  137.2490 C   0  0  0  0  0  2  0  0  0  0  0  0
  181.3890  184.1570  137.3150 O   0  0  0  0  0  1  0  0  0  0  0  0
  1 33  1  6  0  0  0
  1 14  1  0  0  0  0
  2 20  1  6  0  0  0
  2 22  1  0  0  0  0
  3 18  1  0  0  0  0
  3  8  1  0  0  0  0
  4  9  1  0  0  0  0
  5 10  1  0  0  0  0
  5 20  1  0  0  0  0
  6 19  1  0  0  0  0
  6  3  1  0  0  0  0
  8  5  1  0  0  0  0
  9  6  1  0  0  0  0
 11  8  1  0  0  0  0
 11 16  1  0  0  0  0
 12  2  1  0  0  0  0
 12 22  1  0  0  0  0
 13 18  1  0  0  0  0
 14  7  1  0  0  0  0
 14 16  1  0  0  0  0
 15 10  1  0  0  0  0
 16 12  1  0  0  0  0
 17  4  1  0  0  0  0
 17 23  1  0  0  0  0
 18 15  1  0  0  0  0
 19 11  1  0  0  0  0
 21  9  2  0  0  0  0
 21 25  1  0  0  0  0
 23 24  1  0  0  0  0
 23 19  1  0  0  0  0
 24 19  1  0  0  0  0
 24  1  1  0  0  0  0
 25 13  2  0  0  0  0
 26 27  1  0  0  0  0
 27 21  1  0  0  0  0
 28 27  2  0  0  0  0
 29 31  1  0  0  0  0
 30 31  2  0  0  0  0
 31 28  1  0  0  0  0
 32 30  1  0  0  0  0
 32 26  2  0  0  0  0
 34 35  1  0  0  0  0
 34 33  1  0  0  0  0
 36 37  1  0  0  0  0
 36 35  1  0  0  0  0
M  END
>  <MODEL>
4

>  <REMARK>
 VINA RESULT:      -8.7      4.439      7.674
  Name = 
  5 active torsions:
  status: ('A' for Active; 'I' for Inactive)
    1  A    between atoms: C_1  and  O_5
    2  A    between atoms: O_5  and  C_17
    3  A    between atoms: C_6  and  C_31
    4  A    between atoms: C_11  and  O_26
    5  A    between atoms: C_17  and  O_26
                            x       y       z     vdW  Elec       q    Type
                         _______ _______ _______ _____ _____    ______ ____

>  <TORSDO>
F 5

$$$$
=
 OpenBabel10272414593D

 37 45  0  0  1  0  0  0  0  0999 V2000
  188.8980  177.0920  141.0290 C   0  0  1  0  0  3  0  0  0  0  0  0
  186.1350  177.2720  137.2070 C   0  0  2  0  0  3  0  0  0  0  0  0
  190.3320  175.7480  136.9980 C   0  0  1  0  0  3  0  0  0  0  0  0
  193.3200  176.8660  138.9250 C   0  0  0  0  0  2  0  0  0  0  0  0
  188.1580  176.6250  135.9340 C   0  0  2  0  0  3  0  0  0  0  0  0
  191.1170  175.9950  138.0410 C   0  0  1  0  0  3  0  0  0  0  0  0
  187.1020  178.8920  141.1260 C   0  0  0  0  0  1  0  0  0  0  0  0
  188.9670  176.3420  137.2080 C   0  0  2  0  0  3  0  0  0  0  0  0
  192.5970  175.8580  138.0670 C   0  0  0  0  0  0  0  0  0  0  0  0
  189.0270  176.8120  134.6970 C   0  0  0  0  0  2  0  0  0  0  0  0
  189.2360  177.5290  138.1330 C   0  0  1  0  0  3  0  0  0  0  0  0
  186.6590  177.3740  138.6530 C   0  0  1  0  0  3  0  0  0  0  0  0
  191.5870  174.1320  135.6840 C   0  0  0  0  0  3  0  0  0  0  0  0
  188.3130  178.3550  140.3720 C   0  0  2  0  0  3  0  0  0  0  0  0
  189.8790  175.5560  134.5240 C   0  0  0  0  0  2  0  0  0  0  0  0
  188.0090  178.0910  138.8920 C   0  0  1  0  0  3  0  0  0  0  0  0
  192.5830  177.1300  140.2350 C   0  0  0  0  0  2  0  0  0  0  0  0
  190.9090  175.4550  135.6490 C   0  0  1  0  0  3  0  0  0  0  0  0
  190.3960  176.9400  138.9320 C   0  0  2  0  0  0  0  0  0  0  0  0
  187.1310  177.7310  136.1420 C   0  0  0  0  0  2  0  0  0  0  0  0
  193.2880  174.9060  137.3730 C   0  0  0  0  0  0  0  0  0  0  0  0
  185.6950  178.4110  138.0940 C   0  0  0  0  0  2  0  0  0  0  0  0
  191.1680  177.6780  140.0150 C   0  0  1  0  0  3  0  0  0  0  0  0
  190.1930  176.5430  140.3850 C   0  0  1  0  0  3  0  0  0  0  0  0
  192.6530  173.9140  136.4610 C   0  0  0  0  0  3  0  0  0  0  0  0
  195.3110  174.2840  138.7230 C   0  0  0  0  0  3  0  0  0  0  0  0
  194.7540  174.7590  137.5260 C   0  0  0  0  0  0  0  0  0  0  0  0
  195.6090  175.1510  136.4880 C   0  0  0  0  0  3  0  0  0  0  0  0
  197.8230  175.4070  135.6490 F   0  0  0  0  0  0  0  0  0  0  0  0
  197.5030  174.5620  137.8170 N   0  0  0  0  0  0  0  0  0  0  0  0
  196.9910  175.0380  136.6520 C   0  0  0  0  0  0  0  0  0  0  0  0
  196.6980  174.1870  138.8480 C   0  0  0  0  0  3  0  0  0  0  0  0
  188.9630  177.1420  142.4410 O   0  0  0  0  0  0  0  0  0  0  0  0
  189.6360  176.0000  142.9070 C   0  0  0  0  0  2  0  0  0  0  0  0
  190.2490  176.2890  144.1250 O   0  0  0  0  0  0  0  0  0  0  0  0
  191.6060  176.3900  143.8180 C   0  0  0  0  0  2  0  0  0  0  0  0
  191.9510  177.7320  143.6750 O   0  0  0  0  0  1  0  0  0  0  0  0
  1 33  1  1  0  0  0
  2 20  1  6  0  0  0
  2 22  1  0  0  0  0
  2 12  1  0  0  0  0
  3  8  1  0  0  0  0
  3  6  1  0  0  0  0
  4 17  1  0  0  0  0
  5 20  1  0  0  0  0
  5  8  1  0  0  0  0
  6  9  1  0  0  0  0
  6 19  1  0  0  0  0
  8 11  1  0  0  0  0
  9  4  1  0  0  0  0
 10  5  1  0  0  0  0
 11 16  1  0  0  0  0
 11 19  1  0  0  0  0
 12 16  1  0  0  0  0
 13 25  2  0  0  0  0
 14  1  1  0  0  0  0
 14  7  1  0  0  0  0
 15 10  1  0  0  0  0
 15 18  1  0  0  0  0
 16 14  1  0  0  0  0
 18 13  1  0  0  0  0
 18  3  1  0  0  0  0
 19 23  1  0  0  0  0
 19 24  1  0  0  0  0
 21 27  1  0  0  0  0
 21  9  2  0  0  0  0
 22 12  1  0  0  0  0
 23 17  1  0  0  0  0
 23 24  1  0  0  0  0
 24  1  1  0  0  0  0
 25 21  1  0  0  0  0
 26 32  1  0  0  0  0
 27 26  2  0  0  0  0
 28 31  2  0  0  0  0
 28 27  1  0  0  0  0
 29 31  1  0  0  0  0
 30 32  2  0  0  0  0
 31 30  1  0  0  0  0
 33 34  1  0  0  0  0
 34 35  1  0  0  0  0
 36 35  1  0  0  0  0
 37 36  1  0  0  0  0
M  END
>  <MODEL>
5

>  <REMARK>
 VINA RESULT:      -8.4      5.361     10.111
  Name = 
  5 active torsions:
  status: ('A' for Active; 'I' for Inactive)
    1  A    between atoms: C_1  and  O_5
    2  A    between atoms: O_5  and  C_17
    3  A    between atoms: C_6  and  C_31
    4  A    between atoms: C_11  and  O_26
    5  A    between atoms: C_17  and  O_26
                            x       y       z     vdW  Elec       q    Type
                         _______ _______ _______ _____ _____    ______ ____

>  <TORSDO>
F 5

$$$$
=
 OpenBabel10272414593D

 37 45  0  0  1  0  0  0  0  0999 V2000
  185.6840  179.2510  145.0150 C   0  0  1  0  0  3  0  0  0  0  0  0
  188.6280  177.9720  148.4740 C   0  0  2  0  0  3  0  0  0  0  0  0
  189.8430  177.7960  144.1760 C   0  0  1  0  0  3  0  0  0  0  0  0
  187.7600  176.9880  141.1920 C   0  0  0  0  0  2  0  0  0  0  0  0
  190.1380  177.2100  146.6660 C   0  0  2  0  0  3  0  0  0  0  0  0
  188.8760  177.8990  143.2700 C   0  0  1  0  0  3  0  0  0  0  0  0
  184.5190  178.4130  147.1150 C   0  0  0  0  0  1  0  0  0  0  0  0
  189.2750  177.8480  145.5670 C   0  0  2  0  0  3  0  0  0  0  0  0
  189.0000  177.5690  141.8260 C   0  0  0  0  0  0  0  0  0  0  0  0
  191.0990  176.1530  146.1390 C   0  0  0  0  0  2  0  0  0  0  0  0
  187.8600  177.2970  145.3930 C   0  0  1  0  0  3  0  0  0  0  0  0
  187.3960  178.4790  147.7000 C   0  0  1  0  0  3  0  0  0  0  0  0
  191.8900  178.0220  142.8830 C   0  0  0  0  0  3  0  0  0  0  0  0
  185.5000  178.0810  145.9970 C   0  0  2  0  0  3  0  0  0  0  0  0
  191.9820  176.8060  145.0750 C   0  0  0  0  0  2  0  0  0  0  0  0
  186.8610  177.6180  146.5310 C   0  0  1  0  0  3  0  0  0  0  0  0
  186.4920  177.6810  141.6840 C   0  0  0  0  0  2  0  0  0  0  0  0
  191.1520  177.1540  143.8400 C   0  0  1  0  0  3  0  0  0  0  0  0
  187.5780  177.8270  143.9890 C   0  0  2  0  0  0  0  0  0  0  0  0
  189.3030  176.7490  147.8530 C   0  0  0  0  0  2  0  0  0  0  0  0
  190.1370  177.7580  141.0930 C   0  0  0  0  0  0  0  0  0  0  0  0
  187.2390  177.6570  148.9710 C   0  0  0  0  0  2  0  0  0  0  0  0
  186.3040  177.5630  143.2000 C   0  0  1  0  0  3  0  0  0  0  0  0
  186.5840  178.9600  143.7900 C   0  0  1  0  0  3  0  0  0  0  0  0
  191.4160  178.2720  141.6590 C   0  0  0  0  0  3  0  0  0  0  0  0
  190.9760  176.5070  139.0870 C   0  0  0  0  0  3  0  0  0  0  0  0
  190.1590  177.5070  139.6340 C   0  0  0  0  0  0  0  0  0  0  0  0
  189.4020  178.3130  138.7730 C   0  0  0  0  0  3  0  0  0  0  0  0
  188.7160  178.8590  136.5600 F   0  0  0  0  0  0  0  0  0  0  0  0
  190.2420  177.1040  136.8930 N   0  0  0  0  0  0  0  0  0  0  0  0
  189.4530  178.0900  137.3960 C   0  0  0  0  0  0  0  0  0  0  0  0
  190.9990  176.3150  137.7040 C   0  0  0  0  0  3  0  0  0  0  0  0
  184.4880  179.9230  144.6710 O   0  0  0  0  0  0  0  0  0  0  0  0
  183.7720  179.1390  143.7520 C   0  0  0  0  0  2  0  0  0  0  0  0
  182.4930  178.8950  144.2490 O   0  0  0  0  0  0  0  0  0  0  0  0
  181.6440  179.1580  143.1740 C   0  0  0  0  0  2  0  0  0  0  0  0
  182.2710  178.7890  141.9860 O   0  0  0  0  0  1  0  0  0  0  0  0
  1 33  1  6  0  0  0
  1 14  1  0  0  0  0
  2 20  1  6  0  0  0
  2 22  1  0  0  0  0
  3  8  1  0  0  0  0
  4 17  1  0  0  0  0
  4  9  1  0  0  0  0
  5 20  1  0  0  0  0
  6 19  1  0  0  0  0
  6  3  1  0  0  0  0
  8  5  1  0  0  0  0
  9  6  1  0  0  0  0
 10  5  1  0  0  0  0
 11  8  1  0  0  0  0
 11 16  1  0  0  0  0
 12  2  1  0  0  0  0
 12 22  1  0  0  0  0
 13 18  1  0  0  0  0
 14 16  1  0  0  0  0
 14  7  1  0  0  0  0
 15 10  1  0  0  0  0
 16 12  1  0  0  0  0
 17 23  1  0  0  0  0
 18  3  1  0  0  0  0
 18 15  1  0  0  0  0
 19 11  1  0  0  0  0
 21 25  1  0  0  0  0
 21  9  2  0  0  0  0
 23 24  1  0  0  0  0
 23 19  1  0  0  0  0
 24 19  1  0  0  0  0
 24  1  1  0  0  0  0
 25 13  2  0  0  0  0
 26 27  1  0  0  0  0
 27 21  1  0  0  0  0
 28 27  2  0  0  0  0
 29 31  1  0  0  0  0
 30 31  2  0  0  0  0
 30 32  1  0  0  0  0
 31 28  1  0  0  0  0
 32 26  2  0  0  0  0
 34 35  1  0  0  0  0
 34 33  1  0  0  0  0
 36 35  1  0  0  0  0
 37 36  1  0  0  0  0
M  END
>  <MODEL>
6

>  <REMARK>
 VINA RESULT:      -8.3      3.536      6.203
  Name = 
  5 active torsions:
  status: ('A' for Active; 'I' for Inactive)
    1  A    between atoms: C_1  and  O_5
    2  A    between atoms: O_5  and  C_17
    3  A    between atoms: C_6  and  C_31
    4  A    between atoms: C_11  and  O_26
    5  A    between atoms: C_17  and  O_26
                            x       y       z     vdW  Elec       q    Type
                         _______ _______ _______ _____ _____    ______ ____

>  <TORSDO>
F 5

$$$$
=
 OpenBabel10272414593D

 37 45  0  0  1  0  0  0  0  0999 V2000
  187.3760  178.8230  141.1880 C   0  0  1  0  0  3  0  0  0  0  0  0
  183.3080  179.5730  143.4610 C   0  0  2  0  0  3  0  0  0  0  0  0
  187.0240  178.3710  145.6370 C   0  0  1  0  0  3  0  0  0  0  0  0
  189.7660  176.1140  144.5030 C   0  0  0  0  0  2  0  0  0  0  0  0
  184.4780  178.7150  145.4680 C   0  0  2  0  0  3  0  0  0  0  0  0
  188.0310  177.9100  144.9030 C   0  0  1  0  0  3  0  0  0  0  0  0
  185.3020  178.4170  139.7720 C   0  0  0  0  0  1  0  0  0  0  0  0
  185.8440  178.7080  144.7680 C   0  0  2  0  0  3  0  0  0  0  0  0
  189.2210  177.1830  145.4180 C   0  0  0  0  0  0  0  0  0  0  0  0
  184.4390  177.8510  146.7210 C   0  0  0  0  0  2  0  0  0  0  0  0
  186.0030  177.7660  143.5740 C   0  0  1  0  0  3  0  0  0  0  0  0
  184.3810  179.4490  142.3610 C   0  0  1  0  0  3  0  0  0  0  0  0
  188.0050  178.7210  147.8330 C   0  0  0  0  0  3  0  0  0  0  0  0
  186.0690  178.0260  141.0290 C   0  0  2  0  0  3  0  0  0  0  0  0
  185.5310  178.3440  147.6690 C   0  0  0  0  0  2  0  0  0  0  0  0
  185.2150  178.1480  142.2970 C   0  0  1  0  0  3  0  0  0  0  0  0
  189.7480  176.5540  143.0420 C   0  0  0  0  0  2  0  0  0  0  0  0
  186.9120  178.0380  147.0910 C   0  0  1  0  0  3  0  0  0  0  0  0
  187.5280  177.7210  143.5180 C   0  0  2  0  0  0  0  0  0  0  0  0
  183.3350  178.4490  144.4970 C   0  0  0  0  0  2  0  0  0  0  0  0
  189.8020  177.4300  146.6290 C   0  0  0  0  0  0  0  0  0  0  0  0
  182.9330  179.0670  142.0900 C   0  0  0  0  0  2  0  0  0  0  0  0
  188.3370  176.8810  142.5410 C   0  0  1  0  0  3  0  0  0  0  0  0
  188.2680  178.4130  142.3850 C   0  0  1  0  0  3  0  0  0  0  0  0
  189.2900  178.4260  147.6110 C   0  0  0  0  0  3  0  0  0  0  0  0
  191.5730  175.6880  146.2730 C   0  0  0  0  0  3  0  0  0  0  0  0
  191.0490  176.7420  147.0360 C   0  0  0  0  0  0  0  0  0  0  0  0
  191.6890  177.1010  148.2290 C   0  0  0  0  0  3  0  0  0  0  0  0
  193.4750  176.7740  149.7700 F   0  0  0  0  0  0  0  0  0  0  0  0
  193.3410  175.4180  147.8560 N   0  0  0  0  0  0  0  0  0  0  0  0
  192.8460  176.4260  148.6220 C   0  0  0  0  0  0  0  0  0  0  0  0
  192.7320  175.0370  146.7000 C   0  0  0  0  0  3  0  0  0  0  0  0
  188.1070  178.9970  139.9910 O   0  0  0  0  0  0  0  0  0  0  0  0
  188.7300  177.7830  139.6560 C   0  0  0  0  0  2  0  0  0  0  0  0
  189.8500  178.0380  138.8660 O   0  0  0  0  0  0  0  0  0  0  0  0
  190.8710  177.2940  139.4560 C   0  0  0  0  0  2  0  0  0  0  0  0
  190.4590  175.9710  139.5990 O   0  0  0  0  0  1  0  0  0  0  0  0
  1 33  1  6  0  0  0
  1 24  1  0  0  0  0
  2 22  1  6  0  0  0
  2 20  1  0  0  0  0
  3 18  1  0  0  0  0
  4  9  1  0  0  0  0
  5 10  1  0  0  0  0
  6  9  1  0  0  0  0
  6  3  1  0  0  0  0
  7 14  1  0  0  0  0
  8  5  1  0  0  0  0
  8  3  1  0  0  0  0
  9 21  2  0  0  0  0
 10 15  1  0  0  0  0
 11  8  1  0  0  0  0
 12  2  1  0  0  0  0
 14  1  1  0  0  0  0
 14 16  1  0  0  0  0
 16 12  1  0  0  0  0
 16 11  1  0  0  0  0
 17  4  1  0  0  0  0
 18 15  1  0  0  0  0
 18 13  1  0  0  0  0
 19 11  1  0  0  0  0
 19  6  1  0  0  0  0
 20  5  1  0  0  0  0
 21 27  1  0  0  0  0
 21 25  1  0  0  0  0
 22 12  1  0  0  0  0
 23 17  1  0  0  0  0
 23 19  1  0  0  0  0
 24 23  1  0  0  0  0
 24 19  1  0  0  0  0
 25 13  2  0  0  0  0
 26 32  2  0  0  0  0
 26 27  1  0  0  0  0
 27 28  2  0  0  0  0
 28 31  1  0  0  0  0
 30 31  2  0  0  0  0
 31 29  1  0  0  0  0
 32 30  1  0  0  0  0
 34 33  1  0  0  0  0
 35 36  1  0  0  0  0
 35 34  1  0  0  0  0
 36 37  1  0  0  0  0
M  END
>  <MODEL>
7

>  <REMARK>
 VINA RESULT:      -8.3      3.944      7.267
  Name = 
  5 active torsions:
  status: ('A' for Active; 'I' for Inactive)
    1  A    between atoms: C_1  and  O_5
    2  A    between atoms: O_5  and  C_17
    3  A    between atoms: C_6  and  C_31
    4  A    between atoms: C_11  and  O_26
    5  A    between atoms: C_17  and  O_26
                            x       y       z     vdW  Elec       q    Type
                         _______ _______ _______ _____ _____    ______ ____

>  <TORSDO>
F 5

$$$$
=
 OpenBabel10272414593D

 37 45  0  0  1  0  0  0  0  0999 V2000
  186.1130  177.2430  137.3490 C   0  0  1  0  0  3  0  0  0  0  0  0
  190.7390  176.4720  136.8250 C   0  0  2  0  0  3  0  0  0  0  0  0
  188.8930  177.0110  140.8610 C   0  0  1  0  0  3  0  0  0  0  0  0
  186.0350  179.1900  141.8480 C   0  0  0  0  0  2  0  0  0  0  0  0
  190.9060  176.9030  139.2580 C   0  0  2  0  0  3  0  0  0  0  0  0
  187.6580  177.4990  140.9000 C   0  0  1  0  0  3  0  0  0  0  0  0
  187.0540  178.0340  135.1220 C   0  0  0  0  0  1  0  0  0  0  0  0
  189.3810  176.9120  139.4420 C   0  0  2  0  0  3  0  0  0  0  0  0
  186.9740  178.0370  142.1040 C   0  0  0  0  0  0  0  0  0  0  0  0
  191.6550  177.5580  140.4100 C   0  0  0  0  0  2  0  0  0  0  0  0
  188.6050  178.0150  138.7230 C   0  0  1  0  0  3  0  0  0  0  0  0
  189.2390  176.6820  136.5420 C   0  0  1  0  0  3  0  0  0  0  0  0
  189.2950  176.2390  143.1310 C   0  0  0  0  0  3  0  0  0  0  0  0
  187.1260  178.1580  136.6390 C   0  0  2  0  0  3  0  0  0  0  0  0
  191.2660  176.8350  141.6990 C   0  0  0  0  0  2  0  0  0  0  0  0
  188.5390  177.9050  137.1800 C   0  0  1  0  0  3  0  0  0  0  0  0
  185.2260  178.9900  140.5690 C   0  0  0  0  0  2  0  0  0  0  0  0
  189.8040  177.1160  142.0430 C   0  0  1  0  0  3  0  0  0  0  0  0
  187.3080  177.9460  139.5270 C   0  0  2  0  0  0  0  0  0  0  0  0
  191.3190  177.4110  137.8830 C   0  0  0  0  0  2  0  0  0  0  0  0
  187.1600  177.5540  143.3690 C   0  0  0  0  0  0  0  0  0  0  0  0
  190.2980  177.2180  135.5900 C   0  0  0  0  0  2  0  0  0  0  0  0
  186.1110  178.8620  139.3250 C   0  0  1  0  0  3  0  0  0  0  0  0
  186.0480  177.3850  138.8890 C   0  0  1  0  0  3  0  0  0  0  0  0
  188.1110  176.4600  143.7100 C   0  0  0  0  0  3  0  0  0  0  0  0
  186.9340  178.1840  145.7870 C   0  0  0  0  0  3  0  0  0  0  0  0
  186.3670  178.0670  144.5100 C   0  0  0  0  0  0  0  0  0  0  0  0
  185.0140  178.3870  144.3340 C   0  0  0  0  0  3  0  0  0  0  0  0
  182.9600  179.1590  145.2570 F   0  0  0  0  0  0  0  0  0  0  0  0
  184.8440  178.9580  146.6460 N   0  0  0  0  0  0  0  0  0  0  0  0
  184.2650  178.8400  145.4220 C   0  0  0  0  0  0  0  0  0  0  0  0
  186.1520  178.6410  146.8500 C   0  0  0  0  0  3  0  0  0  0  0  0
  184.8350  177.2030  136.7460 O   0  0  0  0  0  0  0  0  0  0  0  0
  184.0180  176.3130  137.4640 C   0  0  0  0  0  2  0  0  0  0  0  0
  182.6790  176.6150  137.2220 O   0  0  0  0  0  0  0  0  0  0  0  0
  182.2710  177.3250  138.3510 C   0  0  0  0  0  2  0  0  0  0  0  0
  182.1600  178.6770  138.0340 O   0  0  0  0  0  1  0  0  0  0  0  0
  1 33  1  6  0  0  0
  1 24  1  0  0  0  0
  2 22  1  6  0  0  0
  2 20  1  0  0  0  0
  3  6  1  0  0  0  0
  3 18  1  0  0  0  0
  4  9  1  0  0  0  0
  5  8  1  0  0  0  0
  5 10  1  0  0  0  0
  6  9  1  0  0  0  0
  7 14  1  0  0  0  0
  8  3  1  0  0  0  0
  9 21  2  0  0  0  0
 10 15  1  0  0  0  0
 11  8  1  0  0  0  0
 11 19  1  0  0  0  0
 12  2  1  0  0  0  0
 12 16  1  0  0  0  0
 13 25  2  0  0  0  0
 14 16  1  0  0  0  0
 14  1  1  0  0  0  0
 15 18  1  0  0  0  0
 16 11  1  0  0  0  0
 17  4  1  0  0  0  0
 18 13  1  0  0  0  0
 19  6  1  0  0  0  0
 20  5  1  0  0  0  0
 21 25  1  0  0  0  0
 21 27  1  0  0  0  0
 22 12  1  0  0  0  0
 23 19  1  0  0  0  0
 23 17  1  0  0  0  0
 24 23  1  0  0  0  0
 24 19  1  0  0  0  0
 26 32  1  0  0  0  0
 27 26  2  0  0  0  0
 28 27  1  0  0  0  0
 28 31  2  0  0  0  0
 29 31  1  0  0  0  0
 30 32  2  0  0  0  0
 31 30  1  0  0  0  0
 33 34  1  0  0  0  0
 35 34  1  0  0  0  0
 35 36  1  0  0  0  0
 37 36  1  0  0  0  0
M  END
>  <MODEL>
8

>  <REMARK>
 VINA RESULT:      -8.3      3.390      7.295
  Name = 
  5 active torsions:
  status: ('A' for Active; 'I' for Inactive)
    1  A    between atoms: C_1  and  O_5
    2  A    between atoms: O_5  and  C_17
    3  A    between atoms: C_6  and  C_31
    4  A    between atoms: C_11  and  O_26
    5  A    between atoms: C_17  and  O_26
                            x       y       z     vdW  Elec       q    Type
                         _______ _______ _______ _____ _____    ______ ____

>  <TORSDO>
F 5

$$$$
=
 OpenBabel10272414593D

 37 45  0  0  1  0  0  0  0  0999 V2000
  183.6200  177.8540  140.5580 C   0  0  1  0  0  3  0  0  0  0  0  0
  187.0100  177.5860  137.2860 C   0  0  2  0  0  3  0  0  0  0  0  0
  187.9430  177.3770  141.6530 C   0  0  1  0  0  3  0  0  0  0  0  0
  186.2660  179.1260  144.4850 C   0  0  0  0  0  2  0  0  0  0  0  0
  188.6000  177.6810  139.1820 C   0  0  2  0  0  3  0  0  0  0  0  0
  186.9820  177.7410  142.4940 C   0  0  1  0  0  3  0  0  0  0  0  0
  183.0560  179.0350  138.3770 C   0  0  0  0  0  1  0  0  0  0  0  0
  187.4870  177.5250  140.2280 C   0  0  2  0  0  3  0  0  0  0  0  0
  187.1580  178.0380  143.9400 C   0  0  0  0  0  0  0  0  0  0  0  0
  189.8970  178.2310  139.7600 C   0  0  0  0  0  2  0  0  0  0  0  0
  186.4490  178.6450  140.3030 C   0  0  1  0  0  3  0  0  0  0  0  0
  185.6400  177.6980  137.9830 C   0  0  1  0  0  3  0  0  0  0  0  0
  189.6100  176.3300  143.0790 C   0  0  0  0  0  3  0  0  0  0  0  0
  184.0210  178.9480  139.5540 C   0  0  2  0  0  3  0  0  0  0  0  0
  190.3450  177.2990  140.8850 C   0  0  0  0  0  2  0  0  0  0  0  0
  185.4740  178.7500  139.1050 C   0  0  1  0  0  3  0  0  0  0  0  0
  184.8510  179.0380  143.9190 C   0  0  0  0  0  2  0  0  0  0  0  0
  189.3810  177.3950  142.0670 C   0  0  1  0  0  3  0  0  0  0  0  0
  185.8870  178.3450  141.6910 C   0  0  2  0  0  0  0  0  0  0  0  0
  188.1180  178.4150  137.9370 C   0  0  0  0  0  2  0  0  0  0  0  0
  188.0560  177.4000  144.7470 C   0  0  0  0  0  0  0  0  0  0  0  0
  185.9280  178.4580  136.6960 C   0  0  0  0  0  2  0  0  0  0  0  0
  184.8170  179.1690  142.3920 C   0  0  1  0  0  3  0  0  0  0  0  0
  184.4880  177.7690  141.8360 C   0  0  1  0  0  3  0  0  0  0  0  0
  189.0090  176.3580  144.2720 C   0  0  0  0  0  3  0  0  0  0  0  0
  186.9350  177.9160  146.9320 C   0  0  0  0  0  3  0  0  0  0  0  0
  188.1070  177.6720  146.2020 C   0  0  0  0  0  0  0  0  0  0  0  0
  189.3430  177.7450  146.8570 C   0  0  0  0  0  3  0  0  0  0  0  0
  190.5760  178.0970  148.8640 F   0  0  0  0  0  0  0  0  0  0  0  0
  188.2320  178.2510  148.9090 N   0  0  0  0  0  0  0  0  0  0  0  0
  189.3850  178.0330  148.2230 C   0  0  0  0  0  0  0  0  0  0  0  0
  187.0180  178.2010  148.2960 C   0  0  0  0  0  3  0  0  0  0  0  0
  182.2340  177.7850  140.8290 O   0  0  0  0  0  0  0  0  0  0  0  0
  181.8990  178.7890  141.7530 C   0  0  0  0  0  2  0  0  0  0  0  0
  180.5220  178.7770  141.9710 O   0  0  0  0  0  0  0  0  0  0  0  0
  180.3670  179.3140  143.2490 C   0  0  0  0  0  2  0  0  0  0  0  0
  181.3410  178.7880  144.0960 O   0  0  0  0  0  1  0  0  0  0  0  0
  1 33  1  1  0  0  0
  1 24  1  0  0  0  0
  2 22  1  6  0  0  0
  2 20  1  0  0  0  0
  2 12  1  0  0  0  0
  3 18  1  0  0  0  0
  3  6  1  0  0  0  0
  5 10  1  0  0  0  0
  5  8  1  0  0  0  0
  6  9  1  0  0  0  0
  7 14  1  0  0  0  0
  8 11  1  0  0  0  0
  8  3  1  0  0  0  0
  9  4  1  0  0  0  0
  9 21  2  0  0  0  0
 10 15  1  0  0  0  0
 11 19  1  0  0  0  0
 12 16  1  0  0  0  0
 13 25  2  0  0  0  0
 14  1  1  0  0  0  0
 15 18  1  0  0  0  0
 16 14  1  0  0  0  0
 16 11  1  0  0  0  0
 17  4  1  0  0  0  0
 18 13  1  0  0  0  0
 19 24  1  0  0  0  0
 19 23  1  0  0  0  0
 19  6  1  0  0  0  0
 20  5  1  0  0  0  0
 21 27  1  0  0  0  0
 22 12  1  0  0  0  0
 23 17  1  0  0  0  0
 24 23  1  0  0  0  0
 25 21  1  0  0  0  0
 26 32  1  0  0  0  0
 27 28  1  0  0  0  0
 27 26  2  0  0  0  0
 28 31  2  0  0  0  0
 31 29  1  0  0  0  0
 31 30  1  0  0  0  0
 32 30  2  0  0  0  0
 33 34  1  0  0  0  0
 34 35  1  0  0  0  0
 35 36  1  0  0  0  0
 36 37  1  0  0  0  0
M  END
>  <MODEL>
9

>  <REMARK>
 VINA RESULT:      -8.2      4.337      8.260
  Name = 
  5 active torsions:
  status: ('A' for Active; 'I' for Inactive)
    1  A    between atoms: C_1  and  O_5
    2  A    between atoms: O_5  and  C_17
    3  A    between atoms: C_6  and  C_31
    4  A    between atoms: C_11  and  O_26
    5  A    between atoms: C_17  and  O_26
                            x       y       z     vdW  Elec       q    Type
                         _______ _______ _______ _____ _____    ______ ____

>  <TORSDO>
F 5

$$$$
