=
 OpenBabel10272400453D

 25 29  0  0  1  0  0  0  0  0999 V2000
  188.6200  177.1810  143.7580 C   0  0  1  0  0  3  0  0  0  0  0  0
  190.7870  178.0040  143.1650 C   0  0  1  0  0  0  0  0  0  0  0  0
  189.8780  176.0390  141.8500 C   0  0  2  0  0  3  0  0  0  0  0  0
  190.1570  179.2440  143.6390 C   0  0  0  0  0  2  0  0  0  0  0  0
  191.5440  175.8800  143.8340 C   0  0  0  0  0  0  0  0  0  0  0  0
  192.3010  175.1470  144.5210 O   0  0  0  0  0  0  0  0  0  0  0  0
  190.4240  177.4750  141.7390 C   0  0  1  0  0  0  0  0  0  0  0  0
  188.9400  175.8460  143.0370 C   0  0  1  0  0  3  0  0  0  0  0  0
  191.8140  177.2550  143.7510 O   0  0  0  0  0  0  0  0  0  0  0  0
  190.3750  175.2310  143.0680 C   0  0  1  0  0  3  0  0  0  0  0  0
  189.7470  177.9690  144.2400 N   0  0  1  0  0  0  0  0  0  0  0  0
  189.4060  178.3330  140.9880 C   0  0  0  0  0  1  0  0  0  0  0  0
  191.7260  176.8520  139.6140 C   0  0  0  0  0  0  0  0  0  0  0  0
  190.7130  176.3490  139.0590 O   0  0  0  0  0  0  0  0  0  0  0  0
  193.0260  176.8640  138.8960 C   0  0  0  0  0  1  0  0  0  0  0  0
  191.6420  177.4130  140.9290 N   0  0  0  0  0  2  0  0  0  0  0  0
  187.3020  177.8740  143.5410 C   0  0  0  0  0  0  0  0  0  0  0  0
  186.9800  178.2400  142.3800 O   0  0  0  0  0  0  0  0  0  0  0  0
  186.3900  178.1250  144.6830 C   0  0  0  0  0  0  0  0  0  0  0  0
  184.7090  178.5950  146.8920 C   0  0  0  0  0  3  0  0  0  0  0  0
  185.0210  178.4140  144.4940 C   0  0  0  0  0  0  0  0  0  0  0  0
  184.1920  178.6460  145.5960 C   0  0  0  0  0  3  0  0  0  0  0  0
  186.0620  178.3110  147.0900 C   0  0  0  0  0  3  0  0  0  0  0  0
  184.4770  178.4710  143.2520 F   0  0  0  0  0  0  0  0  0  0  0  0
  186.8940  178.0780  145.9930 C   0  0  0  0  0  3  0  0  0  0  0  0
  1 17  1  6  0  0  0
  1 11  1  0  0  0  0
  2  4  1  6  0  0  0
  2  9  1  0  0  0  0
  2 11  1  0  0  0  0
  3  8  1  0  0  0  0
  3 10  1  0  0  0  0
  4 11  1  0  0  0  0
  5  6  2  0  0  0  0
  7  3  1  0  0  0  0
  7  2  1  0  0  0  0
  8 10  1  0  0  0  0
  8  1  1  0  0  0  0
  9  5  1  0  0  0  0
 10  5  1  0  0  0  0
 12  7  1  0  0  0  0
 13 16  1  0  0  0  0
 14 13  2  0  0  0  0
 15 13  1  0  0  0  0
 16  7  1  0  0  0  0
 17 19  1  0  0  0  0
 18 17  2  0  0  0  0
 19 25  1  0  0  0  0
 20 23  1  0  0  0  0
 21 19  2  0  0  0  0
 21 22  1  0  0  0  0
 22 20  2  0  0  0  0
 24 21  1  0  0  0  0
 25 23  2  0  0  0  0
M  END
>  <MODEL>
1

>  <REMARK>
 VINA RESULT:      -7.6      0.000      0.000
  Name = 
  3 active torsions:
  status: ('A' for Active; 'I' for Inactive)
    1  A    between atoms: C_1  and  C_3
    2  A    between atoms: C_1  and  C_5
    3  A    between atoms: C_15  and  N_21
                            x       y       z     vdW  Elec       q    Type
                         _______ _______ _______ _____ _____    ______ ____

>  <TORSDO>
F 3

$$$$
=
 OpenBabel10272400453D

 25 29  0  0  1  0  0  0  0  0999 V2000
  190.8080  177.1570  142.0850 C   0  0  1  0  0  3  0  0  0  0  0  0
  189.4360  176.4970  143.9290 C   0  0  1  0  0  0  0  0  0  0  0  0
  190.3050  178.8770  143.9060 C   0  0  2  0  0  3  0  0  0  0  0  0
  188.8770  175.6460  142.8700 C   0  0  0  0  0  2  0  0  0  0  0  0
  191.3540  176.9040  145.2280 C   0  0  0  0  0  0  0  0  0  0  0  0
  192.2080  176.5360  146.0750 O   0  0  0  0  0  0  0  0  0  0  0  0
  189.0340  178.0090  143.9670 C   0  0  1  0  0  0  0  0  0  0  0  0
  191.3430  178.3500  142.9200 C   0  0  1  0  0  3  0  0  0  0  0  0
  190.1940  176.1340  145.0480 O   0  0  0  0  0  0  0  0  0  0  0  0
  191.5880  178.2180  144.4570 C   0  0  1  0  0  3  0  0  0  0  0  0
  190.3000  176.0030  142.8130 N   0  0  1  0  0  0  0  0  0  0  0  0
  188.0890  178.4390  142.8460 C   0  0  0  0  0  1  0  0  0  0  0  0
  187.0620  177.8580  145.6060 C   0  0  0  0  0  0  0  0  0  0  0  0
  186.3620  177.1790  144.8080 O   0  0  0  0  0  0  0  0  0  0  0  0
  186.5170  178.2090  146.9430 C   0  0  0  0  0  1  0  0  0  0  0  0
  188.3760  178.2950  145.2430 N   0  0  0  0  0  2  0  0  0  0  0  0
  190.3680  177.3550  140.6590 C   0  0  0  0  0  0  0  0  0  0  0  0
  189.3550  178.0630  140.4170 O   0  0  0  0  0  0  0  0  0  0  0  0
  191.1210  176.7230  139.5480 C   0  0  0  0  0  0  0  0  0  0  0  0
  192.4940  175.4960  137.4190 C   0  0  0  0  0  3  0  0  0  0  0  0
  192.4990  176.9630  139.3500 C   0  0  0  0  0  0  0  0  0  0  0  0
  193.1740  176.3490  138.2900 C   0  0  0  0  0  3  0  0  0  0  0  0
  191.1320  175.2540  137.6050 C   0  0  0  0  0  3  0  0  0  0  0  0
  193.1980  177.7820  140.1750 F   0  0  0  0  0  0  0  0  0  0  0  0
  190.4520  175.8630  138.6620 C   0  0  0  0  0  3  0  0  0  0  0  0
  1 17  1  1  0  0  0
  1 11  1  0  0  0  0
  1  8  1  0  0  0  0
  2  4  1  1  0  0  0
  2  7  1  0  0  0  0
  2  9  1  0  0  0  0
  3  7  1  0  0  0  0
  3 10  1  0  0  0  0
  5  6  2  0  0  0  0
  7 16  1  0  0  0  0
  8  3  1  0  0  0  0
  8 10  1  0  0  0  0
  9  5  1  0  0  0  0
 10  5  1  0  0  0  0
 11  4  1  0  0  0  0
 11  2  1  0  0  0  0
 12  7  1  0  0  0  0
 13 15  1  0  0  0  0
 14 13  2  0  0  0  0
 16 13  1  0  0  0  0
 18 17  2  0  0  0  0
 19 17  1  0  0  0  0
 20 23  2  0  0  0  0
 20 22  1  0  0  0  0
 21 19  1  0  0  0  0
 21 24  1  0  0  0  0
 22 21  2  0  0  0  0
 23 25  1  0  0  0  0
 25 19  2  0  0  0  0
M  END
>  <MODEL>
2

>  <REMARK>
 VINA RESULT:      -7.2      2.471      6.604
  Name = 
  3 active torsions:
  status: ('A' for Active; 'I' for Inactive)
    1  A    between atoms: C_1  and  C_3
    2  A    between atoms: C_1  and  C_5
    3  A    between atoms: C_15  and  N_21
                            x       y       z     vdW  Elec       q    Type
                         _______ _______ _______ _____ _____    ______ ____

>  <TORSDO>
F 3

$$$$
=
 OpenBabel10272400453D

 25 29  0  0  1  0  0  0  0  0999 V2000
  190.8120  177.1690  142.1690 C   0  0  1  0  0  3  0  0  0  0  0  0
  189.4340  176.5110  144.0100 C   0  0  1  0  0  0  0  0  0  0  0  0
  190.3020  178.8910  143.9860 C   0  0  2  0  0  3  0  0  0  0  0  0
  188.8800  175.6580  142.9500 C   0  0  0  0  0  2  0  0  0  0  0  0
  191.3470  176.9210  145.3150 C   0  0  0  0  0  0  0  0  0  0  0  0
  192.1990  176.5550  146.1660 O   0  0  0  0  0  0  0  0  0  0  0  0
  189.0310  178.0220  144.0440 C   0  0  1  0  0  0  0  0  0  0  0  0
  191.3440  178.3630  143.0050 C   0  0  1  0  0  3  0  0  0  0  0  0
  190.1890  176.1500  145.1320 O   0  0  0  0  0  0  0  0  0  0  0  0
  191.5830  178.2330  144.5430 C   0  0  1  0  0  3  0  0  0  0  0  0
  190.3020  176.0160  142.8980 N   0  0  1  0  0  0  0  0  0  0  0  0
  188.0900  178.4500  142.9190 C   0  0  0  0  0  1  0  0  0  0  0  0
  187.0540  177.8710  145.6770 C   0  0  0  0  0  0  0  0  0  0  0  0
  186.3590  177.1890  144.8780 O   0  0  0  0  0  0  0  0  0  0  0  0
  186.5040  178.2240  147.0110 C   0  0  0  0  0  1  0  0  0  0  0  0
  188.3690  178.3110  145.3180 N   0  0  0  0  0  2  0  0  0  0  0  0
  190.3780  177.3650  140.7420 C   0  0  0  0  0  0  0  0  0  0  0  0
  189.2940  177.9580  140.5020 O   0  0  0  0  0  0  0  0  0  0  0  0
  191.2190  176.8640  139.6270 C   0  0  0  0  0  0  0  0  0  0  0  0
  192.8660  175.9350  137.5430 C   0  0  0  0  0  3  0  0  0  0  0  0
  190.6660  176.1560  138.5370 C   0  0  0  0  0  0  0  0  0  0  0  0
  191.4900  175.6980  137.5050 C   0  0  0  0  0  3  0  0  0  0  0  0
  193.4230  176.6320  138.6160 C   0  0  0  0  0  3  0  0  0  0  0  0
  189.3340  175.9080  138.4590 F   0  0  0  0  0  0  0  0  0  0  0  0
  192.6040  177.0920  139.6500 C   0  0  0  0  0  3  0  0  0  0  0  0
  1 17  1  1  0  0  0
  1 11  1  0  0  0  0
  1  8  1  0  0  0  0
  2  4  1  1  0  0  0
  2  7  1  0  0  0  0
  2  9  1  0  0  0  0
  3  7  1  0  0  0  0
  3 10  1  0  0  0  0
  5  6  2  0  0  0  0
  7 16  1  0  0  0  0
  8  3  1  0  0  0  0
  8 10  1  0  0  0  0
  9  5  1  0  0  0  0
 10  5  1  0  0  0  0
 11  4  1  0  0  0  0
 11  2  1  0  0  0  0
 12  7  1  0  0  0  0
 13 15  1  0  0  0  0
 14 13  2  0  0  0  0
 16 13  1  0  0  0  0
 18 17  2  0  0  0  0
 19 25  1  0  0  0  0
 19 17  1  0  0  0  0
 20 23  1  0  0  0  0
 21 19  2  0  0  0  0
 22 20  2  0  0  0  0
 22 21  1  0  0  0  0
 23 25  2  0  0  0  0
 24 21  1  0  0  0  0
M  END
>  <MODEL>
3

>  <REMARK>
 VINA RESULT:      -7.0      2.204      6.466
  Name = 
  3 active torsions:
  status: ('A' for Active; 'I' for Inactive)
    1  A    between atoms: C_1  and  C_3
    2  A    between atoms: C_1  and  C_5
    3  A    between atoms: C_15  and  N_21
                            x       y       z     vdW  Elec       q    Type
                         _______ _______ _______ _____ _____    ______ ____

>  <TORSDO>
F 3

$$$$
=
 OpenBabel10272400453D

 25 29  0  0  1  0  0  0  0  0999 V2000
  188.3520  178.0670  142.9810 C   0  0  1  0  0  3  0  0  0  0  0  0
  189.6530  176.1480  143.5700 C   0  0  1  0  0  0  0  0  0  0  0  0
  190.3070  178.3710  144.5960 C   0  0  2  0  0  3  0  0  0  0  0  0
  188.3450  175.5190  143.3460 C   0  0  0  0  0  2  0  0  0  0  0  0
  191.4210  177.2870  142.5170 C   0  0  0  0  0  0  0  0  0  0  0  0
  192.3550  177.3320  141.6750 O   0  0  0  0  0  0  0  0  0  0  0  0
  189.8950  176.9200  144.9100 C   0  0  1  0  0  0  0  0  0  0  0  0
  189.5090  178.9870  143.4510 C   0  0  1  0  0  3  0  0  0  0  0  0
  190.8240  176.0510  142.8100 O   0  0  0  0  0  0  0  0  0  0  0  0
  191.0030  178.5850  143.2340 C   0  0  1  0  0  3  0  0  0  0  0  0
  188.6960  176.7130  142.5690 N   0  0  1  0  0  0  0  0  0  0  0  0
  188.6900  176.9440  145.8500 C   0  0  0  0  0  1  0  0  0  0  0  0
  191.3080  176.4920  147.0110 C   0  0  0  0  0  0  0  0  0  0  0  0
  190.5990  177.2520  147.7250 O   0  0  0  0  0  0  0  0  0  0  0  0
  192.4680  175.7880  147.6160 C   0  0  0  0  0  1  0  0  0  0  0  0
  191.0110  176.2980  145.6240 N   0  0  0  0  0  2  0  0  0  0  0  0
  186.9320  178.3530  143.3870 C   0  0  0  0  0  0  0  0  0  0  0  0
  186.6510  178.4750  144.6080 O   0  0  0  0  0  0  0  0  0  0  0  0
  185.8710  178.4900  142.3580 C   0  0  0  0  0  0  0  0  0  0  0  0
  183.9040  178.7580  140.3630 C   0  0  0  0  0  3  0  0  0  0  0  0
  184.5030  178.3250  142.6720 C   0  0  0  0  0  0  0  0  0  0  0  0
  183.5320  178.4610  141.6760 C   0  0  0  0  0  3  0  0  0  0  0  0
  185.2520  178.9220  140.0420 C   0  0  0  0  0  3  0  0  0  0  0  0
  184.0990  178.0390  143.9350 F   0  0  0  0  0  0  0  0  0  0  0  0
  186.2270  178.7880  141.0340 C   0  0  0  0  0  3  0  0  0  0  0  0
  1 17  1  1  0  0  0
  1  8  1  0  0  0  0
  2  4  1  1  0  0  0
  2  7  1  0  0  0  0
  3  7  1  0  0  0  0
  5  9  1  0  0  0  0
  5 10  1  0  0  0  0
  6  5  2  0  0  0  0
  7 16  1  0  0  0  0
  7 12  1  0  0  0  0
  8  3  1  0  0  0  0
  9  2  1  0  0  0  0
 10  8  1  0  0  0  0
 10  3  1  0  0  0  0
 11  1  1  0  0  0  0
 11  4  1  0  0  0  0
 11  2  1  0  0  0  0
 13 15  1  0  0  0  0
 13 14  2  0  0  0  0
 16 13  1  0  0  0  0
 17 18  2  0  0  0  0
 19 21  1  0  0  0  0
 19 17  1  0  0  0  0
 20 22  1  0  0  0  0
 21 24  1  0  0  0  0
 22 21  2  0  0  0  0
 23 20  2  0  0  0  0
 23 25  1  0  0  0  0
 25 19  2  0  0  0  0
M  END
>  <MODEL>
4

>  <REMARK>
 VINA RESULT:      -7.0      2.409      4.491
  Name = 
  3 active torsions:
  status: ('A' for Active; 'I' for Inactive)
    1  A    between atoms: C_1  and  C_3
    2  A    between atoms: C_1  and  C_5
    3  A    between atoms: C_15  and  N_21
                            x       y       z     vdW  Elec       q    Type
                         _______ _______ _______ _____ _____    ______ ____

>  <TORSDO>
F 3

$$$$
=
 OpenBabel10272400453D

 25 29  0  0  1  0  0  0  0  0999 V2000
  189.5410  177.7480  141.7080 C   0  0  1  0  0  3  0  0  0  0  0  0
  190.0400  178.0710  144.0250 C   0  0  1  0  0  0  0  0  0  0  0  0
  189.2170  175.7840  143.3080 C   0  0  2  0  0  3  0  0  0  0  0  0
  191.0010  179.0020  143.4180 C   0  0  0  0  0  2  0  0  0  0  0  0
  187.7500  177.6510  144.3590 C   0  0  0  0  0  0  0  0  0  0  0  0
  186.6290  177.9750  144.8280 O   0  0  0  0  0  0  0  0  0  0  0  0
  190.3640  176.5400  144.0050 C   0  0  1  0  0  0  0  0  0  0  0  0
  188.6880  176.5050  142.0730 C   0  0  1  0  0  3  0  0  0  0  0  0
  188.8940  178.3490  144.7780 O   0  0  0  0  0  0  0  0  0  0  0  0
  187.8320  176.4650  143.3790 C   0  0  1  0  0  3  0  0  0  0  0  0
  189.7230  178.7620  142.7370 N   0  0  1  0  0  0  0  0  0  0  0  0
  191.6800  176.1820  143.3150 C   0  0  0  0  0  1  0  0  0  0  0  0
  191.3490  176.5170  146.3770 C   0  0  0  0  0  0  0  0  0  0  0  0
  192.1950  177.4110  146.1070 O   0  0  0  0  0  0  0  0  0  0  0  0
  191.3020  175.9400  147.7450 C   0  0  0  0  0  1  0  0  0  0  0  0
  190.4310  176.0500  145.3830 N   0  0  0  0  0  2  0  0  0  0  0  0
  190.5260  177.6960  140.5710 C   0  0  0  0  0  0  0  0  0  0  0  0
  191.7600  177.6790  140.8240 O   0  0  0  0  0  0  0  0  0  0  0  0
  190.0500  177.6640  139.1670 C   0  0  0  0  0  0  0  0  0  0  0  0
  189.1170  177.6600  136.5110 C   0  0  0  0  0  3  0  0  0  0  0  0
  190.4230  176.6320  138.2770 C   0  0  0  0  0  0  0  0  0  0  0  0
  189.9550  176.6370  136.9590 C   0  0  0  0  0  3  0  0  0  0  0  0
  188.7430  178.6850  137.3820 C   0  0  0  0  0  3  0  0  0  0  0  0
  191.2320  175.6180  138.6720 F   0  0  0  0  0  0  0  0  0  0  0  0
  189.2070  178.6860  138.7000 C   0  0  0  0  0  3  0  0  0  0  0  0
  1 17  1  1  0  0  0
  1  8  1  0  0  0  0
  1 11  1  0  0  0  0
  2  4  1  1  0  0  0
  2  9  1  0  0  0  0
  3 10  1  0  0  0  0
  3  7  1  0  0  0  0
  5  9  1  0  0  0  0
  5  6  2  0  0  0  0
  7  2  1  0  0  0  0
  7 16  1  0  0  0  0
  8  3  1  0  0  0  0
  8 10  1  0  0  0  0
 10  5  1  0  0  0  0
 11  4  1  0  0  0  0
 11  2  1  0  0  0  0
 12  7  1  0  0  0  0
 13 15  1  0  0  0  0
 14 13  2  0  0  0  0
 16 13  1  0  0  0  0
 17 18  2  0  0  0  0
 19 17  1  0  0  0  0
 20 22  2  0  0  0  0
 20 23  1  0  0  0  0
 21 24  1  0  0  0  0
 21 19  2  0  0  0  0
 22 21  1  0  0  0  0
 23 25  2  0  0  0  0
 25 19  1  0  0  0  0
M  END
>  <MODEL>
5

>  <REMARK>
 VINA RESULT:      -6.8      2.804      6.171
  Name = 
  3 active torsions:
  status: ('A' for Active; 'I' for Inactive)
    1  A    between atoms: C_1  and  C_3
    2  A    between atoms: C_1  and  C_5
    3  A    between atoms: C_15  and  N_21
                            x       y       z     vdW  Elec       q    Type
                         _______ _______ _______ _____ _____    ______ ____

>  <TORSDO>
F 3

$$$$
=
 OpenBabel10272400453D

 25 29  0  0  1  0  0  0  0  0999 V2000
  188.8080  177.6730  144.3100 C   0  0  1  0  0  3  0  0  0  0  0  0
  190.1460  178.4650  142.4920 C   0  0  1  0  0  0  0  0  0  0  0  0
  191.0160  176.4880  143.8170 C   0  0  2  0  0  3  0  0  0  0  0  0
  188.8050  178.7980  141.9940 C   0  0  0  0  0  2  0  0  0  0  0  0
  191.7340  178.9600  144.1550 C   0  0  0  0  0  0  0  0  0  0  0  0
  192.5120  179.7640  144.7310 O   0  0  0  0  0  0  0  0  0  0  0  0
  190.6300  176.9790  142.4090 C   0  0  1  0  0  0  0  0  0  0  0  0
  190.0490  176.9540  144.9000 C   0  0  1  0  0  3  0  0  0  0  0  0
  191.1680  179.3200  142.9230 O   0  0  0  0  0  0  0  0  0  0  0  0
  191.4740  177.5850  144.8020 C   0  0  1  0  0  3  0  0  0  0  0  0
  189.0460  178.8180  143.4420 N   0  0  1  0  0  0  0  0  0  0  0  0
  189.6040  176.0140  141.8150 C   0  0  0  0  0  1  0  0  0  0  0  0
  191.8930  177.2250  140.1860 C   0  0  0  0  0  0  0  0  0  0  0  0
  190.8580  177.5750  139.5590 O   0  0  0  0  0  0  0  0  0  0  0  0
  193.1900  177.1320  139.4680 C   0  0  0  0  0  1  0  0  0  0  0  0
  191.8370  176.9170  141.5830 N   0  0  0  0  0  2  0  0  0  0  0  0
  187.4840  176.9640  144.2130 C   0  0  0  0  0  0  0  0  0  0  0  0
  187.4480  175.7770  143.7950 O   0  0  0  0  0  0  0  0  0  0  0  0
  186.2320  177.6560  144.6060 C   0  0  0  0  0  0  0  0  0  0  0  0
  183.8760  178.9670  145.4130 C   0  0  0  0  0  3  0  0  0  0  0  0
  185.2910  178.0940  143.6480 C   0  0  0  0  0  0  0  0  0  0  0  0
  184.1220  178.7440  144.0570 C   0  0  0  0  0  3  0  0  0  0  0  0
  184.8000  178.5390  146.3680 C   0  0  0  0  0  3  0  0  0  0  0  0
  185.4890  177.8940  142.3210 F   0  0  0  0  0  0  0  0  0  0  0  0
  185.9690  177.8890  145.9660 C   0  0  0  0  0  3  0  0  0  0  0  0
  1 17  1  6  0  0  0
  1  8  1  0  0  0  0
  2  4  1  6  0  0  0
  2  9  1  0  0  0  0
  2 11  1  0  0  0  0
  3 10  1  0  0  0  0
  3  8  1  0  0  0  0
  4 11  1  0  0  0  0
  5  6  2  0  0  0  0
  5 10  1  0  0  0  0
  7  2  1  0  0  0  0
  7  3  1  0  0  0  0
  9  5  1  0  0  0  0
 10  8  1  0  0  0  0
 11  1  1  0  0  0  0
 12  7  1  0  0  0  0
 13 16  1  0  0  0  0
 14 13  2  0  0  0  0
 15 13  1  0  0  0  0
 16  7  1  0  0  0  0
 17 19  1  0  0  0  0
 18 17  2  0  0  0  0
 19 25  1  0  0  0  0
 20 23  1  0  0  0  0
 21 22  1  0  0  0  0
 21 19  2  0  0  0  0
 22 20  2  0  0  0  0
 24 21  1  0  0  0  0
 25 23  2  0  0  0  0
M  END
>  <MODEL>
6

>  <REMARK>
 VINA RESULT:      -6.8      1.534      1.973
  Name = 
  3 active torsions:
  status: ('A' for Active; 'I' for Inactive)
    1  A    between atoms: C_1  and  C_3
    2  A    between atoms: C_1  and  C_5
    3  A    between atoms: C_15  and  N_21
                            x       y       z     vdW  Elec       q    Type
                         _______ _______ _______ _____ _____    ______ ____

>  <TORSDO>
F 3

$$$$
=
 OpenBabel10272400453D

 25 29  0  0  1  0  0  0  0  0999 V2000
  190.1130  177.3400  138.3340 C   0  0  1  0  0  3  0  0  0  0  0  0
  189.1250  177.1410  136.1640 C   0  0  1  0  0  0  0  0  0  0  0  0
  189.5550  175.0060  137.4600 C   0  0  2  0  0  3  0  0  0  0  0  0
  188.5940  178.4470  136.5750 C   0  0  0  0  0  2  0  0  0  0  0  0
  191.0930  175.9780  135.6080 C   0  0  0  0  0  0  0  0  0  0  0  0
  192.1000  175.8070  134.8740 O   0  0  0  0  0  0  0  0  0  0  0  0
  188.4740  175.8460  136.7540 C   0  0  1  0  0  0  0  0  0  0  0  0
  190.5340  175.8480  138.2700 C   0  0  1  0  0  3  0  0  0  0  0  0
  190.0730  176.8420  135.1780 O   0  0  0  0  0  0  0  0  0  0  0  0
  190.9930  175.1920  136.9300 C   0  0  1  0  0  3  0  0  0  0  0  0
  189.9130  178.0340  137.0690 N   0  0  1  0  0  0  0  0  0  0  0  0
  187.3320  176.1060  137.7370 C   0  0  0  0  0  1  0  0  0  0  0  0
  187.3980  173.7200  135.7950 C   0  0  0  0  0  0  0  0  0  0  0  0
  187.3480  173.1560  136.9210 O   0  0  0  0  0  0  0  0  0  0  0  0
  186.8830  173.0110  134.5960 C   0  0  0  0  0  1  0  0  0  0  0  0
  187.9450  175.0360  135.6550 N   0  0  0  0  0  2  0  0  0  0  0  0
  189.4670  177.9030  139.5710 C   0  0  0  0  0  0  0  0  0  0  0  0
  188.6200  178.8280  139.4590 O   0  0  0  0  0  0  0  0  0  0  0  0
  189.8250  177.3740  140.9100 C   0  0  0  0  0  0  0  0  0  0  0  0
  190.4410  176.3540  143.4600 C   0  0  0  0  0  3  0  0  0  0  0  0
  191.1550  177.3890  141.3860 C   0  0  0  0  0  0  0  0  0  0  0  0
  191.4530  176.8810  142.6540 C   0  0  0  0  0  3  0  0  0  0  0  0
  189.1240  176.3330  142.9980 C   0  0  0  0  0  3  0  0  0  0  0  0
  192.1670  177.8950  140.6380 F   0  0  0  0  0  0  0  0  0  0  0  0
  188.8200  176.8400  141.7330 C   0  0  0  0  0  3  0  0  0  0  0  0
  1 17  1  1  0  0  0
  2  4  1  6  0  0  0
  2  7  1  0  0  0  0
  2 11  1  0  0  0  0
  3  8  1  0  0  0  0
  4 11  1  0  0  0  0
  5 10  1  0  0  0  0
  6  5  2  0  0  0  0
  7  3  1  0  0  0  0
  7 12  1  0  0  0  0
  8  1  1  0  0  0  0
  9  5  1  0  0  0  0
  9  2  1  0  0  0  0
 10  3  1  0  0  0  0
 10  8  1  0  0  0  0
 11  1  1  0  0  0  0
 13 14  2  0  0  0  0
 15 13  1  0  0  0  0
 16 13  1  0  0  0  0
 16  7  1  0  0  0  0
 17 19  1  0  0  0  0
 18 17  2  0  0  0  0
 19 21  2  0  0  0  0
 19 25  1  0  0  0  0
 21 22  1  0  0  0  0
 22 20  2  0  0  0  0
 23 20  1  0  0  0  0
 24 21  1  0  0  0  0
 25 23  2  0  0  0  0
M  END
>  <MODEL>
7

>  <REMARK>
 VINA RESULT:      -6.3      4.222      6.603
  Name = 
  3 active torsions:
  status: ('A' for Active; 'I' for Inactive)
    1  A    between atoms: C_1  and  C_3
    2  A    between atoms: C_1  and  C_5
    3  A    between atoms: C_15  and  N_21
                            x       y       z     vdW  Elec       q    Type
                         _______ _______ _______ _____ _____    ______ ____

>  <TORSDO>
F 3

$$$$
=
 OpenBabel10272400453D

 25 29  0  0  1  0  0  0  0  0999 V2000
  188.9310  176.9140  145.1530 C   0  0  1  0  0  3  0  0  0  0  0  0
  191.2810  176.9730  144.7080 C   0  0  1  0  0  0  0  0  0  0  0  0
  189.7110  176.9270  142.7200 C   0  0  2  0  0  3  0  0  0  0  0  0
  191.2360  177.7110  145.9770 C   0  0  0  0  0  2  0  0  0  0  0  0
  190.9320  174.8660  143.7210 C   0  0  0  0  0  0  0  0  0  0  0  0
  191.2100  173.6450  143.6060 O   0  0  0  0  0  0  0  0  0  0  0  0
  190.8540  177.7090  143.3960 C   0  0  1  0  0  0  0  0  0  0  0  0
  188.6800  176.3980  143.7120 C   0  0  1  0  0  3  0  0  0  0  0  0
  191.8000  175.7000  144.4440 O   0  0  0  0  0  0  0  0  0  0  0  0
  189.6740  175.4130  143.0180 C   0  0  1  0  0  3  0  0  0  0  0  0
  190.2410  176.6590  145.7370 N   0  0  1  0  0  0  0  0  0  0  0  0
  190.4070  179.1560  143.6010 C   0  0  0  0  0  1  0  0  0  0  0  0
  191.8710  177.6340  141.0380 C   0  0  0  0  0  0  0  0  0  0  0  0
  190.7450  177.5390  140.4820 O   0  0  0  0  0  0  0  0  0  0  0  0
  193.1010  177.6640  140.2050 C   0  0  0  0  0  1  0  0  0  0  0  0
  191.9830  177.7150  142.4630 N   0  0  0  0  0  2  0  0  0  0  0  0
  188.0940  178.0240  145.7270 C   0  0  0  0  0  0  0  0  0  0  0  0
  188.5710  178.7490  146.6400 O   0  0  0  0  0  0  0  0  0  0  0  0
  186.7200  178.2650  145.2230 C   0  0  0  0  0  0  0  0  0  0  0  0
  184.1320  178.7070  144.2080 C   0  0  0  0  0  3  0  0  0  0  0  0
  185.6500  178.5690  146.0940 C   0  0  0  0  0  0  0  0  0  0  0  0
  184.3670  178.7880  145.5820 C   0  0  0  0  0  3  0  0  0  0  0  0
  185.1820  178.4060  143.3390 C   0  0  0  0  0  3  0  0  0  0  0  0
  185.8350  178.6610  147.4350 F   0  0  0  0  0  0  0  0  0  0  0  0
  186.4650  178.1860  143.8450 C   0  0  0  0  0  3  0  0  0  0  0  0
  1 17  1  6  0  0  0
  1 11  1  0  0  0  0
  2 11  1  0  0  0  0
  2  4  1  1  0  0  0
  3 10  1  0  0  0  0
  3  7  1  0  0  0  0
  3  8  1  0  0  0  0
  5  9  1  0  0  0  0
  6  5  2  0  0  0  0
  7 12  1  0  0  0  0
  7  2  1  0  0  0  0
  8  1  1  0  0  0  0
  9  2  1  0  0  0  0
 10  8  1  0  0  0  0
 10  5  1  0  0  0  0
 11  4  1  0  0  0  0
 13 16  1  0  0  0  0
 14 13  2  0  0  0  0
 15 13  1  0  0  0  0
 16  7  1  0  0  0  0
 17 18  2  0  0  0  0
 19 17  1  0  0  0  0
 19 21  1  0  0  0  0
 20 22  1  0  0  0  0
 21 24  1  0  0  0  0
 22 21  2  0  0  0  0
 23 25  1  0  0  0  0
 23 20  2  0  0  0  0
 25 19  2  0  0  0  0
M  END
>  <MODEL>
8

>  <REMARK>
 VINA RESULT:      -6.2      1.817      2.275
  Name = 
  3 active torsions:
  status: ('A' for Active; 'I' for Inactive)
    1  A    between atoms: C_1  and  C_3
    2  A    between atoms: C_1  and  C_5
    3  A    between atoms: C_15  and  N_21
                            x       y       z     vdW  Elec       q    Type
                         _______ _______ _______ _____ _____    ______ ____

>  <TORSDO>
F 3

$$$$
=
 OpenBabel10272400453D

 25 29  0  0  1  0  0  0  0  0999 V2000
  189.7190  177.1260  137.1470 C   0  0  1  0  0  3  0  0  0  0  0  0
  188.3940  176.3120  135.3280 C   0  0  1  0  0  0  0  0  0  0  0  0
  188.7710  174.7580  137.2940 C   0  0  2  0  0  3  0  0  0  0  0  0
  188.0840  177.7460  135.2570 C   0  0  0  0  0  2  0  0  0  0  0  0
  190.1090  174.7220  135.0690 C   0  0  0  0  0  0  0  0  0  0  0  0
  190.9660  174.1330  134.3610 O   0  0  0  0  0  0  0  0  0  0  0  0
  187.6980  175.4470  136.4300 C   0  0  1  0  0  0  0  0  0  0  0  0
  189.9520  175.6670  137.6190 C   0  0  1  0  0  3  0  0  0  0  0  0
  189.1400  175.5230  134.4440 O   0  0  0  0  0  0  0  0  0  0  0  0
  190.1240  174.5010  136.5940 C   0  0  1  0  0  3  0  0  0  0  0  0
  189.4070  177.3330  135.7390 N   0  0  1  0  0  0  0  0  0  0  0  0
  186.7570  176.2300  137.3460 C   0  0  0  0  0  1  0  0  0  0  0  0
  186.2760  173.3080  136.4690 C   0  0  0  0  0  0  0  0  0  0  0  0
  186.3570  173.1960  137.7210 O   0  0  0  0  0  0  0  0  0  0  0  0
  185.5030  172.3060  135.6910 C   0  0  0  0  0  1  0  0  0  0  0  0
  186.9180  174.3890  135.7840 N   0  0  0  0  0  2  0  0  0  0  0  0
  189.3370  178.1980  138.1310 C   0  0  0  0  0  0  0  0  0  0  0  0
  188.9820  179.3290  137.7050 O   0  0  0  0  0  0  0  0  0  0  0  0
  189.3800  177.9280  139.5890 C   0  0  0  0  0  0  0  0  0  0  0  0
  189.5250  177.4060  142.3500 C   0  0  0  0  0  3  0  0  0  0  0  0
  188.2320  178.0490  140.4030 C   0  0  0  0  0  0  0  0  0  0  0  0
  188.3110  177.7870  141.7740 C   0  0  0  0  0  3  0  0  0  0  0  0
  190.6650  177.2850  141.5550 C   0  0  0  0  0  3  0  0  0  0  0  0
  187.0330  178.4130  139.8820 F   0  0  0  0  0  0  0  0  0  0  0  0
  190.5920  177.5450  140.1850 C   0  0  0  0  0  3  0  0  0  0  0  0
  1  8  1  0  0  0  0
  1 17  1  1  0  0  0
  2  4  1  6  0  0  0
  2 11  1  0  0  0  0
  2  7  1  0  0  0  0
  3  8  1  0  0  0  0
  4 11  1  0  0  0  0
  5 10  1  0  0  0  0
  6  5  2  0  0  0  0
  7  3  1  0  0  0  0
  7 12  1  0  0  0  0
  9  5  1  0  0  0  0
  9  2  1  0  0  0  0
 10  3  1  0  0  0  0
 10  8  1  0  0  0  0
 11  1  1  0  0  0  0
 13 14  2  0  0  0  0
 15 13  1  0  0  0  0
 16  7  1  0  0  0  0
 16 13  1  0  0  0  0
 17 19  1  0  0  0  0
 18 17  2  0  0  0  0
 19 25  2  0  0  0  0
 19 21  1  0  0  0  0
 21 22  2  0  0  0  0
 22 20  1  0  0  0  0
 23 20  2  0  0  0  0
 24 21  1  0  0  0  0
 25 23  1  0  0  0  0
M  END
>  <MODEL>
9

>  <REMARK>
 VINA RESULT:      -6.1      4.646      7.087
  Name = 
  3 active torsions:
  status: ('A' for Active; 'I' for Inactive)
    1  A    between atoms: C_1  and  C_3
    2  A    between atoms: C_1  and  C_5
    3  A    between atoms: C_15  and  N_21
                            x       y       z     vdW  Elec       q    Type
                         _______ _______ _______ _____ _____    ______ ____

>  <TORSDO>
F 3

$$$$
