=
 OpenBabel10272401103D

 27 31  0  0  1  0  0  0  0  0999 V2000
  189.2070  177.6720  145.1700 C   0  0  0  0  0  3  0  0  0  0  0  0
  188.3020  177.7260  142.8110 C   0  0  0  0  0  0  0  0  0  0  0  0
  190.5450  176.8180  142.6260 N   0  0  0  0  0  0  0  0  0  0  0  0
  188.7200  178.2740  138.2670 S   0  0  0  0  0  0  0  0  0  0  0  0
  190.6620  176.4160  137.7220 C   0  0  0  0  0  1  0  0  0  0  0  0
  187.1760  178.0730  142.0230 C   0  0  0  0  0  3  0  0  0  0  0  0
  190.7320  177.5320  139.8870 N   0  0  0  0  0  0  0  0  0  0  0  0
  192.0940  174.5050  145.1550 C   0  0  0  0  0  3  0  0  0  0  0  0
  192.1050  177.4770  140.3700 C   0  0  0  0  0  1  0  0  0  0  0  0
  192.3210  174.9990  146.3690 C   0  0  0  0  0  3  0  0  0  0  0  0
  189.5900  177.7200  140.7230 C   0  0  0  0  0  0  0  0  0  0  0  0
  188.1330  177.7290  144.1650 C   0  0  0  0  0  0  0  0  0  0  0  0
  190.4610  177.7220  138.4660 C   0  0  2  0  0  3  0  0  0  0  0  0
  188.4720  178.0980  140.0200 C   0  0  0  0  0  0  0  0  0  0  0  0
  190.3760  177.0590  145.1190 C   0  0  0  0  0  0  0  0  0  0  0  0
  189.5300  177.4520  142.1140 C   0  0  0  0  0  0  0  0  0  0  0  0
  191.5520  175.2090  143.9860 C   0  0  0  0  0  3  0  0  0  0  0  0
  187.2470  178.2460  140.6450 C   0  0  0  0  0  3  0  0  0  0  0  0
  192.0650  176.3660  146.8350 C   0  0  0  0  0  3  0  0  0  0  0  0
  191.2250  177.2480  146.3020 C   0  0  0  0  0  3  0  0  0  0  0  0
  190.8050  176.3130  143.9330 C   0  0  0  0  0  0  0  0  0  0  0  0
  184.3510  178.6360  145.9630 C   0  0  0  0  0  3  0  0  0  0  0  0
  186.8160  178.0180  144.7790 C   0  0  0  0  0  0  0  0  0  0  0  0
  185.6910  178.2720  143.9800 C   0  0  0  0  0  3  0  0  0  0  0  0
  184.4620  178.5740  144.5710 C   0  0  0  0  0  3  0  0  0  0  0  0
  185.4710  178.3980  146.7650 C   0  0  0  0  0  3  0  0  0  0  0  0
  186.7020  178.0950  146.1740 C   0  0  0  0  0  3  0  0  0  0  0  0
  2 12  1  0  0  0  0
  3 21  2  0  0  0  0
  4 13  1  0  0  0  0
  4 14  1  0  0  0  0
  6  2  2  0  0  0  0
  7  9  1  0  0  0  0
  7 11  1  0  0  0  0
  8 10  1  0  0  0  0
 10 19  2  0  0  0  0
 11 16  2  0  0  0  0
 12 23  1  0  0  0  0
 12  1  2  0  0  0  0
 13  5  1  6  0  0  0
 13  7  1  0  0  0  0
 14 18  2  0  0  0  0
 14 11  1  0  0  0  0
 15  1  1  0  0  0  0
 15 20  2  0  0  0  0
 16  3  1  0  0  0  0
 16  2  1  0  0  0  0
 17  8  2  0  0  0  0
 18  6  1  0  0  0  0
 20 19  1  0  0  0  0
 21 17  1  0  0  0  0
 21 15  1  0  0  0  0
 22 26  1  0  0  0  0
 23 27  1  0  0  0  0
 24 25  1  0  0  0  0
 24 23  2  0  0  0  0
 25 22  2  0  0  0  0
 27 26  2  0  0  0  0
M  END
>  <MODEL>
1

>  <REMARK>
 VINA RESULT:     -10.5      0.000      0.000
  Name = 
  1 active torsions:
  status: ('A' for Active; 'I' for Inactive)
    1  A    between atoms: C_9  and  C_15
                            x       y       z     vdW  Elec       q    Type
                         _______ _______ _______ _____ _____    ______ ____

>  <TORSDO>
F 1

$$$$
=
 OpenBabel10272401103D

 27 31  0  0  1  0  0  0  0  0999 V2000
  183.5600  178.2760  141.9200 C   0  0  0  0  0  3  0  0  0  0  0  0
  186.0570  178.3870  141.5440 C   0  0  0  0  0  0  0  0  0  0  0  0
  185.0530  178.8170  139.3770 N   0  0  0  0  0  0  0  0  0  0  0  0
  189.8670  177.7270  139.0590 S   0  0  0  0  0  0  0  0  0  0  0  0
  189.2340  179.1460  136.7990 C   0  0  0  0  0  1  0  0  0  0  0  0
  187.3180  178.2710  142.1800 C   0  0  0  0  0  3  0  0  0  0  0  0
  187.4160  178.0570  138.0040 N   0  0  0  0  0  0  0  0  0  0  0  0
  181.8890  180.7870  138.8760 C   0  0  0  0  0  3  0  0  0  0  0  0
  186.3290  177.8340  137.0610 C   0  0  0  0  0  1  0  0  0  0  0  0
  180.7680  180.2670  139.3680 C   0  0  0  0  0  3  0  0  0  0  0  0
  187.2550  178.1130  139.4210 C   0  0  0  0  0  0  0  0  0  0  0  0
  184.9580  178.4310  142.3520 C   0  0  0  0  0  0  0  0  0  0  0  0
  188.8030  177.9140  137.5730 C   0  0  2  0  0  3  0  0  0  0  0  0
  188.4410  177.9650  140.0980 C   0  0  0  0  0  0  0  0  0  0  0  0
  182.9840  178.6370  140.7870 C   0  0  0  0  0  0  0  0  0  0  0  0
  186.0470  178.4000  140.1060 C   0  0  0  0  0  0  0  0  0  0  0  0
  183.2340  180.1980  138.8930 C   0  0  0  0  0  3  0  0  0  0  0  0
  188.5010  178.0760  141.4760 C   0  0  0  0  0  3  0  0  0  0  0  0
  180.6120  178.9850  140.0630 C   0  0  0  0  0  3  0  0  0  0  0  0
  181.5630  178.2890  140.6780 C   0  0  0  0  0  3  0  0  0  0  0  0
  183.7420  179.2700  139.7040 C   0  0  0  0  0  0  0  0  0  0  0  0
  185.2650  178.3520  146.6250 C   0  0  0  0  0  3  0  0  0  0  0  0
  185.0840  178.4210  143.8290 C   0  0  0  0  0  0  0  0  0  0  0  0
  186.1820  177.8080  144.4520 C   0  0  0  0  0  3  0  0  0  0  0  0
  186.2730  177.7780  145.8460 C   0  0  0  0  0  3  0  0  0  0  0  0
  184.1620  178.9520  146.0110 C   0  0  0  0  0  3  0  0  0  0  0  0
  184.0700  178.9830  144.6160 C   0  0  0  0  0  3  0  0  0  0  0  0
  1 12  1  0  0  0  0
  2  6  1  0  0  0  0
  2 12  2  0  0  0  0
  3 21  1  0  0  0  0
  3 16  2  0  0  0  0
  4 14  1  0  0  0  0
  7 11  1  0  0  0  0
  8 17  1  0  0  0  0
  8 10  2  0  0  0  0
  9  7  1  0  0  0  0
 10 19  1  0  0  0  0
 11 14  2  0  0  0  0
 11 16  1  0  0  0  0
 12 23  1  0  0  0  0
 13  5  1  1  0  0  0
 13  7  1  0  0  0  0
 13  4  1  0  0  0  0
 14 18  1  0  0  0  0
 15  1  2  0  0  0  0
 16  2  1  0  0  0  0
 17 21  2  0  0  0  0
 18  6  2  0  0  0  0
 19 20  2  0  0  0  0
 20 15  1  0  0  0  0
 21 15  1  0  0  0  0
 23 24  2  0  0  0  0
 23 27  1  0  0  0  0
 24 25  1  0  0  0  0
 25 22  2  0  0  0  0
 26 22  1  0  0  0  0
 27 26  2  0  0  0  0
M  END
>  <MODEL>
2

>  <REMARK>
 VINA RESULT:      -9.7      3.311      6.696
  Name = 
  1 active torsions:
  status: ('A' for Active; 'I' for Inactive)
    1  A    between atoms: C_9  and  C_15
                            x       y       z     vdW  Elec       q    Type
                         _______ _______ _______ _____ _____    ______ ____

>  <TORSDO>
F 1

$$$$
=
 OpenBabel10272401103D

 27 31  0  0  1  0  0  0  0  0999 V2000
  191.2330  177.3220  142.7180 C   0  0  0  0  0  3  0  0  0  0  0  0
  188.8940  177.2330  143.6700 C   0  0  0  0  0  0  0  0  0  0  0  0
  188.6110  177.5040  141.2750 N   0  0  0  0  0  0  0  0  0  0  0  0
  184.4650  178.4580  143.7980 S   0  0  0  0  0  0  0  0  0  0  0  0
  183.6970  177.7990  141.2490 C   0  0  0  0  0  1  0  0  0  0  0  0
  188.1490  177.1070  144.8690 C   0  0  0  0  0  3  0  0  0  0  0  0
  185.9920  178.5490  141.5870 N   0  0  0  0  0  0  0  0  0  0  0  0
  190.8260  175.8930  138.6980 C   0  0  0  0  0  3  0  0  0  0  0  0
  186.4750  179.0820  140.3210 C   0  0  0  0  0  1  0  0  0  0  0  0
  192.0960  176.2850  138.6610 C   0  0  0  0  0  3  0  0  0  0  0  0
  186.8350  178.0800  142.6390 C   0  0  0  0  0  0  0  0  0  0  0  0
  190.2350  176.9930  143.7480 C   0  0  0  0  0  0  0  0  0  0  0  0
  184.6060  178.7600  141.9910 C   0  0  2  0  0  3  0  0  0  0  0  0
  186.1780  177.9750  143.8410 C   0  0  0  0  0  0  0  0  0  0  0  0
  191.1120  177.3360  141.4020 C   0  0  0  0  0  0  0  0  0  0  0  0
  188.1780  177.6490  142.4940 C   0  0  0  0  0  0  0  0  0  0  0  0
  189.7550  176.3990  139.5670 C   0  0  0  0  0  3  0  0  0  0  0  0
  186.8060  177.4590  144.9610 C   0  0  0  0  0  3  0  0  0  0  0  0
  192.7360  177.3080  139.4950 C   0  0  0  0  0  3  0  0  0  0  0  0
  192.3170  177.7540  140.6750 C   0  0  0  0  0  3  0  0  0  0  0  0
  189.8420  177.0250  140.7410 C   0  0  0  0  0  0  0  0  0  0  0  0
  192.1400  175.7650  147.3840 C   0  0  0  0  0  3  0  0  0  0  0  0
  190.8700  176.5590  145.0140 C   0  0  0  0  0  0  0  0  0  0  0  0
  190.6200  177.2420  146.2140 C   0  0  0  0  0  3  0  0  0  0  0  0
  191.2500  176.8420  147.3960 C   0  0  0  0  0  3  0  0  0  0  0  0
  192.4040  175.0890  146.1890 C   0  0  0  0  0  3  0  0  0  0  0  0
  191.7740  175.4880  145.0060 C   0  0  0  0  0  3  0  0  0  0  0  0
  1 12  1  0  0  0  0
  2 12  2  0  0  0  0
  2  6  1  0  0  0  0
  3 16  2  0  0  0  0
  4 14  1  0  0  0  0
  6 18  2  0  0  0  0
  7 13  1  0  0  0  0
  7 11  1  0  0  0  0
  8 17  1  0  0  0  0
  9  7  1  0  0  0  0
 10  8  2  0  0  0  0
 10 19  1  0  0  0  0
 11 14  2  0  0  0  0
 12 23  1  0  0  0  0
 13  5  1  6  0  0  0
 13  4  1  0  0  0  0
 14 18  1  0  0  0  0
 15  1  2  0  0  0  0
 16 11  1  0  0  0  0
 16  2  1  0  0  0  0
 17 21  2  0  0  0  0
 19 20  2  0  0  0  0
 20 15  1  0  0  0  0
 21  3  1  0  0  0  0
 21 15  1  0  0  0  0
 22 25  1  0  0  0  0
 23 24  1  0  0  0  0
 24 25  2  0  0  0  0
 26 22  2  0  0  0  0
 27 23  2  0  0  0  0
 27 26  1  0  0  0  0
M  END
>  <MODEL>
3

>  <REMARK>
 VINA RESULT:      -9.7      2.108      5.513
  Name = 
  1 active torsions:
  status: ('A' for Active; 'I' for Inactive)
    1  A    between atoms: C_9  and  C_15
                            x       y       z     vdW  Elec       q    Type
                         _______ _______ _______ _____ _____    ______ ____

>  <TORSDO>
F 1

$$$$
=
 OpenBabel10272401103D

 27 31  0  0  1  0  0  0  0  0999 V2000
  189.1400  177.8770  144.7200 C   0  0  0  0  0  3  0  0  0  0  0  0
  188.5150  177.6580  142.2810 C   0  0  0  0  0  0  0  0  0  0  0  0
  190.7840  176.8120  142.4500 N   0  0  0  0  0  0  0  0  0  0  0  0
  189.4500  177.7500  137.7810 S   0  0  0  0  0  0  0  0  0  0  0  0
  191.4820  175.9120  137.6610 C   0  0  0  0  0  1  0  0  0  0  0  0
  187.4820  177.8830  141.3380 C   0  0  0  0  0  3  0  0  0  0  0  0
  191.2750  177.2460  139.6900 N   0  0  0  0  0  0  0  0  0  0  0  0
  192.0760  174.8240  145.3700 C   0  0  0  0  0  3  0  0  0  0  0  0
  192.5820  177.2880  140.3300 C   0  0  0  0  0  1  0  0  0  0  0  0
  192.1490  175.4480  146.5420 C   0  0  0  0  0  3  0  0  0  0  0  0
  190.0390  177.4810  140.3660 C   0  0  0  0  0  0  0  0  0  0  0  0
  188.1900  177.7940  143.5990 C   0  0  0  0  0  0  0  0  0  0  0  0
  191.1670  177.2800  138.2360 C   0  0  2  0  0  3  0  0  0  0  0  0
  189.0030  177.7460  139.5040 C   0  0  0  0  0  0  0  0  0  0  0  0
  190.3200  177.3020  144.8680 C   0  0  0  0  0  0  0  0  0  0  0  0
  189.8230  177.3550  141.7620 C   0  0  0  0  0  0  0  0  0  0  0  0
  191.6590  175.3860  144.0780 C   0  0  0  0  0  3  0  0  0  0  0  0
  187.7100  177.9170  139.9660 C   0  0  0  0  0  3  0  0  0  0  0  0
  191.8110  176.8460  146.8290 C   0  0  0  0  0  3  0  0  0  0  0  0
  191.0200  177.6400  146.1130 C   0  0  0  0  0  3  0  0  0  0  0  0
  190.9000  176.4530  143.8240 C   0  0  0  0  0  0  0  0  0  0  0  0
  184.1620  178.6100  144.8100 C   0  0  0  0  0  3  0  0  0  0  0  0
  186.8040  178.1010  144.0250 C   0  0  0  0  0  0  0  0  0  0  0  0
  186.4810  178.2220  145.3850 C   0  0  0  0  0  3  0  0  0  0  0  0
  185.1640  178.4810  145.7750 C   0  0  0  0  0  3  0  0  0  0  0  0
  184.4740  178.4770  143.4540 C   0  0  0  0  0  3  0  0  0  0  0  0
  185.7910  178.2180  143.0630 C   0  0  0  0  0  3  0  0  0  0  0  0
  1 15  1  0  0  0  0
  2 12  1  0  0  0  0
  3 21  2  0  0  0  0
  4 13  1  0  0  0  0
  4 14  1  0  0  0  0
  6  2  2  0  0  0  0
  7  9  1  0  0  0  0
  7 11  1  0  0  0  0
  8 10  1  0  0  0  0
 10 19  2  0  0  0  0
 11 16  2  0  0  0  0
 12 23  1  0  0  0  0
 12  1  2  0  0  0  0
 13  5  1  6  0  0  0
 13  7  1  0  0  0  0
 14 18  2  0  0  0  0
 14 11  1  0  0  0  0
 15 20  2  0  0  0  0
 16  2  1  0  0  0  0
 16  3  1  0  0  0  0
 17  8  2  0  0  0  0
 18  6  1  0  0  0  0
 20 19  1  0  0  0  0
 21 17  1  0  0  0  0
 21 15  1  0  0  0  0
 22 25  1  0  0  0  0
 23 24  1  0  0  0  0
 24 25  2  0  0  0  0
 26 22  2  0  0  0  0
 27 26  1  0  0  0  0
 27 23  2  0  0  0  0
M  END
>  <MODEL>
4

>  <REMARK>
 VINA RESULT:      -9.6      0.670      1.174
  Name = 
  1 active torsions:
  status: ('A' for Active; 'I' for Inactive)
    1  A    between atoms: C_9  and  C_15
                            x       y       z     vdW  Elec       q    Type
                         _______ _______ _______ _____ _____    ______ ____

>  <TORSDO>
F 1

$$$$
=
 OpenBabel10272401103D

 27 31  0  0  1  0  0  0  0  0999 V2000
  191.4730  177.2650  140.3570 C   0  0  0  0  0  3  0  0  0  0  0  0
  189.0300  177.6300  140.8890 C   0  0  0  0  0  0  0  0  0  0  0  0
  189.0910  176.9130  138.5710 N   0  0  0  0  0  0  0  0  0  0  0  0
  184.7460  178.9140  139.8250 S   0  0  0  0  0  0  0  0  0  0  0  0
  184.2690  177.2970  137.6620 C   0  0  0  0  0  1  0  0  0  0  0  0
  188.1240  178.0210  141.9060 C   0  0  0  0  0  3  0  0  0  0  0  0
  186.5540  178.0600  138.0290 N   0  0  0  0  0  0  0  0  0  0  0  0
  191.4810  174.3380  137.2270 C   0  0  0  0  0  3  0  0  0  0  0  0
  187.2450  178.0210  136.7470 C   0  0  0  0  0  1  0  0  0  0  0  0
  192.7740  174.6490  137.2360 C   0  0  0  0  0  3  0  0  0  0  0  0
  187.2070  178.0380  139.2980 C   0  0  0  0  0  0  0  0  0  0  0  0
  190.3230  177.4080  141.2630 C   0  0  0  0  0  0  0  0  0  0  0  0
  185.1500  178.4530  138.0930 C   0  0  2  0  0  3  0  0  0  0  0  0
  186.3900  178.4470  140.3240 C   0  0  0  0  0  0  0  0  0  0  0  0
  191.5300  176.7470  139.1430 C   0  0  0  0  0  0  0  0  0  0  0  0
  188.5150  177.5510  139.5470 C   0  0  0  0  0  0  0  0  0  0  0  0
  190.3520  175.1800  137.6440 C   0  0  0  0  0  3  0  0  0  0  0  0
  186.8170  178.4130  141.6390 C   0  0  0  0  0  3  0  0  0  0  0  0
  193.3840  175.9050  137.6830 C   0  0  0  0  0  3  0  0  0  0  0  0
  192.8520  176.8020  138.5080 C   0  0  0  0  0  3  0  0  0  0  0  0
  190.3360  176.2270  138.4710 C   0  0  0  0  0  0  0  0  0  0  0  0
  191.6070  177.6620  145.3430 C   0  0  0  0  0  3  0  0  0  0  0  0
  190.7450  177.5100  142.6800 C   0  0  0  0  0  0  0  0  0  0  0  0
  191.1780  178.7320  143.2140 C   0  0  0  0  0  3  0  0  0  0  0  0
  191.6040  178.8080  144.5440 C   0  0  0  0  0  3  0  0  0  0  0  0
  191.1890  176.4380  144.8130 C   0  0  0  0  0  3  0  0  0  0  0  0
  190.7630  176.3610  143.4840 C   0  0  0  0  0  3  0  0  0  0  0  0
  1 12  1  0  0  0  0
  2 12  2  0  0  0  0
  2  6  1  0  0  0  0
  3 16  2  0  0  0  0
  4 14  1  0  0  0  0
  7 13  1  0  0  0  0
  7 11  1  0  0  0  0
  8 10  2  0  0  0  0
  8 17  1  0  0  0  0
  9  7  1  0  0  0  0
 10 19  1  0  0  0  0
 11 16  1  0  0  0  0
 11 14  2  0  0  0  0
 12 23  1  0  0  0  0
 13  5  1  1  0  0  0
 13  4  1  0  0  0  0
 14 18  1  0  0  0  0
 15  1  2  0  0  0  0
 16  2  1  0  0  0  0
 17 21  2  0  0  0  0
 18  6  2  0  0  0  0
 19 20  2  0  0  0  0
 20 15  1  0  0  0  0
 21  3  1  0  0  0  0
 21 15  1  0  0  0  0
 23 24  2  0  0  0  0
 23 27  1  0  0  0  0
 24 25  1  0  0  0  0
 25 22  2  0  0  0  0
 26 22  1  0  0  0  0
 27 26  2  0  0  0  0
M  END
>  <MODEL>
5

>  <REMARK>
 VINA RESULT:      -9.5      2.611      5.651
  Name = 
  1 active torsions:
  status: ('A' for Active; 'I' for Inactive)
    1  A    between atoms: C_9  and  C_15
                            x       y       z     vdW  Elec       q    Type
                         _______ _______ _______ _____ _____    ______ ____

>  <TORSDO>
F 1

$$$$
=
 OpenBabel10272401103D

 27 31  0  0  1  0  0  0  0  0999 V2000
  188.9810  178.4130  140.1690 C   0  0  0  0  0  3  0  0  0  0  0  0
  187.0960  178.0860  141.8200 C   0  0  0  0  0  0  0  0  0  0  0  0
  186.0300  178.3240  139.6530 N   0  0  0  0  0  0  0  0  0  0  0  0
  182.8490  178.8490  143.4030 S   0  0  0  0  0  0  0  0  0  0  0  0
  181.3670  178.1130  141.2160 C   0  0  0  0  0  1  0  0  0  0  0  0
  186.7940  177.8850  143.1890 C   0  0  0  0  0  3  0  0  0  0  0  0
  183.5630  179.0940  140.8230 N   0  0  0  0  0  0  0  0  0  0  0  0
  187.4400  176.9460  136.4500 C   0  0  0  0  0  3  0  0  0  0  0  0
  183.5570  179.6730  139.4870 C   0  0  0  0  0  1  0  0  0  0  0  0
  188.5850  177.4660  136.0190 C   0  0  0  0  0  3  0  0  0  0  0  0
  184.7430  178.7160  141.5330 C   0  0  0  0  0  0  0  0  0  0  0  0
  188.4070  177.9850  141.4540 C   0  0  0  0  0  0  0  0  0  0  0  0
  182.3680  179.1630  141.6580 C   0  0  2  0  0  3  0  0  0  0  0  0
  184.5220  178.5450  142.8780 C   0  0  0  0  0  0  0  0  0  0  0  0
  188.4420  178.4130  138.9630 C   0  0  0  0  0  0  0  0  0  0  0  0
  186.0010  178.4250  140.9490 C   0  0  0  0  0  0  0  0  0  0  0  0
  186.6620  177.3400  137.6320 C   0  0  0  0  0  3  0  0  0  0  0  0
  185.5260  178.0970  143.7190 C   0  0  0  0  0  3  0  0  0  0  0  0
  189.3570  178.5500  136.6350 C   0  0  0  0  0  3  0  0  0  0  0  0
  189.3000  178.9520  137.9010 C   0  0  0  0  0  3  0  0  0  0  0  0
  187.0630  177.9730  138.7360 C   0  0  0  0  0  0  0  0  0  0  0  0
  191.4890  176.9130  144.2300 C   0  0  0  0  0  3  0  0  0  0  0  0
  189.4560  177.6200  142.4340 C   0  0  0  0  0  0  0  0  0  0  0  0
  190.1010  178.6060  143.1960 C   0  0  0  0  0  3  0  0  0  0  0  0
  191.1110  178.2520  144.0950 C   0  0  0  0  0  3  0  0  0  0  0  0
  190.8600  175.9280  143.4640 C   0  0  0  0  0  3  0  0  0  0  0  0
  189.8500  176.2810  142.5650 C   0  0  0  0  0  3  0  0  0  0  0  0
  1 12  1  0  0  0  0
  2  6  1  0  0  0  0
  3 16  2  0  0  0  0
  6 18  2  0  0  0  0
  7 11  1  0  0  0  0
  7 13  1  0  0  0  0
  8 17  1  0  0  0  0
  9  7  1  0  0  0  0
 10  8  2  0  0  0  0
 10 19  1  0  0  0  0
 11 14  2  0  0  0  0
 12  2  2  0  0  0  0
 12 23  1  0  0  0  0
 13  5  1  6  0  0  0
 13  4  1  0  0  0  0
 14  4  1  0  0  0  0
 14 18  1  0  0  0  0
 15  1  2  0  0  0  0
 16 11  1  0  0  0  0
 16  2  1  0  0  0  0
 17 21  2  0  0  0  0
 19 20  2  0  0  0  0
 20 15  1  0  0  0  0
 21 15  1  0  0  0  0
 21  3  1  0  0  0  0
 23 27  2  0  0  0  0
 23 24  1  0  0  0  0
 24 25  2  0  0  0  0
 25 22  1  0  0  0  0
 26 22  2  0  0  0  0
 27 26  1  0  0  0  0
M  END
>  <MODEL>
6

>  <REMARK>
 VINA RESULT:      -9.4      3.086      6.953
  Name = 
  1 active torsions:
  status: ('A' for Active; 'I' for Inactive)
    1  A    between atoms: C_9  and  C_15
                            x       y       z     vdW  Elec       q    Type
                         _______ _______ _______ _____ _____    ______ ____

>  <TORSDO>
F 1

$$$$
=
 OpenBabel10272401103D

 27 31  0  0  1  0  0  0  0  0999 V2000
  188.5120  178.0660  144.4200 C   0  0  0  0  0  3  0  0  0  0  0  0
  187.2770  178.0060  142.2160 C   0  0  0  0  0  0  0  0  0  0  0  0
  189.4990  177.1540  141.7410 N   0  0  0  0  0  0  0  0  0  0  0  0
  187.0230  178.3930  137.6430 S   0  0  0  0  0  0  0  0  0  0  0  0
  188.9270  176.5700  136.8870 C   0  0  0  0  0  1  0  0  0  0  0  0
  186.0400  178.2900  141.5880 C   0  0  0  0  0  3  0  0  0  0  0  0
  189.2690  177.7690  138.9810 N   0  0  0  0  0  0  0  0  0  0  0  0
  191.4700  174.9820  144.0960 C   0  0  0  0  0  3  0  0  0  0  0  0
  190.6980  177.7700  139.2620 C   0  0  0  0  0  1  0  0  0  0  0  0
  191.8520  175.5280  145.2470 C   0  0  0  0  0  3  0  0  0  0  0  0
  188.2530  177.9570  139.9660 C   0  0  0  0  0  0  0  0  0  0  0  0
  187.3040  178.0550  143.5790 C   0  0  0  0  0  0  0  0  0  0  0  0
  188.7910  177.8970  137.6080 C   0  0  2  0  0  3  0  0  0  0  0  0
  187.0350  178.2760  139.4190 C   0  0  0  0  0  0  0  0  0  0  0  0
  189.6810  177.4840  144.2220 C   0  0  0  0  0  0  0  0  0  0  0  0
  188.4020  177.7390  141.3590 C   0  0  0  0  0  0  0  0  0  0  0  0
  190.7430  175.6260  142.9940 C   0  0  0  0  0  3  0  0  0  0  0  0
  185.9070  178.4130  140.2090 C   0  0  0  0  0  3  0  0  0  0  0  0
  191.6200  176.9040  145.6990 C   0  0  0  0  0  3  0  0  0  0  0  0
  190.6840  177.7410  145.2630 C   0  0  0  0  0  3  0  0  0  0  0  0
  189.9600  176.7060  143.0130 C   0  0  0  0  0  0  0  0  0  0  0  0
  183.7320  178.7880  145.8290 C   0  0  0  0  0  3  0  0  0  0  0  0
  186.0800  178.3310  144.3670 C   0  0  0  0  0  0  0  0  0  0  0  0
  186.0740  178.1800  145.7620 C   0  0  0  0  0  3  0  0  0  0  0  0
  184.9040  178.4130  146.4900 C   0  0  0  0  0  3  0  0  0  0  0  0
  183.7270  178.9270  144.4380 C   0  0  0  0  0  3  0  0  0  0  0  0
  184.8970  178.6940  143.7080 C   0  0  0  0  0  3  0  0  0  0  0  0
  2 12  1  0  0  0  0
  3 21  2  0  0  0  0
  4 14  1  0  0  0  0
  6  2  1  0  0  0  0
  7  9  1  0  0  0  0
  7 11  1  0  0  0  0
  8 10  1  0  0  0  0
 10 19  2  0  0  0  0
 11 16  1  0  0  0  0
 12 23  1  0  0  0  0
 12  1  2  0  0  0  0
 13  5  1  1  0  0  0
 13  4  1  0  0  0  0
 13  7  1  0  0  0  0
 14 11  2  0  0  0  0
 14 18  1  0  0  0  0
 15  1  1  0  0  0  0
 15 20  2  0  0  0  0
 16  3  1  0  0  0  0
 16  2  2  0  0  0  0
 17 21  1  0  0  0  0
 17  8  2  0  0  0  0
 18  6  2  0  0  0  0
 20 19  1  0  0  0  0
 21 15  1  0  0  0  0
 22 25  1  0  0  0  0
 23 24  1  0  0  0  0
 24 25  2  0  0  0  0
 26 22  2  0  0  0  0
 27 23  2  0  0  0  0
 27 26  1  0  0  0  0
M  END
>  <MODEL>
7

>  <REMARK>
 VINA RESULT:      -9.1      1.130      1.631
  Name = 
  1 active torsions:
  status: ('A' for Active; 'I' for Inactive)
    1  A    between atoms: C_9  and  C_15
                            x       y       z     vdW  Elec       q    Type
                         _______ _______ _______ _____ _____    ______ ____

>  <TORSDO>
F 1

$$$$
=
 OpenBabel10272401103D

 27 31  0  0  1  0  0  0  0  0999 V2000
  189.1680  178.0370  143.7570 C   0  0  0  0  0  3  0  0  0  0  0  0
  188.8200  177.5080  141.3100 C   0  0  0  0  0  0  0  0  0  0  0  0
  191.0460  176.7000  141.8410 N   0  0  0  0  0  0  0  0  0  0  0  0
  190.2560  177.0330  136.9700 S   0  0  0  0  0  0  0  0  0  0  0  0
  192.2710  175.2040  137.3140 C   0  0  0  0  0  1  0  0  0  0  0  0
  187.9020  177.6070  140.2360 C   0  0  0  0  0  3  0  0  0  0  0  0
  191.8490  176.7840  139.1210 N   0  0  0  0  0  0  0  0  0  0  0  0
  191.9820  175.1050  145.1160 C   0  0  0  0  0  3  0  0  0  0  0  0
  193.0770  176.9120  139.8930 C   0  0  0  0  0  1  0  0  0  0  0  0
  191.9290  175.8730  146.2000 C   0  0  0  0  0  3  0  0  0  0  0  0
  190.5480  177.0970  139.6180 C   0  0  0  0  0  0  0  0  0  0  0  0
  188.3500  177.8080  142.5550 C   0  0  0  0  0  0  0  0  0  0  0  0
  191.9070  176.6330  137.6710 C   0  0  2  0  0  3  0  0  0  0  0  0
  189.6180  177.2450  138.6180 C   0  0  0  0  0  0  0  0  0  0  0  0
  190.3180  177.4910  144.1090 C   0  0  0  0  0  0  0  0  0  0  0  0
  190.1740  177.1470  140.9850 C   0  0  0  0  0  0  0  0  0  0  0  0
  191.7190  175.4960  143.7240 C   0  0  0  0  0  3  0  0  0  0  0  0
  188.2830  177.4670  138.9050 C   0  0  0  0  0  3  0  0  0  0  0  0
  191.5750  177.2940  146.2670 C   0  0  0  0  0  3  0  0  0  0  0  0
  190.8770  177.9870  145.3720 C   0  0  0  0  0  3  0  0  0  0  0  0
  191.0040  176.5190  143.2530 C   0  0  0  0  0  0  0  0  0  0  0  0
  184.2600  178.8810  143.2530 C   0  0  0  0  0  3  0  0  0  0  0  0
  186.9280  178.1600  142.7800 C   0  0  0  0  0  0  0  0  0  0  0  0
  186.1820  178.8060  141.7830 C   0  0  0  0  0  3  0  0  0  0  0  0
  184.8510  179.1610  142.0180 C   0  0  0  0  0  3  0  0  0  0  0  0
  185.0020  178.2490  144.2560 C   0  0  0  0  0  3  0  0  0  0  0  0
  186.3340  177.8940  144.0220 C   0  0  0  0  0  3  0  0  0  0  0  0
  1 15  1  0  0  0  0
  2 12  1  0  0  0  0
  3 21  2  0  0  0  0
  4 13  1  0  0  0  0
  4 14  1  0  0  0  0
  6  2  2  0  0  0  0
  7 11  1  0  0  0  0
  7  9  1  0  0  0  0
  8 10  1  0  0  0  0
 10 19  2  0  0  0  0
 11 16  2  0  0  0  0
 12 23  1  0  0  0  0
 12  1  2  0  0  0  0
 13  5  1  1  0  0  0
 13  7  1  0  0  0  0
 14 18  2  0  0  0  0
 14 11  1  0  0  0  0
 15 20  2  0  0  0  0
 16  2  1  0  0  0  0
 16  3  1  0  0  0  0
 17  8  2  0  0  0  0
 18  6  1  0  0  0  0
 20 19  1  0  0  0  0
 21 17  1  0  0  0  0
 21 15  1  0  0  0  0
 22 26  1  0  0  0  0
 23 27  1  0  0  0  0
 24 25  1  0  0  0  0
 24 23  2  0  0  0  0
 25 22  2  0  0  0  0
 27 26  2  0  0  0  0
M  END
>  <MODEL>
8

>  <REMARK>
 VINA RESULT:      -9.0      1.237      1.765
  Name = 
  1 active torsions:
  status: ('A' for Active; 'I' for Inactive)
    1  A    between atoms: C_9  and  C_15
                            x       y       z     vdW  Elec       q    Type
                         _______ _______ _______ _____ _____    ______ ____

>  <TORSDO>
F 1

$$$$
=
 OpenBabel10272401103D

 27 31  0  0  1  0  0  0  0  0999 V2000
  187.4960  177.2900  144.6640 C   0  0  0  0  0  3  0  0  0  0  0  0
  189.2560  177.4970  142.8620 C   0  0  0  0  0  0  0  0  0  0  0  0
  187.1980  178.2980  141.8570 N   0  0  0  0  0  0  0  0  0  0  0  0
  190.7030  177.3400  138.5020 S   0  0  0  0  0  0  0  0  0  0  0  0
  188.9820  179.1350  137.3460 C   0  0  0  0  0  1  0  0  0  0  0  0
  190.6250  177.2830  142.5680 C   0  0  0  0  0  3  0  0  0  0  0  0
  188.1620  177.8250  139.2310 N   0  0  0  0  0  0  0  0  0  0  0  0
  184.5910  180.2880  143.6980 C   0  0  0  0  0  3  0  0  0  0  0  0
  186.7100  177.7640  139.1300 C   0  0  0  0  0  1  0  0  0  0  0  0
  183.9480  179.6750  144.6880 C   0  0  0  0  0  3  0  0  0  0  0  0
  188.8950  177.6230  140.4390 C   0  0  0  0  0  0  0  0  0  0  0  0
  188.8790  177.3810  144.1680 C   0  0  0  0  0  0  0  0  0  0  0  0
  188.9840  177.7790  138.0260 C   0  0  2  0  0  3  0  0  0  0  0  0
  190.2260  177.3710  140.2170 C   0  0  0  0  0  0  0  0  0  0  0  0
  186.3940  177.8420  144.1910 C   0  0  0  0  0  0  0  0  0  0  0  0
  188.3810  177.7680  141.7530 C   0  0  0  0  0  0  0  0  0  0  0  0
  185.6060  179.7220  142.8000 C   0  0  0  0  0  3  0  0  0  0  0  0
  191.1160  177.2310  141.2680 C   0  0  0  0  0  3  0  0  0  0  0  0
  184.1150  178.2870  145.1320 C   0  0  0  0  0  3  0  0  0  0  0  0
  185.1680  177.5030  144.9240 C   0  0  0  0  0  3  0  0  0  0  0  0
  186.4040  178.6690  142.9810 C   0  0  0  0  0  0  0  0  0  0  0  0
  191.6930  176.5360  147.2870 C   0  0  0  0  0  3  0  0  0  0  0  0
  189.8680  177.1070  145.2370 C   0  0  0  0  0  0  0  0  0  0  0  0
  191.0710  176.4440  144.9490 C   0  0  0  0  0  3  0  0  0  0  0  0
  191.9820  176.1630  145.9710 C   0  0  0  0  0  3  0  0  0  0  0  0
  190.4910  177.1850  147.5820 C   0  0  0  0  0  3  0  0  0  0  0  0
  189.5790  177.4660  146.5610 C   0  0  0  0  0  3  0  0  0  0  0  0
  2 12  1  0  0  0  0
  3 21  2  0  0  0  0
  4 14  1  0  0  0  0
  6  2  1  0  0  0  0
  7 11  1  0  0  0  0
  8 10  1  0  0  0  0
  9  7  1  0  0  0  0
 10 19  2  0  0  0  0
 11 16  1  0  0  0  0
 12  1  2  0  0  0  0
 12 23  1  0  0  0  0
 13  5  1  1  0  0  0
 13  4  1  0  0  0  0
 13  7  1  0  0  0  0
 14 11  2  0  0  0  0
 14 18  1  0  0  0  0
 15  1  1  0  0  0  0
 15 20  2  0  0  0  0
 16  3  1  0  0  0  0
 16  2  2  0  0  0  0
 17 21  1  0  0  0  0
 17  8  2  0  0  0  0
 18  6  2  0  0  0  0
 20 19  1  0  0  0  0
 21 15  1  0  0  0  0
 22 26  1  0  0  0  0
 23 27  1  0  0  0  0
 24 23  2  0  0  0  0
 24 25  1  0  0  0  0
 25 22  2  0  0  0  0
 27 26  2  0  0  0  0
M  END
>  <MODEL>
9

>  <REMARK>
 VINA RESULT:      -8.9      1.554      5.124
  Name = 
  1 active torsions:
  status: ('A' for Active; 'I' for Inactive)
    1  A    between atoms: C_9  and  C_15
                            x       y       z     vdW  Elec       q    Type
                         _______ _______ _______ _____ _____    ______ ____

>  <TORSDO>
F 1

$$$$
