=
 OpenBabel10272402113D

 32 37  0  0  1  0  0  0  0  0999 V2000
  184.7440  178.4700  142.8650 C   0  0  0  0  0  0  0  0  0  0  0  0
  187.0620  177.8960  143.3110 C   0  0  0  0  0  0  0  0  0  0  0  0
  183.4730  178.8170  143.3540 C   0  0  0  0  0  3  0  0  0  0  0  0
  185.7820  178.2330  143.7720 C   0  0  0  0  0  0  0  0  0  0  0  0
  188.0990  177.7070  144.2320 C   0  0  0  0  0  3  0  0  0  0  0  0
  187.3390  177.5620  141.8720 C   0  0  1  0  0  3  0  0  0  0  0  0
  185.5450  178.3490  145.1650 C   0  0  0  0  0  0  0  0  0  0  0  0
  186.5900  178.1640  146.0690 C   0  0  0  0  0  3  0  0  0  0  0  0
  184.2680  178.6640  145.6330 C   0  0  0  0  0  3  0  0  0  0  0  0
  186.2090  177.8010  140.9320 N   0  0  1  0  0  0  0  0  0  0  0  0
  185.0590  178.5920  141.3920 C   0  0  1  0  0  3  0  0  0  0  0  0
  187.3510  178.7330  141.0060 C   0  0  2  0  0  3  0  0  0  0  0  0
  187.8710  177.8510  145.6050 C   0  0  0  0  0  0  0  0  0  0  0  0
  183.2300  178.8910  144.7270 C   0  0  0  0  0  3  0  0  0  0  0  0
  182.1400  179.5570  139.1720 C   0  0  0  0  0  0  0  0  0  0  0  0
  180.1870  176.7120  138.6020 O   0  0  0  0  0  1  0  0  0  0  0  0
  181.8020  180.5290  138.2870 F   0  0  0  0  0  0  0  0  0  0  0  0
  182.2190  176.5770  139.7680 C   0  0  0  0  0  3  0  0  0  0  0  0
  183.8770  178.3360  140.4940 C   0  0  0  0  0  0  0  0  0  0  0  0
  181.0390  178.7390  139.7560 C   0  0  0  0  0  2  0  0  0  0  0  0
  183.3650  177.0960  140.5400 C   0  0  0  0  0  3  0  0  0  0  0  0
  183.4230  179.3910  139.5350 C   0  0  0  0  0  0  0  0  0  0  0  0
  184.4400  180.3340  138.9730 C   0  0  0  0  0  1  0  0  0  0  0  0
  181.1810  177.3070  139.3660 C   0  0  0  0  0  0  0  0  0  0  0  0
  189.4970  177.7150  140.2710 C   0  0  0  0  0  2  0  0  0  0  0  0
  188.5770  176.5530  138.3720 C   0  0  0  0  0  2  0  0  0  0  0  0
  187.5870  177.6310  138.7820 C   0  0  2  0  0  3  0  0  0  0  0  0
  187.2240  178.4790  137.5780 C   0  0  0  0  0  1  0  0  0  0  0  0
  189.8780  176.8650  139.0830 C   0  0  0  0  0  2  0  0  0  0  0  0
  188.2760  178.4910  139.8260 C   0  0  1  0  0  3  0  0  0  0  0  0
  188.9900  177.6710  146.5690 C   0  0  0  0  0  2  0  0  0  0  0  0
  188.5330  178.0200  147.9720 C   0  0  0  0  0  1  0  0  0  0  0  0
  1  3  2  0  0  0  0
  1  4  1  0  0  0  0
  2  4  2  0  0  0  0
  2  5  1  0  0  0  0
  3 14  1  0  0  0  0
  4  7  1  0  0  0  0
  5 13  2  0  0  0  0
  6  2  1  1  0  0  0
  7  9  1  0  0  0  0
  7  8  2  0  0  0  0
 10 12  1  0  0  0  0
 10 11  1  0  0  0  0
 10  6  1  0  0  0  0
 11  1  1  0  0  0  0
 12  6  1  0  0  0  0
 13  8  1  0  0  0  0
 13 31  1  0  0  0  0
 14  9  2  0  0  0  0
 15 22  2  0  0  0  0
 15 20  1  0  0  0  0
 16 24  1  0  0  0  0
 17 15  1  0  0  0  0
 18 21  1  0  0  0  0
 19 21  2  0  0  0  0
 19 11  1  0  0  0  0
 22 19  1  0  0  0  0
 23 22  1  0  0  0  0
 24 20  1  0  0  0  0
 24 18  2  0  0  0  0
 26 27  1  0  0  0  0
 26 29  1  0  0  0  0
 27 30  1  0  0  0  0
 28 27  1  0  0  0  0
 29 25  1  0  0  0  0
 30 25  1  0  0  0  0
 30 12  1  0  0  0  0
 31 32  1  0  0  0  0
M  END
>  <MODEL>
1

>  <REMARK>
 VINA RESULT:      -8.8      0.000      0.000
  Name = 
  3 active torsions:
  status: ('A' for Active; 'I' for Inactive)
    1  A    between atoms: C_13  and  C_29
    2  A    between atoms: C_16  and  C_27
    3  A    between atoms: C_28  and  C_32
                            x       y       z     vdW  Elec       q    Type
                         _______ _______ _______ _____ _____    ______ ____

>  <TORSDO>
F 3

$$$$
=
 OpenBabel10272402113D

 32 37  0  0  1  0  0  0  0  0999 V2000
  186.7660  178.1870  140.0430 C   0  0  0  0  0  0  0  0  0  0  0  0
  186.6690  178.1340  142.4700 C   0  0  0  0  0  0  0  0  0  0  0  0
  186.1120  178.3850  138.8150 C   0  0  0  0  0  3  0  0  0  0  0  0
  186.0390  178.3170  141.2310 C   0  0  0  0  0  0  0  0  0  0  0  0
  185.9370  178.3130  143.6490 C   0  0  0  0  0  3  0  0  0  0  0  0
  188.0650  177.5900  142.5930 C   0  0  1  0  0  3  0  0  0  0  0  0
  184.6630  178.6490  141.1860 C   0  0  0  0  0  0  0  0  0  0  0  0
  183.9480  178.8300  142.3700 C   0  0  0  0  0  3  0  0  0  0  0  0
  184.0230  178.8120  139.9560 C   0  0  0  0  0  3  0  0  0  0  0  0
  188.8080  177.4390  141.3110 N   0  0  1  0  0  0  0  0  0  0  0  0
  188.2730  178.0820  140.1020 C   0  0  1  0  0  3  0  0  0  0  0  0
  189.0910  178.5580  142.2300 C   0  0  2  0  0  3  0  0  0  0  0  0
  184.5850  178.6710  143.6030 C   0  0  0  0  0  0  0  0  0  0  0  0
  184.7470  178.6730  138.7700 C   0  0  0  0  0  3  0  0  0  0  0  0
  188.7810  177.5490  136.3820 C   0  0  0  0  0  0  0  0  0  0  0  0
  190.6450  174.6260  135.9220 O   0  0  0  0  0  1  0  0  0  0  0  0
  188.7650  178.2680  135.2320 F   0  0  0  0  0  0  0  0  0  0  0  0
  190.2360  175.4790  138.0690 C   0  0  0  0  0  3  0  0  0  0  0  0
  188.8870  177.4530  138.8790 C   0  0  0  0  0  0  0  0  0  0  0  0
  188.6540  176.0670  136.2740 C   0  0  0  0  0  2  0  0  0  0  0  0
  189.5430  176.3000  139.0820 C   0  0  0  0  0  3  0  0  0  0  0  0
  188.8540  178.1750  137.5690 C   0  0  0  0  0  0  0  0  0  0  0  0
  188.8690  179.6710  137.5740 C   0  0  0  0  0  1  0  0  0  0  0  0
  189.8810  175.3930  136.7890 C   0  0  0  0  0  0  0  0  0  0  0  0
  190.0550  178.0360  144.4610 C   0  0  0  0  0  2  0  0  0  0  0  0
  191.3850  176.1690  143.7200 C   0  0  0  0  0  2  0  0  0  0  0  0
  191.0080  176.9860  142.4950 C   0  0  2  0  0  3  0  0  0  0  0  0
  192.2520  177.3160  141.6940 C   0  0  0  0  0  1  0  0  0  0  0  0
  191.0800  177.0310  144.9280 C   0  0  0  0  0  2  0  0  0  0  0  0
  190.3680  178.2680  142.9980 C   0  0  1  0  0  3  0  0  0  0  0  0
  183.8270  178.8800  144.8670 C   0  0  0  0  0  2  0  0  0  0  0  0
  184.7130  178.5860  146.0620 C   0  0  0  0  0  1  0  0  0  0  0  0
  1 11  1  0  0  0  0
  1  4  1  0  0  0  0
  2  5  1  0  0  0  0
  3  1  2  0  0  0  0
  4  2  2  0  0  0  0
  6  2  1  6  0  0  0
  7  4  1  0  0  0  0
  7  8  2  0  0  0  0
  8 13  1  0  0  0  0
  9  7  1  0  0  0  0
 10 12  1  0  0  0  0
 10  6  1  0  0  0  0
 11 10  1  0  0  0  0
 12  6  1  0  0  0  0
 12 30  1  0  0  0  0
 13  5  2  0  0  0  0
 13 31  1  0  0  0  0
 14  3  1  0  0  0  0
 14  9  2  0  0  0  0
 15 22  2  0  0  0  0
 16 24  1  0  0  0  0
 17 15  1  0  0  0  0
 18 21  1  0  0  0  0
 19 21  2  0  0  0  0
 19 11  1  0  0  0  0
 20 15  1  0  0  0  0
 20 24  1  0  0  0  0
 22 23  1  0  0  0  0
 22 19  1  0  0  0  0
 24 18  2  0  0  0  0
 25 29  1  0  0  0  0
 26 29  1  0  0  0  0
 27 30  1  0  0  0  0
 27 26  1  0  0  0  0
 28 27  1  0  0  0  0
 30 25  1  0  0  0  0
 31 32  1  0  0  0  0
M  END
>  <MODEL>
2

>  <REMARK>
 VINA RESULT:      -8.4      2.982      5.653
  Name = 
  3 active torsions:
  status: ('A' for Active; 'I' for Inactive)
    1  A    between atoms: C_13  and  C_29
    2  A    between atoms: C_16  and  C_27
    3  A    between atoms: C_28  and  C_32
                            x       y       z     vdW  Elec       q    Type
                         _______ _______ _______ _____ _____    ______ ____

>  <TORSDO>
F 3

$$$$
=
 OpenBabel10272402113D

 32 37  0  0  1  0  0  0  0  0999 V2000
  186.7320  177.9470  143.9050 C   0  0  0  0  0  0  0  0  0  0  0  0
  186.0950  178.6610  141.6720 C   0  0  0  0  0  0  0  0  0  0  0  0
  186.3590  177.6450  145.2250 C   0  0  0  0  0  3  0  0  0  0  0  0
  185.7520  178.3620  142.9980 C   0  0  0  0  0  0  0  0  0  0  0  0
  185.0930  179.0310  140.7670 C   0  0  0  0  0  3  0  0  0  0  0  0
  187.5220  178.7640  141.2110 C   0  0  1  0  0  3  0  0  0  0  0  0
  184.4010  178.4670  143.4150 C   0  0  0  0  0  0  0  0  0  0  0  0
  183.4140  178.8310  142.4990 C   0  0  0  0  0  3  0  0  0  0  0  0
  184.0550  178.1920  144.7390 C   0  0  0  0  0  3  0  0  0  0  0  0
  188.5460  178.3390  142.2050 N   0  0  1  0  0  0  0  0  0  0  0  0
  188.1130  177.5970  143.3980 C   0  0  1  0  0  3  0  0  0  0  0  0
  188.1730  177.4690  141.0730 C   0  0  2  0  0  3  0  0  0  0  0  0
  183.7560  179.1050  141.1720 C   0  0  0  0  0  0  0  0  0  0  0  0
  185.0350  177.7870  145.6460 C   0  0  0  0  0  3  0  0  0  0  0  0
  191.6280  178.1200  144.7180 C   0  0  0  0  0  0  0  0  0  0  0  0
  191.7680  176.9440  148.0090 O   0  0  0  0  0  1  0  0  0  0  0  0
  192.7170  178.8890  144.4600 F   0  0  0  0  0  0  0  0  0  0  0  0
  189.7410  177.0110  146.8280 C   0  0  0  0  0  3  0  0  0  0  0  0
  189.1830  177.6650  144.4540 C   0  0  0  0  0  0  0  0  0  0  0  0
  191.8290  176.8840  145.5280 C   0  0  0  0  0  2  0  0  0  0  0  0
  188.8840  177.0870  145.6290 C   0  0  0  0  0  3  0  0  0  0  0  0
  190.4310  178.4530  144.2070 C   0  0  0  0  0  0  0  0  0  0  0  0
  190.3550  179.6540  143.3190 C   0  0  0  0  0  1  0  0  0  0  0  0
  191.0720  176.9630  146.8090 C   0  0  0  0  0  0  0  0  0  0  0  0
  190.4100  176.6460  140.3690 C   0  0  0  0  0  2  0  0  0  0  0  0
  189.7650  176.0830  138.1180 C   0  0  0  0  0  2  0  0  0  0  0  0
  188.7150  177.0270  138.6800 C   0  0  2  0  0  3  0  0  0  0  0  0
  188.5030  178.1860  137.7260 C   0  0  0  0  0  1  0  0  0  0  0  0
  190.9560  176.1520  139.0510 C   0  0  0  0  0  2  0  0  0  0  0  0
  189.2490  177.5440  140.0040 C   0  0  1  0  0  3  0  0  0  0  0  0
  182.7000  179.4760  140.1910 C   0  0  0  0  0  2  0  0  0  0  0  0
  183.3310  179.8750  138.8710 C   0  0  0  0  0  1  0  0  0  0  0  0
  1  3  1  0  0  0  0
  2  4  1  0  0  0  0
  3 14  2  0  0  0  0
  4  7  1  0  0  0  0
  4  1  2  0  0  0  0
  5 13  1  0  0  0  0
  5  2  2  0  0  0  0
  6  2  1  1  0  0  0
  6 10  1  0  0  0  0
  7  9  2  0  0  0  0
  8  7  1  0  0  0  0
  9 14  1  0  0  0  0
 10 11  1  0  0  0  0
 11  1  1  0  0  0  0
 11 19  1  0  0  0  0
 12  6  1  0  0  0  0
 12 10  1  0  0  0  0
 13  8  2  0  0  0  0
 15 20  1  0  0  0  0
 17 15  1  0  0  0  0
 19 21  2  0  0  0  0
 20 24  1  0  0  0  0
 21 18  1  0  0  0  0
 22 19  1  0  0  0  0
 22 15  2  0  0  0  0
 23 22  1  0  0  0  0
 24 18  2  0  0  0  0
 24 16  1  0  0  0  0
 26 27  1  0  0  0  0
 26 29  1  0  0  0  0
 27 30  1  0  0  0  0
 28 27  1  0  0  0  0
 29 25  1  0  0  0  0
 30 25  1  0  0  0  0
 30 12  1  0  0  0  0
 31 13  1  0  0  0  0
 32 31  1  0  0  0  0
M  END
>  <MODEL>
3

>  <REMARK>
 VINA RESULT:      -7.9      3.765      6.840
  Name = 
  3 active torsions:
  status: ('A' for Active; 'I' for Inactive)
    1  A    between atoms: C_13  and  C_29
    2  A    between atoms: C_16  and  C_27
    3  A    between atoms: C_28  and  C_32
                            x       y       z     vdW  Elec       q    Type
                         _______ _______ _______ _____ _____    ______ ____

>  <TORSDO>
F 3

$$$$
=
 OpenBabel10272402113D

 32 37  0  0  1  0  0  0  0  0999 V2000
  185.5270  178.1210  138.7170 C   0  0  0  0  0  0  0  0  0  0  0  0
  187.3570  178.3970  140.2900 C   0  0  0  0  0  0  0  0  0  0  0  0
  185.0730  177.6820  137.4620 C   0  0  0  0  0  3  0  0  0  0  0  0
  186.8800  177.9770  139.0410 C   0  0  0  0  0  0  0  0  0  0  0  0
  188.7050  178.2030  140.6150 C   0  0  0  0  0  3  0  0  0  0  0  0
  186.5200  179.2030  141.2450 C   0  0  1  0  0  3  0  0  0  0  0  0
  187.7720  177.3890  138.1100 C   0  0  0  0  0  0  0  0  0  0  0  0
  189.1110  177.1970  138.4510 C   0  0  0  0  0  3  0  0  0  0  0  0
  187.3090  176.9880  136.8560 C   0  0  0  0  0  3  0  0  0  0  0  0
  185.0890  179.3610  140.8630 N   0  0  1  0  0  0  0  0  0  0  0  0
  184.5420  178.5110  139.7950 C   0  0  1  0  0  3  0  0  0  0  0  0
  185.4990  178.4130  141.9170 C   0  0  2  0  0  3  0  0  0  0  0  0
  189.5780  177.5960  139.7060 C   0  0  0  0  0  0  0  0  0  0  0  0
  185.9600  177.1400  136.5290 C   0  0  0  0  0  3  0  0  0  0  0  0
  181.0910  178.4670  138.2250 C   0  0  0  0  0  0  0  0  0  0  0  0
  180.2450  181.7340  137.3060 O   0  0  0  0  0  1  0  0  0  0  0  0
  179.9820  177.6850  138.2080 F   0  0  0  0  0  0  0  0  0  0  0  0
  182.2170  181.2790  138.4950 C   0  0  0  0  0  3  0  0  0  0  0  0
  183.2700  179.1190  139.2660 C   0  0  0  0  0  0  0  0  0  0  0  0
  181.2490  179.4700  137.1320 C   0  0  0  0  0  2  0  0  0  0  0  0
  183.3120  180.4360  139.0120 C   0  0  0  0  0  3  0  0  0  0  0  0
  182.0270  178.2910  139.1730 C   0  0  0  0  0  0  0  0  0  0  0  0
  181.8260  177.1870  140.1620 C   0  0  0  0  0  1  0  0  0  0  0  0
  181.2500  180.8550  137.6830 C   0  0  0  0  0  0  0  0  0  0  0  0
  183.7180  179.3110  143.4000 C   0  0  0  0  0  2  0  0  0  0  0  0
  184.3350  178.0150  145.3340 C   0  0  0  0  0  2  0  0  0  0  0  0
  185.5160  178.0140  144.3780 C   0  0  2  0  0  3  0  0  0  0  0  0
  186.7710  178.4470  145.1120 C   0  0  0  0  0  1  0  0  0  0  0  0
  183.3920  179.1000  144.8590 C   0  0  0  0  0  2  0  0  0  0  0  0
  185.1960  179.0120  143.2790 C   0  0  1  0  0  3  0  0  0  0  0  0
  191.0030  177.3760  140.0760 C   0  0  0  0  0  2  0  0  0  0  0  0
  191.1420  177.2860  141.5830 C   0  0  0  0  0  1  0  0  0  0  0  0
  1  4  1  0  0  0  0
  1 11  1  0  0  0  0
  2  5  1  0  0  0  0
  3  1  2  0  0  0  0
  4  2  2  0  0  0  0
  6  2  1  6  0  0  0
  6 12  1  0  0  0  0
  7  8  2  0  0  0  0
  7  4  1  0  0  0  0
  8 13  1  0  0  0  0
  9  7  1  0  0  0  0
 10  6  1  0  0  0  0
 10 12  1  0  0  0  0
 11 10  1  0  0  0  0
 12 30  1  0  0  0  0
 13 31  1  0  0  0  0
 13  5  2  0  0  0  0
 14  9  2  0  0  0  0
 14  3  1  0  0  0  0
 15 22  2  0  0  0  0
 16 24  1  0  0  0  0
 17 15  1  0  0  0  0
 18 21  1  0  0  0  0
 19 11  1  0  0  0  0
 20 24  1  0  0  0  0
 20 15  1  0  0  0  0
 21 19  2  0  0  0  0
 22 19  1  0  0  0  0
 22 23  1  0  0  0  0
 24 18  2  0  0  0  0
 25 29  1  0  0  0  0
 27 28  1  0  0  0  0
 27 26  1  0  0  0  0
 29 26  1  0  0  0  0
 30 25  1  0  0  0  0
 30 27  1  0  0  0  0
 31 32  1  0  0  0  0
M  END
>  <MODEL>
4

>  <REMARK>
 VINA RESULT:      -7.7      1.717      5.513
  Name = 
  3 active torsions:
  status: ('A' for Active; 'I' for Inactive)
    1  A    between atoms: C_13  and  C_29
    2  A    between atoms: C_16  and  C_27
    3  A    between atoms: C_28  and  C_32
                            x       y       z     vdW  Elec       q    Type
                         _______ _______ _______ _____ _____    ______ ____

>  <TORSDO>
F 3

$$$$
=
 OpenBabel10272402113D

 32 37  0  0  1  0  0  0  0  0999 V2000
  186.2230  178.4360  140.9380 C   0  0  0  0  0  0  0  0  0  0  0  0
  186.6650  178.0190  143.2890 C   0  0  0  0  0  0  0  0  0  0  0  0
  185.3250  178.8350  139.9320 C   0  0  0  0  0  3  0  0  0  0  0  0
  185.7870  178.4020  142.2660 C   0  0  0  0  0  0  0  0  0  0  0  0
  186.2240  178.0340  144.6180 C   0  0  0  0  0  3  0  0  0  0  0  0
  188.0190  177.4280  143.0120 C   0  0  1  0  0  3  0  0  0  0  0  0
  184.4560  178.7720  142.5840 C   0  0  0  0  0  0  0  0  0  0  0  0
  184.0340  178.7890  143.9130 C   0  0  0  0  0  3  0  0  0  0  0  0
  183.5700  179.1350  141.5680 C   0  0  0  0  0  3  0  0  0  0  0  0
  188.4480  177.4550  141.5860 N   0  0  1  0  0  0  0  0  0  0  0  0
  187.6960  178.2870  140.6350 C   0  0  1  0  0  3  0  0  0  0  0  0
  188.9930  178.4140  142.5660 C   0  0  2  0  0  3  0  0  0  0  0  0
  184.9190  178.4280  144.9330 C   0  0  0  0  0  0  0  0  0  0  0  0
  184.0030  179.1600  140.2420 C   0  0  0  0  0  3  0  0  0  0  0  0
  189.8680  177.6550  137.5920 C   0  0  0  0  0  0  0  0  0  0  0  0
  187.7900  176.9780  134.8620 O   0  0  0  0  0  1  0  0  0  0  0  0
  191.1420  177.2880  137.3000 F   0  0  0  0  0  0  0  0  0  0  0  0
  186.9100  177.2470  137.0210 C   0  0  0  0  0  3  0  0  0  0  0  0
  187.9850  177.8360  139.2280 C   0  0  0  0  0  0  0  0  0  0  0  0
  189.0730  178.3130  136.5160 C   0  0  0  0  0  2  0  0  0  0  0  0
  186.9150  177.6800  138.4320 C   0  0  0  0  0  3  0  0  0  0  0  0
  189.3800  177.4690  138.8300 C   0  0  0  0  0  0  0  0  0  0  0  0
  190.2940  176.8990  139.8680 C   0  0  0  0  0  1  0  0  0  0  0  0
  187.8900  177.4820  136.1510 C   0  0  0  0  0  0  0  0  0  0  0  0
  191.0850  179.0960  143.7210 C   0  0  0  0  0  2  0  0  0  0  0  0
  191.2690  177.1160  145.0790 C   0  0  0  0  0  2  0  0  0  0  0  0
  190.3190  176.8070  143.9350 C   0  0  2  0  0  3  0  0  0  0  0  0
  190.7600  175.5400  143.2290 C   0  0  0  0  0  1  0  0  0  0  0  0
  191.9820  178.4030  144.7180 C   0  0  0  0  0  2  0  0  0  0  0  0
  190.3900  177.9800  142.9730 C   0  0  1  0  0  3  0  0  0  0  0  0
  184.4750  178.4630  146.3530 C   0  0  0  0  0  2  0  0  0  0  0  0
  185.6470  178.7860  147.2590 C   0  0  0  0  0  1  0  0  0  0  0  0
  1  4  1  0  0  0  0
  2  5  1  0  0  0  0
  3 14  1  0  0  0  0
  3  1  2  0  0  0  0
  4  7  1  0  0  0  0
  4  2  2  0  0  0  0
  5 13  2  0  0  0  0
  6  2  1  6  0  0  0
  7  8  2  0  0  0  0
  8 13  1  0  0  0  0
  9  7  1  0  0  0  0
 10 12  1  0  0  0  0
 10  6  1  0  0  0  0
 11  1  1  0  0  0  0
 11 10  1  0  0  0  0
 12 30  1  0  0  0  0
 12  6  1  0  0  0  0
 13 31  1  0  0  0  0
 14  9  2  0  0  0  0
 15 22  2  0  0  0  0
 16 24  1  0  0  0  0
 17 15  1  0  0  0  0
 18 21  1  0  0  0  0
 19 11  1  0  0  0  0
 20 15  1  0  0  0  0
 21 19  2  0  0  0  0
 22 19  1  0  0  0  0
 22 23  1  0  0  0  0
 24 20  1  0  0  0  0
 24 18  2  0  0  0  0
 25 29  1  0  0  0  0
 27 26  1  0  0  0  0
 28 27  1  0  0  0  0
 29 26  1  0  0  0  0
 30 25  1  0  0  0  0
 30 27  1  0  0  0  0
 31 32  1  0  0  0  0
M  END
>  <MODEL>
5

>  <REMARK>
 VINA RESULT:      -7.6      2.891      5.228
  Name = 
  3 active torsions:
  status: ('A' for Active; 'I' for Inactive)
    1  A    between atoms: C_13  and  C_29
    2  A    between atoms: C_16  and  C_27
    3  A    between atoms: C_28  and  C_32
                            x       y       z     vdW  Elec       q    Type
                         _______ _______ _______ _____ _____    ______ ____

>  <TORSDO>
F 3

$$$$
=
 OpenBabel10272402113D

 32 37  0  0  1  0  0  0  0  0999 V2000
  188.2260  177.6270  139.2020 C   0  0  0  0  0  0  0  0  0  0  0  0
  187.5680  177.9170  141.5220 C   0  0  0  0  0  0  0  0  0  0  0  0
  187.9120  177.7440  137.8370 C   0  0  0  0  0  3  0  0  0  0  0  0
  187.2770  178.0130  140.1540 C   0  0  0  0  0  0  0  0  0  0  0  0
  186.6240  178.3490  142.4600 C   0  0  0  0  0  3  0  0  0  0  0  0
  188.7910  177.2120  142.0390 C   0  0  1  0  0  3  0  0  0  0  0  0
  186.0200  178.5170  139.7370 C   0  0  0  0  0  0  0  0  0  0  0  0
  185.0920  178.9500  140.6840 C   0  0  0  0  0  3  0  0  0  0  0  0
  185.7150  178.5960  138.3770 C   0  0  0  0  0  3  0  0  0  0  0  0
  189.7730  176.7910  141.0010 N   0  0  1  0  0  0  0  0  0  0  0  0
  189.6420  177.3310  139.6400 C   0  0  1  0  0  3  0  0  0  0  0  0
  190.0160  177.9760  141.8470 C   0  0  2  0  0  3  0  0  0  0  0  0
  185.3950  178.8750  142.0460 C   0  0  0  0  0  0  0  0  0  0  0  0
  186.6590  178.2030  137.4270 C   0  0  0  0  0  3  0  0  0  0  0  0
  192.4880  176.4750  137.2860 C   0  0  0  0  0  0  0  0  0  0  0  0
  191.6010  173.6310  135.4540 O   0  0  0  0  0  1  0  0  0  0  0  0
  193.8210  176.7020  137.1630 F   0  0  0  0  0  0  0  0  0  0  0  0
  190.2340  174.4370  137.1840 C   0  0  0  0  0  3  0  0  0  0  0  0
  190.4090  176.4660  138.6750 C   0  0  0  0  0  0  0  0  0  0  0  0
  191.7460  176.0320  136.0710 C   0  0  0  0  0  2  0  0  0  0  0  0
  189.7290  175.4360  138.1450 C   0  0  0  0  0  3  0  0  0  0  0  0
  191.8700  176.7010  138.4570 C   0  0  0  0  0  0  0  0  0  0  0  0
  192.6840  177.2480  139.5870 C   0  0  0  0  0  1  0  0  0  0  0  0
  191.1740  174.6700  136.2690 C   0  0  0  0  0  0  0  0  0  0  0  0
  191.2280  178.8080  143.8510 C   0  0  0  0  0  2  0  0  0  0  0  0
  190.7190  176.9120  145.2470 C   0  0  0  0  0  2  0  0  0  0  0  0
  190.4820  176.5020  143.8030 C   0  0  2  0  0  3  0  0  0  0  0  0
  191.2320  175.2190  143.5040 C   0  0  0  0  0  1  0  0  0  0  0  0
  191.5030  178.2070  145.2090 C   0  0  0  0  0  2  0  0  0  0  0  0
  191.0190  177.6240  142.9310 C   0  0  1  0  0  3  0  0  0  0  0  0
  184.4120  179.3530  143.0570 C   0  0  0  0  0  2  0  0  0  0  0  0
  184.8110  178.8760  144.4400 C   0  0  0  0  0  1  0  0  0  0  0  0
  1 11  1  0  0  0  0
  1  4  1  0  0  0  0
  2  5  1  0  0  0  0
  3  1  2  0  0  0  0
  4  2  2  0  0  0  0
  6  2  1  6  0  0  0
  7  4  1  0  0  0  0
  7  8  2  0  0  0  0
  8 13  1  0  0  0  0
  9  7  1  0  0  0  0
 10 12  1  0  0  0  0
 10  6  1  0  0  0  0
 11 10  1  0  0  0  0
 12  6  1  0  0  0  0
 12 30  1  0  0  0  0
 13  5  2  0  0  0  0
 13 31  1  0  0  0  0
 14  3  1  0  0  0  0
 14  9  2  0  0  0  0
 15 22  2  0  0  0  0
 16 24  1  0  0  0  0
 17 15  1  0  0  0  0
 18 21  1  0  0  0  0
 19 11  1  0  0  0  0
 20 24  1  0  0  0  0
 20 15  1  0  0  0  0
 21 19  2  0  0  0  0
 22 19  1  0  0  0  0
 22 23  1  0  0  0  0
 24 18  2  0  0  0  0
 25 29  1  0  0  0  0
 27 26  1  0  0  0  0
 28 27  1  0  0  0  0
 29 26  1  0  0  0  0
 30 27  1  0  0  0  0
 30 25  1  0  0  0  0
 31 32  1  0  0  0  0
M  END
>  <MODEL>
6

>  <REMARK>
 VINA RESULT:      -7.1      3.810      7.194
  Name = 
  3 active torsions:
  status: ('A' for Active; 'I' for Inactive)
    1  A    between atoms: C_13  and  C_29
    2  A    between atoms: C_16  and  C_27
    3  A    between atoms: C_28  and  C_32
                            x       y       z     vdW  Elec       q    Type
                         _______ _______ _______ _____ _____    ______ ____

>  <TORSDO>
F 3

$$$$
=
 OpenBabel10272402113D

 32 37  0  0  1  0  0  0  0  0999 V2000
  184.2790  178.7290  142.1350 C   0  0  0  0  0  0  0  0  0  0  0  0
  186.4860  177.9180  142.7450 C   0  0  0  0  0  0  0  0  0  0  0  0
  183.0030  179.1650  142.5320 C   0  0  0  0  0  3  0  0  0  0  0  0
  185.2030  178.3470  143.1130 C   0  0  0  0  0  0  0  0  0  0  0  0
  187.4120  177.5830  143.7400 C   0  0  0  0  0  3  0  0  0  0  0  0
  186.8650  177.6410  141.3180 C   0  0  1  0  0  3  0  0  0  0  0  0
  184.8480  178.4070  144.4830 C   0  0  0  0  0  0  0  0  0  0  0  0
  185.7850  178.0760  145.4630 C   0  0  0  0  0  3  0  0  0  0  0  0
  183.5660  178.8130  144.8570 C   0  0  0  0  0  3  0  0  0  0  0  0
  185.8530  178.0340  140.2990 N   0  0  1  0  0  0  0  0  0  0  0  0
  184.7380  178.9020  140.7050 C   0  0  1  0  0  3  0  0  0  0  0  0
  187.0600  178.8510  140.5320 C   0  0  2  0  0  3  0  0  0  0  0  0
  187.0700  177.6720  145.0930 C   0  0  0  0  0  0  0  0  0  0  0  0
  182.6410  179.1860  143.8800 C   0  0  0  0  0  3  0  0  0  0  0  0
  182.5280  177.1660  138.1610 C   0  0  0  0  0  0  0  0  0  0  0  0
  180.7210  179.5970  136.4120 O   0  0  0  0  0  1  0  0  0  0  0  0
  181.9800  175.9430  137.9430 F   0  0  0  0  0  0  0  0  0  0  0  0
  182.0900  180.1740  138.2300 C   0  0  0  0  0  3  0  0  0  0  0  0
  183.6270  178.8080  139.6940 C   0  0  0  0  0  0  0  0  0  0  0  0
  182.6140  178.1020  137.0030 C   0  0  0  0  0  2  0  0  0  0  0  0
  183.1670  179.9760  139.2190 C   0  0  0  0  0  3  0  0  0  0  0  0
  183.0180  177.4790  139.3710 C   0  0  0  0  0  0  0  0  0  0  0  0
  182.9810  176.4310  140.4380 C   0  0  0  0  0  1  0  0  0  0  0  0
  181.7930  179.3220  137.2500 C   0  0  0  0  0  0  0  0  0  0  0  0
  189.2810  177.8800  139.9810 C   0  0  0  0  0  2  0  0  0  0  0  0
  188.5240  176.6000  138.0860 C   0  0  0  0  0  2  0  0  0  0  0  0
  187.4740  177.6580  138.3820 C   0  0  2  0  0  3  0  0  0  0  0  0
  187.1600  178.4370  137.1190 C   0  0  0  0  0  1  0  0  0  0  0  0
  189.7660  176.9910  138.8610 C   0  0  0  0  0  2  0  0  0  0  0  0
  188.0660  178.5900  139.4240 C   0  0  1  0  0  3  0  0  0  0  0  0
  188.0750  177.3350  146.1380 C   0  0  0  0  0  2  0  0  0  0  0  0
  189.4650  177.7200  145.6690 C   0  0  0  0  0  1  0  0  0  0  0  0
  1  3  2  0  0  0  0
  1  4  1  0  0  0  0
  2  4  2  0  0  0  0
  2  5  1  0  0  0  0
  3 14  1  0  0  0  0
  4  7  1  0  0  0  0
  5 13  2  0  0  0  0
  6  2  1  1  0  0  0
  7  9  1  0  0  0  0
  7  8  2  0  0  0  0
 10 12  1  0  0  0  0
 10 11  1  0  0  0  0
 10  6  1  0  0  0  0
 11  1  1  0  0  0  0
 12  6  1  0  0  0  0
 13  8  1  0  0  0  0
 13 31  1  0  0  0  0
 14  9  2  0  0  0  0
 15 22  2  0  0  0  0
 16 24  1  0  0  0  0
 17 15  1  0  0  0  0
 18 21  1  0  0  0  0
 19 11  1  0  0  0  0
 20 24  1  0  0  0  0
 20 15  1  0  0  0  0
 21 19  2  0  0  0  0
 22 19  1  0  0  0  0
 22 23  1  0  0  0  0
 24 18  2  0  0  0  0
 26 27  1  0  0  0  0
 26 29  1  0  0  0  0
 27 30  1  0  0  0  0
 28 27  1  0  0  0  0
 29 25  1  0  0  0  0
 30 25  1  0  0  0  0
 30 12  1  0  0  0  0
 32 31  1  0  0  0  0
M  END
>  <MODEL>
7

>  <REMARK>
 VINA RESULT:      -7.0      1.416      2.017
  Name = 
  3 active torsions:
  status: ('A' for Active; 'I' for Inactive)
    1  A    between atoms: C_13  and  C_29
    2  A    between atoms: C_16  and  C_27
    3  A    between atoms: C_28  and  C_32
                            x       y       z     vdW  Elec       q    Type
                         _______ _______ _______ _____ _____    ______ ____

>  <TORSDO>
F 3

$$$$
=
 OpenBabel10272402113D

 32 37  0  0  1  0  0  0  0  0999 V2000
  188.0930  177.5130  139.3710 C   0  0  0  0  0  0  0  0  0  0  0  0
  190.2490  177.0980  140.4100 C   0  0  0  0  0  0  0  0  0  0  0  0
  186.7970  178.0510  139.4580 C   0  0  0  0  0  3  0  0  0  0  0  0
  188.9490  177.6170  140.4730 C   0  0  0  0  0  0  0  0  0  0  0  0
  191.1060  177.2510  141.5060 C   0  0  0  0  0  3  0  0  0  0  0  0
  190.7190  176.2330  139.2740 C   0  0  1  0  0  3  0  0  0  0  0  0
  188.5060  178.2620  141.6540 C   0  0  0  0  0  0  0  0  0  0  0  0
  189.3750  178.4120  142.7360 C   0  0  0  0  0  3  0  0  0  0  0  0
  187.2050  178.7620  141.7330 C   0  0  0  0  0  3  0  0  0  0  0  0
  189.7780  176.1210  138.1250 N   0  0  1  0  0  0  0  0  0  0  0  0
  188.6460  177.0550  138.0410 C   0  0  1  0  0  3  0  0  0  0  0  0
  190.9740  176.9820  138.0520 C   0  0  2  0  0  3  0  0  0  0  0  0
  190.6780  177.9150  142.6610 C   0  0  0  0  0  0  0  0  0  0  0  0
  186.3490  178.6510  140.6360 C   0  0  0  0  0  3  0  0  0  0  0  0
  185.9080  177.2530  135.4270 C   0  0  0  0  0  0  0  0  0  0  0  0
  184.3270  174.1390  135.2320 O   0  0  0  0  0  1  0  0  0  0  0  0
  185.5730  178.0040  134.3470 F   0  0  0  0  0  0  0  0  0  0  0  0
  186.2210  174.4570  136.5810 C   0  0  0  0  0  3  0  0  0  0  0  0
  187.6020  176.5040  137.1060 C   0  0  0  0  0  0  0  0  0  0  0  0
  184.8370  176.4260  136.0530 C   0  0  0  0  0  2  0  0  0  0  0  0
  187.2170  175.2390  137.3390 C   0  0  0  0  0  3  0  0  0  0  0  0
  187.1530  177.3090  135.9280 C   0  0  0  0  0  0  0  0  0  0  0  0
  188.1250  178.2510  135.2920 C   0  0  0  0  0  1  0  0  0  0  0  0
  185.1650  174.9750  135.9560 C   0  0  0  0  0  0  0  0  0  0  0  0
  193.2260  175.9320  138.1160 C   0  0  0  0  0  2  0  0  0  0  0  0
  192.5900  173.9230  136.9500 C   0  0  0  0  0  2  0  0  0  0  0  0
  191.5230  174.9710  136.6840 C   0  0  2  0  0  3  0  0  0  0  0  0
  191.2880  175.0990  135.1920 C   0  0  0  0  0  1  0  0  0  0  0  0
  193.7800  174.6520  137.5370 C   0  0  0  0  0  2  0  0  0  0  0  0
  192.0470  176.2860  137.2350 C   0  0  1  0  0  3  0  0  0  0  0  0
  191.6110  178.0900  143.8070 C   0  0  0  0  0  2  0  0  0  0  0  0
  191.2220  177.1620  144.9420 C   0  0  0  0  0  1  0  0  0  0  0  0
  1  3  2  0  0  0  0
  1  4  1  0  0  0  0
  2  4  2  0  0  0  0
  2  5  1  0  0  0  0
  3 14  1  0  0  0  0
  4  7  1  0  0  0  0
  5 13  2  0  0  0  0
  6  2  1  1  0  0  0
  7  9  1  0  0  0  0
  7  8  2  0  0  0  0
 10  6  1  0  0  0  0
 11 10  1  0  0  0  0
 11  1  1  0  0  0  0
 12 10  1  0  0  0  0
 12  6  1  0  0  0  0
 13  8  1  0  0  0  0
 13 31  1  0  0  0  0
 14  9  2  0  0  0  0
 15 22  2  0  0  0  0
 15 20  1  0  0  0  0
 16 24  1  0  0  0  0
 17 15  1  0  0  0  0
 18 21  1  0  0  0  0
 19 21  2  0  0  0  0
 19 11  1  0  0  0  0
 22 19  1  0  0  0  0
 23 22  1  0  0  0  0
 24 20  1  0  0  0  0
 24 18  2  0  0  0  0
 26 29  1  0  0  0  0
 27 26  1  0  0  0  0
 27 30  1  0  0  0  0
 28 27  1  0  0  0  0
 29 25  1  0  0  0  0
 30 12  1  0  0  0  0
 30 25  1  0  0  0  0
 31 32  1  0  0  0  0
M  END
>  <MODEL>
8

>  <REMARK>
 VINA RESULT:      -7.0      3.511      5.060
  Name = 
  3 active torsions:
  status: ('A' for Active; 'I' for Inactive)
    1  A    between atoms: C_13  and  C_29
    2  A    between atoms: C_16  and  C_27
    3  A    between atoms: C_28  and  C_32
                            x       y       z     vdW  Elec       q    Type
                         _______ _______ _______ _____ _____    ______ ____

>  <TORSDO>
F 3

$$$$
=
 OpenBabel10272402113D

 32 37  0  0  1  0  0  0  0  0999 V2000
  190.5150  176.6820  143.4050 C   0  0  0  0  0  0  0  0  0  0  0  0
  188.9860  177.9210  144.8290 C   0  0  0  0  0  0  0  0  0  0  0  0
  191.5820  175.7750  143.2840 C   0  0  0  0  0  3  0  0  0  0  0  0
  190.0550  177.0270  144.6800 C   0  0  0  0  0  0  0  0  0  0  0  0
  188.5100  178.2200  146.1110 C   0  0  0  0  0  3  0  0  0  0  0  0
  188.4280  178.7100  143.6770 C   0  0  1  0  0  3  0  0  0  0  0  0
  190.6610  176.4590  145.8280 C   0  0  0  0  0  0  0  0  0  0  0  0
  190.1700  176.7620  147.0990 C   0  0  0  0  0  3  0  0  0  0  0  0
  191.7400  175.5840  145.6900 C   0  0  0  0  0  3  0  0  0  0  0  0
  188.9530  178.3390  142.3340 N   0  0  1  0  0  0  0  0  0  0  0  0
  189.7130  177.0890  142.1900 C   0  0  1  0  0  3  0  0  0  0  0  0
  187.6120  177.9080  142.7760 C   0  0  2  0  0  3  0  0  0  0  0  0
  189.0890  177.6350  147.2420 C   0  0  0  0  0  0  0  0  0  0  0  0
  192.2040  175.2470  144.4170 C   0  0  0  0  0  3  0  0  0  0  0  0
  190.4740  176.2690  138.5680 C   0  0  0  0  0  0  0  0  0  0  0  0
  193.7860  177.1680  137.8950 O   0  0  0  0  0  1  0  0  0  0  0  0
  189.8100  176.0610  137.4020 F   0  0  0  0  0  0  0  0  0  0  0  0
  192.7900  177.6600  139.9620 C   0  0  0  0  0  3  0  0  0  0  0  0
  190.5150  177.1260  140.9160 C   0  0  0  0  0  0  0  0  0  0  0  0
  191.8780  175.7770  138.6620 C   0  0  0  0  0  2  0  0  0  0  0  0
  191.7900  177.5280  141.0400 C   0  0  0  0  0  3  0  0  0  0  0  0
  189.8500  176.8520  139.6040 C   0  0  0  0  0  0  0  0  0  0  0  0
  188.4070  177.2140  139.4440 C   0  0  0  0  0  1  0  0  0  0  0  0
  192.8230  176.9120  138.8610 C   0  0  0  0  0  0  0  0  0  0  0  0
  186.5200  178.5170  140.6280 C   0  0  0  0  0  2  0  0  0  0  0  0
  184.2610  178.3180  141.4400 C   0  0  0  0  0  2  0  0  0  0  0  0
  185.1790  178.4340  142.6450 C   0  0  2  0  0  3  0  0  0  0  0  0
  184.6880  179.5380  143.5610 C   0  0  0  0  0  1  0  0  0  0  0  0
  185.0780  178.7220  140.2300 C   0  0  0  0  0  2  0  0  0  0  0  0
  186.5600  178.7820  142.1180 C   0  0  1  0  0  3  0  0  0  0  0  0
  188.5550  177.9450  148.5960 C   0  0  0  0  0  2  0  0  0  0  0  0
  187.1180  178.4190  148.4940 C   0  0  0  0  0  1  0  0  0  0  0  0
  1  4  1  0  0  0  0
  2  5  1  0  0  0  0
  3  1  2  0  0  0  0
  3 14  1  0  0  0  0
  4  2  2  0  0  0  0
  4  7  1  0  0  0  0
  5 13  2  0  0  0  0
  6  2  1  1  0  0  0
  7  8  2  0  0  0  0
  8 13  1  0  0  0  0
  9  7  1  0  0  0  0
 10 12  1  0  0  0  0
 10  6  1  0  0  0  0
 11 10  1  0  0  0  0
 11  1  1  0  0  0  0
 12  6  1  0  0  0  0
 13 31  1  0  0  0  0
 14  9  2  0  0  0  0
 15 20  1  0  0  0  0
 15 22  2  0  0  0  0
 16 24  1  0  0  0  0
 17 15  1  0  0  0  0
 18 21  1  0  0  0  0
 19 21  2  0  0  0  0
 19 11  1  0  0  0  0
 20 24  1  0  0  0  0
 22 19  1  0  0  0  0
 23 22  1  0  0  0  0
 24 18  2  0  0  0  0
 25 30  1  0  0  0  0
 26 27  1  0  0  0  0
 27 28  1  0  0  0  0
 29 25  1  0  0  0  0
 29 26  1  0  0  0  0
 30 27  1  0  0  0  0
 30 12  1  0  0  0  0
 32 31  1  0  0  0  0
M  END
>  <MODEL>
9

>  <REMARK>
 VINA RESULT:      -6.9      3.545      6.760
  Name = 
  3 active torsions:
  status: ('A' for Active; 'I' for Inactive)
    1  A    between atoms: C_13  and  C_29
    2  A    between atoms: C_16  and  C_27
    3  A    between atoms: C_28  and  C_32
                            x       y       z     vdW  Elec       q    Type
                         _______ _______ _______ _____ _____    ______ ____

>  <TORSDO>
F 3

$$$$
