=
 OpenBabel10272401133D

 27 30  0  0  1  0  0  0  0  0999 V2000
  187.4630  177.6430  142.2910 C   0  0  2  0  0  3  0  0  0  0  0  0
  187.2930  177.1810  143.7200 C   0  0  0  0  0  2  0  0  0  0  0  0
  189.4060  178.2830  143.5520 N   0  0  1  0  0  0  0  0  0  0  0  0
  190.8020  178.0430  143.5800 N   0  0  0  0  0  2  0  0  0  0  0  0
  188.8170  178.3430  142.1920 C   0  0  1  0  0  3  0  0  0  0  0  0
  188.6980  177.2270  144.2740 C   0  0  1  0  0  3  0  0  0  0  0  0
  190.6590  176.9440  141.4360 N   0  0  0  0  0  0  0  0  0  0  0  0
  189.6350  177.6650  141.1110 C   0  0  0  0  0  0  0  0  0  0  0  0
  191.1110  176.9490  142.7570 N   0  0  0  0  0  2  0  0  0  0  0  0
  189.7130  177.3990  147.9800 C   0  0  0  0  0  3  0  0  0  0  0  0
  188.5460  177.9340  148.5280 C   0  0  0  0  0  3  0  0  0  0  0  0
  187.5330  177.9580  146.3350 C   0  0  0  0  0  3  0  0  0  0  0  0
  188.6950  177.4150  145.7700 C   0  0  0  0  0  0  0  0  0  0  0  0
  187.4560  178.2130  147.7050 C   0  0  0  0  0  3  0  0  0  0  0  0
  189.8040  177.1370  146.6020 C   0  0  0  0  0  0  0  0  0  0  0  0
  192.0000  176.0200  146.8630 C   0  0  0  0  0  1  0  0  0  0  0  0
  190.9760  176.5980  146.0620 O   0  0  0  0  0  0  0  0  0  0  0  0
  189.2410  177.7610  139.6940 C   0  0  0  0  0  0  0  0  0  0  0  0
  188.6950  178.8100  139.2590 O   0  0  0  0  0  0  0  0  0  0  0  0
  189.4520  176.6670  138.8060 N   0  0  0  0  0  1  0  0  0  0  0  0
  186.3160  178.4160  141.7810 N   0  0  0  0  0  2  0  0  0  0  0  0
  182.4970  178.8260  143.6660 C   0  0  0  0  0  2  0  0  0  0  0  0
  185.0630  178.3000  142.5430 C   0  0  1  0  0  3  0  0  0  0  0  0
  184.9070  179.3160  143.6530 C   0  0  0  0  0  3  0  0  0  0  0  0
  183.7030  179.5540  144.1870 C   0  0  0  0  0  3  0  0  0  0  0  0
  182.5580  178.7890  142.1400 C   0  0  0  0  0  2  0  0  0  0  0  0
  183.8180  178.0480  141.6610 C   0  0  0  0  0  2  0  0  0  0  0  0
  1 21  1  1  0  0  0
  1  2  1  0  0  0  0
  2  6  1  0  0  0  0
  3  4  1  6  0  0  0
  3  6  1  0  0  0  0
  5  8  1  6  0  0  0
  5  1  1  0  0  0  0
  5  3  1  0  0  0  0
  6 13  1  1  0  0  0
  7  9  1  0  0  0  0
  8  7  2  0  0  0  0
  9  4  1  0  0  0  0
 10 11  1  0  0  0  0
 12 14  1  0  0  0  0
 13 12  2  0  0  0  0
 13 15  1  0  0  0  0
 14 11  2  0  0  0  0
 15 10  2  0  0  0  0
 17 15  1  0  0  0  0
 17 16  1  0  0  0  0
 18  8  1  0  0  0  0
 19 18  2  0  0  0  0
 20 18  1  0  0  0  0
 22 25  1  0  0  0  0
 23 21  1  6  0  0  0
 23 24  1  0  0  0  0
 24 25  2  0  0  0  0
 26 22  1  0  0  0  0
 27 26  1  0  0  0  0
 27 23  1  0  0  0  0
M  END
>  <MODEL>
1

>  <REMARK>
 VINA RESULT:      -9.6      0.000      0.000
  Name = 
  5 active torsions:
  status: ('A' for Active; 'I' for Inactive)
    1  A    between atoms: C_1  and  N_15
    2  A    between atoms: C_9  and  N_15
    3  A    between atoms: C_10  and  C_24
    4  A    between atoms: C_14  and  C_19
    5  A    between atoms: C_17  and  O_21
                            x       y       z     vdW  Elec       q    Type
                         _______ _______ _______ _____ _____    ______ ____

>  <TORSDO>
F 5

$$$$
=
 OpenBabel10272401133D

 27 30  0  0  1  0  0  0  0  0999 V2000
  187.1680  178.0760  142.0620 C   0  0  2  0  0  3  0  0  0  0  0  0
  186.9460  177.5990  143.4790 C   0  0  0  0  0  2  0  0  0  0  0  0
  189.2400  178.2340  143.2700 N   0  0  1  0  0  0  0  0  0  0  0  0
  190.5520  177.7030  143.2360 N   0  0  0  0  0  2  0  0  0  0  0  0
  188.6370  178.4770  141.9370 C   0  0  1  0  0  3  0  0  0  0  0  0
  188.3440  177.3220  143.9800 C   0  0  1  0  0  3  0  0  0  0  0  0
  190.1140  176.7540  141.0600 N   0  0  0  0  0  0  0  0  0  0  0  0
  189.2590  177.6890  140.8010 C   0  0  0  0  0  0  0  0  0  0  0  0
  190.5960  176.6050  142.3620 N   0  0  0  0  0  2  0  0  0  0  0  0
  189.5580  177.2920  147.6290 C   0  0  0  0  0  3  0  0  0  0  0  0
  188.4400  177.8340  148.2630 C   0  0  0  0  0  3  0  0  0  0  0  0
  187.3130  177.9910  146.1310 C   0  0  0  0  0  3  0  0  0  0  0  0
  188.4260  177.4400  145.4800 C   0  0  0  0  0  0  0  0  0  0  0  0
  187.3170  178.1840  147.5140 C   0  0  0  0  0  3  0  0  0  0  0  0
  189.5680  177.0910  146.2380 C   0  0  0  0  0  0  0  0  0  0  0  0
  191.8870  176.2210  146.3150 C   0  0  0  0  0  1  0  0  0  0  0  0
  190.6920  176.5430  145.6120 O   0  0  0  0  0  0  0  0  0  0  0  0
  188.8520  177.9280  139.4050 C   0  0  0  0  0  0  0  0  0  0  0  0
  188.8500  179.1000  138.9390 O   0  0  0  0  0  0  0  0  0  0  0  0
  188.4390  176.8480  138.5740 N   0  0  0  0  0  1  0  0  0  0  0  0
  186.1980  179.0970  141.6250 N   0  0  0  0  0  2  0  0  0  0  0  0
  182.3010  178.4270  139.9900 C   0  0  0  0  0  2  0  0  0  0  0  0
  184.9470  178.5950  141.0350 C   0  0  1  0  0  3  0  0  0  0  0  0
  183.7540  178.6360  141.9640 C   0  0  0  0  0  3  0  0  0  0  0  0
  182.5120  178.5460  141.4730 C   0  0  0  0  0  3  0  0  0  0  0  0
  183.2360  179.3990  139.2740 C   0  0  0  0  0  2  0  0  0  0  0  0
  184.7080  179.0720  139.5840 C   0  0  0  0  0  2  0  0  0  0  0  0
  1 21  1  1  0  0  0
  1  2  1  0  0  0  0
  2  6  1  0  0  0  0
  3  4  1  6  0  0  0
  3  6  1  0  0  0  0
  5  8  1  6  0  0  0
  5  1  1  0  0  0  0
  5  3  1  0  0  0  0
  6 13  1  1  0  0  0
  7  9  1  0  0  0  0
  8  7  2  0  0  0  0
  9  4  1  0  0  0  0
 10 11  1  0  0  0  0
 12 14  1  0  0  0  0
 13 12  2  0  0  0  0
 13 15  1  0  0  0  0
 14 11  2  0  0  0  0
 15 10  2  0  0  0  0
 17 15  1  0  0  0  0
 17 16  1  0  0  0  0
 18  8  1  0  0  0  0
 19 18  2  0  0  0  0
 20 18  1  0  0  0  0
 22 25  1  0  0  0  0
 23 21  1  1  0  0  0
 23 24  1  0  0  0  0
 25 24  2  0  0  0  0
 26 27  1  0  0  0  0
 26 22  1  0  0  0  0
 27 23  1  0  0  0  0
M  END
>  <MODEL>
2

>  <REMARK>
 VINA RESULT:      -8.9      1.016      1.386
  Name = 
  5 active torsions:
  status: ('A' for Active; 'I' for Inactive)
    1  A    between atoms: C_1  and  N_15
    2  A    between atoms: C_9  and  N_15
    3  A    between atoms: C_10  and  C_24
    4  A    between atoms: C_14  and  C_19
    5  A    between atoms: C_17  and  O_21
                            x       y       z     vdW  Elec       q    Type
                         _______ _______ _______ _____ _____    ______ ____

>  <TORSDO>
F 5

$$$$
=
 OpenBabel10272401133D

 27 30  0  0  1  0  0  0  0  0999 V2000
  187.4050  177.8850  142.0070 C   0  0  2  0  0  3  0  0  0  0  0  0
  187.4140  177.3660  143.4270 C   0  0  0  0  0  2  0  0  0  0  0  0
  189.5870  178.2380  142.9520 N   0  0  1  0  0  0  0  0  0  0  0  0
  190.9310  177.8460  142.7400 N   0  0  0  0  0  2  0  0  0  0  0  0
  188.7990  178.4370  141.7120 C   0  0  1  0  0  3  0  0  0  0  0  0
  188.8850  177.2270  143.7420 C   0  0  1  0  0  3  0  0  0  0  0  0
  190.3190  176.8890  140.6100 N   0  0  0  0  0  0  0  0  0  0  0  0
  189.3490  177.7340  140.4860 C   0  0  0  0  0  0  0  0  0  0  0  0
  190.9740  176.7710  141.8370 N   0  0  0  0  0  2  0  0  0  0  0  0
  188.5160  177.7990  147.5270 C   0  0  0  0  0  3  0  0  0  0  0  0
  189.7630  177.3530  147.9640 C   0  0  0  0  0  3  0  0  0  0  0  0
  190.3900  176.8810  145.6790 C   0  0  0  0  0  3  0  0  0  0  0  0
  189.1440  177.3320  145.2230 C   0  0  0  0  0  0  0  0  0  0  0  0
  190.7010  176.8940  147.0400 C   0  0  0  0  0  3  0  0  0  0  0  0
  188.1900  177.7930  146.1600 C   0  0  0  0  0  0  0  0  0  0  0  0
  185.9230  178.6750  146.6300 C   0  0  0  0  0  1  0  0  0  0  0  0
  186.9380  178.2450  145.7300 O   0  0  0  0  0  0  0  0  0  0  0  0
  188.7460  177.9510  139.1580 C   0  0  0  0  0  0  0  0  0  0  0  0
  188.6850  179.1130  138.6730 O   0  0  0  0  0  0  0  0  0  0  0  0
  188.2090  176.8590  138.4170 N   0  0  0  0  0  1  0  0  0  0  0  0
  186.2900  178.8060  141.7220 N   0  0  0  0  0  2  0  0  0  0  0  0
  182.3740  178.7560  143.4470 C   0  0  0  0  0  2  0  0  0  0  0  0
  185.0330  178.5460  142.4400 C   0  0  1  0  0  3  0  0  0  0  0  0
  184.6970  179.5640  143.5080 C   0  0  0  0  0  3  0  0  0  0  0  0
  183.4500  179.6540  143.9870 C   0  0  0  0  0  3  0  0  0  0  0  0
  182.5050  178.6820  141.9260 C   0  0  0  0  0  2  0  0  0  0  0  0
  183.8710  178.1020  141.5210 C   0  0  0  0  0  2  0  0  0  0  0  0
  1 21  1  1  0  0  0
  1  2  1  0  0  0  0
  2  6  1  0  0  0  0
  3  4  1  6  0  0  0
  3  6  1  0  0  0  0
  5  8  1  6  0  0  0
  5  1  1  0  0  0  0
  5  3  1  0  0  0  0
  6 13  1  1  0  0  0
  7  9  1  0  0  0  0
  8  7  2  0  0  0  0
  9  4  1  0  0  0  0
 10 11  1  0  0  0  0
 12 14  1  0  0  0  0
 13 12  2  0  0  0  0
 13 15  1  0  0  0  0
 14 11  2  0  0  0  0
 15 10  2  0  0  0  0
 17 15  1  0  0  0  0
 17 16  1  0  0  0  0
 18  8  1  0  0  0  0
 19 18  2  0  0  0  0
 20 18  1  0  0  0  0
 22 25  1  0  0  0  0
 23 21  1  6  0  0  0
 23 24  1  0  0  0  0
 24 25  2  0  0  0  0
 26 22  1  0  0  0  0
 27 26  1  0  0  0  0
 27 23  1  0  0  0  0
M  END
>  <MODEL>
3

>  <REMARK>
 VINA RESULT:      -8.7      1.115      1.933
  Name = 
  5 active torsions:
  status: ('A' for Active; 'I' for Inactive)
    1  A    between atoms: C_1  and  N_15
    2  A    between atoms: C_9  and  N_15
    3  A    between atoms: C_10  and  C_24
    4  A    between atoms: C_14  and  C_19
    5  A    between atoms: C_17  and  O_21
                            x       y       z     vdW  Elec       q    Type
                         _______ _______ _______ _____ _____    ______ ____

>  <TORSDO>
F 5

$$$$
=
 OpenBabel10272401133D

 27 30  0  0  1  0  0  0  0  0999 V2000
  187.1170  178.0710  141.9240 C   0  0  2  0  0  3  0  0  0  0  0  0
  186.9100  177.6170  143.3510 C   0  0  0  0  0  2  0  0  0  0  0  0
  189.2120  178.2040  143.0960 N   0  0  1  0  0  0  0  0  0  0  0  0
  190.5130  177.6470  143.0470 N   0  0  0  0  0  2  0  0  0  0  0  0
  188.5910  178.4410  141.7700 C   0  0  1  0  0  3  0  0  0  0  0  0
  188.3110  177.3190  143.8320 C   0  0  1  0  0  3  0  0  0  0  0  0
  190.0200  176.6780  140.8920 N   0  0  0  0  0  0  0  0  0  0  0  0
  189.1790  177.6260  140.6350 C   0  0  0  0  0  0  0  0  0  0  0  0
  190.5200  176.5370  142.1870 N   0  0  0  0  0  2  0  0  0  0  0  0
  187.5700  177.9920  147.5460 C   0  0  0  0  0  3  0  0  0  0  0  0
  188.7590  177.5360  148.1180 C   0  0  0  0  0  3  0  0  0  0  0  0
  189.6050  176.9960  145.9210 C   0  0  0  0  0  3  0  0  0  0  0  0
  188.4200  177.4560  145.3290 C   0  0  0  0  0  0  0  0  0  0  0  0
  189.7760  177.0380  147.3050 C   0  0  0  0  0  3  0  0  0  0  0  0
  187.3840  177.9560  146.1530 C   0  0  0  0  0  0  0  0  0  0  0  0
  184.9870  178.5550  146.3340 C   0  0  0  0  0  1  0  0  0  0  0  0
  186.1910  178.4180  145.5880 O   0  0  0  0  0  0  0  0  0  0  0  0
  188.7540  177.8550  139.2420 C   0  0  0  0  0  0  0  0  0  0  0  0
  188.2270  176.9200  138.5800 O   0  0  0  0  0  0  0  0  0  0  0  0
  188.9500  179.1220  138.6220 N   0  0  0  0  0  1  0  0  0  0  0  0
  186.1600  179.1050  141.4890 N   0  0  0  0  0  2  0  0  0  0  0  0
  182.2210  178.4810  139.9390 C   0  0  0  0  0  2  0  0  0  0  0  0
  184.8940  178.6200  140.9180 C   0  0  1  0  0  3  0  0  0  0  0  0
  183.7260  178.6320  141.8790 C   0  0  0  0  0  3  0  0  0  0  0  0
  182.4710  178.5560  141.4180 C   0  0  0  0  0  3  0  0  0  0  0  0
  183.1370  179.4750  139.2280 C   0  0  0  0  0  2  0  0  0  0  0  0
  184.6160  179.1400  139.4880 C   0  0  0  0  0  2  0  0  0  0  0  0
  1 21  1  1  0  0  0
  1  2  1  0  0  0  0
  2  6  1  0  0  0  0
  3  4  1  6  0  0  0
  3  6  1  0  0  0  0
  5  8  1  6  0  0  0
  5  1  1  0  0  0  0
  5  3  1  0  0  0  0
  6 13  1  1  0  0  0
  7  9  1  0  0  0  0
  8  7  2  0  0  0  0
  9  4  1  0  0  0  0
 10 11  1  0  0  0  0
 12 14  1  0  0  0  0
 13 12  2  0  0  0  0
 13 15  1  0  0  0  0
 14 11  2  0  0  0  0
 15 10  2  0  0  0  0
 17 15  1  0  0  0  0
 17 16  1  0  0  0  0
 18  8  1  0  0  0  0
 19 18  2  0  0  0  0
 20 18  1  0  0  0  0
 22 25  1  0  0  0  0
 23 21  1  1  0  0  0
 23 24  1  0  0  0  0
 25 24  2  0  0  0  0
 26 27  1  0  0  0  0
 26 22  1  0  0  0  0
 27 23  1  0  0  0  0
M  END
>  <MODEL>
4

>  <REMARK>
 VINA RESULT:      -8.5      1.655      2.516
  Name = 
  5 active torsions:
  status: ('A' for Active; 'I' for Inactive)
    1  A    between atoms: C_1  and  N_15
    2  A    between atoms: C_9  and  N_15
    3  A    between atoms: C_10  and  C_24
    4  A    between atoms: C_14  and  C_19
    5  A    between atoms: C_17  and  O_21
                            x       y       z     vdW  Elec       q    Type
                         _______ _______ _______ _____ _____    ______ ____

>  <TORSDO>
F 5

$$$$
=
 OpenBabel10272401133D

 27 30  0  0  1  0  0  0  0  0999 V2000
  187.9640  177.5670  142.2000 C   0  0  2  0  0  3  0  0  0  0  0  0
  189.0820  176.6990  141.6700 C   0  0  0  0  0  2  0  0  0  0  0  0
  188.7970  178.5290  140.1610 N   0  0  1  0  0  0  0  0  0  0  0  0
  188.3480  178.8470  138.8560 N   0  0  0  0  0  2  0  0  0  0  0  0
  187.7870  178.7320  141.2280 C   0  0  1  0  0  3  0  0  0  0  0  0
  189.2050  177.1270  140.2270 C   0  0  1  0  0  3  0  0  0  0  0  0
  186.0710  178.4200  139.5310 N   0  0  0  0  0  0  0  0  0  0  0  0
  186.3480  178.7500  140.7500 C   0  0  0  0  0  0  0  0  0  0  0  0
  187.1100  178.2310  138.6180 N   0  0  0  0  0  2  0  0  0  0  0  0
  192.1940  176.0520  138.0580 C   0  0  0  0  0  3  0  0  0  0  0  0
  193.2420  176.6010  138.7970 C   0  0  0  0  0  3  0  0  0  0  0  0
  191.6570  177.4270  140.4220 C   0  0  0  0  0  3  0  0  0  0  0  0
  190.5930  176.8760  139.6940 C   0  0  0  0  0  0  0  0  0  0  0  0
  192.9740  177.2880  139.9800 C   0  0  0  0  0  3  0  0  0  0  0  0
  190.8640  176.1830  138.4910 C   0  0  0  0  0  0  0  0  0  0  0  0
  189.3580  176.1930  136.5240 C   0  0  0  0  0  1  0  0  0  0  0  0
  189.8190  175.6270  137.7450 O   0  0  0  0  0  0  0  0  0  0  0  0
  185.2490  179.0760  141.6770 C   0  0  0  0  0  0  0  0  0  0  0  0
  185.4290  179.9140  142.6010 O   0  0  0  0  0  0  0  0  0  0  0  0
  183.9820  178.4370  141.5540 N   0  0  0  0  0  1  0  0  0  0  0  0
  188.1320  177.9490  143.6140 N   0  0  0  0  0  2  0  0  0  0  0  0
  191.3910  176.7820  146.1300 C   0  0  0  0  0  2  0  0  0  0  0  0
  189.2380  177.2990  144.3350 C   0  0  1  0  0  3  0  0  0  0  0  0
  190.5940  177.9320  144.1070 C   0  0  0  0  0  3  0  0  0  0  0  0
  191.6070  177.6790  144.9450 C   0  0  0  0  0  3  0  0  0  0  0  0
  190.0530  177.1290  146.7810 C   0  0  0  0  0  2  0  0  0  0  0  0
  188.8920  176.9180  145.7930 C   0  0  0  0  0  2  0  0  0  0  0  0
  1 21  1  1  0  0  0
  2  1  1  0  0  0  0
  3  4  1  6  0  0  0
  3  6  1  0  0  0  0
  3  5  1  0  0  0  0
  5  8  1  6  0  0  0
  5  1  1  0  0  0  0
  6 13  1  1  0  0  0
  6  2  1  0  0  0  0
  7  8  2  0  0  0  0
  8 18  1  0  0  0  0
  9  4  1  0  0  0  0
  9  7  1  0  0  0  0
 10 15  2  0  0  0  0
 10 11  1  0  0  0  0
 11 14  2  0  0  0  0
 13 12  2  0  0  0  0
 14 12  1  0  0  0  0
 15 13  1  0  0  0  0
 16 17  1  0  0  0  0
 17 15  1  0  0  0  0
 18 19  2  0  0  0  0
 20 18  1  0  0  0  0
 22 26  1  0  0  0  0
 23 21  1  1  0  0  0
 23 27  1  0  0  0  0
 24 23  1  0  0  0  0
 24 25  2  0  0  0  0
 25 22  1  0  0  0  0
 27 26  1  0  0  0  0
M  END
>  <MODEL>
5

>  <REMARK>
 VINA RESULT:      -8.3      2.501      6.756
  Name = 
  5 active torsions:
  status: ('A' for Active; 'I' for Inactive)
    1  A    between atoms: C_1  and  N_15
    2  A    between atoms: C_9  and  N_15
    3  A    between atoms: C_10  and  C_24
    4  A    between atoms: C_14  and  C_19
    5  A    between atoms: C_17  and  O_21
                            x       y       z     vdW  Elec       q    Type
                         _______ _______ _______ _____ _____    ______ ____

>  <TORSDO>
F 5

$$$$
=
 OpenBabel10272401133D

 27 30  0  0  1  0  0  0  0  0999 V2000
  188.0420  177.9670  142.1340 C   0  0  2  0  0  3  0  0  0  0  0  0
  189.2940  178.0520  142.9770 C   0  0  0  0  0  2  0  0  0  0  0  0
  187.5770  177.0620  144.3120 N   0  0  1  0  0  0  0  0  0  0  0  0
  186.7400  177.3110  145.4270 N   0  0  0  0  0  2  0  0  0  0  0  0
  186.9500  177.3360  142.9960 C   0  0  1  0  0  3  0  0  0  0  0  0
  188.7790  177.8920  144.3880 C   0  0  1  0  0  3  0  0  0  0  0  0
  185.4810  178.9100  144.1300 N   0  0  0  0  0  0  0  0  0  0  0  0
  185.7620  178.2770  143.0380 C   0  0  0  0  0  0  0  0  0  0  0  0
  186.1550  178.5820  145.3070 N   0  0  0  0  0  2  0  0  0  0  0  0
  190.8580  176.9100  147.4710 C   0  0  0  0  0  3  0  0  0  0  0  0
  191.8400  176.1260  146.8640 C   0  0  0  0  0  3  0  0  0  0  0  0
  190.8300  176.5390  144.7090 C   0  0  0  0  0  3  0  0  0  0  0  0
  189.8400  177.3350  145.3020 C   0  0  0  0  0  0  0  0  0  0  0  0
  191.8250  175.9400  145.4830 C   0  0  0  0  0  3  0  0  0  0  0  0
  189.8500  177.5190  146.7050 C   0  0  0  0  0  0  0  0  0  0  0  0
  188.3210  177.9930  148.5960 C   0  0  0  0  0  1  0  0  0  0  0  0
  188.8710  178.3060  147.3220 O   0  0  0  0  0  0  0  0  0  0  0  0
  184.9590  178.5330  141.8290 C   0  0  0  0  0  0  0  0  0  0  0  0
  185.2020  179.5380  141.1090 O   0  0  0  0  0  0  0  0  0  0  0  0
  183.8890  177.6630  141.4700 N   0  0  0  0  0  1  0  0  0  0  0  0
  188.2570  177.3270  140.8230 N   0  0  0  0  0  2  0  0  0  0  0  0
  188.0320  179.1630  136.9650 C   0  0  0  0  0  2  0  0  0  0  0  0
  188.1230  178.1980  139.6450 C   0  0  1  0  0  3  0  0  0  0  0  0
  189.4000  178.3890  138.8570 C   0  0  0  0  0  3  0  0  0  0  0  0
  189.3560  178.8530  137.6020 C   0  0  0  0  0  3  0  0  0  0  0  0
  187.0430  178.0490  137.3030 C   0  0  0  0  0  2  0  0  0  0  0  0
  186.8380  177.9410  138.8240 C   0  0  0  0  0  2  0  0  0  0  0  0
  1 21  1  6  0  0  0
  1  2  1  0  0  0  0
  1  5  1  0  0  0  0
  2  6  1  0  0  0  0
  3  6  1  0  0  0  0
  3  4  1  1  0  0  0
  5  8  1  1  0  0  0
  5  3  1  0  0  0  0
  6 13  1  1  0  0  0
  7  9  1  0  0  0  0
  8  7  2  0  0  0  0
  9  4  1  0  0  0  0
 11 10  1  0  0  0  0
 12 13  2  0  0  0  0
 12 14  1  0  0  0  0
 13 15  1  0  0  0  0
 14 11  2  0  0  0  0
 15 17  1  0  0  0  0
 15 10  2  0  0  0  0
 17 16  1  0  0  0  0
 18  8  1  0  0  0  0
 19 18  2  0  0  0  0
 20 18  1  0  0  0  0
 22 26  1  0  0  0  0
 22 25  1  0  0  0  0
 23 21  1  1  0  0  0
 24 23  1  0  0  0  0
 25 24  2  0  0  0  0
 26 27  1  0  0  0  0
 27 23  1  0  0  0  0
M  END
>  <MODEL>
6

>  <REMARK>
 VINA RESULT:      -8.3      2.143      4.641
  Name = 
  5 active torsions:
  status: ('A' for Active; 'I' for Inactive)
    1  A    between atoms: C_1  and  N_15
    2  A    between atoms: C_9  and  N_15
    3  A    between atoms: C_10  and  C_24
    4  A    between atoms: C_14  and  C_19
    5  A    between atoms: C_17  and  O_21
                            x       y       z     vdW  Elec       q    Type
                         _______ _______ _______ _____ _____    ______ ____

>  <TORSDO>
F 5

$$$$
=
 OpenBabel10272401133D

 27 30  0  0  1  0  0  0  0  0999 V2000
  188.2790  177.7190  141.4520 C   0  0  2  0  0  3  0  0  0  0  0  0
  187.1470  177.5790  142.4430 C   0  0  0  0  0  2  0  0  0  0  0  0
  189.1430  178.0400  143.6720 N   0  0  1  0  0  0  0  0  0  0  0  0
  190.0720  177.4500  144.5640 N   0  0  0  0  0  2  0  0  0  0  0  0
  189.5510  178.0100  142.2470 C   0  0  1  0  0  3  0  0  0  0  0  0
  187.8550  177.3520  143.7580 C   0  0  1  0  0  3  0  0  0  0  0  0
  190.9140  176.0650  142.7770 N   0  0  0  0  0  0  0  0  0  0  0  0
  190.5890  176.9600  141.9020 C   0  0  0  0  0  0  0  0  0  0  0  0
  190.4490  176.1850  144.0870 N   0  0  0  0  0  2  0  0  0  0  0  0
  186.5590  178.1650  147.2860 C   0  0  0  0  0  3  0  0  0  0  0  0
  185.3510  178.7850  146.9660 C   0  0  0  0  0  3  0  0  0  0  0  0
  185.7950  178.4270  144.6180 C   0  0  0  0  0  3  0  0  0  0  0  0
  187.0090  177.7970  144.9240 C   0  0  0  0  0  0  0  0  0  0  0  0
  184.9690  178.9160  145.6310 C   0  0  0  0  0  3  0  0  0  0  0  0
  187.4010  177.6680  146.2770 C   0  0  0  0  0  0  0  0  0  0  0  0
  189.2750  177.2640  147.8460 C   0  0  0  0  0  1  0  0  0  0  0  0
  188.6100  177.0460  146.6070 O   0  0  0  0  0  0  0  0  0  0  0  0
  191.1860  176.9030  140.5550 C   0  0  0  0  0  0  0  0  0  0  0  0
  190.6800  176.1630  139.6690 O   0  0  0  0  0  0  0  0  0  0  0  0
  192.3500  177.6640  140.2440 N   0  0  0  0  0  1  0  0  0  0  0  0
  187.9920  178.6640  140.3570 N   0  0  0  0  0  2  0  0  0  0  0  0
  187.4260  177.7440  136.2170 C   0  0  0  0  0  2  0  0  0  0  0  0
  187.8780  178.0830  139.0100 C   0  0  1  0  0  3  0  0  0  0  0  0
  186.4680  178.0380  138.4630 C   0  0  0  0  0  3  0  0  0  0  0  0
  186.2570  177.8680  137.1520 C   0  0  0  0  0  3  0  0  0  0  0  0
  188.4810  178.7820  136.5970 C   0  0  0  0  0  2  0  0  0  0  0  0
  188.9810  178.5520  138.0340 C   0  0  0  0  0  2  0  0  0  0  0  0
  1 21  1  6  0  0  0
  1  5  1  0  0  0  0
  1  2  1  0  0  0  0
  2  6  1  0  0  0  0
  3  6  1  0  0  0  0
  3  4  1  1  0  0  0
  5  8  1  1  0  0  0
  5  3  1  0  0  0  0
  6 13  1  1  0  0  0
  7  9  1  0  0  0  0
  8  7  2  0  0  0  0
  9  4  1  0  0  0  0
 11 10  1  0  0  0  0
 12 13  2  0  0  0  0
 12 14  1  0  0  0  0
 13 15  1  0  0  0  0
 14 11  2  0  0  0  0
 15 17  1  0  0  0  0
 15 10  2  0  0  0  0
 17 16  1  0  0  0  0
 18  8  1  0  0  0  0
 19 18  2  0  0  0  0
 20 18  1  0  0  0  0
 22 26  1  0  0  0  0
 22 25  1  0  0  0  0
 23 21  1  1  0  0  0
 24 23  1  0  0  0  0
 25 24  2  0  0  0  0
 26 27  1  0  0  0  0
 27 23  1  0  0  0  0
M  END
>  <MODEL>
7

>  <REMARK>
 VINA RESULT:      -8.0      2.041      3.905
  Name = 
  5 active torsions:
  status: ('A' for Active; 'I' for Inactive)
    1  A    between atoms: C_1  and  N_15
    2  A    between atoms: C_9  and  N_15
    3  A    between atoms: C_10  and  C_24
    4  A    between atoms: C_14  and  C_19
    5  A    between atoms: C_17  and  O_21
                            x       y       z     vdW  Elec       q    Type
                         _______ _______ _______ _____ _____    ______ ____

>  <TORSDO>
F 5

$$$$
=
 OpenBabel10272401133D

 27 30  0  0  1  0  0  0  0  0999 V2000
  186.3790  177.1660  144.1270 C   0  0  2  0  0  3  0  0  0  0  0  0
  187.5670  176.5240  143.4460 C   0  0  0  0  0  2  0  0  0  0  0  0
  187.3690  178.7580  142.6230 N   0  0  1  0  0  0  0  0  0  0  0  0
  187.0330  179.5000  141.4640 N   0  0  0  0  0  2  0  0  0  0  0  0
  186.2590  178.5920  143.5920 C   0  0  1  0  0  3  0  0  0  0  0  0
  187.8100  177.4150  142.2510 C   0  0  1  0  0  3  0  0  0  0  0  0
  184.7170  178.8770  141.7310 N   0  0  0  0  0  0  0  0  0  0  0  0
  184.8700  178.7750  143.0110 C   0  0  0  0  0  0  0  0  0  0  0  0
  185.8400  179.0060  140.9130 N   0  0  0  0  0  2  0  0  0  0  0  0
  191.0210  177.2940  140.1360 C   0  0  0  0  0  3  0  0  0  0  0  0
  191.9810  177.3610  141.1460 C   0  0  0  0  0  3  0  0  0  0  0  0
  190.2250  177.4290  142.8050 C   0  0  0  0  0  3  0  0  0  0  0  0
  189.2480  177.3540  141.8020 C   0  0  0  0  0  0  0  0  0  0  0  0
  191.5830  177.4290  142.4810 C   0  0  0  0  0  3  0  0  0  0  0  0
  189.6500  177.2920  140.4480 C   0  0  0  0  0  0  0  0  0  0  0  0
  188.5910  178.1970  138.3990 C   0  0  0  0  0  1  0  0  0  0  0  0
  188.6940  177.2210  139.4290 O   0  0  0  0  0  0  0  0  0  0  0  0
  183.6810  178.7720  143.8830 C   0  0  0  0  0  0  0  0  0  0  0  0
  182.5510  178.4780  143.4090 O   0  0  0  0  0  0  0  0  0  0  0  0
  183.7890  179.1190  145.2600 N   0  0  0  0  0  1  0  0  0  0  0  0
  186.4050  177.0450  145.5960 N   0  0  0  0  0  2  0  0  0  0  0  0
  189.6550  178.2800  148.0920 C   0  0  0  0  0  2  0  0  0  0  0  0
  187.5300  177.7000  146.2830 C   0  0  1  0  0  3  0  0  0  0  0  0
  187.2310  178.1430  147.6980 C   0  0  0  0  0  3  0  0  0  0  0  0
  188.2300  178.4250  148.5430 C   0  0  0  0  0  3  0  0  0  0  0  0
  189.7950  176.9830  147.2970 C   0  0  0  0  0  2  0  0  0  0  0  0
  188.8910  177.0020  146.0520 C   0  0  0  0  0  2  0  0  0  0  0  0
  1 21  1  1  0  0  0
  2  1  1  0  0  0  0
  3  4  1  6  0  0  0
  3  5  1  0  0  0  0
  5  8  1  6  0  0  0
  5  1  1  0  0  0  0
  6 13  1  1  0  0  0
  6  3  1  0  0  0  0
  6  2  1  0  0  0  0
  7  8  2  0  0  0  0
  8 18  1  0  0  0  0
  9  4  1  0  0  0  0
  9  7  1  0  0  0  0
 10 15  2  0  0  0  0
 10 11  1  0  0  0  0
 11 14  2  0  0  0  0
 13 12  2  0  0  0  0
 14 12  1  0  0  0  0
 15 13  1  0  0  0  0
 16 17  1  0  0  0  0
 17 15  1  0  0  0  0
 18 20  1  0  0  0  0
 19 18  2  0  0  0  0
 22 25  1  0  0  0  0
 23 21  1  1  0  0  0
 23 24  1  0  0  0  0
 24 25  2  0  0  0  0
 26 22  1  0  0  0  0
 27 23  1  0  0  0  0
 27 26  1  0  0  0  0
M  END
>  <MODEL>
8

>  <REMARK>
 VINA RESULT:      -7.9      2.363      6.140
  Name = 
  5 active torsions:
  status: ('A' for Active; 'I' for Inactive)
    1  A    between atoms: C_1  and  N_15
    2  A    between atoms: C_9  and  N_15
    3  A    between atoms: C_10  and  C_24
    4  A    between atoms: C_14  and  C_19
    5  A    between atoms: C_17  and  O_21
                            x       y       z     vdW  Elec       q    Type
                         _______ _______ _______ _____ _____    ______ ____

>  <TORSDO>
F 5

$$$$
=
 OpenBabel10272401133D

 27 30  0  0  1  0  0  0  0  0999 V2000
  188.8760  177.5880  142.3230 C   0  0  2  0  0  3  0  0  0  0  0  0
  188.2330  178.2730  141.1390 C   0  0  0  0  0  2  0  0  0  0  0  0
  189.9080  176.7870  140.3060 N   0  0  1  0  0  0  0  0  0  0  0  0
  191.1780  176.7670  139.6780 N   0  0  0  0  0  2  0  0  0  0  0  0
  189.9470  176.6430  141.7810 C   0  0  1  0  0  3  0  0  0  0  0  0
  189.2250  178.0480  140.0210 C   0  0  1  0  0  3  0  0  0  0  0  0
  192.2020  177.5560  141.7150 N   0  0  0  0  0  0  0  0  0  0  0  0
  191.2750  176.9970  142.4230 C   0  0  0  0  0  0  0  0  0  0  0  0
  192.0440  177.6570  140.3330 N   0  0  0  0  0  2  0  0  0  0  0  0
  186.6480  178.3510  137.1830 C   0  0  0  0  0  3  0  0  0  0  0  0
  187.4870  178.2200  136.0760 C   0  0  0  0  0  3  0  0  0  0  0  0
  189.3830  177.9560  137.5500 C   0  0  0  0  0  3  0  0  0  0  0  0
  188.5520  178.0790  138.6730 C   0  0  0  0  0  0  0  0  0  0  0  0
  188.8550  178.0220  136.2600 C   0  0  0  0  0  3  0  0  0  0  0  0
  187.1650  178.2850  138.4880 C   0  0  0  0  0  0  0  0  0  0  0  0
  184.9450  178.7770  139.4710 C   0  0  0  0  0  1  0  0  0  0  0  0
  186.3150  178.4150  139.5920 O   0  0  0  0  0  0  0  0  0  0  0  0
  191.5010  176.7740  143.8620 C   0  0  0  0  0  0  0  0  0  0  0  0
  191.6390  175.6020  144.3070 O   0  0  0  0  0  0  0  0  0  0  0  0
  191.5450  177.8710  144.7690 N   0  0  0  0  0  1  0  0  0  0  0  0
  187.9060  176.9740  143.2480 N   0  0  0  0  0  2  0  0  0  0  0  0
  186.0630  178.7880  146.6580 C   0  0  0  0  0  2  0  0  0  0  0  0
  187.4000  177.8380  144.3270 C   0  0  1  0  0  3  0  0  0  0  0  0
  185.9000  178.0350  144.3220 C   0  0  0  0  0  3  0  0  0  0  0  0
  185.2750  178.4920  145.4140 C   0  0  0  0  0  3  0  0  0  0  0  0
  187.0760  177.6670  146.8840 C   0  0  0  0  0  2  0  0  0  0  0  0
  188.0550  177.5660  145.7010 C   0  0  0  0  0  2  0  0  0  0  0  0
  1 21  1  6  0  0  0
  2  1  1  0  0  0  0
  3  4  1  1  0  0  0
  3  5  1  0  0  0  0
  4  9  1  0  0  0  0
  5  1  1  0  0  0  0
  5  8  1  1  0  0  0
  6 13  1  6  0  0  0
  6  3  1  0  0  0  0
  6  2  1  0  0  0  0
  7  8  2  0  0  0  0
  8 18  1  0  0  0  0
  9  7  1  0  0  0  0
 10 15  1  0  0  0  0
 11 14  1  0  0  0  0
 11 10  2  0  0  0  0
 12 13  1  0  0  0  0
 14 12  2  0  0  0  0
 15 13  2  0  0  0  0
 15 17  1  0  0  0  0
 16 17  1  0  0  0  0
 18 19  2  0  0  0  0
 18 20  1  0  0  0  0
 22 26  1  0  0  0  0
 23 21  1  6  0  0  0
 23 27  1  0  0  0  0
 24 23  1  0  0  0  0
 24 25  2  0  0  0  0
 25 22  1  0  0  0  0
 27 26  1  0  0  0  0
M  END
>  <MODEL>
9

>  <REMARK>
 VINA RESULT:      -7.9      2.085      6.421
  Name = 
  5 active torsions:
  status: ('A' for Active; 'I' for Inactive)
    1  A    between atoms: C_1  and  N_15
    2  A    between atoms: C_9  and  N_15
    3  A    between atoms: C_10  and  C_24
    4  A    between atoms: C_14  and  C_19
    5  A    between atoms: C_17  and  O_21
                            x       y       z     vdW  Elec       q    Type
                         _______ _______ _______ _____ _____    ______ ____

>  <TORSDO>
F 5

$$$$
