=
 OpenBabel10272401543D

 28 30  0  0  1  0  0  0  0  0999 V2000
  189.0680  178.0890  143.0750 C   0  0  1  0  0  3  0  0  0  0  0  0
  187.4550  178.2450  138.2050 C   0  0  0  0  0  2  0  0  0  0  0  0
  193.1650  176.4670  139.2580 C   0  0  0  0  0  1  0  0  0  0  0  0
  188.5540  176.2430  137.3120 C   0  0  1  0  0  3  0  0  0  0  0  0
  189.2370  176.9480  139.5470 C   0  0  2  0  0  3  0  0  0  0  0  0
  187.4300  177.8260  135.7280 C   0  0  0  0  0  0  0  0  0  0  0  0
  188.7680  177.4710  138.2020 C   0  0  2  0  0  3  0  0  0  0  0  0
  190.7050  175.6170  137.9720 C   0  0  0  0  0  2  0  0  0  0  0  0
  188.3950  176.6660  135.8560 C   0  0  0  0  0  2  0  0  0  0  0  0
  191.9800  177.9130  140.8800 C   0  0  0  0  0  2  0  0  0  0  0  0
  189.0580  177.9110  140.7150 C   0  0  0  0  0  2  0  0  0  0  0  0
  189.4530  175.1580  137.5070 O   0  0  0  0  0  0  0  0  0  0  0  0
  191.6240  177.6870  143.3680 C   0  0  0  0  0  2  0  0  0  0  0  0
  191.8590  177.2040  139.5320 C   0  0  2  0  0  3  0  0  0  0  0  0
  191.8880  176.9470  142.0580 C   0  0  0  0  0  2  0  0  0  0  0  0
  186.9730  178.1760  134.4650 O   0  0  0  0  0  1  0  0  0  0  0  0
  187.0440  178.5630  136.7860 C   0  0  0  0  0  3  0  0  0  0  0  0
  190.6290  176.2680  139.3790 C   0  0  1  0  0  3  0  0  0  0  0  0
  190.4730  178.6920  143.2700 C   0  0  0  0  0  2  0  0  0  0  0  0
  188.9830  177.1540  141.9570 N   0  0  0  0  0  2  0  0  0  0  0  0
  188.4030  177.5450  144.3530 C   0  0  2  0  0  3  0  0  0  0  0  0
  189.2540  176.7060  145.0770 O   0  0  0  0  0  1  0  0  0  0  0  0
  186.9970  176.9490  144.2080 C   0  0  0  0  0  2  0  0  0  0  0  0
  185.1480  178.6030  144.8260 N   0  0  0  0  0  0  0  0  0  0  0  0
  185.7930  178.2280  142.6120 O   0  0  0  0  0  0  0  0  0  0  0  0
  185.9490  177.9490  143.8310 C   0  0  0  0  0  0  0  0  0  0  0  0
  185.5780  178.5440  146.5400 S   0  0  0  0  0  1  0  0  0  0  0  0
  184.0130  179.4220  144.4330 C   0  0  0  0  0  1  0  0  0  0  0  0
  1 19  1  0  0  0  0
  1 21  1  1  0  0  0
  4  9  1  6  0  0  0
  4 12  1  0  0  0  0
  4  7  1  0  0  0  0
  5 11  1  1  0  0  0
  6  9  1  0  0  0  0
  6 17  2  0  0  0  0
  7  2  1  1  0  0  0
  7  5  1  0  0  0  0
 10 15  1  0  0  0  0
 11 20  1  0  0  0  0
 12  8  1  0  0  0  0
 14  3  1  1  0  0  0
 14 10  1  0  0  0  0
 15 13  1  0  0  0  0
 16  6  1  0  0  0  0
 17  2  1  0  0  0  0
 18  8  1  6  0  0  0
 18 14  1  0  0  0  0
 18  5  1  0  0  0  0
 19 13  1  0  0  0  0
 20  1  1  0  0  0  0
 21 22  1  6  0  0  0
 23 21  1  0  0  0  0
 24 27  1  0  0  0  0
 25 26  2  0  0  0  0
 26 23  1  0  0  0  0
 26 24  1  0  0  0  0
 28 24  1  0  0  0  0
M  END
>  <MODEL>
1

>  <REMARK>
 VINA RESULT:      -7.3      0.000      0.000
  Name = 
  3 active torsions:
  status: ('A' for Active; 'I' for Inactive)
    1  A    between atoms: C_1  and  C_2
    2  A    between atoms: C_2  and  C_3
    3  A    between atoms: C_3  and  C_11
                            x       y       z     vdW  Elec       q    Type
                         _______ _______ _______ _____ _____    ______ ____

>  <TORSDO>
F 3

$$$$
=
 OpenBabel10272401543D

 28 30  0  0  1  0  0  0  0  0999 V2000
  188.6170  177.6440  140.7260 C   0  0  1  0  0  3  0  0  0  0  0  0
  183.5510  178.1810  141.3610 C   0  0  0  0  0  2  0  0  0  0  0  0
  186.9840  177.4770  146.3210 C   0  0  0  0  0  1  0  0  0  0  0  0
  183.5050  179.5660  143.3830 C   0  0  1  0  0  3  0  0  0  0  0  0
  185.6730  178.6350  142.7590 C   0  0  2  0  0  3  0  0  0  0  0  0
  181.3640  178.5850  142.5280 C   0  0  0  0  0  0  0  0  0  0  0  0
  184.1810  178.3540  142.7380 C   0  0  2  0  0  3  0  0  0  0  0  0
  185.0290  179.2610  145.1260 C   0  0  0  0  0  2  0  0  0  0  0  0
  182.0480  179.2510  143.7040 C   0  0  0  0  0  2  0  0  0  0  0  0
  187.7580  176.6310  144.1270 C   0  0  0  0  0  2  0  0  0  0  0  0
  186.4990  177.8220  141.7680 C   0  0  0  0  0  2  0  0  0  0  0  0
  184.2120  180.1920  144.4480 O   0  0  0  0  0  0  0  0  0  0  0  0
  189.9220  176.9710  142.8760 C   0  0  0  0  0  2  0  0  0  0  0  0
  186.6100  177.3340  144.8500 C   0  0  2  0  0  3  0  0  0  0  0  0
  188.9610  177.5460  143.9150 C   0  0  0  0  0  2  0  0  0  0  0  0
  179.9820  178.4580  142.5470 O   0  0  0  0  0  1  0  0  0  0  0  0
  182.0510  178.0640  141.4950 C   0  0  0  0  0  3  0  0  0  0  0  0
  186.1660  178.6900  144.2360 C   0  0  1  0  0  3  0  0  0  0  0  0
  189.2220  176.5220  141.5910 C   0  0  0  0  0  2  0  0  0  0  0  0
  187.7300  178.5380  141.4670 N   0  0  0  0  0  2  0  0  0  0  0  0
  189.6200  178.4060  139.8400 C   0  0  2  0  0  3  0  0  0  0  0  0
  188.9850  179.1700  138.8580 O   0  0  0  0  0  1  0  0  0  0  0  0
  190.7980  177.6060  139.2720 C   0  0  0  0  0  2  0  0  0  0  0  0
  191.4630  176.2250  137.2260 N   0  0  0  0  0  0  0  0  0  0  0  0
  189.2320  176.5370  137.8430 O   0  0  0  0  0  0  0  0  0  0  0  0
  190.4470  176.7720  138.0790 C   0  0  0  0  0  0  0  0  0  0  0  0
  193.1610  176.1950  137.7170 S   0  0  0  0  0  1  0  0  0  0  0  0
  191.1020  175.5830  135.9730 C   0  0  0  0  0  1  0  0  0  0  0  0
  1 21  1  1  0  0  0
  1 20  1  0  0  0  0
  1 19  1  0  0  0  0
  2 17  1  0  0  0  0
  4  9  1  1  0  0  0
  4 12  1  0  0  0  0
  5 11  1  6  0  0  0
  5 18  1  0  0  0  0
  6 16  1  0  0  0  0
  6  9  1  0  0  0  0
  7  2  1  6  0  0  0
  7  5  1  0  0  0  0
  7  4  1  0  0  0  0
 10 14  1  0  0  0  0
 12  8  1  0  0  0  0
 13 15  1  0  0  0  0
 14  3  1  1  0  0  0
 15 10  1  0  0  0  0
 17  6  2  0  0  0  0
 18 14  1  0  0  0  0
 18  8  1  1  0  0  0
 19 13  1  0  0  0  0
 20 11  1  0  0  0  0
 21 22  1  6  0  0  0
 23 21  1  0  0  0  0
 24 27  1  0  0  0  0
 24 26  1  0  0  0  0
 25 26  2  0  0  0  0
 26 23  1  0  0  0  0
 28 24  1  0  0  0  0
M  END
>  <MODEL>
2

>  <REMARK>
 VINA RESULT:      -7.2      3.386      7.475
  Name = 
  3 active torsions:
  status: ('A' for Active; 'I' for Inactive)
    1  A    between atoms: C_1  and  C_2
    2  A    between atoms: C_2  and  C_3
    3  A    between atoms: C_3  and  C_11
                            x       y       z     vdW  Elec       q    Type
                         _______ _______ _______ _____ _____    ______ ____

>  <TORSDO>
F 3

$$$$
=
 OpenBabel10272401543D

 28 30  0  0  1  0  0  0  0  0999 V2000
  190.8750  176.5510  138.6070 C   0  0  1  0  0  3  0  0  0  0  0  0
  191.4250  176.9360  143.6960 C   0  0  0  0  0  2  0  0  0  0  0  0
  186.2790  179.0060  141.2220 C   0  0  0  0  0  1  0  0  0  0  0  0
  189.1400  176.4260  144.4250 C   0  0  1  0  0  3  0  0  0  0  0  0
  189.4590  176.7740  142.0310 C   0  0  2  0  0  3  0  0  0  0  0  0
  190.7950  177.2780  146.1030 C   0  0  0  0  0  0  0  0  0  0  0  0
  189.9560  177.2130  143.3960 C   0  0  2  0  0  3  0  0  0  0  0  0
  187.2700  177.1670  143.2390 C   0  0  0  0  0  2  0  0  0  0  0  0
  189.3300  177.0190  145.8170 C   0  0  0  0  0  2  0  0  0  0  0  0
  188.3520  178.8630  139.8760 C   0  0  0  0  0  2  0  0  0  0  0  0
  190.4160  177.0450  140.8750 C   0  0  0  0  0  2  0  0  0  0  0  0
  187.7840  176.1610  144.0870 O   0  0  0  0  0  0  0  0  0  0  0  0
  188.8150  177.8090  137.6320 C   0  0  0  0  0  2  0  0  0  0  0  0
  187.7570  178.6340  141.2650 C   0  0  2  0  0  3  0  0  0  0  0  0
  187.9290  177.7920  138.8760 C   0  0  0  0  0  2  0  0  0  0  0  0
  191.1760  177.5760  147.4040 O   0  0  0  0  0  1  0  0  0  0  0  0
  191.7280  177.2830  145.1340 C   0  0  0  0  0  3  0  0  0  0  0  0
  187.9750  177.2140  141.8570 C   0  0  1  0  0  3  0  0  0  0  0  0
  190.3110  177.8290  137.9580 C   0  0  0  0  0  2  0  0  0  0  0  0
  190.1330  176.1190  139.7880 N   0  0  0  0  0  2  0  0  0  0  0  0
  191.1650  175.3920  137.6340 C   0  0  2  0  0  3  0  0  0  0  0  0
  190.3280  174.2960  137.8520 O   0  0  0  0  0  1  0  0  0  0  0  0
  192.6310  174.9710  137.4680 C   0  0  0  0  0  2  0  0  0  0  0  0
  193.7850  175.7660  135.3310 N   0  0  0  0  0  0  0  0  0  0  0  0
  193.8730  176.9880  137.3200 O   0  0  0  0  0  0  0  0  0  0  0  0
  193.4660  175.9590  136.7160 C   0  0  0  0  0  0  0  0  0  0  0  0
  192.9360  174.5670  134.3480 S   0  0  0  0  0  1  0  0  0  0  0  0
  194.7500  176.6320  134.6720 C   0  0  0  0  0  1  0  0  0  0  0  0
  1 21  1  6  0  0  0
  1 20  1  0  0  0  0
  2 17  1  0  0  0  0
  4  9  1  1  0  0  0
  5 11  1  6  0  0  0
  5  7  1  0  0  0  0
  6 16  1  0  0  0  0
  7  2  1  6  0  0  0
  7  4  1  0  0  0  0
  8 12  1  0  0  0  0
  9  6  1  0  0  0  0
 10 14  1  0  0  0  0
 12  4  1  0  0  0  0
 13 19  1  0  0  0  0
 13 15  1  0  0  0  0
 14  3  1  6  0  0  0
 14 18  1  0  0  0  0
 15 10  1  0  0  0  0
 17  6  2  0  0  0  0
 18  5  1  0  0  0  0
 18  8  1  1  0  0  0
 19  1  1  0  0  0  0
 20 11  1  0  0  0  0
 21 22  1  1  0  0  0
 23 21  1  0  0  0  0
 24 26  1  0  0  0  0
 26 25  2  0  0  0  0
 26 23  1  0  0  0  0
 27 24  1  0  0  0  0
 28 24  1  0  0  0  0
M  END
>  <MODEL>
3

>  <REMARK>
 VINA RESULT:      -7.1      3.843      8.397
  Name = 
  3 active torsions:
  status: ('A' for Active; 'I' for Inactive)
    1  A    between atoms: C_1  and  C_2
    2  A    between atoms: C_2  and  C_3
    3  A    between atoms: C_3  and  C_11
                            x       y       z     vdW  Elec       q    Type
                         _______ _______ _______ _____ _____    ______ ____

>  <TORSDO>
F 3

$$$$
=
 OpenBabel10272401543D

 28 30  0  0  1  0  0  0  0  0999 V2000
  189.3320  177.7710  142.7610 C   0  0  1  0  0  3  0  0  0  0  0  0
  187.3720  178.2480  138.0400 C   0  0  0  0  0  2  0  0  0  0  0  0
  193.0990  176.2950  138.5630 C   0  0  0  0  0  1  0  0  0  0  0  0
  188.3540  176.2810  136.9550 C   0  0  1  0  0  3  0  0  0  0  0  0
  189.2150  176.8370  139.1700 C   0  0  2  0  0  3  0  0  0  0  0  0
  187.1570  177.9780  135.5520 C   0  0  0  0  0  0  0  0  0  0  0  0
  188.6620  177.4490  137.8950 C   0  0  2  0  0  3  0  0  0  0  0  0
  190.5310  175.5730  137.4160 C   0  0  0  0  0  2  0  0  0  0  0  0
  188.1000  176.7930  135.5410 C   0  0  0  0  0  2  0  0  0  0  0  0
  192.0710  177.6660  140.3490 C   0  0  0  0  0  2  0  0  0  0  0  0
  189.1450  177.7330  140.4010 C   0  0  0  0  0  2  0  0  0  0  0  0
  189.2370  175.1670  137.0200 O   0  0  0  0  0  0  0  0  0  0  0  0
  191.8910  177.3000  142.8390 C   0  0  0  0  0  2  0  0  0  0  0  0
  191.8350  177.0410  138.9750 C   0  0  2  0  0  3  0  0  0  0  0  0
  192.0410  176.6340  141.4730 C   0  0  0  0  0  2  0  0  0  0  0  0
  186.6180  178.4110  134.3490 O   0  0  0  0  0  1  0  0  0  0  0  0
  186.8680  178.6580  136.6770 C   0  0  0  0  0  3  0  0  0  0  0  0
  190.5740  176.1410  138.8600 C   0  0  1  0  0  3  0  0  0  0  0  0
  190.7610  178.3320  142.8850 C   0  0  0  0  0  2  0  0  0  0  0  0
  189.1430  176.9050  141.5990 N   0  0  0  0  0  2  0  0  0  0  0  0
  188.7480  177.1650  144.0500 C   0  0  2  0  0  3  0  0  0  0  0  0
  187.8100  176.1630  143.7880 O   0  0  0  0  0  1  0  0  0  0  0  0
  188.2540  178.1460  145.1210 C   0  0  0  0  0  2  0  0  0  0  0  0
  187.5490  178.0400  147.5760 N   0  0  0  0  0  0  0  0  0  0  0  0
  189.4150  176.8920  146.7680 O   0  0  0  0  0  0  0  0  0  0  0  0
  188.4490  177.6630  146.5250 C   0  0  0  0  0  0  0  0  0  0  0  0
  185.9850  178.7870  147.2270 S   0  0  0  0  0  1  0  0  0  0  0  0
  187.8600  177.7200  148.9600 C   0  0  0  0  0  1  0  0  0  0  0  0
  1 19  1  0  0  0  0
  1 21  1  1  0  0  0
  4  9  1  6  0  0  0
  4 12  1  0  0  0  0
  4  7  1  0  0  0  0
  5 11  1  1  0  0  0
  6 17  2  0  0  0  0
  7  2  1  1  0  0  0
  7  5  1  0  0  0  0
  9  6  1  0  0  0  0
 10 15  1  0  0  0  0
 11 20  1  0  0  0  0
 12  8  1  0  0  0  0
 13 19  1  0  0  0  0
 14  3  1  1  0  0  0
 14 10  1  0  0  0  0
 15 13  1  0  0  0  0
 16  6  1  0  0  0  0
 17  2  1  0  0  0  0
 18  8  1  6  0  0  0
 18 14  1  0  0  0  0
 18  5  1  0  0  0  0
 20  1  1  0  0  0  0
 21 22  1  6  0  0  0
 21 23  1  0  0  0  0
 23 26  1  0  0  0  0
 24 28  1  0  0  0  0
 26 25  2  0  0  0  0
 26 24  1  0  0  0  0
 27 24  1  0  0  0  0
M  END
>  <MODEL>
4

>  <REMARK>
 VINA RESULT:      -7.0      1.496      1.997
  Name = 
  3 active torsions:
  status: ('A' for Active; 'I' for Inactive)
    1  A    between atoms: C_1  and  C_2
    2  A    between atoms: C_2  and  C_3
    3  A    between atoms: C_3  and  C_11
                            x       y       z     vdW  Elec       q    Type
                         _______ _______ _______ _____ _____    ______ ____

>  <TORSDO>
F 3

$$$$
=
 OpenBabel10272401543D

 28 30  0  0  1  0  0  0  0  0999 V2000
  183.6150  179.2130  142.9080 C   0  0  1  0  0  3  0  0  0  0  0  0
  188.1490  178.4080  140.6420 C   0  0  0  0  0  2  0  0  0  0  0  0
  187.7590  177.4970  146.6330 C   0  0  0  0  0  1  0  0  0  0  0  0
  188.9150  176.4330  141.8760 C   0  0  1  0  0  3  0  0  0  0  0  0
  186.9330  177.5560  142.7530 C   0  0  2  0  0  3  0  0  0  0  0  0
  190.5100  177.6040  140.3380 C   0  0  0  0  0  0  0  0  0  0  0  0
  188.2490  177.8020  142.0370 C   0  0  2  0  0  3  0  0  0  0  0  0
  188.5170  176.1730  144.1620 C   0  0  0  0  0  2  0  0  0  0  0  0
  190.3740  176.5990  141.4640 C   0  0  0  0  0  2  0  0  0  0  0  0
  186.1890  179.0320  145.4910 C   0  0  0  0  0  2  0  0  0  0  0  0
  185.8970  178.6640  142.6020 C   0  0  0  0  0  2  0  0  0  0  0  0
  188.7130  175.5040  142.9340 O   0  0  0  0  0  0  0  0  0  0  0  0
  183.6690  179.1620  145.5110 C   0  0  0  0  0  2  0  0  0  0  0  0
  187.3900  178.1110  145.2870 C   0  0  2  0  0  3  0  0  0  0  0  0
  184.8890  178.2600  145.6950 C   0  0  0  0  0  2  0  0  0  0  0  0
  191.7230  177.6940  139.6700 O   0  0  0  0  0  1  0  0  0  0  0  0
  189.5170  178.4480  140.0020 C   0  0  0  0  0  3  0  0  0  0  0  0
  187.2190  177.0260  144.1890 C   0  0  1  0  0  3  0  0  0  0  0  0
  183.7260  179.9980  144.2290 C   0  0  0  0  0  2  0  0  0  0  0  0
  184.5650  178.1090  142.8030 N   0  0  0  0  0  2  0  0  0  0  0  0
  182.1860  178.8030  142.5050 C   0  0  2  0  0  3  0  0  0  0  0  0
  181.5190  178.1290  143.5300 O   0  0  0  0  0  1  0  0  0  0  0  0
  182.0170  178.1000  141.1520 C   0  0  0  0  0  2  0  0  0  0  0  0
  182.3650  179.7200  139.2060 N   0  0  0  0  0  0  0  0  0  0  0  0
  180.2380  179.0630  139.9110 O   0  0  0  0  0  0  0  0  0  0  0  0
  181.4850  178.9860  140.0690 C   0  0  0  0  0  0  0  0  0  0  0  0
  184.0940  179.3580  139.1280 S   0  0  0  0  0  1  0  0  0  0  0  0
  181.8340  180.7170  138.2910 C   0  0  0  0  0  1  0  0  0  0  0  0
  1 21  1  1  0  0  0
  1 19  1  0  0  0  0
  4  9  1  1  0  0  0
  4  7  1  0  0  0  0
  4 12  1  0  0  0  0
  5 11  1  1  0  0  0
  5 18  1  0  0  0  0
  6  9  1  0  0  0  0
  7  2  1  6  0  0  0
  7  5  1  0  0  0  0
 10 15  1  0  0  0  0
 11 20  1  0  0  0  0
 12  8  1  0  0  0  0
 13 15  1  0  0  0  0
 14 10  1  0  0  0  0
 14  3  1  1  0  0  0
 16  6  1  0  0  0  0
 17  6  2  0  0  0  0
 17  2  1  0  0  0  0
 18  8  1  6  0  0  0
 18 14  1  0  0  0  0
 19 13  1  0  0  0  0
 20  1  1  0  0  0  0
 21 22  1  1  0  0  0
 23 21  1  0  0  0  0
 24 26  1  0  0  0  0
 25 26  2  0  0  0  0
 26 23  1  0  0  0  0
 27 24  1  0  0  0  0
 28 24  1  0  0  0  0
M  END
>  <MODEL>
5

>  <REMARK>
 VINA RESULT:      -6.9      3.328      6.276
  Name = 
  3 active torsions:
  status: ('A' for Active; 'I' for Inactive)
    1  A    between atoms: C_1  and  C_2
    2  A    between atoms: C_2  and  C_3
    3  A    between atoms: C_3  and  C_11
                            x       y       z     vdW  Elec       q    Type
                         _______ _______ _______ _____ _____    ______ ____

>  <TORSDO>
F 3

$$$$
=
 OpenBabel10272401543D

 28 30  0  0  1  0  0  0  0  0999 V2000
  182.7710  178.4410  141.0580 C   0  0  1  0  0  3  0  0  0  0  0  0
  187.8840  178.0610  140.8000 C   0  0  0  0  0  2  0  0  0  0  0  0
  185.3740  179.0760  146.2360 C   0  0  0  0  0  1  0  0  0  0  0  0
  188.3400  176.8380  142.8750 C   0  0  1  0  0  3  0  0  0  0  0  0
  186.0640  177.6730  142.5890 C   0  0  2  0  0  3  0  0  0  0  0  0
  190.2580  177.7950  141.5770 C   0  0  0  0  0  0  0  0  0  0  0  0
  187.5170  177.9820  142.2770 C   0  0  2  0  0  3  0  0  0  0  0  0
  187.1430  177.2460  144.8390 C   0  0  0  0  0  2  0  0  0  0  0  0
  189.8190  177.2070  142.9030 C   0  0  0  0  0  2  0  0  0  0  0  0
  184.1900  179.7320  144.1640 C   0  0  0  0  0  2  0  0  0  0  0  0
  185.0460  178.3890  141.7080 C   0  0  0  0  0  2  0  0  0  0  0  0
  187.8580  176.2820  144.0930 O   0  0  0  0  0  0  0  0  0  0  0  0
  181.8500  179.2510  143.3540 C   0  0  0  0  0  2  0  0  0  0  0  0
  185.4730  179.1120  144.7150 C   0  0  2  0  0  3  0  0  0  0  0  0
  183.0010  178.7790  144.2400 C   0  0  0  0  0  2  0  0  0  0  0  0
  191.6150  177.9520  141.3350 O   0  0  0  0  0  1  0  0  0  0  0  0
  189.3780  178.2190  140.6510 C   0  0  0  0  0  3  0  0  0  0  0  0
  185.8460  177.7220  144.1310 C   0  0  1  0  0  3  0  0  0  0  0  0
  182.2930  179.6140  141.9340 C   0  0  0  0  0  2  0  0  0  0  0  0
  183.8060  177.6250  141.6880 N   0  0  0  0  0  2  0  0  0  0  0  0
  181.6530  177.5910  140.4260 C   0  0  2  0  0  3  0  0  0  0  0  0
  182.1310  176.3830  139.9120 O   0  0  0  0  0  1  0  0  0  0  0  0
  180.7080  178.2980  139.4460 C   0  0  0  0  0  2  0  0  0  0  0  0
  181.1890  177.7740  136.9910 N   0  0  0  0  0  0  0  0  0  0  0  0
  181.9910  179.7060  138.0300 O   0  0  0  0  0  0  0  0  0  0  0  0
  181.3380  178.6330  138.1300 C   0  0  0  0  0  0  0  0  0  0  0  0
  179.9850  176.4800  136.9630 S   0  0  0  0  0  1  0  0  0  0  0  0
  181.9600  178.0160  135.7830 C   0  0  0  0  0  1  0  0  0  0  0  0
  1 21  1  1  0  0  0
  1 20  1  0  0  0  0
  1 19  1  0  0  0  0
  4  9  1  1  0  0  0
  4 12  1  0  0  0  0
  5 11  1  6  0  0  0
  5 18  1  0  0  0  0
  6  9  1  0  0  0  0
  7  2  1  6  0  0  0
  7  5  1  0  0  0  0
  7  4  1  0  0  0  0
 10 15  1  0  0  0  0
 10 14  1  0  0  0  0
 12  8  1  0  0  0  0
 13 15  1  0  0  0  0
 14  3  1  1  0  0  0
 16  6  1  0  0  0  0
 17  2  1  0  0  0  0
 17  6  2  0  0  0  0
 18 14  1  0  0  0  0
 18  8  1  1  0  0  0
 19 13  1  0  0  0  0
 20 11  1  0  0  0  0
 21 22  1  6  0  0  0
 23 21  1  0  0  0  0
 24 26  1  0  0  0  0
 25 26  2  0  0  0  0
 26 23  1  0  0  0  0
 27 24  1  0  0  0  0
 28 24  1  0  0  0  0
M  END
>  <MODEL>
6

>  <REMARK>
 VINA RESULT:      -6.6      4.156      7.566
  Name = 
  3 active torsions:
  status: ('A' for Active; 'I' for Inactive)
    1  A    between atoms: C_1  and  C_2
    2  A    between atoms: C_2  and  C_3
    3  A    between atoms: C_3  and  C_11
                            x       y       z     vdW  Elec       q    Type
                         _______ _______ _______ _____ _____    ______ ____

>  <TORSDO>
F 3

$$$$
=
 OpenBabel10272401543D

 28 30  0  0  1  0  0  0  0  0999 V2000
  190.9440  176.5720  138.9620 C   0  0  1  0  0  3  0  0  0  0  0  0
  191.3400  176.9490  144.0660 C   0  0  0  0  0  2  0  0  0  0  0  0
  186.3390  179.1630  141.4250 C   0  0  0  0  0  1  0  0  0  0  0  0
  189.0190  176.5070  144.7210 C   0  0  1  0  0  3  0  0  0  0  0  0
  189.4250  176.8420  142.3380 C   0  0  2  0  0  3  0  0  0  0  0  0
  190.6430  177.3130  146.4510 C   0  0  0  0  0  0  0  0  0  0  0  0
  189.8900  177.2680  143.7190 C   0  0  2  0  0  3  0  0  0  0  0  0
  187.2100  177.2990  143.4750 C   0  0  0  0  0  2  0  0  0  0  0  0
  189.1810  177.0970  146.1180 C   0  0  0  0  0  2  0  0  0  0  0  0
  188.4490  178.9590  140.1470 C   0  0  0  0  0  2  0  0  0  0  0  0
  190.4270  177.0830  141.2140 C   0  0  0  0  0  2  0  0  0  0  0  0
  187.6670  176.2810  144.3400 O   0  0  0  0  0  0  0  0  0  0  0  0
  188.9550  177.8880  137.9200 C   0  0  0  0  0  2  0  0  0  0  0  0
  187.8030  178.7480  141.5160 C   0  0  2  0  0  3  0  0  0  0  0  0
  188.0280  177.8980  139.1340 C   0  0  0  0  0  2  0  0  0  0  0  0
  190.9900  177.6030  147.7640 O   0  0  0  0  0  1  0  0  0  0  0  0
  191.6060  177.2900  145.5130 C   0  0  0  0  0  3  0  0  0  0  0  0
  187.9610  177.3250  142.1160 C   0  0  1  0  0  3  0  0  0  0  0  0
  190.4390  177.8650  138.2940 C   0  0  0  0  0  2  0  0  0  0  0  0
  190.1520  176.1630  140.1190 N   0  0  0  0  0  2  0  0  0  0  0  0
  191.2320  175.4040  138.0000 C   0  0  2  0  0  3  0  0  0  0  0  0
  192.6010  175.2100  137.7960 O   0  0  0  0  0  1  0  0  0  0  0  0
  190.4460  175.3730  136.6840 C   0  0  0  0  0  2  0  0  0  0  0  0
  188.1110  174.6640  135.9240 N   0  0  0  0  0  0  0  0  0  0  0  0
  189.4100  173.3430  137.3460 O   0  0  0  0  0  0  0  0  0  0  0  0
  189.3020  174.4080  136.6820 C   0  0  0  0  0  0  0  0  0  0  0  0
  188.0580  175.9280  134.6890 S   0  0  0  0  0  1  0  0  0  0  0  0
  186.9410  173.8150  136.0840 C   0  0  0  0  0  1  0  0  0  0  0  0
  1 21  1  6  0  0  0
  1 20  1  0  0  0  0
  2 17  1  0  0  0  0
  4  9  1  1  0  0  0
  5 11  1  6  0  0  0
  5  7  1  0  0  0  0
  6 16  1  0  0  0  0
  7  2  1  1  0  0  0
  7  4  1  0  0  0  0
  8 12  1  0  0  0  0
  9  6  1  0  0  0  0
 10 14  1  0  0  0  0
 12  4  1  0  0  0  0
 13 19  1  0  0  0  0
 13 15  1  0  0  0  0
 14  3  1  6  0  0  0
 14 18  1  0  0  0  0
 15 10  1  0  0  0  0
 17  6  2  0  0  0  0
 18  5  1  0  0  0  0
 18  8  1  1  0  0  0
 19  1  1  0  0  0  0
 20 11  1  0  0  0  0
 21 22  1  6  0  0  0
 23 21  1  0  0  0  0
 24 28  1  0  0  0  0
 24 26  1  0  0  0  0
 26 23  1  0  0  0  0
 26 25  2  0  0  0  0
 27 24  1  0  0  0  0
M  END
>  <MODEL>
7

>  <REMARK>
 VINA RESULT:      -6.5      3.445      7.773
  Name = 
  3 active torsions:
  status: ('A' for Active; 'I' for Inactive)
    1  A    between atoms: C_1  and  C_2
    2  A    between atoms: C_2  and  C_3
    3  A    between atoms: C_3  and  C_11
                            x       y       z     vdW  Elec       q    Type
                         _______ _______ _______ _____ _____    ______ ____

>  <TORSDO>
F 3

$$$$
=
 OpenBabel10272401543D

 28 30  0  0  1  0  0  0  0  0999 V2000
  191.1850  177.2880  141.1180 C   0  0  1  0  0  3  0  0  0  0  0  0
  187.2200  177.4190  137.8620 C   0  0  0  0  0  2  0  0  0  0  0  0
  192.5390  175.3490  135.7890 C   0  0  0  0  0  1  0  0  0  0  0  0
  187.5990  175.3380  136.6220 C   0  0  1  0  0  3  0  0  0  0  0  0
  189.3970  176.0560  138.1070 C   0  0  2  0  0  3  0  0  0  0  0  0
  185.8560  176.9440  135.8060 C   0  0  0  0  0  0  0  0  0  0  0  0
  188.2990  176.5730  137.1970 C   0  0  2  0  0  3  0  0  0  0  0  0
  189.7440  174.6080  136.0610 C   0  0  0  0  0  2  0  0  0  0  0  0
  186.6990  175.7350  135.4560 C   0  0  0  0  0  2  0  0  0  0  0  0
  192.4590  176.8960  137.7190 C   0  0  0  0  0  2  0  0  0  0  0  0
  189.9060  177.0550  139.1410 C   0  0  0  0  0  2  0  0  0  0  0  0
  188.4230  174.2090  136.3600 O   0  0  0  0  0  0  0  0  0  0  0  0
  193.4840  176.7500  140.0200 C   0  0  0  0  0  2  0  0  0  0  0  0
  191.6100  176.1640  136.6820 C   0  0  2  0  0  3  0  0  0  0  0  0
  192.9790  175.9650  138.8100 C   0  0  0  0  0  2  0  0  0  0  0  0
  184.8060  177.2880  134.9660 O   0  0  0  0  0  1  0  0  0  0  0  0
  186.1240  177.7260  136.8680 C   0  0  0  0  0  3  0  0  0  0  0  0
  190.4580  175.2960  137.2560 C   0  0  1  0  0  3  0  0  0  0  0  0
  192.4950  177.8150  140.5020 C   0  0  0  0  0  2  0  0  0  0  0  0
  190.4820  176.3330  140.2660 N   0  0  0  0  0  2  0  0  0  0  0  0
  191.2900  176.8120  142.5790 C   0  0  2  0  0  3  0  0  0  0  0  0
  190.5170  175.6740  142.8220 O   0  0  0  0  0  1  0  0  0  0  0  0
  191.1100  177.8720  143.6730 C   0  0  0  0  0  2  0  0  0  0  0  0
  189.6990  177.2930  145.7250 N   0  0  0  0  0  0  0  0  0  0  0  0
  191.9820  176.8120  145.6090 O   0  0  0  0  0  0  0  0  0  0  0  0
  190.9660  177.3050  145.0510 C   0  0  0  0  0  0  0  0  0  0  0  0
  188.1910  177.6080  144.8580 S   0  0  0  0  0  1  0  0  0  0  0  0
  189.6160  176.9160  147.1260 C   0  0  0  0  0  1  0  0  0  0  0  0
  1 21  1  1  0  0  0
  4  9  1  6  0  0  0
  4  7  1  0  0  0  0
  5 11  1  6  0  0  0
  6 17  2  0  0  0  0
  7  2  1  1  0  0  0
  7  5  1  0  0  0  0
  8 12  1  0  0  0  0
  9  6  1  0  0  0  0
 10 15  1  0  0  0  0
 11 20  1  0  0  0  0
 12  4  1  0  0  0  0
 13 19  1  0  0  0  0
 14  3  1  1  0  0  0
 14 18  1  0  0  0  0
 14 10  1  0  0  0  0
 15 13  1  0  0  0  0
 16  6  1  0  0  0  0
 17  2  1  0  0  0  0
 18  8  1  6  0  0  0
 18  5  1  0  0  0  0
 19  1  1  0  0  0  0
 20  1  1  0  0  0  0
 21 22  1  1  0  0  0
 21 23  1  0  0  0  0
 23 26  1  0  0  0  0
 24 28  1  0  0  0  0
 26 25  2  0  0  0  0
 26 24  1  0  0  0  0
 27 24  1  0  0  0  0
M  END
>  <MODEL>
8

>  <REMARK>
 VINA RESULT:      -6.2      2.695      3.398
  Name = 
  3 active torsions:
  status: ('A' for Active; 'I' for Inactive)
    1  A    between atoms: C_1  and  C_2
    2  A    between atoms: C_2  and  C_3
    3  A    between atoms: C_3  and  C_11
                            x       y       z     vdW  Elec       q    Type
                         _______ _______ _______ _____ _____    ______ ____

>  <TORSDO>
F 3

$$$$
=
 OpenBabel10272401543D

 28 30  0  0  1  0  0  0  0  0999 V2000
  183.1370  178.3910  140.7330 C   0  0  1  0  0  3  0  0  0  0  0  0
  188.1980  178.2560  141.5830 C   0  0  0  0  0  2  0  0  0  0  0  0
  184.5240  178.9670  146.3660 C   0  0  0  0  0  1  0  0  0  0  0  0
  188.2590  176.9850  143.6790 C   0  0  1  0  0  3  0  0  0  0  0  0
  186.0580  177.7230  142.9250 C   0  0  2  0  0  3  0  0  0  0  0  0
  190.3590  178.0740  142.8500 C   0  0  0  0  0  0  0  0  0  0  0  0
  187.5260  178.1110  142.9430 C   0  0  2  0  0  3  0  0  0  0  0  0
  186.6470  177.2700  145.3440 C   0  0  0  0  0  2  0  0  0  0  0  0
  189.6760  177.4220  144.0350 C   0  0  0  0  0  2  0  0  0  0  0  0
  183.7830  179.6390  144.1020 C   0  0  0  0  0  2  0  0  0  0  0  0
  185.2180  178.4210  141.8610 C   0  0  0  0  0  2  0  0  0  0  0  0
  187.5550  176.3670  144.7490 O   0  0  0  0  0  0  0  0  0  0  0  0
  181.7010  179.0790  142.7920 C   0  0  0  0  0  2  0  0  0  0  0  0
  184.9470  179.0600  144.9040 C   0  0  2  0  0  3  0  0  0  0  0  0
  182.6570  178.6300  143.8960 C   0  0  0  0  0  2  0  0  0  0  0  0
  191.7260  178.3020  142.9130 O   0  0  0  0  0  1  0  0  0  0  0  0
  189.6790  178.4890  141.7660 C   0  0  0  0  0  3  0  0  0  0  0  0
  185.5100  177.7100  144.3830 C   0  0  1  0  0  3  0  0  0  0  0  0
  182.4200  179.5100  141.5110 C   0  0  0  0  0  2  0  0  0  0  0  0
  184.0530  177.6030  141.5530 N   0  0  0  0  0  2  0  0  0  0  0  0
  182.2270  177.5120  139.8530 C   0  0  2  0  0  3  0  0  0  0  0  0
  182.5450  176.1560  139.9520 O   0  0  0  0  0  1  0  0  0  0  0  0
  182.0300  177.9510  138.3970 C   0  0  0  0  0  2  0  0  0  0  0  0
  183.6350  176.7000  136.8490 N   0  0  0  0  0  0  0  0  0  0  0  0
  181.3840  176.1080  137.0480 O   0  0  0  0  0  0  0  0  0  0  0  0
  182.3190  176.8770  137.3950 C   0  0  0  0  0  0  0  0  0  0  0  0
  185.0460  177.4820  137.5730 S   0  0  0  0  0  1  0  0  0  0  0  0
  183.8540  175.7840  135.7420 C   0  0  0  0  0  1  0  0  0  0  0  0
  1 21  1  1  0  0  0
  1 19  1  0  0  0  0
  1 20  1  0  0  0  0
  2 17  1  0  0  0  0
  4  9  1  1  0  0  0
  4 12  1  0  0  0  0
  5 11  1  6  0  0  0
  5  7  1  0  0  0  0
  5 18  1  0  0  0  0
  6 16  1  0  0  0  0
  6  9  1  0  0  0  0
  7  2  1  6  0  0  0
  7  4  1  0  0  0  0
 10 14  1  0  0  0  0
 12  8  1  0  0  0  0
 13 15  1  0  0  0  0
 14  3  1  1  0  0  0
 15 10  1  0  0  0  0
 17  6  2  0  0  0  0
 18 14  1  0  0  0  0
 18  8  1  1  0  0  0
 19 13  1  0  0  0  0
 20 11  1  0  0  0  0
 21 22  1  6  0  0  0
 23 21  1  0  0  0  0
 24 26  1  0  0  0  0
 24 27  1  0  0  0  0
 25 26  2  0  0  0  0
 26 23  1  0  0  0  0
 28 24  1  0  0  0  0
M  END
>  <MODEL>
9

>  <REMARK>
 VINA RESULT:      -6.2      3.873      7.822
  Name = 
  3 active torsions:
  status: ('A' for Active; 'I' for Inactive)
    1  A    between atoms: C_1  and  C_2
    2  A    between atoms: C_2  and  C_3
    3  A    between atoms: C_3  and  C_11
                            x       y       z     vdW  Elec       q    Type
                         _______ _______ _______ _____ _____    ______ ____

>  <TORSDO>
F 3

$$$$
