=
 OpenBabel10272400453D

 25 28  0  0  1  0  0  0  0  0999 V2000
  187.3420  178.0620  145.5270 N   0  0  0  0  0  0  0  0  0  0  0  0
  188.7140  177.7440  145.2910 C   0  0  0  0  0  0  0  0  0  0  0  0
  187.5440  177.6900  147.8910 C   0  0  0  0  0  3  0  0  0  0  0  0
  186.3810  178.7780  144.7090 C   0  0  2  0  0  3  0  0  0  0  0  0
  183.6030  178.7600  143.9400 C   0  0  0  0  0  3  0  0  0  0  0  0
  188.9500  177.2560  147.6730 C   0  0  0  0  0  3  0  0  0  0  0  0
  185.2420  178.9700  145.6790 C   0  0  0  0  0  0  0  0  0  0  0  0
  183.8840  179.1910  145.1780 C   0  0  0  0  0  3  0  0  0  0  0  0
  190.9190  176.8890  146.2310 C   0  0  0  0  0  0  0  0  0  0  0  0
  191.7020  176.4260  147.2820 O   0  0  0  0  0  1  0  0  0  0  0  0
  189.2700  177.8210  144.0800 C   0  0  0  0  0  3  0  0  0  0  0  0
  184.6230  178.0390  143.1330 C   0  0  0  0  0  3  0  0  0  0  0  0
  186.8170  178.0780  146.8400 C   0  0  0  0  0  0  0  0  0  0  0  0
  185.4940  178.5860  146.8930 N   0  0  0  0  0  0  0  0  0  0  0  0
  191.4410  176.9800  145.0040 C   0  0  0  0  0  3  0  0  0  0  0  0
  185.9090  177.9890  143.5160 C   0  0  0  0  0  3  0  0  0  0  0  0
  190.6500  177.4590  143.9020 N   0  0  0  0  0  0  0  0  0  0  0  0
  189.5140  177.2840  146.4500 C   0  0  0  0  0  0  0  0  0  0  0  0
  191.2360  177.5150  142.5750 C   0  0  0  0  0  2  0  0  0  0  0  0
  190.3700  176.7420  141.5930 C   0  0  0  0  0  2  0  0  0  0  0  0
  190.0700  177.5900  140.3680 C   0  0  2  0  0  3  0  0  0  0  0  0
  188.3670  178.2190  140.4600 S   0  0  0  0  0  1  0  0  0  0  0  0
  190.2730  176.8170  139.0980 C   0  0  0  0  0  0  0  0  0  0  0  0
  190.7650  175.7020  139.1480 O   0  0  0  0  0  0  0  0  0  0  0  0
  189.8890  177.3920  137.7730 C   0  0  0  0  0  1  0  0  0  0  0  0
  1 13  1  0  0  0  0
  2  1  1  0  0  0  0
  2 18  1  0  0  0  0
  4 16  1  6  0  0  0
  4  1  1  0  0  0  0
  4  7  1  0  0  0  0
  5  8  2  0  0  0  0
  6  3  1  0  0  0  0
  7 14  2  0  0  0  0
  8  7  1  0  0  0  0
  9 18  1  0  0  0  0
  9 10  1  0  0  0  0
 11  2  2  0  0  0  0
 12 16  2  0  0  0  0
 12  5  1  0  0  0  0
 13 14  1  0  0  0  0
 13  3  2  0  0  0  0
 15  9  2  0  0  0  0
 17 11  1  0  0  0  0
 17 15  1  0  0  0  0
 18  6  2  0  0  0  0
 19 17  1  0  0  0  0
 20 19  1  0  0  0  0
 21 22  1  1  0  0  0
 21 20  1  0  0  0  0
 23 24  2  0  0  0  0
 23 21  1  0  0  0  0
 25 23  1  0  0  0  0
M  END
>  <MODEL>
1

>  <REMARK>
 VINA RESULT:      -9.3      0.000      0.000
  Name = 
  4 active torsions:
  status: ('A' for Active; 'I' for Inactive)
    1  A    between atoms: C_2  and  C_21
    2  A    between atoms: C_6  and  C_15
    3  A    between atoms: C_6  and  N_23
    4  A    between atoms: C_15  and  C_21
                            x       y       z     vdW  Elec       q    Type
                         _______ _______ _______ _____ _____    ______ ____

>  <TORSDO>
F 4

$$$$
=
 OpenBabel10272400453D

 25 28  0  0  1  0  0  0  0  0999 V2000
  187.2730  178.0930  145.5830 N   0  0  0  0  0  0  0  0  0  0  0  0
  188.6490  177.7620  145.3910 C   0  0  0  0  0  0  0  0  0  0  0  0
  187.4130  177.7840  147.9610 C   0  0  0  0  0  3  0  0  0  0  0  0
  186.3370  178.7910  144.7220 C   0  0  2  0  0  3  0  0  0  0  0  0
  183.5800  178.7670  143.8830 C   0  0  0  0  0  3  0  0  0  0  0  0
  188.8210  177.3370  147.7910 C   0  0  0  0  0  3  0  0  0  0  0  0
  185.1750  179.0150  145.6570 C   0  0  0  0  0  0  0  0  0  0  0  0
  183.8310  179.2290  145.1150 C   0  0  0  0  0  3  0  0  0  0  0  0
  190.8240  176.9210  146.4100 C   0  0  0  0  0  0  0  0  0  0  0  0
  191.5780  176.4830  147.4930 O   0  0  0  0  0  1  0  0  0  0  0  0
  189.2360  177.8030  144.1930 C   0  0  0  0  0  3  0  0  0  0  0  0
  184.6170  178.0190  143.1220 C   0  0  0  0  0  3  0  0  0  0  0  0
  186.7150  178.1470  146.8810 C   0  0  0  0  0  0  0  0  0  0  0  0
  185.3940  178.6620  146.8870 N   0  0  0  0  0  0  0  0  0  0  0  0
  191.3780  176.9770  145.1950 C   0  0  0  0  0  3  0  0  0  0  0  0
  185.8920  177.9730  143.5390 C   0  0  0  0  0  3  0  0  0  0  0  0
  190.6180  177.4300  144.0610 N   0  0  0  0  0  0  0  0  0  0  0  0
  189.4160  177.3300  146.5830 C   0  0  0  0  0  0  0  0  0  0  0  0
  191.2380  177.4480  142.7490 C   0  0  0  0  0  2  0  0  0  0  0  0
  190.1700  177.5600  141.6720 C   0  0  0  0  0  2  0  0  0  0  0  0
  190.6940  177.0300  140.3470 C   0  0  2  0  0  3  0  0  0  0  0  0
  192.4710  177.3840  140.2060 S   0  0  0  0  0  1  0  0  0  0  0  0
  189.9500  177.6190  139.1840 C   0  0  0  0  0  0  0  0  0  0  0  0
  189.1040  178.4740  139.3850 O   0  0  0  0  0  0  0  0  0  0  0  0
  190.2240  177.1710  137.7850 C   0  0  0  0  0  1  0  0  0  0  0  0
  1 13  1  0  0  0  0
  2  1  1  0  0  0  0
  2 18  1  0  0  0  0
  4 16  1  6  0  0  0
  4  1  1  0  0  0  0
  4  7  1  0  0  0  0
  5  8  2  0  0  0  0
  6  3  1  0  0  0  0
  7 14  2  0  0  0  0
  8  7  1  0  0  0  0
  9 18  1  0  0  0  0
  9 10  1  0  0  0  0
 11  2  2  0  0  0  0
 12 16  2  0  0  0  0
 12  5  1  0  0  0  0
 13 14  1  0  0  0  0
 13  3  2  0  0  0  0
 15  9  2  0  0  0  0
 17 11  1  0  0  0  0
 17 15  1  0  0  0  0
 18  6  2  0  0  0  0
 19 17  1  0  0  0  0
 20 19  1  0  0  0  0
 21 22  1  6  0  0  0
 21 20  1  0  0  0  0
 23 24  2  0  0  0  0
 23 21  1  0  0  0  0
 25 23  1  0  0  0  0
M  END
>  <MODEL>
2

>  <REMARK>
 VINA RESULT:      -9.0      1.111      1.111
  Name = 
  4 active torsions:
  status: ('A' for Active; 'I' for Inactive)
    1  A    between atoms: C_2  and  C_21
    2  A    between atoms: C_6  and  C_15
    3  A    between atoms: C_6  and  N_23
    4  A    between atoms: C_15  and  C_21
                            x       y       z     vdW  Elec       q    Type
                         _______ _______ _______ _____ _____    ______ ____

>  <TORSDO>
F 4

$$$$
=
 OpenBabel10272400453D

 25 28  0  0  1  0  0  0  0  0999 V2000
  187.7740  177.7660  145.4220 N   0  0  0  0  0  0  0  0  0  0  0  0
  186.8780  178.1340  144.3730 C   0  0  0  0  0  0  0  0  0  0  0  0
  186.1580  178.2620  147.1290 C   0  0  0  0  0  3  0  0  0  0  0  0
  188.9860  176.9690  145.3980 C   0  0  2  0  0  3  0  0  0  0  0  0
  191.6240  176.8230  146.5480 C   0  0  0  0  0  3  0  0  0  0  0  0
  185.2330  178.7480  146.0710 C   0  0  0  0  0  3  0  0  0  0  0  0
  189.2480  176.7720  146.8700 C   0  0  0  0  0  0  0  0  0  0  0  0
  190.6020  176.4660  147.3370 C   0  0  0  0  0  3  0  0  0  0  0  0
  184.6330  179.1340  143.7080 C   0  0  0  0  0  0  0  0  0  0  0  0
  183.3970  179.6820  144.0280 O   0  0  0  0  0  1  0  0  0  0  0  0
  187.2010  178.0240  143.0820 C   0  0  0  0  0  3  0  0  0  0  0  0
  191.3860  177.5490  145.2720 C   0  0  0  0  0  3  0  0  0  0  0  0
  187.3560  177.7900  146.7730 C   0  0  0  0  0  0  0  0  0  0  0  0
  188.3160  177.2260  147.6520 N   0  0  0  0  0  0  0  0  0  0  0  0
  184.9920  179.0060  142.4270 C   0  0  0  0  0  3  0  0  0  0  0  0
  190.1510  177.6760  144.7600 C   0  0  0  0  0  3  0  0  0  0  0  0
  186.2660  178.4390  142.0730 N   0  0  0  0  0  0  0  0  0  0  0  0
  185.5600  178.6850  144.7660 C   0  0  0  0  0  0  0  0  0  0  0  0
  186.6400  178.3440  140.6730 C   0  0  0  0  0  2  0  0  0  0  0  0
  188.1180  178.6600  140.5090 C   0  0  0  0  0  2  0  0  0  0  0  0
  188.7910  177.6130  139.6370 C   0  0  2  0  0  3  0  0  0  0  0  0
  190.2130  176.9030  140.5180 S   0  0  0  0  0  1  0  0  0  0  0  0
  189.2250  178.1870  138.3200 C   0  0  0  0  0  0  0  0  0  0  0  0
  188.9570  179.3470  138.0550 O   0  0  0  0  0  0  0  0  0  0  0  0
  189.9740  177.3600  137.3260 C   0  0  0  0  0  1  0  0  0  0  0  0
  1 13  1  0  0  0  0
  2 18  1  0  0  0  0
  2  1  1  0  0  0  0
  4 16  1  1  0  0  0
  4  1  1  0  0  0  0
  4  7  1  0  0  0  0
  5  8  2  0  0  0  0
  6  3  1  0  0  0  0
  7  8  1  0  0  0  0
  7 14  2  0  0  0  0
  9 10  1  0  0  0  0
  9 18  1  0  0  0  0
 11  2  2  0  0  0  0
 12  5  1  0  0  0  0
 13  3  2  0  0  0  0
 13 14  1  0  0  0  0
 15  9  2  0  0  0  0
 16 12  2  0  0  0  0
 17 15  1  0  0  0  0
 17 11  1  0  0  0  0
 18  6  2  0  0  0  0
 19 17  1  0  0  0  0
 20 19  1  0  0  0  0
 21 20  1  0  0  0  0
 21 22  1  1  0  0  0
 23 21  1  0  0  0  0
 24 23  2  0  0  0  0
 25 23  1  0  0  0  0
M  END
>  <MODEL>
3

>  <REMARK>
 VINA RESULT:      -8.8      2.567      4.812
  Name = 
  4 active torsions:
  status: ('A' for Active; 'I' for Inactive)
    1  A    between atoms: C_2  and  C_21
    2  A    between atoms: C_6  and  C_15
    3  A    between atoms: C_6  and  N_23
    4  A    between atoms: C_15  and  C_21
                            x       y       z     vdW  Elec       q    Type
                         _______ _______ _______ _____ _____    ______ ____

>  <TORSDO>
F 4

$$$$
=
 OpenBabel10272400453D

 25 28  0  0  1  0  0  0  0  0999 V2000
  187.3090  178.1660  142.8070 N   0  0  0  0  0  0  0  0  0  0  0  0
  187.1200  178.1570  144.2230 C   0  0  0  0  0  0  0  0  0  0  0  0
  185.0070  178.7100  142.3900 C   0  0  0  0  0  3  0  0  0  0  0  0
  188.5180  178.2720  142.0130 C   0  0  2  0  0  3  0  0  0  0  0  0
  189.7460  177.2610  139.6100 C   0  0  0  0  0  3  0  0  0  0  0  0
  184.7480  178.6120  143.8510 C   0  0  0  0  0  3  0  0  0  0  0  0
  187.9540  178.4860  140.6310 C   0  0  0  0  0  0  0  0  0  0  0  0
  188.7590  178.1540  139.4530 C   0  0  0  0  0  3  0  0  0  0  0  0
  185.4990  178.2930  146.1810 C   0  0  0  0  0  0  0  0  0  0  0  0
  184.2190  178.4490  146.6990 O   0  0  0  0  0  1  0  0  0  0  0  0
  188.1230  177.9480  145.0790 C   0  0  0  0  0  3  0  0  0  0  0  0
  189.9740  176.5980  140.9220 C   0  0  0  0  0  3  0  0  0  0  0  0
  186.2460  178.5020  141.9370 C   0  0  0  0  0  0  0  0  0  0  0  0
  186.6650  178.6310  140.5880 N   0  0  0  0  0  0  0  0  0  0  0  0
  186.5290  178.0830  147.0060 C   0  0  0  0  0  3  0  0  0  0  0  0
  189.3570  177.0220  142.0360 C   0  0  0  0  0  3  0  0  0  0  0  0
  187.8630  177.9220  146.4920 N   0  0  0  0  0  0  0  0  0  0  0  0
  185.7410  178.3580  144.7260 C   0  0  0  0  0  0  0  0  0  0  0  0
  188.9550  177.6630  147.4130 C   0  0  0  0  0  2  0  0  0  0  0  0
  189.7880  176.4940  146.9120 C   0  0  0  0  0  2  0  0  0  0  0  0
  191.2350  176.9170  146.7180 C   0  0  2  0  0  3  0  0  0  0  0  0
  191.4970  177.4340  144.9960 S   0  0  0  0  0  1  0  0  0  0  0  0
  192.1870  175.8160  147.0840 C   0  0  0  0  0  0  0  0  0  0  0  0
  192.4320  174.9420  146.2700 O   0  0  0  0  0  0  0  0  0  0  0  0
  192.8330  175.7690  148.4300 C   0  0  0  0  0  1  0  0  0  0  0  0
  1  2  1  0  0  0  0
  2 18  1  0  0  0  0
  2 11  2  0  0  0  0
  3  6  1  0  0  0  0
  4 16  1  6  0  0  0
  4  1  1  0  0  0  0
  5 12  1  0  0  0  0
  6 18  2  0  0  0  0
  7  4  1  0  0  0  0
  8  5  2  0  0  0  0
  8  7  1  0  0  0  0
  9 10  1  0  0  0  0
  9 15  2  0  0  0  0
 11 17  1  0  0  0  0
 12 16  2  0  0  0  0
 13  3  2  0  0  0  0
 13  1  1  0  0  0  0
 14  7  2  0  0  0  0
 14 13  1  0  0  0  0
 17 15  1  0  0  0  0
 17 19  1  0  0  0  0
 18  9  1  0  0  0  0
 20 19  1  0  0  0  0
 21 22  1  6  0  0  0
 21 20  1  0  0  0  0
 21 23  1  0  0  0  0
 23 25  1  0  0  0  0
 24 23  2  0  0  0  0
M  END
>  <MODEL>
4

>  <REMARK>
 VINA RESULT:      -8.5      2.589      5.984
  Name = 
  4 active torsions:
  status: ('A' for Active; 'I' for Inactive)
    1  A    between atoms: C_2  and  C_21
    2  A    between atoms: C_6  and  C_15
    3  A    between atoms: C_6  and  N_23
    4  A    between atoms: C_15  and  C_21
                            x       y       z     vdW  Elec       q    Type
                         _______ _______ _______ _____ _____    ______ ____

>  <TORSDO>
F 4

$$$$
=
 OpenBabel10272400453D

 25 28  0  0  1  0  0  0  0  0999 V2000
  189.4320  177.3460  144.5940 N   0  0  0  0  0  0  0  0  0  0  0  0
  189.1930  177.4310  143.1880 C   0  0  0  0  0  0  0  0  0  0  0  0
  191.5390  176.2350  144.2830 C   0  0  0  0  0  3  0  0  0  0  0  0
  188.8430  178.0750  145.7010 C   0  0  2  0  0  3  0  0  0  0  0  0
  187.9330  177.7280  148.4140 C   0  0  0  0  0  3  0  0  0  0  0  0
  191.2800  176.2150  142.8190 C   0  0  0  0  0  3  0  0  0  0  0  0
  189.7440  177.6730  146.8420 C   0  0  0  0  0  0  0  0  0  0  0  0
  189.2590  177.7560  148.2210 C   0  0  0  0  0  3  0  0  0  0  0  0
  189.9320  176.7980  140.8360 C   0  0  0  0  0  0  0  0  0  0  0  0
  190.8130  176.1820  139.9560 O   0  0  0  0  0  1  0  0  0  0  0  0
  188.1190  178.0370  142.6790 C   0  0  0  0  0  3  0  0  0  0  0  0
  186.9990  177.5660  147.2670 C   0  0  0  0  0  3  0  0  0  0  0  0
  190.6360  176.7960  145.0920 C   0  0  0  0  0  0  0  0  0  0  0  0
  190.7710  176.9580  146.4940 N   0  0  0  0  0  0  0  0  0  0  0  0
  188.8450  177.4160  140.3630 C   0  0  0  0  0  3  0  0  0  0  0  0
  187.4260  177.6630  145.9980 C   0  0  0  0  0  3  0  0  0  0  0  0
  187.9200  178.0640  141.2550 N   0  0  0  0  0  0  0  0  0  0  0  0
  190.1790  176.7830  142.2910 C   0  0  0  0  0  0  0  0  0  0  0  0
  186.7320  178.6980  140.7130 C   0  0  0  0  0  2  0  0  0  0  0  0
  185.8320  179.1660  141.8460 C   0  0  0  0  0  2  0  0  0  0  0  0
  184.5130  178.4100  141.8240 C   0  0  2  0  0  3  0  0  0  0  0  0
  183.6160  178.7890  140.2890 S   0  0  0  0  0  1  0  0  0  0  0  0
  183.6680  178.7400  143.0190 C   0  0  0  0  0  0  0  0  0  0  0  0
  182.4590  178.8340  142.8900 O   0  0  0  0  0  0  0  0  0  0  0  0
  184.2830  178.9630  144.3620 C   0  0  0  0  0  1  0  0  0  0  0  0
  1 13  1  0  0  0  0
  1  4  1  0  0  0  0
  2  1  1  0  0  0  0
  3 13  2  0  0  0  0
  4 16  1  1  0  0  0
  4  7  1  0  0  0  0
  6  3  1  0  0  0  0
  7  8  1  0  0  0  0
  8  5  2  0  0  0  0
  9 18  1  0  0  0  0
 10  9  1  0  0  0  0
 11  2  2  0  0  0  0
 12  5  1  0  0  0  0
 13 14  1  0  0  0  0
 14  7  2  0  0  0  0
 15  9  2  0  0  0  0
 15 17  1  0  0  0  0
 16 12  2  0  0  0  0
 17 11  1  0  0  0  0
 18  6  2  0  0  0  0
 18  2  1  0  0  0  0
 19 17  1  0  0  0  0
 19 20  1  0  0  0  0
 21 22  1  6  0  0  0
 21 20  1  0  0  0  0
 21 23  1  0  0  0  0
 23 25  1  0  0  0  0
 24 23  2  0  0  0  0
M  END
>  <MODEL>
5

>  <REMARK>
 VINA RESULT:      -8.5      2.616      5.493
  Name = 
  4 active torsions:
  status: ('A' for Active; 'I' for Inactive)
    1  A    between atoms: C_2  and  C_21
    2  A    between atoms: C_6  and  C_15
    3  A    between atoms: C_6  and  N_23
    4  A    between atoms: C_15  and  C_21
                            x       y       z     vdW  Elec       q    Type
                         _______ _______ _______ _____ _____    ______ ____

>  <TORSDO>
F 4

$$$$
=
 OpenBabel10272400453D

 25 28  0  0  1  0  0  0  0  0999 V2000
  189.1320  177.3720  143.9070 N   0  0  0  0  0  0  0  0  0  0  0  0
  188.3210  177.6910  145.0380 C   0  0  0  0  0  0  0  0  0  0  0  0
  191.0300  176.8370  145.2780 C   0  0  0  0  0  3  0  0  0  0  0  0
  188.7690  177.0530  142.5390 C   0  0  2  0  0  3  0  0  0  0  0  0
  189.6080  177.4800  139.8150 C   0  0  0  0  0  3  0  0  0  0  0  0
  190.2500  177.2560  146.4720 C   0  0  0  0  0  3  0  0  0  0  0  0
  190.0840  176.5690  141.9820 C   0  0  0  0  0  0  0  0  0  0  0  0
  190.3270  176.6110  140.5380 C   0  0  0  0  0  3  0  0  0  0  0  0
  188.1740  178.0380  147.5550 C   0  0  0  0  0  0  0  0  0  0  0  0
  188.7430  178.0440  148.8230 O   0  0  0  0  0  1  0  0  0  0  0  0
  187.0380  178.0410  144.9240 C   0  0  0  0  0  3  0  0  0  0  0  0
  188.6390  178.4000  140.4690 C   0  0  0  0  0  3  0  0  0  0  0  0
  190.4540  176.8970  144.0750 C   0  0  0  0  0  0  0  0  0  0  0  0
  191.0380  176.4670  142.8560 N   0  0  0  0  0  0  0  0  0  0  0  0
  186.8920  178.3810  147.4010 C   0  0  0  0  0  3  0  0  0  0  0  0
  188.2900  178.2470  141.7570 C   0  0  0  0  0  3  0  0  0  0  0  0
  186.2810  178.3790  146.0980 N   0  0  0  0  0  0  0  0  0  0  0  0
  188.9670  177.6540  146.3710 C   0  0  0  0  0  0  0  0  0  0  0  0
  184.8960  178.7890  145.9600 C   0  0  0  0  0  2  0  0  0  0  0  0
  184.2840  178.1410  144.7270 C   0  0  0  0  0  2  0  0  0  0  0  0
  183.7720  179.2030  143.7670 C   0  0  2  0  0  3  0  0  0  0  0  0
  181.9850  178.9880  143.5120 S   0  0  0  0  0  1  0  0  0  0  0  0
  184.4970  179.1560  142.4550 C   0  0  0  0  0  0  0  0  0  0  0  0
  185.4330  179.9120  142.2600 O   0  0  0  0  0  0  0  0  0  0  0  0
  184.0870  178.2020  141.3790 C   0  0  0  0  0  1  0  0  0  0  0  0
  1 13  1  0  0  0  0
  1  2  1  0  0  0  0
  2 18  1  0  0  0  0
  3  6  1  0  0  0  0
  4 16  1  6  0  0  0
  4  1  1  0  0  0  0
  5 12  1  0  0  0  0
  5  8  2  0  0  0  0
  7  4  1  0  0  0  0
  7 14  2  0  0  0  0
  8  7  1  0  0  0  0
  9 10  1  0  0  0  0
 11  2  2  0  0  0  0
 11 17  1  0  0  0  0
 12 16  2  0  0  0  0
 13  3  2  0  0  0  0
 14 13  1  0  0  0  0
 15  9  2  0  0  0  0
 17 15  1  0  0  0  0
 18  6  2  0  0  0  0
 18  9  1  0  0  0  0
 19 17  1  0  0  0  0
 20 19  1  0  0  0  0
 21 22  1  6  0  0  0
 21 20  1  0  0  0  0
 23 21  1  0  0  0  0
 24 23  2  0  0  0  0
 25 23  1  0  0  0  0
M  END
>  <MODEL>
6

>  <REMARK>
 VINA RESULT:      -8.5      2.464      5.512
  Name = 
  4 active torsions:
  status: ('A' for Active; 'I' for Inactive)
    1  A    between atoms: C_2  and  C_21
    2  A    between atoms: C_6  and  C_15
    3  A    between atoms: C_6  and  N_23
    4  A    between atoms: C_15  and  C_21
                            x       y       z     vdW  Elec       q    Type
                         _______ _______ _______ _____ _____    ______ ____

>  <TORSDO>
F 4

$$$$
=
 OpenBabel10272400453D

 25 28  0  0  1  0  0  0  0  0999 V2000
  187.2180  178.0320  144.8980 N   0  0  0  0  0  0  0  0  0  0  0  0
  188.5590  177.6890  144.5460 C   0  0  0  0  0  0  0  0  0  0  0  0
  187.6180  177.6670  147.2380 C   0  0  0  0  0  3  0  0  0  0  0  0
  186.2020  178.7600  144.1620 C   0  0  2  0  0  3  0  0  0  0  0  0
  183.3680  178.7870  143.6370 C   0  0  0  0  0  3  0  0  0  0  0  0
  188.9920  177.2070  146.9020 C   0  0  0  0  0  3  0  0  0  0  0  0
  185.1550  178.9770  145.2260 C   0  0  0  0  0  0  0  0  0  0  0  0
  183.7620  179.2190  144.8430 C   0  0  0  0  0  3  0  0  0  0  0  0
  190.8220  176.8000  145.2980 C   0  0  0  0  0  0  0  0  0  0  0  0
  191.6860  176.3280  146.2790 O   0  0  0  0  0  1  0  0  0  0  0  0
  189.0090  177.7510  143.2910 C   0  0  0  0  0  3  0  0  0  0  0  0
  184.3020  178.0450  142.7490 C   0  0  0  0  0  3  0  0  0  0  0  0
  186.8090  178.0630  146.2510 C   0  0  0  0  0  0  0  0  0  0  0  0
  185.5040  178.5940  146.4160 N   0  0  0  0  0  0  0  0  0  0  0  0
  191.2370  176.8770  144.0300 C   0  0  0  0  0  3  0  0  0  0  0  0
  185.6160  177.9740  143.0190 C   0  0  0  0  0  3  0  0  0  0  0  0
  190.3620  177.3640  142.9970 N   0  0  0  0  0  0  0  0  0  0  0  0
  189.4480  177.2210  145.6350 C   0  0  0  0  0  0  0  0  0  0  0  0
  190.8320  177.4040  141.6240 C   0  0  0  0  0  2  0  0  0  0  0  0
  189.6760  177.7240  140.6900 C   0  0  0  0  0  2  0  0  0  0  0  0
  189.7010  176.8050  139.4790 C   0  0  2  0  0  3  0  0  0  0  0  0
  191.4170  176.5520  138.9380 S   0  0  0  0  0  1  0  0  0  0  0  0
  188.8730  177.3510  138.3540 C   0  0  0  0  0  0  0  0  0  0  0  0
  188.1110  176.6100  137.7560 O   0  0  0  0  0  0  0  0  0  0  0  0
  188.9710  178.7860  137.9480 C   0  0  0  0  0  1  0  0  0  0  0  0
  1 13  1  0  0  0  0
  2  1  1  0  0  0  0
  2 18  1  0  0  0  0
  4 16  1  6  0  0  0
  4  1  1  0  0  0  0
  4  7  1  0  0  0  0
  5  8  2  0  0  0  0
  6  3  1  0  0  0  0
  7 14  2  0  0  0  0
  8  7  1  0  0  0  0
  9 18  1  0  0  0  0
  9 10  1  0  0  0  0
 11  2  2  0  0  0  0
 12 16  2  0  0  0  0
 12  5  1  0  0  0  0
 13 14  1  0  0  0  0
 13  3  2  0  0  0  0
 15  9  2  0  0  0  0
 17 11  1  0  0  0  0
 17 15  1  0  0  0  0
 18  6  2  0  0  0  0
 19 17  1  0  0  0  0
 20 19  1  0  0  0  0
 21 22  1  6  0  0  0
 21 20  1  0  0  0  0
 23 21  1  0  0  0  0
 24 23  2  0  0  0  0
 25 23  1  0  0  0  0
M  END
>  <MODEL>
7

>  <REMARK>
 VINA RESULT:      -8.4      1.241      1.325
  Name = 
  4 active torsions:
  status: ('A' for Active; 'I' for Inactive)
    1  A    between atoms: C_2  and  C_21
    2  A    between atoms: C_6  and  C_15
    3  A    between atoms: C_6  and  N_23
    4  A    between atoms: C_15  and  C_21
                            x       y       z     vdW  Elec       q    Type
                         _______ _______ _______ _____ _____    ______ ____

>  <TORSDO>
F 4

$$$$
=
 OpenBabel10272400453D

 25 28  0  0  1  0  0  0  0  0999 V2000
  187.8290  177.5670  143.2490 N   0  0  0  0  0  0  0  0  0  0  0  0
  186.4880  177.9310  143.5810 C   0  0  0  0  0  0  0  0  0  0  0  0
  188.4810  177.4200  145.5560 C   0  0  0  0  0  3  0  0  0  0  0  0
  188.3910  177.0430  142.0180 C   0  0  2  0  0  3  0  0  0  0  0  0
  190.7280  177.2210  140.3400 C   0  0  0  0  0  3  0  0  0  0  0  0
  187.1240  177.8940  145.9400 C   0  0  0  0  0  3  0  0  0  0  0  0
  189.7750  176.6440  142.4650 C   0  0  0  0  0  0  0  0  0  0  0  0
  190.8570  176.5340  141.4840 C   0  0  0  0  0  3  0  0  0  0  0  0
  184.8150  178.5680  145.3900 C   0  0  0  0  0  0  0  0  0  0  0  0
  184.4790  178.7940  146.7190 O   0  0  0  0  0  1  0  0  0  0  0  0
  185.5450  178.1190  142.6550 C   0  0  0  0  0  3  0  0  0  0  0  0
  189.5520  178.1010  140.1080 C   0  0  0  0  0  3  0  0  0  0  0  0
  188.7700  177.2670  144.2610 C   0  0  0  0  0  0  0  0  0  0  0  0
  189.9870  176.7570  143.7410 N   0  0  0  0  0  0  0  0  0  0  0  0
  183.8970  178.7440  144.4340 C   0  0  0  0  0  3  0  0  0  0  0  0
  188.4840  178.0710  140.9210 C   0  0  0  0  0  3  0  0  0  0  0  0
  184.2210  178.5130  143.0510 N   0  0  0  0  0  0  0  0  0  0  0  0
  186.1740  178.1310  145.0150 C   0  0  0  0  0  0  0  0  0  0  0  0
  183.2130  178.7460  142.0340 C   0  0  0  0  0  2  0  0  0  0  0  0
  183.3790  177.7460  140.9010 C   0  0  0  0  0  2  0  0  0  0  0  0
  183.0900  178.4070  139.5620 C   0  0  2  0  0  3  0  0  0  0  0  0
  182.4680  177.1670  138.3880 S   0  0  0  0  0  1  0  0  0  0  0  0
  184.3080  179.0860  139.0090 C   0  0  0  0  0  0  0  0  0  0  0  0
  184.4640  180.2810  139.1930 O   0  0  0  0  0  0  0  0  0  0  0  0
  185.3300  178.3240  138.2290 C   0  0  0  0  0  1  0  0  0  0  0  0
  1  2  1  0  0  0  0
  1 13  1  0  0  0  0
  2 18  1  0  0  0  0
  3  6  1  0  0  0  0
  4 16  1  6  0  0  0
  4  7  1  0  0  0  0
  4  1  1  0  0  0  0
  5  8  2  0  0  0  0
  7 14  2  0  0  0  0
  8  7  1  0  0  0  0
  9 10  1  0  0  0  0
 11 17  1  0  0  0  0
 11  2  2  0  0  0  0
 12  5  1  0  0  0  0
 12 16  2  0  0  0  0
 13  3  2  0  0  0  0
 14 13  1  0  0  0  0
 15  9  2  0  0  0  0
 17 15  1  0  0  0  0
 18  9  1  0  0  0  0
 18  6  2  0  0  0  0
 19 17  1  0  0  0  0
 20 19  1  0  0  0  0
 21 22  1  6  0  0  0
 21 20  1  0  0  0  0
 23 24  2  0  0  0  0
 23 21  1  0  0  0  0
 25 23  1  0  0  0  0
M  END
>  <MODEL>
8

>  <REMARK>
 VINA RESULT:      -8.4      3.234      5.887
  Name = 
  4 active torsions:
  status: ('A' for Active; 'I' for Inactive)
    1  A    between atoms: C_2  and  C_21
    2  A    between atoms: C_6  and  C_15
    3  A    between atoms: C_6  and  N_23
    4  A    between atoms: C_15  and  C_21
                            x       y       z     vdW  Elec       q    Type
                         _______ _______ _______ _____ _____    ______ ____

>  <TORSDO>
F 4

$$$$
=
 OpenBabel10272400453D

 25 28  0  0  1  0  0  0  0  0999 V2000
  186.9500  178.0180  144.0530 N   0  0  0  0  0  0  0  0  0  0  0  0
  188.2460  177.6980  143.5430 C   0  0  0  0  0  0  0  0  0  0  0  0
  187.6050  177.5620  146.3180 C   0  0  0  0  0  3  0  0  0  0  0  0
  185.8580  178.7680  143.4620 C   0  0  2  0  0  3  0  0  0  0  0  0
  182.9840  178.7960  143.2510 C   0  0  0  0  0  3  0  0  0  0  0  0
  188.9350  177.1260  145.8160 C   0  0  0  0  0  3  0  0  0  0  0  0
  184.9330  178.9340  144.6420 C   0  0  0  0  0  0  0  0  0  0  0  0
  183.5060  179.1820  144.4230 C   0  0  0  0  0  3  0  0  0  0  0  0
  190.5800  176.7950  144.0060 C   0  0  0  0  0  0  0  0  0  0  0  0
  191.5470  176.2910  144.8670 O   0  0  0  0  0  1  0  0  0  0  0  0
  188.5560  177.8130  142.2500 C   0  0  0  0  0  3  0  0  0  0  0  0
  183.8170  178.0970  142.2370 C   0  0  0  0  0  3  0  0  0  0  0  0
  186.6920  177.9910  145.4430 C   0  0  0  0  0  0  0  0  0  0  0  0
  185.4120  178.5060  145.7700 N   0  0  0  0  0  0  0  0  0  0  0  0
  190.8540  176.9260  142.7040 C   0  0  0  0  0  3  0  0  0  0  0  0
  185.1520  178.0240  142.3590 C   0  0  0  0  0  3  0  0  0  0  0  0
  189.8690  177.4480  141.7940 N   0  0  0  0  0  0  0  0  0  0  0  0
  189.2500  177.1930  144.5080 C   0  0  0  0  0  0  0  0  0  0  0  0
  190.1860  177.5460  140.3810 C   0  0  0  0  0  2  0  0  0  0  0  0
  189.0400  178.2150  139.6380 C   0  0  0  0  0  2  0  0  0  0  0  0
  188.7840  177.5130  138.3140 C   0  0  2  0  0  3  0  0  0  0  0  0
  189.9180  176.1030  138.1380 S   0  0  0  0  0  1  0  0  0  0  0  0
  188.9350  178.4520  137.1540 C   0  0  0  0  0  0  0  0  0  0  0  0
  188.8260  179.6530  137.3370 O   0  0  0  0  0  0  0  0  0  0  0  0
  189.2090  177.9410  135.7760 C   0  0  0  0  0  1  0  0  0  0  0  0
  1 13  1  0  0  0  0
  2  1  1  0  0  0  0
  2 18  1  0  0  0  0
  4 16  1  6  0  0  0
  4  1  1  0  0  0  0
  4  7  1  0  0  0  0
  5  8  2  0  0  0  0
  6  3  1  0  0  0  0
  7 14  2  0  0  0  0
  8  7  1  0  0  0  0
  9 18  1  0  0  0  0
  9 10  1  0  0  0  0
 11  2  2  0  0  0  0
 12 16  2  0  0  0  0
 12  5  1  0  0  0  0
 13 14  1  0  0  0  0
 13  3  2  0  0  0  0
 15  9  2  0  0  0  0
 17 11  1  0  0  0  0
 17 15  1  0  0  0  0
 18  6  2  0  0  0  0
 19 17  1  0  0  0  0
 20 19  1  0  0  0  0
 21 22  1  6  0  0  0
 21 20  1  0  0  0  0
 23 24  2  0  0  0  0
 23 21  1  0  0  0  0
 25 23  1  0  0  0  0
M  END
>  <MODEL>
9

>  <REMARK>
 VINA RESULT:      -8.4      1.752      2.187
  Name = 
  4 active torsions:
  status: ('A' for Active; 'I' for Inactive)
    1  A    between atoms: C_2  and  C_21
    2  A    between atoms: C_6  and  C_15
    3  A    between atoms: C_6  and  N_23
    4  A    between atoms: C_15  and  C_21
                            x       y       z     vdW  Elec       q    Type
                         _______ _______ _______ _____ _____    ______ ____

>  <TORSDO>
F 4

$$$$
