=
 OpenBabel10272401403D

 55 59  0  0  1  0  0  0  0  0999 V2000
  186.2820  177.9360  134.9520 O   0  0  0  0  0  0  0  0  0  0  0  0
  187.8870  177.5130  136.6550 C   0  0  1  0  0  3  0  0  0  0  0  0
  187.5500  178.1350  134.3890 C   0  0  0  0  0  2  0  0  0  0  0  0
  186.4830  177.9830  136.3410 C   0  0  2  0  0  3  0  0  0  0  0  0
  188.5840  177.5580  135.3260 C   0  0  0  0  0  2  0  0  0  0  0  0
  188.5420  178.4770  137.6270 C   0  0  0  0  0  2  0  0  0  0  0  0
  188.9610  177.7360  138.8830 C   0  0  0  0  0  2  0  0  0  0  0  0
  188.0730  178.1310  140.0460 C   0  0  0  0  0  2  0  0  0  0  0  0
  189.0840  178.6320  141.4720 S   0  0  0  0  0  0  0  0  0  0  0  0
  190.0560  177.2180  141.3820 O   0  0  0  0  0  0  0  0  0  0  0  0
  190.9550  177.3340  142.4470 C   0  0  0  0  0  2  0  0  0  0  0  0
  189.4140  175.7160  143.2510 O   0  0  0  0  0  1  0  0  0  0  0  0
  190.6720  176.2660  143.4980 C   0  0  0  0  0  0  0  0  0  0  0  0
  191.6250  175.2510  143.4140 O   0  0  0  0  0  1  0  0  0  0  0  0
  190.6510  176.8660  144.9090 C   0  0  0  0  0  2  0  0  0  0  0  0
  189.7460  178.0870  145.1730 C   0  0  2  0  0  3  0  0  0  0  0  0
  190.4700  179.2470  145.4580 O   0  0  0  0  0  1  0  0  0  0  0  0
  188.4890  177.9150  146.0800 C   0  0  2  0  0  0  0  0  0  0  0  0
  185.8350  177.1820  146.9090 O   0  0  0  0  0  1  0  0  0  0  0  0
  186.5110  177.2520  144.5490 C   0  0  1  0  0  3  0  0  0  0  0  0
  184.7590  178.9640  145.5450 C   0  0  0  0  0  1  0  0  0  0  0  0
  185.8780  177.9520  145.7470 C   0  0  1  0  0  0  0  0  0  0  0  0
  185.9790  177.7530  143.2180 C   0  0  0  0  0  1  0  0  0  0  0  0
  187.2570  178.3900  145.2580 C   0  0  1  0  0  3  0  0  0  0  0  0
  189.5760  178.3940  148.3630 C   0  0  0  0  0  2  0  0  0  0  0  0
  188.0920  178.2300  148.6150 C   0  0  0  0  0  2  0  0  0  0  0  0
  188.5760  178.8590  147.3170 C   0  0  0  0  0  3  0  0  0  0  0  0
  188.3260  176.5460  146.4440 O   0  0  0  0  0  0  0  0  0  0  0  0
  189.4590  176.1110  146.9680 O   0  0  0  0  0  1  0  0  0  0  0  0
  185.4370  177.1530  137.0910 C   0  0  2  0  0  3  0  0  0  0  0  0
  185.0500  177.7700  138.4340 C   0  0  0  0  0  2  0  0  0  0  0  0
  183.3160  179.3780  138.6700 O   0  0  0  0  0  1  0  0  0  0  0  0
  183.5520  178.0110  138.5200 C   0  0  2  0  0  3  0  0  0  0  0  0
  182.9730  177.2580  139.7070 C   0  0  0  0  0  2  0  0  0  0  0  0
  181.4630  177.1850  139.5980 C   0  0  0  0  0  1  0  0  0  0  0  0
  185.9600  175.7430  137.2980 C   0  0  0  0  0  2  0  0  0  0  0  0
  181.6930  174.4750  137.1460 C   0  0  0  0  0  1  0  0  0  0  0  0
  183.3800  172.5780  136.5580 C   0  0  2  0  0  3  0  0  0  0  0  0
  183.1440  174.0580  136.9760 C   0  0  1  0  0  3  0  0  0  0  0  0
  185.8230  173.3490  136.5400 C   0  0  2  0  0  3  0  0  0  0  0  0
  184.7890  172.3550  135.9900 C   0  0  0  0  0  2  0  0  0  0  0  0
  183.9040  175.0180  136.0730 C   0  0  0  0  0  2  0  0  0  0  0  0
  185.4200  174.8100  136.2210 C   0  0  1  0  0  3  0  0  0  0  0  0
  188.2890  173.1490  137.0330 C   0  0  0  0  0  2  0  0  0  0  0  0
  187.6370  173.9780  134.8830 C   0  0  0  0  0  2  0  0  0  0  0  0
  189.0700  174.1820  135.0110 N   0  0  0  0  0  2  0  0  0  0  0  0
  189.3510  174.0460  136.4330 C   0  0  2  0  0  3  0  0  0  0  0  0
  187.2130  173.0150  135.9750 C   0  0  2  0  0  3  0  0  0  0  0  0
  190.7240  173.4290  136.6400 C   0  0  0  0  0  2  0  0  0  0  0  0
  191.4950  174.2140  137.5920 N   0  0  0  0  0  0  0  0  0  0  0  0
  191.0890  175.5960  137.4140 C   0  0  0  0  0  1  0  0  0  0  0  0
  192.8860  174.1370  137.1800 C   0  0  0  0  0  1  0  0  0  0  0  0
  183.1020  171.4680  134.4630 C   0  0  0  0  0  1  0  0  0  0  0  0
  182.4030  172.0080  135.6170 N   0  0  0  0  0  0  0  0  0  0  0  0
  181.7220  170.9940  136.2090 O   0  0  0  0  0  1  0  0  0  0  0  0
  1  4  1  0  0  0  0
  2  6  1  1  0  0  0
  3  1  1  0  0  0  0
  3  5  1  0  0  0  0
  4  2  1  0  0  0  0
  4 30  1  1  0  0  0
  5  2  1  0  0  0  0
  6  7  1  0  0  0  0
  7  8  1  0  0  0  0
  8  9  1  0  0  0  0
 10  9  1  0  0  0  0
 10 11  1  0  0  0  0
 11 13  1  0  0  0  0
 12 13  1  0  0  0  0
 13 15  1  0  0  0  0
 14 13  1  0  0  0  0
 15 16  1  0  0  0  0
 16 17  1  1  0  0  0
 16 18  1  0  0  0  0
 18 28  1  1  0  0  0
 18 27  1  0  0  0  0
 20 23  1  6  0  0  0
 20 24  1  0  0  0  0
 20 22  1  0  0  0  0
 22 21  1  6  0  0  0
 22 19  1  0  0  0  0
 24 22  1  0  0  0  0
 24 18  1  1  0  0  0
 25 26  1  0  0  0  0
 27 25  1  0  0  0  0
 27 26  1  0  0  0  0
 28 29  1  0  0  0  0
 30 36  1  1  0  0  0
 30 31  1  0  0  0  0
 31 33  1  0  0  0  0
 33 32  1  1  0  0  0
 33 34  1  0  0  0  0
 35 34  1  0  0  0  0
 38 54  1  6  0  0  0
 38 39  1  0  0  0  0
 39 37  1  6  0  0  0
 40 41  1  6  0  0  0
 41 38  1  0  0  0  0
 42 43  1  0  0  0  0
 42 39  1  0  0  0  0
 43 40  1  0  0  0  0
 43 36  1  1  0  0  0
 45 46  1  0  0  0  0
 46 47  1  0  0  0  0
 47 49  1  6  0  0  0
 47 44  1  0  0  0  0
 48 45  1  6  0  0  0
 48 40  1  0  0  0  0
 48 44  1  0  0  0  0
 49 50  1  0  0  0  0
 51 50  1  0  0  0  0
 52 50  1  0  0  0  0
 53 54  1  0  0  0  0
 54 55  1  0  0  0  0
M  END
>  <MODEL>
1

>  <REMARK>
 VINA RESULT:      -5.1      0.000      0.000
  Name = 
  23 active torsions:
  status: ('A' for Active; 'I' for Inactive)
    1  A    between atoms: C_1  and  C_21
    2  A    between atoms: C_1  and  O_29
    3  A    between atoms: C_1  and  C_38
    4  A    between atoms: C_1  and  C_53
    5  A    between atoms: C_2  and  C_19
    6  A    between atoms: C_2  and  C_28
    7  A    between atoms: C_2  and  C_44
    8  A    between atoms: C_4  and  C_40
    9  A    between atoms: C_8  and  C_20
   10  A    between atoms: C_8  and  O_43
   11  A    between atoms: N_10  and  C_32
   12  A    between atoms: C_16  and  N_17
   13  A    between atoms: C_19  and  C_40
   14  A    between atoms: C_20  and  C_42
   15  A    between atoms: C_21  and  C_42
   16  A    between atoms: C_27  and  C_31
   17  A    between atoms: C_28  and  C_49
   18  A    between atoms: C_31  and  C_54
   19  A    between atoms: C_32  and  C_48
   20  A    between atoms: C_33  and  C_52
   21  A    between atoms: S_35  and  O_43
   22  A    between atoms: S_35  and  C_51
   23  A    between atoms: C_51  and  C_54
                            x       y       z     vdW  Elec       q    Type
                         _______ _______ _______ _____ _____    ______ ____

>  <TORSDO>
F 23

$$$$
=
 OpenBabel10272401403D

 55 59  0  0  1  0  0  0  0  0999 V2000
  187.2520  178.6810  139.8930 O   0  0  0  0  0  0  0  0  0  0  0  0
  188.8640  177.1120  139.1220 C   0  0  1  0  0  3  0  0  0  0  0  0
  186.9060  178.3390  138.5780 C   0  0  0  0  0  2  0  0  0  0  0  0
  188.5920  178.2860  140.0370 C   0  0  2  0  0  3  0  0  0  0  0  0
  187.6950  177.1130  138.1810 C   0  0  0  0  0  2  0  0  0  0  0  0
  190.1560  177.3480  138.3600 C   0  0  0  0  0  2  0  0  0  0  0  0
  189.8700  177.4080  136.8710 C   0  0  0  0  0  2  0  0  0  0  0  0
  190.4230  176.1770  136.1820 C   0  0  0  0  0  2  0  0  0  0  0  0
  191.7760  175.4570  137.1610 S   0  0  0  0  0  0  0  0  0  0  0  0
  192.8460  175.4340  135.8170 O   0  0  0  0  0  0  0  0  0  0  0  0
  194.1120  175.6630  136.3640 C   0  0  0  0  0  2  0  0  0  0  0  0
  195.2410  174.0610  137.7060 O   0  0  0  0  0  1  0  0  0  0  0  0
  194.9210  174.3700  136.3840 C   0  0  0  0  0  0  0  0  0  0  0  0
  194.1640  173.3260  135.8530 O   0  0  0  0  0  1  0  0  0  0  0  0
  196.2360  174.5250  135.6090 C   0  0  0  0  0  2  0  0  0  0  0  0
  197.4640  175.0890  136.3540 C   0  0  2  0  0  3  0  0  0  0  0  0
  197.6040  176.4690  136.2000 O   0  0  0  0  0  1  0  0  0  0  0  0
  198.8190  174.3240  136.2650 C   0  0  2  0  0  0  0  0  0  0  0  0
  197.6890  171.8860  137.2900 O   0  0  0  0  0  1  0  0  0  0  0  0
  199.5080  171.9090  135.6390 C   0  0  1  0  0  3  0  0  0  0  0  0
  197.0860  171.0430  135.0260 C   0  0  0  0  0  1  0  0  0  0  0  0
  198.0130  171.8400  135.9330 C   0  0  1  0  0  0  0  0  0  0  0  0
  199.8930  171.2120  134.3460 C   0  0  0  0  0  1  0  0  0  0  0  0
  198.6040  173.1070  135.3200 C   0  0  1  0  0  3  0  0  0  0  0  0
  198.7430  174.5860  138.8240 C   0  0  0  0  0  2  0  0  0  0  0  0
  200.2060  174.5680  138.4340 C   0  0  0  0  0  2  0  0  0  0  0  0
  199.2030  173.7310  137.6550 C   0  0  0  0  0  3  0  0  0  0  0  0
  199.8330  175.1740  135.7320 O   0  0  0  0  0  0  0  0  0  0  0  0
  199.9300  174.9520  134.4320 O   0  0  0  0  0  1  0  0  0  0  0  0
  188.9270  177.9490  141.4920 C   0  0  2  0  0  3  0  0  0  0  0  0
  190.0870  176.9620  141.6140 C   0  0  0  0  0  2  0  0  0  0  0  0
  192.1120  176.6470  142.8190 O   0  0  0  0  0  1  0  0  0  0  0  0
  191.3140  177.6230  142.2220 C   0  0  2  0  0  3  0  0  0  0  0  0
  190.8880  178.6450  143.2640 C   0  0  0  0  0  2  0  0  0  0  0  0
  192.0870  179.1020  144.0720 C   0  0  0  0  0  1  0  0  0  0  0  0
  187.6950  177.3890  142.1800 C   0  0  0  0  0  2  0  0  0  0  0  0
  189.5390  176.9640  146.2120 C   0  0  0  0  0  1  0  0  0  0  0  0
  186.9770  177.4300  146.2680 C   0  0  2  0  0  3  0  0  0  0  0  0
  188.2640  177.2060  145.4240 C   0  0  1  0  0  3  0  0  0  0  0  0
  185.9500  177.7830  143.9470 C   0  0  2  0  0  3  0  0  0  0  0  0
  185.8560  178.0880  145.4490 C   0  0  0  0  0  2  0  0  0  0  0  0
  188.4450  178.3030  144.3840 C   0  0  0  0  0  2  0  0  0  0  0  0
  187.2990  178.2680  143.3600 C   0  0  1  0  0  3  0  0  0  0  0  0
  184.2870  177.5570  142.0640 C   0  0  0  0  0  2  0  0  0  0  0  0
  185.1210  179.7440  142.5690 C   0  0  0  0  0  2  0  0  0  0  0  0
  184.3860  179.8380  141.3190 N   0  0  0  0  0  2  0  0  0  0  0  0
  184.2460  178.4650  140.8540 C   0  0  2  0  0  3  0  0  0  0  0  0
  184.7580  178.4210  143.2150 C   0  0  2  0  0  3  0  0  0  0  0  0
  182.9240  178.2920  140.1230 C   0  0  0  0  0  2  0  0  0  0  0  0
  182.3890  176.9580  140.3530 N   0  0  0  0  0  0  0  0  0  0  0  0
  182.7660  176.1570  139.2040 C   0  0  0  0  0  1  0  0  0  0  0  0
  180.9410  177.0690  140.3210 C   0  0  0  0  0  1  0  0  0  0  0  0
  186.2610  179.3380  147.5100 C   0  0  0  0  0  1  0  0  0  0  0  0
  187.1470  178.1850  147.5190 N   0  0  0  0  0  0  0  0  0  0  0  0
  186.8180  177.4080  148.5820 O   0  0  0  0  0  1  0  0  0  0  0  0
  1  4  1  0  0  0  0
  2  6  1  6  0  0  0
  2  4  1  0  0  0  0
  3  1  1  0  0  0  0
  4 30  1  1  0  0  0
  5  3  1  0  0  0  0
  5  2  1  0  0  0  0
  7  6  1  0  0  0  0
  8  7  1  0  0  0  0
  8  9  1  0  0  0  0
 10 11  1  0  0  0  0
 10  9  1  0  0  0  0
 11 13  1  0  0  0  0
 13 12  1  0  0  0  0
 14 13  1  0  0  0  0
 15 16  1  0  0  0  0
 15 13  1  0  0  0  0
 16 17  1  6  0  0  0
 18 28  1  6  0  0  0
 18 16  1  0  0  0  0
 18 27  1  0  0  0  0
 20 23  1  6  0  0  0
 20 22  1  0  0  0  0
 22 21  1  6  0  0  0
 22 19  1  0  0  0  0
 24 20  1  0  0  0  0
 24 22  1  0  0  0  0
 24 18  1  1  0  0  0
 26 25  1  0  0  0  0
 27 26  1  0  0  0  0
 27 25  1  0  0  0  0
 29 28  1  0  0  0  0
 30 31  1  6  0  0  0
 30 36  1  0  0  0  0
 31 33  1  0  0  0  0
 33 32  1  1  0  0  0
 33 34  1  0  0  0  0
 34 35  1  0  0  0  0
 38 54  1  1  0  0  0
 39 37  1  1  0  0  0
 39 38  1  0  0  0  0
 40 41  1  1  0  0  0
 41 38  1  0  0  0  0
 42 39  1  0  0  0  0
 43 36  1  6  0  0  0
 43 40  1  0  0  0  0
 43 42  1  0  0  0  0
 45 48  1  0  0  0  0
 46 45  1  0  0  0  0
 47 49  1  1  0  0  0
 47 46  1  0  0  0  0
 47 44  1  0  0  0  0
 48 44  1  6  0  0  0
 48 40  1  0  0  0  0
 49 50  1  0  0  0  0
 51 50  1  0  0  0  0
 52 50  1  0  0  0  0
 53 54  1  0  0  0  0
 54 55  1  0  0  0  0
M  END
>  <MODEL>
2

>  <REMARK>
 VINA RESULT:      -5.1      5.093     11.066
  Name = 
  23 active torsions:
  status: ('A' for Active; 'I' for Inactive)
    1  A    between atoms: C_1  and  C_21
    2  A    between atoms: C_1  and  O_29
    3  A    between atoms: C_1  and  C_38
    4  A    between atoms: C_1  and  C_53
    5  A    between atoms: C_2  and  C_19
    6  A    between atoms: C_2  and  C_28
    7  A    between atoms: C_2  and  C_44
    8  A    between atoms: C_4  and  C_40
    9  A    between atoms: C_8  and  C_20
   10  A    between atoms: C_8  and  O_43
   11  A    between atoms: N_10  and  C_32
   12  A    between atoms: C_16  and  N_17
   13  A    between atoms: C_19  and  C_40
   14  A    between atoms: C_20  and  C_42
   15  A    between atoms: C_21  and  C_42
   16  A    between atoms: C_27  and  C_31
   17  A    between atoms: C_28  and  C_49
   18  A    between atoms: C_31  and  C_54
   19  A    between atoms: C_32  and  C_48
   20  A    between atoms: C_33  and  C_52
   21  A    between atoms: S_35  and  O_43
   22  A    between atoms: S_35  and  C_51
   23  A    between atoms: C_51  and  C_54
                            x       y       z     vdW  Elec       q    Type
                         _______ _______ _______ _____ _____    ______ ____

>  <TORSDO>
F 23

$$$$
=
 OpenBabel10272401403D

 55 59  0  0  1  0  0  0  0  0999 V2000
  189.8670  178.7960  144.8380 O   0  0  0  0  0  0  0  0  0  0  0  0
  189.8050  177.9810  142.6050 C   0  0  1  0  0  3  0  0  0  0  0  0
  191.1580  178.9270  144.3100 C   0  0  0  0  0  2  0  0  0  0  0  0
  189.2130  177.8830  143.9940 C   0  0  2  0  0  3  0  0  0  0  0  0
  191.0840  178.7390  142.8130 C   0  0  0  0  0  2  0  0  0  0  0  0
  190.0970  176.5890  142.0750 C   0  0  0  0  0  2  0  0  0  0  0  0
  190.0780  176.6020  140.5580 C   0  0  0  0  0  2  0  0  0  0  0  0
  191.4520  176.9460  140.0200 C   0  0  0  0  0  2  0  0  0  0  0  0
  191.5260  176.6360  138.2290 S   0  0  0  0  0  0  0  0  0  0  0  0
  193.2440  176.6850  138.2100 O   0  0  0  0  0  0  0  0  0  0  0  0
  193.6240  175.5760  137.4500 C   0  0  0  0  0  2  0  0  0  0  0  0
  193.4290  175.8610  135.1000 O   0  0  0  0  0  1  0  0  0  0  0  0
  194.3130  176.0250  136.1660 C   0  0  0  0  0  0  0  0  0  0  0  0
  194.6550  177.3740  136.2560 O   0  0  0  0  0  1  0  0  0  0  0  0
  195.5580  175.1770  135.8760 C   0  0  0  0  0  2  0  0  0  0  0  0
  196.1520  174.3310  137.0220 C   0  0  2  0  0  3  0  0  0  0  0  0
  197.1820  174.9850  137.7010 O   0  0  0  0  0  1  0  0  0  0  0  0
  196.4480  172.8210  136.7720 C   0  0  2  0  0  0  0  0  0  0  0  0
  197.9140  170.3520  136.9360 O   0  0  0  0  0  1  0  0  0  0  0  0
  198.9810  172.5450  137.2220 C   0  0  1  0  0  3  0  0  0  0  0  0
  199.5030  171.0070  135.1360 C   0  0  0  0  0  1  0  0  0  0  0  0
  198.6050  171.3870  136.3040 C   0  0  1  0  0  0  0  0  0  0  0  0
  200.2300  173.2810  136.7690 C   0  0  0  0  0  1  0  0  0  0  0  0
  197.8790  172.7230  136.1690 C   0  0  1  0  0  3  0  0  0  0  0  0
  194.0760  171.9920  136.2120 C   0  0  0  0  0  2  0  0  0  0  0  0
  195.0120  170.8270  135.9670 C   0  0  0  0  0  2  0  0  0  0  0  0
  195.4810  172.2470  135.6910 C   0  0  0  0  0  3  0  0  0  0  0  0
  196.3920  172.0960  137.9990 O   0  0  0  0  0  0  0  0  0  0  0  0
  195.5600  172.7170  138.8180 O   0  0  0  0  0  1  0  0  0  0  0  0
  187.7010  178.1160  143.9740 C   0  0  2  0  0  3  0  0  0  0  0  0
  186.9680  177.3090  145.0450 C   0  0  0  0  0  2  0  0  0  0  0  0
  187.6760  176.9400  147.2830 O   0  0  0  0  0  1  0  0  0  0  0  0
  187.1650  177.9140  146.4250 C   0  0  2  0  0  3  0  0  0  0  0  0
  185.8380  178.4260  146.9610 C   0  0  0  0  0  2  0  0  0  0  0  0
  186.0280  179.7680  147.6410 C   0  0  0  0  0  1  0  0  0  0  0  0
  187.1520  177.7750  142.6000 C   0  0  0  0  0  2  0  0  0  0  0  0
  183.2540  178.4270  144.6540 C   0  0  0  0  0  1  0  0  0  0  0  0
  183.1210  178.6000  142.0590 C   0  0  2  0  0  3  0  0  0  0  0  0
  183.9870  178.3500  143.3260 C   0  0  1  0  0  3  0  0  0  0  0  0
  185.3890  178.3340  140.8960 C   0  0  2  0  0  3  0  0  0  0  0  0
  183.9790  178.9380  140.8300 C   0  0  0  0  0  2  0  0  0  0  0  0
  185.2390  179.2150  143.3230 C   0  0  0  0  0  2  0  0  0  0  0  0
  186.1540  178.8340  142.1480 C   0  0  1  0  0  3  0  0  0  0  0  0
  185.4120  178.1690  138.3790 C   0  0  0  0  0  2  0  0  0  0  0  0
  187.4980  177.9630  139.5380 C   0  0  0  0  0  2  0  0  0  0  0  0
  187.7330  177.5970  138.1510 N   0  0  0  0  0  2  0  0  0  0  0  0
  186.4110  177.3510  137.5910 C   0  0  2  0  0  3  0  0  0  0  0  0
  186.1540  178.6620  139.6040 C   0  0  2  0  0  3  0  0  0  0  0  0
  186.3770  177.7630  136.1280 C   0  0  0  0  0  2  0  0  0  0  0  0
  186.6630  176.6220  135.2720 N   0  0  0  0  0  0  0  0  0  0  0  0
  187.0260  175.5260  136.1510 C   0  0  0  0  0  1  0  0  0  0  0  0
  187.8530  176.9500  134.5080 C   0  0  0  0  0  1  0  0  0  0  0  0
  181.3460  179.7260  140.9270 C   0  0  0  0  0  1  0  0  0  0  0  0
  182.0660  179.6180  142.1850 N   0  0  0  0  0  0  0  0  0  0  0  0
  181.1810  179.2550  143.1480 O   0  0  0  0  0  1  0  0  0  0  0  0
  2  6  1  1  0  0  0
  2  5  1  0  0  0  0
  2  4  1  0  0  0  0
  3  1  1  0  0  0  0
  4 30  1  6  0  0  0
  4  1  1  0  0  0  0
  5  3  1  0  0  0  0
  7  6  1  0  0  0  0
  8  7  1  0  0  0  0
  9  8  1  0  0  0  0
 10  9  1  0  0  0  0
 11 10  1  0  0  0  0
 12 13  1  0  0  0  0
 13 14  1  0  0  0  0
 13 11  1  0  0  0  0
 15 13  1  0  0  0  0
 15 16  1  0  0  0  0
 16 17  1  6  0  0  0
 18 16  1  0  0  0  0
 18 28  1  1  0  0  0
 20 23  1  6  0  0  0
 22 21  1  6  0  0  0
 22 19  1  0  0  0  0
 22 20  1  0  0  0  0
 24 22  1  0  0  0  0
 24 18  1  1  0  0  0
 24 20  1  0  0  0  0
 26 25  1  0  0  0  0
 27 26  1  0  0  0  0
 27 25  1  0  0  0  0
 27 18  1  0  0  0  0
 28 29  1  0  0  0  0
 30 36  1  6  0  0  0
 30 31  1  0  0  0  0
 31 33  1  0  0  0  0
 33 34  1  0  0  0  0
 33 32  1  1  0  0  0
 34 35  1  0  0  0  0
 38 54  1  1  0  0  0
 38 39  1  0  0  0  0
 39 37  1  1  0  0  0
 40 41  1  6  0  0  0
 40 43  1  0  0  0  0
 41 38  1  0  0  0  0
 42 39  1  0  0  0  0
 43 36  1  1  0  0  0
 43 42  1  0  0  0  0
 45 48  1  0  0  0  0
 46 45  1  0  0  0  0
 47 49  1  6  0  0  0
 47 46  1  0  0  0  0
 47 44  1  0  0  0  0
 48 44  1  6  0  0  0
 48 40  1  0  0  0  0
 50 49  1  0  0  0  0
 50 51  1  0  0  0  0
 52 50  1  0  0  0  0
 53 54  1  0  0  0  0
 54 55  1  0  0  0  0
M  END
>  <MODEL>
3

>  <REMARK>
 VINA RESULT:      -5.0      4.190      9.954
  Name = 
  23 active torsions:
  status: ('A' for Active; 'I' for Inactive)
    1  A    between atoms: C_1  and  C_21
    2  A    between atoms: C_1  and  O_29
    3  A    between atoms: C_1  and  C_38
    4  A    between atoms: C_1  and  C_53
    5  A    between atoms: C_2  and  C_19
    6  A    between atoms: C_2  and  C_28
    7  A    between atoms: C_2  and  C_44
    8  A    between atoms: C_4  and  C_40
    9  A    between atoms: C_8  and  C_20
   10  A    between atoms: C_8  and  O_43
   11  A    between atoms: N_10  and  C_32
   12  A    between atoms: C_16  and  N_17
   13  A    between atoms: C_19  and  C_40
   14  A    between atoms: C_20  and  C_42
   15  A    between atoms: C_21  and  C_42
   16  A    between atoms: C_27  and  C_31
   17  A    between atoms: C_28  and  C_49
   18  A    between atoms: C_31  and  C_54
   19  A    between atoms: C_32  and  C_48
   20  A    between atoms: C_33  and  C_52
   21  A    between atoms: S_35  and  O_43
   22  A    between atoms: S_35  and  C_51
   23  A    between atoms: C_51  and  C_54
                            x       y       z     vdW  Elec       q    Type
                         _______ _______ _______ _____ _____    ______ ____

>  <TORSDO>
F 23

$$$$
=
 OpenBabel10272401403D

 55 59  0  0  1  0  0  0  0  0999 V2000
  185.0540  179.8010  144.5830 O   0  0  0  0  0  0  0  0  0  0  0  0
  184.0130  178.1780  143.1910 C   0  0  1  0  0  3  0  0  0  0  0  0
  183.8440  180.3500  144.1350 C   0  0  0  0  0  2  0  0  0  0  0  0
  185.3210  178.7340  143.7100 C   0  0  2  0  0  3  0  0  0  0  0  0
  183.0110  179.2420  143.5350 C   0  0  0  0  0  2  0  0  0  0  0  0
  184.0970  177.9990  141.6860 C   0  0  0  0  0  2  0  0  0  0  0  0
  182.7380  178.2530  141.0610 C   0  0  0  0  0  2  0  0  0  0  0  0
  182.8860  178.5200  139.5760 C   0  0  0  0  0  2  0  0  0  0  0  0
  181.5910  179.6630  139.0070 S   0  0  0  0  0  0  0  0  0  0  0  0
  181.9150  179.3350  137.3510 O   0  0  0  0  0  0  0  0  0  0  0  0
  182.3870  178.0200  137.3340 C   0  0  0  0  0  2  0  0  0  0  0  0
  181.0920  176.5010  136.0460 O   0  0  0  0  0  1  0  0  0  0  0  0
  182.1600  177.3940  135.9620 C   0  0  0  0  0  0  0  0  0  0  0  0
  181.8390  178.3850  135.0340 O   0  0  0  0  0  1  0  0  0  0  0  0
  183.3920  176.6070  135.4980 C   0  0  0  0  0  2  0  0  0  0  0  0
  184.2930  175.9590  136.5700 C   0  0  2  0  0  3  0  0  0  0  0  0
  185.2470  176.8410  137.0830 O   0  0  0  0  0  1  0  0  0  0  0  0
  184.8600  174.5280  136.3160 C   0  0  2  0  0  0  0  0  0  0  0  0
  184.4360  172.0700  134.8860 O   0  0  0  0  0  1  0  0  0  0  0  0
  182.5930  173.3640  135.8670 C   0  0  1  0  0  3  0  0  0  0  0  0
  183.2730  170.9860  136.8020 C   0  0  0  0  0  1  0  0  0  0  0  0
  183.6090  172.2340  135.9990 C   0  0  1  0  0  0  0  0  0  0  0  0
  181.3350  173.1300  136.6840 C   0  0  0  0  0  1  0  0  0  0  0  0
  183.7920  173.5120  136.8130 C   0  0  1  0  0  3  0  0  0  0  0  0
  187.3230  173.7840  136.3870 C   0  0  0  0  0  2  0  0  0  0  0  0
  186.5550  172.8250  137.2710 C   0  0  0  0  0  2  0  0  0  0  0  0
  186.1300  174.2830  137.1860 C   0  0  0  0  0  3  0  0  0  0  0  0
  185.1010  174.3310  134.9250 O   0  0  0  0  0  0  0  0  0  0  0  0
  185.8030  175.3550  134.4690 O   0  0  0  0  0  1  0  0  0  0  0  0
  186.1580  177.6470  144.3890 C   0  0  2  0  0  3  0  0  0  0  0  0
  187.2320  178.2220  145.3110 C   0  0  0  0  0  2  0  0  0  0  0  0
  185.8750  178.9780  147.1100 O   0  0  0  0  0  1  0  0  0  0  0  0
  186.8560  178.0460  146.7740 C   0  0  2  0  0  3  0  0  0  0  0  0
  188.0810  178.2500  147.6510 C   0  0  0  0  0  2  0  0  0  0  0  0
  188.3280  177.0200  148.5030 C   0  0  0  0  0  1  0  0  0  0  0  0
  186.8000  176.7660  143.3320 C   0  0  0  0  0  2  0  0  0  0  0  0
  187.5340  178.3680  139.2410 C   0  0  0  0  0  1  0  0  0  0  0  0
  189.5310  177.0090  140.2160 C   0  0  2  0  0  3  0  0  0  0  0  0
  188.0880  177.5610  140.4020 C   0  0  1  0  0  3  0  0  0  0  0  0
  189.1390  176.1880  142.6110 C   0  0  2  0  0  3  0  0  0  0  0  0
  190.1710  176.6010  141.5510 C   0  0  0  0  0  2  0  0  0  0  0  0
  187.9440  178.3020  141.7230 C   0  0  0  0  0  2  0  0  0  0  0  0
  188.1460  177.3400  142.9050 C   0  0  1  0  0  3  0  0  0  0  0  0
  190.0110  176.8700  144.8780 C   0  0  0  0  0  2  0  0  0  0  0  0
  191.2860  175.2850  143.6140 C   0  0  0  0  0  2  0  0  0  0  0  0
  192.0990  175.6920  144.7480 N   0  0  0  0  0  2  0  0  0  0  0  0
  191.4780  176.9120  145.2460 C   0  0  2  0  0  3  0  0  0  0  0  0
  189.8630  175.7330  143.8880 C   0  0  2  0  0  3  0  0  0  0  0  0
  191.6290  176.9970  146.7560 C   0  0  0  0  0  2  0  0  0  0  0  0
  192.1690  175.7530  147.2830 N   0  0  0  0  0  0  0  0  0  0  0  0
  191.0340  174.9580  147.7130 C   0  0  0  0  0  1  0  0  0  0  0  0
  192.9170  176.0870  148.4830 C   0  0  0  0  0  1  0  0  0  0  0  0
  191.8190  177.6450  139.9830 C   0  0  0  0  0  1  0  0  0  0  0  0
  190.4700  177.8810  139.4950 N   0  0  0  0  0  0  0  0  0  0  0  0
  190.4460  177.5990  138.1680 O   0  0  0  0  0  1  0  0  0  0  0  0
  2  6  1  6  0  0  0
  2  5  1  0  0  0  0
  2  4  1  0  0  0  0
  3  1  1  0  0  0  0
  4 30  1  1  0  0  0
  4  1  1  0  0  0  0
  5  3  1  0  0  0  0
  7  6  1  0  0  0  0
  8  7  1  0  0  0  0
  9  8  1  0  0  0  0
 10  9  1  0  0  0  0
 11 10  1  0  0  0  0
 13 12  1  0  0  0  0
 13 11  1  0  0  0  0
 14 13  1  0  0  0  0
 15 13  1  0  0  0  0
 15 16  1  0  0  0  0
 16 17  1  6  0  0  0
 18 28  1  6  0  0  0
 18 16  1  0  0  0  0
 18 27  1  0  0  0  0
 19 22  1  0  0  0  0
 20 22  1  0  0  0  0
 20 23  1  1  0  0  0
 20 24  1  0  0  0  0
 22 21  1  1  0  0  0
 22 24  1  0  0  0  0
 24 18  1  6  0  0  0
 25 27  1  0  0  0  0
 25 26  1  0  0  0  0
 27 26  1  0  0  0  0
 29 28  1  0  0  0  0
 30 36  1  6  0  0  0
 30 31  1  0  0  0  0
 31 33  1  0  0  0  0
 33 32  1  1  0  0  0
 33 34  1  0  0  0  0
 34 35  1  0  0  0  0
 38 54  1  1  0  0  0
 38 39  1  0  0  0  0
 38 41  1  0  0  0  0
 39 37  1  6  0  0  0
 39 42  1  0  0  0  0
 40 41  1  6  0  0  0
 40 43  1  0  0  0  0
 40 48  1  0  0  0  0
 42 43  1  0  0  0  0
 43 36  1  6  0  0  0
 44 47  1  0  0  0  0
 45 46  1  0  0  0  0
 46 47  1  0  0  0  0
 47 49  1  1  0  0  0
 48 45  1  6  0  0  0
 48 44  1  0  0  0  0
 49 50  1  0  0  0  0
 50 51  1  0  0  0  0
 50 52  1  0  0  0  0
 54 53  1  0  0  0  0
 55 54  1  0  0  0  0
M  END
>  <MODEL>
4

>  <REMARK>
 VINA RESULT:      -4.9      3.167      9.935
  Name = 
  23 active torsions:
  status: ('A' for Active; 'I' for Inactive)
    1  A    between atoms: C_1  and  C_21
    2  A    between atoms: C_1  and  O_29
    3  A    between atoms: C_1  and  C_38
    4  A    between atoms: C_1  and  C_53
    5  A    between atoms: C_2  and  C_19
    6  A    between atoms: C_2  and  C_28
    7  A    between atoms: C_2  and  C_44
    8  A    between atoms: C_4  and  C_40
    9  A    between atoms: C_8  and  C_20
   10  A    between atoms: C_8  and  O_43
   11  A    between atoms: N_10  and  C_32
   12  A    between atoms: C_16  and  N_17
   13  A    between atoms: C_19  and  C_40
   14  A    between atoms: C_20  and  C_42
   15  A    between atoms: C_21  and  C_42
   16  A    between atoms: C_27  and  C_31
   17  A    between atoms: C_28  and  C_49
   18  A    between atoms: C_31  and  C_54
   19  A    between atoms: C_32  and  C_48
   20  A    between atoms: C_33  and  C_52
   21  A    between atoms: S_35  and  O_43
   22  A    between atoms: S_35  and  C_51
   23  A    between atoms: C_51  and  C_54
                            x       y       z     vdW  Elec       q    Type
                         _______ _______ _______ _____ _____    ______ ____

>  <TORSDO>
F 23

$$$$
=
 OpenBabel10272401403D

 55 59  0  0  1  0  0  0  0  0999 V2000
  189.5760  178.5050  145.2400 O   0  0  0  0  0  0  0  0  0  0  0  0
  190.0300  178.1270  142.9370 C   0  0  1  0  0  3  0  0  0  0  0  0
  190.9410  178.7520  145.0380 C   0  0  0  0  0  2  0  0  0  0  0  0
  189.1660  177.7590  144.1230 C   0  0  2  0  0  3  0  0  0  0  0  0
  191.1940  178.8500  143.5520 C   0  0  0  0  0  2  0  0  0  0  0  0
  190.5030  176.8640  142.2390 C   0  0  0  0  0  2  0  0  0  0  0  0
  191.9120  177.0630  141.7140 C   0  0  0  0  0  2  0  0  0  0  0  0
  191.8770  177.4280  140.2440 C   0  0  0  0  0  2  0  0  0  0  0  0
  193.4890  177.0970  139.4710 S   0  0  0  0  0  0  0  0  0  0  0  0
  192.8160  175.9770  138.3550 O   0  0  0  0  0  0  0  0  0  0  0  0
  193.4940  176.2150  137.1570 C   0  0  0  0  0  2  0  0  0  0  0  0
  193.2400  173.8540  137.1490 O   0  0  0  0  0  1  0  0  0  0  0  0
  193.5860  174.9330  136.3360 C   0  0  0  0  0  0  0  0  0  0  0  0
  192.6930  174.9880  135.2660 O   0  0  0  0  0  1  0  0  0  0  0  0
  195.0140  174.6980  135.8290 C   0  0  0  0  0  2  0  0  0  0  0  0
  196.0800  174.2210  136.8370 C   0  0  2  0  0  3  0  0  0  0  0  0
  196.5840  175.2590  137.6250 O   0  0  0  0  0  1  0  0  0  0  0  0
  197.1830  173.2280  136.3590 C   0  0  2  0  0  0  0  0  0  0  0  0
  195.6070  172.0430  138.4520 O   0  0  0  0  0  1  0  0  0  0  0  0
  197.0810  170.7230  136.9980 C   0  0  1  0  0  3  0  0  0  0  0  0
  194.4510  170.4820  136.8960 C   0  0  0  0  0  1  0  0  0  0  0  0
  195.6900  171.2720  137.2920 C   0  0  1  0  0  0  0  0  0  0  0  0
  197.0540  169.4230  136.2130 C   0  0  0  0  0  1  0  0  0  0  0  0
  196.4990  171.8500  136.1340 C   0  0  1  0  0  3  0  0  0  0  0  0
  199.3120  174.0890  137.5230 C   0  0  0  0  0  2  0  0  0  0  0  0
  199.6450  172.7210  136.9670 C   0  0  0  0  0  2  0  0  0  0  0  0
  198.2430  173.0090  137.4820 C   0  0  0  0  0  3  0  0  0  0  0  0
  197.7630  173.6840  135.1380 O   0  0  0  0  0  0  0  0  0  0  0  0
  197.5560  174.9850  135.0330 O   0  0  0  0  0  1  0  0  0  0  0  0
  187.6810  177.9710  143.8180 C   0  0  2  0  0  3  0  0  0  0  0  0
  186.7690  177.3120  144.8510 C   0  0  0  0  0  2  0  0  0  0  0  0
  187.5500  177.2180  147.0940 O   0  0  0  0  0  1  0  0  0  0  0  0
  186.8510  178.0220  146.1930 C   0  0  2  0  0  3  0  0  0  0  0  0
  185.4520  178.2900  146.7230 C   0  0  0  0  0  2  0  0  0  0  0  0
  184.6180  178.9970  145.6730 C   0  0  0  0  0  1  0  0  0  0  0  0
  187.3660  177.4370  142.4310 C   0  0  0  0  0  2  0  0  0  0  0  0
  183.0480  178.4820  142.7480 C   0  0  0  0  0  1  0  0  0  0  0  0
  183.9550  178.4750  140.3060 C   0  0  2  0  0  3  0  0  0  0  0  0
  184.2320  178.2630  141.8220 C   0  0  1  0  0  3  0  0  0  0  0  0
  186.4650  177.9820  140.1480 C   0  0  2  0  0  3  0  0  0  0  0  0
  185.2510  178.6680  139.5040 C   0  0  0  0  0  2  0  0  0  0  0  0
  185.4550  179.0440  142.2780 C   0  0  0  0  0  2  0  0  0  0  0  0
  186.7200  178.5210  141.5770 C   0  0  1  0  0  3  0  0  0  0  0  0
  187.3060  178.4240  137.8110 C   0  0  0  0  0  2  0  0  0  0  0  0
  188.5570  176.9170  139.1890 C   0  0  0  0  0  2  0  0  0  0  0  0
  189.0930  176.8200  137.8410 N   0  0  0  0  0  2  0  0  0  0  0  0
  188.0810  177.4220  136.9830 C   0  0  2  0  0  3  0  0  0  0  0  0
  187.6990  178.1660  139.2510 C   0  0  2  0  0  3  0  0  0  0  0  0
  188.7420  178.1240  135.8080 C   0  0  0  0  0  2  0  0  0  0  0  0
  188.4110  177.4480  134.5630 N   0  0  0  0  0  0  0  0  0  0  0  0
  187.1640  176.7430  134.7930 C   0  0  0  0  0  1  0  0  0  0  0  0
  189.4260  176.4310  134.3470 C   0  0  0  0  0  1  0  0  0  0  0  0
  183.4930  180.2320  138.7590 C   0  0  0  0  0  1  0  0  0  0  0  0
  183.0280  179.5640  139.9630 N   0  0  0  0  0  0  0  0  0  0  0  0
  181.7910  179.0630  139.7160 O   0  0  0  0  0  1  0  0  0  0  0  0
  2  6  1  1  0  0  0
  2  5  1  0  0  0  0
  2  4  1  0  0  0  0
  3  1  1  0  0  0  0
  4 30  1  6  0  0  0
  4  1  1  0  0  0  0
  5  3  1  0  0  0  0
  7  6  1  0  0  0  0
  8  7  1  0  0  0  0
  9  8  1  0  0  0  0
 10  9  1  0  0  0  0
 11 10  1  0  0  0  0
 13 12  1  0  0  0  0
 13 11  1  0  0  0  0
 14 13  1  0  0  0  0
 15 13  1  0  0  0  0
 15 16  1  0  0  0  0
 16 17  1  6  0  0  0
 18 28  1  6  0  0  0
 18 16  1  0  0  0  0
 18 27  1  0  0  0  0
 20 23  1  6  0  0  0
 20 22  1  0  0  0  0
 22 21  1  6  0  0  0
 22 19  1  0  0  0  0
 24 18  1  1  0  0  0
 24 20  1  0  0  0  0
 24 22  1  0  0  0  0
 26 27  1  0  0  0  0
 26 25  1  0  0  0  0
 27 25  1  0  0  0  0
 29 28  1  0  0  0  0
 30 36  1  6  0  0  0
 30 31  1  0  0  0  0
 31 33  1  0  0  0  0
 33 34  1  0  0  0  0
 33 32  1  1  0  0  0
 35 34  1  0  0  0  0
 38 54  1  1  0  0  0
 38 39  1  0  0  0  0
 39 42  1  0  0  0  0
 39 37  1  1  0  0  0
 40 41  1  6  0  0  0
 40 43  1  0  0  0  0
 41 38  1  0  0  0  0
 43 42  1  0  0  0  0
 43 36  1  1  0  0  0
 45 48  1  0  0  0  0
 46 45  1  0  0  0  0
 47 49  1  6  0  0  0
 47 44  1  0  0  0  0
 47 46  1  0  0  0  0
 48 44  1  6  0  0  0
 48 40  1  0  0  0  0
 50 51  1  0  0  0  0
 50 49  1  0  0  0  0
 52 50  1  0  0  0  0
 53 54  1  0  0  0  0
 55 54  1  0  0  0  0
M  END
>  <MODEL>
5

>  <REMARK>
 VINA RESULT:      -4.9      4.066      9.530
  Name = 
  23 active torsions:
  status: ('A' for Active; 'I' for Inactive)
    1  A    between atoms: C_1  and  C_21
    2  A    between atoms: C_1  and  O_29
    3  A    between atoms: C_1  and  C_38
    4  A    between atoms: C_1  and  C_53
    5  A    between atoms: C_2  and  C_19
    6  A    between atoms: C_2  and  C_28
    7  A    between atoms: C_2  and  C_44
    8  A    between atoms: C_4  and  C_40
    9  A    between atoms: C_8  and  C_20
   10  A    between atoms: C_8  and  O_43
   11  A    between atoms: N_10  and  C_32
   12  A    between atoms: C_16  and  N_17
   13  A    between atoms: C_19  and  C_40
   14  A    between atoms: C_20  and  C_42
   15  A    between atoms: C_21  and  C_42
   16  A    between atoms: C_27  and  C_31
   17  A    between atoms: C_28  and  C_49
   18  A    between atoms: C_31  and  C_54
   19  A    between atoms: C_32  and  C_48
   20  A    between atoms: C_33  and  C_52
   21  A    between atoms: S_35  and  O_43
   22  A    between atoms: S_35  and  C_51
   23  A    between atoms: C_51  and  C_54
                            x       y       z     vdW  Elec       q    Type
                         _______ _______ _______ _____ _____    ______ ____

>  <TORSDO>
F 23

$$$$
=
 OpenBabel10272401403D

 55 59  0  0  1  0  0  0  0  0999 V2000
  188.8130  177.8250  145.3760 O   0  0  0  0  0  0  0  0  0  0  0  0
  189.7540  178.0150  143.2000 C   0  0  1  0  0  3  0  0  0  0  0  0
  190.2070  177.8540  145.5240 C   0  0  0  0  0  2  0  0  0  0  0  0
  188.5930  177.5060  144.0260 C   0  0  2  0  0  3  0  0  0  0  0  0
  190.8170  178.3070  144.2190 C   0  0  0  0  0  2  0  0  0  0  0  0
  190.2180  176.9260  142.2490 C   0  0  0  0  0  2  0  0  0  0  0  0
  191.7220  177.0090  142.0680 C   0  0  0  0  0  2  0  0  0  0  0  0
  192.0580  177.8380  140.8440 C   0  0  0  0  0  2  0  0  0  0  0  0
  193.2370  176.9500  139.7820 S   0  0  0  0  0  0  0  0  0  0  0  0
  191.9840  176.2670  138.8240 O   0  0  0  0  0  0  0  0  0  0  0  0
  192.5750  176.0310  137.5800 C   0  0  0  0  0  2  0  0  0  0  0  0
  190.9550  174.3000  137.7330 O   0  0  0  0  0  1  0  0  0  0  0  0
  192.0530  174.7280  136.9850 C   0  0  0  0  0  0  0  0  0  0  0  0
  191.6400  174.9370  135.6690 O   0  0  0  0  0  1  0  0  0  0  0  0
  193.1160  173.6240  137.0420 C   0  0  0  0  0  2  0  0  0  0  0  0
  194.4460  173.8480  136.2930 C   0  0  2  0  0  3  0  0  0  0  0  0
  194.2730  174.4690  135.0540 O   0  0  0  0  0  1  0  0  0  0  0  0
  195.4980  172.6970  136.2570 C   0  0  2  0  0  0  0  0  0  0  0  0
  195.8430  174.8360  138.1480 O   0  0  0  0  0  1  0  0  0  0  0  0
  196.9830  174.7970  135.9720 C   0  0  1  0  0  3  0  0  0  0  0  0
  198.3140  174.5470  138.2430 C   0  0  0  0  0  1  0  0  0  0  0  0
  197.0080  174.4830  137.4640 C   0  0  1  0  0  0  0  0  0  0  0  0
  198.3640  175.0550  135.3960 C   0  0  0  0  0  1  0  0  0  0  0  0
  196.8990  173.3420  136.4550 C   0  0  1  0  0  3  0  0  0  0  0  0
  194.2360  171.2960  134.5040 C   0  0  0  0  0  2  0  0  0  0  0  0
  195.4720  170.5070  134.8820 C   0  0  0  0  0  2  0  0  0  0  0  0
  195.5230  172.0270  134.8490 C   0  0  0  0  0  3  0  0  0  0  0  0
  195.2440  171.7640  137.3040 O   0  0  0  0  0  0  0  0  0  0  0  0
  196.3130  171.7010  138.0820 O   0  0  0  0  0  1  0  0  0  0  0  0
  187.2610  178.0710  143.5240 C   0  0  2  0  0  3  0  0  0  0  0  0
  186.0910  177.7200  144.4410 C   0  0  0  0  0  2  0  0  0  0  0  0
  185.8230  177.9590  146.7900 O   0  0  0  0  0  1  0  0  0  0  0  0
  185.9970  178.6850  145.6120 C   0  0  2  0  0  3  0  0  0  0  0  0
  184.8230  179.6290  145.4120 C   0  0  0  0  0  2  0  0  0  0  0  0
  183.5250  178.8490  145.3550 C   0  0  0  0  0  1  0  0  0  0  0  0
  186.9910  177.5630  142.1190 C   0  0  0  0  0  2  0  0  0  0  0  0
  182.6150  178.3510  142.3830 C   0  0  0  0  0  1  0  0  0  0  0  0
  183.5650  178.4760  139.9610 C   0  0  2  0  0  3  0  0  0  0  0  0
  183.8260  178.2300  141.4750 C   0  0  1  0  0  3  0  0  0  0  0  0
  186.1010  178.1310  139.8360 C   0  0  2  0  0  3  0  0  0  0  0  0
  184.8620  178.7690  139.1910 C   0  0  0  0  0  2  0  0  0  0  0  0
  184.9950  179.0630  141.9800 C   0  0  0  0  0  2  0  0  0  0  0  0
  186.2990  178.6360  141.2870 C   0  0  1  0  0  3  0  0  0  0  0  0
  187.0340  178.2540  137.4960 C   0  0  0  0  0  2  0  0  0  0  0  0
  188.4630  177.4310  139.2330 C   0  0  0  0  0  2  0  0  0  0  0  0
  189.1300  177.1800  137.9660 N   0  0  0  0  0  2  0  0  0  0  0  0
  188.0920  177.3180  136.9530 C   0  0  2  0  0  3  0  0  0  0  0  0
  187.3390  178.4150  138.9700 C   0  0  2  0  0  3  0  0  0  0  0  0
  188.6810  177.8910  135.6740 C   0  0  0  0  0  2  0  0  0  0  0  0
  188.2250  177.1310  134.5210 N   0  0  0  0  0  0  0  0  0  0  0  0
  186.8190  177.4450  134.3490 C   0  0  0  0  0  1  0  0  0  0  0  0
  188.2930  175.7260  134.8810 C   0  0  0  0  0  1  0  0  0  0  0  0
  183.1810  180.4740  138.7140 C   0  0  0  0  0  1  0  0  0  0  0  0
  182.5830  179.5220  139.6350 N   0  0  0  0  0  0  0  0  0  0  0  0
  181.5000  178.9720  139.0300 O   0  0  0  0  0  1  0  0  0  0  0  0
  1  3  1  0  0  0  0
  2  6  1  6  0  0  0
  2  4  1  0  0  0  0
  2  5  1  0  0  0  0
  4 30  1  6  0  0  0
  4  1  1  0  0  0  0
  5  3  1  0  0  0  0
  7  6  1  0  0  0  0
  8  7  1  0  0  0  0
  9  8  1  0  0  0  0
 10  9  1  0  0  0  0
 11 10  1  0  0  0  0
 13 15  1  0  0  0  0
 13 11  1  0  0  0  0
 13 12  1  0  0  0  0
 14 13  1  0  0  0  0
 16 17  1  6  0  0  0
 16 15  1  0  0  0  0
 18 16  1  0  0  0  0
 18 28  1  1  0  0  0
 20 23  1  6  0  0  0
 20 24  1  0  0  0  0
 20 22  1  0  0  0  0
 22 19  1  0  0  0  0
 22 21  1  1  0  0  0
 24 18  1  1  0  0  0
 24 22  1  0  0  0  0
 25 27  1  0  0  0  0
 25 26  1  0  0  0  0
 27 26  1  0  0  0  0
 27 18  1  0  0  0  0
 28 29  1  0  0  0  0
 30 36  1  6  0  0  0
 30 31  1  0  0  0  0
 31 33  1  0  0  0  0
 33 32  1  1  0  0  0
 34 33  1  0  0  0  0
 35 34  1  0  0  0  0
 38 54  1  1  0  0  0
 38 39  1  0  0  0  0
 39 42  1  0  0  0  0
 39 37  1  1  0  0  0
 40 41  1  6  0  0  0
 40 43  1  0  0  0  0
 41 38  1  0  0  0  0
 43 42  1  0  0  0  0
 43 36  1  1  0  0  0
 46 45  1  0  0  0  0
 47 49  1  6  0  0  0
 47 44  1  0  0  0  0
 47 46  1  0  0  0  0
 48 44  1  6  0  0  0
 48 45  1  0  0  0  0
 48 40  1  0  0  0  0
 50 52  1  0  0  0  0
 50 49  1  0  0  0  0
 51 50  1  0  0  0  0
 53 54  1  0  0  0  0
 55 54  1  0  0  0  0
M  END
>  <MODEL>
6

>  <REMARK>
 VINA RESULT:      -4.7      3.553      9.248
  Name = 
  23 active torsions:
  status: ('A' for Active; 'I' for Inactive)
    1  A    between atoms: C_1  and  C_21
    2  A    between atoms: C_1  and  O_29
    3  A    between atoms: C_1  and  C_38
    4  A    between atoms: C_1  and  C_53
    5  A    between atoms: C_2  and  C_19
    6  A    between atoms: C_2  and  C_28
    7  A    between atoms: C_2  and  C_44
    8  A    between atoms: C_4  and  C_40
    9  A    between atoms: C_8  and  C_20
   10  A    between atoms: C_8  and  O_43
   11  A    between atoms: N_10  and  C_32
   12  A    between atoms: C_16  and  N_17
   13  A    between atoms: C_19  and  C_40
   14  A    between atoms: C_20  and  C_42
   15  A    between atoms: C_21  and  C_42
   16  A    between atoms: C_27  and  C_31
   17  A    between atoms: C_28  and  C_49
   18  A    between atoms: C_31  and  C_54
   19  A    between atoms: C_32  and  C_48
   20  A    between atoms: C_33  and  C_52
   21  A    between atoms: S_35  and  O_43
   22  A    between atoms: S_35  and  C_51
   23  A    between atoms: C_51  and  C_54
                            x       y       z     vdW  Elec       q    Type
                         _______ _______ _______ _____ _____    ______ ____

>  <TORSDO>
F 23

$$$$
=
 OpenBabel10272401403D

 55 59  0  0  1  0  0  0  0  0999 V2000
  184.6560  179.9760  144.5470 O   0  0  0  0  0  0  0  0  0  0  0  0
  183.5500  178.3900  143.1630 C   0  0  1  0  0  3  0  0  0  0  0  0
  183.4670  180.5690  144.1010 C   0  0  0  0  0  2  0  0  0  0  0  0
  184.8800  178.8970  143.6760 C   0  0  2  0  0  3  0  0  0  0  0  0
  182.5900  179.4930  143.5070 C   0  0  0  0  0  2  0  0  0  0  0  0
  183.6220  178.2040  141.6580 C   0  0  0  0  0  2  0  0  0  0  0  0
  182.2220  178.0860  141.0870 C   0  0  0  0  0  2  0  0  0  0  0  0
  182.2840  177.7000  139.6220 C   0  0  0  0  0  2  0  0  0  0  0  0
  182.4300  179.1850  138.5820 S   0  0  0  0  0  0  0  0  0  0  0  0
  183.2850  178.3400  137.3540 O   0  0  0  0  0  0  0  0  0  0  0  0
  182.7080  177.0670  137.3280 C   0  0  0  0  0  2  0  0  0  0  0  0
  181.9730  175.3590  135.8500 O   0  0  0  0  0  1  0  0  0  0  0  0
  182.8260  176.4600  135.9350 C   0  0  0  0  0  0  0  0  0  0  0  0
  182.4430  177.3950  134.9740 O   0  0  0  0  0  1  0  0  0  0  0  0
  184.2530  175.9680  135.6620 C   0  0  0  0  0  2  0  0  0  0  0  0
  184.9070  175.0140  136.6830 C   0  0  2  0  0  3  0  0  0  0  0  0
  185.5540  175.6900  137.7200 O   0  0  0  0  0  1  0  0  0  0  0  0
  185.7120  173.7840  136.1610 C   0  0  2  0  0  0  0  0  0  0  0  0
  188.2730  172.6830  136.8650 O   0  0  0  0  0  1  0  0  0  0  0  0
  187.9320  175.0800  136.4510 C   0  0  1  0  0  3  0  0  0  0  0  0
  189.3820  173.5820  134.8250 C   0  0  0  0  0  1  0  0  0  0  0  0
  188.3310  173.7080  135.9190 C   0  0  1  0  0  0  0  0  0  0  0  0
  188.6030  176.2230  135.7100 C   0  0  0  0  0  1  0  0  0  0  0  0
  187.0040  174.3270  135.4880 C   0  0  1  0  0  3  0  0  0  0  0  0
  183.6900  172.3100  135.5560 C   0  0  0  0  0  2  0  0  0  0  0  0
  184.9270  171.5310  135.1630 C   0  0  0  0  0  2  0  0  0  0  0  0
  184.9150  173.0470  135.0410 C   0  0  0  0  0  3  0  0  0  0  0  0
  186.0580  172.9240  137.2450 O   0  0  0  0  0  0  0  0  0  0  0  0
  185.1840  173.1020  138.2210 O   0  0  0  0  0  1  0  0  0  0  0  0
  185.6770  177.7810  144.3550 C   0  0  2  0  0  3  0  0  0  0  0  0
  186.7160  178.3160  145.3400 C   0  0  0  0  0  2  0  0  0  0  0  0
  185.0180  177.9800  146.9690 O   0  0  0  0  0  1  0  0  0  0  0  0
  186.3950  177.8940  146.7650 C   0  0  2  0  0  3  0  0  0  0  0  0
  187.1170  178.8020  147.7480 C   0  0  0  0  0  2  0  0  0  0  0  0
  186.3900  180.1260  147.8720 C   0  0  0  0  0  1  0  0  0  0  0  0
  186.3550  176.9260  143.2990 C   0  0  0  0  0  2  0  0  0  0  0  0
  186.2690  178.7820  139.2510 C   0  0  0  0  0  1  0  0  0  0  0  0
  188.5200  177.6020  139.8230 C   0  0  2  0  0  3  0  0  0  0  0  0
  187.0780  177.9870  140.2620 C   0  0  1  0  0  3  0  0  0  0  0  0
  188.5960  176.6360  142.1950 C   0  0  2  0  0  3  0  0  0  0  0  0
  189.4000  177.2050  141.0180 C   0  0  0  0  0  2  0  0  0  0  0  0
  187.0720  178.6470  141.6330 C   0  0  0  0  0  2  0  0  0  0  0  0
  187.5530  177.6600  142.7080 C   0  0  1  0  0  3  0  0  0  0  0  0
  189.7310  177.2980  144.3480 C   0  0  0  0  0  2  0  0  0  0  0  0
  190.9580  175.9400  142.8030 C   0  0  0  0  0  2  0  0  0  0  0  0
  191.8890  176.3810  143.8280 N   0  0  0  0  0  2  0  0  0  0  0  0
  191.2250  177.4920  144.4960 C   0  0  2  0  0  3  0  0  0  0  0  0
  189.5550  176.2040  143.3160 C   0  0  2  0  0  3  0  0  0  0  0  0
  191.5990  177.5170  145.9690 C   0  0  0  0  0  2  0  0  0  0  0  0
  191.1510  176.2980  146.6270 N   0  0  0  0  0  0  0  0  0  0  0  0
  190.1430  176.6950  147.5930 C   0  0  0  0  0  1  0  0  0  0  0  0
  192.2760  175.7870  147.3900 C   0  0  0  0  0  1  0  0  0  0  0  0
  190.4680  178.0150  138.5090 C   0  0  0  0  0  1  0  0  0  0  0  0
  189.2420  178.6020  139.0230 N   0  0  0  0  0  0  0  0  0  0  0  0
  188.4850  178.9900  137.9660 O   0  0  0  0  0  1  0  0  0  0  0  0
  2  6  1  6  0  0  0
  2  5  1  0  0  0  0
  2  4  1  0  0  0  0
  3  1  1  0  0  0  0
  4 30  1  1  0  0  0
  4  1  1  0  0  0  0
  5  3  1  0  0  0  0
  7  6  1  0  0  0  0
  8  7  1  0  0  0  0
  9  8  1  0  0  0  0
 10  9  1  0  0  0  0
 11 10  1  0  0  0  0
 12 13  1  0  0  0  0
 13 11  1  0  0  0  0
 14 13  1  0  0  0  0
 15 13  1  0  0  0  0
 15 16  1  0  0  0  0
 16 17  1  6  0  0  0
 18 16  1  0  0  0  0
 18 28  1  1  0  0  0
 20 23  1  6  0  0  0
 22 21  1  6  0  0  0
 22 20  1  0  0  0  0
 22 19  1  0  0  0  0
 24 22  1  0  0  0  0
 24 18  1  1  0  0  0
 24 20  1  0  0  0  0
 26 25  1  0  0  0  0
 27 26  1  0  0  0  0
 27 25  1  0  0  0  0
 27 18  1  0  0  0  0
 28 29  1  0  0  0  0
 30 36  1  6  0  0  0
 30 31  1  0  0  0  0
 31 33  1  0  0  0  0
 33 32  1  1  0  0  0
 33 34  1  0  0  0  0
 34 35  1  0  0  0  0
 38 54  1  1  0  0  0
 38 39  1  0  0  0  0
 38 41  1  0  0  0  0
 39 37  1  6  0  0  0
 39 42  1  0  0  0  0
 40 41  1  6  0  0  0
 40 43  1  0  0  0  0
 40 48  1  0  0  0  0
 42 43  1  0  0  0  0
 43 36  1  6  0  0  0
 44 47  1  0  0  0  0
 45 46  1  0  0  0  0
 46 47  1  0  0  0  0
 47 49  1  1  0  0  0
 48 45  1  6  0  0  0
 48 44  1  0  0  0  0
 49 50  1  0  0  0  0
 50 52  1  0  0  0  0
 50 51  1  0  0  0  0
 53 54  1  0  0  0  0
 55 54  1  0  0  0  0
M  END
>  <MODEL>
7

>  <REMARK>
 VINA RESULT:      -4.2      3.164      9.662
  Name = 
  23 active torsions:
  status: ('A' for Active; 'I' for Inactive)
    1  A    between atoms: C_1  and  C_21
    2  A    between atoms: C_1  and  O_29
    3  A    between atoms: C_1  and  C_38
    4  A    between atoms: C_1  and  C_53
    5  A    between atoms: C_2  and  C_19
    6  A    between atoms: C_2  and  C_28
    7  A    between atoms: C_2  and  C_44
    8  A    between atoms: C_4  and  C_40
    9  A    between atoms: C_8  and  C_20
   10  A    between atoms: C_8  and  O_43
   11  A    between atoms: N_10  and  C_32
   12  A    between atoms: C_16  and  N_17
   13  A    between atoms: C_19  and  C_40
   14  A    between atoms: C_20  and  C_42
   15  A    between atoms: C_21  and  C_42
   16  A    between atoms: C_27  and  C_31
   17  A    between atoms: C_28  and  C_49
   18  A    between atoms: C_31  and  C_54
   19  A    between atoms: C_32  and  C_48
   20  A    between atoms: C_33  and  C_52
   21  A    between atoms: S_35  and  O_43
   22  A    between atoms: S_35  and  C_51
   23  A    between atoms: C_51  and  C_54
                            x       y       z     vdW  Elec       q    Type
                         _______ _______ _______ _____ _____    ______ ____

>  <TORSDO>
F 23

$$$$
=
 OpenBabel10272401403D

 55 59  0  0  1  0  0  0  0  0999 V2000
  191.7990  177.9380  140.6170 O   0  0  0  0  0  0  0  0  0  0  0  0
  189.9720  176.5210  141.1700 C   0  0  1  0  0  3  0  0  0  0  0  0
  191.8950  177.6480  141.9850 C   0  0  0  0  0  2  0  0  0  0  0  0
  190.4770  177.6230  140.2650 C   0  0  2  0  0  3  0  0  0  0  0  0
  190.9650  176.4990  142.2960 C   0  0  0  0  0  2  0  0  0  0  0  0
  188.5920  176.8810  141.6910 C   0  0  0  0  0  2  0  0  0  0  0  0
  188.4450  178.3900  141.7560 C   0  0  0  0  0  2  0  0  0  0  0  0
  187.3920  178.8570  140.7710 C   0  0  0  0  0  2  0  0  0  0  0  0
  185.7280  178.6370  141.4730 S   0  0  0  0  0  0  0  0  0  0  0  0
  185.0110  179.6730  140.3040 O   0  0  0  0  0  0  0  0  0  0  0  0
  184.2130  178.8310  139.5230 C   0  0  0  0  0  2  0  0  0  0  0  0
  182.1310  179.5510  140.4110 O   0  0  0  0  0  1  0  0  0  0  0  0
  182.8720  179.4950  139.2310 C   0  0  0  0  0  0  0  0  0  0  0  0
  183.0750  180.7960  138.7710 O   0  0  0  0  0  1  0  0  0  0  0  0
  182.0620  178.6870  138.2080 C   0  0  0  0  0  2  0  0  0  0  0  0
  182.7730  177.5510  137.4430 C   0  0  2  0  0  3  0  0  0  0  0  0
  183.0550  177.8840  136.1170 O   0  0  0  0  0  1  0  0  0  0  0  0
  182.2570  176.0890  137.6090 C   0  0  2  0  0  0  0  0  0  0  0  0
  181.6280  173.2940  137.3640 O   0  0  0  0  0  1  0  0  0  0  0  0
  183.6900  174.2700  136.4570 C   0  0  1  0  0  3  0  0  0  0  0  0
  181.7890  173.3260  134.8810 C   0  0  0  0  0  1  0  0  0  0  0  0
  182.2430  173.8430  136.2380 C   0  0  1  0  0  0  0  0  0  0  0  0
  184.5250  174.2150  135.1890 C   0  0  0  0  0  1  0  0  0  0  0  0
  182.5910  175.3280  136.2950 C   0  0  1  0  0  3  0  0  0  0  0  0
  179.9860  176.4680  136.4570 C   0  0  0  0  0  2  0  0  0  0  0  0
  180.0530  177.4420  137.6140 C   0  0  0  0  0  2  0  0  0  0  0  0
  180.7030  176.0720  137.7380 C   0  0  0  0  0  3  0  0  0  0  0  0
  182.9060  175.4580  138.7100 O   0  0  0  0  0  0  0  0  0  0  0  0
  182.3000  175.8260  139.8260 O   0  0  0  0  0  1  0  0  0  0  0  0
  190.3650  177.2270  138.7900 C   0  0  2  0  0  3  0  0  0  0  0  0
  188.9830  177.5140  138.2080 C   0  0  0  0  0  2  0  0  0  0  0  0
  188.9640  179.8380  137.7080 O   0  0  0  0  0  1  0  0  0  0  0  0
  189.0500  178.5750  137.1210 C   0  0  2  0  0  3  0  0  0  0  0  0
  187.9030  178.3860  136.1410 C   0  0  0  0  0  2  0  0  0  0  0  0
  186.6450  177.9700  136.8780 C   0  0  0  0  0  1  0  0  0  0  0  0
  190.7000  175.7550  138.6320 C   0  0  0  0  0  2  0  0  0  0  0  0
  187.6140  172.9990  136.9840 C   0  0  0  0  0  1  0  0  0  0  0  0
  189.9990  172.6170  136.0080 C   0  0  2  0  0  3  0  0  0  0  0  0
  189.0750  173.4120  136.9750 C   0  0  1  0  0  3  0  0  0  0  0  0
  191.7410  174.2810  136.8810 C   0  0  2  0  0  3  0  0  0  0  0  0
  191.3180  173.3550  135.7310 C   0  0  0  0  0  2  0  0  0  0  0  0
  189.2350  174.9130  136.7880 C   0  0  0  0  0  2  0  0  0  0  0  0
  190.6600  175.3540  137.1630 C   0  0  1  0  0  3  0  0  0  0  0  0
  193.9680  173.9990  135.7290 C   0  0  0  0  0  2  0  0  0  0  0  0
  193.9180  175.2040  137.7980 C   0  0  0  0  0  2  0  0  0  0  0  0
  195.3130  174.9700  137.4640 N   0  0  0  0  0  2  0  0  0  0  0  0
  195.2950  173.9230  136.4520 C   0  0  2  0  0  3  0  0  0  0  0  0
  193.0980  174.9250  136.5530 C   0  0  2  0  0  3  0  0  0  0  0  0
  196.4330  174.1280  135.4660 C   0  0  0  0  0  2  0  0  0  0  0  0
  197.1520  175.3560  135.7690 N   0  0  0  0  0  0  0  0  0  0  0  0
  197.0650  176.1900  134.5850 C   0  0  0  0  0  1  0  0  0  0  0  0
  198.5520  175.0030  135.9240 C   0  0  0  0  0  1  0  0  0  0  0  0
  189.8340  170.8800  134.3800 C   0  0  0  0  0  1  0  0  0  0  0  0
  189.4040  172.2270  134.7200 N   0  0  0  0  0  0  0  0  0  0  0  0
  188.0500  172.2270  134.8120 O   0  0  0  0  0  1  0  0  0  0  0  0
  1  3  1  0  0  0  0
  2  6  1  1  0  0  0
  2  5  1  0  0  0  0
  3  5  1  0  0  0  0
  4 30  1  6  0  0  0
  4  1  1  0  0  0  0
  4  2  1  0  0  0  0
  6  7  1  0  0  0  0
  8  9  1  0  0  0  0
  8  7  1  0  0  0  0
 10  9  1  0  0  0  0
 11 10  1  0  0  0  0
 13 11  1  0  0  0  0
 13 12  1  0  0  0  0
 14 13  1  0  0  0  0
 15 13  1  0  0  0  0
 16 17  1  6  0  0  0
 16 18  1  0  0  0  0
 16 15  1  0  0  0  0
 18 27  1  0  0  0  0
 18 28  1  1  0  0  0
 20 23  1  6  0  0  0
 22 21  1  6  0  0  0
 22 24  1  0  0  0  0
 22 20  1  0  0  0  0
 22 19  1  0  0  0  0
 24 20  1  0  0  0  0
 24 18  1  1  0  0  0
 25 26  1  0  0  0  0
 25 27  1  0  0  0  0
 26 27  1  0  0  0  0
 28 29  1  0  0  0  0
 30 31  1  1  0  0  0
 33 32  1  1  0  0  0
 33 31  1  0  0  0  0
 34 35  1  0  0  0  0
 34 33  1  0  0  0  0
 36 30  1  0  0  0  0
 38 54  1  6  0  0  0
 38 39  1  0  0  0  0
 39 37  1  6  0  0  0
 40 41  1  6  0  0  0
 40 43  1  0  0  0  0
 41 38  1  0  0  0  0
 42 39  1  0  0  0  0
 42 43  1  0  0  0  0
 43 36  1  1  0  0  0
 44 47  1  0  0  0  0
 46 45  1  0  0  0  0
 47 49  1  6  0  0  0
 47 46  1  0  0  0  0
 48 44  1  6  0  0  0
 48 40  1  0  0  0  0
 48 45  1  0  0  0  0
 49 50  1  0  0  0  0
 50 52  1  0  0  0  0
 51 50  1  0  0  0  0
 53 54  1  0  0  0  0
 54 55  1  0  0  0  0
M  END
>  <MODEL>
8

>  <REMARK>
 VINA RESULT:      -4.2      3.360      8.049
  Name = 
  23 active torsions:
  status: ('A' for Active; 'I' for Inactive)
    1  A    between atoms: C_1  and  C_21
    2  A    between atoms: C_1  and  O_29
    3  A    between atoms: C_1  and  C_38
    4  A    between atoms: C_1  and  C_53
    5  A    between atoms: C_2  and  C_19
    6  A    between atoms: C_2  and  C_28
    7  A    between atoms: C_2  and  C_44
    8  A    between atoms: C_4  and  C_40
    9  A    between atoms: C_8  and  C_20
   10  A    between atoms: C_8  and  O_43
   11  A    between atoms: N_10  and  C_32
   12  A    between atoms: C_16  and  N_17
   13  A    between atoms: C_19  and  C_40
   14  A    between atoms: C_20  and  C_42
   15  A    between atoms: C_21  and  C_42
   16  A    between atoms: C_27  and  C_31
   17  A    between atoms: C_28  and  C_49
   18  A    between atoms: C_31  and  C_54
   19  A    between atoms: C_32  and  C_48
   20  A    between atoms: C_33  and  C_52
   21  A    between atoms: S_35  and  O_43
   22  A    between atoms: S_35  and  C_51
   23  A    between atoms: C_51  and  C_54
                            x       y       z     vdW  Elec       q    Type
                         _______ _______ _______ _____ _____    ______ ____

>  <TORSDO>
F 23

$$$$
=
 OpenBabel10272401403D

 55 59  0  0  1  0  0  0  0  0999 V2000
  184.2710  177.6800  141.8660 O   0  0  0  0  0  0  0  0  0  0  0  0
  184.8260  179.4880  140.4250 C   0  0  1  0  0  3  0  0  0  0  0  0
  185.6060  178.0230  142.1220 C   0  0  0  0  0  2  0  0  0  0  0  0
  183.9760  178.2520  140.6170 C   0  0  2  0  0  3  0  0  0  0  0  0
  185.8870  179.3610  141.4800 C   0  0  0  0  0  2  0  0  0  0  0  0
  185.4530  179.4650  139.0420 C   0  0  0  0  0  2  0  0  0  0  0  0
  185.9640  178.0710  138.7330 C   0  0  0  0  0  2  0  0  0  0  0  0
  187.4350  177.9630  139.0800 C   0  0  0  0  0  2  0  0  0  0  0  0
  188.4140  177.6190  137.5860 S   0  0  0  0  0  0  0  0  0  0  0  0
  189.7170  176.9600  138.4920 O   0  0  0  0  0  0  0  0  0  0  0  0
  189.4060  177.2450  139.8240 C   0  0  0  0  0  2  0  0  0  0  0  0
  190.7210  175.7860  141.1590 O   0  0  0  0  0  1  0  0  0  0  0  0
  190.6460  177.1010  140.7000 C   0  0  0  0  0  0  0  0  0  0  0  0
  191.7910  177.3780  139.9540 O   0  0  0  0  0  1  0  0  0  0  0  0
  190.5710  178.0210  141.9250 C   0  0  0  0  0  2  0  0  0  0  0  0
  189.3300  177.9280  142.8380 C   0  0  2  0  0  3  0  0  0  0  0  0
  188.5600  179.0930  142.8260 O   0  0  0  0  0  1  0  0  0  0  0  0
  189.4830  177.3120  144.2620 C   0  0  2  0  0  0  0  0  0  0  0  0
  188.9140  176.3510  146.9120 O   0  0  0  0  0  1  0  0  0  0  0  0
  187.2540  177.5490  145.5550 C   0  0  1  0  0  3  0  0  0  0  0  0
  188.2780  178.6070  147.7500 C   0  0  0  0  0  1  0  0  0  0  0  0
  188.3460  177.5920  146.6190 C   0  0  1  0  0  0  0  0  0  0  0  0
  186.2260  178.6550  145.7120 C   0  0  0  0  0  1  0  0  0  0  0  0
  188.6210  178.1680  145.2320 C   0  0  1  0  0  3  0  0  0  0  0  0
  191.8130  176.2310  144.4350 C   0  0  0  0  0  2  0  0  0  0  0  0
  191.3340  176.4590  145.8530 C   0  0  0  0  0  2  0  0  0  0  0  0
  190.9550  177.4440  144.7580 C   0  0  0  0  0  3  0  0  0  0  0  0
  189.0200  175.9630  144.2690 O   0  0  0  0  0  0  0  0  0  0  0  0
  188.1740  175.8010  143.2660 O   0  0  0  0  0  1  0  0  0  0  0  0
  182.4850  178.5740  140.4840 C   0  0  2  0  0  3  0  0  0  0  0  0
  181.6970  178.2470  141.7510 C   0  0  0  0  0  2  0  0  0  0  0  0
  180.8480  180.4570  141.5430 O   0  0  0  0  0  1  0  0  0  0  0  0
  180.4900  179.1580  141.9020 C   0  0  2  0  0  3  0  0  0  0  0  0
  180.0040  179.1390  143.3420 C   0  0  0  0  0  2  0  0  0  0  0  0
  180.8190  178.1570  144.1590 C   0  0  0  0  0  1  0  0  0  0  0  0
  181.9060  177.8170  139.3020 C   0  0  0  0  0  2  0  0  0  0  0  0
  180.2410  181.9240  138.8580 C   0  0  0  0  0  1  0  0  0  0  0  0
  179.9920  180.4490  136.7250 C   0  0  2  0  0  3  0  0  0  0  0  0
  180.4800  180.5780  138.1970 C   0  0  1  0  0  3  0  0  0  0  0  0
  181.0520  178.1280  136.9570 C   0  0  2  0  0  3  0  0  0  0  0  0
  180.6430  179.2590  136.0030 C   0  0  0  0  0  2  0  0  0  0  0  0
  181.9260  180.1270  138.3440 C   0  0  0  0  0  2  0  0  0  0  0  0
  182.0590  178.6300  138.0220 C   0  0  1  0  0  3  0  0  0  0  0  0
  180.7310  175.7380  136.2150 C   0  0  0  0  0  2  0  0  0  0  0  0
  182.9570  176.4730  136.7030 C   0  0  0  0  0  2  0  0  0  0  0  0
  183.0020  175.0300  136.5390 N   0  0  0  0  0  2  0  0  0  0  0  0
  181.6180  174.5890  136.6440 C   0  0  2  0  0  3  0  0  0  0  0  0
  181.6300  176.9540  136.1490 C   0  0  2  0  0  3  0  0  0  0  0  0
  181.3810  173.3890  135.7410 C   0  0  0  0  0  2  0  0  0  0  0  0
  181.9290  172.1840  136.3450 N   0  0  0  0  0  0  0  0  0  0  0  0
  182.0450  171.2040  135.2810 C   0  0  0  0  0  1  0  0  0  0  0  0
  180.9280  171.6760  137.2670 C   0  0  0  0  0  1  0  0  0  0  0  0
  180.1700  182.8280  136.7290 C   0  0  0  0  0  1  0  0  0  0  0  0
  180.1460  181.6460  135.8850 N   0  0  0  0  0  0  0  0  0  0  0  0
  181.3170  181.5900  135.2020 O   0  0  0  0  0  1  0  0  0  0  0  0
  1  3  1  0  0  0  0
  2  6  1  6  0  0  0
  2  4  1  0  0  0  0
  2  5  1  0  0  0  0
  4 30  1  1  0  0  0
  4  1  1  0  0  0  0
  5  3  1  0  0  0  0
  7  6  1  0  0  0  0
  7  8  1  0  0  0  0
  9 10  1  0  0  0  0
  9  8  1  0  0  0  0
 10 11  1  0  0  0  0
 11 13  1  0  0  0  0
 13 12  1  0  0  0  0
 13 15  1  0  0  0  0
 14 13  1  0  0  0  0
 15 16  1  0  0  0  0
 16 17  1  1  0  0  0
 16 18  1  0  0  0  0
 18 28  1  1  0  0  0
 18 27  1  0  0  0  0
 20 23  1  1  0  0  0
 20 22  1  0  0  0  0
 22 19  1  0  0  0  0
 22 21  1  1  0  0  0
 24 18  1  6  0  0  0
 24 20  1  0  0  0  0
 24 22  1  0  0  0  0
 25 27  1  0  0  0  0
 25 26  1  0  0  0  0
 27 26  1  0  0  0  0
 29 28  1  0  0  0  0
 30 36  1  6  0  0  0
 30 31  1  0  0  0  0
 31 33  1  0  0  0  0
 33 32  1  1  0  0  0
 33 34  1  0  0  0  0
 34 35  1  0  0  0  0
 38 54  1  6  0  0  0
 38 39  1  0  0  0  0
 39 42  1  0  0  0  0
 39 37  1  6  0  0  0
 40 41  1  6  0  0  0
 40 43  1  0  0  0  0
 41 38  1  0  0  0  0
 43 42  1  0  0  0  0
 43 36  1  1  0  0  0
 44 47  1  0  0  0  0
 46 47  1  0  0  0  0
 46 45  1  0  0  0  0
 47 49  1  6  0  0  0
 48 44  1  1  0  0  0
 48 45  1  0  0  0  0
 48 40  1  0  0  0  0
 49 50  1  0  0  0  0
 50 52  1  0  0  0  0
 51 50  1  0  0  0  0
 54 53  1  0  0  0  0
 55 54  1  0  0  0  0
M  END
>  <MODEL>
9

>  <REMARK>
 VINA RESULT:      -3.9      3.295      6.052
  Name = 
  23 active torsions:
  status: ('A' for Active; 'I' for Inactive)
    1  A    between atoms: C_1  and  C_21
    2  A    between atoms: C_1  and  O_29
    3  A    between atoms: C_1  and  C_38
    4  A    between atoms: C_1  and  C_53
    5  A    between atoms: C_2  and  C_19
    6  A    between atoms: C_2  and  C_28
    7  A    between atoms: C_2  and  C_44
    8  A    between atoms: C_4  and  C_40
    9  A    between atoms: C_8  and  C_20
   10  A    between atoms: C_8  and  O_43
   11  A    between atoms: N_10  and  C_32
   12  A    between atoms: C_16  and  N_17
   13  A    between atoms: C_19  and  C_40
   14  A    between atoms: C_20  and  C_42
   15  A    between atoms: C_21  and  C_42
   16  A    between atoms: C_27  and  C_31
   17  A    between atoms: C_28  and  C_49
   18  A    between atoms: C_31  and  C_54
   19  A    between atoms: C_32  and  C_48
   20  A    between atoms: C_33  and  C_52
   21  A    between atoms: S_35  and  O_43
   22  A    between atoms: S_35  and  C_51
   23  A    between atoms: C_51  and  C_54
                            x       y       z     vdW  Elec       q    Type
                         _______ _______ _______ _____ _____    ______ ____

>  <TORSDO>
F 23

$$$$
