=
 OpenBabel10262423483D

 34 38  0  0  1  0  0  0  0  0999 V2000
  181.7520  178.9110  143.0890 C   0  0  0  0  0  0  0  0  0  0  0  0
  184.2390  178.4250  142.9330 C   0  0  0  0  0  0  0  0  0  0  0  0
  182.7940  176.1490  135.5650 S   0  0  0  0  0  1  0  0  0  0  0  0
  183.0170  179.1960  140.9630 C   0  0  0  0  0  0  0  0  0  0  0  0
  183.8470  180.7420  138.2790 C   0  0  0  0  0  2  0  0  0  0  0  0
  179.9820  177.1860  142.0560 Cl  0  0  0  0  0  0  0  0  0  0  0  0
  180.3070  177.8130  136.8680 C   0  0  0  0  0  0  0  0  0  0  0  0
  180.2330  178.5040  135.6530 C   0  0  0  0  0  3  0  0  0  0  0  0
  184.3410  178.0200  144.3650 C   0  0  0  0  0  1  0  0  0  0  0  0
  185.3480  178.6540  140.8390 N   0  0  0  0  0  0  0  0  0  0  0  0
  181.7670  174.4070  137.1850 F   0  0  0  0  0  0  0  0  0  0  0  0
  180.9650  179.8590  138.0010 C   0  0  0  0  0  0  0  0  0  0  0  0
  183.7830  176.9640  138.1990 O   0  0  0  0  0  0  0  0  0  0  0  0
  181.8410  175.7850  137.0820 C   0  0  2  0  0  0  0  0  0  0  0  0
  183.0320  178.8470  142.3360 C   0  0  0  0  0  0  0  0  0  0  0  0
  180.4870  179.8820  135.6200 C   0  0  0  0  0  3  0  0  0  0  0  0
  183.5140  178.3030  137.8850 C   0  0  0  0  0  2  0  0  0  0  0  0
  184.3070  179.3250  138.7030 C   0  0  1  0  0  0  0  0  0  0  0  0
  181.7270  178.9630  144.3470 O   0  0  0  0  0  0  0  0  0  0  0  0
  181.7480  179.6930  140.3640 C   0  0  0  0  0  0  0  0  0  0  0  0
  180.5980  178.5120  138.0310 C   0  0  0  0  0  3  0  0  0  0  0  0
  180.4600  178.8780  142.3370 C   0  0  2  0  0  3  0  0  0  0  0  0
  185.3850  178.3390  142.1550 C   0  0  0  0  0  3  0  0  0  0  0  0
  182.7090  181.3180  138.9040 O   0  0  0  0  0  0  0  0  0  0  0  0
  180.8940  180.5510  136.7840 C   0  0  0  0  0  3  0  0  0  0  0  0
  181.7640  180.3570  139.0950 N   0  0  0  0  0  0  0  0  0  0  0  0
  185.6410  179.2110  138.3030 O   0  0  0  0  0  1  0  0  0  0  0  0
  180.3920  176.3140  136.9150 C   0  0  0  0  0  2  0  0  0  0  0  0
  184.2170  179.0780  140.2080 C   0  0  0  0  0  0  0  0  0  0  0  0
  180.5850  179.5830  141.0210 C   0  0  0  0  0  3  0  0  0  0  0  0
  182.5140  176.3770  138.3680 C   0  0  1  0  0  3  0  0  0  0  0  0
  182.4490  175.4910  139.6140 C   0  0  0  0  0  2  0  0  0  0  0  0
  181.0700  175.4960  140.2580 C   0  0  0  0  0  2  0  0  0  0  0  0
  180.3780  174.3340  139.9190 O   0  0  0  0  0  1  0  0  0  0  0  0
  1 19  2  0  0  0  0
  2  9  1  0  0  0  0
  4 15  2  0  0  0  0
  5 18  1  0  0  0  0
  5 24  1  0  0  0  0
  7 28  1  0  0  0  0
  7 21  1  0  0  0  0
  8  7  2  0  0  0  0
 10 23  1  0  0  0  0
 12 21  2  0  0  0  0
 12 26  1  0  0  0  0
 13 31  1  0  0  0  0
 14  3  1  6  0  0  0
 14 11  1  0  0  0  0
 14 31  1  0  0  0  0
 15  2  1  0  0  0  0
 15  1  1  0  0  0  0
 16  8  1  0  0  0  0
 16 25  2  0  0  0  0
 17 13  1  0  0  0  0
 17 18  1  0  0  0  0
 18 27  1  6  0  0  0
 18 29  1  0  0  0  0
 20  4  1  0  0  0  0
 20 30  2  0  0  0  0
 22  6  1  6  0  0  0
 22  1  1  0  0  0  0
 23  2  2  0  0  0  0
 24 26  1  0  0  0  0
 25 12  1  0  0  0  0
 26 20  1  0  0  0  0
 28 14  1  0  0  0  0
 29 10  2  0  0  0  0
 29  4  1  0  0  0  0
 30 22  1  0  0  0  0
 31 32  1  1  0  0  0
 32 33  1  0  0  0  0
 34 33  1  0  0  0  0
M  END
>  <MODEL>
1

>  <REMARK>
 VINA RESULT:      -3.6      0.000      0.000
  Name = 
  2 active torsions:
  status: ('A' for Active; 'I' for Inactive)
    1  A    between atoms: C_20  and  C_22
    2  A    between atoms: C_20  and  C_34
                            x       y       z     vdW  Elec       q    Type
                         _______ _______ _______ _____ _____    ______ ____

>  <TORSDO>
F 2

$$$$
=
 OpenBabel10262423483D

 34 38  0  0  1  0  0  0  0  0999 V2000
  187.7720  177.1160  135.0600 C   0  0  0  0  0  0  0  0  0  0  0  0
  188.0790  175.2190  136.7190 C   0  0  0  0  0  0  0  0  0  0  0  0
  180.9900  177.1720  139.4580 S   0  0  0  0  0  1  0  0  0  0  0  0
  185.8500  175.7560  135.8730 C   0  0  0  0  0  0  0  0  0  0  0  0
  183.1310  174.0950  135.5180 C   0  0  0  0  0  2  0  0  0  0  0  0
  186.7410  179.4510  135.8720 Cl  0  0  0  0  0  0  0  0  0  0  0  0
  181.6310  178.5400  136.5650 C   0  0  0  0  0  0  0  0  0  0  0  0
  180.3320  178.1780  136.1920 C   0  0  0  0  0  3  0  0  0  0  0  0
  189.5530  175.4230  136.8180 C   0  0  0  0  0  1  0  0  0  0  0  0
  186.1730  174.0240  137.4960 N   0  0  0  0  0  0  0  0  0  0  0  0
  182.6690  179.0380  140.1020 F   0  0  0  0  0  0  0  0  0  0  0  0
  182.5410  177.0020  134.9170 C   0  0  0  0  0  0  0  0  0  0  0  0
  183.5980  176.0670  138.7080 O   0  0  0  0  0  0  0  0  0  0  0  0
  182.3780  178.2670  138.9900 C   0  0  2  0  0  0  0  0  0  0  0  0
  187.2460  176.0040  135.8950 C   0  0  0  0  0  0  0  0  0  0  0  0
  180.1360  177.2570  135.1540 C   0  0  0  0  0  3  0  0  0  0  0  0
  183.0530  175.5970  137.5060 C   0  0  0  0  0  2  0  0  0  0  0  0
  183.8250  174.4460  136.8570 C   0  0  1  0  0  0  0  0  0  0  0  0
  188.9890  177.1870  134.7450 O   0  0  0  0  0  0  0  0  0  0  0  0
  184.9950  176.5570  134.9550 C   0  0  0  0  0  0  0  0  0  0  0  0
  182.7100  178.0040  135.8750 C   0  0  0  0  0  3  0  0  0  0  0  0
  186.8410  178.1960  134.6120 C   0  0  2  0  0  3  0  0  0  0  0  0
  187.5100  174.2310  137.5110 C   0  0  0  0  0  3  0  0  0  0  0  0
  183.4800  174.8160  134.3460 O   0  0  0  0  0  0  0  0  0  0  0  0
  181.2390  176.6370  134.5460 C   0  0  0  0  0  3  0  0  0  0  0  0
  183.6610  176.1280  134.6610 N   0  0  0  0  0  0  0  0  0  0  0  0
  183.6590  173.3350  137.6880 O   0  0  0  0  0  1  0  0  0  0  0  0
  181.9110  179.2330  137.8680 C   0  0  0  0  0  2  0  0  0  0  0  0
  185.3180  174.7400  136.7140 C   0  0  0  0  0  0  0  0  0  0  0  0
  185.4720  177.6510  134.3460 C   0  0  0  0  0  3  0  0  0  0  0  0
  183.6510  177.4660  138.5520 C   0  0  1  0  0  3  0  0  0  0  0  0
  184.9880  178.0480  139.0160 C   0  0  0  0  0  2  0  0  0  0  0  0
  184.9930  178.3770  140.5020 C   0  0  0  0  0  2  0  0  0  0  0  0
  185.7890  179.4970  140.7420 O   0  0  0  0  0  1  0  0  0  0  0  0
  1 15  1  0  0  0  0
  2  9  1  0  0  0  0
  2 23  1  0  0  0  0
  4 15  1  0  0  0  0
  4 29  2  0  0  0  0
  5 18  1  0  0  0  0
  7 28  1  0  0  0  0
  8  7  1  0  0  0  0
 10 23  2  0  0  0  0
 12 21  1  0  0  0  0
 14  3  1  1  0  0  0
 14 11  1  0  0  0  0
 15  2  2  0  0  0  0
 16  8  2  0  0  0  0
 17 13  1  0  0  0  0
 18 17  1  0  0  0  0
 18 27  1  1  0  0  0
 19  1  2  0  0  0  0
 20  4  1  0  0  0  0
 21  7  2  0  0  0  0
 22  1  1  0  0  0  0
 22  6  1  1  0  0  0
 24 26  1  0  0  0  0
 24  5  1  0  0  0  0
 25 12  2  0  0  0  0
 25 16  1  0  0  0  0
 26 12  1  0  0  0  0
 26 20  1  0  0  0  0
 28 14  1  0  0  0  0
 29 18  1  0  0  0  0
 29 10  1  0  0  0  0
 30 22  1  0  0  0  0
 30 20  2  0  0  0  0
 31 13  1  0  0  0  0
 31 14  1  0  0  0  0
 31 32  1  1  0  0  0
 32 33  1  0  0  0  0
 33 34  1  0  0  0  0
M  END
>  <MODEL>
2

>  <REMARK>
 VINA RESULT:      -3.3      4.082      6.417
  Name = 
  2 active torsions:
  status: ('A' for Active; 'I' for Inactive)
    1  A    between atoms: C_20  and  C_22
    2  A    between atoms: C_20  and  C_34
                            x       y       z     vdW  Elec       q    Type
                         _______ _______ _______ _____ _____    ______ ____

>  <TORSDO>
F 2

$$$$
=
 OpenBabel10262423483D

 34 38  0  0  1  0  0  0  0  0999 V2000
  193.1800  175.4980  135.5860 C   0  0  0  0  0  0  0  0  0  0  0  0
  193.3650  175.6670  138.1120 C   0  0  0  0  0  0  0  0  0  0  0  0
  198.3170  169.6000  137.6240 S   0  0  0  0  0  1  0  0  0  0  0  0
  195.2900  174.9500  136.7890 C   0  0  0  0  0  0  0  0  0  0  0  0
  198.4650  175.0230  137.2340 C   0  0  0  0  0  2  0  0  0  0  0  0
  192.9700  173.0970  134.4150 Cl  0  0  0  0  0  0  0  0  0  0  0  0
  197.7510  170.9860  134.7240 C   0  0  0  0  0  0  0  0  0  0  0  0
  199.1300  170.8960  134.4980 C   0  0  0  0  0  3  0  0  0  0  0  0
  191.9520  176.1110  138.2760 C   0  0  0  0  0  1  0  0  0  0  0  0
  195.4010  175.0490  139.1800 N   0  0  0  0  0  0  0  0  0  0  0  0
  195.9260  168.7620  137.0810 F   0  0  0  0  0  0  0  0  0  0  0  0
  197.9050  173.4120  134.7340 C   0  0  0  0  0  0  0  0  0  0  0  0
  196.6050  171.8930  138.2510 O   0  0  0  0  0  0  0  0  0  0  0  0
  196.7230  169.8480  136.7630 C   0  0  2  0  0  0  0  0  0  0  0  0
  193.9430  175.3850  136.8560 C   0  0  0  0  0  0  0  0  0  0  0  0
  199.8890  172.0650  134.3500 C   0  0  0  0  0  3  0  0  0  0  0  0
  197.5210  172.7480  137.6230 C   0  0  0  0  0  2  0  0  0  0  0  0
  197.4390  174.2110  138.0640 C   0  0  1  0  0  0  0  0  0  0  0  0
  192.1300  176.1890  135.5040 O   0  0  0  0  0  0  0  0  0  0  0  0
  195.9000  174.7120  135.4510 C   0  0  0  0  0  0  0  0  0  0  0  0
  197.1500  172.2370  134.7650 C   0  0  0  0  0  3  0  0  0  0  0  0
  193.6480  174.7430  134.3830 C   0  0  2  0  0  3  0  0  0  0  0  0
  194.1240  175.4900  139.2610 C   0  0  0  0  0  3  0  0  0  0  0  0
  198.0870  175.5210  135.9600 O   0  0  0  0  0  0  0  0  0  0  0  0
  199.2860  173.3210  134.5100 C   0  0  0  0  0  3  0  0  0  0  0  0
  197.3210  174.5940  135.3210 N   0  0  0  0  0  0  0  0  0  0  0  0
  197.8830  174.2560  139.3880 O   0  0  0  0  0  1  0  0  0  0  0  0
  196.9600  169.8140  135.2300 C   0  0  0  0  0  2  0  0  0  0  0  0
  196.0190  174.7720  137.9980 C   0  0  0  0  0  0  0  0  0  0  0  0
  195.1430  174.6620  134.3470 C   0  0  0  0  0  3  0  0  0  0  0  0
  196.0090  171.1740  137.1960 C   0  0  1  0  0  3  0  0  0  0  0  0
  194.4890  171.0870  137.3440 C   0  0  0  0  0  2  0  0  0  0  0  0
  193.7890  170.8480  136.0130 C   0  0  0  0  0  2  0  0  0  0  0  0
  193.1770  169.5950  136.0120 O   0  0  0  0  0  1  0  0  0  0  0  0
  1 15  1  0  0  0  0
  2  9  1  0  0  0  0
  2 23  1  0  0  0  0
  4 15  1  0  0  0  0
  4 29  2  0  0  0  0
  5 18  1  0  0  0  0
  7 21  1  0  0  0  0
  7 28  1  0  0  0  0
  8  7  2  0  0  0  0
 10 23  2  0  0  0  0
 12 21  2  0  0  0  0
 12 26  1  0  0  0  0
 14 11  1  1  0  0  0
 14 31  1  0  0  0  0
 14  3  1  0  0  0  0
 15  2  2  0  0  0  0
 16  8  1  0  0  0  0
 16 25  2  0  0  0  0
 17 18  1  0  0  0  0
 17 13  1  0  0  0  0
 18 27  1  1  0  0  0
 19  1  2  0  0  0  0
 20  4  1  0  0  0  0
 22  6  1  1  0  0  0
 22  1  1  0  0  0  0
 24  5  1  0  0  0  0
 25 12  1  0  0  0  0
 26 20  1  0  0  0  0
 26 24  1  0  0  0  0
 28 14  1  0  0  0  0
 29 18  1  0  0  0  0
 29 10  1  0  0  0  0
 30 22  1  0  0  0  0
 30 20  2  0  0  0  0
 31 32  1  1  0  0  0
 31 13  1  0  0  0  0
 33 32  1  0  0  0  0
 34 33  1  0  0  0  0
M  END
>  <MODEL>
3

>  <REMARK>
 VINA RESULT:      -3.2     13.491     15.445
  Name = 
  2 active torsions:
  status: ('A' for Active; 'I' for Inactive)
    1  A    between atoms: C_20  and  C_22
    2  A    between atoms: C_20  and  C_34
                            x       y       z     vdW  Elec       q    Type
                         _______ _______ _______ _____ _____    ______ ____

>  <TORSDO>
F 2

$$$$
=
 OpenBabel10262423483D

 34 38  0  0  1  0  0  0  0  0999 V2000
  184.2500  178.3390  140.2090 C   0  0  0  0  0  0  0  0  0  0  0  0
  186.5080  178.1370  139.0670 C   0  0  0  0  0  0  0  0  0  0  0  0
  183.0830  172.8350  134.4060 S   0  0  0  0  0  1  0  0  0  0  0  0
  184.4530  177.8610  137.7730 C   0  0  0  0  0  0  0  0  0  0  0  0
  183.6890  178.2320  134.6810 C   0  0  0  0  0  2  0  0  0  0  0  0
  182.8150  176.1400  140.7400 Cl  0  0  0  0  0  0  0  0  0  0  0  0
  180.9180  174.5770  136.1170 C   0  0  0  0  0  0  0  0  0  0  0  0
  180.1820  174.6830  134.9320 C   0  0  0  0  0  3  0  0  0  0  0  0
  187.2670  178.3830  140.3260 C   0  0  0  0  0  1  0  0  0  0  0  0
  186.6040  177.6020  136.7490 N   0  0  0  0  0  0  0  0  0  0  0  0
  183.3240  171.8190  136.7770 F   0  0  0  0  0  0  0  0  0  0  0  0
  181.3240  176.9730  136.0890 C   0  0  0  0  0  0  0  0  0  0  0  0
  184.7200  174.7890  135.8490 O   0  0  0  0  0  0  0  0  0  0  0  0
  182.9410  173.0260  136.2190 C   0  0  2  0  0  0  0  0  0  0  0  0
  185.0990  178.1220  139.0080 C   0  0  0  0  0  0  0  0  0  0  0  0
  179.9830  175.9410  134.3460 C   0  0  0  0  0  3  0  0  0  0  0  0
  183.9680  175.8310  135.2910 C   0  0  0  0  0  2  0  0  0  0  0  0
  184.6740  177.1890  135.2660 C   0  0  1  0  0  0  0  0  0  0  0  0
  184.6960  178.9090  141.2400 O   0  0  0  0  0  0  0  0  0  0  0  0
  182.9660  177.9050  137.7190 C   0  0  0  0  0  0  0  0  0  0  0  0
  181.4130  175.7280  136.7150 C   0  0  0  0  0  3  0  0  0  0  0  0
  182.8410  177.8390  140.2070 C   0  0  2  0  0  3  0  0  0  0  0  0
  187.2360  177.8730  137.9150 C   0  0  0  0  0  3  0  0  0  0  0  0
  182.7650  178.8750  135.5470 O   0  0  0  0  0  0  0  0  0  0  0  0
  180.5880  177.0790  134.9000 C   0  0  0  0  0  3  0  0  0  0  0  0
  182.2960  177.9750  136.4550 N   0  0  0  0  0  0  0  0  0  0  0  0
  185.7190  177.0800  134.3460 O   0  0  0  0  0  1  0  0  0  0  0  0
  181.4530  173.2570  136.5940 C   0  0  0  0  0  2  0  0  0  0  0  0
  185.2480  177.5840  136.6260 C   0  0  0  0  0  0  0  0  0  0  0  0
  182.2350  177.9390  138.8410 C   0  0  0  0  0  3  0  0  0  0  0  0
  183.8490  174.1770  136.7730 C   0  0  1  0  0  3  0  0  0  0  0  0
  184.5340  173.8920  138.1110 C   0  0  0  0  0  2  0  0  0  0  0  0
  185.6240  172.8370  137.9910 C   0  0  0  0  0  2  0  0  0  0  0  0
  186.8230  173.4300  137.5950 O   0  0  0  0  0  1  0  0  0  0  0  0
  1 19  2  0  0  0  0
  2  9  1  0  0  0  0
  4 15  2  0  0  0  0
  5 18  1  0  0  0  0
  5 24  1  0  0  0  0
  7 28  1  0  0  0  0
  7 21  1  0  0  0  0
  8  7  2  0  0  0  0
 10 23  1  0  0  0  0
 12 26  1  0  0  0  0
 12 21  2  0  0  0  0
 13 31  1  0  0  0  0
 14  3  1  6  0  0  0
 14 28  1  0  0  0  0
 14 31  1  0  0  0  0
 14 11  1  0  0  0  0
 15  2  1  0  0  0  0
 15  1  1  0  0  0  0
 16 25  2  0  0  0  0
 16  8  1  0  0  0  0
 17 13  1  0  0  0  0
 18 27  1  6  0  0  0
 18 17  1  0  0  0  0
 18 29  1  0  0  0  0
 20  4  1  0  0  0  0
 20 30  2  0  0  0  0
 22  1  1  0  0  0  0
 22  6  1  6  0  0  0
 23  2  2  0  0  0  0
 24 26  1  0  0  0  0
 25 12  1  0  0  0  0
 26 20  1  0  0  0  0
 29 10  2  0  0  0  0
 29  4  1  0  0  0  0
 30 22  1  0  0  0  0
 31 32  1  1  0  0  0
 33 32  1  0  0  0  0
 34 33  1  0  0  0  0
M  END
>  <MODEL>
4

>  <REMARK>
 VINA RESULT:      -1.7      2.944      3.995
  Name = 
  2 active torsions:
  status: ('A' for Active; 'I' for Inactive)
    1  A    between atoms: C_20  and  C_22
    2  A    between atoms: C_20  and  C_34
                            x       y       z     vdW  Elec       q    Type
                         _______ _______ _______ _____ _____    ______ ____

>  <TORSDO>
F 2

$$$$
