=
 OpenBabel10272400533D

 25 27  0  0  1  0  0  0  0  0999 V2000
  189.2640  177.6310  145.6470 C   0  0  0  0  0  0  0  0  0  0  0  0
  188.0730  177.8890  144.8140 C   0  0  0  0  0  0  0  0  0  0  0  0
  187.9000  177.3070  147.6490 C   0  0  0  0  0  2  0  0  0  0  0  0
  190.3480  176.9270  145.3360 C   0  0  0  0  0  0  0  0  0  0  0  0
  186.7390  178.0570  146.9780 C   0  0  0  0  0  2  0  0  0  0  0  0
  191.0040  176.6050  146.5940 C   0  0  0  0  0  0  0  0  0  0  0  0
  185.6750  178.2960  144.6870 C   0  0  0  0  0  0  0  0  0  0  0  0
  184.3400  178.5050  145.3180 C   0  0  0  0  0  1  0  0  0  0  0  0
  188.1470  177.9360  143.4170 C   0  0  0  0  0  3  0  0  0  0  0  0
  189.2230  177.8490  147.1230 C   0  0  1  0  0  3  0  0  0  0  0  0
  190.3570  177.0730  147.6100 N   0  0  0  0  0  0  0  0  0  0  0  0
  185.7670  178.3420  143.2920 C   0  0  0  0  0  3  0  0  0  0  0  0
  186.9980  178.1560  142.6580 C   0  0  0  0  0  0  0  0  0  0  0  0
  186.8270  178.0600  145.4620 C   0  0  0  0  0  0  0  0  0  0  0  0
  192.6870  175.7410  148.1730 C   0  0  0  0  0  1  0  0  0  0  0  0
  192.1960  175.7200  146.7400 C   0  0  0  0  0  2  0  0  0  0  0  0
  191.7030  177.1560  143.2820 C   0  0  0  0  0  1  0  0  0  0  0  0
  190.6700  176.3160  144.0100 C   0  0  0  0  0  2  0  0  0  0  0  0
  187.0870  178.2230  141.1740 C   0  0  0  0  0  2  0  0  0  0  0  0
  188.5250  178.4680  140.7470 C   0  0  0  0  0  2  0  0  0  0  0  0
  188.9310  177.4890  139.6580 C   0  0  2  0  0  3  0  0  0  0  0  0
  190.0720  176.7110  140.1050 N   0  0  0  0  0  1  0  0  0  0  0  0
  189.2780  178.2090  138.3960 C   0  0  0  0  0  0  0  0  0  0  0  0
  188.9090  179.4010  138.2360 O   0  0  0  0  0  1  0  0  0  0  0  0
  190.0110  177.5730  137.4010 O   0  0  0  0  0  0  0  0  0  0  0  0
  1 10  1  0  0  0  0
  2 14  1  0  0  0  0
  2  1  1  0  0  0  0
  4  1  2  0  0  0  0
  4  6  1  0  0  0  0
  5  3  1  0  0  0  0
  6 16  1  0  0  0  0
  6 11  2  0  0  0  0
  7  8  1  0  0  0  0
  7 14  2  0  0  0  0
  9  2  2  0  0  0  0
 10 11  1  0  0  0  0
 10  3  1  1  0  0  0
 12  7  1  0  0  0  0
 13 12  2  0  0  0  0
 13  9  1  0  0  0  0
 14  5  1  0  0  0  0
 16 15  1  0  0  0  0
 17 18  1  0  0  0  0
 18  4  1  0  0  0  0
 19 13  1  0  0  0  0
 20 19  1  0  0  0  0
 21 22  1  1  0  0  0
 21 20  1  0  0  0  0
 23 21  1  0  0  0  0
 24 23  1  0  0  0  0
 25 23  2  0  0  0  0
M  END
>  <MODEL>
1

>  <REMARK>
 VINA RESULT:      -9.3      0.000      0.000
  Name = 
  6 active torsions:
  status: ('A' for Active; 'I' for Inactive)
    1  A    between atoms: C_2  and  CA_21
    2  A    between atoms: C_5  and  C_22
    3  A    between atoms: C_6  and  C_15
    4  A    between atoms: C_6  and  C_23
    5  A    between atoms: C_10  and  C_11
    6  A    between atoms: C_15  and  CA_21
                            x       y       z     vdW  Elec       q    Type
                         _______ _______ _______ _____ _____    ______ ____

>  <TORSDO>
F 6

$$$$
=
 OpenBabel10272400533D

 25 27  0  0  1  0  0  0  0  0999 V2000
  185.8850  177.8810  144.9730 C   0  0  0  0  0  0  0  0  0  0  0  0
  187.3100  177.5110  144.8620 C   0  0  0  0  0  0  0  0  0  0  0  0
  186.1940  178.7340  147.2410 C   0  0  0  0  0  2  0  0  0  0  0  0
  185.1050  178.4290  144.0470 C   0  0  0  0  0  0  0  0  0  0  0  0
  187.4900  177.9210  147.3700 C   0  0  0  0  0  2  0  0  0  0  0  0
  183.9620  178.9910  144.7520 C   0  0  0  0  0  0  0  0  0  0  0  0
  189.4730  177.2290  145.9450 C   0  0  0  0  0  0  0  0  0  0  0  0
  190.3560  177.2490  147.1480 C   0  0  0  0  0  1  0  0  0  0  0  0
  187.8830  177.1420  143.6400 C   0  0  0  0  0  3  0  0  0  0  0  0
  185.2320  178.0090  146.3080 C   0  0  1  0  0  3  0  0  0  0  0  0
  184.0440  178.8060  146.0280 N   0  0  0  0  0  0  0  0  0  0  0  0
  190.0290  176.8610  144.7160 C   0  0  0  0  0  3  0  0  0  0  0  0
  189.2390  176.8240  143.5650 C   0  0  0  0  0  0  0  0  0  0  0  0
  188.1080  177.5670  146.0290 C   0  0  0  0  0  0  0  0  0  0  0  0
  181.6870  178.9440  143.8070 C   0  0  0  0  0  1  0  0  0  0  0  0
  182.8860  179.8140  144.1270 C   0  0  0  0  0  2  0  0  0  0  0  0
  184.4710  178.0220  141.6930 C   0  0  0  0  0  1  0  0  0  0  0  0
  185.4610  178.7020  142.6200 C   0  0  0  0  0  2  0  0  0  0  0  0
  189.8380  176.4140  142.2650 C   0  0  0  0  0  2  0  0  0  0  0  0
  189.9340  177.6110  141.3340 C   0  0  0  0  0  2  0  0  0  0  0  0
  189.4540  177.2410  139.9400 C   0  0  2  0  0  3  0  0  0  0  0  0
  190.5980  177.0120  139.0780 N   0  0  0  0  0  1  0  0  0  0  0  0
  188.6010  178.3240  139.3650 C   0  0  0  0  0  0  0  0  0  0  0  0
  187.4240  178.4800  139.7810 O   0  0  0  0  0  1  0  0  0  0  0  0
  189.1010  179.1650  138.3780 O   0  0  0  0  0  0  0  0  0  0  0  0
  1 10  1  0  0  0  0
  2  1  1  0  0  0  0
  2 14  1  0  0  0  0
  3  5  1  0  0  0  0
  4  6  1  0  0  0  0
  4  1  2  0  0  0  0
  6 11  2  0  0  0  0
  7 14  2  0  0  0  0
  7  8  1  0  0  0  0
  9  2  2  0  0  0  0
 10  3  1  1  0  0  0
 11 10  1  0  0  0  0
 12  7  1  0  0  0  0
 13  9  1  0  0  0  0
 13 12  2  0  0  0  0
 14  5  1  0  0  0  0
 15 16  1  0  0  0  0
 16  6  1  0  0  0  0
 17 18  1  0  0  0  0
 18  4  1  0  0  0  0
 19 13  1  0  0  0  0
 20 19  1  0  0  0  0
 21 22  1  6  0  0  0
 21 20  1  0  0  0  0
 23 24  1  0  0  0  0
 23 21  1  0  0  0  0
 25 23  2  0  0  0  0
M  END
>  <MODEL>
2

>  <REMARK>
 VINA RESULT:      -9.2      1.926      5.063
  Name = 
  6 active torsions:
  status: ('A' for Active; 'I' for Inactive)
    1  A    between atoms: C_2  and  CA_21
    2  A    between atoms: C_5  and  C_22
    3  A    between atoms: C_6  and  C_15
    4  A    between atoms: C_6  and  C_23
    5  A    between atoms: C_10  and  C_11
    6  A    between atoms: C_15  and  CA_21
                            x       y       z     vdW  Elec       q    Type
                         _______ _______ _______ _____ _____    ______ ____

>  <TORSDO>
F 6

$$$$
=
 OpenBabel10272400533D

 25 27  0  0  1  0  0  0  0  0999 V2000
  186.3330  177.7300  144.9690 C   0  0  0  0  0  0  0  0  0  0  0  0
  187.7530  177.3730  144.7810 C   0  0  0  0  0  0  0  0  0  0  0  0
  186.7310  178.4580  147.2670 C   0  0  0  0  0  2  0  0  0  0  0  0
  185.5150  178.3250  144.1060 C   0  0  0  0  0  0  0  0  0  0  0  0
  188.0330  177.6440  147.2990 C   0  0  0  0  0  2  0  0  0  0  0  0
  184.4000  178.8420  144.8870 C   0  0  0  0  0  0  0  0  0  0  0  0
  189.9590  177.0410  145.7590 C   0  0  0  0  0  0  0  0  0  0  0  0
  190.8890  176.9990  146.9250 C   0  0  0  0  0  1  0  0  0  0  0  0
  188.2770  177.0750  143.5180 C   0  0  0  0  0  3  0  0  0  0  0  0
  185.7340  177.7810  146.3350 C   0  0  1  0  0  3  0  0  0  0  0  0
  184.5340  178.5870  146.1470 N   0  0  0  0  0  0  0  0  0  0  0  0
  190.4650  176.7440  144.4910 C   0  0  0  0  0  3  0  0  0  0  0  0
  189.6300  176.7670  143.3710 C   0  0  0  0  0  0  0  0  0  0  0  0
  188.5980  177.3680  145.9160 C   0  0  0  0  0  0  0  0  0  0  0  0
  182.0950  178.8340  144.0160 C   0  0  0  0  0  1  0  0  0  0  0  0
  183.2980  179.6930  144.3530 C   0  0  0  0  0  2  0  0  0  0  0  0
  184.8130  178.0100  141.7580 C   0  0  0  0  0  1  0  0  0  0  0  0
  185.8130  178.6780  142.6840 C   0  0  0  0  0  2  0  0  0  0  0  0
  190.1770  176.4330  142.0280 C   0  0  0  0  0  2  0  0  0  0  0  0
  189.3170  177.0590  140.9430 C   0  0  0  0  0  2  0  0  0  0  0  0
  190.1890  177.7070  139.8810 C   0  0  2  0  0  3  0  0  0  0  0  0
  189.3470  178.3590  138.8940 N   0  0  0  0  0  1  0  0  0  0  0  0
  191.0540  176.6910  139.2090 C   0  0  0  0  0  0  0  0  0  0  0  0
  192.3030  176.8490  139.1910 O   0  0  0  0  0  1  0  0  0  0  0  0
  190.4910  175.5720  138.6100 O   0  0  0  0  0  0  0  0  0  0  0  0
  1 10  1  0  0  0  0
  2  1  1  0  0  0  0
  2 14  1  0  0  0  0
  3  5  1  0  0  0  0
  4  6  1  0  0  0  0
  4  1  2  0  0  0  0
  6 11  2  0  0  0  0
  7 14  2  0  0  0  0
  7  8  1  0  0  0  0
  9  2  2  0  0  0  0
 10  3  1  1  0  0  0
 11 10  1  0  0  0  0
 12  7  1  0  0  0  0
 13  9  1  0  0  0  0
 13 12  2  0  0  0  0
 14  5  1  0  0  0  0
 15 16  1  0  0  0  0
 16  6  1  0  0  0  0
 17 18  1  0  0  0  0
 18  4  1  0  0  0  0
 19 13  1  0  0  0  0
 20 19  1  0  0  0  0
 21 22  1  6  0  0  0
 21 20  1  0  0  0  0
 23 21  1  0  0  0  0
 24 23  1  0  0  0  0
 25 23  2  0  0  0  0
M  END
>  <MODEL>
3

>  <REMARK>
 VINA RESULT:      -8.9      1.989      5.008
  Name = 
  6 active torsions:
  status: ('A' for Active; 'I' for Inactive)
    1  A    between atoms: C_2  and  CA_21
    2  A    between atoms: C_5  and  C_22
    3  A    between atoms: C_6  and  C_15
    4  A    between atoms: C_6  and  C_23
    5  A    between atoms: C_10  and  C_11
    6  A    between atoms: C_15  and  CA_21
                            x       y       z     vdW  Elec       q    Type
                         _______ _______ _______ _____ _____    ______ ____

>  <TORSDO>
F 6

$$$$
=
 OpenBabel10272400533D

 25 27  0  0  1  0  0  0  0  0999 V2000
  186.3640  178.5530  145.0660 C   0  0  0  0  0  0  0  0  0  0  0  0
  185.8230  178.5700  143.6930 C   0  0  0  0  0  0  0  0  0  0  0  0
  184.1300  178.3600  146.0360 C   0  0  0  0  0  2  0  0  0  0  0  0
  187.4500  177.9300  145.5130 C   0  0  0  0  0  0  0  0  0  0  0  0
  183.5180  178.8890  144.7310 C   0  0  0  0  0  2  0  0  0  0  0  0
  187.3130  177.8500  146.9600 C   0  0  0  0  0  0  0  0  0  0  0  0
  183.8840  178.7050  142.2260 C   0  0  0  0  0  0  0  0  0  0  0  0
  182.4180  178.8570  141.9910 C   0  0  0  0  0  1  0  0  0  0  0  0
  186.6510  178.4360  142.5730 C   0  0  0  0  0  3  0  0  0  0  0  0
  185.5170  178.9620  146.2250 C   0  0  1  0  0  3  0  0  0  0  0  0
  186.2070  178.3810  147.3700 N   0  0  0  0  0  0  0  0  0  0  0  0
  184.7260  178.5720  141.1180 C   0  0  0  0  0  3  0  0  0  0  0  0
  186.1050  178.4310  141.2890 C   0  0  0  0  0  0  0  0  0  0  0  0
  184.4240  178.6970  143.5270 C   0  0  0  0  0  0  0  0  0  0  0  0
  189.2410  178.0880  148.4750 C   0  0  0  0  0  1  0  0  0  0  0  0
  188.2400  177.1220  147.8730 C   0  0  0  0  0  2  0  0  0  0  0  0
  189.7390  177.9840  144.5830 C   0  0  0  0  0  1  0  0  0  0  0  0
  188.4560  177.1830  144.6970 C   0  0  0  0  0  2  0  0  0  0  0  0
  186.9940  178.3070  140.1020 C   0  0  0  0  0  2  0  0  0  0  0  0
  188.4350  178.1150  140.5450 C   0  0  0  0  0  2  0  0  0  0  0  0
  189.3680  178.1480  139.3470 C   0  0  2  0  0  3  0  0  0  0  0  0
  188.8080  179.0070  138.3190 N   0  0  0  0  0  1  0  0  0  0  0  0
  189.5760  176.7760  138.7950 C   0  0  0  0  0  0  0  0  0  0  0  0
  190.4770  176.0400  139.2750 O   0  0  0  0  0  1  0  0  0  0  0  0
  188.7790  176.3040  137.7590 O   0  0  0  0  0  0  0  0  0  0  0  0
  1  4  2  0  0  0  0
  1 10  1  0  0  0  0
  2  1  1  0  0  0  0
  4  6  1  0  0  0  0
  5  3  1  0  0  0  0
  6 11  2  0  0  0  0
  6 16  1  0  0  0  0
  7 14  2  0  0  0  0
  8  7  1  0  0  0  0
  9  2  2  0  0  0  0
 10  3  1  6  0  0  0
 10 11  1  0  0  0  0
 12 13  2  0  0  0  0
 12  7  1  0  0  0  0
 13  9  1  0  0  0  0
 14  2  1  0  0  0  0
 14  5  1  0  0  0  0
 16 15  1  0  0  0  0
 17 18  1  0  0  0  0
 18  4  1  0  0  0  0
 19 20  1  0  0  0  0
 19 13  1  0  0  0  0
 21 22  1  6  0  0  0
 21 20  1  0  0  0  0
 23 24  1  0  0  0  0
 23 21  1  0  0  0  0
 25 23  2  0  0  0  0
M  END
>  <MODEL>
4

>  <REMARK>
 VINA RESULT:      -8.6      2.069      3.081
  Name = 
  6 active torsions:
  status: ('A' for Active; 'I' for Inactive)
    1  A    between atoms: C_2  and  CA_21
    2  A    between atoms: C_5  and  C_22
    3  A    between atoms: C_6  and  C_15
    4  A    between atoms: C_6  and  C_23
    5  A    between atoms: C_10  and  C_11
    6  A    between atoms: C_15  and  CA_21
                            x       y       z     vdW  Elec       q    Type
                         _______ _______ _______ _____ _____    ______ ____

>  <TORSDO>
F 6

$$$$
=
 OpenBabel10272400533D

 25 27  0  0  1  0  0  0  0  0999 V2000
  189.6490  176.8830  143.9700 C   0  0  0  0  0  0  0  0  0  0  0  0
  188.7840  177.4210  142.9010 C   0  0  0  0  0  0  0  0  0  0  0  0
  191.6610  177.2020  142.6220 C   0  0  0  0  0  2  0  0  0  0  0  0
  189.5620  177.0940  145.2800 C   0  0  0  0  0  0  0  0  0  0  0  0
  190.8000  177.2600  141.3510 C   0  0  0  0  0  2  0  0  0  0  0  0
  190.8540  176.7280  145.8420 C   0  0  0  0  0  0  0  0  0  0  0  0
  188.5540  178.1650  140.5930 C   0  0  0  0  0  0  0  0  0  0  0  0
  189.0990  178.3980  139.2240 C   0  0  0  0  0  1  0  0  0  0  0  0
  187.4410  177.7390  143.1290 C   0  0  0  0  0  3  0  0  0  0  0  0
  190.9860  176.3030  143.6500 C   0  0  1  0  0  3  0  0  0  0  0  0
  191.6800  176.3290  144.9310 N   0  0  0  0  0  0  0  0  0  0  0  0
  187.2130  178.4750  140.8380 C   0  0  0  0  0  3  0  0  0  0  0  0
  186.6580  178.2690  142.1040 C   0  0  0  0  0  0  0  0  0  0  0  0
  189.3570  177.6420  141.6260 C   0  0  0  0  0  0  0  0  0  0  0  0
  192.2440  175.8420  147.6730 C   0  0  0  0  0  1  0  0  0  0  0  0
  191.2570  176.9180  147.2650 C   0  0  0  0  0  2  0  0  0  0  0  0
  187.9760  177.0320  147.1750 C   0  0  0  0  0  1  0  0  0  0  0  0
  188.4870  177.8440  145.9980 C   0  0  0  0  0  2  0  0  0  0  0  0
  185.2250  178.5870  142.3480 C   0  0  0  0  0  2  0  0  0  0  0  0
  185.0780  179.3830  143.6350 C   0  0  0  0  0  2  0  0  0  0  0  0
  184.2880  178.5900  144.6630 C   0  0  2  0  0  3  0  0  0  0  0  0
  182.8860  178.9590  144.5850 N   0  0  0  0  0  1  0  0  0  0  0  0
  184.7980  178.8490  146.0430 C   0  0  0  0  0  0  0  0  0  0  0  0
  184.4040  178.1310  146.9990 O   0  0  0  0  0  1  0  0  0  0  0  0
  185.7080  179.8720  146.2770 O   0  0  0  0  0  0  0  0  0  0  0  0
  1  4  2  0  0  0  0
  2  9  1  0  0  0  0
  2  1  1  0  0  0  0
  4  6  1  0  0  0  0
  4 18  1  0  0  0  0
  5 14  1  0  0  0  0
  5  3  1  0  0  0  0
  6 16  1  0  0  0  0
  7 12  2  0  0  0  0
  7 14  1  0  0  0  0
  8  7  1  0  0  0  0
 10  3  1  6  0  0  0
 10  1  1  0  0  0  0
 10 11  1  0  0  0  0
 11  6  2  0  0  0  0
 12 13  1  0  0  0  0
 13 19  1  0  0  0  0
 13  9  2  0  0  0  0
 14  2  2  0  0  0  0
 16 15  1  0  0  0  0
 18 17  1  0  0  0  0
 19 20  1  0  0  0  0
 20 21  1  0  0  0  0
 21 22  1  1  0  0  0
 21 23  1  0  0  0  0
 23 25  2  0  0  0  0
 23 24  1  0  0  0  0
M  END
>  <MODEL>
5

>  <REMARK>
 VINA RESULT:      -8.5      3.293      5.343
  Name = 
  6 active torsions:
  status: ('A' for Active; 'I' for Inactive)
    1  A    between atoms: C_2  and  CA_21
    2  A    between atoms: C_5  and  C_22
    3  A    between atoms: C_6  and  C_15
    4  A    between atoms: C_6  and  C_23
    5  A    between atoms: C_10  and  C_11
    6  A    between atoms: C_15  and  CA_21
                            x       y       z     vdW  Elec       q    Type
                         _______ _______ _______ _____ _____    ______ ____

>  <TORSDO>
F 6

$$$$
=
 OpenBabel10272400533D

 25 27  0  0  1  0  0  0  0  0999 V2000
  186.3480  178.5060  145.1320 C   0  0  0  0  0  0  0  0  0  0  0  0
  185.7010  178.5500  143.8060 C   0  0  0  0  0  0  0  0  0  0  0  0
  184.2010  178.2350  146.2670 C   0  0  0  0  0  2  0  0  0  0  0  0
  187.4790  177.8970  145.4740 C   0  0  0  0  0  0  0  0  0  0  0  0
  183.4780  178.7850  145.0290 C   0  0  0  0  0  2  0  0  0  0  0  0
  187.4570  177.7730  146.9250 C   0  0  0  0  0  0  0  0  0  0  0  0
  183.6500  178.6800  142.4990 C   0  0  0  0  0  0  0  0  0  0  0  0
  182.1680  178.8040  142.3840 C   0  0  0  0  0  1  0  0  0  0  0  0
  186.4410  178.4660  142.6210 C   0  0  0  0  0  3  0  0  0  0  0  0
  185.5860  178.8630  146.3650 C   0  0  1  0  0  3  0  0  0  0  0  0
  186.3760  178.2670  147.4340 N   0  0  0  0  0  0  0  0  0  0  0  0
  184.4050  178.5980  141.3250 C   0  0  0  0  0  3  0  0  0  0  0  0
  185.7960  178.4840  141.3850 C   0  0  0  0  0  0  0  0  0  0  0  0
  184.2900  178.6480  143.7530 C   0  0  0  0  0  0  0  0  0  0  0  0
  189.4280  178.0240  148.3810 C   0  0  0  0  0  1  0  0  0  0  0  0
  188.4680  177.0410  147.7400 C   0  0  0  0  0  2  0  0  0  0  0  0
  189.6990  178.0160  144.3950 C   0  0  0  0  0  1  0  0  0  0  0  0
  188.4320  177.1960  144.5600 C   0  0  0  0  0  2  0  0  0  0  0  0
  186.5910  178.4140  140.1290 C   0  0  0  0  0  2  0  0  0  0  0  0
  188.0760  178.4060  140.4500 C   0  0  0  0  0  2  0  0  0  0  0  0
  188.8370  177.5790  139.4260 C   0  0  2  0  0  3  0  0  0  0  0  0
  190.2330  177.4930  139.8140 N   0  0  0  0  0  1  0  0  0  0  0  0
  188.7310  178.1870  138.0650 C   0  0  0  0  0  0  0  0  0  0  0  0
  188.4040  177.4680  137.0850 O   0  0  0  0  0  0  0  0  0  0  0  0
  188.9860  179.5400  137.8760 O   0  0  0  0  0  1  0  0  0  0  0  0
  1  4  2  0  0  0  0
  1 10  1  0  0  0  0
  2  1  1  0  0  0  0
  4  6  1  0  0  0  0
  5  3  1  0  0  0  0
  6 11  2  0  0  0  0
  6 16  1  0  0  0  0
  7 14  2  0  0  0  0
  8  7  1  0  0  0  0
  9  2  2  0  0  0  0
 10  3  1  6  0  0  0
 10 11  1  0  0  0  0
 12 13  2  0  0  0  0
 12  7  1  0  0  0  0
 13  9  1  0  0  0  0
 14  2  1  0  0  0  0
 14  5  1  0  0  0  0
 16 15  1  0  0  0  0
 17 18  1  0  0  0  0
 18  4  1  0  0  0  0
 19 20  1  0  0  0  0
 19 13  1  0  0  0  0
 21 22  1  1  0  0  0
 21 20  1  0  0  0  0
 23 21  1  0  0  0  0
 24 23  2  0  0  0  0
 25 23  1  0  0  0  0
M  END
>  <MODEL>
6

>  <REMARK>
 VINA RESULT:      -8.5      1.840      2.872
  Name = 
  6 active torsions:
  status: ('A' for Active; 'I' for Inactive)
    1  A    between atoms: C_2  and  CA_21
    2  A    between atoms: C_5  and  C_22
    3  A    between atoms: C_6  and  C_15
    4  A    between atoms: C_6  and  C_23
    5  A    between atoms: C_10  and  C_11
    6  A    between atoms: C_15  and  CA_21
                            x       y       z     vdW  Elec       q    Type
                         _______ _______ _______ _____ _____    ______ ____

>  <TORSDO>
F 6

$$$$
=
 OpenBabel10272400533D

 25 27  0  0  1  0  0  0  0  0999 V2000
  186.9790  177.9380  141.7180 C   0  0  0  0  0  0  0  0  0  0  0  0
  186.4590  178.0370  143.0960 C   0  0  0  0  0  0  0  0  0  0  0  0
  185.0960  179.2110  140.8230 C   0  0  0  0  0  2  0  0  0  0  0  0
  188.2390  178.0400  141.3070 C   0  0  0  0  0  0  0  0  0  0  0  0
  184.2830  178.8960  142.0870 C   0  0  0  0  0  2  0  0  0  0  0  0
  188.1840  178.3100  139.8770 C   0  0  0  0  0  0  0  0  0  0  0  0
  184.6370  178.6570  144.5890 C   0  0  0  0  0  0  0  0  0  0  0  0
  183.2560  179.1640  144.8420 C   0  0  0  0  0  1  0  0  0  0  0  0
  187.2330  177.6760  144.2040 C   0  0  0  0  0  3  0  0  0  0  0  0
  186.0640  178.0680  140.5460 C   0  0  1  0  0  3  0  0  0  0  0  0
  186.9680  178.3780  139.4460 N   0  0  0  0  0  0  0  0  0  0  0  0
  185.4230  178.2890  145.6850 C   0  0  0  0  0  3  0  0  0  0  0  0
  186.7200  177.8060  145.4950 C   0  0  0  0  0  0  0  0  0  0  0  0
  185.1500  178.5430  143.2820 C   0  0  0  0  0  0  0  0  0  0  0  0
  188.9180  178.8040  137.5780 C   0  0  0  0  0  1  0  0  0  0  0  0
  189.3610  178.6230  139.0160 C   0  0  0  0  0  2  0  0  0  0  0  0
  190.1560  176.8310  142.2920 C   0  0  0  0  0  1  0  0  0  0  0  0
  189.4550  178.1710  142.1670 C   0  0  0  0  0  2  0  0  0  0  0  0
  187.5420  177.4020  146.6680 C   0  0  0  0  0  2  0  0  0  0  0  0
  188.9970  177.2460  146.2580 C   0  0  0  0  0  2  0  0  0  0  0  0
  189.8630  176.9480  147.4710 C   0  0  2  0  0  3  0  0  0  0  0  0
  189.7480  178.0340  148.4270 N   0  0  0  0  0  1  0  0  0  0  0  0
  191.2930  176.7760  147.0760 C   0  0  0  0  0  0  0  0  0  0  0  0
  191.5920  176.6260  145.8630 O   0  0  0  0  0  0  0  0  0  0  0  0
  192.2960  176.7880  148.0380 O   0  0  0  0  0  1  0  0  0  0  0  0
  1  2  1  0  0  0  0
  2 14  2  0  0  0  0
  2  9  1  0  0  0  0
  3  5  1  0  0  0  0
  4  1  2  0  0  0  0
  4 18  1  0  0  0  0
  5 14  1  0  0  0  0
  6  4  1  0  0  0  0
  7  8  1  0  0  0  0
  7 12  2  0  0  0  0
  9 13  2  0  0  0  0
 10  3  1  1  0  0  0
 10  1  1  0  0  0  0
 11  6  2  0  0  0  0
 11 10  1  0  0  0  0
 13 12  1  0  0  0  0
 13 19  1  0  0  0  0
 14  7  1  0  0  0  0
 15 16  1  0  0  0  0
 16  6  1  0  0  0  0
 18 17  1  0  0  0  0
 20 19  1  0  0  0  0
 20 21  1  0  0  0  0
 21 22  1  1  0  0  0
 23 21  1  0  0  0  0
 23 25  1  0  0  0  0
 24 23  2  0  0  0  0
M  END
>  <MODEL>
7

>  <REMARK>
 VINA RESULT:      -8.5      3.045      6.469
  Name = 
  6 active torsions:
  status: ('A' for Active; 'I' for Inactive)
    1  A    between atoms: C_2  and  CA_21
    2  A    between atoms: C_5  and  C_22
    3  A    between atoms: C_6  and  C_15
    4  A    between atoms: C_6  and  C_23
    5  A    between atoms: C_10  and  C_11
    6  A    between atoms: C_15  and  CA_21
                            x       y       z     vdW  Elec       q    Type
                         _______ _______ _______ _____ _____    ______ ____

>  <TORSDO>
F 6

$$$$
=
 OpenBabel10272400533D

 25 27  0  0  1  0  0  0  0  0999 V2000
  189.7960  177.8860  143.4420 C   0  0  0  0  0  0  0  0  0  0  0  0
  188.7030  177.8330  144.4330 C   0  0  0  0  0  0  0  0  0  0  0  0
  191.3740  176.8580  144.9980 C   0  0  0  0  0  2  0  0  0  0  0  0
  189.7340  177.6390  142.1370 C   0  0  0  0  0  0  0  0  0  0  0  0
  190.4700  177.2520  146.1750 C   0  0  0  0  0  2  0  0  0  0  0  0
  191.1010  177.3950  141.6990 C   0  0  0  0  0  0  0  0  0  0  0  0
  187.9980  177.4170  146.7270 C   0  0  0  0  0  0  0  0  0  0  0  0
  188.2840  177.0750  148.1510 C   0  0  0  0  0  1  0  0  0  0  0  0
  187.3730  178.0860  144.0780 C   0  0  0  0  0  3  0  0  0  0  0  0
  191.2230  177.8810  143.8790 C   0  0  1  0  0  3  0  0  0  0  0  0
  191.9420  177.4780  142.6770 N   0  0  0  0  0  0  0  0  0  0  0  0
  186.6750  177.6740  146.3560 C   0  0  0  0  0  3  0  0  0  0  0  0
  186.3610  178.0010  145.0350 C   0  0  0  0  0  0  0  0  0  0  0  0
  189.0260  177.4840  145.7660 C   0  0  0  0  0  0  0  0  0  0  0  0
  192.9010  177.4390  140.0180 C   0  0  0  0  0  1  0  0  0  0  0  0
  191.4990  176.9550  140.3310 C   0  0  0  0  0  2  0  0  0  0  0  0
  188.2620  178.4660  140.3320 C   0  0  0  0  0  1  0  0  0  0  0  0
  188.5040  177.3540  141.3360 C   0  0  0  0  0  2  0  0  0  0  0  0
  184.9510  178.2900  144.6550 C   0  0  0  0  0  2  0  0  0  0  0  0
  184.9120  179.3030  143.5220 C   0  0  0  0  0  2  0  0  0  0  0  0
  184.3440  178.6710  142.2630 C   0  0  2  0  0  3  0  0  0  0  0  0
  184.9240  179.3100  141.0960 N   0  0  0  0  0  1  0  0  0  0  0  0
  182.8560  178.8080  142.2220 C   0  0  0  0  0  0  0  0  0  0  0  0
  182.2310  179.1310  143.2650 O   0  0  0  0  0  1  0  0  0  0  0  0
  182.1610  178.5860  141.0390 O   0  0  0  0  0  0  0  0  0  0  0  0
  1 10  1  0  0  0  0
  1  2  1  0  0  0  0
  2 14  1  0  0  0  0
  3  5  1  0  0  0  0
  4  1  2  0  0  0  0
  6  4  1  0  0  0  0
  6 11  2  0  0  0  0
  7  8  1  0  0  0  0
  9  2  2  0  0  0  0
  9 13  1  0  0  0  0
 10  3  1  1  0  0  0
 11 10  1  0  0  0  0
 12  7  1  0  0  0  0
 13 12  2  0  0  0  0
 14  5  1  0  0  0  0
 14  7  2  0  0  0  0
 15 16  1  0  0  0  0
 16  6  1  0  0  0  0
 17 18  1  0  0  0  0
 18  4  1  0  0  0  0
 19 13  1  0  0  0  0
 20 19  1  0  0  0  0
 21 22  1  6  0  0  0
 21 20  1  0  0  0  0
 23 21  1  0  0  0  0
 23 24  1  0  0  0  0
 25 23  2  0  0  0  0
M  END
>  <MODEL>
8

>  <REMARK>
 VINA RESULT:      -8.3      2.982      5.012
  Name = 
  6 active torsions:
  status: ('A' for Active; 'I' for Inactive)
    1  A    between atoms: C_2  and  CA_21
    2  A    between atoms: C_5  and  C_22
    3  A    between atoms: C_6  and  C_15
    4  A    between atoms: C_6  and  C_23
    5  A    between atoms: C_10  and  C_11
    6  A    between atoms: C_15  and  CA_21
                            x       y       z     vdW  Elec       q    Type
                         _______ _______ _______ _____ _____    ______ ____

>  <TORSDO>
F 6

$$$$
=
 OpenBabel10272400533D

 25 27  0  0  1  0  0  0  0  0999 V2000
  189.5960  176.8880  144.1670 C   0  0  0  0  0  0  0  0  0  0  0  0
  188.7070  177.4490  143.1300 C   0  0  0  0  0  0  0  0  0  0  0  0
  191.5540  177.0850  142.7180 C   0  0  0  0  0  2  0  0  0  0  0  0
  189.5840  177.1240  145.4750 C   0  0  0  0  0  0  0  0  0  0  0  0
  190.6350  177.1630  141.4890 C   0  0  0  0  0  2  0  0  0  0  0  0
  190.8830  176.7050  145.9810 C   0  0  0  0  0  0  0  0  0  0  0  0
  188.4000  178.1640  140.8230 C   0  0  0  0  0  0  0  0  0  0  0  0
  188.8890  178.3470  139.4250 C   0  0  0  0  0  1  0  0  0  0  0  0
  187.3930  177.8350  143.4170 C   0  0  0  0  0  3  0  0  0  0  0  0
  190.8870  176.2380  143.7950 C   0  0  1  0  0  3  0  0  0  0  0  0
  191.6440  176.2520  145.0400 N   0  0  0  0  0  0  0  0  0  0  0  0
  187.0890  178.5430  141.1260 C   0  0  0  0  0  3  0  0  0  0  0  0
  186.5880  178.3860  142.4200 C   0  0  0  0  0  0  0  0  0  0  0  0
  189.2260  177.6200  141.8250 C   0  0  0  0  0  0  0  0  0  0  0  0
  192.3320  175.7950  147.7540 C   0  0  0  0  0  1  0  0  0  0  0  0
  191.3630  176.9000  147.3800 C   0  0  0  0  0  2  0  0  0  0  0  0
  187.8080  177.0570  147.1930 C   0  0  0  0  0  1  0  0  0  0  0  0
  188.5820  177.9380  146.2300 C   0  0  0  0  0  2  0  0  0  0  0  0
  185.1850  178.7770  142.7270 C   0  0  0  0  0  2  0  0  0  0  0  0
  184.2230  178.0350  141.8140 C   0  0  0  0  0  2  0  0  0  0  0  0
  183.3770  179.0170  141.0220 C   0  0  2  0  0  3  0  0  0  0  0  0
  182.0010  178.5550  140.9890 N   0  0  0  0  0  1  0  0  0  0  0  0
  183.8900  179.1590  139.6260 C   0  0  0  0  0  0  0  0  0  0  0  0
  184.3150  180.2750  139.2280 O   0  0  0  0  0  1  0  0  0  0  0  0
  183.9070  178.0670  138.7670 O   0  0  0  0  0  0  0  0  0  0  0  0
  1  4  2  0  0  0  0
  2  9  1  0  0  0  0
  2  1  1  0  0  0  0
  4  6  1  0  0  0  0
  4 18  1  0  0  0  0
  5 14  1  0  0  0  0
  5  3  1  0  0  0  0
  6 16  1  0  0  0  0
  7 12  2  0  0  0  0
  7 14  1  0  0  0  0
  8  7  1  0  0  0  0
 10  3  1  6  0  0  0
 10  1  1  0  0  0  0
 10 11  1  0  0  0  0
 11  6  2  0  0  0  0
 12 13  1  0  0  0  0
 13 19  1  0  0  0  0
 13  9  2  0  0  0  0
 14  2  2  0  0  0  0
 16 15  1  0  0  0  0
 18 17  1  0  0  0  0
 20 19  1  0  0  0  0
 21 22  1  6  0  0  0
 21 20  1  0  0  0  0
 23 21  1  0  0  0  0
 24 23  1  0  0  0  0
 25 23  2  0  0  0  0
M  END
>  <MODEL>
9

>  <REMARK>
 VINA RESULT:      -8.2      2.629      4.428
  Name = 
  6 active torsions:
  status: ('A' for Active; 'I' for Inactive)
    1  A    between atoms: C_2  and  CA_21
    2  A    between atoms: C_5  and  C_22
    3  A    between atoms: C_6  and  C_15
    4  A    between atoms: C_6  and  C_23
    5  A    between atoms: C_10  and  C_11
    6  A    between atoms: C_15  and  CA_21
                            x       y       z     vdW  Elec       q    Type
                         _______ _______ _______ _____ _____    ______ ____

>  <TORSDO>
F 6

$$$$
