=
 OpenBabel10272400413D

 25 28  0  0  1  0  0  0  0  0999 V2000
  187.1990  177.8560  143.5980 C   0  0  0  0  0  0  0  0  0  0  0  0
  188.0040  177.4950  142.3710 C   0  0  2  0  0  3  0  0  0  0  0  0
  189.1950  177.4140  145.1230 C   0  0  0  0  0  2  0  0  0  0  0  0
  185.8510  178.2370  143.4710 C   0  0  0  0  0  0  0  0  0  0  0  0
  183.7020  178.9540  144.3010 C   0  0  0  0  0  2  0  0  0  0  0  0
  190.0370  177.3790  143.8480 C   0  0  0  0  0  2  0  0  0  0  0  0
  185.6960  178.6680  145.8420 C   0  0  0  0  0  3  0  0  0  0  0  0
  185.1170  178.6200  144.5740 C   0  0  0  0  0  0  0  0  0  0  0  0
  183.3820  178.3640  142.9300 C   0  0  0  0  0  2  0  0  0  0  0  0
  187.7970  177.9040  144.8820 C   0  0  0  0  0  0  0  0  0  0  0  0
  187.0370  178.3020  145.9920 C   0  0  0  0  0  3  0  0  0  0  0  0
  184.9240  178.2440  141.9480 S   0  0  0  0  0  0  0  0  0  0  0  0
  189.2750  176.7090  142.7070 C   0  0  1  0  0  3  0  0  0  0  0  0
  188.9560  175.3890  143.0360 O   0  0  0  0  0  0  0  0  0  0  0  0
  190.1110  174.7560  143.0300 O   0  0  0  0  0  1  0  0  0  0  0  0
  188.3540  178.7050  141.6420 N   0  0  0  0  0  2  0  0  0  0  0  0
  189.3500  178.2820  139.5040 C   0  0  2  0  0  3  0  0  0  0  0  0
  188.5600  177.1830  139.8900 O   0  0  0  0  0  0  0  0  0  0  0  0
  188.0750  178.4550  140.2390 C   0  0  1  0  0  3  0  0  0  0  0  0
  190.1710  176.3220  137.4600 C   0  0  0  0  0  1  0  0  0  0  0  0
  189.1600  178.5480  138.0410 C   0  0  0  0  0  0  0  0  0  0  0  0
  189.5260  177.5680  137.0530 N   0  0  0  0  0  0  0  0  0  0  0  0
  188.7050  179.6680  137.6780 O   0  0  0  0  0  0  0  0  0  0  0  0
  188.2770  177.2610  134.9990 C   0  0  0  0  0  2  0  0  0  0  0  0
  189.2710  177.8380  135.6670 C   0  0  0  0  0  3  0  0  0  0  0  0
  1 10  1  0  0  0  0
  2 16  1  1  0  0  0
  2 13  1  0  0  0  0
  2  1  1  0  0  0  0
  4  1  2  0  0  0  0
  4  8  1  0  0  0  0
  5  8  1  0  0  0  0
  6  3  1  0  0  0  0
  7 11  1  0  0  0  0
  8  7  2  0  0  0  0
  9  5  1  0  0  0  0
 10  3  1  0  0  0  0
 10 11  2  0  0  0  0
 12  9  1  0  0  0  0
 12  4  1  0  0  0  0
 13 14  1  1  0  0  0
 13  6  1  0  0  0  0
 15 14  1  0  0  0  0
 17 21  1  6  0  0  0
 17 18  1  0  0  0  0
 17 19  1  0  0  0  0
 18 19  1  0  0  0  0
 19 16  1  1  0  0  0
 22 20  1  0  0  0  0
 22 21  1  0  0  0  0
 23 21  2  0  0  0  0
 24 25  2  0  0  0  0
 25 22  1  0  0  0  0
M  END
>  <MODEL>
1

>  <REMARK>
 VINA RESULT:      -7.8      0.000      0.000
  Name = 
  5 active torsions:
  status: ('A' for Active; 'I' for Inactive)
    1  A    between atoms: C_3  and  N_16
    2  A    between atoms: C_6  and  C_15
    3  A    between atoms: C_7  and  N_21
    4  A    between atoms: O_13  and  C_24
    5  A    between atoms: N_16  and  C_23
                            x       y       z     vdW  Elec       q    Type
                         _______ _______ _______ _____ _____    ______ ____

>  <TORSDO>
F 5

$$$$
=
 OpenBabel10272400413D

 25 28  0  0  1  0  0  0  0  0999 V2000
  187.0500  177.8970  143.4790 C   0  0  0  0  0  0  0  0  0  0  0  0
  187.8810  177.5390  142.2690 C   0  0  2  0  0  3  0  0  0  0  0  0
  189.0270  177.5030  145.0410 C   0  0  0  0  0  2  0  0  0  0  0  0
  185.6980  178.2560  143.3260 C   0  0  0  0  0  0  0  0  0  0  0  0
  183.5240  178.9440  144.1130 C   0  0  0  0  0  2  0  0  0  0  0  0
  189.8910  177.4710  143.7810 C   0  0  0  0  0  2  0  0  0  0  0  0
  185.4960  178.7060  145.6890 C   0  0  0  0  0  3  0  0  0  0  0  0
  184.9400  178.6360  144.4130 C   0  0  0  0  0  0  0  0  0  0  0  0
  183.2370  178.3360  142.7420 C   0  0  0  0  0  2  0  0  0  0  0  0
  187.6250  177.9670  144.7720 C   0  0  0  0  0  0  0  0  0  0  0  0
  186.8400  178.3630  145.8660 C   0  0  0  0  0  3  0  0  0  0  0  0
  184.7970  178.2330  141.7880 S   0  0  0  0  0  0  0  0  0  0  0  0
  189.1590  176.7770  142.6330 C   0  0  1  0  0  3  0  0  0  0  0  0
  188.8570  175.4550  142.9700 O   0  0  0  0  0  0  0  0  0  0  0  0
  190.0210  174.8400  142.9850 O   0  0  0  0  0  1  0  0  0  0  0  0
  188.2230  178.7480  141.5340 N   0  0  0  0  0  2  0  0  0  0  0  0
  187.9930  178.0770  139.2450 C   0  0  2  0  0  3  0  0  0  0  0  0
  188.7340  179.2720  139.3220 O   0  0  0  0  0  0  0  0  0  0  0  0
  188.9510  178.3350  140.3470 C   0  0  1  0  0  3  0  0  0  0  0  0
  187.1830  178.2020  136.4130 C   0  0  0  0  0  1  0  0  0  0  0  0
  188.6020  177.1740  138.2140 C   0  0  0  0  0  0  0  0  0  0  0  0
  188.2290  177.2710  136.8290 N   0  0  0  0  0  0  0  0  0  0  0  0
  189.4260  176.2930  138.5840 O   0  0  0  0  0  0  0  0  0  0  0  0
  189.7710  176.8970  134.9960 C   0  0  0  0  0  2  0  0  0  0  0  0
  188.8800  176.4300  135.8640 C   0  0  0  0  0  3  0  0  0  0  0  0
  1 10  1  0  0  0  0
  2 16  1  1  0  0  0
  2 13  1  0  0  0  0
  2  1  1  0  0  0  0
  4  1  2  0  0  0  0
  4  8  1  0  0  0  0
  5  8  1  0  0  0  0
  6  3  1  0  0  0  0
  7 11  1  0  0  0  0
  8  7  2  0  0  0  0
  9  5  1  0  0  0  0
 10  3  1  0  0  0  0
 10 11  2  0  0  0  0
 12  9  1  0  0  0  0
 12  4  1  0  0  0  0
 13 14  1  1  0  0  0
 13  6  1  0  0  0  0
 14 15  1  0  0  0  0
 17 21  1  6  0  0  0
 17 18  1  0  0  0  0
 17 19  1  0  0  0  0
 18 19  1  0  0  0  0
 19 16  1  1  0  0  0
 20 22  1  0  0  0  0
 21 23  2  0  0  0  0
 22 21  1  0  0  0  0
 24 25  2  0  0  0  0
 25 22  1  0  0  0  0
M  END
>  <MODEL>
2

>  <REMARK>
 VINA RESULT:      -7.7      0.900      1.312
  Name = 
  5 active torsions:
  status: ('A' for Active; 'I' for Inactive)
    1  A    between atoms: C_3  and  N_16
    2  A    between atoms: C_6  and  C_15
    3  A    between atoms: C_7  and  N_21
    4  A    between atoms: O_13  and  C_24
    5  A    between atoms: N_16  and  C_23
                            x       y       z     vdW  Elec       q    Type
                         _______ _______ _______ _____ _____    ______ ____

>  <TORSDO>
F 5

$$$$
=
 OpenBabel10272400413D

 25 28  0  0  1  0  0  0  0  0999 V2000
  189.1490  177.1180  144.8400 C   0  0  0  0  0  0  0  0  0  0  0  0
  189.1280  176.8200  143.3590 C   0  0  2  0  0  3  0  0  0  0  0  0
  191.6130  176.4800  145.0040 C   0  0  0  0  0  2  0  0  0  0  0  0
  187.9820  177.5620  145.4870 C   0  0  0  0  0  0  0  0  0  0  0  0
  186.6910  178.2990  147.3880 C   0  0  0  0  0  2  0  0  0  0  0  0
  191.6210  176.5090  143.4760 C   0  0  0  0  0  2  0  0  0  0  0  0
  189.1730  177.8160  147.5730 C   0  0  0  0  0  3  0  0  0  0  0  0
  187.9970  177.8880  146.8270 C   0  0  0  0  0  0  0  0  0  0  0  0
  185.6330  177.8300  146.3910 C   0  0  0  0  0  2  0  0  0  0  0  0
  190.3500  177.0430  145.5880 C   0  0  0  0  0  0  0  0  0  0  0  0
  190.3480  177.3850  146.9490 C   0  0  0  0  0  3  0  0  0  0  0  0
  186.3800  177.7230  144.7220 S   0  0  0  0  0  0  0  0  0  0  0  0
  190.3130  175.9600  142.9110 C   0  0  1  0  0  3  0  0  0  0  0  0
  190.1260  174.6320  143.3050 O   0  0  0  0  0  0  0  0  0  0  0  0
  191.3430  174.1590  143.4710 O   0  0  0  0  0  1  0  0  0  0  0  0
  189.1160  178.0680  142.6090 N   0  0  0  0  0  2  0  0  0  0  0  0
  187.6260  179.0370  141.0020 C   0  0  2  0  0  3  0  0  0  0  0  0
  188.8430  178.6970  140.3820 O   0  0  0  0  0  0  0  0  0  0  0  0
  188.3840  177.8200  141.3790 C   0  0  1  0  0  3  0  0  0  0  0  0
  184.8310  179.1030  141.9390 C   0  0  0  0  0  1  0  0  0  0  0  0
  186.4850  178.6910  140.0920 C   0  0  0  0  0  0  0  0  0  0  0  0
  185.1230  178.7660  140.5480 N   0  0  0  0  0  0  0  0  0  0  0  0
  186.7360  178.2930  138.9210 O   0  0  0  0  0  0  0  0  0  0  0  0
  183.4050  179.4440  138.9770 C   0  0  0  0  0  2  0  0  0  0  0  0
  184.0570  178.4850  139.6270 C   0  0  0  0  0  3  0  0  0  0  0  0
  1  4  2  0  0  0  0
  1 10  1  0  0  0  0
  2 16  1  6  0  0  0
  2  1  1  0  0  0  0
  3 10  1  0  0  0  0
  4  8  1  0  0  0  0
  6  3  1  0  0  0  0
  8  5  1  0  0  0  0
  8  7  2  0  0  0  0
  9  5  1  0  0  0  0
 10 11  2  0  0  0  0
 11  7  1  0  0  0  0
 12  4  1  0  0  0  0
 12  9  1  0  0  0  0
 13 14  1  1  0  0  0
 13  2  1  0  0  0  0
 13  6  1  0  0  0  0
 14 15  1  0  0  0  0
 17 21  1  6  0  0  0
 17 19  1  0  0  0  0
 18 17  1  0  0  0  0
 18 19  1  0  0  0  0
 19 16  1  1  0  0  0
 21 22  1  0  0  0  0
 22 20  1  0  0  0  0
 23 21  2  0  0  0  0
 24 25  2  0  0  0  0
 25 22  1  0  0  0  0
M  END
>  <MODEL>
3

>  <REMARK>
 VINA RESULT:      -7.1      2.699      3.676
  Name = 
  5 active torsions:
  status: ('A' for Active; 'I' for Inactive)
    1  A    between atoms: C_3  and  N_16
    2  A    between atoms: C_6  and  C_15
    3  A    between atoms: C_7  and  N_21
    4  A    between atoms: O_13  and  C_24
    5  A    between atoms: N_16  and  C_23
                            x       y       z     vdW  Elec       q    Type
                         _______ _______ _______ _____ _____    ______ ____

>  <TORSDO>
F 5

$$$$
=
 OpenBabel10272400413D

 25 28  0  0  1  0  0  0  0  0999 V2000
  186.3610  178.0970  143.9440 C   0  0  0  0  0  0  0  0  0  0  0  0
  185.1050  178.8900  144.2250 C   0  0  2  0  0  3  0  0  0  0  0  0
  186.5120  177.3440  146.3760 C   0  0  0  0  0  2  0  0  0  0  0  0
  186.9040  178.0720  142.6470 C   0  0  0  0  0  0  0  0  0  0  0  0
  188.5090  177.4130  140.9690 C   0  0  0  0  0  2  0  0  0  0  0  0
  185.0900  177.8810  146.5290 C   0  0  0  0  0  2  0  0  0  0  0  0
  188.6210  176.5220  143.3400 C   0  0  0  0  0  3  0  0  0  0  0  0
  188.0190  177.3120  142.3620 C   0  0  0  0  0  0  0  0  0  0  0  0
  187.8650  178.6680  140.3820 C   0  0  0  0  0  2  0  0  0  0  0  0
  186.9640  177.2960  144.9450 C   0  0  0  0  0  0  0  0  0  0  0  0
  188.0930  176.5230  144.6350 C   0  0  0  0  0  3  0  0  0  0  0  0
  186.2920  179.0060  141.2570 S   0  0  0  0  0  0  0  0  0  0  0  0
  184.8980  179.1620  145.7170 C   0  0  1  0  0  3  0  0  0  0  0  0
  185.7730  180.1590  146.1560 O   0  0  0  0  0  0  0  0  0  0  0  0
  185.7690  180.0520  147.4680 O   0  0  0  0  0  1  0  0  0  0  0  0
  183.9500  178.1850  143.6890 N   0  0  0  0  0  2  0  0  0  0  0  0
  181.7490  178.5380  142.8110 C   0  0  2  0  0  3  0  0  0  0  0  0
  181.7500  178.7530  144.2020 O   0  0  0  0  0  0  0  0  0  0  0  0
  182.8970  179.1680  143.5050 C   0  0  1  0  0  3  0  0  0  0  0  0
  181.7120  178.8480  139.8790 C   0  0  0  0  0  1  0  0  0  0  0  0
  180.8980  179.5770  142.1420 C   0  0  0  0  0  0  0  0  0  0  0  0
  180.8560  179.6930  140.7090 N   0  0  0  0  0  0  0  0  0  0  0  0
  180.2400  180.3810  142.8590 O   0  0  0  0  0  0  0  0  0  0  0  0
  180.3780  181.4670  139.1290 C   0  0  0  0  0  2  0  0  0  0  0  0
  179.9820  180.6590  140.1070 C   0  0  0  0  0  3  0  0  0  0  0  0
  1  2  1  0  0  0  0
  1 10  1  0  0  0  0
  2 16  1  1  0  0  0
  2 13  1  0  0  0  0
  3  6  1  0  0  0  0
  4  1  2  0  0  0  0
  5  8  1  0  0  0  0
  7 11  1  0  0  0  0
  8  4  1  0  0  0  0
  8  7  2  0  0  0  0
  9  5  1  0  0  0  0
  9 12  1  0  0  0  0
 10  3  1  0  0  0  0
 11 10  2  0  0  0  0
 12  4  1  0  0  0  0
 13 14  1  1  0  0  0
 13  6  1  0  0  0  0
 14 15  1  0  0  0  0
 17 21  1  6  0  0  0
 17 19  1  0  0  0  0
 17 18  1  0  0  0  0
 19 16  1  1  0  0  0
 19 18  1  0  0  0  0
 20 22  1  0  0  0  0
 21 23  2  0  0  0  0
 22 21  1  0  0  0  0
 24 25  2  0  0  0  0
 25 22  1  0  0  0  0
M  END
>  <MODEL>
4

>  <REMARK>
 VINA RESULT:      -6.9      4.174      6.571
  Name = 
  5 active torsions:
  status: ('A' for Active; 'I' for Inactive)
    1  A    between atoms: C_3  and  N_16
    2  A    between atoms: C_6  and  C_15
    3  A    between atoms: C_7  and  N_21
    4  A    between atoms: O_13  and  C_24
    5  A    between atoms: N_16  and  C_23
                            x       y       z     vdW  Elec       q    Type
                         _______ _______ _______ _____ _____    ______ ____

>  <TORSDO>
F 5

$$$$
=
 OpenBabel10272400413D

 25 28  0  0  1  0  0  0  0  0999 V2000
  186.8630  177.6880  137.8550 C   0  0  0  0  0  0  0  0  0  0  0  0
  188.2000  178.0040  138.4840 C   0  0  2  0  0  3  0  0  0  0  0  0
  187.9900  176.7040  135.7890 C   0  0  0  0  0  2  0  0  0  0  0  0
  185.6720  178.0070  138.5320 C   0  0  0  0  0  0  0  0  0  0  0  0
  183.2750  178.1120  138.7920 C   0  0  0  0  0  2  0  0  0  0  0  0
  189.2860  176.7450  136.5970 C   0  0  0  0  0  2  0  0  0  0  0  0
  184.3480  176.9930  136.7850 C   0  0  0  0  0  3  0  0  0  0  0  0
  184.4440  177.6780  137.9960 C   0  0  0  0  0  0  0  0  0  0  0  0
  183.7930  179.1680  139.7660 C   0  0  0  0  0  2  0  0  0  0  0  0
  186.7760  176.9900  136.6250 C   0  0  0  0  0  0  0  0  0  0  0  0
  185.5190  176.6570  136.0980 C   0  0  0  0  0  3  0  0  0  0  0  0
  185.5720  178.8790  140.0840 S   0  0  0  0  0  0  0  0  0  0  0  0
  189.3480  177.9970  137.4700 C   0  0  1  0  0  3  0  0  0  0  0  0
  189.3080  179.1500  136.6820 O   0  0  0  0  0  0  0  0  0  0  0  0
  188.9720  180.1120  137.5150 O   0  0  0  0  0  1  0  0  0  0  0  0
  188.4790  177.0520  139.5490 N   0  0  0  0  0  2  0  0  0  0  0  0
  189.7300  176.8140  141.5780 C   0  0  2  0  0  3  0  0  0  0  0  0
  190.5280  177.4250  140.5920 O   0  0  0  0  0  0  0  0  0  0  0  0
  189.1680  177.7770  140.6010 C   0  0  1  0  0  3  0  0  0  0  0  0
  187.7920  176.5920  143.7890 C   0  0  0  0  0  1  0  0  0  0  0  0
  189.9690  177.4790  142.9010 C   0  0  0  0  0  0  0  0  0  0  0  0
  189.0370  177.3310  143.9860 N   0  0  0  0  0  0  0  0  0  0  0  0
  190.9890  178.2080  143.0430 O   0  0  0  0  0  0  0  0  0  0  0  0
  188.6510  177.6440  146.3590 C   0  0  0  0  0  2  0  0  0  0  0  0
  189.3330  177.9330  145.2560 C   0  0  0  0  0  3  0  0  0  0  0  0
  1  2  1  0  0  0  0
  1  4  1  0  0  0  0
  2 16  1  1  0  0  0
  3  6  1  0  0  0  0
  3 10  1  0  0  0  0
  4 12  1  0  0  0  0
  5  9  1  0  0  0  0
  6 13  1  0  0  0  0
  7  8  1  0  0  0  0
  8  4  2  0  0  0  0
  8  5  1  0  0  0  0
  9 12  1  0  0  0  0
 10  1  2  0  0  0  0
 11 10  1  0  0  0  0
 11  7  2  0  0  0  0
 13 14  1  6  0  0  0
 13  2  1  0  0  0  0
 14 15  1  0  0  0  0
 17 21  1  1  0  0  0
 18 19  1  0  0  0  0
 18 17  1  0  0  0  0
 19 16  1  6  0  0  0
 19 17  1  0  0  0  0
 20 22  1  0  0  0  0
 21 23  2  0  0  0  0
 21 22  1  0  0  0  0
 22 25  1  0  0  0  0
 25 24  2  0  0  0  0
M  END
>  <MODEL>
5

>  <REMARK>
 VINA RESULT:      -6.7      2.410      6.655
  Name = 
  5 active torsions:
  status: ('A' for Active; 'I' for Inactive)
    1  A    between atoms: C_3  and  N_16
    2  A    between atoms: C_6  and  C_15
    3  A    between atoms: C_7  and  N_21
    4  A    between atoms: O_13  and  C_24
    5  A    between atoms: N_16  and  C_23
                            x       y       z     vdW  Elec       q    Type
                         _______ _______ _______ _____ _____    ______ ____

>  <TORSDO>
F 5

$$$$
=
 OpenBabel10272400413D

 25 28  0  0  1  0  0  0  0  0999 V2000
  189.3370  177.6590  140.9910 C   0  0  0  0  0  0  0  0  0  0  0  0
  190.1020  177.5590  139.6920 C   0  0  2  0  0  3  0  0  0  0  0  0
  187.1420  178.0410  139.7490 C   0  0  0  0  0  2  0  0  0  0  0  0
  190.0110  177.5300  142.2190 C   0  0  0  0  0  0  0  0  0  0  0  0
  190.1590  177.4620  144.6260 C   0  0  0  0  0  2  0  0  0  0  0  0
  187.8930  177.6130  138.4890 C   0  0  0  0  0  2  0  0  0  0  0  0
  187.9330  177.7010  143.4360 C   0  0  0  0  0  3  0  0  0  0  0  0
  189.3200  177.5660  143.4120 C   0  0  0  0  0  0  0  0  0  0  0  0
  191.5880  177.7690  144.1830 C   0  0  0  0  0  2  0  0  0  0  0  0
  187.9260  177.7940  141.0050 C   0  0  0  0  0  0  0  0  0  0  0  0
  187.2390  177.8220  142.2280 C   0  0  0  0  0  3  0  0  0  0  0  0
  191.7750  177.3520  142.4100 S   0  0  0  0  0  0  0  0  0  0  0  0
  189.3290  178.1360  138.5030 C   0  0  1  0  0  3  0  0  0  0  0  0
  189.3430  179.5330  138.5460 O   0  0  0  0  0  0  0  0  0  0  0  0
  188.9530  179.9070  137.3460 O   0  0  0  0  0  1  0  0  0  0  0  0
  190.4410  176.1680  139.4280 N   0  0  0  0  0  2  0  0  0  0  0  0
  192.4720  175.3320  138.4700 C   0  0  2  0  0  3  0  0  0  0  0  0
  191.3650  174.8250  137.7640 O   0  0  0  0  0  0  0  0  0  0  0  0
  191.2580  176.1470  138.2280 C   0  0  1  0  0  3  0  0  0  0  0  0
  194.2350  173.2890  137.2820 C   0  0  0  0  0  1  0  0  0  0  0  0
  193.5590  175.6990  137.5050 C   0  0  0  0  0  0  0  0  0  0  0  0
  194.3870  174.6910  136.8990 N   0  0  0  0  0  0  0  0  0  0  0  0
  193.7670  176.9190  137.2540 O   0  0  0  0  0  0  0  0  0  0  0  0
  196.6790  174.9320  136.1490 C   0  0  0  0  0  2  0  0  0  0  0  0
  195.3760  175.0790  135.9340 C   0  0  0  0  0  3  0  0  0  0  0  0
  1 10  2  0  0  0  0
  1  4  1  0  0  0  0
  2 16  1  6  0  0  0
  2  1  1  0  0  0  0
  3 10  1  0  0  0  0
  4 12  1  0  0  0  0
  4  8  2  0  0  0  0
  6 13  1  0  0  0  0
  6  3  1  0  0  0  0
  8  7  1  0  0  0  0
  8  5  1  0  0  0  0
  9  5  1  0  0  0  0
 10 11  1  0  0  0  0
 11  7  2  0  0  0  0
 12  9  1  0  0  0  0
 13 14  1  1  0  0  0
 13  2  1  0  0  0  0
 15 14  1  0  0  0  0
 17 21  1  6  0  0  0
 18 19  1  0  0  0  0
 18 17  1  0  0  0  0
 19 17  1  0  0  0  0
 19 16  1  1  0  0  0
 22 20  1  0  0  0  0
 22 21  1  0  0  0  0
 23 21  2  0  0  0  0
 25 24  2  0  0  0  0
 25 22  1  0  0  0  0
M  END
>  <MODEL>
6

>  <REMARK>
 VINA RESULT:      -6.6      3.351      5.524
  Name = 
  5 active torsions:
  status: ('A' for Active; 'I' for Inactive)
    1  A    between atoms: C_3  and  N_16
    2  A    between atoms: C_6  and  C_15
    3  A    between atoms: C_7  and  N_21
    4  A    between atoms: O_13  and  C_24
    5  A    between atoms: N_16  and  C_23
                            x       y       z     vdW  Elec       q    Type
                         _______ _______ _______ _____ _____    ______ ____

>  <TORSDO>
F 5

$$$$
=
 OpenBabel10272400413D

 25 28  0  0  1  0  0  0  0  0999 V2000
  189.6170  177.6030  142.6530 C   0  0  0  0  0  0  0  0  0  0  0  0
  188.7230  177.4610  141.4430 C   0  0  2  0  0  3  0  0  0  0  0  0
  191.6880  177.8320  141.1820 C   0  0  0  0  0  2  0  0  0  0  0  0
  189.0670  177.5570  143.9460 C   0  0  0  0  0  0  0  0  0  0  0  0
  189.1590  177.6210  146.3570 C   0  0  0  0  0  2  0  0  0  0  0  0
  190.7190  178.0100  140.0140 C   0  0  0  0  0  2  0  0  0  0  0  0
  191.2250  177.9980  144.9360 C   0  0  0  0  0  3  0  0  0  0  0  0
  189.8610  177.7370  145.0600 C   0  0  0  0  0  0  0  0  0  0  0  0
  187.8350  176.9180  146.0630 C   0  0  0  0  0  2  0  0  0  0  0  0
  191.0020  177.8700  142.5160 C   0  0  0  0  0  0  0  0  0  0  0  0
  191.7940  178.0570  143.6600 C   0  0  0  0  0  3  0  0  0  0  0  0
  187.3550  177.2350  144.3250 S   0  0  0  0  0  0  0  0  0  0  0  0
  189.4990  177.1050  140.1720 C   0  0  1  0  0  3  0  0  0  0  0  0
  189.8820  175.7610  140.1980 O   0  0  0  0  0  0  0  0  0  0  0  0
  190.4380  175.5510  139.0230 O   0  0  0  0  0  1  0  0  0  0  0  0
  187.9810  178.6960  141.2350 N   0  0  0  0  0  2  0  0  0  0  0  0
  185.7300  179.3880  141.6760 C   0  0  2  0  0  3  0  0  0  0  0  0
  185.9400  179.3010  140.2870 O   0  0  0  0  0  0  0  0  0  0  0  0
  186.5830  178.3340  141.0790 C   0  0  1  0  0  3  0  0  0  0  0  0
  184.5640  179.7110  144.3650 C   0  0  0  0  0  1  0  0  0  0  0  0
  184.3730  178.8450  142.0140 C   0  0  0  0  0  0  0  0  0  0  0  0
  183.7970  179.0430  143.3170 N   0  0  0  0  0  0  0  0  0  0  0  0
  183.7510  178.1720  141.1460 O   0  0  0  0  0  0  0  0  0  0  0  0
  181.3840  179.2750  143.3080 C   0  0  0  0  0  2  0  0  0  0  0  0
  182.4710  178.5600  143.5800 C   0  0  0  0  0  3  0  0  0  0  0  0
  1  4  1  0  0  0  0
  2 16  1  6  0  0  0
  2  1  1  0  0  0  0
  3 10  1  0  0  0  0
  4 12  1  0  0  0  0
  4  8  2  0  0  0  0
  6 13  1  0  0  0  0
  6  3  1  0  0  0  0
  7  8  1  0  0  0  0
  8  5  1  0  0  0  0
  9  5  1  0  0  0  0
 10  1  2  0  0  0  0
 10 11  1  0  0  0  0
 11  7  2  0  0  0  0
 12  9  1  0  0  0  0
 13 14  1  1  0  0  0
 13  2  1  0  0  0  0
 15 14  1  0  0  0  0
 17 21  1  6  0  0  0
 18 19  1  0  0  0  0
 18 17  1  0  0  0  0
 19 16  1  1  0  0  0
 19 17  1  0  0  0  0
 21 22  1  0  0  0  0
 22 25  1  0  0  0  0
 22 20  1  0  0  0  0
 23 21  2  0  0  0  0
 24 25  2  0  0  0  0
M  END
>  <MODEL>
7

>  <REMARK>
 VINA RESULT:      -6.6      2.571      5.567
  Name = 
  5 active torsions:
  status: ('A' for Active; 'I' for Inactive)
    1  A    between atoms: C_3  and  N_16
    2  A    between atoms: C_6  and  C_15
    3  A    between atoms: C_7  and  N_21
    4  A    between atoms: O_13  and  C_24
    5  A    between atoms: N_16  and  C_23
                            x       y       z     vdW  Elec       q    Type
                         _______ _______ _______ _____ _____    ______ ____

>  <TORSDO>
F 5

$$$$
=
 OpenBabel10272400413D

 25 28  0  0  1  0  0  0  0  0999 V2000
  190.4350  176.4700  137.1820 C   0  0  0  0  0  0  0  0  0  0  0  0
  191.3200  176.7170  138.3820 C   0  0  2  0  0  3  0  0  0  0  0  0
  191.9630  174.6040  136.3520 C   0  0  0  0  0  2  0  0  0  0  0  0
  189.2770  177.2440  136.9890 C   0  0  0  0  0  0  0  0  0  0  0  0
  187.2740  177.9140  135.8220 C   0  0  0  0  0  2  0  0  0  0  0  0
  192.6290  174.6720  137.7250 C   0  0  0  0  0  2  0  0  0  0  0  0
  188.6810  175.9580  135.0340 C   0  0  0  0  0  3  0  0  0  0  0  0
  188.4300  176.9980  135.9280 C   0  0  0  0  0  0  0  0  0  0  0  0
  187.6080  179.1230  136.6920 C   0  0  0  0  0  2  0  0  0  0  0  0
  190.6980  175.4090  136.2800 C   0  0  0  0  0  0  0  0  0  0  0  0
  189.8220  175.1690  135.2100 C   0  0  0  0  0  3  0  0  0  0  0  0
  188.7740  178.6170  138.0100 S   0  0  0  0  0  0  0  0  0  0  0  0
  192.7190  176.1150  138.2200 C   0  0  1  0  0  3  0  0  0  0  0  0
  193.4830  176.8890  137.3430 O   0  0  0  0  0  0  0  0  0  0  0  0
  194.5780  176.1850  137.1450 O   0  0  0  0  0  1  0  0  0  0  0  0
  190.6880  176.1760  139.5770 N   0  0  0  0  0  2  0  0  0  0  0  0
  191.1210  176.5910  141.8960 C   0  0  2  0  0  3  0  0  0  0  0  0
  192.0630  177.2740  141.1030 O   0  0  0  0  0  0  0  0  0  0  0  0
  190.7540  177.2050  140.5980 C   0  0  1  0  0  3  0  0  0  0  0  0
  188.5690  176.1550  143.3070 C   0  0  0  0  0  1  0  0  0  0  0  0
  190.6960  177.4660  143.0370 C   0  0  0  0  0  0  0  0  0  0  0  0
  189.4690  177.2200  143.7450 N   0  0  0  0  0  0  0  0  0  0  0  0
  191.4160  178.4550  143.3500 O   0  0  0  0  0  0  0  0  0  0  0  0
  187.9370  177.9920  145.4580 C   0  0  0  0  0  2  0  0  0  0  0  0
  189.1280  178.0440  144.8710 C   0  0  0  0  0  3  0  0  0  0  0  0
  1  2  1  0  0  0  0
  2 16  1  1  0  0  0
  3  6  1  0  0  0  0
  4  1  1  0  0  0  0
  4 12  1  0  0  0  0
  5  8  1  0  0  0  0
  5  9  1  0  0  0  0
  6 13  1  0  0  0  0
  7 11  2  0  0  0  0
  7  8  1  0  0  0  0
  8  4  2  0  0  0  0
  9 12  1  0  0  0  0
 10  3  1  0  0  0  0
 10  1  2  0  0  0  0
 11 10  1  0  0  0  0
 13 14  1  6  0  0  0
 13  2  1  0  0  0  0
 15 14  1  0  0  0  0
 17 21  1  1  0  0  0
 18 17  1  0  0  0  0
 19 16  1  6  0  0  0
 19 18  1  0  0  0  0
 19 17  1  0  0  0  0
 20 22  1  0  0  0  0
 21 23  2  0  0  0  0
 21 22  1  0  0  0  0
 22 25  1  0  0  0  0
 25 24  2  0  0  0  0
M  END
>  <MODEL>
8

>  <REMARK>
 VINA RESULT:      -6.4      2.969      7.584
  Name = 
  5 active torsions:
  status: ('A' for Active; 'I' for Inactive)
    1  A    between atoms: C_3  and  N_16
    2  A    between atoms: C_6  and  C_15
    3  A    between atoms: C_7  and  N_21
    4  A    between atoms: O_13  and  C_24
    5  A    between atoms: N_16  and  C_23
                            x       y       z     vdW  Elec       q    Type
                         _______ _______ _______ _____ _____    ______ ____

>  <TORSDO>
F 5

$$$$
=
 OpenBabel10272400413D

 25 28  0  0  1  0  0  0  0  0999 V2000
  186.6420  178.3450  139.9340 C   0  0  0  0  0  0  0  0  0  0  0  0
  188.1370  178.2510  140.1350 C   0  0  2  0  0  3  0  0  0  0  0  0
  186.8860  177.9790  137.4220 C   0  0  0  0  0  2  0  0  0  0  0  0
  185.7950  178.5700  141.0350 C   0  0  0  0  0  0  0  0  0  0  0  0
  183.6590  178.8950  142.1100 C   0  0  0  0  0  2  0  0  0  0  0  0
  188.3280  177.5740  137.7200 C   0  0  0  0  0  2  0  0  0  0  0  0
  183.8380  178.3910  139.6320 C   0  0  0  0  0  3  0  0  0  0  0  0
  184.4250  178.6060  140.8780 C   0  0  0  0  0  0  0  0  0  0  0  0
  184.6590  179.4820  143.1040 C   0  0  0  0  0  2  0  0  0  0  0  0
  186.0550  178.1220  138.6640 C   0  0  0  0  0  0  0  0  0  0  0  0
  184.6590  178.1560  138.5240 C   0  0  0  0  0  3  0  0  0  0  0  0
  186.3390  178.8710  142.7060 S   0  0  0  0  0  0  0  0  0  0  0  0
  188.9210  178.4360  138.8320 C   0  0  1  0  0  3  0  0  0  0  0  0
  188.9320  179.7830  138.4580 O   0  0  0  0  0  0  0  0  0  0  0  0
  189.2230  179.7690  137.1750 O   0  0  0  0  0  1  0  0  0  0  0  0
  188.4720  176.9670  140.7320 N   0  0  0  0  0  2  0  0  0  0  0  0
  189.7510  176.0550  142.5410 C   0  0  2  0  0  3  0  0  0  0  0  0
  190.5490  176.1390  141.3840 O   0  0  0  0  0  0  0  0  0  0  0  0
  189.6280  177.1800  141.5840 C   0  0  1  0  0  3  0  0  0  0  0  0
  188.4610  176.9630  145.0310 C   0  0  0  0  0  1  0  0  0  0  0  0
  190.5570  176.4620  143.7380 C   0  0  0  0  0  0  0  0  0  0  0  0
  189.9170  176.8640  144.9620 N   0  0  0  0  0  0  0  0  0  0  0  0
  191.8150  176.4830  143.6490 O   0  0  0  0  0  0  0  0  0  0  0  0
  190.2580  177.1240  147.3480 C   0  0  0  0  0  2  0  0  0  0  0  0
  190.7240  177.1870  146.1050 C   0  0  0  0  0  3  0  0  0  0  0  0
  1  2  1  0  0  0  0
  1  4  1  0  0  0  0
  2 16  1  6  0  0  0
  3  6  1  0  0  0  0
  3 10  1  0  0  0  0
  4 12  1  0  0  0  0
  5  9  1  0  0  0  0
  6 13  1  0  0  0  0
  7  8  1  0  0  0  0
  8  4  2  0  0  0  0
  8  5  1  0  0  0  0
 10  1  2  0  0  0  0
 11 10  1  0  0  0  0
 11  7  2  0  0  0  0
 12  9  1  0  0  0  0
 13 14  1  6  0  0  0
 13  2  1  0  0  0  0
 15 14  1  0  0  0  0
 17 21  1  1  0  0  0
 18 19  1  0  0  0  0
 18 17  1  0  0  0  0
 19 16  1  6  0  0  0
 19 17  1  0  0  0  0
 21 22  1  0  0  0  0
 22 20  1  0  0  0  0
 22 25  1  0  0  0  0
 23 21  2  0  0  0  0
 25 24  2  0  0  0  0
M  END
>  <MODEL>
9

>  <REMARK>
 VINA RESULT:      -6.4      2.073      6.123
  Name = 
  5 active torsions:
  status: ('A' for Active; 'I' for Inactive)
    1  A    between atoms: C_3  and  N_16
    2  A    between atoms: C_6  and  C_15
    3  A    between atoms: C_7  and  N_21
    4  A    between atoms: O_13  and  C_24
    5  A    between atoms: N_16  and  C_23
                            x       y       z     vdW  Elec       q    Type
                         _______ _______ _______ _____ _____    ______ ____

>  <TORSDO>
F 5

$$$$
