=
 OpenBabel10272413583D

 30 33  0  0  1  0  0  0  0  0999 V2000
  184.4450  178.5530  143.0110 C   0  0  0  0  0  0  0  0  0  0  0  0
  185.6290  179.0580  145.1260 C   0  0  0  0  0  2  0  0  0  0  0  0
  188.5940  176.1310  143.0280 C   0  0  0  0  0  2  0  0  0  0  0  0
  186.4360  179.3170  141.0210 C   0  0  0  0  0  2  0  0  0  0  0  0
  183.8570  177.5860  142.1350 N   0  0  0  0  0  2  0  0  0  0  0  0
  184.1540  179.0780  140.1040 C   0  0  1  0  0  3  0  0  0  0  0  0
  182.8220  177.0780  140.1140 O   0  0  0  0  0  0  0  0  0  0  0  0
  188.5370  177.7430  139.6490 C   0  0  2  0  0  3  0  0  0  0  0  0
  189.2320  176.8630  141.8940 C   0  0  0  0  0  0  0  0  0  0  0  0
  183.5310  177.8840  140.7720 C   0  0  0  0  0  0  0  0  0  0  0  0
  185.5920  178.8630  139.9190 N   0  0  0  0  0  0  0  0  0  0  0  0
  186.2660  178.4310  146.3240 C   0  0  0  0  0  3  0  0  0  0  0  0
  187.2800  177.0960  139.0510 C   0  0  0  0  0  2  0  0  0  0  0  0
  184.0720  179.7590  142.9590 O   0  0  0  0  0  0  0  0  0  0  0  0
  187.8380  177.0860  143.9010 C   0  0  0  0  0  0  0  0  0  0  0  0
  187.2530  177.5330  146.3450 C   0  0  0  0  0  3  0  0  0  0  0  0
  185.5770  178.1450  143.9120 C   0  0  2  0  0  3  0  0  0  0  0  0
  187.0490  178.1110  141.7190 C   0  0  1  0  0  3  0  0  0  0  0  0
  190.3770  176.5900  141.5700 O   0  0  0  0  0  0  0  0  0  0  0  0
  188.4800  177.9490  141.1780 C   0  0  2  0  0  3  0  0  0  0  0  0
  185.5240  177.9940  137.7410 O   0  0  0  0  0  0  0  0  0  0  0  0
  187.9420  176.8720  145.2170 C   0  0  0  0  0  3  0  0  0  0  0  0
  186.9850  178.1790  143.2730 C   0  0  2  0  0  3  0  0  0  0  0  0
  186.1080  178.0250  138.8560 C   0  0  0  0  0  0  0  0  0  0  0  0
  183.4270  179.5510  138.8450 C   0  0  0  0  0  2  0  0  0  0  0  0
  182.0480  180.0940  139.1820 C   0  0  0  0  0  2  0  0  0  0  0  0
  181.8010  181.4160  138.4800 C   0  0  0  0  0  1  0  0  0  0  0  0
  188.9440  179.0150  138.9090 C   0  0  0  0  0  2  0  0  0  0  0  0
  190.0870  177.4410  137.3470 C   0  0  0  0  0  1  0  0  0  0  0  0
  189.2890  178.7280  137.4570 C   0  0  0  0  0  2  0  0  0  0  0  0
  1 17  1  0  0  0  0
  2 12  1  0  0  0  0
  3 15  1  0  0  0  0
  5  1  1  0  0  0  0
  6 25  1  6  0  0  0
  6 10  1  0  0  0  0
  7 10  2  0  0  0  0
  8 28  1  6  0  0  0
  8 20  1  0  0  0  0
  9  3  1  0  0  0  0
 10  5  1  0  0  0  0
 11  6  1  0  0  0  0
 11  4  1  0  0  0  0
 12 16  2  0  0  0  0
 13  8  1  0  0  0  0
 14  1  2  0  0  0  0
 15 22  2  0  0  0  0
 17  2  1  1  0  0  0
 18  4  1  6  0  0  0
 18 23  1  0  0  0  0
 19  9  2  0  0  0  0
 20 18  1  0  0  0  0
 20  9  1  1  0  0  0
 21 24  2  0  0  0  0
 22 16  1  0  0  0  0
 23 15  1  1  0  0  0
 23 17  1  0  0  0  0
 24 13  1  0  0  0  0
 24 11  1  0  0  0  0
 25 26  1  0  0  0  0
 27 26  1  0  0  0  0
 29 30  1  0  0  0  0
 30 28  1  0  0  0  0
M  END
>  <MODEL>
1

>  <REMARK>
 VINA RESULT:      -7.0      0.000      0.000
  Name = 
  4 active torsions:
  status: ('A' for Active; 'I' for Inactive)
    1  A    between atoms: C_6  and  C_8
    2  A    between atoms: C_6  and  C_17
    3  A    between atoms: C_7  and  C_10
    4  A    between atoms: C_7  and  C_26
                            x       y       z     vdW  Elec       q    Type
                         _______ _______ _______ _____ _____    ______ ____

>  <TORSDO>
F 4

$$$$
=
 OpenBabel10272413583D

 30 33  0  0  1  0  0  0  0  0999 V2000
  189.6550  176.8400  136.5360 C   0  0  0  0  0  0  0  0  0  0  0  0
  191.5130  175.2110  136.3860 C   0  0  0  0  0  2  0  0  0  0  0  0
  192.6650  177.6470  140.1930 C   0  0  0  0  0  2  0  0  0  0  0  0
  188.6420  176.3370  139.2260 C   0  0  0  0  0  2  0  0  0  0  0  0
  189.2170  178.2030  136.5650 N   0  0  0  0  0  2  0  0  0  0  0  0
  187.0780  177.6090  137.7960 C   0  0  1  0  0  3  0  0  0  0  0  0
  187.4960  179.7520  136.7930 O   0  0  0  0  0  0  0  0  0  0  0  0
  189.2980  177.5850  141.8300 C   0  0  2  0  0  3  0  0  0  0  0  0
  191.7260  177.2580  141.2860 C   0  0  0  0  0  0  0  0  0  0  0  0
  187.9020  178.5760  136.9920 C   0  0  0  0  0  0  0  0  0  0  0  0
  187.6700  177.4220  139.1240 N   0  0  0  0  0  0  0  0  0  0  0  0
  193.0010  175.0900  136.3310 C   0  0  0  0  0  3  0  0  0  0  0  0
  188.6210  178.7690  141.1250 C   0  0  0  0  0  2  0  0  0  0  0  0
  188.8580  175.9310  136.1710 O   0  0  0  0  0  0  0  0  0  0  0  0
  192.5220  176.7130  139.0300 C   0  0  0  0  0  0  0  0  0  0  0  0
  193.8900  175.5540  137.2120 C   0  0  0  0  0  3  0  0  0  0  0  0
  191.0260  176.4920  137.0440 C   0  0  2  0  0  3  0  0  0  0  0  0
  190.0300  176.9200  139.4510 C   0  0  1  0  0  3  0  0  0  0  0  0
  192.1140  177.2650  142.4440 O   0  0  0  0  0  0  0  0  0  0  0  0
  190.3230  176.8280  140.9590 C   0  0  2  0  0  3  0  0  0  0  0  0
  186.4290  179.0450  140.2750 O   0  0  0  0  0  0  0  0  0  0  0  0
  193.6650  176.3540  138.4350 C   0  0  0  0  0  3  0  0  0  0  0  0
  191.1390  176.2750  138.5710 C   0  0  2  0  0  3  0  0  0  0  0  0
  187.5070  178.4030  140.1780 C   0  0  0  0  0  0  0  0  0  0  0  0
  185.5810  177.9150  137.8170 C   0  0  0  0  0  2  0  0  0  0  0  0
  184.8160  176.9630  136.9120 C   0  0  0  0  0  2  0  0  0  0  0  0
  185.4470  175.5830  136.9230 C   0  0  0  0  0  1  0  0  0  0  0  0
  188.2890  176.6440  142.4840 C   0  0  0  0  0  2  0  0  0  0  0  0
  189.2580  177.3540  144.6710 C   0  0  0  0  0  1  0  0  0  0  0  0
  187.9760  177.0680  143.9110 C   0  0  0  0  0  2  0  0  0  0  0  0
  1  5  1  0  0  0  0
  1 17  1  0  0  0  0
  3  9  1  0  0  0  0
  5 10  1  0  0  0  0
  6 25  1  1  0  0  0
  6 11  1  0  0  0  0
  7 10  2  0  0  0  0
  8 28  1  6  0  0  0
  9 19  2  0  0  0  0
 10  6  1  0  0  0  0
 11  4  1  0  0  0  0
 11 24  1  0  0  0  0
 12  2  1  0  0  0  0
 12 16  2  0  0  0  0
 13  8  1  0  0  0  0
 14  1  2  0  0  0  0
 15  3  1  0  0  0  0
 16 22  1  0  0  0  0
 17  2  1  6  0  0  0
 17 23  1  0  0  0  0
 18  4  1  1  0  0  0
 18 20  1  0  0  0  0
 20  9  1  6  0  0  0
 20  8  1  0  0  0  0
 22 15  2  0  0  0  0
 23 15  1  1  0  0  0
 23 18  1  0  0  0  0
 24 21  2  0  0  0  0
 24 13  1  0  0  0  0
 26 27  1  0  0  0  0
 26 25  1  0  0  0  0
 28 30  1  0  0  0  0
 30 29  1  0  0  0  0
M  END
>  <MODEL>
2

>  <REMARK>
 VINA RESULT:      -7.0      2.730      6.520
  Name = 
  4 active torsions:
  status: ('A' for Active; 'I' for Inactive)
    1  A    between atoms: C_6  and  C_8
    2  A    between atoms: C_6  and  C_17
    3  A    between atoms: C_7  and  C_10
    4  A    between atoms: C_7  and  C_26
                            x       y       z     vdW  Elec       q    Type
                         _______ _______ _______ _____ _____    ______ ____

>  <TORSDO>
F 4

$$$$
=
 OpenBabel10272413583D

 30 33  0  0  1  0  0  0  0  0999 V2000
  189.5630  177.3480  144.7740 C   0  0  0  0  0  0  0  0  0  0  0  0
  188.9250  176.4710  146.9990 C   0  0  0  0  0  2  0  0  0  0  0  0
  185.6280  179.6810  146.2400 C   0  0  0  0  0  2  0  0  0  0  0  0
  187.1170  176.9170  143.2440 C   0  0  0  0  0  2  0  0  0  0  0  0
  189.9470  178.4590  143.9560 N   0  0  0  0  0  2  0  0  0  0  0  0
  189.1070  177.3380  141.8400 C   0  0  1  0  0  3  0  0  0  0  0  0
  190.4630  179.3220  141.8580 O   0  0  0  0  0  0  0  0  0  0  0  0
  184.7930  178.6800  142.7310 C   0  0  2  0  0  3  0  0  0  0  0  0
  184.7060  179.1500  145.1940 C   0  0  0  0  0  0  0  0  0  0  0  0
  189.9140  178.4050  142.5250 C   0  0  0  0  0  0  0  0  0  0  0  0
  187.6760  177.5650  142.0600 N   0  0  0  0  0  0  0  0  0  0  0  0
  188.6270  176.8730  148.4070 C   0  0  0  0  0  3  0  0  0  0  0  0
  185.8830  179.4350  141.9570 C   0  0  0  0  0  2  0  0  0  0  0  0
  189.8730  176.1740  144.4250 O   0  0  0  0  0  0  0  0  0  0  0  0
  186.5460  178.5980  146.7200 C   0  0  0  0  0  0  0  0  0  0  0  0
  187.7050  177.7420  148.8280 C   0  0  0  0  0  3  0  0  0  0  0  0
  188.7040  177.5800  145.9840 C   0  0  2  0  0  3  0  0  0  0  0  0
  186.7360  177.9760  144.2690 C   0  0  1  0  0  3  0  0  0  0  0  0
  183.5260  179.4610  145.2180 O   0  0  0  0  0  0  0  0  0  0  0  0
  185.2210  178.2130  144.1380 C   0  0  2  0  0  3  0  0  0  0  0  0
  187.2290  178.7990  140.1160 O   0  0  0  0  0  0  0  0  0  0  0  0
  186.7790  178.5800  148.0370 C   0  0  0  0  0  3  0  0  0  0  0  0
  187.1810  177.6410  145.7220 C   0  0  2  0  0  3  0  0  0  0  0  0
  186.9390  178.5680  141.3190 C   0  0  0  0  0  0  0  0  0  0  0  0
  189.4830  177.0990  140.3780 C   0  0  0  0  0  2  0  0  0  0  0  0
  190.9130  176.5990  140.2570 C   0  0  0  0  0  2  0  0  0  0  0  0
  191.3660  176.6040  138.8090 C   0  0  0  0  0  1  0  0  0  0  0  0
  184.1740  177.5500  141.9100 C   0  0  0  0  0  2  0  0  0  0  0  0
  182.0040  178.7770  141.8160 C   0  0  0  0  0  1  0  0  0  0  0  0
  183.0680  178.0640  141.0020 C   0  0  0  0  0  2  0  0  0  0  0  0
  1 17  1  0  0  0  0
  2 12  1  0  0  0  0
  3 15  1  0  0  0  0
  5  1  1  0  0  0  0
  6 25  1  6  0  0  0
  6 11  1  0  0  0  0
  6 10  1  0  0  0  0
  7 10  2  0  0  0  0
  8 28  1  6  0  0  0
  8 20  1  0  0  0  0
  9 19  2  0  0  0  0
  9  3  1  0  0  0  0
 10  5  1  0  0  0  0
 11  4  1  0  0  0  0
 12 16  2  0  0  0  0
 13  8  1  0  0  0  0
 14  1  2  0  0  0  0
 15 22  2  0  0  0  0
 17  2  1  1  0  0  0
 18  4  1  6  0  0  0
 18 23  1  0  0  0  0
 20 18  1  0  0  0  0
 20  9  1  1  0  0  0
 21 24  2  0  0  0  0
 22 16  1  0  0  0  0
 23 17  1  0  0  0  0
 23 15  1  1  0  0  0
 24 13  1  0  0  0  0
 24 11  1  0  0  0  0
 26 25  1  0  0  0  0
 27 26  1  0  0  0  0
 30 29  1  0  0  0  0
 30 28  1  0  0  0  0
M  END
>  <MODEL>
3

>  <REMARK>
 VINA RESULT:      -7.0      2.269      5.808
  Name = 
  4 active torsions:
  status: ('A' for Active; 'I' for Inactive)
    1  A    between atoms: C_6  and  C_8
    2  A    between atoms: C_6  and  C_17
    3  A    between atoms: C_7  and  C_10
    4  A    between atoms: C_7  and  C_26
                            x       y       z     vdW  Elec       q    Type
                         _______ _______ _______ _____ _____    ______ ____

>  <TORSDO>
F 4

$$$$
=
 OpenBabel10272413583D

 30 33  0  0  1  0  0  0  0  0999 V2000
  189.7690  174.7910  135.4460 C   0  0  0  0  0  0  0  0  0  0  0  0
  191.4020  173.0350  136.0610 C   0  0  0  0  0  2  0  0  0  0  0  0
  193.0370  176.7350  138.3820 C   0  0  0  0  0  2  0  0  0  0  0  0
  188.8400  175.6790  138.0650 C   0  0  0  0  0  2  0  0  0  0  0  0
  189.5040  176.0680  134.8560 N   0  0  0  0  0  2  0  0  0  0  0  0
  187.3740  176.3750  136.2000 C   0  0  1  0  0  3  0  0  0  0  0  0
  188.0010  177.7700  134.3470 O   0  0  0  0  0  0  0  0  0  0  0  0
  189.7760  177.8570  139.8390 C   0  0  2  0  0  3  0  0  0  0  0  0
  192.1140  177.0020  139.5240 C   0  0  0  0  0  0  0  0  0  0  0  0
  188.2690  176.7640  135.0570 C   0  0  0  0  0  0  0  0  0  0  0  0
  188.0050  176.7230  137.4770 N   0  0  0  0  0  0  0  0  0  0  0  0
  192.8590  172.7050  136.0810 C   0  0  0  0  0  3  0  0  0  0  0  0
  189.2150  178.6810  138.6710 C   0  0  0  0  0  2  0  0  0  0  0  0
  188.8490  173.9290  135.5190 O   0  0  0  0  0  0  0  0  0  0  0  0
  192.7210  175.4090  137.7610 C   0  0  0  0  0  0  0  0  0  0  0  0
  193.8420  173.3910  136.6700 C   0  0  0  0  0  3  0  0  0  0  0  0
  191.1110  174.5260  136.0690 C   0  0  2  0  0  3  0  0  0  0  0  0
  190.2980  176.1110  138.0190 C   0  0  1  0  0  3  0  0  0  0  0  0
  192.5580  177.4730  140.5590 O   0  0  0  0  0  0  0  0  0  0  0  0
  190.6540  176.6630  139.4110 C   0  0  2  0  0  3  0  0  0  0  0  0
  187.0330  178.8380  137.7660 O   0  0  0  0  0  0  0  0  0  0  0  0
  193.7790  174.6730  137.4010 C   0  0  0  0  0  3  0  0  0  0  0  0
  191.2740  175.0000  137.5320 C   0  0  2  0  0  3  0  0  0  0  0  0
  188.0170  178.0830  137.9780 C   0  0  0  0  0  0  0  0  0  0  0  0
  185.9290  176.8550  136.0670 C   0  0  0  0  0  2  0  0  0  0  0  0
  184.9980  176.0320  136.9410 C   0  0  0  0  0  2  0  0  0  0  0  0
  185.2650  174.5490  136.7690 C   0  0  0  0  0  1  0  0  0  0  0  0
  188.6920  177.4500  140.8360 C   0  0  0  0  0  2  0  0  0  0  0  0
  188.2020  176.4970  143.0890 C   0  0  0  0  0  1  0  0  0  0  0  0
  189.2930  176.8250  142.0860 C   0  0  0  0  0  2  0  0  0  0  0  0
  1 14  2  0  0  0  0
  1 17  1  0  0  0  0
  2 12  1  0  0  0  0
  3  9  1  0  0  0  0
  5 10  1  0  0  0  0
  5  1  1  0  0  0  0
  6 25  1  6  0  0  0
  6 11  1  0  0  0  0
  7 10  2  0  0  0  0
  8 28  1  6  0  0  0
  9 19  2  0  0  0  0
 10  6  1  0  0  0  0
 11 24  1  0  0  0  0
 11  4  1  0  0  0  0
 12 16  2  0  0  0  0
 13  8  1  0  0  0  0
 15  3  1  0  0  0  0
 16 22  1  0  0  0  0
 17  2  1  1  0  0  0
 17 23  1  0  0  0  0
 18  4  1  1  0  0  0
 18 20  1  0  0  0  0
 20  9  1  6  0  0  0
 20  8  1  0  0  0  0
 21 24  2  0  0  0  0
 22 15  2  0  0  0  0
 23 15  1  6  0  0  0
 23 18  1  0  0  0  0
 24 13  1  0  0  0  0
 25 26  1  0  0  0  0
 27 26  1  0  0  0  0
 28 30  1  0  0  0  0
 30 29  1  0  0  0  0
M  END
>  <MODEL>
4

>  <REMARK>
 VINA RESULT:      -6.8      3.519      7.323
  Name = 
  4 active torsions:
  status: ('A' for Active; 'I' for Inactive)
    1  A    between atoms: C_6  and  C_8
    2  A    between atoms: C_6  and  C_17
    3  A    between atoms: C_7  and  C_10
    4  A    between atoms: C_7  and  C_26
                            x       y       z     vdW  Elec       q    Type
                         _______ _______ _______ _____ _____    ______ ____

>  <TORSDO>
F 4

$$$$
=
 OpenBabel10272413583D

 30 33  0  0  1  0  0  0  0  0999 V2000
  189.7370  177.3490  140.1320 C   0  0  0  0  0  0  0  0  0  0  0  0
  189.5340  178.5340  137.9680 C   0  0  0  0  0  2  0  0  0  0  0  0
  185.0850  177.5400  138.9510 C   0  0  0  0  0  2  0  0  0  0  0  0
  187.9970  178.9430  141.8460 C   0  0  0  0  0  2  0  0  0  0  0  0
  189.5160  176.1680  140.9090 N   0  0  0  0  0  2  0  0  0  0  0  0
  189.5350  177.4620  143.0910 C   0  0  1  0  0  3  0  0  0  0  0  0
  189.6170  175.0650  142.9560 O   0  0  0  0  0  0  0  0  0  0  0  0
  185.1270  178.6660  142.5210 C   0  0  2  0  0  3  0  0  0  0  0  0
  184.6540  178.4310  140.0680 C   0  0  0  0  0  0  0  0  0  0  0  0
  189.6030  176.1630  142.3390 C   0  0  0  0  0  0  0  0  0  0  0  0
  188.1930  178.0430  142.9790 N   0  0  0  0  0  0  0  0  0  0  0  0
  188.9830  178.4200  136.5840 C   0  0  0  0  0  3  0  0  0  0  0  0
  185.6880  177.4110  143.2040 C   0  0  0  0  0  2  0  0  0  0  0  0
  190.6470  178.1600  140.4650 O   0  0  0  0  0  0  0  0  0  0  0  0
  186.4080  177.9890  138.4110 C   0  0  0  0  0  0  0  0  0  0  0  0
  187.7160  178.1950  136.2280 C   0  0  0  0  0  3  0  0  0  0  0  0
  188.8160  177.6670  138.9880 C   0  0  2  0  0  3  0  0  0  0  0  0
  187.0480  178.2990  140.8450 C   0  0  1  0  0  3  0  0  0  0  0  0
  183.4910  178.7970  140.1310 O   0  0  0  0  0  0  0  0  0  0  0  0
  185.6520  178.8990  141.0890 C   0  0  2  0  0  3  0  0  0  0  0  0
  187.2740  177.1460  144.9420 O   0  0  0  0  0  0  0  0  0  0  0  0
  186.5350  177.9430  137.0800 C   0  0  0  0  0  3  0  0  0  0  0  0
  187.5150  178.4130  139.3650 C   0  0  2  0  0  3  0  0  0  0  0  0
  187.0800  177.5520  143.7670 C   0  0  0  0  0  0  0  0  0  0  0  0
  190.0670  177.3950  144.5220 C   0  0  0  0  0  2  0  0  0  0  0  0
  191.4480  178.0230  144.6210 C   0  0  0  0  0  2  0  0  0  0  0  0
  191.4340  179.4460  144.0960 C   0  0  0  0  0  1  0  0  0  0  0  0
  185.2580  179.9120  143.3950 C   0  0  0  0  0  2  0  0  0  0  0  0
  182.9830  179.1650  144.0970 C   0  0  0  0  0  1  0  0  0  0  0  0
  184.2340  179.9130  144.5190 C   0  0  0  0  0  2  0  0  0  0  0  0
  1 14  2  0  0  0  0
  1  5  1  0  0  0  0
  3  9  1  0  0  0  0
  4 11  1  0  0  0  0
  5 10  1  0  0  0  0
  6 25  1  1  0  0  0
  8 13  1  0  0  0  0
  8 28  1  1  0  0  0
  9 19  2  0  0  0  0
 10  7  2  0  0  0  0
 10  6  1  0  0  0  0
 11  6  1  0  0  0  0
 11 24  1  0  0  0  0
 12  2  1  0  0  0  0
 13 24  1  0  0  0  0
 15  3  1  0  0  0  0
 16 12  2  0  0  0  0
 16 22  1  0  0  0  0
 17  2  1  6  0  0  0
 17 23  1  0  0  0  0
 17  1  1  0  0  0  0
 18 20  1  0  0  0  0
 18  4  1  1  0  0  0
 20  9  1  6  0  0  0
 20  8  1  0  0  0  0
 22 15  2  0  0  0  0
 23 15  1  6  0  0  0
 23 18  1  0  0  0  0
 24 21  2  0  0  0  0
 25 26  1  0  0  0  0
 27 26  1  0  0  0  0
 28 30  1  0  0  0  0
 29 30  1  0  0  0  0
M  END
>  <MODEL>
5

>  <REMARK>
 VINA RESULT:      -6.7      2.173      7.063
  Name = 
  4 active torsions:
  status: ('A' for Active; 'I' for Inactive)
    1  A    between atoms: C_6  and  C_8
    2  A    between atoms: C_6  and  C_17
    3  A    between atoms: C_7  and  C_10
    4  A    between atoms: C_7  and  C_26
                            x       y       z     vdW  Elec       q    Type
                         _______ _______ _______ _____ _____    ______ ____

>  <TORSDO>
F 4

$$$$
=
 OpenBabel10272413583D

 30 33  0  0  1  0  0  0  0  0999 V2000
  183.3060  178.1540  141.4070 C   0  0  0  0  0  0  0  0  0  0  0  0
  183.9180  179.3530  143.4840 C   0  0  0  0  0  2  0  0  0  0  0  0
  187.8440  177.0290  142.5140 C   0  0  0  0  0  2  0  0  0  0  0  0
  185.3840  179.0560  139.5690 C   0  0  0  0  0  2  0  0  0  0  0  0
  183.1450  176.9160  140.7070 N   0  0  0  0  0  2  0  0  0  0  0  0
  183.4400  178.0250  138.4440 C   0  0  1  0  0  3  0  0  0  0  0  0
  182.6590  175.7720  138.7400 O   0  0  0  0  0  0  0  0  0  0  0  0
  188.0220  177.9020  138.8780 C   0  0  2  0  0  3  0  0  0  0  0  0
  188.4820  177.6840  141.3350 C   0  0  0  0  0  0  0  0  0  0  0  0
  183.0150  176.8520  139.2820 C   0  0  0  0  0  0  0  0  0  0  0  0
  184.8960  178.1880  138.5010 N   0  0  0  0  0  0  0  0  0  0  0  0
  184.4550  179.1640  144.8660 C   0  0  0  0  0  3  0  0  0  0  0  0
  187.0950  176.8310  138.2870 C   0  0  0  0  0  2  0  0  0  0  0  0
  182.6660  179.1770  141.0320 O   0  0  0  0  0  0  0  0  0  0  0  0
  186.7290  177.8820  143.0390 C   0  0  0  0  0  0  0  0  0  0  0  0
  185.6100  178.5960  145.2210 C   0  0  0  0  0  3  0  0  0  0  0  0
  184.3170  178.2530  142.5160 C   0  0  2  0  0  3  0  0  0  0  0  0
  186.1320  178.2210  140.5980 C   0  0  1  0  0  3  0  0  0  0  0  0
  189.6990  177.6850  141.2330 O   0  0  0  0  0  0  0  0  0  0  0  0
  187.6350  178.3650  140.2980 C   0  0  2  0  0  3  0  0  0  0  0  0
  185.4470  176.9440  136.5900 O   0  0  0  0  0  0  0  0  0  0  0  0
  186.6360  177.9540  144.3720 C   0  0  0  0  0  3  0  0  0  0  0  0
  185.7670  178.5570  142.0740 C   0  0  2  0  0  3  0  0  0  0  0  0
  185.7890  177.3440  137.7340 C   0  0  0  0  0  0  0  0  0  0  0  0
  182.8660  178.0340  137.0270 C   0  0  0  0  0  2  0  0  0  0  0  0
  181.4910  178.6810  136.9990 C   0  0  0  0  0  2  0  0  0  0  0  0
  181.4820  179.9660  137.8040 C   0  0  0  0  0  1  0  0  0  0  0  0
  188.2370  179.0760  137.9250 C   0  0  0  0  0  2  0  0  0  0  0  0
  188.8220  178.0380  135.7330 C   0  0  0  0  0  1  0  0  0  0  0  0
  189.3570  178.7930  136.9360 C   0  0  0  0  0  2  0  0  0  0  0  0
  1 17  1  0  0  0  0
  2 12  1  0  0  0  0
  3 15  1  0  0  0  0
  5  1  1  0  0  0  0
  6 25  1  6  0  0  0
  6 11  1  0  0  0  0
  6 10  1  0  0  0  0
  7 10  2  0  0  0  0
  8 28  1  6  0  0  0
  8 20  1  0  0  0  0
  9  3  1  0  0  0  0
 10  5  1  0  0  0  0
 11  4  1  0  0  0  0
 12 16  2  0  0  0  0
 13  8  1  0  0  0  0
 14  1  2  0  0  0  0
 15 22  2  0  0  0  0
 17  2  1  1  0  0  0
 18  4  1  6  0  0  0
 18 23  1  0  0  0  0
 19  9  2  0  0  0  0
 20 18  1  0  0  0  0
 20  9  1  1  0  0  0
 21 24  2  0  0  0  0
 22 16  1  0  0  0  0
 23 17  1  0  0  0  0
 23 15  1  1  0  0  0
 24 13  1  0  0  0  0
 24 11  1  0  0  0  0
 26 25  1  0  0  0  0
 26 27  1  0  0  0  0
 29 30  1  0  0  0  0
 30 28  1  0  0  0  0
M  END
>  <MODEL>
6

>  <REMARK>
 VINA RESULT:      -6.5      1.449      1.797
  Name = 
  4 active torsions:
  status: ('A' for Active; 'I' for Inactive)
    1  A    between atoms: C_6  and  C_8
    2  A    between atoms: C_6  and  C_17
    3  A    between atoms: C_7  and  C_10
    4  A    between atoms: C_7  and  C_26
                            x       y       z     vdW  Elec       q    Type
                         _______ _______ _______ _____ _____    ______ ____

>  <TORSDO>
F 4

$$$$
=
 OpenBabel10272413583D

 30 33  0  0  1  0  0  0  0  0999 V2000
  188.2730  177.7160  145.4880 C   0  0  0  0  0  0  0  0  0  0  0  0
  185.8880  177.4080  146.0740 C   0  0  0  0  0  2  0  0  0  0  0  0
  185.6070  179.9130  142.1500 C   0  0  0  0  0  2  0  0  0  0  0  0
  188.3650  176.6230  142.7850 C   0  0  0  0  0  2  0  0  0  0  0  0
  189.3690  178.6000  145.2290 N   0  0  0  0  0  2  0  0  0  0  0  0
  190.5880  176.8640  143.8360 C   0  0  1  0  0  3  0  0  0  0  0  0
  191.5850  178.9150  144.5940 O   0  0  0  0  0  0  0  0  0  0  0  0
  188.0530  177.9160  140.1390 C   0  0  2  0  0  3  0  0  0  0  0  0
  185.9770  179.0210  141.0120 C   0  0  0  0  0  0  0  0  0  0  0  0
  190.5780  178.1590  144.6000 C   0  0  0  0  0  0  0  0  0  0  0  0
  189.7710  176.9840  142.6250 N   0  0  0  0  0  0  0  0  0  0  0  0
  184.6100  178.1400  146.3250 C   0  0  0  0  0  3  0  0  0  0  0  0
  189.3750  178.5490  140.5960 C   0  0  0  0  0  2  0  0  0  0  0  0
  188.4970  176.5330  145.8700 O   0  0  0  0  0  0  0  0  0  0  0  0
  185.4180  179.1070  143.3990 C   0  0  0  0  0  0  0  0  0  0  0  0
  183.9800  178.9840  145.5040 C   0  0  0  0  0  3  0  0  0  0  0  0
  186.8700  178.1710  145.2010 C   0  0  2  0  0  3  0  0  0  0  0  0
  187.5030  177.8710  142.6550 C   0  0  1  0  0  3  0  0  0  0  0  0
  185.4610  179.1970  139.9180 O   0  0  0  0  0  0  0  0  0  0  0  0
  186.9510  177.8960  141.2180 C   0  0  2  0  0  3  0  0  0  0  0  0
  191.4730  177.5910  141.1300 O   0  0  0  0  0  0  0  0  0  0  0  0
  184.3870  179.4710  144.1700 C   0  0  0  0  0  3  0  0  0  0  0  0
  186.3940  177.9920  143.7400 C   0  0  2  0  0  3  0  0  0  0  0  0
  190.2560  177.6630  141.4400 C   0  0  0  0  0  0  0  0  0  0  0  0
  191.9810  176.2820  143.5930 C   0  0  0  0  0  2  0  0  0  0  0  0
  192.2250  175.0660  144.4710 C   0  0  0  0  0  2  0  0  0  0  0  0
  191.9880  175.3970  145.9320 C   0  0  0  0  0  1  0  0  0  0  0  0
  188.2570  176.5460  139.4950 C   0  0  0  0  0  2  0  0  0  0  0  0
  187.3310  177.5220  137.3940 C   0  0  0  0  0  1  0  0  0  0  0  0
  188.4280  176.6590  137.9880 C   0  0  0  0  0  2  0  0  0  0  0  0
  1 14  2  0  0  0  0
  2 12  1  0  0  0  0
  3 15  1  0  0  0  0
  5  1  1  0  0  0  0
  6 25  1  6  0  0  0
  6 10  1  0  0  0  0
  7 10  2  0  0  0  0
  8 28  1  1  0  0  0
  8 13  1  0  0  0  0
  8 20  1  0  0  0  0
  9  3  1  0  0  0  0
 10  5  1  0  0  0  0
 11  4  1  0  0  0  0
 11  6  1  0  0  0  0
 13 24  1  0  0  0  0
 15 22  2  0  0  0  0
 16 12  2  0  0  0  0
 17  1  1  0  0  0  0
 17  2  1  1  0  0  0
 18  4  1  1  0  0  0
 18 23  1  0  0  0  0
 19  9  2  0  0  0  0
 20  9  1  1  0  0  0
 20 18  1  0  0  0  0
 21 24  2  0  0  0  0
 22 16  1  0  0  0  0
 23 15  1  6  0  0  0
 23 17  1  0  0  0  0
 24 11  1  0  0  0  0
 25 26  1  0  0  0  0
 26 27  1  0  0  0  0
 29 30  1  0  0  0  0
 30 28  1  0  0  0  0
M  END
>  <MODEL>
7

>  <REMARK>
 VINA RESULT:      -6.4      2.613      5.942
  Name = 
  4 active torsions:
  status: ('A' for Active; 'I' for Inactive)
    1  A    between atoms: C_6  and  C_8
    2  A    between atoms: C_6  and  C_17
    3  A    between atoms: C_7  and  C_10
    4  A    between atoms: C_7  and  C_26
                            x       y       z     vdW  Elec       q    Type
                         _______ _______ _______ _____ _____    ______ ____

>  <TORSDO>
F 4

$$$$
=
 OpenBabel10272413583D

 30 33  0  0  1  0  0  0  0  0999 V2000
  186.1790  178.0350  138.1090 C   0  0  0  0  0  0  0  0  0  0  0  0
  184.4040  179.6510  138.7110 C   0  0  0  0  0  2  0  0  0  0  0  0
  185.2530  177.5750  142.8010 C   0  0  0  0  0  2  0  0  0  0  0  0
  188.3080  178.7750  139.9610 C   0  0  0  0  0  2  0  0  0  0  0  0
  186.6320  176.6780  138.0410 N   0  0  0  0  0  2  0  0  0  0  0  0
  189.0730  177.3720  138.0760 C   0  0  1  0  0  3  0  0  0  0  0  0
  188.3190  175.1480  137.5640 O   0  0  0  0  0  0  0  0  0  0  0  0
  188.9900  177.7710  142.6620 C   0  0  2  0  0  3  0  0  0  0  0  0
  186.5770  178.0590  143.2910 C   0  0  0  0  0  0  0  0  0  0  0  0
  188.0080  176.3390  137.8330 C   0  0  0  0  0  0  0  0  0  0  0  0
  189.1610  177.6810  139.5060 N   0  0  0  0  0  0  0  0  0  0  0  0
  183.0580  179.7740  139.3480 C   0  0  0  0  0  3  0  0  0  0  0  0
  189.3050  176.5260  141.8230 C   0  0  0  0  0  2  0  0  0  0  0  0
  186.6780  178.9030  137.3400 O   0  0  0  0  0  0  0  0  0  0  0  0
  184.8020  178.4000  141.6340 C   0  0  0  0  0  0  0  0  0  0  0  0
  182.7010  179.3950  140.5780 C   0  0  0  0  0  3  0  0  0  0  0  0
  185.1900  178.4330  139.1680 C   0  0  2  0  0  3  0  0  0  0  0  0
  187.2090  178.2210  140.8560 C   0  0  1  0  0  3  0  0  0  0  0  0
  186.7740  178.1570  144.4930 O   0  0  0  0  0  0  0  0  0  0  0  0
  187.6490  178.4510  142.3130 C   0  0  2  0  0  3  0  0  0  0  0  0
  190.8580  176.1630  140.0730 O   0  0  0  0  0  0  0  0  0  0  0  0
  183.5000  178.7090  141.6140 C   0  0  0  0  0  3  0  0  0  0  0  0
  185.7930  178.7880  140.5470 C   0  0  2  0  0  3  0  0  0  0  0  0
  189.8350  176.7990  140.4380 C   0  0  0  0  0  0  0  0  0  0  0  0
  190.4180  177.0620  137.4200 C   0  0  0  0  0  2  0  0  0  0  0  0
  190.2710  176.9180  135.9140 C   0  0  0  0  0  2  0  0  0  0  0  0
  191.1130  175.7670  135.3960 C   0  0  0  0  0  1  0  0  0  0  0  0
  190.1500  178.7630  142.6890 C   0  0  0  0  0  2  0  0  0  0  0  0
  190.2280  177.8090  144.9930 C   0  0  0  0  0  1  0  0  0  0  0  0
  190.7000  178.9390  144.0960 C   0  0  0  0  0  2  0  0  0  0  0  0
  1 17  1  0  0  0  0
  2 12  1  0  0  0  0
  3  9  1  0  0  0  0
  5  1  1  0  0  0  0
  6 25  1  1  0  0  0
  6 11  1  0  0  0  0
  7 10  2  0  0  0  0
  8 28  1  6  0  0  0
  9 19  2  0  0  0  0
 10  5  1  0  0  0  0
 10  6  1  0  0  0  0
 11  4  1  0  0  0  0
 11 24  1  0  0  0  0
 12 16  2  0  0  0  0
 13  8  1  0  0  0  0
 14  1  2  0  0  0  0
 15  3  1  0  0  0  0
 16 22  1  0  0  0  0
 17  2  1  6  0  0  0
 17 23  1  0  0  0  0
 18  4  1  6  0  0  0
 18 20  1  0  0  0  0
 20  8  1  0  0  0  0
 20  9  1  1  0  0  0
 21 24  2  0  0  0  0
 22 15  2  0  0  0  0
 23 18  1  0  0  0  0
 23 15  1  1  0  0  0
 24 13  1  0  0  0  0
 26 25  1  0  0  0  0
 27 26  1  0  0  0  0
 28 30  1  0  0  0  0
 30 29  1  0  0  0  0
M  END
>  <MODEL>
8

>  <REMARK>
 VINA RESULT:      -6.1      2.155      5.717
  Name = 
  4 active torsions:
  status: ('A' for Active; 'I' for Inactive)
    1  A    between atoms: C_6  and  C_8
    2  A    between atoms: C_6  and  C_17
    3  A    between atoms: C_7  and  C_10
    4  A    between atoms: C_7  and  C_26
                            x       y       z     vdW  Elec       q    Type
                         _______ _______ _______ _____ _____    ______ ____

>  <TORSDO>
F 4

$$$$
=
 OpenBabel10272413583D

 30 33  0  0  1  0  0  0  0  0999 V2000
  189.6930  177.3150  143.2720 C   0  0  0  0  0  0  0  0  0  0  0  0
  190.3440  175.9720  145.2470 C   0  0  0  0  0  2  0  0  0  0  0  0
  187.5780  179.2100  147.1470 C   0  0  0  0  0  2  0  0  0  0  0  0
  186.7820  177.1780  143.3960 C   0  0  0  0  0  2  0  0  0  0  0  0
  189.6620  178.5820  142.6060 N   0  0  0  0  0  2  0  0  0  0  0  0
  187.6510  177.9240  141.2060 C   0  0  1  0  0  3  0  0  0  0  0  0
  188.9830  179.8820  140.8000 O   0  0  0  0  0  0  0  0  0  0  0  0
  184.7900  178.9670  144.6600 C   0  0  2  0  0  3  0  0  0  0  0  0
  186.1730  178.8980  146.7530 C   0  0  0  0  0  0  0  0  0  0  0  0
  188.8150  178.8350  141.4790 C   0  0  0  0  0  0  0  0  0  0  0  0
  186.6350  178.0730  142.2520 N   0  0  0  0  0  0  0  0  0  0  0  0
  190.9470  176.0580  146.6110 C   0  0  0  0  0  3  0  0  0  0  0  0
  185.3190  179.8900  143.5540 C   0  0  0  0  0  2  0  0  0  0  0  0
  189.6190  176.2490  142.5990 O   0  0  0  0  0  0  0  0  0  0  0  0
  188.4800  178.0660  146.7960 C   0  0  0  0  0  0  0  0  0  0  0  0
  190.5300  176.8010  147.6400 C   0  0  0  0  0  3  0  0  0  0  0  0
  189.7080  177.2680  144.7740 C   0  0  2  0  0  3  0  0  0  0  0  0
  187.1710  177.9860  144.6250 C   0  0  1  0  0  3  0  0  0  0  0  0
  185.2590  179.1760  147.5140 O   0  0  0  0  0  0  0  0  0  0  0  0
  185.8880  178.2180  145.4430 C   0  0  2  0  0  3  0  0  0  0  0  0
  185.2990  179.6860  141.1950 O   0  0  0  0  0  0  0  0  0  0  0  0
  189.4180  177.7710  147.7030 C   0  0  0  0  0  3  0  0  0  0  0  0
  188.3240  177.3560  145.4600 C   0  0  2  0  0  3  0  0  0  0  0  0
  185.7220  179.1980  142.2760 C   0  0  0  0  0  0  0  0  0  0  0  0
  187.0980  178.0100  139.7830 C   0  0  0  0  0  2  0  0  0  0  0  0
  188.0540  177.3750  138.7870 C   0  0  0  0  0  2  0  0  0  0  0  0
  188.4000  178.3470  137.6750 C   0  0  0  0  0  1  0  0  0  0  0  0
  183.6950  178.0280  144.1590 C   0  0  0  0  0  2  0  0  0  0  0  0
  181.9470  178.7870  142.5480 C   0  0  0  0  0  1  0  0  0  0  0  0
  182.3670  178.7530  144.0060 C   0  0  0  0  0  2  0  0  0  0  0  0
  1 17  1  0  0  0  0
  2 12  1  0  0  0  0
  5  1  1  0  0  0  0
  6 25  1  6  0  0  0
  6 10  1  0  0  0  0
  6 11  1  0  0  0  0
  7 10  2  0  0  0  0
  8 28  1  6  0  0  0
  8 20  1  0  0  0  0
  9  3  1  0  0  0  0
  9 19  2  0  0  0  0
 10  5  1  0  0  0  0
 11 24  1  0  0  0  0
 11  4  1  0  0  0  0
 12 16  2  0  0  0  0
 13  8  1  0  0  0  0
 14  1  2  0  0  0  0
 15  3  1  0  0  0  0
 15 22  2  0  0  0  0
 16 22  1  0  0  0  0
 17  2  1  6  0  0  0
 17 23  1  0  0  0  0
 18  4  1  6  0  0  0
 18 20  1  0  0  0  0
 18 23  1  0  0  0  0
 20  9  1  1  0  0  0
 21 24  2  0  0  0  0
 23 15  1  1  0  0  0
 24 13  1  0  0  0  0
 26 25  1  0  0  0  0
 27 26  1  0  0  0  0
 29 30  1  0  0  0  0
 30 28  1  0  0  0  0
M  END
>  <MODEL>
9

>  <REMARK>
 VINA RESULT:      -6.0      2.241      5.643
  Name = 
  4 active torsions:
  status: ('A' for Active; 'I' for Inactive)
    1  A    between atoms: C_6  and  C_8
    2  A    between atoms: C_6  and  C_17
    3  A    between atoms: C_7  and  C_10
    4  A    between atoms: C_7  and  C_26
                            x       y       z     vdW  Elec       q    Type
                         _______ _______ _______ _____ _____    ______ ____

>  <TORSDO>
F 4

$$$$
