=
 OpenBabel10272402133D

 32 37  0  0  1  0  0  0  0  0999 V2000
  186.3860  178.4130  139.9400 C   0  0  0  0  0  0  0  0  0  0  0  0
  187.4700  178.3900  142.2300 C   0  0  2  0  0  3  0  0  0  0  0  0
  186.5010  178.3180  138.5450 C   0  0  0  0  0  3  0  0  0  0  0  0
  187.5080  178.1370  140.7440 C   0  0  0  0  0  0  0  0  0  0  0  0
  188.1470  177.2260  142.9470 C   0  0  2  0  0  3  0  0  0  0  0  0
  184.4820  178.7880  146.2100 C   0  0  0  0  0  3  0  0  0  0  0  0
  186.0670  178.7750  142.7590 C   0  0  1  0  0  3  0  0  0  0  0  0
  186.6080  177.6420  146.3660 C   0  0  0  0  0  3  0  0  0  0  0  0
  186.8100  177.8200  144.9940 C   0  0  0  0  0  0  0  0  0  0  0  0
  188.6770  177.6010  140.1630 C   0  0  0  0  0  0  0  0  0  0  0  0
  188.0120  177.3370  144.3940 N   0  0  0  0  0  2  0  0  0  0  0  0
  189.7750  176.9920  141.0030 C   0  0  0  0  0  2  0  0  0  0  0  0
  188.7590  177.4820  138.7730 C   0  0  0  0  0  3  0  0  0  0  0  0
  185.0010  178.2040  141.9390 N   0  0  0  0  0  2  0  0  0  0  0  0
  185.0890  178.8140  140.6110 C   0  0  2  0  0  3  0  0  0  0  0  0
  185.8460  178.4960  144.2220 C   0  0  0  0  0  0  0  0  0  0  0  0
  189.6270  177.1760  142.5240 C   0  0  1  0  0  3  0  0  0  0  0  0
  187.6860  177.8650  137.9640 C   0  0  0  0  0  3  0  0  0  0  0  0
  185.4440  178.1220  146.9730 C   0  0  0  0  0  3  0  0  0  0  0  0
  184.6860  178.9800  144.8410 C   0  0  0  0  0  3  0  0  0  0  0  0
  182.1490  179.0560  138.1970 C   0  0  0  0  0  0  0  0  0  0  0  0
  181.5690  179.9610  137.3710 F   0  0  0  0  0  0  0  0  0  0  0  0
  183.8690  178.4570  139.8050 C   0  0  0  0  0  0  0  0  0  0  0  0
  181.6140  177.7690  138.2900 C   0  0  0  0  0  3  0  0  0  0  0  0
  183.3240  177.1660  139.8880 C   0  0  0  0  0  3  0  0  0  0  0  0
  183.2770  179.4050  138.9510 C   0  0  0  0  0  0  0  0  0  0  0  0
  183.8170  180.7210  138.8460 N   0  0  0  0  0  1  0  0  0  0  0  0
  182.2000  176.8160  139.1370 C   0  0  0  0  0  0  0  0  0  0  0  0
  180.3580  175.2550  139.6740 C   0  0  0  0  0  1  0  0  0  0  0  0
  181.6870  175.5210  139.2480 O   0  0  0  0  0  0  0  0  0  0  0  0
  190.4090  178.4140  142.9570 C   0  0  0  0  0  2  0  0  0  0  0  0
  191.5910  178.0370  143.5950 O   0  0  0  0  0  1  0  0  0  0  0  0
  1 15  1  0  0  0  0
  1  4  1  0  0  0  0
  2  4  1  6  0  0  0
  2  7  1  0  0  0  0
  2  5  1  0  0  0  0
  3  1  2  0  0  0  0
  5 11  1  1  0  0  0
  6 19  1  0  0  0  0
  7 14  1  6  0  0  0
  7 16  1  0  0  0  0
  8 19  2  0  0  0  0
  9  8  1  0  0  0  0
 10  4  2  0  0  0  0
 10 12  1  0  0  0  0
 11  9  1  0  0  0  0
 12 17  1  0  0  0  0
 13 10  1  0  0  0  0
 15 23  1  6  0  0  0
 15 14  1  0  0  0  0
 16 20  1  0  0  0  0
 16  9  2  0  0  0  0
 17  5  1  0  0  0  0
 17 31  1  6  0  0  0
 18  3  1  0  0  0  0
 18 13  2  0  0  0  0
 20  6  2  0  0  0  0
 21 24  2  0  0  0  0
 21 26  1  0  0  0  0
 22 21  1  0  0  0  0
 23 25  1  0  0  0  0
 24 28  1  0  0  0  0
 26 23  2  0  0  0  0
 27 26  1  0  0  0  0
 28 30  1  0  0  0  0
 28 25  2  0  0  0  0
 30 29  1  0  0  0  0
 31 32  1  0  0  0  0
M  END
>  <MODEL>
1

>  <REMARK>
 VINA RESULT:      -9.0      0.000      0.000
  Name = 
  3 active torsions:
  status: ('A' for Active; 'I' for Inactive)
    1  A    between atoms: C_13  and  C_29
    2  A    between atoms: O_15  and  C_26
    3  A    between atoms: C_16  and  C_27
                            x       y       z     vdW  Elec       q    Type
                         _______ _______ _______ _____ _____    ______ ____

>  <TORSDO>
F 3

$$$$
=
 OpenBabel10272402133D

 32 37  0  0  1  0  0  0  0  0999 V2000
  188.7680  177.9790  141.3280 C   0  0  0  0  0  0  0  0  0  0  0  0
  186.5170  178.6000  142.3110 C   0  0  2  0  0  3  0  0  0  0  0  0
  190.1030  177.5870  141.5110 C   0  0  0  0  0  3  0  0  0  0  0  0
  187.9050  178.0260  142.4400 C   0  0  0  0  0  0  0  0  0  0  0  0
  185.5430  177.7160  143.0860 C   0  0  2  0  0  3  0  0  0  0  0  0
  182.7770  179.5190  139.1340 C   0  0  0  0  0  3  0  0  0  0  0  0
  186.1100  178.9220  140.8520 C   0  0  1  0  0  3  0  0  0  0  0  0
  182.3320  178.7010  141.3680 C   0  0  0  0  0  3  0  0  0  0  0  0
  183.7060  178.5890  141.6060 C   0  0  0  0  0  0  0  0  0  0  0  0
  188.3320  177.5180  143.6850 C   0  0  0  0  0  0  0  0  0  0  0  0
  184.1630  178.1320  142.8780 N   0  0  0  0  0  2  0  0  0  0  0  0
  187.3590  177.2490  144.8100 C   0  0  0  0  0  2  0  0  0  0  0  0
  189.6570  177.1010  143.8380 C   0  0  0  0  0  3  0  0  0  0  0  0
  186.7940  178.0590  139.8930 N   0  0  0  0  0  2  0  0  0  0  0  0
  188.2250  178.3610  139.9670 C   0  0  2  0  0  3  0  0  0  0  0  0
  184.6250  178.9540  140.6040 C   0  0  0  0  0  0  0  0  0  0  0  0
  185.9220  177.7510  144.5780 C   0  0  1  0  0  3  0  0  0  0  0  0
  190.5480  177.1610  142.7640 C   0  0  0  0  0  3  0  0  0  0  0  0
  181.8680  179.1610  140.1330 C   0  0  0  0  0  3  0  0  0  0  0  0
  184.1510  179.4220  139.3720 C   0  0  0  0  0  3  0  0  0  0  0  0
  189.5640  177.5900  136.4820 C   0  0  0  0  0  0  0  0  0  0  0  0
  189.5040  178.0920  135.2240 F   0  0  0  0  0  0  0  0  0  0  0  0
  188.9470  177.6880  138.8300 C   0  0  0  0  0  0  0  0  0  0  0  0
  190.3170  176.4400  136.7280 C   0  0  0  0  0  3  0  0  0  0  0  0
  189.7090  176.5330  139.0650 C   0  0  0  0  0  3  0  0  0  0  0  0
  188.8770  178.2190  137.5290 C   0  0  0  0  0  0  0  0  0  0  0  0
  188.1140  179.3950  137.2670 N   0  0  0  0  0  1  0  0  0  0  0  0
  190.3940  175.9050  138.0230 C   0  0  0  0  0  0  0  0  0  0  0  0
  192.2720  174.3730  137.5280 C   0  0  0  0  0  1  0  0  0  0  0  0
  191.1410  174.7570  138.2990 O   0  0  0  0  0  0  0  0  0  0  0  0
  185.7710  179.1390  145.1960 C   0  0  0  0  0  2  0  0  0  0  0  0
  184.8970  179.0890  146.2820 O   0  0  0  0  0  1  0  0  0  0  0  0
  1  3  2  0  0  0  0
  1  4  1  0  0  0  0
  2  4  1  6  0  0  0
  2  5  1  0  0  0  0
  3 18  1  0  0  0  0
  4 10  2  0  0  0  0
  5 11  1  1  0  0  0
  5 17  1  0  0  0  0
  6 20  2  0  0  0  0
  6 19  1  0  0  0  0
  7 14  1  6  0  0  0
  7  2  1  0  0  0  0
  8  9  1  0  0  0  0
  9 11  1  0  0  0  0
 10 13  1  0  0  0  0
 10 12  1  0  0  0  0
 14 15  1  0  0  0  0
 15 23  1  6  0  0  0
 15  1  1  0  0  0  0
 16  7  1  0  0  0  0
 16  9  2  0  0  0  0
 17 12  1  0  0  0  0
 17 31  1  6  0  0  0
 18 13  2  0  0  0  0
 19  8  2  0  0  0  0
 20 16  1  0  0  0  0
 21 24  2  0  0  0  0
 21 26  1  0  0  0  0
 22 21  1  0  0  0  0
 23 25  1  0  0  0  0
 24 28  1  0  0  0  0
 26 23  2  0  0  0  0
 27 26  1  0  0  0  0
 28 30  1  0  0  0  0
 28 25  2  0  0  0  0
 29 30  1  0  0  0  0
 31 32  1  0  0  0  0
M  END
>  <MODEL>
2

>  <REMARK>
 VINA RESULT:      -8.8      2.981      5.971
  Name = 
  3 active torsions:
  status: ('A' for Active; 'I' for Inactive)
    1  A    between atoms: C_13  and  C_29
    2  A    between atoms: O_15  and  C_26
    3  A    between atoms: C_16  and  C_27
                            x       y       z     vdW  Elec       q    Type
                         _______ _______ _______ _____ _____    ______ ____

>  <TORSDO>
F 3

$$$$
=
 OpenBabel10272402133D

 32 37  0  0  1  0  0  0  0  0999 V2000
  187.1670  177.4570  144.3370 C   0  0  0  0  0  0  0  0  0  0  0  0
  189.6150  176.9790  143.9000 C   0  0  2  0  0  3  0  0  0  0  0  0
  186.1160  177.6630  145.2440 C   0  0  0  0  0  3  0  0  0  0  0  0
  188.4860  177.3650  144.8200 C   0  0  0  0  0  0  0  0  0  0  0  0
  190.8240  177.8610  144.2020 C   0  0  2  0  0  3  0  0  0  0  0  0
  191.1510  176.9230  139.1490 C   0  0  0  0  0  3  0  0  0  0  0  0
  189.2040  176.8990  142.4090 C   0  0  1  0  0  3  0  0  0  0  0  0
  192.6790  177.4890  140.9380 C   0  0  0  0  0  3  0  0  0  0  0  0
  191.6330  177.4090  141.8630 C   0  0  0  0  0  0  0  0  0  0  0  0
  188.7630  177.6530  146.1730 C   0  0  0  0  0  0  0  0  0  0  0  0
  191.9010  177.6390  143.2460 N   0  0  0  0  0  2  0  0  0  0  0  0
  190.1730  177.8850  146.6640 C   0  0  0  0  0  2  0  0  0  0  0  0
  187.7050  177.8900  147.0550 C   0  0  0  0  0  3  0  0  0  0  0  0
  188.0910  177.7940  142.1030 N   0  0  0  0  0  2  0  0  0  0  0  0
  186.9230  177.3210  142.8480 C   0  0  2  0  0  3  0  0  0  0  0  0
  190.3360  177.0730  141.4320 C   0  0  0  0  0  0  0  0  0  0  0  0
  191.2880  177.5890  145.6440 C   0  0  1  0  0  3  0  0  0  0  0  0
  186.3840  177.8670  146.5990 C   0  0  0  0  0  3  0  0  0  0  0  0
  192.4380  177.2510  139.5830 C   0  0  0  0  0  3  0  0  0  0  0  0
  190.1050  176.8280  140.0710 C   0  0  0  0  0  3  0  0  0  0  0  0
  184.4800  179.2580  140.6560 C   0  0  0  0  0  0  0  0  0  0  0  0
  184.4160  179.7920  139.4120 F   0  0  0  0  0  0  0  0  0  0  0  0
  185.6910  178.0480  142.3800 C   0  0  0  0  0  0  0  0  0  0  0  0
  183.3810  179.3740  141.5110 C   0  0  0  0  0  3  0  0  0  0  0  0
  184.5790  178.1670  143.2280 C   0  0  0  0  0  3  0  0  0  0  0  0
  185.6370  178.5950  141.0850 C   0  0  0  0  0  0  0  0  0  0  0  0
  186.7530  178.4800  140.2040 N   0  0  0  0  0  1  0  0  0  0  0  0
  183.4240  178.8280  142.8030 C   0  0  0  0  0  0  0  0  0  0  0  0
  181.0040  179.1010  143.2270 C   0  0  0  0  0  1  0  0  0  0  0  0
  182.3400  178.9270  143.6780 O   0  0  0  0  0  0  0  0  0  0  0  0
  191.7850  176.1590  145.8470 C   0  0  0  0  0  2  0  0  0  0  0  0
  192.4240  176.0430  147.0820 O   0  0  0  0  0  1  0  0  0  0  0  0
  1  4  2  0  0  0  0
  1  3  1  0  0  0  0
  2  5  1  0  0  0  0
  2  4  1  1  0  0  0
  3 18  2  0  0  0  0
  4 10  1  0  0  0  0
  5 11  1  6  0  0  0
  5 17  1  0  0  0  0
  6 19  2  0  0  0  0
  6 20  1  0  0  0  0
  7 16  1  6  0  0  0
  7  2  1  0  0  0  0
  8  9  2  0  0  0  0
  9 11  1  0  0  0  0
 10 12  1  0  0  0  0
 10 13  2  0  0  0  0
 14  7  1  0  0  0  0
 14 15  1  0  0  0  0
 15 23  1  6  0  0  0
 15  1  1  0  0  0  0
 16  9  1  0  0  0  0
 17 31  1  6  0  0  0
 17 12  1  0  0  0  0
 18 13  1  0  0  0  0
 19  8  1  0  0  0  0
 20 16  2  0  0  0  0
 21 26  2  0  0  0  0
 21 24  1  0  0  0  0
 22 21  1  0  0  0  0
 23 25  2  0  0  0  0
 24 28  2  0  0  0  0
 26 23  1  0  0  0  0
 27 26  1  0  0  0  0
 28 25  1  0  0  0  0
 28 30  1  0  0  0  0
 29 30  1  0  0  0  0
 31 32  1  0  0  0  0
M  END
>  <MODEL>
3

>  <REMARK>
 VINA RESULT:      -8.7      2.617      5.507
  Name = 
  3 active torsions:
  status: ('A' for Active; 'I' for Inactive)
    1  A    between atoms: C_13  and  C_29
    2  A    between atoms: O_15  and  C_26
    3  A    between atoms: C_16  and  C_27
                            x       y       z     vdW  Elec       q    Type
                         _______ _______ _______ _____ _____    ______ ____

>  <TORSDO>
F 3

$$$$
=
 OpenBabel10272402133D

 32 37  0  0  1  0  0  0  0  0999 V2000
  189.7910  177.6820  143.0020 C   0  0  0  0  0  0  0  0  0  0  0  0
  188.1930  178.1760  144.9040 C   0  0  2  0  0  3  0  0  0  0  0  0
  191.0590  177.2740  142.5600 C   0  0  0  0  0  3  0  0  0  0  0  0
  189.4770  177.5950  144.3710 C   0  0  0  0  0  0  0  0  0  0  0  0
  187.5920  177.2050  145.9160 C   0  0  2  0  0  3  0  0  0  0  0  0
  183.5140  179.4590  143.7230 C   0  0  0  0  0  3  0  0  0  0  0  0
  187.2270  178.6690  143.7980 C   0  0  1  0  0  3  0  0  0  0  0  0
  184.0080  178.3800  145.8320 C   0  0  0  0  0  3  0  0  0  0  0  0
  185.3470  178.2430  145.4540 C   0  0  0  0  0  0  0  0  0  0  0  0
  190.3610  176.9430  145.2570 C   0  0  0  0  0  0  0  0  0  0  0  0
  186.2730  177.6390  146.3570 N   0  0  0  0  0  2  0  0  0  0  0  0
  189.9380  176.5400  146.6500 C   0  0  0  0  0  2  0  0  0  0  0  0
  191.6070  176.5130  144.7900 C   0  0  0  0  0  3  0  0  0  0  0  0
  187.4040  177.9270  142.5520 N   0  0  0  0  0  2  0  0  0  0  0  0
  188.7460  178.2220  142.0470 C   0  0  2  0  0  3  0  0  0  0  0  0
  185.7790  178.7270  144.2040 C   0  0  0  0  0  0  0  0  0  0  0  0
  188.5620  177.0630  147.1030 C   0  0  1  0  0  3  0  0  0  0  0  0
  191.9670  176.7030  143.4530 C   0  0  0  0  0  3  0  0  0  0  0  0
  183.0920  178.9820  144.9660 C   0  0  0  0  0  3  0  0  0  0  0  0
  184.8540  179.3370  143.3460 C   0  0  0  0  0  3  0  0  0  0  0  0
  188.0780  177.4990  138.3650 C   0  0  0  0  0  0  0  0  0  0  0  0
  187.1530  177.7780  137.4140 F   0  0  0  0  0  0  0  0  0  0  0  0
  188.8910  177.6910  140.6460 C   0  0  0  0  0  0  0  0  0  0  0  0
  189.1880  176.7180  138.0350 C   0  0  0  0  0  3  0  0  0  0  0  0
  190.0040  176.9080  140.3020 C   0  0  0  0  0  3  0  0  0  0  0  0
  187.9250  177.9890  139.6680 C   0  0  0  0  0  0  0  0  0  0  0  0
  186.7890  178.7880  139.9930 N   0  0  0  0  0  1  0  0  0  0  0  0
  190.1590  176.4180  139.0030 C   0  0  0  0  0  0  0  0  0  0  0  0
  192.4470  176.1800  138.0950 C   0  0  0  0  0  1  0  0  0  0  0  0
  191.2800  175.6410  138.7010 O   0  0  0  0  0  0  0  0  0  0  0  0
  188.7510  178.3670  147.8740 C   0  0  0  0  0  2  0  0  0  0  0  0
  188.2320  178.2430  149.1630 O   0  0  0  0  0  1  0  0  0  0  0  0
  1  4  1  0  0  0  0
  2  4  1  6  0  0  0
  2  5  1  0  0  0  0
  3  1  2  0  0  0  0
  3 18  1  0  0  0  0
  4 10  2  0  0  0  0
  5 11  1  1  0  0  0
  5 17  1  0  0  0  0
  6 19  1  0  0  0  0
  7 14  1  6  0  0  0
  7 16  1  0  0  0  0
  7  2  1  0  0  0  0
  9  8  1  0  0  0  0
  9 11  1  0  0  0  0
 10 12  1  0  0  0  0
 12 17  1  0  0  0  0
 13 10  1  0  0  0  0
 15 23  1  6  0  0  0
 15 14  1  0  0  0  0
 15  1  1  0  0  0  0
 16  9  2  0  0  0  0
 17 31  1  6  0  0  0
 18 13  2  0  0  0  0
 19  8  2  0  0  0  0
 20  6  2  0  0  0  0
 20 16  1  0  0  0  0
 21 26  1  0  0  0  0
 22 21  1  0  0  0  0
 24 21  2  0  0  0  0
 24 28  1  0  0  0  0
 25 23  1  0  0  0  0
 26 27  1  0  0  0  0
 26 23  2  0  0  0  0
 28 25  2  0  0  0  0
 29 30  1  0  0  0  0
 30 28  1  0  0  0  0
 31 32  1  0  0  0  0
M  END
>  <MODEL>
4

>  <REMARK>
 VINA RESULT:      -8.6      3.586      5.449
  Name = 
  3 active torsions:
  status: ('A' for Active; 'I' for Inactive)
    1  A    between atoms: C_13  and  C_29
    2  A    between atoms: O_15  and  C_26
    3  A    between atoms: C_16  and  C_27
                            x       y       z     vdW  Elec       q    Type
                         _______ _______ _______ _____ _____    ______ ____

>  <TORSDO>
F 3

$$$$
=
 OpenBabel10272402133D

 32 37  0  0  1  0  0  0  0  0999 V2000
  189.6550  177.7090  139.5510 C   0  0  0  0  0  0  0  0  0  0  0  0
  188.9370  178.2010  141.9290 C   0  0  2  0  0  3  0  0  0  0  0  0
  190.6680  177.3900  138.6320 C   0  0  0  0  0  3  0  0  0  0  0  0
  189.9480  177.7040  140.9270 C   0  0  0  0  0  0  0  0  0  0  0  0
  188.9300  177.2610  143.1320 C   0  0  2  0  0  3  0  0  0  0  0  0
  184.0700  178.9270  142.7740 C   0  0  0  0  0  3  0  0  0  0  0  0
  187.5500  178.5070  141.3130 C   0  0  1  0  0  3  0  0  0  0  0  0
  185.5170  178.0760  144.5180 C   0  0  0  0  0  3  0  0  0  0  0  0
  186.5870  178.0390  143.6180 C   0  0  0  0  0  0  0  0  0  0  0  0
  191.1900  177.2150  141.3830 C   0  0  0  0  0  0  0  0  0  0  0  0
  187.8680  177.6020  144.0700 N   0  0  0  0  0  2  0  0  0  0  0  0
  191.4320  176.8870  142.8380 C   0  0  0  0  0  2  0  0  0  0  0  0
  192.1750  176.8700  140.4520 C   0  0  0  0  0  3  0  0  0  0  0  0
  187.2850  177.6860  140.1340 N   0  0  0  0  0  2  0  0  0  0  0  0
  188.2530  178.0660  139.1030 C   0  0  2  0  0  3  0  0  0  0  0  0
  186.4020  178.4580  142.2870 C   0  0  0  0  0  0  0  0  0  0  0  0
  190.3120  177.3100  143.8070 C   0  0  1  0  0  3  0  0  0  0  0  0
  191.9250  176.9840  139.0820 C   0  0  0  0  0  3  0  0  0  0  0  0
  184.2590  178.5150  144.0960 C   0  0  0  0  0  3  0  0  0  0  0  0
  185.1400  178.9050  141.8750 C   0  0  0  0  0  3  0  0  0  0  0  0
  187.2850  177.6470  135.4410 C   0  0  0  0  0  0  0  0  0  0  0  0
  187.0460  178.4110  134.3470 F   0  0  0  0  0  0  0  0  0  0  0  0
  187.8710  177.4390  137.7890 C   0  0  0  0  0  0  0  0  0  0  0  0
  187.1870  176.2570  135.3430 C   0  0  0  0  0  3  0  0  0  0  0  0
  187.7730  176.0440  137.6780 C   0  0  0  0  0  3  0  0  0  0  0  0
  187.6270  178.2440  136.6610 C   0  0  0  0  0  0  0  0  0  0  0  0
  187.7270  179.6640  136.7500 N   0  0  0  0  0  1  0  0  0  0  0  0
  187.4310  175.4470  136.4620 C   0  0  0  0  0  0  0  0  0  0  0  0
  186.4840  173.2970  137.2340 C   0  0  0  0  0  1  0  0  0  0  0  0
  187.3430  174.0540  136.3930 O   0  0  0  0  0  0  0  0  0  0  0  0
  190.6430  178.6850  144.3840 C   0  0  0  0  0  2  0  0  0  0  0  0
  191.9770  179.0050  144.1310 O   0  0  0  0  0  1  0  0  0  0  0  0
  1  4  1  0  0  0  0
  2  4  1  6  0  0  0
  2  5  1  0  0  0  0
  3 18  1  0  0  0  0
  3  1  2  0  0  0  0
  4 10  2  0  0  0  0
  5 17  1  0  0  0  0
  5 11  1  1  0  0  0
  6 19  1  0  0  0  0
  7 14  1  6  0  0  0
  7  2  1  0  0  0  0
  7 16  1  0  0  0  0
  9 11  1  0  0  0  0
  9  8  1  0  0  0  0
 10 12  1  0  0  0  0
 12 17  1  0  0  0  0
 13 10  1  0  0  0  0
 15 23  1  6  0  0  0
 15  1  1  0  0  0  0
 15 14  1  0  0  0  0
 16  9  2  0  0  0  0
 17 31  1  6  0  0  0
 18 13  2  0  0  0  0
 19  8  2  0  0  0  0
 20 16  1  0  0  0  0
 20  6  2  0  0  0  0
 21 26  1  0  0  0  0
 22 21  1  0  0  0  0
 24 21  2  0  0  0  0
 24 28  1  0  0  0  0
 25 23  1  0  0  0  0
 26 27  1  0  0  0  0
 26 23  2  0  0  0  0
 28 25  2  0  0  0  0
 30 28  1  0  0  0  0
 30 29  1  0  0  0  0
 32 31  1  0  0  0  0
M  END
>  <MODEL>
5

>  <REMARK>
 VINA RESULT:      -8.4      2.983      3.953
  Name = 
  3 active torsions:
  status: ('A' for Active; 'I' for Inactive)
    1  A    between atoms: C_13  and  C_29
    2  A    between atoms: O_15  and  C_26
    3  A    between atoms: C_16  and  C_27
                            x       y       z     vdW  Elec       q    Type
                         _______ _______ _______ _____ _____    ______ ____

>  <TORSDO>
F 3

$$$$
=
 OpenBabel10272402133D

 32 37  0  0  1  0  0  0  0  0999 V2000
  187.5100  178.4820  140.7890 C   0  0  0  0  0  0  0  0  0  0  0  0
  188.3690  177.8750  138.4850 C   0  0  2  0  0  3  0  0  0  0  0  0
  186.4770  178.9600  141.6100 C   0  0  0  0  0  3  0  0  0  0  0  0
  187.2490  178.2270  139.4300 C   0  0  0  0  0  0  0  0  0  0  0  0
  187.9060  176.7480  137.5650 C   0  0  2  0  0  3  0  0  0  0  0  0
  192.9540  175.9240  138.1630 C   0  0  0  0  0  3  0  0  0  0  0  0
  189.7280  177.6440  139.1900 C   0  0  1  0  0  3  0  0  0  0  0  0
  191.2690  175.4090  136.5030 C   0  0  0  0  0  3  0  0  0  0  0  0
  190.3240  176.1420  137.2280 C   0  0  0  0  0  0  0  0  0  0  0  0
  185.9250  178.2820  138.9440 C   0  0  0  0  0  0  0  0  0  0  0  0
  188.9930  176.2600  136.7270 N   0  0  0  0  0  2  0  0  0  0  0  0
  185.5480  177.7110  137.5960 C   0  0  0  0  0  2  0  0  0  0  0  0
  184.9030  178.7270  139.7870 C   0  0  0  0  0  3  0  0  0  0  0  0
  189.5560  177.1710  140.5610 N   0  0  0  0  0  2  0  0  0  0  0  0
  188.9080  178.2400  141.3210 C   0  0  2  0  0  3  0  0  0  0  0  0
  190.6970  176.7820  138.4260 C   0  0  0  0  0  0  0  0  0  0  0  0
  186.7260  177.2550  136.7160 C   0  0  1  0  0  3  0  0  0  0  0  0
  185.1810  179.0920  141.1070 C   0  0  0  0  0  3  0  0  0  0  0  0
  192.5800  175.2960  136.9720 C   0  0  0  0  0  3  0  0  0  0  0  0
  192.0170  176.6700  138.8830 C   0  0  0  0  0  3  0  0  0  0  0  0
  190.1630  177.5840  144.8600 C   0  0  0  0  0  0  0  0  0  0  0  0
  191.3310  177.5520  145.5460 F   0  0  0  0  0  0  0  0  0  0  0  0
  188.9340  177.9090  142.7900 C   0  0  0  0  0  0  0  0  0  0  0  0
  188.9660  177.3180  145.5280 C   0  0  0  0  0  3  0  0  0  0  0  0
  187.7370  177.6440  143.4730 C   0  0  0  0  0  3  0  0  0  0  0  0
  190.1530  177.8810  143.4910 C   0  0  0  0  0  0  0  0  0  0  0  0
  191.3810  178.1540  142.8180 N   0  0  0  0  0  1  0  0  0  0  0  0
  187.7450  177.3470  144.8380 C   0  0  0  0  0  0  0  0  0  0  0  0
  185.8480  178.0640  146.2530 C   0  0  0  0  0  1  0  0  0  0  0  0
  186.5320  177.0880  145.4810 O   0  0  0  0  0  0  0  0  0  0  0  0
  187.1180  178.3930  135.7760 C   0  0  0  0  0  2  0  0  0  0  0  0
  186.8260  178.0490  134.4560 O   0  0  0  0  0  1  0  0  0  0  0  0
  1 15  1  0  0  0  0
  1  3  1  0  0  0  0
  2  7  1  0  0  0  0
  2  4  1  1  0  0  0
  4  1  2  0  0  0  0
  5 11  1  6  0  0  0
  5  2  1  0  0  0  0
  6 20  1  0  0  0  0
  7 16  1  6  0  0  0
  7 14  1  0  0  0  0
  8 19  1  0  0  0  0
  8  9  2  0  0  0  0
  9 16  1  0  0  0  0
 10  4  1  0  0  0  0
 10 13  2  0  0  0  0
 11  9  1  0  0  0  0
 12 10  1  0  0  0  0
 13 18  1  0  0  0  0
 14 15  1  0  0  0  0
 15 23  1  1  0  0  0
 16 20  2  0  0  0  0
 17 31  1  1  0  0  0
 17  5  1  0  0  0  0
 17 12  1  0  0  0  0
 18  3  2  0  0  0  0
 19  6  2  0  0  0  0
 21 24  1  0  0  0  0
 21 22  1  0  0  0  0
 23 25  2  0  0  0  0
 23 26  1  0  0  0  0
 25 28  1  0  0  0  0
 26 21  2  0  0  0  0
 27 26  1  0  0  0  0
 28 30  1  0  0  0  0
 28 24  2  0  0  0  0
 30 29  1  0  0  0  0
 32 31  1  0  0  0  0
M  END
>  <MODEL>
6

>  <REMARK>
 VINA RESULT:      -8.0      3.729      7.788
  Name = 
  3 active torsions:
  status: ('A' for Active; 'I' for Inactive)
    1  A    between atoms: C_13  and  C_29
    2  A    between atoms: O_15  and  C_26
    3  A    between atoms: C_16  and  C_27
                            x       y       z     vdW  Elec       q    Type
                         _______ _______ _______ _____ _____    ______ ____

>  <TORSDO>
F 3

$$$$
=
 OpenBabel10272402133D

 32 37  0  0  1  0  0  0  0  0999 V2000
  187.1810  178.4870  141.1530 C   0  0  0  0  0  0  0  0  0  0  0  0
  189.4920  177.8480  141.9660 C   0  0  2  0  0  3  0  0  0  0  0  0
  186.2960  178.7390  140.0930 C   0  0  0  0  0  3  0  0  0  0  0  0
  188.4610  177.9730  140.8740 C   0  0  0  0  0  0  0  0  0  0  0  0
  190.2190  176.5140  141.8100 C   0  0  2  0  0  3  0  0  0  0  0  0
  190.1620  177.3580  146.8900 C   0  0  0  0  0  3  0  0  0  0  0  0
  188.9390  178.1440  143.3810 C   0  0  1  0  0  3  0  0  0  0  0  0
  191.5350  176.1240  145.3230 C   0  0  0  0  0  3  0  0  0  0  0  0
  190.7830  176.6310  144.2580 C   0  0  0  0  0  0  0  0  0  0  0  0
  188.7830  177.5530  139.5660 C   0  0  0  0  0  0  0  0  0  0  0  0
  191.1260  176.2660  142.9220 N   0  0  0  0  0  2  0  0  0  0  0  0
  190.0030  176.7090  139.2790 C   0  0  0  0  0  2  0  0  0  0  0  0
  187.8740  177.7820  138.5290 C   0  0  0  0  0  3  0  0  0  0  0  0
  187.5140  177.8400  143.4830 N   0  0  0  0  0  2  0  0  0  0  0  0
  186.8010  178.7590  142.5940 C   0  0  2  0  0  3  0  0  0  0  0  0
  189.7180  177.5170  144.5070 C   0  0  0  0  0  0  0  0  0  0  0  0
  190.9670  176.5130  140.4640 C   0  0  1  0  0  3  0  0  0  0  0  0
  186.6470  178.3990  138.7850 C   0  0  0  0  0  3  0  0  0  0  0  0
  191.2220  176.4830  146.6370 C   0  0  0  0  0  3  0  0  0  0  0  0
  189.4170  177.8770  145.8270 C   0  0  0  0  0  3  0  0  0  0  0  0
  183.4200  178.8030  144.3540 C   0  0  0  0  0  0  0  0  0  0  0  0
  182.9090  179.0080  145.5920 F   0  0  0  0  0  0  0  0  0  0  0  0
  185.3200  178.6640  142.8450 C   0  0  0  0  0  0  0  0  0  0  0  0
  182.5580  178.5120  143.2940 C   0  0  0  0  0  3  0  0  0  0  0  0
  184.4430  178.3760  141.7880 C   0  0  0  0  0  3  0  0  0  0  0  0
  184.8020  178.8810  144.1350 C   0  0  0  0  0  0  0  0  0  0  0  0
  185.6730  179.1820  145.2240 N   0  0  0  0  0  1  0  0  0  0  0  0
  183.0650  178.2970  142.0030 C   0  0  0  0  0  0  0  0  0  0  0  0
  180.8100  178.0480  141.0200 C   0  0  0  0  0  1  0  0  0  0  0  0
  182.2270  178.0060  140.9250 O   0  0  0  0  0  0  0  0  0  0  0  0
  192.0660  177.5700  140.3950 C   0  0  0  0  0  2  0  0  0  0  0  0
  193.1840  177.0590  139.7350 O   0  0  0  0  0  1  0  0  0  0  0  0
  1 15  1  0  0  0  0
  2  4  1  6  0  0  0
  2  7  1  0  0  0  0
  3  1  2  0  0  0  0
  4  1  1  0  0  0  0
  5  2  1  0  0  0  0
  5 11  1  1  0  0  0
  7 14  1  6  0  0  0
  7 16  1  0  0  0  0
  8 19  2  0  0  0  0
  9 16  2  0  0  0  0
  9  8  1  0  0  0  0
 10  4  2  0  0  0  0
 11  9  1  0  0  0  0
 12 10  1  0  0  0  0
 12 17  1  0  0  0  0
 13 18  2  0  0  0  0
 13 10  1  0  0  0  0
 15 23  1  6  0  0  0
 15 14  1  0  0  0  0
 16 20  1  0  0  0  0
 17 31  1  1  0  0  0
 17  5  1  0  0  0  0
 18  3  1  0  0  0  0
 19  6  1  0  0  0  0
 20  6  2  0  0  0  0
 21 22  1  0  0  0  0
 23 26  2  0  0  0  0
 24 21  2  0  0  0  0
 25 28  2  0  0  0  0
 25 23  1  0  0  0  0
 26 21  1  0  0  0  0
 26 27  1  0  0  0  0
 28 24  1  0  0  0  0
 30 29  1  0  0  0  0
 30 28  1  0  0  0  0
 32 31  1  0  0  0  0
M  END
>  <MODEL>
7

>  <REMARK>
 VINA RESULT:      -8.0      2.784      4.002
  Name = 
  3 active torsions:
  status: ('A' for Active; 'I' for Inactive)
    1  A    between atoms: C_13  and  C_29
    2  A    between atoms: O_15  and  C_26
    3  A    between atoms: C_16  and  C_27
                            x       y       z     vdW  Elec       q    Type
                         _______ _______ _______ _____ _____    ______ ____

>  <TORSDO>
F 3

$$$$
=
 OpenBabel10272402133D

 32 37  0  0  1  0  0  0  0  0999 V2000
  186.7740  178.3930  141.3790 C   0  0  0  0  0  0  0  0  0  0  0  0
  188.6400  177.9630  143.0370 C   0  0  2  0  0  3  0  0  0  0  0  0
  186.3330  178.4900  140.0510 C   0  0  0  0  0  3  0  0  0  0  0  0
  188.0750  177.9230  141.6410 C   0  0  0  0  0  0  0  0  0  0  0  0
  189.3920  176.6610  143.3040 C   0  0  2  0  0  3  0  0  0  0  0  0
  187.4780  178.0050  147.8930 C   0  0  0  0  0  3  0  0  0  0  0  0
  187.6060  178.3690  144.1150 C   0  0  1  0  0  3  0  0  0  0  0  0
  189.3430  176.6950  147.0760 C   0  0  0  0  0  3  0  0  0  0  0  0
  189.0240  177.0520  145.7620 C   0  0  0  0  0  0  0  0  0  0  0  0
  188.8560  177.3920  140.5930 C   0  0  0  0  0  0  0  0  0  0  0  0
  189.8350  176.5740  144.6890 N   0  0  0  0  0  2  0  0  0  0  0  0
  190.1090  176.5890  140.8620 C   0  0  0  0  0  2  0  0  0  0  0  0
  188.3850  177.4670  139.2790 C   0  0  0  0  0  3  0  0  0  0  0  0
  186.2460  178.0020  143.7300 N   0  0  0  0  0  2  0  0  0  0  0  0
  185.8930  178.7870  142.5460 C   0  0  2  0  0  3  0  0  0  0  0  0
  187.9300  177.9010  145.5090 C   0  0  0  0  0  0  0  0  0  0  0  0
  190.5780  176.5650  142.3280 C   0  0  1  0  0  3  0  0  0  0  0  0
  187.1400  178.0400  139.0050 C   0  0  0  0  0  3  0  0  0  0  0  0
  188.5690  177.1670  148.1400 C   0  0  0  0  0  3  0  0  0  0  0  0
  187.1640  178.3750  146.5830 C   0  0  0  0  0  3  0  0  0  0  0  0
  182.1020  178.8830  142.9310 C   0  0  0  0  0  0  0  0  0  0  0  0
  181.1710  179.2400  143.8500 F   0  0  0  0  0  0  0  0  0  0  0  0
  184.4230  178.6390  142.2560 C   0  0  0  0  0  0  0  0  0  0  0  0
  181.6900  178.3840  141.6930 C   0  0  0  0  0  3  0  0  0  0  0  0
  183.9970  178.1420  141.0150 C   0  0  0  0  0  3  0  0  0  0  0  0
  183.4670  179.0140  143.2180 C   0  0  0  0  0  0  0  0  0  0  0  0
  183.8770  179.5280  144.4840 N   0  0  0  0  0  1  0  0  0  0  0  0
  182.6370  178.0110  140.7270 C   0  0  0  0  0  0  0  0  0  0  0  0
  183.0540  176.5990  138.7400 C   0  0  0  0  0  1  0  0  0  0  0  0
  182.2540  177.5100  139.4800 O   0  0  0  0  0  0  0  0  0  0  0  0
  191.6130  177.6670  142.5410 C   0  0  0  0  0  2  0  0  0  0  0  0
  192.3580  177.8590  141.3770 O   0  0  0  0  0  1  0  0  0  0  0  0
  1  4  1  0  0  0  0
  1 15  1  0  0  0  0
  2  4  1  6  0  0  0
  2  5  1  0  0  0  0
  2  7  1  0  0  0  0
  3  1  2  0  0  0  0
  5 11  1  1  0  0  0
  6 19  1  0  0  0  0
  7 14  1  6  0  0  0
  7 16  1  0  0  0  0
  8 19  2  0  0  0  0
  9  8  1  0  0  0  0
 10 12  1  0  0  0  0
 10  4  2  0  0  0  0
 11  9  1  0  0  0  0
 12 17  1  0  0  0  0
 13 10  1  0  0  0  0
 15 23  1  6  0  0  0
 15 14  1  0  0  0  0
 16  9  2  0  0  0  0
 16 20  1  0  0  0  0
 17 31  1  6  0  0  0
 17  5  1  0  0  0  0
 18 13  2  0  0  0  0
 18  3  1  0  0  0  0
 20  6  2  0  0  0  0
 21 26  1  0  0  0  0
 21 22  1  0  0  0  0
 23 26  2  0  0  0  0
 24 21  2  0  0  0  0
 25 23  1  0  0  0  0
 26 27  1  0  0  0  0
 28 25  2  0  0  0  0
 28 24  1  0  0  0  0
 29 30  1  0  0  0  0
 30 28  1  0  0  0  0
 32 31  1  0  0  0  0
M  END
>  <MODEL>
8

>  <REMARK>
 VINA RESULT:      -8.0      2.207      2.797
  Name = 
  3 active torsions:
  status: ('A' for Active; 'I' for Inactive)
    1  A    between atoms: C_13  and  C_29
    2  A    between atoms: O_15  and  C_26
    3  A    between atoms: C_16  and  C_27
                            x       y       z     vdW  Elec       q    Type
                         _______ _______ _______ _____ _____    ______ ____

>  <TORSDO>
F 3

$$$$
=
 OpenBabel10272402133D

 32 37  0  0  1  0  0  0  0  0999 V2000
  189.7250  177.7220  141.5400 C   0  0  0  0  0  0  0  0  0  0  0  0
  187.6330  178.2760  142.8560 C   0  0  2  0  0  3  0  0  0  0  0  0
  191.0770  177.3480  141.5150 C   0  0  0  0  0  3  0  0  0  0  0  0
  189.0320  177.7230  142.7650 C   0  0  0  0  0  0  0  0  0  0  0  0
  186.7930  177.3540  143.7360 C   0  0  2  0  0  3  0  0  0  0  0  0
  183.4610  179.2230  140.2840 C   0  0  0  0  0  3  0  0  0  0  0  0
  187.0150  178.6330  141.4830 C   0  0  1  0  0  3  0  0  0  0  0  0
  183.3550  178.3330  142.5320 C   0  0  0  0  0  3  0  0  0  0  0  0
  184.7500  178.2380  142.5650 C   0  0  0  0  0  0  0  0  0  0  0  0
  189.6410  177.1860  143.9190 C   0  0  0  0  0  0  0  0  0  0  0  0
  185.3920  177.7520  143.7430 N   0  0  0  0  0  2  0  0  0  0  0  0
  188.8450  176.8670  145.1640 C   0  0  0  0  0  2  0  0  0  0  0  0
  190.9800  176.7870  143.8660 C   0  0  0  0  0  3  0  0  0  0  0  0
  187.5640  177.8100  140.4080 N   0  0  0  0  0  2  0  0  0  0  0  0
  188.9860  178.1350  140.2830 C   0  0  2  0  0  3  0  0  0  0  0  0
  185.5100  178.6470  141.4530 C   0  0  0  0  0  0  0  0  0  0  0  0
  187.3840  177.3510  145.1580 C   0  0  1  0  0  3  0  0  0  0  0  0
  191.7050  176.8940  142.6760 C   0  0  0  0  0  3  0  0  0  0  0  0
  182.7110  178.8210  141.3920 C   0  0  0  0  0  3  0  0  0  0  0  0
  184.8550  179.1430  140.3170 C   0  0  0  0  0  3  0  0  0  0  0  0
  189.7950  177.4760  136.6180 C   0  0  0  0  0  0  0  0  0  0  0  0
  189.5280  177.9990  135.3960 F   0  0  0  0  0  0  0  0  0  0  0  0
  189.5430  177.5070  139.0340 C   0  0  0  0  0  0  0  0  0  0  0  0
  190.6100  176.3460  136.7180 C   0  0  0  0  0  3  0  0  0  0  0  0
  190.3660  176.3740  139.1220 C   0  0  0  0  0  3  0  0  0  0  0  0
  189.2600  178.0610  137.7720 C   0  0  0  0  0  0  0  0  0  0  0  0
  188.4310  179.2170  137.6590 N   0  0  0  0  0  1  0  0  0  0  0  0
  190.9010  175.7890  137.9720 C   0  0  0  0  0  0  0  0  0  0  0  0
  192.9110  174.4860  137.3560 C   0  0  0  0  0  1  0  0  0  0  0  0
  191.7150  174.6600  138.1030 O   0  0  0  0  0  0  0  0  0  0  0  0
  187.3060  178.7180  145.8340 C   0  0  0  0  0  2  0  0  0  0  0  0
  186.4710  178.6550  146.9500 O   0  0  0  0  0  1  0  0  0  0  0  0
  1  4  1  0  0  0  0
  2  4  1  6  0  0  0
  2  5  1  0  0  0  0
  3  1  2  0  0  0  0
  3 18  1  0  0  0  0
  4 10  2  0  0  0  0
  5 11  1  1  0  0  0
  5 17  1  0  0  0  0
  6 20  2  0  0  0  0
  6 19  1  0  0  0  0
  7 14  1  6  0  0  0
  7  2  1  0  0  0  0
  8  9  1  0  0  0  0
  9 11  1  0  0  0  0
 10 12  1  0  0  0  0
 13 10  1  0  0  0  0
 15 23  1  6  0  0  0
 15 14  1  0  0  0  0
 15  1  1  0  0  0  0
 16  7  1  0  0  0  0
 16  9  2  0  0  0  0
 17 12  1  0  0  0  0
 17 31  1  6  0  0  0
 18 13  2  0  0  0  0
 19  8  2  0  0  0  0
 20 16  1  0  0  0  0
 21 24  2  0  0  0  0
 21 26  1  0  0  0  0
 22 21  1  0  0  0  0
 23 25  1  0  0  0  0
 24 28  1  0  0  0  0
 26 23  2  0  0  0  0
 27 26  1  0  0  0  0
 28 30  1  0  0  0  0
 28 25  2  0  0  0  0
 29 30  1  0  0  0  0
 31 32  1  0  0  0  0
M  END
>  <MODEL>
9

>  <REMARK>
 VINA RESULT:      -8.0      3.237      5.899
  Name = 
  3 active torsions:
  status: ('A' for Active; 'I' for Inactive)
    1  A    between atoms: C_13  and  C_29
    2  A    between atoms: O_15  and  C_26
    3  A    between atoms: C_16  and  C_27
                            x       y       z     vdW  Elec       q    Type
                         _______ _______ _______ _____ _____    ______ ____

>  <TORSDO>
F 3

$$$$
