=
 OpenBabel10272413483D

 30 37  0  0  1  0  0  0  0  0999 V2000
  188.8890  178.1480  141.9850 C   0  0  2  0  0  3  0  0  0  0  0  0
  191.0460  176.9870  142.7260 C   0  0  1  0  0  3  0  0  0  0  0  0
  187.7560  177.4260  146.2610 C   0  0  0  0  0  2  0  0  0  0  0  0
  187.3630  178.3410  142.1190 C   0  0  1  0  0  3  0  0  0  0  0  0
  189.2950  177.6120  140.2800 S   0  0  0  0  0  0  0  0  0  0  0  0
  185.0080  177.3780  139.0250 C   0  0  0  0  0  2  0  0  0  0  0  0
  184.5160  179.0060  142.9690 C   0  0  2  0  0  0  0  0  0  0  0  0
  185.3300  177.7960  140.4720 C   0  0  1  0  0  3  0  0  0  0  0  0
  187.3830  177.5620  138.3660 C   0  0  0  0  0  2  0  0  0  0  0  0
  185.2160  177.7770  143.4560 N   0  0  1  0  0  0  0  0  0  0  0  0
  186.4390  177.2260  145.5190 C   0  0  1  0  0  3  0  0  0  0  0  0
  187.7870  178.3550  139.6010 C   0  0  1  0  0  3  0  0  0  0  0  0
  186.7560  178.3030  140.7220 C   0  0  2  0  0  0  0  0  0  0  0  0
  191.9830  178.1920  142.9090 C   0  0  0  0  0  2  0  0  0  0  0  0
  183.9050  180.0250  144.3590 S   0  0  0  0  0  0  0  0  0  0  0  0
  183.1270  178.6240  142.4870 C   0  0  0  0  0  2  0  0  0  0  0  0
  185.6440  177.2690  136.6320 C   0  0  0  0  0  1  0  0  0  0  0  0
  191.6470  175.5900  143.6570 Cl  0  0  0  0  0  0  0  0  0  0  0  0
  188.9330  176.8850  145.4640 C   0  0  0  0  0  2  0  0  0  0  0  0
  191.4360  179.2660  143.8510 C   0  0  0  0  0  2  0  0  0  0  0  0
  185.9660  177.9100  137.9660 C   0  0  1  0  0  3  0  0  0  0  0  0
  189.5710  177.2800  143.0650 C   0  0  1  0  0  3  0  0  0  0  0  0
  186.6300  177.4290  143.1040 C   0  0  2  0  0  3  0  0  0  0  0  0
  185.2970  177.4910  146.4810 C   0  0  0  0  0  1  0  0  0  0  0  0
  186.3430  178.1700  144.3280 C   0  0  1  0  0  3  0  0  0  0  0  0
  182.4000  179.3990  143.5630 C   0  0  0  0  0  2  0  0  0  0  0  0
  185.2020  179.9180  141.9260 C   0  0  0  0  0  2  0  0  0  0  0  0
  190.6590  178.6290  144.9920 C   0  0  0  0  0  2  0  0  0  0  0  0
  189.4100  177.9210  144.4600 C   0  0  2  0  0  3  0  0  0  0  0  0
  185.6020  179.2960  140.5680 C   0  0  2  0  0  3  0  0  0  0  0  0
  1  5  1  6  0  0  0
  1  4  1  0  0  0  0
  1 22  1  0  0  0  0
  2 14  1  0  0  0  0
  2 22  1  0  0  0  0
  2 18  1  1  0  0  0
  4 23  1  0  0  0  0
  6  8  1  0  0  0  0
  7 10  1  0  0  0  0
  7 15  1  0  0  0  0
  8 30  1  0  0  0  0
  8 13  1  0  0  0  0
  9 12  1  0  0  0  0
 10 25  1  0  0  0  0
 11  3  1  0  0  0  0
 11 24  1  0  0  0  0
 12  5  1  0  0  0  0
 12 13  1  0  0  0  0
 13  4  1  0  0  0  0
 14 20  1  0  0  0  0
 16  7  1  0  0  0  0
 16 26  1  0  0  0  0
 17 21  1  0  0  0  0
 19  3  1  0  0  0  0
 20 28  1  0  0  0  0
 21  9  1  0  0  0  0
 21  6  1  0  0  0  0
 22 29  1  0  0  0  0
 23 10  1  0  0  0  0
 23 25  1  0  0  0  0
 25 11  1  0  0  0  0
 26 15  1  0  0  0  0
 27  7  1  0  0  0  0
 29 28  1  0  0  0  0
 29 19  1  0  0  0  0
 30 13  1  0  0  0  0
 30 27  1  0  0  0  0
M  END
>  <MODEL>
1

>  <REMARK>
 VINA RESULT:      -6.5      0.000      0.000
  Name = 
  0 active torsions:
  status: ('A' for Active; 'I' for Inactive)
                            x       y       z     vdW  Elec       q    Type
                         _______ _______ _______ _____ _____    ______ ____

>  <TORSDO>
F 0

$$$$
=
 OpenBabel10272413483D

 30 37  0  0  1  0  0  0  0  0999 V2000
  185.0570  178.4900  139.3050 C   0  0  2  0  0  3  0  0  0  0  0  0
  182.6460  178.1050  140.0720 C   0  0  1  0  0  3  0  0  0  0  0  0
  183.5590  176.4540  135.6040 C   0  0  0  0  0  2  0  0  0  0  0  0
  186.2780  178.0520  138.4680 C   0  0  1  0  0  3  0  0  0  0  0  0
  185.5160  178.5460  141.0790 S   0  0  0  0  0  0  0  0  0  0  0  0
  189.6440  176.9820  140.3580 C   0  0  0  0  0  2  0  0  0  0  0  0
  188.3020  177.3730  136.2970 C   0  0  2  0  0  0  0  0  0  0  0  0
  188.7010  177.1560  139.1530 C   0  0  1  0  0  3  0  0  0  0  0  0
  188.0880  178.2000  141.8430 C   0  0  0  0  0  2  0  0  0  0  0  0
  187.2050  176.4290  136.6730 N   0  0  1  0  0  0  0  0  0  0  0  0
  184.9880  175.9390  135.7240 C   0  0  1  0  0  3  0  0  0  0  0  0
  187.2720  178.7890  140.7010 C   0  0  1  0  0  3  0  0  0  0  0  0
  187.5090  178.0990  139.3640 C   0  0  2  0  0  0  0  0  0  0  0  0
  182.0410  179.5030  139.8590 C   0  0  0  0  0  2  0  0  0  0  0  0
  188.2840  177.7420  134.5060 S   0  0  0  0  0  0  0  0  0  0  0  0
  189.6140  176.6080  136.2430 C   0  0  0  0  0  2  0  0  0  0  0  0
  190.3700  177.6630  142.6270 C   0  0  0  0  0  1  0  0  0  0  0  0
  181.3580  176.8730  140.1080 Cl  0  0  0  0  0  0  0  0  0  0  0  0
  182.9010  176.5960  136.9680 C   0  0  0  0  0  2  0  0  0  0  0  0
  182.2200  180.0460  138.4400 C   0  0  0  0  0  2  0  0  0  0  0  0
  189.5360  178.0620  141.4290 C   0  0  1  0  0  3  0  0  0  0  0  0
  183.7370  177.7300  139.0490 C   0  0  1  0  0  3  0  0  0  0  0  0
  186.1580  176.7340  137.7010 C   0  0  2  0  0  3  0  0  0  0  0  0
  185.4700  175.5260  134.3460 C   0  0  0  0  0  1  0  0  0  0  0  0
  185.9030  177.0150  136.2920 C   0  0  1  0  0  3  0  0  0  0  0  0
  189.8050  176.7850  134.7530 C   0  0  0  0  0  2  0  0  0  0  0  0
  188.4910  178.6850  137.0910 C   0  0  0  0  0  2  0  0  0  0  0  0
  182.1130  178.9230  137.4200 C   0  0  0  0  0  2  0  0  0  0  0  0
  183.2670  177.9310  137.5930 C   0  0  2  0  0  3  0  0  0  0  0  0
  188.7510  178.5840  138.6120 C   0  0  2  0  0  3  0  0  0  0  0  0
  1  5  1  1  0  0  0
  2 18  1  6  0  0  0
  3 11  1  0  0  0  0
  3 19  1  0  0  0  0
  4  1  1  0  0  0  0
  4 13  1  0  0  0  0
  6 21  1  0  0  0  0
  7 10  1  0  0  0  0
  7 27  1  0  0  0  0
  8 13  1  0  0  0  0
  8  6  1  0  0  0  0
 10 23  1  0  0  0  0
 11 25  1  0  0  0  0
 12  5  1  0  0  0  0
 12  9  1  0  0  0  0
 13 12  1  0  0  0  0
 14  2  1  0  0  0  0
 15 26  1  0  0  0  0
 15  7  1  0  0  0  0
 16  7  1  0  0  0  0
 19 29  1  0  0  0  0
 20 14  1  0  0  0  0
 21  9  1  0  0  0  0
 21 17  1  0  0  0  0
 22  1  1  0  0  0  0
 22  2  1  0  0  0  0
 23  4  1  0  0  0  0
 24 11  1  0  0  0  0
 25 10  1  0  0  0  0
 25 23  1  0  0  0  0
 26 16  1  0  0  0  0
 27 30  1  0  0  0  0
 28 29  1  0  0  0  0
 28 20  1  0  0  0  0
 29 22  1  0  0  0  0
 30  8  1  0  0  0  0
 30 13  1  0  0  0  0
M  END
>  <MODEL>
2

>  <REMARK>
 VINA RESULT:      -6.4      3.489      8.115
  Name = 
  0 active torsions:
  status: ('A' for Active; 'I' for Inactive)
                            x       y       z     vdW  Elec       q    Type
                         _______ _______ _______ _____ _____    ______ ____

>  <TORSDO>
F 0

$$$$
=
 OpenBabel10272413483D

 30 37  0  0  1  0  0  0  0  0999 V2000
  188.9300  176.6690  139.4000 C   0  0  2  0  0  3  0  0  0  0  0  0
  189.6840  176.5030  136.9600 C   0  0  1  0  0  3  0  0  0  0  0  0
  185.1940  178.2530  137.4990 C   0  0  0  0  0  2  0  0  0  0  0  0
  188.0890  177.3620  140.4930 C   0  0  1  0  0  3  0  0  0  0  0  0
  190.7050  176.7450  139.8480 S   0  0  0  0  0  0  0  0  0  0  0  0
  189.9710  179.2010  143.5140 C   0  0  0  0  0  2  0  0  0  0  0  0
  185.9140  178.4550  142.3220 C   0  0  2  0  0  0  0  0  0  0  0  0
  188.7670  178.7990  142.6430 C   0  0  1  0  0  3  0  0  0  0  0  0
  191.4710  177.6820  142.2680 C   0  0  0  0  0  2  0  0  0  0  0  0
  186.2710  179.1280  141.0350 N   0  0  1  0  0  0  0  0  0  0  0  0
  185.3090  179.0840  138.7710 C   0  0  1  0  0  3  0  0  0  0  0  0
  190.3360  176.9050  141.6160 C   0  0  1  0  0  3  0  0  0  0  0  0
  188.9890  177.6110  141.6980 C   0  0  2  0  0  0  0  0  0  0  0  0
  189.4910  175.0010  136.6920 C   0  0  0  0  0  2  0  0  0  0  0  0
  184.1290  178.0650  142.4000 S   0  0  0  0  0  0  0  0  0  0  0  0
  185.8510  179.4980  143.4250 C   0  0  0  0  0  2  0  0  0  0  0  0
  192.2530  178.7380  144.3620 C   0  0  0  0  0  1  0  0  0  0  0  0
  189.6970  177.4080  135.4240 Cl  0  0  0  0  0  0  0  0  0  0  0  0
  186.5580  177.9850  136.8820 C   0  0  0  0  0  2  0  0  0  0  0  0
  188.0810  174.4920  136.9990 C   0  0  0  0  0  2  0  0  0  0  0  0
  191.0590  178.1410  143.6490 C   0  0  1  0  0  3  0  0  0  0  0  0
  188.6590  177.1030  137.9430 C   0  0  1  0  0  3  0  0  0  0  0  0
  187.3010  178.6070  140.0800 C   0  0  2  0  0  3  0  0  0  0  0  0
  183.9260  179.5760  139.1550 C   0  0  0  0  0  1  0  0  0  0  0  0
  185.8960  178.2540  139.9050 C   0  0  1  0  0  3  0  0  0  0  0  0
  184.3650  179.3480  143.6600 C   0  0  0  0  0  2  0  0  0  0  0  0
  186.7280  177.2320  142.8010 C   0  0  0  0  0  2  0  0  0  0  0  0
  187.0440  175.5460  136.6450 C   0  0  0  0  0  2  0  0  0  0  0  0
  187.2050  176.7780  137.5400 C   0  0  2  0  0  3  0  0  0  0  0  0
  188.2480  177.4120  143.0210 C   0  0  2  0  0  3  0  0  0  0  0  0
  1  5  1  1  0  0  0
  1  4  1  0  0  0  0
  2 18  1  6  0  0  0
  2 22  1  0  0  0  0
  3 11  1  0  0  0  0
  4 13  1  0  0  0  0
  5 12  1  0  0  0  0
  6 21  1  0  0  0  0
  7 15  1  0  0  0  0
  7 27  1  0  0  0  0
  7 16  1  0  0  0  0
  8 30  1  0  0  0  0
  8  6  1  0  0  0  0
  9 21  1  0  0  0  0
 10  7  1  0  0  0  0
 11 24  1  0  0  0  0
 11 25  1  0  0  0  0
 12 13  1  0  0  0  0
 12  9  1  0  0  0  0
 13  8  1  0  0  0  0
 13 30  1  0  0  0  0
 14  2  1  0  0  0  0
 14 20  1  0  0  0  0
 15 26  1  0  0  0  0
 16 26  1  0  0  0  0
 19  3  1  0  0  0  0
 19 29  1  0  0  0  0
 21 17  1  0  0  0  0
 22  1  1  0  0  0  0
 23  4  1  0  0  0  0
 23 10  1  0  0  0  0
 25 23  1  0  0  0  0
 25 10  1  0  0  0  0
 27 30  1  0  0  0  0
 28 20  1  0  0  0  0
 28 29  1  0  0  0  0
 29 22  1  0  0  0  0
M  END
>  <MODEL>
3

>  <REMARK>
 VINA RESULT:      -5.4      2.376      6.002
  Name = 
  0 active torsions:
  status: ('A' for Active; 'I' for Inactive)
                            x       y       z     vdW  Elec       q    Type
                         _______ _______ _______ _____ _____    ______ ____

>  <TORSDO>
F 0

$$$$
=
 OpenBabel10272413483D

 30 37  0  0  1  0  0  0  0  0999 V2000
  188.5290  176.8080  138.4280 C   0  0  2  0  0  3  0  0  0  0  0  0
  187.4970  177.4810  136.1850 C   0  0  1  0  0  3  0  0  0  0  0  0
  184.8430  178.7940  140.0260 C   0  0  0  0  0  2  0  0  0  0  0  0
  188.7390  177.0730  139.9340 C   0  0  1  0  0  3  0  0  0  0  0  0
  190.1520  176.7970  137.5740 S   0  0  0  0  0  0  0  0  0  0  0  0
  192.4290  177.8830  141.2670 C   0  0  0  0  0  2  0  0  0  0  0  0
  188.5040  177.4240  142.9490 C   0  0  2  0  0  0  0  0  0  0  0  0
  190.8980  177.7460  141.3590 C   0  0  1  0  0  3  0  0  0  0  0  0
  192.4520  176.9130  138.9940 C   0  0  0  0  0  2  0  0  0  0  0  0
  188.0780  178.4950  141.9970 N   0  0  1  0  0  0  0  0  0  0  0  0
  185.9040  179.1630  141.0550 C   0  0  1  0  0  3  0  0  0  0  0  0
  191.0390  176.3530  139.0910 C   0  0  1  0  0  3  0  0  0  0  0  0
  190.2270  176.9440  140.2360 C   0  0  2  0  0  0  0  0  0  0  0  0
  186.8900  176.1450  135.7260 C   0  0  0  0  0  2  0  0  0  0  0  0
  187.1510  176.9650  144.0920 S   0  0  0  0  0  0  0  0  0  0  0  0
  189.3660  178.0440  144.0360 C   0  0  0  0  0  2  0  0  0  0  0  0
  194.5780  177.2500  140.2090 C   0  0  0  0  0  1  0  0  0  0  0  0
  186.7000  178.8410  135.3520 Cl  0  0  0  0  0  0  0  0  0  0  0  0
  185.4110  178.7920  138.6150 C   0  0  0  0  0  2  0  0  0  0  0  0
  185.9400  175.5130  136.7440 C   0  0  0  0  0  2  0  0  0  0  0  0
  193.1180  176.8780  140.3520 C   0  0  1  0  0  3  0  0  0  0  0  0
  187.4800  177.6870  137.7130 C   0  0  1  0  0  3  0  0  0  0  0  0
  188.1300  178.3550  140.5060 C   0  0  2  0  0  3  0  0  0  0  0  0
  185.2180  179.4510  142.3760 C   0  0  0  0  0  1  0  0  0  0  0  0
  186.9050  178.0290  141.2290 C   0  0  1  0  0  3  0  0  0  0  0  0
  188.3830  177.7710  145.1520 C   0  0  0  0  0  2  0  0  0  0  0  0
  189.1790  176.1420  142.4110 C   0  0  0  0  0  2  0  0  0  0  0  0
  185.1470  176.5860  137.4730 C   0  0  0  0  0  2  0  0  0  0  0  0
  186.0780  177.4600  138.3170 C   0  0  2  0  0  3  0  0  0  0  0  0
  190.4850  176.2950  141.5970 C   0  0  2  0  0  3  0  0  0  0  0  0
  1  5  1  6  0  0  0
  1  4  1  0  0  0  0
  2 18  1  6  0  0  0
  2 22  1  0  0  0  0
  3 11  1  0  0  0  0
  4 13  1  0  0  0  0
  4 23  1  0  0  0  0
  5 12  1  0  0  0  0
  6  8  1  0  0  0  0
  7 16  1  0  0  0  0
  7 15  1  0  0  0  0
  8 30  1  0  0  0  0
  9 12  1  0  0  0  0
  9 21  1  0  0  0  0
 10  7  1  0  0  0  0
 11 25  1  0  0  0  0
 11 24  1  0  0  0  0
 12 13  1  0  0  0  0
 13  8  1  0  0  0  0
 13 30  1  0  0  0  0
 14  2  1  0  0  0  0
 14 20  1  0  0  0  0
 15 26  1  0  0  0  0
 16 26  1  0  0  0  0
 17 21  1  0  0  0  0
 19  3  1  0  0  0  0
 20 28  1  0  0  0  0
 21  6  1  0  0  0  0
 22 29  1  0  0  0  0
 22  1  1  0  0  0  0
 23 25  1  0  0  0  0
 23 10  1  0  0  0  0
 25 10  1  0  0  0  0
 27  7  1  0  0  0  0
 28 29  1  0  0  0  0
 29 19  1  0  0  0  0
 30 27  1  0  0  0  0
M  END
>  <MODEL>
4

>  <REMARK>
 VINA RESULT:      -5.4      2.812      6.356
  Name = 
  0 active torsions:
  status: ('A' for Active; 'I' for Inactive)
                            x       y       z     vdW  Elec       q    Type
                         _______ _______ _______ _____ _____    ______ ____

>  <TORSDO>
F 0

$$$$
=
 OpenBabel10272413483D

 30 37  0  0  1  0  0  0  0  0999 V2000
  191.2580  174.0710  135.6430 C   0  0  2  0  0  3  0  0  0  0  0  0
  193.6330  173.5350  136.4300 C   0  0  1  0  0  3  0  0  0  0  0  0
  191.6130  177.2880  138.7420 C   0  0  0  0  0  2  0  0  0  0  0  0
  189.8440  174.6120  135.9400 C   0  0  1  0  0  3  0  0  0  0  0  0
  191.1460  172.3270  135.0900 S   0  0  0  0  0  0  0  0  0  0  0  0
  186.7220  172.1120  135.7110 C   0  0  0  0  0  2  0  0  0  0  0  0
  187.3670  176.2720  136.5590 C   0  0  2  0  0  0  0  0  0  0  0  0
  187.4490  173.4280  136.0420 C   0  0  1  0  0  3  0  0  0  0  0  0
  188.7370  171.1880  134.6180 C   0  0  0  0  0  2  0  0  0  0  0  0
  188.2930  175.8070  137.6380 N   0  0  1  0  0  0  0  0  0  0  0  0
  190.1530  176.8670  138.8520 C   0  0  1  0  0  3  0  0  0  0  0  0
  189.4410  172.5340  134.5120 C   0  0  1  0  0  3  0  0  0  0  0  0
  188.8290  173.6130  135.3970 C   0  0  2  0  0  0  0  0  0  0  0  0
  194.4690  174.1690  135.3050 C   0  0  0  0  0  2  0  0  0  0  0  0
  187.1410  178.0860  136.6060 S   0  0  0  0  0  0  0  0  0  0  0  0
  185.9370  175.9680  136.9710 C   0  0  0  0  0  2  0  0  0  0  0  0
  186.5710  170.0180  134.3940 C   0  0  0  0  0  1  0  0  0  0  0  0
  194.6220  173.3470  137.9020 Cl  0  0  0  0  0  0  0  0  0  0  0  0
  192.5190  176.0970  138.4710 C   0  0  0  0  0  2  0  0  0  0  0  0
  194.1560  175.6460  135.0580 C   0  0  0  0  0  2  0  0  0  0  0  0
  187.2420  171.3720  134.4840 C   0  0  1  0  0  3  0  0  0  0  0  0
  192.3230  174.2860  136.7400 C   0  0  1  0  0  3  0  0  0  0  0  0
  189.5470  175.0280  137.3820 C   0  0  2  0  0  3  0  0  0  0  0  0
  189.3570  178.0240  139.4250 C   0  0  0  0  0  1  0  0  0  0  0  0
  189.5980  176.4820  137.4870 C   0  0  1  0  0  3  0  0  0  0  0  0
  185.5240  177.4180  137.0820 C   0  0  0  0  0  2  0  0  0  0  0  0
  187.6010  175.8210  135.1000 C   0  0  0  0  0  2  0  0  0  0  0  0
  193.8420  176.3520  136.3680 C   0  0  0  0  0  2  0  0  0  0  0  0
  192.5570  175.7920  136.9840 C   0  0  2  0  0  3  0  0  0  0  0  0
  187.6020  174.3040  134.7990 C   0  0  2  0  0  3  0  0  0  0  0  0
  1  5  1  1  0  0  0
  1  4  1  0  0  0  0
  1 22  1  0  0  0  0
  2 22  1  0  0  0  0
  2 18  1  1  0  0  0
  3 11  1  0  0  0  0
  4 23  1  0  0  0  0
  6  8  1  0  0  0  0
  7 15  1  0  0  0  0
  7 16  1  0  0  0  0
  7 10  1  0  0  0  0
 11 24  1  0  0  0  0
 12  9  1  0  0  0  0
 12  5  1  0  0  0  0
 12 13  1  0  0  0  0
 13  4  1  0  0  0  0
 13  8  1  0  0  0  0
 14  2  1  0  0  0  0
 15 26  1  0  0  0  0
 16 26  1  0  0  0  0
 17 21  1  0  0  0  0
 19  3  1  0  0  0  0
 20 14  1  0  0  0  0
 20 28  1  0  0  0  0
 21  9  1  0  0  0  0
 21  6  1  0  0  0  0
 22 29  1  0  0  0  0
 23 25  1  0  0  0  0
 23 10  1  0  0  0  0
 25 10  1  0  0  0  0
 25 11  1  0  0  0  0
 27  7  1  0  0  0  0
 28 29  1  0  0  0  0
 29 19  1  0  0  0  0
 30 27  1  0  0  0  0
 30 13  1  0  0  0  0
 30  8  1  0  0  0  0
M  END
>  <MODEL>
5

>  <REMARK>
 VINA RESULT:      -5.3      5.461      7.808
  Name = 
  0 active torsions:
  status: ('A' for Active; 'I' for Inactive)
                            x       y       z     vdW  Elec       q    Type
                         _______ _______ _______ _____ _____    ______ ____

>  <TORSDO>
F 0

$$$$
=
 OpenBabel10272413483D

 30 37  0  0  1  0  0  0  0  0999 V2000
  183.0190  176.0620  138.4650 C   0  0  2  0  0  3  0  0  0  0  0  0
  182.2030  178.4280  138.9980 C   0  0  1  0  0  3  0  0  0  0  0  0
  186.8320  178.2380  137.5670 C   0  0  0  0  0  2  0  0  0  0  0  0
  183.9370  175.1150  137.6620 C   0  0  1  0  0  3  0  0  0  0  0  0
  181.2650  175.6240  138.1600 S   0  0  0  0  0  0  0  0  0  0  0  0
  182.2760  172.4620  135.1620 C   0  0  0  0  0  2  0  0  0  0  0  0
  186.2320  173.5250  136.4500 C   0  0  2  0  0  0  0  0  0  0  0  0
  183.4250  173.2540  135.8140 C   0  0  1  0  0  3  0  0  0  0  0  0
  180.6300  173.4070  136.7450 C   0  0  0  0  0  2  0  0  0  0  0  0
  185.9050  174.9090  135.9890 N   0  0  1  0  0  0  0  0  0  0  0  0
  186.8130  177.1340  136.5170 C   0  0  1  0  0  3  0  0  0  0  0  0
  181.6830  173.9160  137.7200 C   0  0  1  0  0  3  0  0  0  0  0  0
  183.0860  173.9700  137.1270 C   0  0  2  0  0  0  0  0  0  0  0  0
  182.2650  178.4240  140.5340 C   0  0  0  0  0  2  0  0  0  0  0  0
  187.9810  173.3880  136.9710 S   0  0  0  0  0  0  0  0  0  0  0  0
  186.4040  172.6270  135.2370 C   0  0  0  0  0  2  0  0  0  0  0  0
  179.9820  171.5310  135.2710 C   0  0  0  0  0  1  0  0  0  0  0  0
  182.2320  180.1010  138.3830 Cl  0  0  0  0  0  0  0  0  0  0  0  0
  185.4380  178.7880  137.8250 C   0  0  0  0  0  2  0  0  0  0  0  0
  183.6340  178.0390  141.0990 C   0  0  0  0  0  2  0  0  0  0  0  0
  181.1080  172.1330  136.0840 C   0  0  1  0  0  3  0  0  0  0  0  0
  183.2940  177.5750  138.3220 C   0  0  1  0  0  3  0  0  0  0  0  0
  184.8160  175.7500  136.5830 C   0  0  2  0  0  3  0  0  0  0  0  0
  188.2390  176.8530  136.0840 C   0  0  0  0  0  1  0  0  0  0  0  0
  186.1830  175.8670  137.0790 C   0  0  1  0  0  3  0  0  0  0  0  0
  187.8770  172.3770  135.4680 C   0  0  0  0  0  2  0  0  0  0  0  0
  185.3300  172.8290  137.4950 C   0  0  0  0  0  2  0  0  0  0  0  0
  184.7470  178.5820  140.2160 C   0  0  0  0  0  2  0  0  0  0  0  0
  184.7080  177.9220  138.8360 C   0  0  2  0  0  3  0  0  0  0  0  0
  183.8350  172.6370  137.1490 C   0  0  2  0  0  3  0  0  0  0  0  0
  1  5  1  6  0  0  0
  2 18  1  6  0  0  0
  2 14  1  0  0  0  0
  3 19  1  0  0  0  0
  4  1  1  0  0  0  0
  6  8  1  0  0  0  0
  6 21  1  0  0  0  0
  7 15  1  0  0  0  0
  7 27  1  0  0  0  0
  8 13  1  0  0  0  0
  8 30  1  0  0  0  0
  9 12  1  0  0  0  0
 10  7  1  0  0  0  0
 10 23  1  0  0  0  0
 10 25  1  0  0  0  0
 11 25  1  0  0  0  0
 11  3  1  0  0  0  0
 12  5  1  0  0  0  0
 13 30  1  0  0  0  0
 13  4  1  0  0  0  0
 13 12  1  0  0  0  0
 14 20  1  0  0  0  0
 16 26  1  0  0  0  0
 16  7  1  0  0  0  0
 17 21  1  0  0  0  0
 19 29  1  0  0  0  0
 21  9  1  0  0  0  0
 22  1  1  0  0  0  0
 22 29  1  0  0  0  0
 22  2  1  0  0  0  0
 23 25  1  0  0  0  0
 23  4  1  0  0  0  0
 24 11  1  0  0  0  0
 26 15  1  0  0  0  0
 28 20  1  0  0  0  0
 29 28  1  0  0  0  0
 30 27  1  0  0  0  0
M  END
>  <MODEL>
6

>  <REMARK>
 VINA RESULT:      -5.3      5.289      8.595
  Name = 
  0 active torsions:
  status: ('A' for Active; 'I' for Inactive)
                            x       y       z     vdW  Elec       q    Type
                         _______ _______ _______ _____ _____    ______ ____

>  <TORSDO>
F 0

$$$$
=
 OpenBabel10272413483D

 30 37  0  0  1  0  0  0  0  0999 V2000
  186.5860  174.7080  135.8560 C   0  0  2  0  0  3  0  0  0  0  0  0
  188.9660  175.2660  136.6140 C   0  0  1  0  0  3  0  0  0  0  0  0
  185.6440  178.4730  138.0960 C   0  0  0  0  0  2  0  0  0  0  0  0
  185.0620  174.7570  136.0970 C   0  0  1  0  0  3  0  0  0  0  0  0
  187.1330  172.9630  135.7310 S   0  0  0  0  0  0  0  0  0  0  0  0
  183.0700  171.3230  136.6290 C   0  0  0  0  0  2  0  0  0  0  0  0
  182.1330  175.5100  136.4480 C   0  0  2  0  0  0  0  0  0  0  0  0
  183.2580  172.8510  136.6040 C   0  0  1  0  0  3  0  0  0  0  0  0
  185.3190  170.9560  135.6720 C   0  0  0  0  0  2  0  0  0  0  0  0
  183.1270  175.6800  137.5530 N   0  0  1  0  0  0  0  0  0  0  0  0
  184.4330  177.5930  138.3820 C   0  0  1  0  0  3  0  0  0  0  0  0
  185.4890  172.3990  135.2160 C   0  0  1  0  0  3  0  0  0  0  0  0
  184.4980  173.3620  135.8590 C   0  0  2  0  0  0  0  0  0  0  0  0
  189.5510  175.8730  135.3280 C   0  0  0  0  0  2  0  0  0  0  0  0
  181.2630  177.0770  136.0840 S   0  0  0  0  0  0  0  0  0  0  0  0
  180.8970  174.8180  136.9980 C   0  0  0  0  0  2  0  0  0  0  0  0
  183.7340  169.0670  135.8470 C   0  0  0  0  0  1  0  0  0  0  0  0
  189.9040  175.8010  138.0330 Cl  0  0  0  0  0  0  0  0  0  0  0  0
  186.9290  177.6610  138.0610 C   0  0  0  0  0  2  0  0  0  0  0  0
  188.7330  177.0340  134.7610 C   0  0  0  0  0  2  0  0  0  0  0  0
  183.8640  170.5520  135.5820 C   0  0  1  0  0  3  0  0  0  0  0  0
  187.4620  175.5450  136.8130 C   0  0  1  0  0  3  0  0  0  0  0  0
  184.5860  175.3670  137.4170 C   0  0  2  0  0  3  0  0  0  0  0  0
  183.2530  178.4860  138.7130 C   0  0  0  0  0  1  0  0  0  0  0  0
  184.1030  176.7230  137.1770 C   0  0  1  0  0  3  0  0  0  0  0  0
  179.9820  176.0040  136.7910 C   0  0  0  0  0  2  0  0  0  0  0  0
  182.5640  174.8410  135.1230 C   0  0  0  0  0  2  0  0  0  0  0  0
  188.1400  177.8680  135.8860 C   0  0  0  0  0  2  0  0  0  0  0  0
  187.1260  177.0460  136.6860 C   0  0  2  0  0  3  0  0  0  0  0  0
  183.1250  173.4020  135.1850 C   0  0  2  0  0  3  0  0  0  0  0  0
  1  5  1  1  0  0  0
  1  4  1  0  0  0  0
  1 22  1  0  0  0  0
  2 22  1  0  0  0  0
  2 18  1  1  0  0  0
  3 11  1  0  0  0  0
  4 23  1  0  0  0  0
  7 16  1  0  0  0  0
  7 10  1  0  0  0  0
  8  6  1  0  0  0  0
 11 24  1  0  0  0  0
 12  9  1  0  0  0  0
 12  5  1  0  0  0  0
 12 13  1  0  0  0  0
 13  4  1  0  0  0  0
 13  8  1  0  0  0  0
 14  2  1  0  0  0  0
 15  7  1  0  0  0  0
 15 26  1  0  0  0  0
 19  3  1  0  0  0  0
 20 14  1  0  0  0  0
 20 28  1  0  0  0  0
 21  9  1  0  0  0  0
 21 17  1  0  0  0  0
 21  6  1  0  0  0  0
 23 10  1  0  0  0  0
 25 23  1  0  0  0  0
 25 10  1  0  0  0  0
 25 11  1  0  0  0  0
 26 16  1  0  0  0  0
 27 30  1  0  0  0  0
 27  7  1  0  0  0  0
 28 29  1  0  0  0  0
 29 22  1  0  0  0  0
 29 19  1  0  0  0  0
 30 13  1  0  0  0  0
 30  8  1  0  0  0  0
M  END
>  <MODEL>
7

>  <REMARK>
 VINA RESULT:      -5.3      5.623      7.739
  Name = 
  0 active torsions:
  status: ('A' for Active; 'I' for Inactive)
                            x       y       z     vdW  Elec       q    Type
                         _______ _______ _______ _____ _____    ______ ____

>  <TORSDO>
F 0

$$$$
=
 OpenBabel10272413483D

 30 37  0  0  1  0  0  0  0  0999 V2000
  184.0210  177.6900  137.8320 C   0  0  2  0  0  3  0  0  0  0  0  0
  182.7950  179.0000  139.6560 C   0  0  1  0  0  3  0  0  0  0  0  0
  180.3720  175.1010  138.0930 C   0  0  0  0  0  2  0  0  0  0  0  0
  184.3280  176.3510  137.1270 C   0  0  1  0  0  3  0  0  0  0  0  0
  185.5740  178.4120  138.4840 S   0  0  0  0  0  0  0  0  0  0  0  0
  188.0630  174.9090  137.2450 C   0  0  0  0  0  2  0  0  0  0  0  0
  184.3000  173.7640  135.5220 C   0  0  2  0  0  0  0  0  0  0  0  0
  186.5510  174.8780  136.9540 C   0  0  1  0  0  3  0  0  0  0  0  0
  187.9650  177.2920  137.8900 C   0  0  0  0  0  2  0  0  0  0  0  0
  183.7540  173.8330  136.9120 N   0  0  1  0  0  0  0  0  0  0  0  0
  181.4870  174.0950  137.8350 C   0  0  1  0  0  3  0  0  0  0  0  0
  186.5910  177.5240  137.2750 C   0  0  1  0  0  3  0  0  0  0  0  0
  185.8390  176.2370  136.9630 C   0  0  2  0  0  0  0  0  0  0  0  0
  182.2200  180.1720  138.8430 C   0  0  0  0  0  2  0  0  0  0  0  0
  183.0580  173.1150  134.3460 S   0  0  0  0  0  0  0  0  0  0  0  0
  185.2090  172.5520  135.4080 C   0  0  0  0  0  2  0  0  0  0  0  0
  190.1560  176.1920  137.5820 C   0  0  0  0  0  1  0  0  0  0  0  0
  181.8740  178.7870  141.1670 Cl  0  0  0  0  0  0  0  0  0  0  0  0
  180.8330  176.2240  139.0090 C   0  0  0  0  0  2  0  0  0  0  0  0
  181.3780  179.7400  137.6400 C   0  0  0  0  0  2  0  0  0  0  0  0
  188.7300  176.2690  137.0810 C   0  0  1  0  0  3  0  0  0  0  0  0
  182.8810  177.6750  138.8730 C   0  0  1  0  0  3  0  0  0  0  0  0
  183.7030  175.0900  137.7260 C   0  0  2  0  0  3  0  0  0  0  0  0
  180.8870  172.8620  137.1890 C   0  0  0  0  0  1  0  0  0  0  0  0
  182.5510  174.6920  136.9240 C   0  0  1  0  0  3  0  0  0  0  0  0
  184.3250  171.8190  134.4240 C   0  0  0  0  0  2  0  0  0  0  0  0
  184.9930  175.0010  134.9070 C   0  0  0  0  0  2  0  0  0  0  0  0
  180.5910  178.4800  137.9650 C   0  0  0  0  0  2  0  0  0  0  0  0
  181.5390  177.3030  138.2060 C   0  0  2  0  0  3  0  0  0  0  0  0
  186.2270  175.5810  135.6370 C   0  0  2  0  0  3  0  0  0  0  0  0
  1  5  1  1  0  0  0
  1 22  1  0  0  0  0
  2 18  1  1  0  0  0
  3 19  1  0  0  0  0
  4 23  1  0  0  0  0
  4  1  1  0  0  0  0
  7 10  1  0  0  0  0
  8 13  1  0  0  0  0
  8  6  1  0  0  0  0
 10 25  1  0  0  0  0
 10 23  1  0  0  0  0
 11  3  1  0  0  0  0
 12  9  1  0  0  0  0
 12  5  1  0  0  0  0
 13  4  1  0  0  0  0
 13 12  1  0  0  0  0
 14  2  1  0  0  0  0
 15 26  1  0  0  0  0
 15  7  1  0  0  0  0
 16  7  1  0  0  0  0
 20 28  1  0  0  0  0
 20 14  1  0  0  0  0
 21  6  1  0  0  0  0
 21 17  1  0  0  0  0
 21  9  1  0  0  0  0
 22  2  1  0  0  0  0
 24 11  1  0  0  0  0
 25 23  1  0  0  0  0
 25 11  1  0  0  0  0
 26 16  1  0  0  0  0
 27  7  1  0  0  0  0
 27 30  1  0  0  0  0
 28 29  1  0  0  0  0
 29 22  1  0  0  0  0
 29 19  1  0  0  0  0
 30  8  1  0  0  0  0
 30 13  1  0  0  0  0
M  END
>  <MODEL>
8

>  <REMARK>
 VINA RESULT:      -5.2      5.482      8.529
  Name = 
  0 active torsions:
  status: ('A' for Active; 'I' for Inactive)
                            x       y       z     vdW  Elec       q    Type
                         _______ _______ _______ _____ _____    ______ ____

>  <TORSDO>
F 0

$$$$
=
 OpenBabel10272413483D

 30 37  0  0  1  0  0  0  0  0999 V2000
  183.6100  176.2340  136.8520 C   0  0  2  0  0  3  0  0  0  0  0  0
  181.3500  176.7490  137.9360 C   0  0  1  0  0  3  0  0  0  0  0  0
  181.8980  172.0950  136.6880 C   0  0  0  0  0  2  0  0  0  0  0  0
  184.7630  175.2460  136.5750 C   0  0  1  0  0  3  0  0  0  0  0  0
  184.2610  177.7100  137.7230 S   0  0  0  0  0  0  0  0  0  0  0  0
  188.4090  176.0630  138.0200 C   0  0  0  0  0  2  0  0  0  0  0  0
  186.5820  172.9890  135.6430 C   0  0  2  0  0  0  0  0  0  0  0  0
  187.3230  175.2060  137.3450 C   0  0  1  0  0  3  0  0  0  0  0  0
  186.9240  178.0390  138.0640 C   0  0  0  0  0  2  0  0  0  0  0  0
  185.6290  172.8120  136.7820 N   0  0  1  0  0  0  0  0  0  0  0  0
  183.3740  171.8440  136.9740 C   0  0  1  0  0  3  0  0  0  0  0  0
  185.9310  177.4630  137.0650 C   0  0  1  0  0  3  0  0  0  0  0  0
  186.0790  175.9610  136.8570 C   0  0  2  0  0  0  0  0  0  0  0  0
  180.5950  177.3860  136.7570 C   0  0  0  0  0  2  0  0  0  0  0  0
  186.3250  171.7200  134.3510 S   0  0  0  0  0  0  0  0  0  0  0  0
  187.9450  172.4590  136.0540 C   0  0  0  0  0  2  0  0  0  0  0  0
  189.3220  178.2890  138.6150 C   0  0  0  0  0  1  0  0  0  0  0  0
  180.1960  176.1370  139.1490 Cl  0  0  0  0  0  0  0  0  0  0  0  0
  181.3900  173.3270  137.4200 C   0  0  0  0  0  2  0  0  0  0  0  0
  180.5580  176.5140  135.5000 C   0  0  0  0  0  2  0  0  0  0  0  0
  188.3220  177.5600  137.7420 C   0  0  1  0  0  3  0  0  0  0  0  0
  182.3470  175.6490  137.5220 C   0  0  1  0  0  3  0  0  0  0  0  0
  184.6820  173.8750  137.2490 C   0  0  2  0  0  3  0  0  0  0  0  0
  183.7330  170.4550  136.4810 C   0  0  0  0  0  1  0  0  0  0  0  0
  184.2430  172.8820  136.2750 C   0  0  1  0  0  3  0  0  0  0  0  0
  187.9480  171.3220  135.0560 C   0  0  0  0  0  2  0  0  0  0  0  0
  186.7350  174.3760  134.9780 C   0  0  0  0  0  2  0  0  0  0  0  0
  180.4430  175.0450  135.8720 C   0  0  0  0  0  2  0  0  0  0  0  0
  181.6970  174.5810  136.6180 C   0  0  2  0  0  3  0  0  0  0  0  0
  187.1750  175.5620  135.8670 C   0  0  2  0  0  3  0  0  0  0  0  0
  1 22  1  0  0  0  0
  1  5  1  1  0  0  0
  2 18  1  1  0  0  0
  3 11  1  0  0  0  0
  3 19  1  0  0  0  0
  4  1  1  0  0  0  0
  4 13  1  0  0  0  0
  4 23  1  0  0  0  0
  7 16  1  0  0  0  0
  7 10  1  0  0  0  0
  8  6  1  0  0  0  0
 10 23  1  0  0  0  0
 12  5  1  0  0  0  0
 12  9  1  0  0  0  0
 13 12  1  0  0  0  0
 13  8  1  0  0  0  0
 14  2  1  0  0  0  0
 15 26  1  0  0  0  0
 15  7  1  0  0  0  0
 20 28  1  0  0  0  0
 20 14  1  0  0  0  0
 21  6  1  0  0  0  0
 21  9  1  0  0  0  0
 21 17  1  0  0  0  0
 22  2  1  0  0  0  0
 24 11  1  0  0  0  0
 25 10  1  0  0  0  0
 25 11  1  0  0  0  0
 25 23  1  0  0  0  0
 26 16  1  0  0  0  0
 27  7  1  0  0  0  0
 27 30  1  0  0  0  0
 28 29  1  0  0  0  0
 29 19  1  0  0  0  0
 29 22  1  0  0  0  0
 30 13  1  0  0  0  0
 30  8  1  0  0  0  0
M  END
>  <MODEL>
9

>  <REMARK>
 VINA RESULT:      -5.1      5.682      9.501
  Name = 
  0 active torsions:
  status: ('A' for Active; 'I' for Inactive)
                            x       y       z     vdW  Elec       q    Type
                         _______ _______ _______ _____ _____    ______ ____

>  <TORSDO>
F 0

$$$$
