=
 OpenBabel10272415163D

 34 38  0  0  1  0  0  0  0  0999 V2000
  187.5680  178.4160  144.4690 N   0  0  2  0  0  0  0  0  0  0  0  0
  186.7140  177.6970  145.4380 C   0  0  2  0  0  3  0  0  0  0  0  0
  186.3250  177.7620  144.0060 C   0  0  1  0  0  3  0  0  0  0  0  0
  185.5310  179.2550  142.1600 C   0  0  0  0  0  2  0  0  0  0  0  0
  182.9180  179.0590  143.1750 O   0  0  0  0  0  0  0  0  0  0  0  0
  183.3710  178.7460  138.9600 C   0  0  1  0  0  3  0  0  0  0  0  0
  184.6350  179.0410  139.7970 C   0  0  0  0  0  2  0  0  0  0  0  0
  184.4850  178.6250  141.2570 C   0  0  2  0  0  3  0  0  0  0  0  0
  182.0020  178.1720  141.0780 C   0  0  0  0  0  2  0  0  0  0  0  0
  183.0850  179.0040  141.7640 C   0  0  1  0  0  3  0  0  0  0  0  0
  182.3950  177.7620  139.6440 C   0  0  0  0  0  2  0  0  0  0  0  0
  183.8840  178.2620  143.8260 C   0  0  0  0  0  2  0  0  0  0  0  0
  185.3000  178.8260  143.6170 C   0  0  1  0  0  3  0  0  0  0  0  0
  182.6980  180.0230  138.5430 C   0  0  0  0  0  0  0  0  0  0  0  0
  183.1890  181.0960  138.8540 O   0  0  0  0  0  0  0  0  0  0  0  0
  181.5560  180.0040  137.8040 F   0  0  0  0  0  0  0  0  0  0  0  0
  190.2420  178.5850  142.3880 C   0  0  0  0  0  2  0  0  0  0  0  0
  189.8530  177.1960  141.9400 C   0  0  1  0  0  3  0  0  0  0  0  0
  188.6410  175.4280  143.0220 O   0  0  0  0  0  1  0  0  0  0  0  0
  188.6780  176.8100  142.8110 C   0  0  1  0  0  3  0  0  0  0  0  0
  189.9010  178.6530  143.8630 C   0  0  0  0  0  2  0  0  0  0  0  0
  188.7860  177.6400  144.1260 C   0  0  1  0  0  0  0  0  0  0  0  0
  190.1880  176.4430  139.5760 O   0  0  0  0  0  0  0  0  0  0  0  0
  189.4690  177.1950  140.4980 C   0  0  0  0  0  0  0  0  0  0  0  0
  188.4870  177.8820  140.1150 O   0  0  0  0  0  1  0  0  0  0  0  0
  189.1240  176.7570  145.3570 C   0  0  0  0  0  2  0  0  0  0  0  0
  191.5290  175.9950  145.6160 C   0  0  0  0  0  3  0  0  0  0  0  0
  192.4120  175.7350  147.8540 C   0  0  0  0  0  2  0  0  0  0  0  0
  192.4110  175.5000  146.4200 N   0  0  0  0  0  0  0  0  0  0  0  0
  190.3590  177.0780  147.5990 C   0  0  0  0  0  2  0  0  0  0  0  0
  190.4660  176.9630  146.0800 C   0  0  2  0  0  3  0  0  0  0  0  0
  191.7480  177.0600  148.2110 C   0  0  0  0  0  2  0  0  0  0  0  0
  186.0560  178.6730  146.3220 C   0  0  0  0  0  0  0  0  0  0  0  0
  185.5400  179.4400  147.0190 N   0  0  0  0  0  0  0  0  0  0  0  0
  1 22  1  6  0  0  0
  1  2  1  0  0  0  0
  2 33  1  1  0  0  0
  3 13  1  1  0  0  0
  3  1  1  0  0  0  0
  3  2  1  0  0  0  0
  5 12  1  0  0  0  0
  6 14  1  1  0  0  0
  6 11  1  0  0  0  0
  6  7  1  0  0  0  0
  8  7  1  6  0  0  0
  8 10  1  0  0  0  0
  8  4  1  0  0  0  0
 10  9  1  1  0  0  0
 10  5  1  0  0  0  0
 11  9  1  0  0  0  0
 13  4  1  6  0  0  0
 13 12  1  0  0  0  0
 14 15  2  0  0  0  0
 16 14  1  0  0  0  0
 17 21  1  0  0  0  0
 18 24  1  6  0  0  0
 18 17  1  0  0  0  0
 18 20  1  0  0  0  0
 20 19  1  1  0  0  0
 20 22  1  0  0  0  0
 21 22  1  0  0  0  0
 22 26  1  1  0  0  0
 23 24  2  0  0  0  0
 25 24  1  0  0  0  0
 27 31  1  0  0  0  0
 27 29  2  0  0  0  0
 28 32  1  0  0  0  0
 29 28  1  0  0  0  0
 30 32  1  0  0  0  0
 31 26  1  1  0  0  0
 31 30  1  0  0  0  0
 33 34  3  0  0  0  0
M  END
>  <MODEL>
1

>  <REMARK>
 VINA RESULT:      -8.0      0.000      0.000
  Name = 
  7 active torsions:
  status: ('A' for Active; 'I' for Inactive)
    1  A    between atoms: C_1  and  C_20
    2  A    between atoms: C_1  and  C_34
    3  A    between atoms: N_5  and  C_34
    4  A    between atoms: C_7  and  C_11
    5  A    between atoms: C_8  and  C_18
    6  A    between atoms: C_13  and  C_23
    7  A    between atoms: C_31  and  C_33
                            x       y       z     vdW  Elec       q    Type
                         _______ _______ _______ _____ _____    ______ ____

>  <TORSDO>
F 7

$$$$
=
 OpenBabel10272415163D

 34 38  0  0  1  0  0  0  0  0999 V2000
  187.9630  178.4090  143.4650 N   0  0  2  0  0  0  0  0  0  0  0  0
  187.2670  177.4730  144.3710 C   0  0  2  0  0  3  0  0  0  0  0  0
  186.7330  177.7260  143.0080 C   0  0  1  0  0  3  0  0  0  0  0  0
  185.5880  179.3400  141.4750 C   0  0  0  0  0  2  0  0  0  0  0  0
  183.1660  178.8270  142.8050 O   0  0  0  0  0  0  0  0  0  0  0  0
  183.0280  179.0050  138.5600 C   0  0  1  0  0  3  0  0  0  0  0  0
  184.3780  179.3080  139.2460 C   0  0  0  0  0  2  0  0  0  0  0  0
  184.4660  178.7280  140.6550 C   0  0  2  0  0  3  0  0  0  0  0  0
  182.0170  178.0990  140.7620 C   0  0  0  0  0  2  0  0  0  0  0  0
  183.1320  178.9360  141.3870 C   0  0  1  0  0  3  0  0  0  0  0  0
  182.2260  177.8780  139.2490 C   0  0  0  0  0  2  0  0  0  0  0  0
  184.2650  178.0450  143.2210 C   0  0  0  0  0  2  0  0  0  0  0  0
  185.5970  178.7400  142.8890 C   0  0  1  0  0  3  0  0  0  0  0  0
  182.2210  180.2610  138.3910 C   0  0  0  0  0  0  0  0  0  0  0  0
  181.0820  180.1950  137.9570 O   0  0  0  0  0  0  0  0  0  0  0  0
  182.7330  181.4740  138.7310 F   0  0  0  0  0  0  0  0  0  0  0  0
  189.9090  175.6530  143.8260 C   0  0  0  0  0  2  0  0  0  0  0  0
  191.0630  176.6140  143.9870 C   0  0  1  0  0  3  0  0  0  0  0  0
  191.4140  178.8630  143.2240 O   0  0  0  0  0  1  0  0  0  0  0  0
  190.4710  177.9890  143.7740 C   0  0  1  0  0  3  0  0  0  0  0  0
  188.9700  176.3000  142.8270 C   0  0  0  0  0  2  0  0  0  0  0  0
  189.1960  177.8110  142.8940 C   0  0  1  0  0  0  0  0  0  0  0  0
  192.2120  175.2960  145.7790 O   0  0  0  0  0  0  0  0  0  0  0  0
  191.6600  176.4980  145.3500 C   0  0  0  0  0  0  0  0  0  0  0  0
  191.6600  177.4960  146.1160 O   0  0  0  0  0  1  0  0  0  0  0  0
  189.3710  178.4050  141.4700 C   0  0  0  0  0  2  0  0  0  0  0  0
  190.6080  177.1740  139.6300 C   0  0  0  0  0  3  0  0  0  0  0  0
  189.7040  177.2580  137.3880 C   0  0  0  0  0  2  0  0  0  0  0  0
  190.7650  177.0390  138.3550 N   0  0  0  0  0  0  0  0  0  0  0  0
  188.1920  177.8680  139.2410 C   0  0  0  0  0  2  0  0  0  0  0  0
  189.2650  177.4720  140.2530 C   0  0  2  0  0  3  0  0  0  0  0  0
  188.3260  177.0120  137.9930 C   0  0  0  0  0  2  0  0  0  0  0  0
  186.6280  178.2340  145.4580 C   0  0  0  0  0  0  0  0  0  0  0  0
  186.1250  178.8320  146.3110 N   0  0  0  0  0  0  0  0  0  0  0  0
  1 22  1  6  0  0  0
  1  2  1  0  0  0  0
  2 33  1  1  0  0  0
  3 13  1  1  0  0  0
  3  1  1  0  0  0  0
  3  2  1  0  0  0  0
  5 12  1  0  0  0  0
  6 14  1  1  0  0  0
  6  7  1  0  0  0  0
  6 11  1  0  0  0  0
  8  7  1  6  0  0  0
  8 10  1  0  0  0  0
  8  4  1  0  0  0  0
 10  9  1  6  0  0  0
 10  5  1  0  0  0  0
 11  9  1  0  0  0  0
 13  4  1  6  0  0  0
 13 12  1  0  0  0  0
 14 16  1  0  0  0  0
 15 14  2  0  0  0  0
 17 18  1  0  0  0  0
 18 24  1  1  0  0  0
 20 19  1  6  0  0  0
 20 18  1  0  0  0  0
 21 22  1  0  0  0  0
 21 17  1  0  0  0  0
 22 26  1  6  0  0  0
 22 20  1  0  0  0  0
 24 23  2  0  0  0  0
 24 25  1  0  0  0  0
 27 31  1  0  0  0  0
 28 32  1  0  0  0  0
 28 29  1  0  0  0  0
 29 27  2  0  0  0  0
 30 31  1  0  0  0  0
 31 26  1  1  0  0  0
 32 30  1  0  0  0  0
 33 34  3  0  0  0  0
M  END
>  <MODEL>
2

>  <REMARK>
 VINA RESULT:      -7.2      2.210      4.415
  Name = 
  7 active torsions:
  status: ('A' for Active; 'I' for Inactive)
    1  A    between atoms: C_1  and  C_20
    2  A    between atoms: C_1  and  C_34
    3  A    between atoms: N_5  and  C_34
    4  A    between atoms: C_7  and  C_11
    5  A    between atoms: C_8  and  C_18
    6  A    between atoms: C_13  and  C_23
    7  A    between atoms: C_31  and  C_33
                            x       y       z     vdW  Elec       q    Type
                         _______ _______ _______ _____ _____    ______ ____

>  <TORSDO>
F 7

$$$$
=
 OpenBabel10272415163D

 34 38  0  0  1  0  0  0  0  0999 V2000
  185.4090  178.8910  138.9420 N   0  0  2  0  0  0  0  0  0  0  0  0
  185.9030  177.9870  137.8840 C   0  0  2  0  0  3  0  0  0  0  0  0
  186.3120  177.7750  139.2960 C   0  0  1  0  0  3  0  0  0  0  0  0
  187.6580  178.6630  141.2100 C   0  0  0  0  0  2  0  0  0  0  0  0
  189.9740  177.5990  140.0280 O   0  0  0  0  0  0  0  0  0  0  0  0
  189.5340  177.0570  144.2210 C   0  0  1  0  0  3  0  0  0  0  0  0
  188.4590  177.8890  143.4890 C   0  0  0  0  0  2  0  0  0  0  0  0
  188.4050  177.5970  141.9920 C   0  0  2  0  0  3  0  0  0  0  0  0
  190.5310  176.2240  141.9840 C   0  0  0  0  0  2  0  0  0  0  0  0
  189.8310  177.4680  141.4370 C   0  0  1  0  0  3  0  0  0  0  0  0
  190.0440  175.8510  143.3990 C   0  0  0  0  0  2  0  0  0  0  0  0
  188.7620  177.2950  139.3700 C   0  0  0  0  0  2  0  0  0  0  0  0
  187.6730  178.3280  139.7110 C   0  0  1  0  0  3  0  0  0  0  0  0
  190.6530  177.9360  144.7030 C   0  0  0  0  0  0  0  0  0  0  0  0
  191.5210  177.4700  145.4230 O   0  0  0  0  0  0  0  0  0  0  0  0
  190.7260  179.2430  144.3340 F   0  0  0  0  0  0  0  0  0  0  0  0
  183.0320  176.5270  138.4180 C   0  0  0  0  0  2  0  0  0  0  0  0
  182.1580  177.6590  137.9320 C   0  0  1  0  0  3  0  0  0  0  0  0
  182.1490  180.0120  138.4040 O   0  0  0  0  0  1  0  0  0  0  0  0
  182.9740  178.9140  138.1450 C   0  0  1  0  0  3  0  0  0  0  0  0
  183.8780  177.1090  139.5330 C   0  0  0  0  0  2  0  0  0  0  0  0
  183.9920  178.6140  139.2880 C   0  0  1  0  0  0  0  0  0  0  0  0
  182.7080  176.8460  135.6290 O   0  0  0  0  0  0  0  0  0  0  0  0
  181.8210  177.4830  136.4890 C   0  0  0  0  0  0  0  0  0  0  0  0
  180.7250  177.9190  136.0480 O   0  0  0  0  0  1  0  0  0  0  0  0
  183.6770  179.4080  140.5850 C   0  0  0  0  0  2  0  0  0  0  0  0
  182.4000  178.7180  142.6640 C   0  0  0  0  0  3  0  0  0  0  0  0
  183.4710  179.0070  144.8140 C   0  0  0  0  0  2  0  0  0  0  0  0
  182.3190  178.8190  143.9490 N   0  0  0  0  0  0  0  0  0  0  0  0
  184.9180  179.0430  142.8160 C   0  0  0  0  0  2  0  0  0  0  0  0
  183.7230  178.6780  141.9380 C   0  0  2  0  0  3  0  0  0  0  0  0
  184.7420  178.4340  144.1960 C   0  0  0  0  0  2  0  0  0  0  0  0
  186.8710  178.7090  137.0420 C   0  0  0  0  0  0  0  0  0  0  0  0
  187.6330  179.2770  136.3800 N   0  0  0  0  0  0  0  0  0  0  0  0
  1 22  1  1  0  0  0
  1  3  1  0  0  0  0
  2 33  1  6  0  0  0
  2  1  1  0  0  0  0
  2  3  1  0  0  0  0
  3 13  1  6  0  0  0
  5 10  1  0  0  0  0
  6 14  1  6  0  0  0
  7  6  1  0  0  0  0
  8  4  1  6  0  0  0
  8  7  1  0  0  0  0
  9 11  1  0  0  0  0
 10  9  1  6  0  0  0
 10  8  1  0  0  0  0
 11  6  1  0  0  0  0
 12  5  1  0  0  0  0
 13 12  1  1  0  0  0
 13  4  1  0  0  0  0
 14 15  2  0  0  0  0
 16 14  1  0  0  0  0
 17 21  1  0  0  0  0
 18 24  1  6  0  0  0
 18 20  1  0  0  0  0
 18 17  1  0  0  0  0
 20 19  1  1  0  0  0
 20 22  1  0  0  0  0
 22 21  1  0  0  0  0
 22 26  1  1  0  0  0
 23 24  2  0  0  0  0
 25 24  1  0  0  0  0
 27 29  2  0  0  0  0
 29 28  1  0  0  0  0
 30 32  1  0  0  0  0
 31 26  1  6  0  0  0
 31 27  1  0  0  0  0
 31 30  1  0  0  0  0
 32 28  1  0  0  0  0
 34 33  3  0  0  0  0
M  END
>  <MODEL>
3

>  <REMARK>
 VINA RESULT:      -6.8      3.533      8.249
  Name = 
  7 active torsions:
  status: ('A' for Active; 'I' for Inactive)
    1  A    between atoms: C_1  and  C_20
    2  A    between atoms: C_1  and  C_34
    3  A    between atoms: N_5  and  C_34
    4  A    between atoms: C_7  and  C_11
    5  A    between atoms: C_8  and  C_18
    6  A    between atoms: C_13  and  C_23
    7  A    between atoms: C_31  and  C_33
                            x       y       z     vdW  Elec       q    Type
                         _______ _______ _______ _____ _____    ______ ____

>  <TORSDO>
F 7

$$$$
=
 OpenBabel10272415163D

 34 38  0  0  1  0  0  0  0  0999 V2000
  190.4230  176.7170  140.4080 N   0  0  2  0  0  0  0  0  0  0  0  0
  191.4620  177.7250  140.1180 C   0  0  2  0  0  3  0  0  0  0  0  0
  190.1520  177.7830  139.4200 C   0  0  1  0  0  3  0  0  0  0  0  0
  189.1510  175.9650  138.0210 C   0  0  0  0  0  2  0  0  0  0  0  0
  189.2260  177.6830  135.7990 O   0  0  0  0  0  0  0  0  0  0  0  0
  185.6850  175.3940  136.3400 C   0  0  1  0  0  3  0  0  0  0  0  0
  186.8510  175.1540  137.3240 C   0  0  0  0  0  2  0  0  0  0  0  0
  187.8210  176.3300  137.3850 C   0  0  2  0  0  3  0  0  0  0  0  0
  186.8090  177.5230  135.3960 C   0  0  0  0  0  2  0  0  0  0  0  0
  188.0680  176.8750  135.9700 C   0  0  1  0  0  3  0  0  0  0  0  0
  185.5170  176.8750  135.9330 C   0  0  0  0  0  2  0  0  0  0  0  0
  189.6220  178.2590  137.0250 C   0  0  0  0  0  2  0  0  0  0  0  0
  190.0900  177.1800  138.0180 C   0  0  1  0  0  3  0  0  0  0  0  0
  185.7950  174.4820  135.1500 C   0  0  0  0  0  0  0  0  0  0  0  0
  184.7840  174.1070  134.5800 O   0  0  0  0  0  0  0  0  0  0  0  0
  187.0080  174.0820  134.6840 F   0  0  0  0  0  0  0  0  0  0  0  0
  191.1480  177.9630  143.4790 C   0  0  0  0  0  2  0  0  0  0  0  0
  190.5920  176.6680  144.0240 C   0  0  1  0  0  3  0  0  0  0  0  0
  189.0000  175.0980  143.1510 O   0  0  0  0  0  1  0  0  0  0  0  0
  190.0860  175.9110  142.8160 C   0  0  1  0  0  3  0  0  0  0  0  0
  190.3180  178.2830  142.2520 C   0  0  0  0  0  2  0  0  0  0  0  0
  189.7620  176.9650  141.7140 C   0  0  1  0  0  0  0  0  0  0  0  0
  192.2450  174.7910  144.1240 O   0  0  0  0  0  0  0  0  0  0  0  0
  191.6540  175.8940  144.7300 C   0  0  0  0  0  0  0  0  0  0  0  0
  192.0150  176.2420  145.8840 O   0  0  0  0  0  1  0  0  0  0  0  0
  188.2390  177.0820  141.4370 C   0  0  0  0  0  2  0  0  0  0  0  0
  187.0010  177.5740  143.5950 C   0  0  0  0  0  3  0  0  0  0  0  0
  184.8180  178.6060  143.4530 C   0  0  0  0  0  2  0  0  0  0  0  0
  185.8590  177.8540  144.1300 N   0  0  0  0  0  0  0  0  0  0  0  0
  186.2640  178.7400  141.4580 C   0  0  0  0  0  2  0  0  0  0  0  0
  187.4090  178.0980  142.2390 C   0  0  2  0  0  3  0  0  0  0  0  0
  185.3930  179.5500  142.4020 C   0  0  0  0  0  2  0  0  0  0  0  0
  192.5580  177.0910  139.3660 C   0  0  0  0  0  0  0  0  0  0  0  0
  193.4200  176.5930  138.7760 N   0  0  0  0  0  0  0  0  0  0  0  0
  1 22  1  1  0  0  0
  2 33  1  6  0  0  0
  2  1  1  0  0  0  0
  3 13  1  6  0  0  0
  3  2  1  0  0  0  0
  3  1  1  0  0  0  0
  5 10  1  0  0  0  0
  5 12  1  0  0  0  0
  6 14  1  6  0  0  0
  6  7  1  0  0  0  0
  8  7  1  6  0  0  0
  8  4  1  0  0  0  0
  9 11  1  0  0  0  0
 10  9  1  1  0  0  0
 10  8  1  0  0  0  0
 11  6  1  0  0  0  0
 13 12  1  6  0  0  0
 13  4  1  0  0  0  0
 15 14  2  0  0  0  0
 16 14  1  0  0  0  0
 17 18  1  0  0  0  0
 18 24  1  6  0  0  0
 20 19  1  1  0  0  0
 20 18  1  0  0  0  0
 21 17  1  0  0  0  0
 22 26  1  6  0  0  0
 22 21  1  0  0  0  0
 22 20  1  0  0  0  0
 23 24  2  0  0  0  0
 24 25  1  0  0  0  0
 27 29  2  0  0  0  0
 28 29  1  0  0  0  0
 30 31  1  0  0  0  0
 30 32  1  0  0  0  0
 31 26  1  6  0  0  0
 31 27  1  0  0  0  0
 32 28  1  0  0  0  0
 34 33  3  0  0  0  0
M  END
>  <MODEL>
4

>  <REMARK>
 VINA RESULT:      -6.5      3.839      6.654
  Name = 
  7 active torsions:
  status: ('A' for Active; 'I' for Inactive)
    1  A    between atoms: C_1  and  C_20
    2  A    between atoms: C_1  and  C_34
    3  A    between atoms: N_5  and  C_34
    4  A    between atoms: C_7  and  C_11
    5  A    between atoms: C_8  and  C_18
    6  A    between atoms: C_13  and  C_23
    7  A    between atoms: C_31  and  C_33
                            x       y       z     vdW  Elec       q    Type
                         _______ _______ _______ _____ _____    ______ ____

>  <TORSDO>
F 7

$$$$
=
 OpenBabel10272415163D

 34 38  0  0  1  0  0  0  0  0999 V2000
  189.8690  177.5410  138.8200 N   0  0  2  0  0  0  0  0  0  0  0  0
  190.7110  176.5540  139.5250 C   0  0  2  0  0  3  0  0  0  0  0  0
  189.3760  176.9170  140.0670 C   0  0  1  0  0  3  0  0  0  0  0  0
  187.9130  178.4850  141.3570 C   0  0  0  0  0  2  0  0  0  0  0  0
  189.5600  178.1170  143.6030 O   0  0  0  0  0  0  0  0  0  0  0  0
  185.3620  178.0810  144.2720 C   0  0  1  0  0  3  0  0  0  0  0  0
  185.8570  178.3770  142.8390 C   0  0  0  0  0  2  0  0  0  0  0  0
  187.2730  177.8670  142.5890 C   0  0  2  0  0  3  0  0  0  0  0  0
  187.7190  177.3210  145.0190 C   0  0  0  0  0  2  0  0  0  0  0  0
  188.1540  178.1550  143.8140 C   0  0  1  0  0  3  0  0  0  0  0  0
  186.2070  177.0170  145.0080 C   0  0  0  0  0  2  0  0  0  0  0  0
  189.8780  177.3230  142.4800 C   0  0  0  0  0  2  0  0  0  0  0  0
  189.3450  177.9590  141.1840 C   0  0  1  0  0  3  0  0  0  0  0  0
  185.2260  179.3510  145.0630 C   0  0  0  0  0  0  0  0  0  0  0  0
  185.2110  179.3070  146.2820 O   0  0  0  0  0  0  0  0  0  0  0  0
  185.1400  180.5580  144.4410 F   0  0  0  0  0  0  0  0  0  0  0  0
  187.8580  178.4760  136.2510 C   0  0  0  0  0  2  0  0  0  0  0  0
  186.9930  177.2980  136.6330 C   0  0  1  0  0  3  0  0  0  0  0  0
  187.4780  175.2330  137.7570 O   0  0  0  0  0  1  0  0  0  0  0  0
  187.7330  176.6080  137.7580 C   0  0  1  0  0  3  0  0  0  0  0  0
  189.2860  178.0440  136.5230 C   0  0  0  0  0  2  0  0  0  0  0  0
  189.2430  176.9640  137.6040 C   0  0  1  0  0  0  0  0  0  0  0  0
  185.5250  178.6650  138.1300 O   0  0  0  0  0  1  0  0  0  0  0  0
  185.6470  177.7560  137.0850 C   0  0  0  0  0  0  0  0  0  0  0  0
  184.6160  177.3130  136.5170 O   0  0  0  0  0  0  0  0  0  0  0  0
  190.1010  175.7380  137.1910 C   0  0  0  0  0  2  0  0  0  0  0  0
  190.9400  174.8240  134.9790 C   0  0  0  0  0  3  0  0  0  0  0  0
  193.3290  174.6150  134.6590 C   0  0  0  0  0  2  0  0  0  0  0  0
  191.9440  174.3090  134.3490 N   0  0  0  0  0  0  0  0  0  0  0  0
  192.5570  176.0840  136.4850 C   0  0  0  0  0  2  0  0  0  0  0  0
  191.1100  175.8850  136.0390 C   0  0  2  0  0  3  0  0  0  0  0  0
  193.4780  176.0000  135.2800 C   0  0  0  0  0  2  0  0  0  0  0  0
  191.8580  177.2450  140.1390 C   0  0  0  0  0  0  0  0  0  0  0  0
  192.7600  177.7870  140.6220 N   0  0  0  0  0  0  0  0  0  0  0  0
  1 22  1  6  0  0  0
  1  2  1  0  0  0  0
  1  3  1  0  0  0  0
  2  3  1  0  0  0  0
  2 33  1  1  0  0  0
  3 13  1  1  0  0  0
  5 10  1  0  0  0  0
  6 11  1  0  0  0  0
  6 14  1  1  0  0  0
  7  6  1  0  0  0  0
  8  4  1  6  0  0  0
  8  7  1  0  0  0  0
  8 10  1  0  0  0  0
 10  9  1  1  0  0  0
 11  9  1  0  0  0  0
 12  5  1  0  0  0  0
 13  4  1  1  0  0  0
 13 12  1  0  0  0  0
 14 15  2  0  0  0  0
 16 14  1  0  0  0  0
 17 21  1  0  0  0  0
 17 18  1  0  0  0  0
 18 24  1  1  0  0  0
 18 20  1  0  0  0  0
 20 19  1  6  0  0  0
 21 22  1  0  0  0  0
 22 26  1  6  0  0  0
 22 20  1  0  0  0  0
 24 23  1  0  0  0  0
 25 24  2  0  0  0  0
 27 31  1  0  0  0  0
 28 32  1  0  0  0  0
 29 28  1  0  0  0  0
 29 27  2  0  0  0  0
 31 30  1  0  0  0  0
 31 26  1  1  0  0  0
 32 30  1  0  0  0  0
 33 34  3  0  0  0  0
M  END
>  <MODEL>
5

>  <REMARK>
 VINA RESULT:      -6.3      4.396      7.617
  Name = 
  7 active torsions:
  status: ('A' for Active; 'I' for Inactive)
    1  A    between atoms: C_1  and  C_20
    2  A    between atoms: C_1  and  C_34
    3  A    between atoms: N_5  and  C_34
    4  A    between atoms: C_7  and  C_11
    5  A    between atoms: C_8  and  C_18
    6  A    between atoms: C_13  and  C_23
    7  A    between atoms: C_31  and  C_33
                            x       y       z     vdW  Elec       q    Type
                         _______ _______ _______ _____ _____    ______ ____

>  <TORSDO>
F 7

$$$$
=
 OpenBabel10272415163D

 34 38  0  0  1  0  0  0  0  0999 V2000
  189.5770  177.5850  138.6890 N   0  0  2  0  0  0  0  0  0  0  0  0
  190.4360  176.5430  139.2880 C   0  0  2  0  0  3  0  0  0  0  0  0
  189.1580  176.9230  139.9430 C   0  0  1  0  0  3  0  0  0  0  0  0
  187.8480  178.4820  141.3990 C   0  0  0  0  0  2  0  0  0  0  0  0
  189.6370  177.9630  143.5020 O   0  0  0  0  0  0  0  0  0  0  0  0
  185.5000  178.0380  144.4740 C   0  0  1  0  0  3  0  0  0  0  0  0
  185.9010  178.3790  143.0220 C   0  0  0  0  0  2  0  0  0  0  0  0
  187.2760  177.8330  142.6480 C   0  0  2  0  0  3  0  0  0  0  0  0
  187.8750  177.1690  145.0150 C   0  0  0  0  0  2  0  0  0  0  0  0
  188.2520  178.0380  143.8160 C   0  0  1  0  0  3  0  0  0  0  0  0
  186.3560  176.9150  145.1020 C   0  0  0  0  0  2  0  0  0  0  0  0
  189.8450  177.2080  142.3280 C   0  0  0  0  0  2  0  0  0  0  0  0
  189.2440  177.9160  141.1000 C   0  0  1  0  0  3  0  0  0  0  0  0
  185.4670  179.2770  145.3230 C   0  0  0  0  0  0  0  0  0  0  0  0
  185.6480  179.1910  146.5260 O   0  0  0  0  0  0  0  0  0  0  0  0
  185.2570  180.5010  144.7690 F   0  0  0  0  0  0  0  0  0  0  0  0
  189.1860  174.7190  136.9140 C   0  0  0  0  0  2  0  0  0  0  0  0
  189.5540  175.5410  135.7000 C   0  0  1  0  0  3  0  0  0  0  0  0
  189.3700  177.8850  135.2190 O   0  0  0  0  0  1  0  0  0  0  0  0
  189.7070  176.9570  136.2090 C   0  0  1  0  0  3  0  0  0  0  0  0
  188.4060  175.6500  137.8210 C   0  0  0  0  0  2  0  0  0  0  0  0
  188.8440  177.0800  137.5010 C   0  0  1  0  0  0  0  0  0  0  0  0
  192.0070  175.7700  135.2590 O   0  0  0  0  0  1  0  0  0  0  0  0
  190.8280  175.0510  135.0980 C   0  0  0  0  0  0  0  0  0  0  0  0
  190.8330  173.9810  134.4370 O   0  0  0  0  0  0  0  0  0  0  0  0
  187.6100  178.0020  137.3040 C   0  0  0  0  0  2  0  0  0  0  0  0
  185.3960  177.0260  136.5440 C   0  0  0  0  0  3  0  0  0  0  0  0
  183.3610  177.9440  137.4760 C   0  0  0  0  0  2  0  0  0  0  0  0
  184.1180  177.2010  136.4840 N   0  0  0  0  0  0  0  0  0  0  0  0
  185.4660  178.4140  138.6750 C   0  0  0  0  0  2  0  0  0  0  0  0
  186.2210  177.4910  137.7200 C   0  0  2  0  0  3  0  0  0  0  0  0
  184.0390  177.9190  138.8410 C   0  0  0  0  0  2  0  0  0  0  0  0
  191.6470  177.1700  139.8420 C   0  0  0  0  0  0  0  0  0  0  0  0
  192.6000  177.6640  140.2760 N   0  0  0  0  0  0  0  0  0  0  0  0
  1 22  1  6  0  0  0
  1  2  1  0  0  0  0
  1  3  1  0  0  0  0
  2 33  1  1  0  0  0
  2  3  1  0  0  0  0
  3 13  1  1  0  0  0
  5 10  1  0  0  0  0
  6 11  1  0  0  0  0
  6 14  1  1  0  0  0
  7  6  1  0  0  0  0
  8  4  1  6  0  0  0
  8  7  1  0  0  0  0
  8 10  1  0  0  0  0
  9 11  1  0  0  0  0
 10  9  1  1  0  0  0
 12  5  1  0  0  0  0
 13  4  1  1  0  0  0
 13 12  1  0  0  0  0
 14 15  2  0  0  0  0
 16 14  1  0  0  0  0
 17 21  1  0  0  0  0
 18 24  1  1  0  0  0
 18 20  1  0  0  0  0
 18 17  1  0  0  0  0
 20 19  1  6  0  0  0
 20 22  1  0  0  0  0
 22 26  1  6  0  0  0
 22 21  1  0  0  0  0
 24 23  1  0  0  0  0
 25 24  2  0  0  0  0
 27 31  1  0  0  0  0
 28 32  1  0  0  0  0
 29 27  2  0  0  0  0
 29 28  1  0  0  0  0
 30 32  1  0  0  0  0
 31 26  1  6  0  0  0
 31 30  1  0  0  0  0
 33 34  3  0  0  0  0
M  END
>  <MODEL>
6

>  <REMARK>
 VINA RESULT:      -6.3      3.871      7.815
  Name = 
  7 active torsions:
  status: ('A' for Active; 'I' for Inactive)
    1  A    between atoms: C_1  and  C_20
    2  A    between atoms: C_1  and  C_34
    3  A    between atoms: N_5  and  C_34
    4  A    between atoms: C_7  and  C_11
    5  A    between atoms: C_8  and  C_18
    6  A    between atoms: C_13  and  C_23
    7  A    between atoms: C_31  and  C_33
                            x       y       z     vdW  Elec       q    Type
                         _______ _______ _______ _____ _____    ______ ____

>  <TORSDO>
F 7

$$$$
=
 OpenBabel10272415163D

 34 38  0  0  1  0  0  0  0  0999 V2000
  188.8880  176.2290  137.7030 N   0  0  2  0  0  0  0  0  0  0  0  0
  188.7760  177.6700  137.3960 C   0  0  2  0  0  3  0  0  0  0  0  0
  189.5600  177.2170  138.5730 C   0  0  1  0  0  3  0  0  0  0  0  0
  189.5880  176.3470  140.9200 C   0  0  0  0  0  2  0  0  0  0  0  0
  188.5020  178.7840  141.7980 O   0  0  0  0  0  0  0  0  0  0  0  0
  191.6670  177.1460  144.1150 C   0  0  1  0  0  3  0  0  0  0  0  0
  191.1540  176.3180  142.9160 C   0  0  0  0  0  2  0  0  0  0  0  0
  190.4290  177.1720  141.8790 C   0  0  2  0  0  3  0  0  0  0  0  0
  190.3580  179.2370  143.3390 C   0  0  0  0  0  2  0  0  0  0  0  0
  189.5300  178.1970  142.5860 C   0  0  1  0  0  3  0  0  0  0  0  0
  191.6990  178.6670  143.8450 C   0  0  0  0  0  2  0  0  0  0  0  0
  188.8240  178.7230  140.4260 C   0  0  0  0  0  2  0  0  0  0  0  0
  188.8600  177.2660  139.9300 C   0  0  1  0  0  3  0  0  0  0  0  0
  190.9070  176.8020  145.3650 C   0  0  0  0  0  0  0  0  0  0  0  0
  191.5010  176.7000  146.4250 O   0  0  0  0  0  0  0  0  0  0  0  0
  189.5600  176.6190  145.3380 F   0  0  0  0  0  0  0  0  0  0  0  0
  191.8830  174.6370  137.7810 C   0  0  0  0  0  2  0  0  0  0  0  0
  192.2980  175.5790  136.6760 C   0  0  1  0  0  3  0  0  0  0  0  0
  191.0440  176.7750  135.0150 O   0  0  0  0  0  1  0  0  0  0  0  0
  191.0630  176.3920  136.3600 C   0  0  1  0  0  3  0  0  0  0  0  0
  190.4120  174.3530  137.5500 C   0  0  0  0  0  2  0  0  0  0  0  0
  189.8280  175.5400  136.7840 C   0  0  1  0  0  0  0  0  0  0  0  0
  194.4060  176.8570  136.2360 O   0  0  0  0  0  0  0  0  0  0  0  0
  193.4140  176.4620  137.1260 C   0  0  0  0  0  0  0  0  0  0  0  0
  193.4580  176.8480  138.3230 O   0  0  0  0  0  1  0  0  0  0  0  0
  188.9980  175.0540  135.5650 C   0  0  0  0  0  2  0  0  0  0  0  0
  187.2960  173.1850  135.7760 C   0  0  0  0  0  3  0  0  0  0  0  0
  185.2170  173.3870  134.5560 C   0  0  0  0  0  2  0  0  0  0  0  0
  186.2400  172.6420  135.2690 N   0  0  0  0  0  0  0  0  0  0  0  0
  186.5430  175.4430  134.8790 C   0  0  0  0  0  2  0  0  0  0  0  0
  187.5210  174.6780  135.7690 C   0  0  2  0  0  3  0  0  0  0  0  0
  185.1540  174.8410  135.0120 C   0  0  0  0  0  2  0  0  0  0  0  0
  187.4040  178.1220  137.6790 C   0  0  0  0  0  0  0  0  0  0  0  0
  186.3250  178.4760  137.9020 N   0  0  0  0  0  0  0  0  0  0  0  0
  1 22  1  6  0  0  0
  1  3  1  0  0  0  0
  2 33  1  1  0  0  0
  2  1  1  0  0  0  0
  2  3  1  0  0  0  0
  3 13  1  1  0  0  0
  5 10  1  0  0  0  0
  6 14  1  1  0  0  0
  7  6  1  0  0  0  0
  8  4  1  6  0  0  0
  8 10  1  0  0  0  0
  8  7  1  0  0  0  0
  9 11  1  0  0  0  0
 10  9  1  6  0  0  0
 11  6  1  0  0  0  0
 12  5  1  0  0  0  0
 13 12  1  1  0  0  0
 13  4  1  0  0  0  0
 14 15  2  0  0  0  0
 16 14  1  0  0  0  0
 18 24  1  1  0  0  0
 18 17  1  0  0  0  0
 20 19  1  6  0  0  0
 20 18  1  0  0  0  0
 20 22  1  0  0  0  0
 21 17  1  0  0  0  0
 22 26  1  6  0  0  0
 22 21  1  0  0  0  0
 23 24  2  0  0  0  0
 24 25  1  0  0  0  0
 28 32  1  0  0  0  0
 28 29  1  0  0  0  0
 29 27  2  0  0  0  0
 30 32  1  0  0  0  0
 30 31  1  0  0  0  0
 31 26  1  6  0  0  0
 31 27  1  0  0  0  0
 33 34  3  0  0  0  0
M  END
>  <MODEL>
7

>  <REMARK>
 VINA RESULT:      -6.0      4.960      9.100
  Name = 
  7 active torsions:
  status: ('A' for Active; 'I' for Inactive)
    1  A    between atoms: C_1  and  C_20
    2  A    between atoms: C_1  and  C_34
    3  A    between atoms: N_5  and  C_34
    4  A    between atoms: C_7  and  C_11
    5  A    between atoms: C_8  and  C_18
    6  A    between atoms: C_13  and  C_23
    7  A    between atoms: C_31  and  C_33
                            x       y       z     vdW  Elec       q    Type
                         _______ _______ _______ _____ _____    ______ ____

>  <TORSDO>
F 7

$$$$
=
 OpenBabel10272415163D

 34 38  0  0  1  0  0  0  0  0999 V2000
  188.4610  176.3890  138.2650 N   0  0  2  0  0  0  0  0  0  0  0  0
  188.3290  177.8060  137.8710 C   0  0  2  0  0  3  0  0  0  0  0  0
  189.1980  177.4290  139.0140 C   0  0  1  0  0  3  0  0  0  0  0  0
  189.2340  176.5380  141.3540 C   0  0  0  0  0  2  0  0  0  0  0  0
  188.6080  179.1080  142.3020 O   0  0  0  0  0  0  0  0  0  0  0  0
  191.6100  176.9600  144.4100 C   0  0  1  0  0  3  0  0  0  0  0  0
  190.8970  176.2380  143.2450 C   0  0  0  0  0  2  0  0  0  0  0  0
  190.2540  177.2080  142.2580 C   0  0  2  0  0  3  0  0  0  0  0  0
  190.6060  179.2420  143.7220 C   0  0  0  0  0  2  0  0  0  0  0  0
  189.5770  178.3550  143.0220 C   0  0  1  0  0  3  0  0  0  0  0  0
  191.8680  178.4590  144.1400 C   0  0  0  0  0  2  0  0  0  0  0  0
  188.8300  179.0110  140.9120 C   0  0  0  0  0  2  0  0  0  0  0  0
  188.6010  177.5740  140.4130 C   0  0  1  0  0  3  0  0  0  0  0  0
  190.8850  176.7270  145.7050 C   0  0  0  0  0  0  0  0  0  0  0  0
  191.5080  176.7160  146.7540 O   0  0  0  0  0  0  0  0  0  0  0  0
  189.5370  176.5450  145.7320 F   0  0  0  0  0  0  0  0  0  0  0  0
  188.7450  175.7510  134.9440 C   0  0  0  0  0  2  0  0  0  0  0  0
  188.7640  174.2900  135.3300 C   0  0  1  0  0  3  0  0  0  0  0  0
  189.4080  173.1590  137.3460 O   0  0  0  0  0  1  0  0  0  0  0  0
  188.7370  174.2760  136.8420 C   0  0  1  0  0  3  0  0  0  0  0  0
  189.4630  176.4810  136.0620 C   0  0  0  0  0  2  0  0  0  0  0  0
  189.3300  175.6340  137.3270 C   0  0  1  0  0  0  0  0  0  0  0  0
  186.4280  174.2870  134.4320 O   0  0  0  0  0  0  0  0  0  0  0  0
  187.5770  173.5820  134.7700 C   0  0  0  0  0  0  0  0  0  0  0  0
  187.6160  172.3350  134.6060 O   0  0  0  0  0  1  0  0  0  0  0  0
  190.7070  175.4630  138.0230 C   0  0  0  0  0  2  0  0  0  0  0  0
  192.6420  174.0130  137.2580 C   0  0  0  0  0  3  0  0  0  0  0  0
  194.8560  174.9870  137.2140 C   0  0  0  0  0  2  0  0  0  0  0  0
  193.9260  173.8710  137.2340 N   0  0  0  0  0  0  0  0  0  0  0  0
  192.9390  176.5380  137.3070 C   0  0  0  0  0  2  0  0  0  0  0  0
  191.9750  175.3640  137.1580 C   0  0  2  0  0  3  0  0  0  0  0  0
  194.2370  176.2290  136.5810 C   0  0  0  0  0  2  0  0  0  0  0  0
  186.9820  178.2840  138.2240 C   0  0  0  0  0  0  0  0  0  0  0  0
  185.9230  178.6620  138.5020 N   0  0  0  0  0  0  0  0  0  0  0  0
  1 22  1  6  0  0  0
  1  3  1  0  0  0  0
  2 33  1  1  0  0  0
  2  1  1  0  0  0  0
  2  3  1  0  0  0  0
  3 13  1  1  0  0  0
  5 10  1  0  0  0  0
  6 14  1  1  0  0  0
  7  6  1  0  0  0  0
  8  4  1  1  0  0  0
  8 10  1  0  0  0  0
  8  7  1  0  0  0  0
  9 11  1  0  0  0  0
 10  9  1  6  0  0  0
 11  6  1  0  0  0  0
 12  5  1  0  0  0  0
 13 12  1  1  0  0  0
 13  4  1  0  0  0  0
 14 16  1  0  0  0  0
 14 15  2  0  0  0  0
 17 18  1  0  0  0  0
 17 21  1  0  0  0  0
 18 24  1  6  0  0  0
 18 20  1  0  0  0  0
 20 22  1  0  0  0  0
 20 19  1  1  0  0  0
 21 22  1  0  0  0  0
 22 26  1  1  0  0  0
 23 24  2  0  0  0  0
 25 24  1  0  0  0  0
 28 29  1  0  0  0  0
 29 27  2  0  0  0  0
 31 27  1  0  0  0  0
 31 30  1  0  0  0  0
 31 26  1  1  0  0  0
 32 28  1  0  0  0  0
 32 30  1  0  0  0  0
 33 34  3  0  0  0  0
M  END
>  <MODEL>
8

>  <REMARK>
 VINA RESULT:      -6.0      4.940      8.388
  Name = 
  7 active torsions:
  status: ('A' for Active; 'I' for Inactive)
    1  A    between atoms: C_1  and  C_20
    2  A    between atoms: C_1  and  C_34
    3  A    between atoms: N_5  and  C_34
    4  A    between atoms: C_7  and  C_11
    5  A    between atoms: C_8  and  C_18
    6  A    between atoms: C_13  and  C_23
    7  A    between atoms: C_31  and  C_33
                            x       y       z     vdW  Elec       q    Type
                         _______ _______ _______ _____ _____    ______ ____

>  <TORSDO>
F 7

$$$$
=
 OpenBabel10272415163D

 34 38  0  0  1  0  0  0  0  0999 V2000
  188.3680  178.1550  140.6860 N   0  0  2  0  0  0  0  0  0  0  0  0
  187.2360  177.4810  140.0180 C   0  0  2  0  0  3  0  0  0  0  0  0
  188.6170  176.9620  139.8470 C   0  0  1  0  0  3  0  0  0  0  0  0
  190.8710  177.3630  138.8340 C   0  0  0  0  0  2  0  0  0  0  0  0
  189.8580  176.5380  136.3460 O   0  0  0  0  0  0  0  0  0  0  0  0
  193.6960  175.0740  137.4400 C   0  0  1  0  0  3  0  0  0  0  0  0
  193.0120  176.0750  138.3960 C   0  0  0  0  0  2  0  0  0  0  0  0
  191.4990  176.1300  138.2070 C   0  0  2  0  0  3  0  0  0  0  0  0
  191.5140  174.7450  136.0900 C   0  0  0  0  0  2  0  0  0  0  0  0
  191.1600  176.0960  136.7090 C   0  0  1  0  0  3  0  0  0  0  0  0
  192.7130  174.0730  136.7910 C   0  0  0  0  0  2  0  0  0  0  0  0
  188.9670  176.4200  137.4340 C   0  0  0  0  0  2  0  0  0  0  0  0
  189.3570  177.3750  138.5760 C   0  0  1  0  0  3  0  0  0  0  0  0
  194.5350  175.7940  136.4240 C   0  0  0  0  0  0  0  0  0  0  0  0
  194.5080  177.0130  136.3700 O   0  0  0  0  0  0  0  0  0  0  0  0
  195.3440  175.1100  135.5710 F   0  0  0  0  0  0  0  0  0  0  0  0
  190.4020  178.6060  143.3650 C   0  0  0  0  0  2  0  0  0  0  0  0
  190.2810  177.1160  143.5800 C   0  0  1  0  0  3  0  0  0  0  0  0
  188.5880  175.5270  142.9710 O   0  0  0  0  0  1  0  0  0  0  0  0
  189.3090  176.6380  142.5240 C   0  0  1  0  0  3  0  0  0  0  0  0
  189.0580  179.0560  142.8260 C   0  0  0  0  0  2  0  0  0  0  0  0
  188.4110  177.8530  142.1390 C   0  0  1  0  0  0  0  0  0  0  0  0
  191.9810  175.4120  144.2660 O   0  0  0  0  0  1  0  0  0  0  0  0
  191.6070  176.4510  143.4220 C   0  0  0  0  0  0  0  0  0  0  0  0
  192.3930  176.8370  142.5180 O   0  0  0  0  0  0  0  0  0  0  0  0
  186.9420  177.6750  142.6090 C   0  0  0  0  0  2  0  0  0  0  0  0
  187.0240  177.7410  145.1430 C   0  0  0  0  0  3  0  0  0  0  0  0
  184.9520  178.0770  146.3470 C   0  0  0  0  0  2  0  0  0  0  0  0
  186.3390  177.6590  146.2350 N   0  0  0  0  0  0  0  0  0  0  0  0
  184.9760  178.6680  143.9510 C   0  0  0  0  0  2  0  0  0  0  0  0
  186.4760  178.3840  143.8910 C   0  0  2  0  0  3  0  0  0  0  0  0
  184.6060  179.1660  145.3370 C   0  0  0  0  0  2  0  0  0  0  0  0
  186.7360  178.3350  138.9290 C   0  0  0  0  0  0  0  0  0  0  0  0
  186.3430  179.0070  138.0720 N   0  0  0  0  0  0  0  0  0  0  0  0
  1 22  1  1  0  0  0
  2 33  1  6  0  0  0
  2  1  1  0  0  0  0
  3 13  1  6  0  0  0
  3  2  1  0  0  0  0
  3  1  1  0  0  0  0
  5 10  1  0  0  0  0
  5 12  1  0  0  0  0
  6 14  1  6  0  0  0
  6  7  1  0  0  0  0
  8  7  1  6  0  0  0
  8  4  1  0  0  0  0
  9 11  1  0  0  0  0
 10  9  1  1  0  0  0
 10  8  1  0  0  0  0
 11  6  1  0  0  0  0
 13 12  1  6  0  0  0
 13  4  1  0  0  0  0
 15 14  2  0  0  0  0
 16 14  1  0  0  0  0
 17 18  1  0  0  0  0
 18 24  1  6  0  0  0
 20 19  1  1  0  0  0
 20 18  1  0  0  0  0
 21 17  1  0  0  0  0
 22 20  1  0  0  0  0
 22 26  1  1  0  0  0
 22 21  1  0  0  0  0
 24 23  1  0  0  0  0
 25 24  2  0  0  0  0
 27 29  2  0  0  0  0
 29 28  1  0  0  0  0
 30 32  1  0  0  0  0
 31 26  1  6  0  0  0
 31 30  1  0  0  0  0
 31 27  1  0  0  0  0
 32 28  1  0  0  0  0
 34 33  3  0  0  0  0
M  END
>  <MODEL>
9

>  <REMARK>
 VINA RESULT:      -5.9      4.169      7.598
  Name = 
  7 active torsions:
  status: ('A' for Active; 'I' for Inactive)
    1  A    between atoms: C_1  and  C_20
    2  A    between atoms: C_1  and  C_34
    3  A    between atoms: N_5  and  C_34
    4  A    between atoms: C_7  and  C_11
    5  A    between atoms: C_8  and  C_18
    6  A    between atoms: C_13  and  C_23
    7  A    between atoms: C_31  and  C_33
                            x       y       z     vdW  Elec       q    Type
                         _______ _______ _______ _____ _____    ______ ____

>  <TORSDO>
F 7

$$$$
