=
 OpenBabel10272415313D

 34 41  0  0  1  0  0  0  0  0999 V2000
  190.1990  176.3110  135.4570 C   0  0  2  0  0  3  0  0  0  0  0  0
  192.1430  173.5480  137.2260 C   0  0  0  0  0  3  0  0  0  0  0  0
  189.7350  174.0780  137.1080 C   0  0  0  0  0  2  0  0  0  0  0  0
  188.7020  176.9710  137.3680 C   0  0  2  0  0  3  0  0  0  0  0  0
  189.7010  177.4690  136.3390 C   0  0  0  0  0  2  0  0  0  0  0  0
  187.6710  175.7700  135.3340 C   0  0  1  0  0  3  0  0  0  0  0  0
  186.6350  174.3100  135.1920 S   0  0  0  0  0  0  0  0  0  0  0  0
  187.4330  176.4320  136.7000 C   0  0  0  0  0  2  0  0  0  0  0  0
  189.2890  173.9510  135.7200 N   0  0  2  0  0  0  0  0  0  0  0  0
  189.0940  175.2770  135.1100 C   0  0  2  0  0  3  0  0  0  0  0  0
  188.0110  173.2470  135.7460 C   0  0  0  0  0  2  0  0  0  0  0  0
  193.4500  173.7360  137.4440 C   0  0  0  0  0  3  0  0  0  0  0  0
  194.0620  175.0910  137.6710 C   0  0  2  0  0  3  0  0  0  0  0  0
  193.9240  175.9490  136.4160 C   0  0  0  0  0  2  0  0  0  0  0  0
  191.1480  174.6680  137.1860 C   0  0  2  0  0  3  0  0  0  0  0  0
  192.5560  176.6160  136.3530 C   0  0  0  0  0  2  0  0  0  0  0  0
  191.4530  175.6150  136.0100 C   0  0  2  0  0  3  0  0  0  0  0  0
  195.4720  174.9330  138.0010 N   0  0  0  0  0  0  0  0  0  0  0  0
  195.5740  174.8570  139.4700 C   0  0  0  0  0  2  0  0  0  0  0  0
  195.6160  173.6350  138.6810 C   0  0  0  0  0  2  0  0  0  0  0  0
  188.3700  178.0710  138.3640 C   0  0  0  0  0  2  0  0  0  0  0  0
  190.9150  177.0230  140.9870 C   0  0  0  0  0  3  0  0  0  0  0  0
  188.2280  177.9080  140.8610 C   0  0  0  0  0  3  0  0  0  0  0  0
  191.6280  176.5030  144.0550 C   0  0  0  0  0  3  0  0  0  0  0  0
  189.3610  177.1990  145.5880 N   0  0  0  0  0  0  0  0  0  0  0  0
  190.4870  176.9050  143.5110 C   0  0  0  0  0  0  0  0  0  0  0  0
  190.5330  176.8300  146.2330 O   0  0  0  0  0  0  0  0  0  0  0  0
  190.1440  177.1750  142.1360 C   0  0  0  0  0  0  0  0  0  0  0  0
  191.6480  176.2290  145.5400 C   0  0  0  0  0  2  0  0  0  0  0  0
  188.1790  177.6670  143.4390 C   0  0  0  0  0  2  0  0  0  0  0  0
  188.8240  177.6030  142.0830 C   0  0  0  0  0  0  0  0  0  0  0  0
  189.3170  177.2050  144.2950 C   0  0  0  0  0  0  0  0  0  0  0  0
  188.9920  177.7790  139.6870 C   0  0  0  0  0  0  0  0  0  0  0  0
  190.3250  177.3330  139.7530 C   0  0  0  0  0  3  0  0  0  0  0  0
  1 17  1  0  0  0  0
  1  5  1  1  0  0  0
  2 12  2  0  0  0  0
  3 15  1  0  0  0  0
  4 21  1  1  0  0  0
  5  4  1  0  0  0  0
  6  8  1  1  0  0  0
  7  6  1  0  0  0  0
  7 11  1  0  0  0  0
  8  4  1  0  0  0  0
  9 11  1  1  0  0  0
  9  3  1  0  0  0  0
 10  6  1  0  0  0  0
 10  1  1  0  0  0  0
 10  9  1  0  0  0  0
 12 13  1  0  0  0  0
 13 18  1  0  0  0  0
 14 13  1  0  0  0  0
 15  2  1  0  0  0  0
 16 14  1  0  0  0  0
 17 16  1  0  0  0  0
 17 15  1  0  0  0  0
 18 20  1  0  0  0  0
 18 19  1  0  0  0  0
 20 19  1  0  0  0  0
 21 33  1  0  0  0  0
 22 28  1  0  0  0  0
 23 31  1  0  0  0  0
 24 29  1  0  0  0  0
 25 27  1  0  0  0  0
 26 24  2  0  0  0  0
 26 32  1  0  0  0  0
 28 26  1  0  0  0  0
 29 27  1  0  0  0  0
 30 32  1  0  0  0  0
 31 28  2  0  0  0  0
 31 30  1  0  0  0  0
 32 25  2  0  0  0  0
 33 34  1  0  0  0  0
 33 23  2  0  0  0  0
 34 22  2  0  0  0  0
M  END
>  <MODEL>
1

>  <REMARK>
 VINA RESULT:      -8.0      0.000      0.000
  Name = 
  3 active torsions:
  status: ('A' for Active; 'I' for Inactive)
    1  A    between atoms: N_3  and  C_25
    2  A    between atoms: C_8  and  C_18
    3  A    between atoms: C_18  and  C_30
                            x       y       z     vdW  Elec       q    Type
                         _______ _______ _______ _____ _____    ______ ____

>  <TORSDO>
F 3

$$$$
=
 OpenBabel10272415313D

 34 41  0  0  1  0  0  0  0  0999 V2000
  183.1880  176.4830  135.5890 C   0  0  2  0  0  3  0  0  0  0  0  0
  186.2390  174.8240  137.1630 C   0  0  0  0  0  3  0  0  0  0  0  0
  183.8230  174.6620  137.6400 C   0  0  0  0  0  2  0  0  0  0  0  0
  182.0170  177.1590  137.7120 C   0  0  2  0  0  3  0  0  0  0  0  0
  182.5570  177.6440  136.3780 C   0  0  0  0  0  2  0  0  0  0  0  0
  180.9950  175.2860  136.2660 C   0  0  1  0  0  3  0  0  0  0  0  0
  180.4660  173.6140  136.6560 S   0  0  0  0  0  0  0  0  0  0  0  0
  180.8680  176.1640  137.5210 C   0  0  0  0  0  2  0  0  0  0  0  0
  183.1460  174.0980  136.4710 N   0  0  2  0  0  0  0  0  0  0  0  0
  182.4150  175.1440  135.7360 C   0  0  2  0  0  3  0  0  0  0  0  0
  182.1920  173.1100  136.9660 C   0  0  0  0  0  2  0  0  0  0  0  0
  187.4350  175.3950  136.9740 C   0  0  0  0  0  3  0  0  0  0  0  0
  187.6250  176.8760  136.8000 C   0  0  2  0  0  3  0  0  0  0  0  0
  186.9520  177.3470  135.5130 C   0  0  0  0  0  2  0  0  0  0  0  0
  184.9600  175.6020  137.2240 C   0  0  2  0  0  3  0  0  0  0  0  0
  185.4650  177.5980  135.7290 C   0  0  0  0  0  2  0  0  0  0  0  0
  184.6850  176.2910  135.8740 C   0  0  2  0  0  3  0  0  0  0  0  0
  189.0490  177.1760  136.7440 N   0  0  0  0  0  0  0  0  0  0  0  0
  189.3400  178.1360  137.8240 C   0  0  0  0  0  2  0  0  0  0  0  0
  189.6390  176.7240  138.0150 C   0  0  0  0  0  2  0  0  0  0  0  0
  181.5840  178.3360  138.5700 C   0  0  0  0  0  2  0  0  0  0  0  0
  184.5230  178.0860  140.9710 C   0  0  0  0  0  3  0  0  0  0  0  0
  181.7590  178.7030  141.0440 C   0  0  0  0  0  3  0  0  0  0  0  0
  185.6490  178.2990  143.9500 C   0  0  0  0  0  3  0  0  0  0  0  0
  183.5190  179.1220  145.6110 N   0  0  0  0  0  0  0  0  0  0  0  0
  184.4140  178.4810  143.5000 C   0  0  0  0  0  0  0  0  0  0  0  0
  184.7930  178.9970  146.1470 O   0  0  0  0  0  0  0  0  0  0  0  0
  183.8820  178.4200  142.1610 C   0  0  0  0  0  0  0  0  0  0  0  0
  185.8760  178.3540  145.4420 C   0  0  0  0  0  2  0  0  0  0  0  0
  182.0460  179.0200  143.5980 C   0  0  0  0  0  2  0  0  0  0  0  0
  182.5270  178.7180  142.2070 C   0  0  0  0  0  0  0  0  0  0  0  0
  183.3210  178.8470  144.3620 C   0  0  0  0  0  0  0  0  0  0  0  0
  182.3870  178.3880  139.8260 C   0  0  0  0  0  0  0  0  0  0  0  0
  183.7590  178.0760  139.7940 C   0  0  0  0  0  3  0  0  0  0  0  0
  1 10  1  0  0  0  0
  1 17  1  0  0  0  0
  1  5  1  1  0  0  0
  2 15  1  0  0  0  0
  4 21  1  1  0  0  0
  5  4  1  0  0  0  0
  6  7  1  0  0  0  0
  6  8  1  1  0  0  0
  7 11  1  0  0  0  0
  8  4  1  0  0  0  0
  9 11  1  1  0  0  0
  9  3  1  0  0  0  0
 10  6  1  0  0  0  0
 10  9  1  0  0  0  0
 12  2  2  0  0  0  0
 13 12  1  0  0  0  0
 14 16  1  0  0  0  0
 14 13  1  0  0  0  0
 15  3  1  0  0  0  0
 16 17  1  0  0  0  0
 17 15  1  0  0  0  0
 18 13  1  0  0  0  0
 18 19  1  0  0  0  0
 18 20  1  0  0  0  0
 19 20  1  0  0  0  0
 21 33  1  0  0  0  0
 22 28  1  0  0  0  0
 23 31  1  0  0  0  0
 24 29  1  0  0  0  0
 25 27  1  0  0  0  0
 26 24  2  0  0  0  0
 26 32  1  0  0  0  0
 28 31  2  0  0  0  0
 28 26  1  0  0  0  0
 29 27  1  0  0  0  0
 30 32  1  0  0  0  0
 31 30  1  0  0  0  0
 32 25  2  0  0  0  0
 33 23  2  0  0  0  0
 34 33  1  0  0  0  0
 34 22  2  0  0  0  0
M  END
>  <MODEL>
2

>  <REMARK>
 VINA RESULT:      -8.0      4.687      6.541
  Name = 
  3 active torsions:
  status: ('A' for Active; 'I' for Inactive)
    1  A    between atoms: N_3  and  C_25
    2  A    between atoms: C_8  and  C_18
    3  A    between atoms: C_18  and  C_30
                            x       y       z     vdW  Elec       q    Type
                         _______ _______ _______ _____ _____    ______ ____

>  <TORSDO>
F 3

$$$$
=
 OpenBabel10272415313D

 34 41  0  0  1  0  0  0  0  0999 V2000
  186.7850  176.7830  135.3820 C   0  0  2  0  0  3  0  0  0  0  0  0
  189.1450  174.1070  136.7280 C   0  0  0  0  0  3  0  0  0  0  0  0
  186.7710  174.6110  137.1730 C   0  0  0  0  0  2  0  0  0  0  0  0
  185.7780  177.5020  137.5730 C   0  0  2  0  0  3  0  0  0  0  0  0
  186.4920  177.9700  136.3170 C   0  0  0  0  0  2  0  0  0  0  0  0
  184.3110  176.2160  135.8880 C   0  0  1  0  0  3  0  0  0  0  0  0
  183.2980  174.7420  136.0510 S   0  0  0  0  0  0  0  0  0  0  0  0
  184.3960  176.9260  137.2480 C   0  0  0  0  0  2  0  0  0  0  0  0
  186.0070  174.4270  135.9380 N   0  0  2  0  0  0  0  0  0  0  0  0
  185.6480  175.7270  135.3470 C   0  0  2  0  0  3  0  0  0  0  0  0
  184.7850  173.7130  136.2950 C   0  0  0  0  0  2  0  0  0  0  0  0
  190.4630  174.3150  136.6180 C   0  0  0  0  0  3  0  0  0  0  0  0
  191.0880  175.6830  136.6440 C   0  0  2  0  0  3  0  0  0  0  0  0
  190.6370  176.4910  135.4300 C   0  0  0  0  0  2  0  0  0  0  0  0
  188.1500  175.2160  136.8880 C   0  0  2  0  0  3  0  0  0  0  0  0
  189.2820  177.1430  135.6740 C   0  0  0  0  0  2  0  0  0  0  0  0
  188.1470  176.1200  135.6410 C   0  0  2  0  0  3  0  0  0  0  0  0
  192.5380  175.5500  136.6310 N   0  0  0  0  0  0  0  0  0  0  0  0
  193.0420  176.1060  137.9000 C   0  0  0  0  0  2  0  0  0  0  0  0
  192.9030  174.6660  137.7500 C   0  0  0  0  0  2  0  0  0  0  0  0
  185.6750  178.6360  138.5790 C   0  0  0  0  0  2  0  0  0  0  0  0
  187.0200  178.4270  142.1300 C   0  0  0  0  0  3  0  0  0  0  0  0
  187.9310  178.0150  139.4800 C   0  0  0  0  0  3  0  0  0  0  0  0
  189.4610  177.8380  144.1020 C   0  0  0  0  0  3  0  0  0  0  0  0
  191.6540  177.0180  142.5250 N   0  0  0  0  0  0  0  0  0  0  0  0
  189.4180  177.7950  142.7770 C   0  0  0  0  0  0  0  0  0  0  0  0
  191.7620  176.9940  143.9080 O   0  0  0  0  0  0  0  0  0  0  0  0
  188.3270  178.0270  141.8620 C   0  0  0  0  0  0  0  0  0  0  0  0
  190.7940  177.6200  144.7770 C   0  0  0  0  0  2  0  0  0  0  0  0
  190.2310  177.4280  140.5150 C   0  0  0  0  0  2  0  0  0  0  0  0
  188.7830  177.8290  140.5660 C   0  0  0  0  0  0  0  0  0  0  0  0
  190.5570  177.4290  141.9760 C   0  0  0  0  0  0  0  0  0  0  0  0
  186.6010  178.4010  139.7240 C   0  0  0  0  0  0  0  0  0  0  0  0
  186.1540  178.6110  141.0420 C   0  0  0  0  0  3  0  0  0  0  0  0
  1 17  1  0  0  0  0
  1  5  1  1  0  0  0
  2 15  1  0  0  0  0
  4 21  1  1  0  0  0
  5  4  1  0  0  0  0
  6  7  1  0  0  0  0
  6  8  1  1  0  0  0
  7 11  1  0  0  0  0
  8  4  1  0  0  0  0
  9 11  1  1  0  0  0
  9  3  1  0  0  0  0
 10  1  1  0  0  0  0
 10  6  1  0  0  0  0
 10  9  1  0  0  0  0
 12 13  1  0  0  0  0
 12  2  2  0  0  0  0
 14 16  1  0  0  0  0
 14 13  1  0  0  0  0
 15  3  1  0  0  0  0
 17 16  1  0  0  0  0
 17 15  1  0  0  0  0
 18 13  1  0  0  0  0
 18 20  1  0  0  0  0
 18 19  1  0  0  0  0
 20 19  1  0  0  0  0
 21 33  1  0  0  0  0
 23 33  2  0  0  0  0
 23 31  1  0  0  0  0
 24 29  1  0  0  0  0
 25 27  1  0  0  0  0
 26 24  2  0  0  0  0
 27 29  1  0  0  0  0
 28 22  1  0  0  0  0
 28 26  1  0  0  0  0
 30 31  1  0  0  0  0
 30 32  1  0  0  0  0
 31 28  2  0  0  0  0
 32 25  2  0  0  0  0
 32 26  1  0  0  0  0
 33 34  1  0  0  0  0
 34 22  2  0  0  0  0
M  END
>  <MODEL>
3

>  <REMARK>
 VINA RESULT:      -7.8      2.028      3.104
  Name = 
  3 active torsions:
  status: ('A' for Active; 'I' for Inactive)
    1  A    between atoms: N_3  and  C_25
    2  A    between atoms: C_8  and  C_18
    3  A    between atoms: C_18  and  C_30
                            x       y       z     vdW  Elec       q    Type
                         _______ _______ _______ _____ _____    ______ ____

>  <TORSDO>
F 3

$$$$
=
 OpenBabel10272415313D

 34 41  0  0  1  0  0  0  0  0999 V2000
  187.6880  176.5950  145.4950 C   0  0  2  0  0  3  0  0  0  0  0  0
  190.6310  178.1910  143.6680 C   0  0  0  0  0  3  0  0  0  0  0  0
  189.4450  178.7800  145.7510 C   0  0  0  0  0  2  0  0  0  0  0  0
  186.3700  178.6910  145.9420 C   0  0  2  0  0  3  0  0  0  0  0  0
  186.3270  177.2970  145.3430 C   0  0  0  0  0  2  0  0  0  0  0  0
  187.4830  177.4720  147.9210 C   0  0  1  0  0  3  0  0  0  0  0  0
  188.5850  178.0380  149.2220 S   0  0  0  0  0  0  0  0  0  0  0  0
  186.6030  178.6420  147.4550 C   0  0  0  0  0  2  0  0  0  0  0  0
  189.6240  177.6990  146.7200 N   0  0  2  0  0  0  0  0  0  0  0  0
  188.3930  176.8990  146.8440 C   0  0  2  0  0  3  0  0  0  0  0  0
  189.9160  178.3230  148.0070 C   0  0  0  0  0  2  0  0  0  0  0  0
  190.8020  177.9000  142.3730 C   0  0  0  0  0  3  0  0  0  0  0  0
  189.6660  177.5800  141.4410 C   0  0  2  0  0  3  0  0  0  0  0  0
  188.9830  176.2840  141.8690 C   0  0  0  0  0  2  0  0  0  0  0  0
  189.2860  178.2310  144.3290 C   0  0  2  0  0  3  0  0  0  0  0  0
  187.9620  176.5360  142.9700 C   0  0  0  0  0  2  0  0  0  0  0  0
  188.6360  176.8350  144.3090 C   0  0  2  0  0  3  0  0  0  0  0  0
  190.1810  177.4370  140.0860 N   0  0  0  0  0  0  0  0  0  0  0  0
  189.0550  177.0210  139.2300 C   0  0  0  0  0  2  0  0  0  0  0  0
  189.4700  178.4160  139.2460 C   0  0  0  0  0  2  0  0  0  0  0  0
  185.0970  179.4530  145.6100 C   0  0  0  0  0  2  0  0  0  0  0  0
  182.8970  178.5080  142.6560 C   0  0  0  0  0  3  0  0  0  0  0  0
  185.6050  179.1570  143.1730 C   0  0  0  0  0  3  0  0  0  0  0  0
  182.6170  177.9060  139.5330 C   0  0  0  0  0  3  0  0  0  0  0  0
  185.1480  178.3240  138.3530 N   0  0  0  0  0  0  0  0  0  0  0  0
  183.6940  178.2320  140.2360 C   0  0  0  0  0  0  0  0  0  0  0  0
  184.0590  178.0290  137.5450 O   0  0  0  0  0  0  0  0  0  0  0  0
  183.8460  178.5360  141.6380 C   0  0  0  0  0  0  0  0  0  0  0  0
  182.7990  177.5640  138.0740 C   0  0  0  0  0  2  0  0  0  0  0  0
  186.0250  178.7890  140.6440 C   0  0  0  0  0  2  0  0  0  0  0  0
  185.1770  178.8470  141.8830 C   0  0  0  0  0  0  0  0  0  0  0  0
  184.9930  178.3890  139.6360 C   0  0  0  0  0  0  0  0  0  0  0  0
  184.6610  179.1540  144.2150 C   0  0  0  0  0  0  0  0  0  0  0  0
  183.3180  178.8250  143.9560 C   0  0  0  0  0  3  0  0  0  0  0  0
  1  5  1  6  0  0  0
  1 10  1  0  0  0  0
  2 15  1  0  0  0  0
  4 21  1  1  0  0  0
  4  8  1  0  0  0  0
  5  4  1  0  0  0  0
  6  8  1  6  0  0  0
  6  7  1  0  0  0  0
  9  3  1  6  0  0  0
  9 10  1  0  0  0  0
  9 11  1  0  0  0  0
 10  6  1  0  0  0  0
 11  7  1  0  0  0  0
 12  2  2  0  0  0  0
 13 14  1  0  0  0  0
 13 12  1  0  0  0  0
 14 16  1  0  0  0  0
 15  3  1  0  0  0  0
 16 17  1  0  0  0  0
 17 15  1  0  0  0  0
 17  1  1  0  0  0  0
 18 13  1  0  0  0  0
 19 20  1  0  0  0  0
 19 18  1  0  0  0  0
 20 18  1  0  0  0  0
 22 34  1  0  0  0  0
 23 33  1  0  0  0  0
 24 26  2  0  0  0  0
 25 32  2  0  0  0  0
 26 28  1  0  0  0  0
 27 29  1  0  0  0  0
 27 25  1  0  0  0  0
 28 31  1  0  0  0  0
 28 22  2  0  0  0  0
 29 24  1  0  0  0  0
 30 31  1  0  0  0  0
 31 23  2  0  0  0  0
 32 26  1  0  0  0  0
 32 30  1  0  0  0  0
 33 21  1  0  0  0  0
 34 33  2  0  0  0  0
M  END
>  <MODEL>
4

>  <REMARK>
 VINA RESULT:      -7.8      4.917      9.002
  Name = 
  3 active torsions:
  status: ('A' for Active; 'I' for Inactive)
    1  A    between atoms: N_3  and  C_25
    2  A    between atoms: C_8  and  C_18
    3  A    between atoms: C_18  and  C_30
                            x       y       z     vdW  Elec       q    Type
                         _______ _______ _______ _____ _____    ______ ____

>  <TORSDO>
F 3

$$$$
=
 OpenBabel10272415313D

 34 41  0  0  1  0  0  0  0  0999 V2000
  183.6220  178.8350  138.1480 C   0  0  2  0  0  3  0  0  0  0  0  0
  185.4990  175.6630  137.1690 C   0  0  0  0  0  3  0  0  0  0  0  0
  183.4790  176.0500  138.5320 C   0  0  0  0  0  2  0  0  0  0  0  0
  183.3320  178.3340  140.5970 C   0  0  2  0  0  3  0  0  0  0  0  0
  183.8410  179.3440  139.5840 C   0  0  0  0  0  2  0  0  0  0  0  0
  181.2610  178.3020  139.0640 C   0  0  1  0  0  3  0  0  0  0  0  0
  179.9820  177.0710  138.7900 S   0  0  0  0  0  0  0  0  0  0  0  0
  181.8160  178.1500  140.4890 C   0  0  0  0  0  2  0  0  0  0  0  0
  182.4380  176.6330  137.6840 N   0  0  2  0  0  0  0  0  0  0  0  0
  182.2840  178.0710  137.9610 C   0  0  2  0  0  3  0  0  0  0  0  0
  181.1900  175.9490  138.0080 C   0  0  0  0  0  2  0  0  0  0  0  0
  186.7700  175.7820  136.7650 C   0  0  0  0  0  3  0  0  0  0  0  0
  187.6980  176.8560  137.2620 C   0  0  2  0  0  3  0  0  0  0  0  0
  187.1990  178.2300  136.8210 C   0  0  0  0  0  2  0  0  0  0  0  0
  184.8650  176.5890  138.1620 C   0  0  2  0  0  3  0  0  0  0  0  0
  186.1320  178.7600  137.7710 C   0  0  0  0  0  2  0  0  0  0  0  0
  184.8050  178.0220  137.6000 C   0  0  2  0  0  3  0  0  0  0  0  0
  189.0320  176.6260  136.7260 N   0  0  0  0  0  0  0  0  0  0  0  0
  189.9760  176.6790  137.8570 C   0  0  0  0  0  2  0  0  0  0  0  0
  189.5410  175.3900  137.3430 C   0  0  0  0  0  2  0  0  0  0  0  0
  183.7340  178.7430  142.0050 C   0  0  0  0  0  2  0  0  0  0  0  0
  187.4660  178.4130  141.3510 C   0  0  0  0  0  3  0  0  0  0  0  0
  185.6320  178.0200  143.4740 C   0  0  0  0  0  3  0  0  0  0  0  0
  190.3740  177.6400  142.4170 C   0  0  0  0  0  3  0  0  0  0  0  0
  190.1220  176.9230  145.1370 N   0  0  0  0  0  0  0  0  0  0  0  0
  189.2060  177.5980  143.0460 C   0  0  0  0  0  0  0  0  0  0  0  0
  191.3840  176.9870  144.5620 O   0  0  0  0  0  0  0  0  0  0  0  0
  187.8840  177.9660  142.6010 C   0  0  0  0  0  0  0  0  0  0  0  0
  191.5870  177.1020  143.1380 C   0  0  0  0  0  2  0  0  0  0  0  0
  187.6600  177.2530  144.8910 C   0  0  0  0  0  2  0  0  0  0  0  0
  186.9920  177.7650  143.6450 C   0  0  0  0  0  0  0  0  0  0  0  0
  189.0780  177.1780  144.4170 C   0  0  0  0  0  0  0  0  0  0  0  0
  185.1870  178.4900  142.2250 C   0  0  0  0  0  0  0  0  0  0  0  0
  186.1000  178.6790  141.1710 C   0  0  0  0  0  3  0  0  0  0  0  0
  1  5  1  1  0  0  0
  2 15  1  0  0  0  0
  4 21  1  1  0  0  0
  5  4  1  0  0  0  0
  6  8  1  1  0  0  0
  7  6  1  0  0  0  0
  8  4  1  0  0  0  0
  9 10  1  0  0  0  0
  9 11  1  1  0  0  0
  9  3  1  0  0  0  0
 10  1  1  0  0  0  0
 10  6  1  0  0  0  0
 11  7  1  0  0  0  0
 12  2  2  0  0  0  0
 12 13  1  0  0  0  0
 14 13  1  0  0  0  0
 14 16  1  0  0  0  0
 15  3  1  0  0  0  0
 17 16  1  0  0  0  0
 17  1  1  0  0  0  0
 17 15  1  0  0  0  0
 18 13  1  0  0  0  0
 18 20  1  0  0  0  0
 18 19  1  0  0  0  0
 20 19  1  0  0  0  0
 21 33  1  0  0  0  0
 22 28  1  0  0  0  0
 23 31  1  0  0  0  0
 24 26  2  0  0  0  0
 24 29  1  0  0  0  0
 26 32  1  0  0  0  0
 27 25  1  0  0  0  0
 28 26  1  0  0  0  0
 28 31  2  0  0  0  0
 29 27  1  0  0  0  0
 31 30  1  0  0  0  0
 32 30  1  0  0  0  0
 32 25  2  0  0  0  0
 33 23  2  0  0  0  0
 34 22  2  0  0  0  0
 34 33  1  0  0  0  0
M  END
>  <MODEL>
5

>  <REMARK>
 VINA RESULT:      -7.8      3.742      5.807
  Name = 
  3 active torsions:
  status: ('A' for Active; 'I' for Inactive)
    1  A    between atoms: N_3  and  C_25
    2  A    between atoms: C_8  and  C_18
    3  A    between atoms: C_18  and  C_30
                            x       y       z     vdW  Elec       q    Type
                         _______ _______ _______ _____ _____    ______ ____

>  <TORSDO>
F 3

$$$$
=
 OpenBabel10272415313D

 34 41  0  0  1  0  0  0  0  0999 V2000
  187.6560  176.6000  145.1530 C   0  0  2  0  0  3  0  0  0  0  0  0
  190.8920  178.0910  143.7940 C   0  0  0  0  0  3  0  0  0  0  0  0
  189.4220  178.7310  145.6710 C   0  0  0  0  0  2  0  0  0  0  0  0
  186.3520  178.7400  145.3910 C   0  0  2  0  0  3  0  0  0  0  0  0
  186.3570  177.3440  144.7940 C   0  0  0  0  0  2  0  0  0  0  0  0
  187.1110  177.4980  147.5190 C   0  0  1  0  0  3  0  0  0  0  0  0
  188.0190  178.0380  148.9710 S   0  0  0  0  0  0  0  0  0  0  0  0
  186.3500  178.6930  146.9220 C   0  0  0  0  0  2  0  0  0  0  0  0
  189.4160  177.6500  146.6580 N   0  0  2  0  0  0  0  0  0  0  0  0
  188.1560  176.8900  146.5940 C   0  0  2  0  0  3  0  0  0  0  0  0
  189.5290  178.2730  147.9740 C   0  0  0  0  0  2  0  0  0  0  0  0
  191.2500  177.7860  142.5410 C   0  0  0  0  0  3  0  0  0  0  0  0
  190.2590  177.4960  141.4470 C   0  0  2  0  0  3  0  0  0  0  0  0
  189.4770  176.2250  141.7670 C   0  0  0  0  0  2  0  0  0  0  0  0
  189.4640  178.1770  144.2420 C   0  0  2  0  0  3  0  0  0  0  0  0
  188.3090  176.5170  142.7000 C   0  0  0  0  0  2  0  0  0  0  0  0
  188.7800  176.8020  144.1260 C   0  0  2  0  0  3  0  0  0  0  0  0
  190.9700  177.3290  140.1870 N   0  0  0  0  0  0  0  0  0  0  0  0
  190.1020  176.5380  139.2950 C   0  0  0  0  0  2  0  0  0  0  0  0
  190.1640  177.9840  139.1440 C   0  0  0  0  0  2  0  0  0  0  0  0
  185.1700  179.5380  144.8670 C   0  0  0  0  0  2  0  0  0  0  0  0
  185.5850  178.8430  141.1510 C   0  0  0  0  0  3  0  0  0  0  0  0
  183.5430  178.7880  143.1140 C   0  0  0  0  0  3  0  0  0  0  0  0
  184.2850  177.9780  138.3670 C   0  0  0  0  0  3  0  0  0  0  0  0
  181.5700  177.3670  138.8460 N   0  0  0  0  0  0  0  0  0  0  0  0
  183.7150  178.1150  139.5570 C   0  0  0  0  0  0  0  0  0  0  0  0
  182.1040  177.1550  137.5820 O   0  0  0  0  0  0  0  0  0  0  0  0
  184.2800  178.4760  140.8350 C   0  0  0  0  0  0  0  0  0  0  0  0
  183.3960  177.6630  137.1870 C   0  0  0  0  0  2  0  0  0  0  0  0
  181.9400  178.0540  141.2170 C   0  0  0  0  0  2  0  0  0  0  0  0
  183.2720  178.4520  141.7890 C   0  0  0  0  0  0  0  0  0  0  0  0
  182.3180  177.8550  139.7820 C   0  0  0  0  0  0  0  0  0  0  0  0
  184.8580  179.1450  143.4630 C   0  0  0  0  0  0  0  0  0  0  0  0
  185.8690  179.1770  142.4840 C   0  0  0  0  0  3  0  0  0  0  0  0
  1  5  1  6  0  0  0
  1 10  1  0  0  0  0
  2 15  1  0  0  0  0
  4 21  1  6  0  0  0
  4  8  1  0  0  0  0
  5  4  1  0  0  0  0
  6  8  1  6  0  0  0
  6  7  1  0  0  0  0
  9  3  1  6  0  0  0
  9 11  1  0  0  0  0
 10  9  1  0  0  0  0
 10  6  1  0  0  0  0
 11  7  1  0  0  0  0
 12  2  2  0  0  0  0
 13 14  1  0  0  0  0
 13 12  1  0  0  0  0
 14 16  1  0  0  0  0
 15  3  1  0  0  0  0
 16 17  1  0  0  0  0
 17 15  1  0  0  0  0
 17  1  1  0  0  0  0
 18 13  1  0  0  0  0
 19 18  1  0  0  0  0
 20 19  1  0  0  0  0
 20 18  1  0  0  0  0
 22 34  1  0  0  0  0
 23 33  1  0  0  0  0
 24 26  2  0  0  0  0
 25 32  2  0  0  0  0
 26 32  1  0  0  0  0
 26 28  1  0  0  0  0
 27 25  1  0  0  0  0
 28 22  2  0  0  0  0
 28 31  1  0  0  0  0
 29 27  1  0  0  0  0
 29 24  1  0  0  0  0
 30 31  1  0  0  0  0
 31 23  2  0  0  0  0
 32 30  1  0  0  0  0
 33 21  1  0  0  0  0
 34 33  2  0  0  0  0
M  END
>  <MODEL>
6

>  <REMARK>
 VINA RESULT:      -7.7      4.820      8.871
  Name = 
  3 active torsions:
  status: ('A' for Active; 'I' for Inactive)
    1  A    between atoms: N_3  and  C_25
    2  A    between atoms: C_8  and  C_18
    3  A    between atoms: C_18  and  C_30
                            x       y       z     vdW  Elec       q    Type
                         _______ _______ _______ _____ _____    ______ ____

>  <TORSDO>
F 3

$$$$
=
 OpenBabel10272415313D

 34 41  0  0  1  0  0  0  0  0999 V2000
  181.3290  178.8070  139.3100 C   0  0  2  0  0  3  0  0  0  0  0  0
  180.4760  180.2200  135.8720 C   0  0  0  0  0  3  0  0  0  0  0  0
  181.8270  178.2830  136.5880 C   0  0  0  0  0  2  0  0  0  0  0  0
  183.7970  178.4710  138.9520 C   0  0  2  0  0  3  0  0  0  0  0  0
  182.7420  179.1060  139.8410 C   0  0  0  0  0  2  0  0  0  0  0  0
  182.2720  176.4020  139.1450 C   0  0  1  0  0  3  0  0  0  0  0  0
  182.0520  174.9630  138.0930 S   0  0  0  0  0  0  0  0  0  0  0  0
  183.7000  176.9430  138.9760 C   0  0  0  0  0  2  0  0  0  0  0  0
  180.9580  177.3270  137.2750 N   0  0  2  0  0  0  0  0  0  0  0  0
  181.1760  177.3740  138.7310 C   0  0  2  0  0  3  0  0  0  0  0  0
  181.3140  175.9990  136.7850 C   0  0  0  0  0  2  0  0  0  0  0  0
  180.0640  181.4920  135.7970 C   0  0  0  0  0  3  0  0  0  0  0  0
  180.5150  182.5630  136.7520 C   0  0  2  0  0  3  0  0  0  0  0  0
  180.0190  182.2550  138.1620 C   0  0  0  0  0  2  0  0  0  0  0  0
  181.4320  179.7280  136.9160 C   0  0  2  0  0  3  0  0  0  0  0  0
  180.9480  181.2800  138.8720 C   0  0  0  0  0  2  0  0  0  0  0  0
  180.8110  179.8610  138.3190 C   0  0  2  0  0  3  0  0  0  0  0  0
  179.9850  183.8480  136.3170 N   0  0  0  0  0  0  0  0  0  0  0  0
  181.1100  184.8000  136.2860 C   0  0  0  0  0  2  0  0  0  0  0  0
  180.6520  184.1870  135.0490 C   0  0  0  0  0  2  0  0  0  0  0  0
  185.1850  178.9370  139.3590 C   0  0  0  0  0  2  0  0  0  0  0  0
  184.5790  178.8120  143.1100 C   0  0  0  0  0  3  0  0  0  0  0  0
  186.6570  178.2530  141.2690 C   0  0  0  0  0  3  0  0  0  0  0  0
  185.6820  178.1960  146.0420 C   0  0  0  0  0  3  0  0  0  0  0  0
  188.3160  177.2150  145.7740 N   0  0  0  0  0  0  0  0  0  0  0  0
  186.2990  178.1000  144.8710 C   0  0  0  0  0  0  0  0  0  0  0  0
  187.7230  177.2420  147.0290 O   0  0  0  0  0  0  0  0  0  0  0  0
  185.8200  178.3440  143.5330 C   0  0  0  0  0  0  0  0  0  0  0  0
  186.4910  177.9460  147.2930 C   0  0  0  0  0  2  0  0  0  0  0  0
  188.1030  177.6070  143.3180 C   0  0  0  0  0  2  0  0  0  0  0  0
  186.8460  178.0730  142.6380 C   0  0  0  0  0  0  0  0  0  0  0  0
  187.6610  177.6520  144.7480 C   0  0  0  0  0  0  0  0  0  0  0  0
  185.4060  178.7080  140.8150 C   0  0  0  0  0  0  0  0  0  0  0  0
  184.3780  178.9910  141.7340 C   0  0  0  0  0  3  0  0  0  0  0  0
  1  5  1  6  0  0  0
  2 15  1  0  0  0  0
  3 15  1  0  0  0  0
  4  8  1  0  0  0  0
  4 21  1  1  0  0  0
  4  5  1  0  0  0  0
  6  8  1  6  0  0  0
  7  6  1  0  0  0  0
  9  3  1  6  0  0  0
  9 10  1  0  0  0  0
 10  6  1  0  0  0  0
 10  1  1  0  0  0  0
 11  9  1  0  0  0  0
 11  7  1  0  0  0  0
 12  2  2  0  0  0  0
 12 13  1  0  0  0  0
 13 14  1  0  0  0  0
 14 16  1  0  0  0  0
 15 17  1  0  0  0  0
 17 16  1  0  0  0  0
 17  1  1  0  0  0  0
 18 13  1  0  0  0  0
 19 18  1  0  0  0  0
 20 19  1  0  0  0  0
 20 18  1  0  0  0  0
 21 33  1  0  0  0  0
 22 28  1  0  0  0  0
 23 31  1  0  0  0  0
 24 29  1  0  0  0  0
 25 27  1  0  0  0  0
 26 24  2  0  0  0  0
 27 29  1  0  0  0  0
 28 26  1  0  0  0  0
 30 32  1  0  0  0  0
 31 30  1  0  0  0  0
 31 28  2  0  0  0  0
 32 26  1  0  0  0  0
 32 25  2  0  0  0  0
 33 23  2  0  0  0  0
 33 34  1  0  0  0  0
 34 22  2  0  0  0  0
M  END
>  <MODEL>
7

>  <REMARK>
 VINA RESULT:      -7.4      6.368      9.620
  Name = 
  3 active torsions:
  status: ('A' for Active; 'I' for Inactive)
    1  A    between atoms: N_3  and  C_25
    2  A    between atoms: C_8  and  C_18
    3  A    between atoms: C_18  and  C_30
                            x       y       z     vdW  Elec       q    Type
                         _______ _______ _______ _____ _____    ______ ____

>  <TORSDO>
F 3

$$$$
=
 OpenBabel10272415313D

 34 41  0  0  1  0  0  0  0  0999 V2000
  188.9870  176.2630  135.1950 C   0  0  2  0  0  3  0  0  0  0  0  0
  191.0460  173.3400  136.5220 C   0  0  0  0  0  3  0  0  0  0  0  0
  188.9490  174.3880  137.2950 C   0  0  0  0  0  2  0  0  0  0  0  0
  188.6080  177.4500  137.3800 C   0  0  2  0  0  3  0  0  0  0  0  0
  189.1170  177.5930  135.9570 C   0  0  0  0  0  2  0  0  0  0  0  0
  186.6120  176.3010  136.2220 C   0  0  1  0  0  3  0  0  0  0  0  0
  185.4030  175.1080  136.8060 S   0  0  0  0  0  0  0  0  0  0  0  0
  187.1070  177.1440  137.4080 C   0  0  0  0  0  2  0  0  0  0  0  0
  187.9250  174.2150  136.2640 N   0  0  2  0  0  0  0  0  0  0  0  0
  187.6940  175.4760  135.5390 C   0  0  2  0  0  3  0  0  0  0  0  0
  186.6940  173.8270  136.9470 C   0  0  0  0  0  2  0  0  0  0  0  0
  192.3270  173.2490  136.1460 C   0  0  0  0  0  3  0  0  0  0  0  0
  193.1830  174.4450  135.8320 C   0  0  2  0  0  3  0  0  0  0  0  0
  192.6440  175.1700  134.6010 C   0  0  0  0  0  2  0  0  0  0  0  0
  190.3260  174.6460  136.6720 C   0  0  2  0  0  3  0  0  0  0  0  0
  191.5130  176.1200  134.9720 C   0  0  0  0  0  2  0  0  0  0  0  0
  190.2290  175.3650  135.3130 C   0  0  2  0  0  3  0  0  0  0  0  0
  194.5490  174.0070  135.5830 N   0  0  0  0  0  0  0  0  0  0  0  0
  195.3490  174.3630  136.7690 C   0  0  0  0  0  2  0  0  0  0  0  0
  194.8750  172.9970  136.6030 C   0  0  0  0  0  2  0  0  0  0  0  0
  188.9260  178.6980  138.1870 C   0  0  0  0  0  2  0  0  0  0  0  0
  189.6560  177.6420  141.7660 C   0  0  0  0  0  3  0  0  0  0  0  0
  187.4940  178.6570  140.2440 C   0  0  0  0  0  3  0  0  0  0  0  0
  188.6310  177.2280  144.7610 C   0  0  0  0  0  3  0  0  0  0  0  0
  185.9500  178.1070  144.8740 N   0  0  0  0  0  0  0  0  0  0  0  0
  187.9700  177.6620  143.6960 C   0  0  0  0  0  0  0  0  0  0  0  0
  186.5870  177.7080  146.0420 O   0  0  0  0  0  0  0  0  0  0  0  0
  188.4120  177.8860  142.3410 C   0  0  0  0  0  0  0  0  0  0  0  0
  187.8560  177.0210  146.0410 C   0  0  0  0  0  2  0  0  0  0  0  0
  186.0940  178.5360  142.4200 C   0  0  0  0  0  2  0  0  0  0  0  0
  187.3450  178.3770  141.6010 C   0  0  0  0  0  0  0  0  0  0  0  0
  186.5860  178.0560  143.7490 C   0  0  0  0  0  0  0  0  0  0  0  0
  188.7460  178.4360  139.6440 C   0  0  0  0  0  0  0  0  0  0  0  0
  189.8170  177.9270  140.4020 C   0  0  0  0  0  3  0  0  0  0  0  0
  1 17  1  0  0  0  0
  1 10  1  0  0  0  0
  1  5  1  1  0  0  0
  2 15  1  0  0  0  0
  4  8  1  0  0  0  0
  4 21  1  1  0  0  0
  5  4  1  0  0  0  0
  6  7  1  0  0  0  0
  6  8  1  1  0  0  0
  7 11  1  0  0  0  0
  9 11  1  1  0  0  0
  9  3  1  0  0  0  0
 10  6  1  0  0  0  0
 10  9  1  0  0  0  0
 12  2  2  0  0  0  0
 13 12  1  0  0  0  0
 14 16  1  0  0  0  0
 14 13  1  0  0  0  0
 15  3  1  0  0  0  0
 16 17  1  0  0  0  0
 17 15  1  0  0  0  0
 18 13  1  0  0  0  0
 18 20  1  0  0  0  0
 18 19  1  0  0  0  0
 20 19  1  0  0  0  0
 21 33  1  0  0  0  0
 22 28  1  0  0  0  0
 23 31  1  0  0  0  0
 24 29  1  0  0  0  0
 25 27  1  0  0  0  0
 26 32  1  0  0  0  0
 26 24  2  0  0  0  0
 28 26  1  0  0  0  0
 29 27  1  0  0  0  0
 30 32  1  0  0  0  0
 31 28  2  0  0  0  0
 31 30  1  0  0  0  0
 32 25  2  0  0  0  0
 33 23  2  0  0  0  0
 33 34  1  0  0  0  0
 34 22  2  0  0  0  0
M  END
>  <MODEL>
8

>  <REMARK>
 VINA RESULT:      -7.0      1.820      2.099
  Name = 
  3 active torsions:
  status: ('A' for Active; 'I' for Inactive)
    1  A    between atoms: N_3  and  C_25
    2  A    between atoms: C_8  and  C_18
    3  A    between atoms: C_18  and  C_30
                            x       y       z     vdW  Elec       q    Type
                         _______ _______ _______ _____ _____    ______ ____

>  <TORSDO>
F 3

$$$$
=
 OpenBabel10272415313D

 34 41  0  0  1  0  0  0  0  0999 V2000
  190.0970  176.9900  135.6660 C   0  0  2  0  0  3  0  0  0  0  0  0
  190.2140  176.4250  139.4360 C   0  0  0  0  0  3  0  0  0  0  0  0
  190.4190  174.8910  137.5140 C   0  0  0  0  0  2  0  0  0  0  0  0
  188.5490  175.0980  135.0720 C   0  0  2  0  0  3  0  0  0  0  0  0
  188.7920  176.5920  134.9550 C   0  0  0  0  0  2  0  0  0  0  0  0
  191.0240  174.9530  134.3670 C   0  0  1  0  0  3  0  0  0  0  0  0
  192.2750  173.6860  134.6090 S   0  0  0  0  0  0  0  0  0  0  0  0
  189.6340  174.2970  134.3460 C   0  0  0  0  0  2  0  0  0  0  0  0
  191.6090  175.2520  136.7440 N   0  0  2  0  0  0  0  0  0  0  0  0
  191.2350  175.9480  135.5000 C   0  0  2  0  0  3  0  0  0  0  0  0
  192.2930  174.0080  136.4050 C   0  0  0  0  0  2  0  0  0  0  0  0
  189.6800  177.3610  140.2310 C   0  0  0  0  0  3  0  0  0  0  0  0
  188.5160  178.2230  139.8250 C   0  0  2  0  0  3  0  0  0  0  0  0
  188.9100  179.1260  138.6580 C   0  0  0  0  0  2  0  0  0  0  0  0
  189.7080  176.1360  138.0550 C   0  0  2  0  0  3  0  0  0  0  0  0
  188.7860  178.3930  137.3290 C   0  0  0  0  0  2  0  0  0  0  0  0
  189.9000  177.3630  137.1440 C   0  0  2  0  0  3  0  0  0  0  0  0
  188.1050  179.0410  140.9580 N   0  0  0  0  0  0  0  0  0  0  0  0
  186.7050  178.6950  141.2650 C   0  0  0  0  0  2  0  0  0  0  0  0
  187.7790  178.1220  142.0610 C   0  0  0  0  0  2  0  0  0  0  0  0
  187.1660  174.7410  134.5510 C   0  0  0  0  0  2  0  0  0  0  0  0
  184.0940  174.4230  136.7690 C   0  0  0  0  0  3  0  0  0  0  0  0
  186.1570  176.2910  136.2430 C   0  0  0  0  0  3  0  0  0  0  0  0
  182.1670  175.6930  138.9750 C   0  0  0  0  0  3  0  0  0  0  0  0
  183.2440  178.1990  139.7080 N   0  0  0  0  0  0  0  0  0  0  0  0
  183.2510  176.2050  138.4060 C   0  0  0  0  0  0  0  0  0  0  0  0
  182.1320  177.7110  140.3810 O   0  0  0  0  0  0  0  0  0  0  0  0
  184.1550  175.6460  137.4300 C   0  0  0  0  0  0  0  0  0  0  0  0
  181.3770  176.5720  139.9160 C   0  0  0  0  0  2  0  0  0  0  0  0
  185.0100  177.8290  137.9830 C   0  0  0  0  0  2  0  0  0  0  0  0
  185.1590  176.5700  137.1750 C   0  0  0  0  0  0  0  0  0  0  0  0
  183.7620  177.5070  138.7450 C   0  0  0  0  0  0  0  0  0  0  0  0
  186.1280  175.0540  135.5750 C   0  0  0  0  0  0  0  0  0  0  0  0
  185.0980  174.1310  135.8340 C   0  0  0  0  0  3  0  0  0  0  0  0
  1  5  1  1  0  0  0
  1 17  1  0  0  0  0
  2 12  2  0  0  0  0
  3 15  1  0  0  0  0
  4 21  1  6  0  0  0
  5  4  1  0  0  0  0
  6  8  1  1  0  0  0
  6  7  1  0  0  0  0
  6 10  1  0  0  0  0
  7 11  1  0  0  0  0
  8  4  1  0  0  0  0
  9 11  1  6  0  0  0
  9  3  1  0  0  0  0
 10  1  1  0  0  0  0
 10  9  1  0  0  0  0
 13 12  1  0  0  0  0
 13 18  1  0  0  0  0
 14 13  1  0  0  0  0
 15  2  1  0  0  0  0
 16 14  1  0  0  0  0
 17 16  1  0  0  0  0
 17 15  1  0  0  0  0
 18 19  1  0  0  0  0
 18 20  1  0  0  0  0
 19 20  1  0  0  0  0
 21 33  1  0  0  0  0
 22 28  1  0  0  0  0
 23 31  1  0  0  0  0
 24 29  1  0  0  0  0
 25 27  1  0  0  0  0
 26 32  1  0  0  0  0
 26 24  2  0  0  0  0
 28 26  1  0  0  0  0
 29 27  1  0  0  0  0
 30 32  1  0  0  0  0
 31 28  2  0  0  0  0
 31 30  1  0  0  0  0
 32 25  2  0  0  0  0
 33 34  1  0  0  0  0
 33 23  2  0  0  0  0
 34 22  2  0  0  0  0
M  END
>  <MODEL>
9

>  <REMARK>
 VINA RESULT:      -6.4      3.609      6.569
  Name = 
  3 active torsions:
  status: ('A' for Active; 'I' for Inactive)
    1  A    between atoms: N_3  and  C_25
    2  A    between atoms: C_8  and  C_18
    3  A    between atoms: C_18  and  C_30
                            x       y       z     vdW  Elec       q    Type
                         _______ _______ _______ _____ _____    ______ ____

>  <TORSDO>
F 3

$$$$
