=
 OpenBabel10272413313D

 32 37  0  0  1  0  0  0  0  0999 V2000
  180.5930  180.6930  139.0400 C   0  0  0  0  0  0  0  0  0  0  0  0
  181.4420  179.9200  142.3450 O   0  0  0  0  0  0  0  0  0  0  0  0
  185.9820  178.0590  142.9960 C   0  0  0  0  0  0  0  0  0  0  0  0
  185.9840  178.4520  147.8320 C   0  0  0  0  0  3  0  0  0  0  0  0
  187.3650  178.2410  147.8390 C   0  0  0  0  0  3  0  0  0  0  0  0
  183.9220  178.2770  141.7480 C   0  0  0  0  0  0  0  0  0  0  0  0
  183.9180  178.4680  144.1410 N   0  0  0  0  0  0  0  0  0  0  0  0
  180.2690  180.5070  140.4050 N   0  0  0  0  0  2  0  0  0  0  0  0
  181.7520  178.7180  142.9960 C   0  0  0  0  0  2  0  0  0  0  0  0
  185.2830  178.4620  146.6240 C   0  0  0  0  0  3  0  0  0  0  0  0
  185.2640  178.2660  144.1890 C   0  0  0  0  0  0  0  0  0  0  0  0
  185.9560  178.2590  145.4100 C   0  0  0  0  0  0  0  0  0  0  0  0
  188.0260  177.8400  144.1950 C   0  0  0  0  0  0  0  0  0  0  0  0
  181.9880  179.7630  138.4440 S   0  0  0  0  0  0  0  0  0  0  0  0
  182.4610  179.5640  140.1950 C   0  0  2  0  0  3  0  0  0  0  0  0
  179.9820  181.5270  138.3230 O   0  0  0  0  0  0  0  0  0  0  0  0
  183.2320  178.4760  142.9660 C   0  0  0  0  0  0  0  0  0  0  0  0
  183.2280  178.2690  140.4160 C   0  0  0  0  0  2  0  0  0  0  0  0
  181.1730  179.5570  141.0200 C   0  0  1  0  0  3  0  0  0  0  0  0
  188.0470  178.0380  146.6380 C   0  0  0  0  0  3  0  0  0  0  0  0
  187.3560  178.0440  145.4170 C   0  0  0  0  0  0  0  0  0  0  0  0
  185.3020  178.0650  141.7800 C   0  0  0  0  0  3  0  0  0  0  0  0
  187.3240  177.8550  143.0280 N   0  0  0  0  0  0  0  0  0  0  0  0
  191.7320  178.7250  144.2540 C   0  0  2  0  0  3  0  0  0  0  0  0
  191.9240  178.3260  142.8660 N   0  0  0  0  0  2  0  0  0  0  0  0
  189.9640  177.0440  142.7930 C   0  0  1  0  0  3  0  0  0  0  0  0
  191.8160  176.6080  141.3690 C   0  0  0  0  0  1  0  0  0  0  0  0
  191.4360  177.0130  142.7150 N   0  0  0  0  0  0  0  0  0  0  0  0
  190.2440  178.9000  144.5030 C   0  0  0  0  0  2  0  0  0  0  0  0
  192.3790  179.9240  144.4840 F   0  0  0  0  0  0  0  0  0  0  0  0
  189.3980  175.6330  142.6410 C   0  0  0  0  0  1  0  0  0  0  0  0
  189.5120  177.6080  144.1550 C   0  0  1  0  0  3  0  0  0  0  0  0
  1  8  1  0  0  0  0
  2  9  1  0  0  0  0
  3 23  2  0  0  0  0
  3 11  1  0  0  0  0
  4  5  1  0  0  0  0
  6 22  2  0  0  0  0
  6 17  1  0  0  0  0
  7 11  1  0  0  0  0
 10  4  2  0  0  0  0
 11 12  2  0  0  0  0
 12 21  1  0  0  0  0
 12 10  1  0  0  0  0
 13 21  2  0  0  0  0
 14  1  1  0  0  0  0
 14 15  1  0  0  0  0
 15 18  1  6  0  0  0
 15 19  1  0  0  0  0
 16  1  2  0  0  0  0
 17  9  1  0  0  0  0
 17  7  2  0  0  0  0
 18  6  1  0  0  0  0
 19  8  1  6  0  0  0
 19  2  1  0  0  0  0
 20  5  2  0  0  0  0
 21 20  1  0  0  0  0
 22  3  1  0  0  0  0
 23 13  1  0  0  0  0
 24 30  1  6  0  0  0
 24 29  1  0  0  0  0
 25 24  1  0  0  0  0
 26 31  1  1  0  0  0
 26 32  1  0  0  0  0
 27 28  1  0  0  0  0
 28 26  1  0  0  0  0
 28 25  1  0  0  0  0
 32 13  1  6  0  0  0
 32 29  1  0  0  0  0
M  END
>  <MODEL>
1

>  <REMARK>
 VINA RESULT:      -9.0      0.000      0.000
  Name = 
  1 active torsions:
  status: ('A' for Active; 'I' for Inactive)
    1  A    between atoms: C_16  and  C_32
                            x       y       z     vdW  Elec       q    Type
                         _______ _______ _______ _____ _____    ______ ____

>  <TORSDO>
F 1

$$$$
=
 OpenBabel10272413313D

 32 37  0  0  1  0  0  0  0  0999 V2000
  191.3040  175.4380  137.1090 C   0  0  0  0  0  0  0  0  0  0  0  0
  190.5740  176.1880  140.4480 O   0  0  0  0  0  0  0  0  0  0  0  0
  186.2460  178.4630  141.2210 C   0  0  0  0  0  0  0  0  0  0  0  0
  186.2620  177.9200  146.0420 C   0  0  0  0  0  3  0  0  0  0  0  0
  184.9090  178.2650  146.0760 C   0  0  0  0  0  3  0  0  0  0  0  0
  188.2600  178.0830  139.9370 C   0  0  0  0  0  0  0  0  0  0  0  0
  188.2730  177.8180  142.3220 N   0  0  0  0  0  0  0  0  0  0  0  0
  191.6600  175.5500  138.4740 N   0  0  0  0  0  2  0  0  0  0  0  0
  190.3900  177.3930  141.1390 C   0  0  0  0  0  2  0  0  0  0  0  0
  186.9440  177.8800  144.8250 C   0  0  0  0  0  3  0  0  0  0  0  0
  186.9540  178.1490  142.3970 C   0  0  0  0  0  0  0  0  0  0  0  0
  186.2810  178.1850  143.6270 C   0  0  0  0  0  0  0  0  0  0  0  0
  184.2470  178.8420  142.4560 C   0  0  0  0  0  0  0  0  0  0  0  0
  190.0000  176.5180  136.5620 S   0  0  0  0  0  0  0  0  0  0  0  0
  189.5690  176.7080  138.3250 C   0  0  2  0  0  3  0  0  0  0  0  0
  191.8220  174.5710  136.3590 O   0  0  0  0  0  0  0  0  0  0  0  0
  188.9420  177.7800  141.1380 C   0  0  0  0  0  0  0  0  0  0  0  0
  188.9350  178.0650  138.5960 C   0  0  0  0  0  2  0  0  0  0  0  0
  190.8610  176.5640  139.1310 C   0  0  1  0  0  3  0  0  0  0  0  0
  184.2350  178.5720  144.8920 C   0  0  0  0  0  3  0  0  0  0  0  0
  184.9080  178.5360  143.6610 C   0  0  0  0  0  0  0  0  0  0  0  0
  186.9080  178.4280  139.9950 C   0  0  0  0  0  3  0  0  0  0  0  0
  184.9310  178.7960  141.2790 N   0  0  0  0  0  0  0  0  0  0  0  0
  180.6060  178.8620  143.5760 C   0  0  2  0  0  3  0  0  0  0  0  0
  180.1490  178.2160  142.3520 N   0  0  0  0  0  2  0  0  0  0  0  0
  182.0910  178.7500  141.1530 C   0  0  1  0  0  3  0  0  0  0  0  0
  180.0040  178.3740  140.0810 C   0  0  0  0  0  1  0  0  0  0  0  0
  180.6350  178.9570  141.2570 N   0  0  0  0  0  0  0  0  0  0  0  0
  182.1070  178.6700  143.6910 C   0  0  0  0  0  2  0  0  0  0  0  0
  179.9830  178.2820  144.6640 F   0  0  0  0  0  0  0  0  0  0  0  0
  182.6550  179.5470  139.9790 C   0  0  0  0  0  1  0  0  0  0  0  0
  182.7910  179.2200  142.4440 C   0  0  1  0  0  3  0  0  0  0  0  0
  1  8  1  0  0  0  0
  2  9  1  0  0  0  0
  3 23  2  0  0  0  0
  3 11  1  0  0  0  0
  4  5  1  0  0  0  0
  6 22  2  0  0  0  0
  6 17  1  0  0  0  0
  7 11  1  0  0  0  0
 10  4  2  0  0  0  0
 11 12  2  0  0  0  0
 12 21  1  0  0  0  0
 12 10  1  0  0  0  0
 13 21  2  0  0  0  0
 14  1  1  0  0  0  0
 14 15  1  0  0  0  0
 15 18  1  6  0  0  0
 15 19  1  0  0  0  0
 16  1  2  0  0  0  0
 17  9  1  0  0  0  0
 17  7  2  0  0  0  0
 18  6  1  0  0  0  0
 19  8  1  6  0  0  0
 19  2  1  0  0  0  0
 20  5  2  0  0  0  0
 21 20  1  0  0  0  0
 22  3  1  0  0  0  0
 23 13  1  0  0  0  0
 24 29  1  0  0  0  0
 24 30  1  1  0  0  0
 25 24  1  0  0  0  0
 26 31  1  6  0  0  0
 26 28  1  0  0  0  0
 26 32  1  0  0  0  0
 27 28  1  0  0  0  0
 28 25  1  0  0  0  0
 32 13  1  6  0  0  0
 32 29  1  0  0  0  0
M  END
>  <MODEL>
2

>  <REMARK>
 VINA RESULT:      -8.8      4.509      8.050
  Name = 
  1 active torsions:
  status: ('A' for Active; 'I' for Inactive)
    1  A    between atoms: C_16  and  C_32
                            x       y       z     vdW  Elec       q    Type
                         _______ _______ _______ _____ _____    ______ ____

>  <TORSDO>
F 1

$$$$
=
 OpenBabel10272413313D

 32 37  0  0  1  0  0  0  0  0999 V2000
  190.2020  176.4390  146.8890 C   0  0  0  0  0  0  0  0  0  0  0  0
  186.8800  177.5350  146.8280 O   0  0  0  0  0  0  0  0  0  0  0  0
  185.0140  178.4240  142.3300 C   0  0  0  0  0  0  0  0  0  0  0  0
  180.4040  178.8350  143.7840 C   0  0  0  0  0  3  0  0  0  0  0  0
  179.9860  178.7340  142.4550 C   0  0  0  0  0  3  0  0  0  0  0  0
  186.8170  178.4660  143.9400 C   0  0  0  0  0  0  0  0  0  0  0  0
  184.5380  178.6750  144.6630 N   0  0  0  0  0  0  0  0  0  0  0  0
  189.0280  176.9130  147.5210 N   0  0  0  0  0  2  0  0  0  0  0  0
  186.2740  178.7280  146.4100 C   0  0  0  0  0  2  0  0  0  0  0  0
  181.7640  178.7840  144.0960 C   0  0  0  0  0  3  0  0  0  0  0  0
  184.0910  178.5790  143.3810 C   0  0  0  0  0  0  0  0  0  0  0  0
  182.7210  178.6320  143.0820 C   0  0  0  0  0  0  0  0  0  0  0  0
  183.2630  178.3770  140.7190 C   0  0  0  0  0  0  0  0  0  0  0  0
  190.4130  176.9260  145.1910 S   0  0  0  0  0  0  0  0  0  0  0  0
  188.6280  177.2990  145.1920 C   0  0  2  0  0  3  0  0  0  0  0  0
  190.9960  175.6560  147.4700 O   0  0  0  0  0  0  0  0  0  0  0  0
  185.8630  178.6280  144.9710 C   0  0  0  0  0  0  0  0  0  0  0  0
  188.2950  178.4100  144.2070 C   0  0  0  0  0  2  0  0  0  0  0  0
  188.2490  177.7270  146.6110 C   0  0  1  0  0  3  0  0  0  0  0  0
  180.9270  178.5810  141.4350 C   0  0  0  0  0  3  0  0  0  0  0  0
  182.2980  178.5280  141.7330 C   0  0  0  0  0  0  0  0  0  0  0  0
  186.3770  178.3700  142.6190 C   0  0  0  0  0  3  0  0  0  0  0  0
  184.5840  178.3280  141.0450 N   0  0  0  0  0  0  0  0  0  0  0  0
  181.6860  179.4190  137.4110 C   0  0  2  0  0  3  0  0  0  0  0  0
  180.6810  178.3660  137.4740 N   0  0  0  0  0  2  0  0  0  0  0  0
  181.8700  177.1020  139.0490 C   0  0  1  0  0  3  0  0  0  0  0  0
  180.3150  176.1150  137.5470 C   0  0  0  0  0  1  0  0  0  0  0  0
  181.3440  177.1390  137.6720 N   0  0  0  0  0  0  0  0  0  0  0  0
  182.2880  179.5930  138.7940 C   0  0  0  0  0  2  0  0  0  0  0  0
  181.0900  180.6020  137.0180 F   0  0  0  0  0  0  0  0  0  0  0  0
  182.6040  175.7860  139.2980 C   0  0  0  0  0  1  0  0  0  0  0  0
  182.8580  178.2630  139.2750 C   0  0  1  0  0  3  0  0  0  0  0  0
  1 16  2  0  0  0  0
  1  8  1  0  0  0  0
  3 22  2  0  0  0  0
  3 11  1  0  0  0  0
  4 10  1  0  0  0  0
  5  4  2  0  0  0  0
  6 18  1  0  0  0  0
  6 17  2  0  0  0  0
  7 17  1  0  0  0  0
  9  2  1  0  0  0  0
 11  7  2  0  0  0  0
 12 11  1  0  0  0  0
 12 10  2  0  0  0  0
 13 23  2  0  0  0  0
 13 21  1  0  0  0  0
 14 15  1  0  0  0  0
 14  1  1  0  0  0  0
 15 18  1  6  0  0  0
 15 19  1  0  0  0  0
 17  9  1  0  0  0  0
 19  2  1  1  0  0  0
 19  8  1  0  0  0  0
 20 21  2  0  0  0  0
 20  5  1  0  0  0  0
 21 12  1  0  0  0  0
 22  6  1  0  0  0  0
 23  3  1  0  0  0  0
 24 30  1  1  0  0  0
 24 25  1  0  0  0  0
 24 29  1  0  0  0  0
 25 28  1  0  0  0  0
 26 32  1  0  0  0  0
 26 31  1  6  0  0  0
 27 28  1  0  0  0  0
 28 26  1  0  0  0  0
 29 32  1  0  0  0  0
 32 13  1  1  0  0  0
M  END
>  <MODEL>
3

>  <REMARK>
 VINA RESULT:      -8.6      4.558      8.626
  Name = 
  1 active torsions:
  status: ('A' for Active; 'I' for Inactive)
    1  A    between atoms: C_16  and  C_32
                            x       y       z     vdW  Elec       q    Type
                         _______ _______ _______ _____ _____    ______ ____

>  <TORSDO>
F 1

$$$$
=
 OpenBabel10272413313D

 32 37  0  0  1  0  0  0  0  0999 V2000
  188.5520  177.2780  146.3850 C   0  0  0  0  0  0  0  0  0  0  0  0
  187.2950  177.6470  143.1400 O   0  0  0  0  0  0  0  0  0  0  0  0
  190.4400  176.4910  139.4960 C   0  0  0  0  0  0  0  0  0  0  0  0
  187.1260  176.5450  135.9540 C   0  0  0  0  0  3  0  0  0  0  0  0
  188.0300  175.8950  135.1110 C   0  0  0  0  0  3  0  0  0  0  0  0
  189.9370  177.4440  141.6610 C   0  0  0  0  0  0  0  0  0  0  0  0
  188.2960  177.4770  139.9100 N   0  0  0  0  0  0  0  0  0  0  0  0
  187.5740  177.7240  145.4640 N   0  0  0  0  0  2  0  0  0  0  0  0
  187.6490  178.4750  142.0660 C   0  0  0  0  0  2  0  0  0  0  0  0
  187.4920  176.8610  137.2640 C   0  0  0  0  0  3  0  0  0  0  0  0
  189.1490  176.8430  139.0580 C   0  0  0  0  0  0  0  0  0  0  0  0
  188.7680  176.5310  137.7440 C   0  0  0  0  0  0  0  0  0  0  0  0
  190.9650  175.5440  137.3770 C   0  0  0  0  0  0  0  0  0  0  0  0
  190.2080  177.1490  145.7490 S   0  0  0  0  0  0  0  0  0  0  0  0
  189.4520  177.1620  144.0880 C   0  0  2  0  0  3  0  0  0  0  0  0
  188.2460  176.9180  147.5510 O   0  0  0  0  0  0  0  0  0  0  0  0
  188.6510  177.7880  141.1870 C   0  0  0  0  0  0  0  0  0  0  0  0
  190.3970  177.7610  143.0560 C   0  0  0  0  0  2  0  0  0  0  0  0
  188.1730  177.9960  144.1730 C   0  0  1  0  0  3  0  0  0  0  0  0
  189.3030  175.5600  135.5760 C   0  0  0  0  0  3  0  0  0  0  0  0
  189.6860  175.8720  136.8900 C   0  0  0  0  0  0  0  0  0  0  0  0
  190.8260  176.7970  140.8000 C   0  0  0  0  0  3  0  0  0  0  0  0
  191.3020  175.8600  138.6590 N   0  0  0  0  0  0  0  0  0  0  0  0
  192.8830  172.6220  135.8590 C   0  0  2  0  0  3  0  0  0  0  0  0
  194.1360  173.0240  136.4840 N   0  0  0  0  0  2  0  0  0  0  0  0
  193.4180  175.2180  136.8900 C   0  0  1  0  0  3  0  0  0  0  0  0
  195.7160  174.6620  136.6520 C   0  0  0  0  0  1  0  0  0  0  0  0
  194.3770  174.3730  136.1560 N   0  0  0  0  0  0  0  0  0  0  0  0
  191.7430  173.3380  136.5610 C   0  0  0  0  0  2  0  0  0  0  0  0
  192.7190  171.2570  135.9910 F   0  0  0  0  0  0  0  0  0  0  0  0
  193.6440  176.6900  136.5530 C   0  0  0  0  0  1  0  0  0  0  0  0
  191.9720  174.8440  136.5050 C   0  0  1  0  0  3  0  0  0  0  0  0
  1 16  2  0  0  0  0
  3 22  1  0  0  0  0
  4 10  1  0  0  0  0
  5 20  1  0  0  0  0
  5  4  2  0  0  0  0
  6 18  1  0  0  0  0
  7 17  2  0  0  0  0
  8  1  1  0  0  0  0
  9  2  1  0  0  0  0
 10 12  2  0  0  0  0
 11  3  2  0  0  0  0
 11  7  1  0  0  0  0
 12 11  1  0  0  0  0
 13 23  2  0  0  0  0
 14  1  1  0  0  0  0
 15 18  1  6  0  0  0
 15 19  1  0  0  0  0
 15 14  1  0  0  0  0
 17  6  1  0  0  0  0
 17  9  1  0  0  0  0
 19  2  1  6  0  0  0
 19  8  1  0  0  0  0
 20 21  2  0  0  0  0
 21 13  1  0  0  0  0
 21 12  1  0  0  0  0
 22  6  2  0  0  0  0
 23  3  1  0  0  0  0
 24 30  1  1  0  0  0
 24 25  1  0  0  0  0
 24 29  1  0  0  0  0
 26 31  1  6  0  0  0
 28 25  1  0  0  0  0
 28 27  1  0  0  0  0
 28 26  1  0  0  0  0
 32 29  1  0  0  0  0
 32 26  1  0  0  0  0
 32 13  1  1  0  0  0
M  END
>  <MODEL>
4

>  <REMARK>
 VINA RESULT:      -8.5      5.617      8.836
  Name = 
  1 active torsions:
  status: ('A' for Active; 'I' for Inactive)
    1  A    between atoms: C_16  and  C_32
                            x       y       z     vdW  Elec       q    Type
                         _______ _______ _______ _____ _____    ______ ____

>  <TORSDO>
F 1

$$$$
=
 OpenBabel10272413313D

 32 37  0  0  1  0  0  0  0  0999 V2000
  190.7920  176.2750  147.1040 C   0  0  0  0  0  0  0  0  0  0  0  0
  187.5420  177.5710  147.0790 O   0  0  0  0  0  0  0  0  0  0  0  0
  185.4910  178.0850  142.6040 C   0  0  0  0  0  0  0  0  0  0  0  0
  180.9990  178.9510  144.2200 C   0  0  0  0  0  3  0  0  0  0  0  0
  180.5040  178.7330  142.9320 C   0  0  0  0  0  3  0  0  0  0  0  0
  187.3780  178.1850  144.1120 C   0  0  0  0  0  0  0  0  0  0  0  0
  185.1580  178.6190  144.9150 N   0  0  0  0  0  0  0  0  0  0  0  0
  189.6840  176.8900  147.7350 N   0  0  0  0  0  2  0  0  0  0  0  0
  186.9860  178.7480  146.5600 C   0  0  0  0  0  2  0  0  0  0  0  0
  182.3690  178.8460  144.4710 C   0  0  0  0  0  3  0  0  0  0  0  0
  184.6370  178.4130  143.6740 C   0  0  0  0  0  0  0  0  0  0  0  0
  183.2580  178.5220  143.4360 C   0  0  0  0  0  0  0  0  0  0  0  0
  183.6540  177.9770  141.0940 C   0  0  0  0  0  0  0  0  0  0  0  0
  190.9390  176.5600  145.3540 S   0  0  0  0  0  0  0  0  0  0  0  0
  189.1810  177.0460  145.3980 C   0  0  2  0  0  3  0  0  0  0  0  0
  191.5680  175.5090  147.7320 O   0  0  0  0  0  0  0  0  0  0  0  0
  186.4930  178.5190  145.1620 C   0  0  0  0  0  0  0  0  0  0  0  0
  188.8620  178.0630  144.3120 C   0  0  0  0  0  2  0  0  0  0  0  0
  188.9060  177.6490  146.7770 C   0  0  1  0  0  3  0  0  0  0  0  0
  181.3770  178.4100  141.8920 C   0  0  0  0  0  3  0  0  0  0  0  0
  182.7560  178.3010  142.1290 C   0  0  0  0  0  0  0  0  0  0  0  0
  186.8610  177.9740  142.8320 C   0  0  0  0  0  3  0  0  0  0  0  0
  184.9860  177.8780  141.3600 N   0  0  0  0  0  0  0  0  0  0  0  0
  182.2960  176.0060  138.1300 C   0  0  2  0  0  3  0  0  0  0  0  0
  183.5250  176.1710  137.3630 N   0  0  0  0  0  2  0  0  0  0  0  0
  184.2770  177.9790  138.6510 C   0  0  1  0  0  3  0  0  0  0  0  0
  184.9530  177.6630  136.3940 C   0  0  0  0  0  1  0  0  0  0  0  0
  183.8300  177.5450  137.3140 N   0  0  0  0  0  0  0  0  0  0  0  0
  182.5890  176.3270  139.5840 C   0  0  0  0  0  2  0  0  0  0  0  0
  181.8600  174.6990  138.0260 F   0  0  0  0  0  0  0  0  0  0  0  0
  184.6100  179.4690  138.6390 C   0  0  0  0  0  1  0  0  0  0  0  0
  183.1660  177.7340  139.6920 C   0  0  1  0  0  3  0  0  0  0  0  0
  1 16  2  0  0  0  0
  1  8  1  0  0  0  0
  3 22  2  0  0  0  0
  3 11  1  0  0  0  0
  4 10  1  0  0  0  0
  5  4  2  0  0  0  0
  6 18  1  0  0  0  0
  6 17  2  0  0  0  0
  7 17  1  0  0  0  0
  9  2  1  0  0  0  0
 11  7  2  0  0  0  0
 12 11  1  0  0  0  0
 12 10  2  0  0  0  0
 13 23  2  0  0  0  0
 13 21  1  0  0  0  0
 14 15  1  0  0  0  0
 14  1  1  0  0  0  0
 15 18  1  6  0  0  0
 15 19  1  0  0  0  0
 17  9  1  0  0  0  0
 19  2  1  1  0  0  0
 19  8  1  0  0  0  0
 20 21  2  0  0  0  0
 20  5  1  0  0  0  0
 21 12  1  0  0  0  0
 22  6  1  0  0  0  0
 23  3  1  0  0  0  0
 24 30  1  1  0  0  0
 24 29  1  0  0  0  0
 25 24  1  0  0  0  0
 26 31  1  6  0  0  0
 26 32  1  0  0  0  0
 27 28  1  0  0  0  0
 28 25  1  0  0  0  0
 28 26  1  0  0  0  0
 29 32  1  0  0  0  0
 32 13  1  1  0  0  0
M  END
>  <MODEL>
5

>  <REMARK>
 VINA RESULT:      -8.4      4.736      8.313
  Name = 
  1 active torsions:
  status: ('A' for Active; 'I' for Inactive)
    1  A    between atoms: C_16  and  C_32
                            x       y       z     vdW  Elec       q    Type
                         _______ _______ _______ _____ _____    ______ ____

>  <TORSDO>
F 1

$$$$
=
 OpenBabel10272413313D

 32 37  0  0  1  0  0  0  0  0999 V2000
  191.0580  176.1640  143.6000 C   0  0  0  0  0  0  0  0  0  0  0  0
  187.9310  177.1970  144.7810 O   0  0  0  0  0  0  0  0  0  0  0  0
  184.6640  178.4970  141.2970 C   0  0  0  0  0  0  0  0  0  0  0  0
  180.8280  178.6720  144.2620 C   0  0  0  0  0  3  0  0  0  0  0  0
  179.9820  178.6970  143.1510 C   0  0  0  0  0  3  0  0  0  0  0  0
  186.9070  178.4120  142.1950 C   0  0  0  0  0  0  0  0  0  0  0  0
  185.0120  178.5040  143.6660 N   0  0  0  0  0  0  0  0  0  0  0  0
  190.1770  176.5490  144.6370 N   0  0  0  0  0  2  0  0  0  0  0  0
  187.2380  178.4130  144.7160 C   0  0  0  0  0  2  0  0  0  0  0  0
  182.2130  178.6160  144.0870 C   0  0  0  0  0  3  0  0  0  0  0  0
  184.1550  178.5280  142.6090 C   0  0  0  0  0  0  0  0  0  0  0  0
  182.7660  178.5850  142.7990 C   0  0  0  0  0  0  0  0  0  0  0  0
  182.4690  178.5790  140.3800 C   0  0  0  0  0  0  0  0  0  0  0  0
  190.6890  176.8230  141.9890 S   0  0  0  0  0  0  0  0  0  0  0  0
  189.0150  177.1600  142.6340 C   0  0  2  0  0  3  0  0  0  0  0  0
  191.9890  175.3410  143.7950 O   0  0  0  0  0  0  0  0  0  0  0  0
  186.3620  178.4510  143.4990 C   0  0  0  0  0  0  0  0  0  0  0  0
  188.3860  178.3580  141.9380 C   0  0  0  0  0  2  0  0  0  0  0  0
  189.1480  177.4350  144.1320 C   0  0  1  0  0  3  0  0  0  0  0  0
  180.5190  178.6660  141.8620 C   0  0  0  0  0  3  0  0  0  0  0  0
  181.9080  178.6100  141.6710 C   0  0  0  0  0  0  0  0  0  0  0  0
  186.0430  178.4400  141.1000 C   0  0  0  0  0  3  0  0  0  0  0  0
  183.8220  178.5230  140.2320 N   0  0  0  0  0  0  0  0  0  0  0  0
  181.3250  177.7030  136.8530 C   0  0  2  0  0  3  0  0  0  0  0  0
  181.5520  179.0570  136.3640 N   0  0  0  0  0  2  0  0  0  0  0  0
  181.5620  180.0030  138.5080 C   0  0  1  0  0  3  0  0  0  0  0  0
  180.9790  181.2550  136.5740 C   0  0  0  0  0  1  0  0  0  0  0  0
  180.8650  179.9490  137.2100 N   0  0  0  0  0  0  0  0  0  0  0  0
  182.0620  177.5370  138.1700 C   0  0  0  0  0  2  0  0  0  0  0  0
  181.8140  176.7930  135.9350 F   0  0  0  0  0  0  0  0  0  0  0  0
  180.8390  180.9580  139.4560 C   0  0  0  0  0  1  0  0  0  0  0  0
  181.5970  178.6040  139.1550 C   0  0  1  0  0  3  0  0  0  0  0  0
  1 16  2  0  0  0  0
  1  8  1  0  0  0  0
  3 11  1  0  0  0  0
  5  4  2  0  0  0  0
  6 17  2  0  0  0  0
  9  2  1  0  0  0  0
 10  4  1  0  0  0  0
 11 12  1  0  0  0  0
 11  7  2  0  0  0  0
 12 10  2  0  0  0  0
 13 21  1  0  0  0  0
 14 15  1  0  0  0  0
 14  1  1  0  0  0  0
 15 18  1  6  0  0  0
 15 19  1  0  0  0  0
 17  7  1  0  0  0  0
 17  9  1  0  0  0  0
 18  6  1  0  0  0  0
 19  8  1  1  0  0  0
 19  2  1  0  0  0  0
 20  5  1  0  0  0  0
 21 20  2  0  0  0  0
 21 12  1  0  0  0  0
 22  3  2  0  0  0  0
 22  6  1  0  0  0  0
 23 13  2  0  0  0  0
 23  3  1  0  0  0  0
 24 30  1  6  0  0  0
 24 29  1  0  0  0  0
 25 24  1  0  0  0  0
 25 28  1  0  0  0  0
 26 32  1  0  0  0  0
 26 31  1  1  0  0  0
 27 28  1  0  0  0  0
 28 26  1  0  0  0  0
 29 32  1  0  0  0  0
 32 13  1  1  0  0  0
M  END
>  <MODEL>
6

>  <REMARK>
 VINA RESULT:      -8.4      4.304      8.733
  Name = 
  1 active torsions:
  status: ('A' for Active; 'I' for Inactive)
    1  A    between atoms: C_16  and  C_32
                            x       y       z     vdW  Elec       q    Type
                         _______ _______ _______ _____ _____    ______ ____

>  <TORSDO>
F 1

$$$$
=
 OpenBabel10272413313D

 32 37  0  0  1  0  0  0  0  0999 V2000
  188.9940  178.2010  148.0400 C   0  0  0  0  0  0  0  0  0  0  0  0
  189.9500  177.7160  144.7090 O   0  0  0  0  0  0  0  0  0  0  0  0
  186.2970  178.0090  141.3820 C   0  0  0  0  0  0  0  0  0  0  0  0
  189.1890  178.1220  137.4880 C   0  0  0  0  0  3  0  0  0  0  0  0
  188.1070  178.5380  136.7090 C   0  0  0  0  0  3  0  0  0  0  0  0
  187.1720  177.3620  143.5420 C   0  0  0  0  0  0  0  0  0  0  0  0
  188.6050  177.4120  141.6170 N   0  0  0  0  0  0  0  0  0  0  0  0
  189.9310  177.8240  147.0480 N   0  0  0  0  0  2  0  0  0  0  0  0
  189.6280  176.7420  143.7540 C   0  0  0  0  0  2  0  0  0  0  0  0
  189.0170  177.8830  138.8530 C   0  0  0  0  0  3  0  0  0  0  0  0
  187.5760  177.8200  140.8240 C   0  0  0  0  0  0  0  0  0  0  0  0
  187.7620  178.0570  139.4530 C   0  0  0  0  0  0  0  0  0  0  0  0
  185.4050  178.6510  139.2710 C   0  0  0  0  0  0  0  0  0  0  0  0
  187.2820  178.0100  147.5960 S   0  0  0  0  0  0  0  0  0  0  0  0
  187.8530  177.9520  145.8640 C   0  0  2  0  0  3  0  0  0  0  0  0
  189.3560  178.7170  149.1290 O   0  0  0  0  0  0  0  0  0  0  0  0
  188.4410  177.1760  142.9470 C   0  0  0  0  0  0  0  0  0  0  0  0
  186.9180  177.1160  145.0020 C   0  0  0  0  0  2  0  0  0  0  0  0
  189.2540  177.3380  145.8630 C   0  0  1  0  0  3  0  0  0  0  0  0
  186.8510  178.7160  137.2930 C   0  0  0  0  0  3  0  0  0  0  0  0
  186.6640  178.4790  138.6630 C   0  0  0  0  0  0  0  0  0  0  0  0
  186.1040  177.7760  142.7430 C   0  0  0  0  0  3  0  0  0  0  0  0
  185.2600  178.4140  140.6050 N   0  0  0  0  0  0  0  0  0  0  0  0
  182.2320  180.6020  138.4710 C   0  0  2  0  0  3  0  0  0  0  0  0
  181.4010  179.4040  138.4970 N   0  0  0  0  0  2  0  0  0  0  0  0
  183.2160  177.9440  138.2400 C   0  0  1  0  0  3  0  0  0  0  0  0
  181.0150  177.3610  137.5580 C   0  0  0  0  0  1  0  0  0  0  0  0
  181.9750  178.4540  137.6290 N   0  0  0  0  0  0  0  0  0  0  0  0
  183.5500  180.2880  139.1560 C   0  0  0  0  0  2  0  0  0  0  0  0
  181.5920  181.6210  139.1500 F   0  0  0  0  0  0  0  0  0  0  0  0
  183.8720  176.9140  137.3210 C   0  0  0  0  0  1  0  0  0  0  0  0
  184.2120  179.0980  138.4710 C   0  0  1  0  0  3  0  0  0  0  0  0
  1 16  2  0  0  0  0
  3 22  1  0  0  0  0
  4 10  1  0  0  0  0
  5 20  1  0  0  0  0
  5  4  2  0  0  0  0
  6 18  1  0  0  0  0
  7 17  2  0  0  0  0
  8  1  1  0  0  0  0
  9  2  1  0  0  0  0
 10 12  2  0  0  0  0
 11  3  2  0  0  0  0
 11  7  1  0  0  0  0
 12 11  1  0  0  0  0
 13 23  2  0  0  0  0
 14  1  1  0  0  0  0
 15 18  1  6  0  0  0
 15 14  1  0  0  0  0
 17  6  1  0  0  0  0
 17  9  1  0  0  0  0
 19  2  1  6  0  0  0
 19 15  1  0  0  0  0
 19  8  1  0  0  0  0
 20 21  2  0  0  0  0
 21 13  1  0  0  0  0
 21 12  1  0  0  0  0
 22  6  2  0  0  0  0
 23  3  1  0  0  0  0
 24 25  1  0  0  0  0
 24 30  1  1  0  0  0
 24 29  1  0  0  0  0
 26 31  1  6  0  0  0
 26 32  1  0  0  0  0
 27 28  1  0  0  0  0
 28 26  1  0  0  0  0
 28 25  1  0  0  0  0
 32 29  1  0  0  0  0
 32 13  1  1  0  0  0
M  END
>  <MODEL>
7

>  <REMARK>
 VINA RESULT:      -8.2      4.673      8.875
  Name = 
  1 active torsions:
  status: ('A' for Active; 'I' for Inactive)
    1  A    between atoms: C_16  and  C_32
                            x       y       z     vdW  Elec       q    Type
                         _______ _______ _______ _____ _____    ______ ____

>  <TORSDO>
F 1

$$$$
=
 OpenBabel10272413313D

 32 37  0  0  1  0  0  0  0  0999 V2000
  189.6920  173.9270  135.1950 C   0  0  0  0  0  0  0  0  0  0  0  0
  191.1850  174.7050  138.2620 O   0  0  0  0  0  0  0  0  0  0  0  0
  188.4950  177.5690  141.2730 C   0  0  0  0  0  0  0  0  0  0  0  0
  191.2920  176.9300  145.1850 C   0  0  0  0  0  3  0  0  0  0  0  0
  190.2800  177.4680  145.9840 C   0  0  0  0  0  3  0  0  0  0  0  0
  189.2870  176.9270  139.0800 C   0  0  0  0  0  0  0  0  0  0  0  0
  190.6760  176.6140  141.0120 N   0  0  0  0  0  0  0  0  0  0  0  0
  190.7980  173.9570  136.0770 N   0  0  0  0  0  2  0  0  0  0  0  0
  191.6050  175.9100  138.8430 C   0  0  0  0  0  2  0  0  0  0  0  0
  191.1080  176.8160  143.8060 C   0  0  0  0  0  3  0  0  0  0  0  0
  189.7140  177.1310  141.8250 C   0  0  0  0  0  0  0  0  0  0  0  0
  189.9110  177.2400  143.2100 C   0  0  0  0  0  0  0  0  0  0  0  0
  187.6850  178.2100  143.4170 C   0  0  0  0  0  0  0  0  0  0  0  0
  188.4710  175.1960  135.4460 S   0  0  0  0  0  0  0  0  0  0  0  0
  189.1970  175.4100  137.1060 C   0  0  2  0  0  3  0  0  0  0  0  0
  189.5480  173.0090  134.3470 O   0  0  0  0  0  0  0  0  0  0  0  0
  190.5010  176.5030  139.6670 C   0  0  0  0  0  0  0  0  0  0  0  0
  189.0280  176.8380  137.6030 C   0  0  0  0  0  2  0  0  0  0  0  0
  190.6830  175.0630  137.0060 C   0  0  1  0  0  3  0  0  0  0  0  0
  189.0830  177.8930  145.4050 C   0  0  0  0  0  3  0  0  0  0  0  0
  188.8840  177.7850  144.0200 C   0  0  0  0  0  0  0  0  0  0  0  0
  188.2910  177.4640  139.8980 C   0  0  0  0  0  3  0  0  0  0  0  0
  187.5260  178.0890  142.0690 N   0  0  0  0  0  0  0  0  0  0  0  0
  185.3070  178.5830  146.3710 C   0  0  2  0  0  3  0  0  0  0  0  0
  184.1420  178.2220  145.5730 N   0  0  0  0  0  2  0  0  0  0  0  0
  185.2060  178.6550  143.5300 C   0  0  1  0  0  3  0  0  0  0  0  0
  182.8450  178.7750  143.7780 C   0  0  0  0  0  1  0  0  0  0  0  0
  184.1150  179.0550  144.4360 N   0  0  0  0  0  0  0  0  0  0  0  0
  186.5560  178.1530  145.6210 C   0  0  0  0  0  2  0  0  0  0  0  0
  185.2540  177.9290  147.5860 F   0  0  0  0  0  0  0  0  0  0  0  0
  185.2120  179.5430  142.2870 C   0  0  0  0  0  1  0  0  0  0  0  0
  186.5680  178.7950  144.2380 C   0  0  1  0  0  3  0  0  0  0  0  0
  1 14  1  0  0  0  0
  1  8  1  0  0  0  0
  2  9  1  0  0  0  0
  3 11  1  0  0  0  0
  3 23  1  0  0  0  0
  4  5  1  0  0  0  0
  6 17  2  0  0  0  0
  6 22  1  0  0  0  0
  7 11  2  0  0  0  0
  9 17  1  0  0  0  0
 10  4  2  0  0  0  0
 11 12  1  0  0  0  0
 12 10  1  0  0  0  0
 12 21  2  0  0  0  0
 13 21  1  0  0  0  0
 14 15  1  0  0  0  0
 15 18  1  6  0  0  0
 16  1  2  0  0  0  0
 17  7  1  0  0  0  0
 18  6  1  0  0  0  0
 19  8  1  6  0  0  0
 19 15  1  0  0  0  0
 19  2  1  0  0  0  0
 20  5  2  0  0  0  0
 21 20  1  0  0  0  0
 22  3  2  0  0  0  0
 23 13  2  0  0  0  0
 24 30  1  1  0  0  0
 25 24  1  0  0  0  0
 26 31  1  6  0  0  0
 26 32  1  0  0  0  0
 26 28  1  0  0  0  0
 27 28  1  0  0  0  0
 28 25  1  0  0  0  0
 29 24  1  0  0  0  0
 32 13  1  6  0  0  0
 32 29  1  0  0  0  0
M  END
>  <MODEL>
8

>  <REMARK>
 VINA RESULT:      -8.1      4.662      7.548
  Name = 
  1 active torsions:
  status: ('A' for Active; 'I' for Inactive)
    1  A    between atoms: C_16  and  C_32
                            x       y       z     vdW  Elec       q    Type
                         _______ _______ _______ _____ _____    ______ ____

>  <TORSDO>
F 1

$$$$
=
 OpenBabel10272413313D

 32 37  0  0  1  0  0  0  0  0999 V2000
  192.2200  175.4900  136.8130 C   0  0  0  0  0  0  0  0  0  0  0  0
  190.6160  176.7720  139.6470 O   0  0  0  0  0  0  0  0  0  0  0  0
  185.9580  178.2960  138.9480 C   0  0  0  0  0  0  0  0  0  0  0  0
  184.8940  178.7900  143.6560 C   0  0  0  0  0  3  0  0  0  0  0  0
  183.5380  178.8720  143.3310 C   0  0  0  0  0  3  0  0  0  0  0  0
  188.2530  178.0440  138.2290 C   0  0  0  0  0  0  0  0  0  0  0  0
  187.7310  178.2930  140.5590 N   0  0  0  0  0  0  0  0  0  0  0  0
  192.2200  175.9510  138.1510 N   0  0  0  0  0  2  0  0  0  0  0  0
  190.1080  178.0380  139.9670 C   0  0  0  0  0  2  0  0  0  0  0  0
  185.8470  178.6250  142.6490 C   0  0  0  0  0  3  0  0  0  0  0  0
  186.4000  178.3760  140.2830 C   0  0  0  0  0  0  0  0  0  0  0  0
  185.4530  178.5410  141.3050 C   0  0  0  0  0  0  0  0  0  0  0  0
  183.6890  178.5400  139.6240 C   0  0  0  0  0  0  0  0  0  0  0  0
  190.9490  176.1640  135.7660 S   0  0  0  0  0  0  0  0  0  0  0  0
  190.0870  176.6350  137.3040 C   0  0  2  0  0  3  0  0  0  0  0  0
  193.0160  174.5990  136.4200 O   0  0  0  0  0  0  0  0  0  0  0  0
  188.6630  178.1340  139.5790 C   0  0  0  0  0  0  0  0  0  0  0  0
  189.2260  177.8730  137.0980 C   0  0  0  0  0  2  0  0  0  0  0  0
  191.1550  176.9100  138.3630 C   0  0  1  0  0  3  0  0  0  0  0  0
  183.1320  178.7890  141.9980 C   0  0  0  0  0  3  0  0  0  0  0  0
  184.0780  178.6240  140.9740 C   0  0  0  0  0  0  0  0  0  0  0  0
  186.8930  178.1300  137.9280 C   0  0  0  0  0  3  0  0  0  0  0  0
  184.6350  178.3780  138.6560 N   0  0  0  0  0  0  0  0  0  0  0  0
  180.3740  177.3960  138.1330 C   0  0  2  0  0  3  0  0  0  0  0  0
  180.4220  178.3960  137.0740 N   0  0  0  0  0  2  0  0  0  0  0  0
  181.9980  179.7300  138.1810 C   0  0  1  0  0  3  0  0  0  0  0  0
  180.4770  180.6250  136.5900 C   0  0  0  0  0  1  0  0  0  0  0  0
  180.6180  179.6580  137.6700 N   0  0  0  0  0  0  0  0  0  0  0  0
  181.7630  177.2630  138.7310 C   0  0  0  0  0  2  0  0  0  0  0  0
  179.9830  176.1820  137.6040 F   0  0  0  0  0  0  0  0  0  0  0  0
  182.2460  181.0850  138.8430 C   0  0  0  0  0  1  0  0  0  0  0  0
  182.2400  178.6230  139.2270 C   0  0  1  0  0  3  0  0  0  0  0  0
  1  8  1  0  0  0  0
  2  9  1  0  0  0  0
  3 11  1  0  0  0  0
  5  4  1  0  0  0  0
  6 17  1  0  0  0  0
 10  4  2  0  0  0  0
 11  7  1  0  0  0  0
 11 12  2  0  0  0  0
 12 10  1  0  0  0  0
 13 21  2  0  0  0  0
 14  1  1  0  0  0  0
 14 15  1  0  0  0  0
 15 18  1  6  0  0  0
 15 19  1  0  0  0  0
 16  1  2  0  0  0  0
 17  9  1  0  0  0  0
 17  7  2  0  0  0  0
 18  6  1  0  0  0  0
 19  8  1  1  0  0  0
 19  2  1  0  0  0  0
 20  5  2  0  0  0  0
 21 12  1  0  0  0  0
 21 20  1  0  0  0  0
 22  6  2  0  0  0  0
 22  3  1  0  0  0  0
 23  3  2  0  0  0  0
 23 13  1  0  0  0  0
 24 30  1  6  0  0  0
 24 29  1  0  0  0  0
 25 28  1  0  0  0  0
 25 24  1  0  0  0  0
 26 31  1  1  0  0  0
 26 32  1  0  0  0  0
 27 28  1  0  0  0  0
 28 26  1  0  0  0  0
 29 32  1  0  0  0  0
 32 13  1  6  0  0  0
M  END
>  <MODEL>
9

>  <REMARK>
 VINA RESULT:      -8.0      5.242      9.178
  Name = 
  1 active torsions:
  status: ('A' for Active; 'I' for Inactive)
    1  A    between atoms: C_16  and  C_32
                            x       y       z     vdW  Elec       q    Type
                         _______ _______ _______ _____ _____    ______ ____

>  <TORSDO>
F 1

$$$$
