=
 OpenBabel10272401463D

 28 29  0  0  1  0  0  0  0  0999 V2000
  180.6070  179.2220  142.2360 C   0  0  0  0  0  1  0  0  0  0  0  0
  181.9360  178.6740  142.4670 N   0  0  0  0  0  0  0  0  0  0  0  0
  182.7180  178.7650  141.2290 C   0  0  0  0  0  2  0  0  0  0  0  0
  184.1700  178.2960  141.3970 C   0  0  0  0  0  2  0  0  0  0  0  0
  185.1580  179.2390  140.7210 C   0  0  2  0  0  3  0  0  0  0  0  0
  184.6490  179.6930  139.5030 O   0  0  0  0  0  1  0  0  0  0  0  0
  186.5010  178.5600  140.5140 C   0  0  0  0  0  2  0  0  0  0  0  0
  187.2930  178.7190  141.6500 O   0  0  0  0  0  0  0  0  0  0  0  0
  188.5870  178.4370  141.2150 C   0  0  0  0  0  2  0  0  0  0  0  0
  188.9940  177.0450  141.6730 C   0  0  0  0  0  2  0  0  0  0  0  0
  189.9270  177.0520  142.8860 C   0  0  2  0  0  3  0  0  0  0  0  0
  190.4950  178.4320  143.1870 C   0  0  0  0  0  1  0  0  0  0  0  0
  191.7080  175.8020  144.2090 C   0  0  0  0  0  1  0  0  0  0  0  0
  190.9850  175.9460  142.8790 C   0  0  0  0  0  2  0  0  0  0  0  0
  182.5560  179.4640  143.4490 N   0  0  0  0  0  2  0  0  0  0  0  0
  182.7530  178.6310  144.6290 C   0  0  0  0  0  2  0  0  0  0  0  0
  183.7510  179.2260  145.5120 N   0  0  0  0  0  2  0  0  0  0  0  0
  187.7070  178.5360  148.3040 C   0  0  0  0  0  3  0  0  0  0  0  0
  187.6280  177.6080  146.0560 C   0  0  0  0  0  0  0  0  0  0  0  0
  185.7430  178.8740  146.9270 C   0  0  0  0  0  3  0  0  0  0  0  0
  189.5850  177.2660  147.4400 C   0  0  0  0  0  0  0  0  0  0  0  0
  187.0230  178.3430  147.1020 C   0  0  0  0  0  0  0  0  0  0  0  0
  185.6680  177.9660  144.6820 C   0  0  0  0  0  3  0  0  0  0  0  0
  188.9060  177.0710  146.2320 C   0  0  0  0  0  3  0  0  0  0  0  0
  186.9470  177.4250  144.8510 C   0  0  0  0  0  3  0  0  0  0  0  0
  190.8540  176.7320  147.6140 O   0  0  0  0  0  1  0  0  0  0  0  0
  188.9880  177.9970  148.4720 C   0  0  0  0  0  3  0  0  0  0  0  0
  185.0600  178.6880  145.7160 C   0  0  0  0  0  0  0  0  0  0  0  0
  1  2  1  0  0  0  0
  2 15  1  0  0  0  0
  3  4  1  0  0  0  0
  3  2  1  0  0  0  0
  5  6  1  6  0  0  0
  5  4  1  0  0  0  0
  7  5  1  0  0  0  0
  7  8  1  0  0  0  0
  9  8  1  0  0  0  0
  9 10  1  0  0  0  0
 10 11  1  0  0  0  0
 11 12  1  6  0  0  0
 14 11  1  0  0  0  0
 14 13  1  0  0  0  0
 15 16  1  0  0  0  0
 16 17  1  0  0  0  0
 17 28  1  0  0  0  0
 18 27  1  0  0  0  0
 19 24  2  0  0  0  0
 19 22  1  0  0  0  0
 20 22  1  0  0  0  0
 21 26  1  0  0  0  0
 21 27  2  0  0  0  0
 22 18  2  0  0  0  0
 23 25  2  0  0  0  0
 23 28  1  0  0  0  0
 24 21  1  0  0  0  0
 25 19  1  0  0  0  0
 28 20  2  0  0  0  0
M  END
>  <MODEL>
1

>  <REMARK>
 VINA RESULT:      -7.5      0.000      0.000
  Name = 
  13 active torsions:
  status: ('A' for Active; 'I' for Inactive)
    1  A    between atoms: C_1  and  C_2
    2  A    between atoms: C_1  and  C_26
    3  A    between atoms: C_2  and  O_3
    4  A    between atoms: O_3  and  C_7
    5  A    between atoms: C_5  and  N_20
    6  A    between atoms: C_5  and  N_27
    7  A    between atoms: C_6  and  C_11
    8  A    between atoms: C_6  and  C_28
    9  A    between atoms: C_7  and  C_28
   10  A    between atoms: C_19  and  N_21
   11  A    between atoms: C_19  and  C_26
   12  A    between atoms: N_20  and  C_25
   13  A    between atoms: N_21  and  N_27
                            x       y       z     vdW  Elec       q    Type
                         _______ _______ _______ _____ _____    ______ ____

>  <TORSDO>
F 13

$$$$
=
 OpenBabel10272401463D

 28 29  0  0  1  0  0  0  0  0999 V2000
  188.8290  179.0970  137.3650 C   0  0  0  0  0  1  0  0  0  0  0  0
  187.7730  178.5560  138.2080 N   0  0  0  0  0  0  0  0  0  0  0  0
  186.5270  178.4870  137.4380 C   0  0  0  0  0  2  0  0  0  0  0  0
  185.3890  177.7830  138.1910 C   0  0  0  0  0  2  0  0  0  0  0  0
  184.4500  178.7740  138.8660 C   0  0  2  0  0  3  0  0  0  0  0  0
  184.7460  180.0800  138.4710 O   0  0  0  0  0  1  0  0  0  0  0  0
  184.5260  178.6490  140.3790 C   0  0  0  0  0  2  0  0  0  0  0  0
  185.3600  179.6400  140.8950 O   0  0  0  0  0  0  0  0  0  0  0  0
  185.9880  179.0360  141.9820 C   0  0  0  0  0  2  0  0  0  0  0  0
  184.9720  178.2470  142.7930 C   0  0  0  0  0  2  0  0  0  0  0  0
  184.6270  178.8980  144.1350 C   0  0  2  0  0  3  0  0  0  0  0  0
  185.6130  178.5380  145.2370 C   0  0  0  0  0  1  0  0  0  0  0  0
  182.1850  179.0820  143.4380 C   0  0  0  0  0  1  0  0  0  0  0  0
  183.1630  178.7490  144.5540 C   0  0  0  0  0  2  0  0  0  0  0  0
  188.1480  177.2520  138.5750 N   0  0  0  0  0  2  0  0  0  0  0  0
  189.2130  177.3590  139.5640 C   0  0  0  0  0  2  0  0  0  0  0  0
  188.6540  177.4140  140.9100 N   0  0  0  0  0  2  0  0  0  0  0  0
  189.0270  177.3120  145.7870 C   0  0  0  0  0  3  0  0  0  0  0  0
  190.9850  176.8830  144.4080 C   0  0  0  0  0  0  0  0  0  0  0  0
  188.8360  177.3570  143.3730 C   0  0  0  0  0  3  0  0  0  0  0  0
  191.1670  176.8300  146.8220 C   0  0  0  0  0  0  0  0  0  0  0  0
  189.6080  177.1850  144.5240 C   0  0  0  0  0  0  0  0  0  0  0  0
  190.7870  176.9460  141.9960 C   0  0  0  0  0  3  0  0  0  0  0  0
  191.7570  176.7040  145.5590 C   0  0  0  0  0  3  0  0  0  0  0  0
  191.5670  176.7670  143.1440 C   0  0  0  0  0  3  0  0  0  0  0  0
  191.9350  176.6530  147.9640 O   0  0  0  0  0  1  0  0  0  0  0  0
  189.8070  177.1350  146.9350 C   0  0  0  0  0  3  0  0  0  0  0  0
  189.4220  177.2380  142.1030 C   0  0  0  0  0  0  0  0  0  0  0  0
  1  2  1  0  0  0  0
  2 15  1  0  0  0  0
  3  4  1  0  0  0  0
  3  2  1  0  0  0  0
  4  5  1  0  0  0  0
  5  6  1  1  0  0  0
  5  7  1  0  0  0  0
  7  8  1  0  0  0  0
  8  9  1  0  0  0  0
  9 10  1  0  0  0  0
 10 11  1  0  0  0  0
 11 14  1  0  0  0  0
 11 12  1  1  0  0  0
 13 14  1  0  0  0  0
 15 16  1  0  0  0  0
 16 17  1  0  0  0  0
 17 28  1  0  0  0  0
 18 27  1  0  0  0  0
 19 22  1  0  0  0  0
 19 24  2  0  0  0  0
 20 22  1  0  0  0  0
 21 27  2  0  0  0  0
 21 26  1  0  0  0  0
 22 18  2  0  0  0  0
 23 28  1  0  0  0  0
 23 25  2  0  0  0  0
 24 21  1  0  0  0  0
 25 19  1  0  0  0  0
 28 20  2  0  0  0  0
M  END
>  <MODEL>
2

>  <REMARK>
 VINA RESULT:      -7.3      2.849      5.383
  Name = 
  13 active torsions:
  status: ('A' for Active; 'I' for Inactive)
    1  A    between atoms: C_1  and  C_2
    2  A    between atoms: C_1  and  C_26
    3  A    between atoms: C_2  and  O_3
    4  A    between atoms: O_3  and  C_7
    5  A    between atoms: C_5  and  N_20
    6  A    between atoms: C_5  and  N_27
    7  A    between atoms: C_6  and  C_11
    8  A    between atoms: C_6  and  C_28
    9  A    between atoms: C_7  and  C_28
   10  A    between atoms: C_19  and  N_21
   11  A    between atoms: C_19  and  C_26
   12  A    between atoms: N_20  and  C_25
   13  A    between atoms: N_21  and  N_27
                            x       y       z     vdW  Elec       q    Type
                         _______ _______ _______ _____ _____    ______ ____

>  <TORSDO>
F 13

$$$$
=
 OpenBabel10272401463D

 28 29  0  0  1  0  0  0  0  0999 V2000
  191.2670  175.9730  138.1920 C   0  0  0  0  0  1  0  0  0  0  0  0
  190.4070  177.0390  138.6860 N   0  0  0  0  0  0  0  0  0  0  0  0
  189.3460  177.2970  137.7070 C   0  0  0  0  0  2  0  0  0  0  0  0
  187.9380  177.2560  138.3190 C   0  0  0  0  0  2  0  0  0  0  0  0
  186.9180  177.9900  137.4580 C   0  0  2  0  0  3  0  0  0  0  0  0
  187.4360  179.2060  137.0100 O   0  0  0  0  0  1  0  0  0  0  0  0
  185.6240  178.2140  138.2220 C   0  0  0  0  0  2  0  0  0  0  0  0
  185.8580  179.0480  139.3150 O   0  0  0  0  0  0  0  0  0  0  0  0
  184.8590  178.7150  140.2280 C   0  0  0  0  0  2  0  0  0  0  0  0
  185.4120  178.7770  141.6430 C   0  0  0  0  0  2  0  0  0  0  0  0
  184.3360  178.6360  142.7230 C   0  0  2  0  0  3  0  0  0  0  0  0
  182.9230  178.6760  142.1580 C   0  0  0  0  0  1  0  0  0  0  0  0
  184.0880  178.9020  145.2430 C   0  0  0  0  0  1  0  0  0  0  0  0
  184.5340  179.5440  143.9380 C   0  0  0  0  0  2  0  0  0  0  0  0
  189.8180  176.5900  139.8800 N   0  0  0  0  0  2  0  0  0  0  0  0
  190.6300  177.0800  140.9870 C   0  0  0  0  0  2  0  0  0  0  0  0
  190.6180  176.1260  142.0900 N   0  0  0  0  0  2  0  0  0  0  0  0
  187.4690  177.5190  145.5660 C   0  0  0  0  0  3  0  0  0  0  0  0
  189.8090  177.1530  146.1200 C   0  0  0  0  0  0  0  0  0  0  0  0
  189.0230  176.8230  143.8430 C   0  0  0  0  0  3  0  0  0  0  0  0
  188.2490  177.8390  147.8400 C   0  0  0  0  0  0  0  0  0  0  0  0
  188.7610  177.1640  145.1720 C   0  0  0  0  0  0  0  0  0  0  0  0
  191.3580  176.4730  144.3890 C   0  0  0  0  0  3  0  0  0  0  0  0
  189.5470  177.4880  147.4520 C   0  0  0  0  0  3  0  0  0  0  0  0
  191.1030  176.8090  145.7230 C   0  0  0  0  0  3  0  0  0  0  0  0
  187.9890  178.1730  149.1610 O   0  0  0  0  0  1  0  0  0  0  0  0
  187.2140  177.8560  146.9000 C   0  0  0  0  0  3  0  0  0  0  0  0
  190.3230  176.4750  143.4460 C   0  0  0  0  0  0  0  0  0  0  0  0
  1  2  1  0  0  0  0
  2 15  1  0  0  0  0
  3  4  1  0  0  0  0
  3  2  1  0  0  0  0
  5  6  1  1  0  0  0
  5  7  1  0  0  0  0
  5  4  1  0  0  0  0
  7  8  1  0  0  0  0
  8  9  1  0  0  0  0
  9 10  1  0  0  0  0
 10 11  1  0  0  0  0
 11 12  1  6  0  0  0
 11 14  1  0  0  0  0
 14 13  1  0  0  0  0
 15 16  1  0  0  0  0
 16 17  1  0  0  0  0
 17 28  1  0  0  0  0
 18 27  1  0  0  0  0
 19 24  2  0  0  0  0
 20 22  1  0  0  0  0
 21 26  1  0  0  0  0
 22 18  2  0  0  0  0
 22 19  1  0  0  0  0
 23 25  2  0  0  0  0
 24 21  1  0  0  0  0
 25 19  1  0  0  0  0
 27 21  2  0  0  0  0
 28 20  2  0  0  0  0
 28 23  1  0  0  0  0
M  END
>  <MODEL>
3

>  <REMARK>
 VINA RESULT:      -7.1      3.484      5.925
  Name = 
  13 active torsions:
  status: ('A' for Active; 'I' for Inactive)
    1  A    between atoms: C_1  and  C_2
    2  A    between atoms: C_1  and  C_26
    3  A    between atoms: C_2  and  O_3
    4  A    between atoms: O_3  and  C_7
    5  A    between atoms: C_5  and  N_20
    6  A    between atoms: C_5  and  N_27
    7  A    between atoms: C_6  and  C_11
    8  A    between atoms: C_6  and  C_28
    9  A    between atoms: C_7  and  C_28
   10  A    between atoms: C_19  and  N_21
   11  A    between atoms: C_19  and  C_26
   12  A    between atoms: N_20  and  C_25
   13  A    between atoms: N_21  and  N_27
                            x       y       z     vdW  Elec       q    Type
                         _______ _______ _______ _____ _____    ______ ____

>  <TORSDO>
F 13

$$$$
=
 OpenBabel10272401463D

 28 29  0  0  1  0  0  0  0  0999 V2000
  192.3830  175.5150  147.0650 C   0  0  0  0  0  1  0  0  0  0  0  0
  191.9210  176.7840  146.5220 N   0  0  0  0  0  0  0  0  0  0  0  0
  191.1340  176.5340  145.3100 C   0  0  0  0  0  2  0  0  0  0  0  0
  191.4780  177.4910  144.1590 C   0  0  0  0  0  2  0  0  0  0  0  0
  191.4220  176.7990  142.8030 C   0  0  2  0  0  3  0  0  0  0  0  0
  192.1880  177.4930  141.8650 O   0  0  0  0  0  1  0  0  0  0  0  0
  189.9870  176.6660  142.3210 C   0  0  0  0  0  2  0  0  0  0  0  0
  189.6400  177.7780  141.5550 O   0  0  0  0  0  0  0  0  0  0  0  0
  189.1560  177.2420  140.3630 C   0  0  0  0  0  2  0  0  0  0  0  0
  188.2700  178.2600  139.6610 C   0  0  0  0  0  2  0  0  0  0  0  0
  188.2510  178.1030  138.1390 C   0  0  2  0  0  3  0  0  0  0  0  0
  189.0890  179.1540  137.4260 C   0  0  0  0  0  1  0  0  0  0  0  0
  186.5310  176.4790  137.1960 C   0  0  0  0  0  1  0  0  0  0  0  0
  186.8550  177.9250  137.5380 C   0  0  0  0  0  2  0  0  0  0  0  0
  191.0870  177.3790  147.4840 N   0  0  0  0  0  2  0  0  0  0  0  0
  189.7930  176.7110  147.4240 C   0  0  0  0  0  2  0  0  0  0  0  0
  188.7240  177.6370  147.7800 N   0  0  0  0  0  2  0  0  0  0  0  0
  186.5800  177.7200  143.3850 C   0  0  0  0  0  3  0  0  0  0  0  0
  185.3760  178.5220  145.3410 C   0  0  0  0  0  0  0  0  0  0  0  0
  187.6430  177.6700  145.5600 C   0  0  0  0  0  3  0  0  0  0  0  0
  184.3150  178.5610  143.1640 C   0  0  0  0  0  0  0  0  0  0  0  0
  186.5390  177.9670  144.7580 C   0  0  0  0  0  0  0  0  0  0  0  0
  186.4530  178.4840  147.5080 C   0  0  0  0  0  3  0  0  0  0  0  0
  184.2680  178.8140  144.5400 C   0  0  0  0  0  3  0  0  0  0  0  0
  185.3410  178.7800  146.7130 C   0  0  0  0  0  3  0  0  0  0  0  0
  183.2150  178.8510  142.3700 O   0  0  0  0  0  1  0  0  0  0  0  0
  185.4680  178.0170  142.5890 C   0  0  0  0  0  3  0  0  0  0  0  0
  187.6050  177.9280  146.9390 C   0  0  0  0  0  0  0  0  0  0  0  0
  2  1  1  0  0  0  0
  2 15  1  0  0  0  0
  3  2  1  0  0  0  0
  4  3  1  0  0  0  0
  5  6  1  6  0  0  0
  5  4  1  0  0  0  0
  7  5  1  0  0  0  0
  8  7  1  0  0  0  0
  9  8  1  0  0  0  0
 10  9  1  0  0  0  0
 11 12  1  6  0  0  0
 11 10  1  0  0  0  0
 13 14  1  0  0  0  0
 14 11  1  0  0  0  0
 16 15  1  0  0  0  0
 16 17  1  0  0  0  0
 18 22  1  0  0  0  0
 19 25  1  0  0  0  0
 20 28  2  0  0  0  0
 21 24  2  0  0  0  0
 22 19  2  0  0  0  0
 22 20  1  0  0  0  0
 24 19  1  0  0  0  0
 25 23  2  0  0  0  0
 26 21  1  0  0  0  0
 27 21  1  0  0  0  0
 27 18  2  0  0  0  0
 28 23  1  0  0  0  0
 28 17  1  0  0  0  0
M  END
>  <MODEL>
4

>  <REMARK>
 VINA RESULT:      -7.1      3.227      6.704
  Name = 
  13 active torsions:
  status: ('A' for Active; 'I' for Inactive)
    1  A    between atoms: C_1  and  C_2
    2  A    between atoms: C_1  and  C_26
    3  A    between atoms: C_2  and  O_3
    4  A    between atoms: O_3  and  C_7
    5  A    between atoms: C_5  and  N_20
    6  A    between atoms: C_5  and  N_27
    7  A    between atoms: C_6  and  C_11
    8  A    between atoms: C_6  and  C_28
    9  A    between atoms: C_7  and  C_28
   10  A    between atoms: C_19  and  N_21
   11  A    between atoms: C_19  and  C_26
   12  A    between atoms: N_20  and  C_25
   13  A    between atoms: N_21  and  N_27
                            x       y       z     vdW  Elec       q    Type
                         _______ _______ _______ _____ _____    ______ ____

>  <TORSDO>
F 13

$$$$
=
 OpenBabel10272401463D

 28 29  0  0  1  0  0  0  0  0999 V2000
  184.3530  179.4800  138.8320 C   0  0  0  0  0  1  0  0  0  0  0  0
  185.3580  178.4480  139.0420 N   0  0  0  0  0  0  0  0  0  0  0  0
  186.3350  178.4940  137.9490 C   0  0  0  0  0  2  0  0  0  0  0  0
  186.9460  177.1220  137.6280 C   0  0  0  0  0  2  0  0  0  0  0  0
  188.3620  177.2410  137.0770 C   0  0  2  0  0  3  0  0  0  0  0  0
  188.4380  176.6960  135.7940 O   0  0  0  0  0  1  0  0  0  0  0  0
  189.3610  176.5640  138.0000 C   0  0  0  0  0  2  0  0  0  0  0  0
  190.3640  177.4650  138.3550 O   0  0  0  0  0  0  0  0  0  0  0  0
  190.8410  176.9920  139.5770 C   0  0  0  0  0  2  0  0  0  0  0  0
  189.7900  177.1990  140.6560 C   0  0  0  0  0  2  0  0  0  0  0  0
  190.3570  177.1430  142.0760 C   0  0  2  0  0  3  0  0  0  0  0  0
  190.0490  175.8310  142.7850 C   0  0  0  0  0  1  0  0  0  0  0  0
  191.2480  178.8280  143.7650 C   0  0  0  0  0  1  0  0  0  0  0  0
  190.0600  178.3800  142.9270 C   0  0  0  0  0  2  0  0  0  0  0  0
  186.0190  178.7380  140.2480 N   0  0  0  0  0  2  0  0  0  0  0  0
  185.0100  179.1400  141.2200 C   0  0  0  0  0  2  0  0  0  0  0  0
  184.8220  178.0960  142.2210 N   0  0  0  0  0  2  0  0  0  0  0  0
  188.2720  177.2900  145.5940 C   0  0  0  0  0  3  0  0  0  0  0  0
  186.1890  178.3780  146.2210 C   0  0  0  0  0  0  0  0  0  0  0  0
  186.5700  177.6930  143.9190 C   0  0  0  0  0  3  0  0  0  0  0  0
  187.8980  177.9800  147.8890 C   0  0  0  0  0  0  0  0  0  0  0  0
  187.0150  177.7840  145.2400 C   0  0  0  0  0  0  0  0  0  0  0  0
  184.4870  178.7630  144.5440 C   0  0  0  0  0  3  0  0  0  0  0  0
  186.6370  178.4760  147.5420 C   0  0  0  0  0  3  0  0  0  0  0  0
  184.9280  178.8630  145.8680 C   0  0  0  0  0  3  0  0  0  0  0  0
  188.3420  178.0770  149.2010 O   0  0  0  0  0  1  0  0  0  0  0  0
  188.7120  177.3880  146.9190 C   0  0  0  0  0  3  0  0  0  0  0  0
  185.3030  178.1820  143.5660 C   0  0  0  0  0  0  0  0  0  0  0  0
  1  2  1  0  0  0  0
  2 15  1  0  0  0  0
  3  2  1  0  0  0  0
  4  3  1  0  0  0  0
  5  6  1  6  0  0  0
  5  4  1  0  0  0  0
  5  7  1  0  0  0  0
  7  8  1  0  0  0  0
  8  9  1  0  0  0  0
  9 10  1  0  0  0  0
 10 11  1  0  0  0  0
 11 12  1  1  0  0  0
 11 14  1  0  0  0  0
 14 13  1  0  0  0  0
 15 16  1  0  0  0  0
 16 17  1  0  0  0  0
 17 28  1  0  0  0  0
 18 27  1  0  0  0  0
 19 24  2  0  0  0  0
 20 22  1  0  0  0  0
 21 26  1  0  0  0  0
 22 18  2  0  0  0  0
 22 19  1  0  0  0  0
 23 25  2  0  0  0  0
 24 21  1  0  0  0  0
 25 19  1  0  0  0  0
 27 21  2  0  0  0  0
 28 20  2  0  0  0  0
 28 23  1  0  0  0  0
M  END
>  <MODEL>
5

>  <REMARK>
 VINA RESULT:      -7.0      2.647      3.571
  Name = 
  13 active torsions:
  status: ('A' for Active; 'I' for Inactive)
    1  A    between atoms: C_1  and  C_2
    2  A    between atoms: C_1  and  C_26
    3  A    between atoms: C_2  and  O_3
    4  A    between atoms: O_3  and  C_7
    5  A    between atoms: C_5  and  N_20
    6  A    between atoms: C_5  and  N_27
    7  A    between atoms: C_6  and  C_11
    8  A    between atoms: C_6  and  C_28
    9  A    between atoms: C_7  and  C_28
   10  A    between atoms: C_19  and  N_21
   11  A    between atoms: C_19  and  C_26
   12  A    between atoms: N_20  and  C_25
   13  A    between atoms: N_21  and  N_27
                            x       y       z     vdW  Elec       q    Type
                         _______ _______ _______ _____ _____    ______ ____

>  <TORSDO>
F 13

$$$$
=
 OpenBabel10272401463D

 28 29  0  0  1  0  0  0  0  0999 V2000
  191.5350  175.9730  143.6990 C   0  0  0  0  0  1  0  0  0  0  0  0
  191.8270  177.3960  143.8060 N   0  0  0  0  0  0  0  0  0  0  0  0
  190.7510  178.1600  143.1670 C   0  0  0  0  0  2  0  0  0  0  0  0
  189.6920  177.2690  142.5010 C   0  0  0  0  0  2  0  0  0  0  0  0
  189.1490  177.8860  141.2180 C   0  0  2  0  0  3  0  0  0  0  0  0
  187.7980  178.2070  141.3600 O   0  0  0  0  0  1  0  0  0  0  0  0
  189.3490  176.9490  140.0390 C   0  0  0  0  0  2  0  0  0  0  0  0
  190.5900  176.3210  140.1370 O   0  0  0  0  0  0  0  0  0  0  0  0
  191.3830  176.9620  139.1870 C   0  0  0  0  0  2  0  0  0  0  0  0
  190.9900  176.5020  137.7920 C   0  0  0  0  0  2  0  0  0  0  0  0
  192.0540  175.6320  137.1170 C   0  0  2  0  0  3  0  0  0  0  0  0
  193.3770  175.6250  137.8700 C   0  0  0  0  0  1  0  0  0  0  0  0
  191.8730  174.6490  134.7750 C   0  0  0  0  0  1  0  0  0  0  0  0
  192.2090  175.8720  135.6140 C   0  0  0  0  0  2  0  0  0  0  0  0
  191.8590  177.7210  145.1730 N   0  0  0  0  0  2  0  0  0  0  0  0
  191.5820  176.5030  145.9240 C   0  0  0  0  0  2  0  0  0  0  0  0
  190.7650  176.8020  147.0950 N   0  0  0  0  0  2  0  0  0  0  0  0
  186.6520  177.6870  144.6010 C   0  0  0  0  0  3  0  0  0  0  0  0
  186.7830  178.2410  146.9660 C   0  0  0  0  0  0  0  0  0  0  0  0
  188.6880  177.2410  145.8330 C   0  0  0  0  0  3  0  0  0  0  0  0
  184.7470  178.6760  145.7300 C   0  0  0  0  0  0  0  0  0  0  0  0
  187.3770  177.7200  145.7940 C   0  0  0  0  0  0  0  0  0  0  0  0
  188.8280  177.8060  148.1850 C   0  0  0  0  0  3  0  0  0  0  0  0
  185.4680  178.7150  146.9280 C   0  0  0  0  0  3  0  0  0  0  0  0
  187.5130  178.2830  148.1560 C   0  0  0  0  0  3  0  0  0  0  0  0
  183.4420  179.1470  145.6940 O   0  0  0  0  0  1  0  0  0  0  0  0
  185.3370  178.1660  144.5700 C   0  0  0  0  0  3  0  0  0  0  0  0
  189.4200  177.2820  147.0300 C   0  0  0  0  0  0  0  0  0  0  0  0
  1  2  1  0  0  0  0
  2 15  1  0  0  0  0
  3  2  1  0  0  0  0
  4  3  1  0  0  0  0
  5  6  1  1  0  0  0
  5  4  1  0  0  0  0
  7  8  1  0  0  0  0
  7  5  1  0  0  0  0
  9  8  1  0  0  0  0
 10  9  1  0  0  0  0
 11 10  1  0  0  0  0
 11 12  1  1  0  0  0
 13 14  1  0  0  0  0
 14 11  1  0  0  0  0
 15 16  1  0  0  0  0
 16 17  1  0  0  0  0
 18 22  1  0  0  0  0
 19 25  1  0  0  0  0
 20 28  2  0  0  0  0
 21 24  2  0  0  0  0
 22 20  1  0  0  0  0
 22 19  2  0  0  0  0
 24 19  1  0  0  0  0
 25 23  2  0  0  0  0
 26 21  1  0  0  0  0
 27 18  2  0  0  0  0
 27 21  1  0  0  0  0
 28 17  1  0  0  0  0
 28 23  1  0  0  0  0
M  END
>  <MODEL>
6

>  <REMARK>
 VINA RESULT:      -6.9      4.060      6.326
  Name = 
  13 active torsions:
  status: ('A' for Active; 'I' for Inactive)
    1  A    between atoms: C_1  and  C_2
    2  A    between atoms: C_1  and  C_26
    3  A    between atoms: C_2  and  O_3
    4  A    between atoms: O_3  and  C_7
    5  A    between atoms: C_5  and  N_20
    6  A    between atoms: C_5  and  N_27
    7  A    between atoms: C_6  and  C_11
    8  A    between atoms: C_6  and  C_28
    9  A    between atoms: C_7  and  C_28
   10  A    between atoms: C_19  and  N_21
   11  A    between atoms: C_19  and  C_26
   12  A    between atoms: N_20  and  C_25
   13  A    between atoms: N_21  and  N_27
                            x       y       z     vdW  Elec       q    Type
                         _______ _______ _______ _____ _____    ______ ____

>  <TORSDO>
F 13

$$$$
=
 OpenBabel10272401463D

 28 29  0  0  1  0  0  0  0  0999 V2000
  191.4310  175.8280  143.7490 C   0  0  0  0  0  1  0  0  0  0  0  0
  191.8280  177.2250  143.8530 N   0  0  0  0  0  0  0  0  0  0  0  0
  191.0420  178.0220  142.9050 C   0  0  0  0  0  2  0  0  0  0  0  0
  189.7900  177.2930  142.3960 C   0  0  0  0  0  2  0  0  0  0  0  0
  189.7350  177.2430  140.8750 C   0  0  2  0  0  3  0  0  0  0  0  0
  190.9500  177.6590  140.3250 O   0  0  0  0  0  1  0  0  0  0  0  0
  188.5950  178.0960  140.3450 C   0  0  0  0  0  2  0  0  0  0  0  0
  188.9780  178.7130  139.1550 O   0  0  0  0  0  0  0  0  0  0  0  0
  188.0460  178.2730  138.2170 C   0  0  0  0  0  2  0  0  0  0  0  0
  188.5050  176.9560  137.6110 C   0  0  0  0  0  2  0  0  0  0  0  0
  188.9410  177.0780  136.1490 C   0  0  2  0  0  3  0  0  0  0  0  0
  187.8960  176.5520  135.1750 C   0  0  0  0  0  1  0  0  0  0  0  0
  191.1700  176.3270  137.1250 C   0  0  0  0  0  1  0  0  0  0  0  0
  190.3540  176.5660  135.8640 C   0  0  0  0  0  2  0  0  0  0  0  0
  191.5300  177.6540  145.1570 N   0  0  0  0  0  2  0  0  0  0  0  0
  191.8050  176.5460  146.0630 C   0  0  0  0  0  2  0  0  0  0  0  0
  190.8370  176.5270  147.1530 N   0  0  0  0  0  2  0  0  0  0  0  0
  186.7880  177.5300  144.5980 C   0  0  0  0  0  3  0  0  0  0  0  0
  186.9340  178.1600  146.9430 C   0  0  0  0  0  0  0  0  0  0  0  0
  188.7920  177.0250  145.8610 C   0  0  0  0  0  3  0  0  0  0  0  0
  184.9290  178.6540  145.6770 C   0  0  0  0  0  0  0  0  0  0  0  0
  187.5070  177.5680  145.7940 C   0  0  0  0  0  0  0  0  0  0  0  0
  188.9470  177.6660  148.1920 C   0  0  0  0  0  3  0  0  0  0  0  0
  185.6450  178.6980  146.8790 C   0  0  0  0  0  3  0  0  0  0  0  0
  187.6580  178.2080  148.1360 C   0  0  0  0  0  3  0  0  0  0  0  0
  183.6510  179.1890  145.6140 O   0  0  0  0  0  1  0  0  0  0  0  0
  185.5000  178.0730  144.5400 C   0  0  0  0  0  3  0  0  0  0  0  0
  189.5180  177.0720  147.0610 C   0  0  0  0  0  0  0  0  0  0  0  0
  1  2  1  0  0  0  0
  2 15  1  0  0  0  0
  3  2  1  0  0  0  0
  4  3  1  0  0  0  0
  5  6  1  6  0  0  0
  5  4  1  0  0  0  0
  7  5  1  0  0  0  0
  8  7  1  0  0  0  0
  9  8  1  0  0  0  0
 10  9  1  0  0  0  0
 11 12  1  6  0  0  0
 11 10  1  0  0  0  0
 14 11  1  0  0  0  0
 14 13  1  0  0  0  0
 15 16  1  0  0  0  0
 16 17  1  0  0  0  0
 18 22  1  0  0  0  0
 19 25  1  0  0  0  0
 20 28  2  0  0  0  0
 21 24  2  0  0  0  0
 22 20  1  0  0  0  0
 22 19  2  0  0  0  0
 24 19  1  0  0  0  0
 25 23  2  0  0  0  0
 26 21  1  0  0  0  0
 27 18  2  0  0  0  0
 27 21  1  0  0  0  0
 28 17  1  0  0  0  0
 28 23  1  0  0  0  0
M  END
>  <MODEL>
7

>  <REMARK>
 VINA RESULT:      -6.8      3.876      6.347
  Name = 
  13 active torsions:
  status: ('A' for Active; 'I' for Inactive)
    1  A    between atoms: C_1  and  C_2
    2  A    between atoms: C_1  and  C_26
    3  A    between atoms: C_2  and  O_3
    4  A    between atoms: O_3  and  C_7
    5  A    between atoms: C_5  and  N_20
    6  A    between atoms: C_5  and  N_27
    7  A    between atoms: C_6  and  C_11
    8  A    between atoms: C_6  and  C_28
    9  A    between atoms: C_7  and  C_28
   10  A    between atoms: C_19  and  N_21
   11  A    between atoms: C_19  and  C_26
   12  A    between atoms: N_20  and  C_25
   13  A    between atoms: N_21  and  N_27
                            x       y       z     vdW  Elec       q    Type
                         _______ _______ _______ _____ _____    ______ ____

>  <TORSDO>
F 13

$$$$
=
 OpenBabel10272401463D

 28 29  0  0  1  0  0  0  0  0999 V2000
  184.7840  178.5460  139.8590 C   0  0  0  0  0  1  0  0  0  0  0  0
  185.9880  179.1620  140.3980 N   0  0  0  0  0  0  0  0  0  0  0  0
  185.9590  179.0820  141.8630 C   0  0  0  0  0  2  0  0  0  0  0  0
  184.9960  178.0070  142.3880 C   0  0  0  0  0  2  0  0  0  0  0  0
  184.0940  178.5380  143.4950 C   0  0  2  0  0  3  0  0  0  0  0  0
  182.7560  178.5060  143.0960 O   0  0  0  0  0  1  0  0  0  0  0  0
  184.4940  179.9500  143.8890 C   0  0  0  0  0  2  0  0  0  0  0  0
  185.1070  179.9370  145.1410 O   0  0  0  0  0  0  0  0  0  0  0  0
  184.7860  178.6900  145.6730 C   0  0  0  0  0  2  0  0  0  0  0  0
  185.7020  178.3780  146.8470 C   0  0  0  0  0  2  0  0  0  0  0  0
  187.0630  177.8220  146.4250 C   0  0  2  0  0  3  0  0  0  0  0  0
  186.9810  176.9230  145.2000 C   0  0  0  0  0  1  0  0  0  0  0  0
  188.6180  178.2700  148.3920 C   0  0  0  0  0  1  0  0  0  0  0  0
  187.8850  177.2220  147.5680 C   0  0  0  0  0  2  0  0  0  0  0  0
  187.0890  178.4250  139.9300 N   0  0  0  0  0  2  0  0  0  0  0  0
  188.2430  178.7850  140.7440 C   0  0  0  0  0  2  0  0  0  0  0  0
  189.0050  177.5940  141.1030 N   0  0  0  0  0  2  0  0  0  0  0  0
  191.7330  174.9290  144.1660 C   0  0  0  0  0  3  0  0  0  0  0  0
  190.8950  177.1040  144.8630 C   0  0  0  0  0  0  0  0  0  0  0  0
  190.3880  176.2480  142.6430 C   0  0  0  0  0  3  0  0  0  0  0  0
  192.2480  175.7840  146.3770 C   0  0  0  0  0  0  0  0  0  0  0  0
  191.0070  176.0880  143.8860 C   0  0  0  0  0  0  0  0  0  0  0  0
  189.5380  178.4070  143.3400 C   0  0  0  0  0  3  0  0  0  0  0  0
  191.5190  176.9470  146.1030 C   0  0  0  0  0  3  0  0  0  0  0  0
  190.1590  178.2580  144.5850 C   0  0  0  0  0  3  0  0  0  0  0  0
  192.8660  175.6290  147.6090 O   0  0  0  0  0  1  0  0  0  0  0  0
  192.3530  174.7780  145.4110 C   0  0  0  0  0  3  0  0  0  0  0  0
  189.6510  177.4090  142.3650 C   0  0  0  0  0  0  0  0  0  0  0  0
  1  2  1  0  0  0  0
  2  3  1  0  0  0  0
  3  4  1  0  0  0  0
  4  5  1  0  0  0  0
  5  6  1  6  0  0  0
  5  7  1  0  0  0  0
  7  8  1  0  0  0  0
  8  9  1  0  0  0  0
  9 10  1  0  0  0  0
 11 12  1  6  0  0  0
 11 10  1  0  0  0  0
 11 14  1  0  0  0  0
 14 13  1  0  0  0  0
 15  2  1  0  0  0  0
 15 16  1  0  0  0  0
 16 17  1  0  0  0  0
 17 28  1  0  0  0  0
 18 27  1  0  0  0  0
 19 24  2  0  0  0  0
 20 22  1  0  0  0  0
 21 26  1  0  0  0  0
 22 18  2  0  0  0  0
 22 19  1  0  0  0  0
 23 25  2  0  0  0  0
 24 21  1  0  0  0  0
 25 19  1  0  0  0  0
 27 21  2  0  0  0  0
 28 20  2  0  0  0  0
 28 23  1  0  0  0  0
M  END
>  <MODEL>
8

>  <REMARK>
 VINA RESULT:      -6.8      2.563      4.934
  Name = 
  13 active torsions:
  status: ('A' for Active; 'I' for Inactive)
    1  A    between atoms: C_1  and  C_2
    2  A    between atoms: C_1  and  C_26
    3  A    between atoms: C_2  and  O_3
    4  A    between atoms: O_3  and  C_7
    5  A    between atoms: C_5  and  N_20
    6  A    between atoms: C_5  and  N_27
    7  A    between atoms: C_6  and  C_11
    8  A    between atoms: C_6  and  C_28
    9  A    between atoms: C_7  and  C_28
   10  A    between atoms: C_19  and  N_21
   11  A    between atoms: C_19  and  C_26
   12  A    between atoms: N_20  and  C_25
   13  A    between atoms: N_21  and  N_27
                            x       y       z     vdW  Elec       q    Type
                         _______ _______ _______ _____ _____    ______ ____

>  <TORSDO>
F 13

$$$$
=
 OpenBabel10272401463D

 28 29  0  0  1  0  0  0  0  0999 V2000
  191.2500  179.4990  144.0000 C   0  0  0  0  0  1  0  0  0  0  0  0
  190.7820  178.1220  144.0780 N   0  0  0  0  0  0  0  0  0  0  0  0
  191.4430  177.3270  143.0380 C   0  0  0  0  0  2  0  0  0  0  0  0
  190.4540  176.5970  142.1170 C   0  0  0  0  0  2  0  0  0  0  0  0
  190.7010  176.9130  140.6480 C   0  0  2  0  0  3  0  0  0  0  0  0
  191.8680  177.6640  140.4950 O   0  0  0  0  0  1  0  0  0  0  0  0
  189.5160  177.6480  140.0450 C   0  0  0  0  0  2  0  0  0  0  0  0
  189.8970  178.2650  138.8540 O   0  0  0  0  0  0  0  0  0  0  0  0
  189.2340  177.5460  137.8610 C   0  0  0  0  0  2  0  0  0  0  0  0
  187.8550  177.1370  138.3530 C   0  0  0  0  0  2  0  0  0  0  0  0
  186.7130  177.8240  137.6000 C   0  0  2  0  0  3  0  0  0  0  0  0
  187.2050  178.7890  136.5310 C   0  0  0  0  0  1  0  0  0  0  0  0
  184.2200  177.9880  138.0970 C   0  0  0  0  0  1  0  0  0  0  0  0
  185.6240  178.4130  138.5000 C   0  0  0  0  0  2  0  0  0  0  0  0
  191.1550  177.6170  145.3350 N   0  0  0  0  0  2  0  0  0  0  0  0
  190.1380  176.6570  145.7460 C   0  0  0  0  0  2  0  0  0  0  0  0
  189.1770  177.2860  146.6460 N   0  0  0  0  0  2  0  0  0  0  0  0
  185.7610  178.0400  143.2260 C   0  0  0  0  0  3  0  0  0  0  0  0
  185.2380  178.4170  145.5720 C   0  0  0  0  0  0  0  0  0  0  0  0
  187.4540  177.6590  144.9160 C   0  0  0  0  0  3  0  0  0  0  0  0
  183.5480  178.7880  143.8790 C   0  0  0  0  0  0  0  0  0  0  0  0
  186.1550  178.0360  144.5660 C   0  0  0  0  0  0  0  0  0  0  0  0
  186.9410  178.0490  147.2520 C   0  0  0  0  0  3  0  0  0  0  0  0
  183.9370  178.7890  145.2230 C   0  0  0  0  0  3  0  0  0  0  0  0
  185.6370  178.4230  146.9110 C   0  0  0  0  0  3  0  0  0  0  0  0
  182.2560  179.1580  143.5330 O   0  0  0  0  0  1  0  0  0  0  0  0
  184.4570  178.4170  142.8840 C   0  0  0  0  0  3  0  0  0  0  0  0
  187.8520  177.6640  146.2620 C   0  0  0  0  0  0  0  0  0  0  0  0
  1  2  1  0  0  0  0
  2 15  1  0  0  0  0
  3  2  1  0  0  0  0
  4  3  1  0  0  0  0
  5  6  1  1  0  0  0
  5  4  1  0  0  0  0
  7  5  1  0  0  0  0
  8  7  1  0  0  0  0
  9 10  1  0  0  0  0
  9  8  1  0  0  0  0
 11 12  1  1  0  0  0
 11 10  1  0  0  0  0
 11 14  1  0  0  0  0
 13 14  1  0  0  0  0
 15 16  1  0  0  0  0
 16 17  1  0  0  0  0
 18 22  1  0  0  0  0
 19 25  1  0  0  0  0
 20 28  2  0  0  0  0
 21 24  2  0  0  0  0
 22 20  1  0  0  0  0
 22 19  2  0  0  0  0
 24 19  1  0  0  0  0
 25 23  2  0  0  0  0
 26 21  1  0  0  0  0
 27 18  2  0  0  0  0
 27 21  1  0  0  0  0
 28 17  1  0  0  0  0
 28 23  1  0  0  0  0
M  END
>  <MODEL>
9

>  <REMARK>
 VINA RESULT:      -6.7      3.348      6.523
  Name = 
  13 active torsions:
  status: ('A' for Active; 'I' for Inactive)
    1  A    between atoms: C_1  and  C_2
    2  A    between atoms: C_1  and  C_26
    3  A    between atoms: C_2  and  O_3
    4  A    between atoms: O_3  and  C_7
    5  A    between atoms: C_5  and  N_20
    6  A    between atoms: C_5  and  N_27
    7  A    between atoms: C_6  and  C_11
    8  A    between atoms: C_6  and  C_28
    9  A    between atoms: C_7  and  C_28
   10  A    between atoms: C_19  and  N_21
   11  A    between atoms: C_19  and  C_26
   12  A    between atoms: N_20  and  C_25
   13  A    between atoms: N_21  and  N_27
                            x       y       z     vdW  Elec       q    Type
                         _______ _______ _______ _____ _____    ______ ____

>  <TORSDO>
F 13

$$$$
