=
 OpenBabel10272400133D

 34 38  0  0  1  0  0  0  0  0999 V2000
  190.0960  177.1370  146.7300 C   0  0  0  0  0  0  0  0  0  0  0  0
  191.5020  175.7910  145.2830 C   0  0  0  0  0  0  0  0  0  0  0  0
  189.5640  177.1100  144.3340 C   0  0  0  0  0  0  0  0  0  0  0  0
  188.9940  177.3860  141.9730 C   0  0  0  0  0  0  0  0  0  0  0  0
  190.9650  176.8930  147.7970 C   0  0  0  0  0  3  0  0  0  0  0  0
  192.3660  175.5630  146.3580 C   0  0  0  0  0  3  0  0  0  0  0  0
  191.4360  177.1330  142.5810 C   0  0  0  0  0  2  0  0  0  0  0  0
  190.4150  176.6990  145.4150 C   0  0  0  0  0  0  0  0  0  0  0  0
  191.7120  177.6060  141.1580 C   0  0  0  0  0  2  0  0  0  0  0  0
  189.3360  177.4380  140.5090 C   0  0  0  0  0  2  0  0  0  0  0  0
  192.1160  176.1350  147.6030 C   0  0  0  0  0  3  0  0  0  0  0  0
  188.2640  177.6020  144.6510 C   0  0  0  0  0  0  0  0  0  0  0  0
  188.8830  177.7580  146.9940 C   0  0  0  0  0  3  0  0  0  0  0  0
  191.6810  175.0170  144.1440 O   0  0  0  0  0  1  0  0  0  0  0  0
  187.7230  177.6910  142.3280 N   0  0  0  0  0  0  0  0  0  0  0  0
  187.3220  177.8200  143.6180 C   0  0  0  0  0  0  0  0  0  0  0  0
  190.7410  176.9280  140.2110 C   0  0  1  0  0  3  0  0  0  0  0  0
  189.9710  177.1600  142.9700 C   0  0  0  0  0  0  0  0  0  0  0  0
  187.9630  177.9490  145.9740 C   0  0  0  0  0  3  0  0  0  0  0  0
  183.6680  178.5950  142.9940 C   0  0  0  0  0  0  0  0  0  0  0  0
  183.2040  178.8520  144.2850 C   0  0  0  0  0  3  0  0  0  0  0  0
  185.9080  178.2070  143.8640 C   0  0  0  0  0  0  0  0  0  0  0  0
  184.0820  178.7800  145.3690 C   0  0  0  0  0  3  0  0  0  0  0  0
  185.0110  178.2690  142.7860 C   0  0  0  0  0  3  0  0  0  0  0  0
  185.4240  178.4530  145.1590 C   0  0  0  0  0  3  0  0  0  0  0  0
  182.8160  178.6580  141.9420 F   0  0  0  0  0  0  0  0  0  0  0  0
  191.1240  177.2530  138.7780 C   0  0  0  0  0  2  0  0  0  0  0  0
  190.6920  176.1330  137.8490 C   0  0  0  0  0  2  0  0  0  0  0  0
  191.5280  173.9180  137.6680 O   0  0  0  0  0  0  0  0  0  0  0  0
  195.4490  175.3700  137.4270 O   0  0  0  0  0  0  0  0  0  0  0  0
  194.3230  174.8100  137.4800 C   0  0  0  0  0  0  0  0  0  0  0  0
  193.1470  175.6180  137.6160 N   0  0  0  0  0  2  0  0  0  0  0  0
  191.7960  175.1490  137.6960 C   0  0  0  0  0  0  0  0  0  0  0  0
  194.2590  173.3220  137.3960 C   0  0  0  0  0  1  0  0  0  0  0  0
  1 13  1  0  0  0  0
  1  5  2  0  0  0  0
  2  8  2  0  0  0  0
  2  6  1  0  0  0  0
  3 12  1  0  0  0  0
  3  8  1  0  0  0  0
  4 15  2  0  0  0  0
  4 18  1  0  0  0  0
  6 11  2  0  0  0  0
  7 18  1  0  0  0  0
  8  1  1  0  0  0  0
  9  7  1  0  0  0  0
 10  4  1  0  0  0  0
 11  5  1  0  0  0  0
 12 19  1  0  0  0  0
 14  2  1  0  0  0  0
 15 16  1  0  0  0  0
 16 22  1  0  0  0  0
 16 12  2  0  0  0  0
 17 27  1  6  0  0  0
 17 10  1  0  0  0  0
 17  9  1  0  0  0  0
 18  3  2  0  0  0  0
 19 13  2  0  0  0  0
 20 21  1  0  0  0  0
 21 23  2  0  0  0  0
 22 25  2  0  0  0  0
 24 20  2  0  0  0  0
 24 22  1  0  0  0  0
 25 23  1  0  0  0  0
 26 20  1  0  0  0  0
 28 27  1  0  0  0  0
 29 33  2  0  0  0  0
 30 31  2  0  0  0  0
 31 32  1  0  0  0  0
 32 33  1  0  0  0  0
 33 28  1  0  0  0  0
 34 31  1  0  0  0  0
M  END
>  <MODEL>
1

>  <REMARK>
 VINA RESULT:     -11.8      0.000      0.000
  Name = 
  4 active torsions:
  status: ('A' for Active; 'I' for Inactive)
    1  A    between atoms: C_3  and  C_13
    2  A    between atoms: C_3  and  C_29
    3  A    between atoms: C_12  and  C_28
    4  A    between atoms: C_13  and  C_33
                            x       y       z     vdW  Elec       q    Type
                         _______ _______ _______ _____ _____    ______ ____

>  <TORSDO>
F 4

$$$$
=
 OpenBabel10272400133D

 34 38  0  0  1  0  0  0  0  0999 V2000
  190.0750  177.1470  146.6770 C   0  0  0  0  0  0  0  0  0  0  0  0
  191.4700  175.7850  145.2340 C   0  0  0  0  0  0  0  0  0  0  0  0
  189.5270  177.0970  144.2850 C   0  0  0  0  0  0  0  0  0  0  0  0
  188.9420  177.3490  141.9250 C   0  0  0  0  0  0  0  0  0  0  0  0
  190.9500  176.9140  147.7400 C   0  0  0  0  0  3  0  0  0  0  0  0
  192.3410  175.5670  146.3070 C   0  0  0  0  0  3  0  0  0  0  0  0
  191.3880  177.1000  142.5190 C   0  0  0  0  0  2  0  0  0  0  0  0
  190.3850  176.6960  145.3640 C   0  0  0  0  0  0  0  0  0  0  0  0
  191.6560  177.5580  141.0900 C   0  0  0  0  0  2  0  0  0  0  0  0
  189.2750  177.3860  140.4580 C   0  0  0  0  0  2  0  0  0  0  0  0
  192.0990  176.1530  147.5470 C   0  0  0  0  0  3  0  0  0  0  0  0
  188.2300  177.5930  144.6050 C   0  0  0  0  0  0  0  0  0  0  0  0
  188.8640  177.7720  146.9420 C   0  0  0  0  0  3  0  0  0  0  0  0
  191.6410  175.0000  144.1020 O   0  0  0  0  0  1  0  0  0  0  0  0
  187.6740  177.6590  142.2850 N   0  0  0  0  0  0  0  0  0  0  0  0
  187.2820  177.8020  143.5760 C   0  0  0  0  0  0  0  0  0  0  0  0
  190.6780  176.8720  140.1560 C   0  0  1  0  0  3  0  0  0  0  0  0
  189.9250  177.1330  142.9180 C   0  0  0  0  0  0  0  0  0  0  0  0
  187.9380  177.9540  145.9270 C   0  0  0  0  0  3  0  0  0  0  0  0
  183.6180  178.5460  142.9730 C   0  0  0  0  0  0  0  0  0  0  0  0
  183.1690  178.8440  144.2610 C   0  0  0  0  0  3  0  0  0  0  0  0
  185.8690  178.1930  143.8270 C   0  0  0  0  0  0  0  0  0  0  0  0
  184.0610  178.8100  145.3360 C   0  0  0  0  0  3  0  0  0  0  0  0
  184.9590  178.2170  142.7590 C   0  0  0  0  0  3  0  0  0  0  0  0
  185.4020  178.4800  145.1200 C   0  0  0  0  0  3  0  0  0  0  0  0
  182.7520  178.5720  141.9310 F   0  0  0  0  0  0  0  0  0  0  0  0
  191.0520  177.1820  138.7180 C   0  0  0  0  0  2  0  0  0  0  0  0
  191.4640  175.9120  137.9940 C   0  0  0  0  0  2  0  0  0  0  0  0
  190.2630  173.8960  137.6390 O   0  0  0  0  0  0  0  0  0  0  0  0
  186.9700  176.0540  136.2130 O   0  0  0  0  0  0  0  0  0  0  0  0
  187.8830  175.2950  136.6280 C   0  0  0  0  0  0  0  0  0  0  0  0
  189.1160  175.8670  137.0800 N   0  0  0  0  0  2  0  0  0  0  0  0
  190.2550  175.1540  137.5760 C   0  0  0  0  0  0  0  0  0  0  0  0
  187.6420  173.8220  136.6330 C   0  0  0  0  0  1  0  0  0  0  0  0
  1 13  1  0  0  0  0
  1  5  2  0  0  0  0
  2  8  2  0  0  0  0
  2  6  1  0  0  0  0
  3 12  1  0  0  0  0
  3  8  1  0  0  0  0
  4 15  2  0  0  0  0
  4 18  1  0  0  0  0
  6 11  2  0  0  0  0
  7 18  1  0  0  0  0
  8  1  1  0  0  0  0
  9  7  1  0  0  0  0
 10  4  1  0  0  0  0
 11  5  1  0  0  0  0
 12 19  1  0  0  0  0
 14  2  1  0  0  0  0
 15 16  1  0  0  0  0
 16 22  1  0  0  0  0
 16 12  2  0  0  0  0
 17 27  1  6  0  0  0
 17 10  1  0  0  0  0
 17  9  1  0  0  0  0
 18  3  2  0  0  0  0
 19 13  2  0  0  0  0
 20 21  1  0  0  0  0
 21 23  2  0  0  0  0
 22 25  2  0  0  0  0
 24 20  2  0  0  0  0
 24 22  1  0  0  0  0
 25 23  1  0  0  0  0
 26 20  1  0  0  0  0
 28 27  1  0  0  0  0
 30 31  2  0  0  0  0
 31 34  1  0  0  0  0
 31 32  1  0  0  0  0
 32 33  1  0  0  0  0
 33 29  2  0  0  0  0
 33 28  1  0  0  0  0
M  END
>  <MODEL>
2

>  <REMARK>
 VINA RESULT:     -11.7      1.474      2.315
  Name = 
  4 active torsions:
  status: ('A' for Active; 'I' for Inactive)
    1  A    between atoms: C_3  and  C_13
    2  A    between atoms: C_3  and  C_29
    3  A    between atoms: C_12  and  C_28
    4  A    between atoms: C_13  and  C_33
                            x       y       z     vdW  Elec       q    Type
                         _______ _______ _______ _____ _____    ______ ____

>  <TORSDO>
F 4

$$$$
=
 OpenBabel10272400133D

 34 38  0  0  1  0  0  0  0  0999 V2000
  187.0250  178.4620  147.1050 C   0  0  0  0  0  0  0  0  0  0  0  0
  188.9680  177.1110  146.5720 C   0  0  0  0  0  0  0  0  0  0  0  0
  187.4570  177.9770  144.7380 C   0  0  0  0  0  0  0  0  0  0  0  0
  187.8200  177.7890  142.3280 C   0  0  0  0  0  0  0  0  0  0  0  0
  187.4310  178.5160  148.4400 C   0  0  0  0  0  3  0  0  0  0  0  0
  189.3650  177.1820  147.9110 C   0  0  0  0  0  3  0  0  0  0  0  0
  189.8520  177.9810  143.8210 C   0  0  0  0  0  2  0  0  0  0  0  0
  187.8530  177.8680  146.1130 C   0  0  0  0  0  0  0  0  0  0  0  0
  190.6210  178.2540  142.5330 C   0  0  0  0  0  2  0  0  0  0  0  0
  188.6950  177.6540  141.1110 C   0  0  0  0  0  2  0  0  0  0  0  0
  188.6180  177.9050  148.8360 C   0  0  0  0  0  3  0  0  0  0  0  0
  186.1050  178.3270  144.4540 C   0  0  0  0  0  0  0  0  0  0  0  0
  185.7630  178.9410  146.7780 C   0  0  0  0  0  3  0  0  0  0  0  0
  189.6240  176.1980  145.7570 O   0  0  0  0  0  1  0  0  0  0  0  0
  186.4930  177.9670  142.1260 N   0  0  0  0  0  0  0  0  0  0  0  0
  185.6190  178.2430  143.1270 C   0  0  0  0  0  0  0  0  0  0  0  0
  190.1380  177.3040  141.4550 C   0  0  1  0  0  3  0  0  0  0  0  0
  188.3520  177.8650  143.6360 C   0  0  0  0  0  0  0  0  0  0  0  0
  185.2950  178.8360  145.4770 C   0  0  0  0  0  3  0  0  0  0  0  0
  182.4480  178.4160  141.0650 C   0  0  0  0  0  0  0  0  0  0  0  0
  181.5010  178.7830  142.0230 C   0  0  0  0  0  3  0  0  0  0  0  0
  184.1960  178.4630  142.7570 C   0  0  0  0  0  0  0  0  0  0  0  0
  181.8920  178.9820  143.3490 C   0  0  0  0  0  3  0  0  0  0  0  0
  183.7860  178.2520  141.4310 C   0  0  0  0  0  3  0  0  0  0  0  0
  183.2310  178.8170  143.7140 C   0  0  0  0  0  3  0  0  0  0  0  0
  182.0690  178.2160  139.7790 F   0  0  0  0  0  0  0  0  0  0  0  0
  191.0180  177.4460  140.2260 C   0  0  0  0  0  2  0  0  0  0  0  0
  190.3010  176.9150  138.9980 C   0  0  0  0  0  2  0  0  0  0  0  0
  190.6720  174.7500  138.0960 O   0  0  0  0  0  0  0  0  0  0  0  0
  194.5960  175.7970  137.0770 O   0  0  0  0  0  0  0  0  0  0  0  0
  193.4410  175.3640  137.3220 C   0  0  0  0  0  0  0  0  0  0  0  0
  192.4940  176.2260  137.9660 N   0  0  0  0  0  2  0  0  0  0  0  0
  191.1460  175.8960  138.3210 C   0  0  0  0  0  0  0  0  0  0  0  0
  193.1030  173.9650  136.9300 C   0  0  0  0  0  1  0  0  0  0  0  0
  1  5  2  0  0  0  0
  2  6  1  0  0  0  0
  3  8  1  0  0  0  0
  4 18  1  0  0  0  0
  5 11  1  0  0  0  0
  6 11  2  0  0  0  0
  8  2  2  0  0  0  0
  8  1  1  0  0  0  0
  9  7  1  0  0  0  0
 10 17  1  0  0  0  0
 10  4  1  0  0  0  0
 12  3  1  0  0  0  0
 12 19  1  0  0  0  0
 13  1  1  0  0  0  0
 14  2  1  0  0  0  0
 15  4  2  0  0  0  0
 15 16  1  0  0  0  0
 16 12  2  0  0  0  0
 17 27  1  6  0  0  0
 17  9  1  0  0  0  0
 18  7  1  0  0  0  0
 18  3  2  0  0  0  0
 19 13  2  0  0  0  0
 20 24  2  0  0  0  0
 20 21  1  0  0  0  0
 21 23  2  0  0  0  0
 22 16  1  0  0  0  0
 22 25  2  0  0  0  0
 23 25  1  0  0  0  0
 24 22  1  0  0  0  0
 26 20  1  0  0  0  0
 28 27  1  0  0  0  0
 29 33  2  0  0  0  0
 30 31  2  0  0  0  0
 31 32  1  0  0  0  0
 32 33  1  0  0  0  0
 33 28  1  0  0  0  0
 34 31  1  0  0  0  0
M  END
>  <MODEL>
3

>  <REMARK>
 VINA RESULT:     -11.3      1.518      2.364
  Name = 
  4 active torsions:
  status: ('A' for Active; 'I' for Inactive)
    1  A    between atoms: C_3  and  C_13
    2  A    between atoms: C_3  and  C_29
    3  A    between atoms: C_12  and  C_28
    4  A    between atoms: C_13  and  C_33
                            x       y       z     vdW  Elec       q    Type
                         _______ _______ _______ _____ _____    ______ ____

>  <TORSDO>
F 4

$$$$
=
 OpenBabel10272400133D

 34 38  0  0  1  0  0  0  0  0999 V2000
  191.3070  176.0890  145.1390 C   0  0  0  0  0  0  0  0  0  0  0  0
  190.0990  177.4280  146.7610 C   0  0  0  0  0  0  0  0  0  0  0  0
  189.2480  177.1960  144.3910 C   0  0  0  0  0  0  0  0  0  0  0  0
  187.1290  178.0340  143.5060 C   0  0  0  0  0  0  0  0  0  0  0  0
  192.1610  175.6390  146.1490 C   0  0  0  0  0  3  0  0  0  0  0  0
  190.9570  176.9630  147.7620 C   0  0  0  0  0  3  0  0  0  0  0  0
  187.2000  177.3210  145.9310 C   0  0  0  0  0  2  0  0  0  0  0  0
  190.1740  176.8920  145.4450 C   0  0  0  0  0  0  0  0  0  0  0  0
  185.6780  177.3800  145.8660 C   0  0  0  0  0  2  0  0  0  0  0  0
  185.6920  178.4590  143.6450 C   0  0  0  0  0  2  0  0  0  0  0  0
  191.9650  176.0490  147.4650 C   0  0  0  0  0  3  0  0  0  0  0  0
  189.6780  177.0140  143.0450 C   0  0  0  0  0  0  0  0  0  0  0  0
  191.6260  175.7900  143.8210 C   0  0  0  0  0  3  0  0  0  0  0  0
  189.2700  178.4960  147.0760 O   0  0  0  0  0  1  0  0  0  0  0  0
  187.6490  177.9930  142.2560 N   0  0  0  0  0  0  0  0  0  0  0  0
  188.8800  177.4940  141.9790 C   0  0  0  0  0  0  0  0  0  0  0  0
  185.2610  178.6200  145.0990 C   0  0  1  0  0  3  0  0  0  0  0  0
  187.8880  177.5650  144.6020 C   0  0  0  0  0  0  0  0  0  0  0  0
  190.8440  176.2820  142.7870 C   0  0  0  0  0  3  0  0  0  0  0  0
  189.1760  178.4100  138.3170 C   0  0  0  0  0  0  0  0  0  0  0  0
  190.1410  177.5050  137.8700 C   0  0  0  0  0  3  0  0  0  0  0  0
  189.3060  177.4630  140.5550 C   0  0  0  0  0  0  0  0  0  0  0  0
  190.6980  176.5840  138.7610 C   0  0  0  0  0  3  0  0  0  0  0  0
  188.7660  178.3930  139.6530 C   0  0  0  0  0  3  0  0  0  0  0  0
  190.2870  176.5680  140.0970 C   0  0  0  0  0  3  0  0  0  0  0  0
  188.6400  179.3080  137.4550 F   0  0  0  0  0  0  0  0  0  0  0  0
  183.7540  178.7820  145.1830 C   0  0  0  0  0  2  0  0  0  0  0  0
  183.2620  179.7220  144.0960 C   0  0  0  0  0  2  0  0  0  0  0  0
  181.0780  178.8010  143.9620 O   0  0  0  0  0  0  0  0  0  0  0  0
  181.6300  177.9680  139.8950 O   0  0  0  0  0  0  0  0  0  0  0  0
  181.3370  178.1730  141.1010 C   0  0  0  0  0  0  0  0  0  0  0  0
  182.3050  178.7880  141.9600 N   0  0  0  0  0  2  0  0  0  0  0  0
  182.1420  179.0890  143.3510 C   0  0  0  0  0  0  0  0  0  0  0  0
  179.9870  177.7670  141.5900 C   0  0  0  0  0  1  0  0  0  0  0  0
  1  8  1  0  0  0  0
  1  5  2  0  0  0  0
  2 14  1  0  0  0  0
  2  6  1  0  0  0  0
  3 18  1  0  0  0  0
  3  8  1  0  0  0  0
  4 10  1  0  0  0  0
  4 18  2  0  0  0  0
  5 11  1  0  0  0  0
  8  2  2  0  0  0  0
  9  7  1  0  0  0  0
 10 17  1  0  0  0  0
 11  6  2  0  0  0  0
 12  3  2  0  0  0  0
 13  1  1  0  0  0  0
 15  4  1  0  0  0  0
 16 15  2  0  0  0  0
 16 12  1  0  0  0  0
 17 27  1  6  0  0  0
 17  9  1  0  0  0  0
 18  7  1  0  0  0  0
 19 12  1  0  0  0  0
 19 13  2  0  0  0  0
 20 24  1  0  0  0  0
 21 20  2  0  0  0  0
 21 23  1  0  0  0  0
 22 16  1  0  0  0  0
 23 25  2  0  0  0  0
 24 22  2  0  0  0  0
 25 22  1  0  0  0  0
 26 20  1  0  0  0  0
 28 27  1  0  0  0  0
 30 31  2  0  0  0  0
 31 34  1  0  0  0  0
 31 32  1  0  0  0  0
 32 33  1  0  0  0  0
 33 29  2  0  0  0  0
 33 28  1  0  0  0  0
M  END
>  <MODEL>
4

>  <REMARK>
 VINA RESULT:     -11.2      3.669      7.627
  Name = 
  4 active torsions:
  status: ('A' for Active; 'I' for Inactive)
    1  A    between atoms: C_3  and  C_13
    2  A    between atoms: C_3  and  C_29
    3  A    between atoms: C_12  and  C_28
    4  A    between atoms: C_13  and  C_33
                            x       y       z     vdW  Elec       q    Type
                         _______ _______ _______ _____ _____    ______ ____

>  <TORSDO>
F 4

$$$$
=
 OpenBabel10272400133D

 34 38  0  0  1  0  0  0  0  0999 V2000
  187.2180  178.4000  147.1940 C   0  0  0  0  0  0  0  0  0  0  0  0
  189.1410  177.0730  146.5430 C   0  0  0  0  0  0  0  0  0  0  0  0
  187.5400  177.9660  144.8000 C   0  0  0  0  0  0  0  0  0  0  0  0
  187.7900  177.8280  142.3720 C   0  0  0  0  0  0  0  0  0  0  0  0
  187.6870  178.4310  148.5100 C   0  0  0  0  0  3  0  0  0  0  0  0
  189.6010  177.1190  147.8630 C   0  0  0  0  0  3  0  0  0  0  0  0
  189.8900  178.0020  143.7710 C   0  0  0  0  0  2  0  0  0  0  0  0
  188.0020  177.8320  146.1530 C   0  0  0  0  0  0  0  0  0  0  0  0
  190.5950  178.3060  142.4540 C   0  0  0  0  0  2  0  0  0  0  0  0
  188.6070  177.7230  141.1130 C   0  0  0  0  0  2  0  0  0  0  0  0
  188.8950  177.8190  148.8360 C   0  0  0  0  0  3  0  0  0  0  0  0
  186.1750  178.3130  144.5870 C   0  0  0  0  0  0  0  0  0  0  0  0
  185.9400  178.8780  146.9370 C   0  0  0  0  0  3  0  0  0  0  0  0
  189.7620  176.1800  145.6800 O   0  0  0  0  0  1  0  0  0  0  0  0
  186.4540  178.0010  142.2370 N   0  0  0  0  0  0  0  0  0  0  0  0
  185.6270  178.2520  143.2830 C   0  0  0  0  0  0  0  0  0  0  0  0
  190.0670  177.3750  141.3810 C   0  0  1  0  0  3  0  0  0  0  0  0
  188.3830  177.8810  143.6550 C   0  0  0  0  0  0  0  0  0  0  0  0
  185.4110  178.7960  145.6580 C   0  0  0  0  0  3  0  0  0  0  0  0
  182.3630  178.4580  141.3740 C   0  0  0  0  0  0  0  0  0  0  0  0
  181.4590  178.7890  142.3850 C   0  0  0  0  0  3  0  0  0  0  0  0
  184.1870  178.4710  142.9860 C   0  0  0  0  0  0  0  0  0  0  0  0
  181.9090  178.9530  143.6970 C   0  0  0  0  0  3  0  0  0  0  0  0
  183.7180  178.2950  141.6740 C   0  0  0  0  0  3  0  0  0  0  0  0
  183.2640  178.7880  143.9960 C   0  0  0  0  0  3  0  0  0  0  0  0
  181.9270  178.2930  140.1020 F   0  0  0  0  0  0  0  0  0  0  0  0
  190.8870  177.5460  140.1150 C   0  0  0  0  0  2  0  0  0  0  0  0
  190.7300  176.3330  139.2160 C   0  0  0  0  0  2  0  0  0  0  0  0
  190.1020  175.9810  136.9540 O   0  0  0  0  0  0  0  0  0  0  0  0
  187.8910  179.5380  136.9660 O   0  0  0  0  0  0  0  0  0  0  0  0
  188.5090  178.4500  136.8370 C   0  0  0  0  0  0  0  0  0  0  0  0
  189.2500  177.9310  137.9480 N   0  0  0  0  0  2  0  0  0  0  0  0
  190.0090  176.7160  137.9730 C   0  0  0  0  0  0  0  0  0  0  0  0
  188.4440  177.7410  135.5260 C   0  0  0  0  0  1  0  0  0  0  0  0
  1  5  2  0  0  0  0
  2  6  1  0  0  0  0
  3  8  1  0  0  0  0
  4 18  1  0  0  0  0
  5 11  1  0  0  0  0
  6 11  2  0  0  0  0
  8  2  2  0  0  0  0
  8  1  1  0  0  0  0
  9  7  1  0  0  0  0
 10 17  1  0  0  0  0
 10  4  1  0  0  0  0
 12  3  1  0  0  0  0
 12 19  1  0  0  0  0
 13  1  1  0  0  0  0
 14  2  1  0  0  0  0
 15  4  2  0  0  0  0
 15 16  1  0  0  0  0
 16 12  2  0  0  0  0
 17 27  1  6  0  0  0
 17  9  1  0  0  0  0
 18  7  1  0  0  0  0
 18  3  2  0  0  0  0
 19 13  2  0  0  0  0
 20 24  2  0  0  0  0
 20 21  1  0  0  0  0
 21 23  2  0  0  0  0
 22 16  1  0  0  0  0
 22 25  2  0  0  0  0
 23 25  1  0  0  0  0
 24 22  1  0  0  0  0
 26 20  1  0  0  0  0
 28 27  1  0  0  0  0
 29 33  2  0  0  0  0
 31 30  2  0  0  0  0
 31 32  1  0  0  0  0
 32 33  1  0  0  0  0
 33 28  1  0  0  0  0
 34 31  1  0  0  0  0
M  END
>  <MODEL>
5

>  <REMARK>
 VINA RESULT:     -11.0      2.233      3.320
  Name = 
  4 active torsions:
  status: ('A' for Active; 'I' for Inactive)
    1  A    between atoms: C_3  and  C_13
    2  A    between atoms: C_3  and  C_29
    3  A    between atoms: C_12  and  C_28
    4  A    between atoms: C_13  and  C_33
                            x       y       z     vdW  Elec       q    Type
                         _______ _______ _______ _____ _____    ______ ____

>  <TORSDO>
F 4

$$$$
=
 OpenBabel10272400133D

 34 38  0  0  1  0  0  0  0  0999 V2000
  186.8490  177.4890  144.7810 C   0  0  0  0  0  0  0  0  0  0  0  0
  185.0380  179.0950  144.6270 C   0  0  0  0  0  0  0  0  0  0  0  0
  186.2030  178.2610  142.5420 C   0  0  0  0  0  0  0  0  0  0  0  0
  185.5830  178.7370  140.2260 C   0  0  0  0  0  0  0  0  0  0  0  0
  186.6000  177.3420  146.1470 C   0  0  0  0  0  3  0  0  0  0  0  0
  184.7960  178.9300  145.9940 C   0  0  0  0  0  3  0  0  0  0  0  0
  183.7330  178.6180  141.9470 C   0  0  0  0  0  2  0  0  0  0  0  0
  185.9890  178.2710  143.9620 C   0  0  0  0  0  0  0  0  0  0  0  0
  182.7900  178.5660  140.7510 C   0  0  0  0  0  2  0  0  0  0  0  0
  184.5940  179.0940  139.1500 C   0  0  0  0  0  2  0  0  0  0  0  0
  185.5530  178.0360  146.7460 C   0  0  0  0  0  3  0  0  0  0  0  0
  187.4580  177.7950  142.0550 C   0  0  0  0  0  0  0  0  0  0  0  0
  187.9950  176.9100  144.2520 C   0  0  0  0  0  3  0  0  0  0  0  0
  184.4070  180.1540  143.9880 O   0  0  0  0  0  1  0  0  0  0  0  0
  186.8450  178.4360  139.8390 N   0  0  0  0  0  0  0  0  0  0  0  0
  187.7900  177.9620  140.6890 C   0  0  0  0  0  0  0  0  0  0  0  0
  183.2550  179.5630  139.7070 C   0  0  1  0  0  3  0  0  0  0  0  0
  185.2040  178.5860  141.5800 C   0  0  0  0  0  0  0  0  0  0  0  0
  188.3150  177.0970  142.9150 C   0  0  0  0  0  3  0  0  0  0  0  0
  191.5090  177.2890  140.4510 C   0  0  0  0  0  0  0  0  0  0  0  0
  191.6490  176.9140  139.1130 C   0  0  0  0  0  3  0  0  0  0  0  0
  189.1220  177.6250  140.1200 C   0  0  0  0  0  0  0  0  0  0  0  0
  190.5300  176.8850  138.2770 C   0  0  0  0  0  3  0  0  0  0  0  0
  190.2520  177.6370  140.9520 C   0  0  0  0  0  3  0  0  0  0  0  0
  189.2730  177.2320  138.7800 C   0  0  0  0  0  3  0  0  0  0  0  0
  192.5920  177.3120  141.2650 F   0  0  0  0  0  0  0  0  0  0  0  0
  182.2250  179.6480  138.5960 C   0  0  0  0  0  2  0  0  0  0  0  0
  181.2390  180.7690  138.8730 C   0  0  0  0  0  2  0  0  0  0  0  0
  180.7530  181.0190  136.5630 O   0  0  0  0  0  0  0  0  0  0  0  0
  181.3080  185.1600  136.8470 O   0  0  0  0  0  0  0  0  0  0  0  0
  181.1050  183.9370  136.6330 C   0  0  0  0  0  0  0  0  0  0  0  0
  181.2370  183.0070  137.7150 N   0  0  0  0  0  2  0  0  0  0  0  0
  181.0490  181.5890  137.6470 C   0  0  0  0  0  0  0  0  0  0  0  0
  180.7330  183.5040  135.2550 C   0  0  0  0  0  1  0  0  0  0  0  0
  1  5  2  0  0  0  0
  2  6  1  0  0  0  0
  3  8  1  0  0  0  0
  4 18  1  0  0  0  0
  5 11  1  0  0  0  0
  6 11  2  0  0  0  0
  8  2  2  0  0  0  0
  8  1  1  0  0  0  0
  9  7  1  0  0  0  0
 10 17  1  0  0  0  0
 10  4  1  0  0  0  0
 12  3  1  0  0  0  0
 12 19  1  0  0  0  0
 13  1  1  0  0  0  0
 14  2  1  0  0  0  0
 15  4  2  0  0  0  0
 15 16  1  0  0  0  0
 16 12  2  0  0  0  0
 17 27  1  6  0  0  0
 17  9  1  0  0  0  0
 18  7  1  0  0  0  0
 18  3  2  0  0  0  0
 19 13  2  0  0  0  0
 20 24  1  0  0  0  0
 20 26  1  0  0  0  0
 21 20  2  0  0  0  0
 22 16  1  0  0  0  0
 22 24  2  0  0  0  0
 23 25  2  0  0  0  0
 23 21  1  0  0  0  0
 25 22  1  0  0  0  0
 27 28  1  0  0  0  0
 29 33  2  0  0  0  0
 31 30  2  0  0  0  0
 31 32  1  0  0  0  0
 33 32  1  0  0  0  0
 33 28  1  0  0  0  0
 34 31  1  0  0  0  0
M  END
>  <MODEL>
6

>  <REMARK>
 VINA RESULT:     -10.7      5.432      8.888
  Name = 
  4 active torsions:
  status: ('A' for Active; 'I' for Inactive)
    1  A    between atoms: C_3  and  C_13
    2  A    between atoms: C_3  and  C_29
    3  A    between atoms: C_12  and  C_28
    4  A    between atoms: C_13  and  C_33
                            x       y       z     vdW  Elec       q    Type
                         _______ _______ _______ _____ _____    ______ ____

>  <TORSDO>
F 4

$$$$
=
 OpenBabel10272400133D

 34 38  0  0  1  0  0  0  0  0999 V2000
  188.5770  177.2880  146.3610 C   0  0  0  0  0  0  0  0  0  0  0  0
  186.8490  178.7840  147.1710 C   0  0  0  0  0  0  0  0  0  0  0  0
  186.9410  178.1210  144.7320 C   0  0  0  0  0  0  0  0  0  0  0  0
  185.3010  178.6640  143.0020 C   0  0  0  0  0  0  0  0  0  0  0  0
  188.9950  177.0630  147.6740 C   0  0  0  0  0  3  0  0  0  0  0  0
  187.2740  178.5420  148.4810 C   0  0  0  0  0  3  0  0  0  0  0  0
  184.4670  178.3530  145.3690 C   0  0  0  0  0  2  0  0  0  0  0  0
  187.4090  178.0520  146.0870 C   0  0  0  0  0  0  0  0  0  0  0  0
  183.0780  178.2980  144.7420 C   0  0  0  0  0  2  0  0  0  0  0  0
  183.9150  179.0090  142.5310 C   0  0  0  0  0  2  0  0  0  0  0  0
  188.3230  177.6630  148.7350 C   0  0  0  0  0  3  0  0  0  0  0  0
  187.8420  177.7560  143.6900 C   0  0  0  0  0  0  0  0  0  0  0  0
  189.3650  176.8050  145.3240 C   0  0  0  0  0  3  0  0  0  0  0  0
  185.9590  179.8310  146.9710 O   0  0  0  0  0  1  0  0  0  0  0  0
  186.2490  178.4590  142.0570 N   0  0  0  0  0  0  0  0  0  0  0  0
  187.4960  178.0060  142.3400 C   0  0  0  0  0  0  0  0  0  0  0  0
  182.9730  179.3690  143.6740 C   0  0  1  0  0  3  0  0  0  0  0  0
  185.5990  178.4280  144.3640 C   0  0  0  0  0  0  0  0  0  0  0  0
  189.0220  177.0730  144.0070 C   0  0  0  0  0  3  0  0  0  0  0  0
  189.0490  178.2460  138.8950 C   0  0  0  0  0  0  0  0  0  0  0  0
  190.1870  177.4490  139.0360 C   0  0  0  0  0  3  0  0  0  0  0  0
  188.4220  177.7780  141.1990 C   0  0  0  0  0  0  0  0  0  0  0  0
  190.4530  176.8230  140.2550 C   0  0  0  0  0  3  0  0  0  0  0  0
  188.1750  178.4140  139.9720 C   0  0  0  0  0  3  0  0  0  0  0  0
  189.5780  176.9920  141.3320 C   0  0  0  0  0  3  0  0  0  0  0  0
  188.7940  178.8590  137.7140 F   0  0  0  0  0  0  0  0  0  0  0  0
  181.5430  179.4420  143.1710 C   0  0  0  0  0  2  0  0  0  0  0  0
  181.3910  178.6400  141.8910 C   0  0  0  0  0  2  0  0  0  0  0  0
  180.2570  180.5400  141.0310 O   0  0  0  0  0  0  0  0  0  0  0  0
  181.4840  179.5700  137.1460 O   0  0  0  0  0  0  0  0  0  0  0  0
  181.0600  179.9730  138.2590 C   0  0  0  0  0  0  0  0  0  0  0  0
  181.3790  179.2260  139.4400 N   0  0  0  0  0  2  0  0  0  0  0  0
  180.9770  179.5370  140.7790 C   0  0  0  0  0  0  0  0  0  0  0  0
  180.2410  181.2190  138.3060 C   0  0  0  0  0  1  0  0  0  0  0  0
  1  5  2  0  0  0  0
  2  6  1  0  0  0  0
  3  8  1  0  0  0  0
  4 18  2  0  0  0  0
  5 11  1  0  0  0  0
  6 11  2  0  0  0  0
  8  1  1  0  0  0  0
  8  2  2  0  0  0  0
  9  7  1  0  0  0  0
 10  4  1  0  0  0  0
 10 17  1  0  0  0  0
 12 19  1  0  0  0  0
 12  3  2  0  0  0  0
 13  1  1  0  0  0  0
 14  2  1  0  0  0  0
 15 16  2  0  0  0  0
 15  4  1  0  0  0  0
 16 12  1  0  0  0  0
 17 27  1  6  0  0  0
 17  9  1  0  0  0  0
 18  3  1  0  0  0  0
 18  7  1  0  0  0  0
 19 13  2  0  0  0  0
 20 21  2  0  0  0  0
 20 24  1  0  0  0  0
 21 23  1  0  0  0  0
 22 25  1  0  0  0  0
 22 16  1  0  0  0  0
 23 25  2  0  0  0  0
 24 22  2  0  0  0  0
 26 20  1  0  0  0  0
 28 27  1  0  0  0  0
 30 31  2  0  0  0  0
 31 34  1  0  0  0  0
 31 32  1  0  0  0  0
 32 33  1  0  0  0  0
 33 29  2  0  0  0  0
 33 28  1  0  0  0  0
M  END
>  <MODEL>
7

>  <REMARK>
 VINA RESULT:     -10.6      4.399      8.031
  Name = 
  4 active torsions:
  status: ('A' for Active; 'I' for Inactive)
    1  A    between atoms: C_3  and  C_13
    2  A    between atoms: C_3  and  C_29
    3  A    between atoms: C_12  and  C_28
    4  A    between atoms: C_13  and  C_33
                            x       y       z     vdW  Elec       q    Type
                         _______ _______ _______ _____ _____    ______ ____

>  <TORSDO>
F 4

$$$$
=
 OpenBabel10272400133D

 34 38  0  0  1  0  0  0  0  0999 V2000
  182.4150  178.8710  141.3730 C   0  0  0  0  0  0  0  0  0  0  0  0
  183.4230  179.8270  139.3850 C   0  0  0  0  0  0  0  0  0  0  0  0
  184.8610  178.7860  141.1870 C   0  0  0  0  0  0  0  0  0  0  0  0
  187.2750  178.4130  141.1030 C   0  0  0  0  0  0  0  0  0  0  0  0
  181.1480  179.0510  140.8140 C   0  0  0  0  0  3  0  0  0  0  0  0
  182.1480  179.9930  138.8360 C   0  0  0  0  0  3  0  0  0  0  0  0
  185.9820  178.2930  138.9330 C   0  0  0  0  0  2  0  0  0  0  0  0
  183.5900  179.1340  140.6170 C   0  0  0  0  0  0  0  0  0  0  0  0
  187.2450  177.6600  138.3580 C   0  0  0  0  0  2  0  0  0  0  0  0
  188.5710  178.1790  140.3740 C   0  0  0  0  0  2  0  0  0  0  0  0
  181.0160  179.5800  139.5330 C   0  0  0  0  0  3  0  0  0  0  0  0
  184.9270  178.5540  142.5910 C   0  0  0  0  0  0  0  0  0  0  0  0
  182.5020  178.4930  142.7060 C   0  0  0  0  0  3  0  0  0  0  0  0
  184.4820  180.4590  138.7460 O   0  0  0  0  0  1  0  0  0  0  0  0
  187.3020  178.3630  142.4560 N   0  0  0  0  0  0  0  0  0  0  0  0
  186.1850  178.4140  143.2240 C   0  0  0  0  0  0  0  0  0  0  0  0
  188.4560  178.4120  138.8720 C   0  0  1  0  0  3  0  0  0  0  0  0
  186.0420  178.5510  140.4250 C   0  0  0  0  0  0  0  0  0  0  0  0
  183.7420  178.3770  143.3170 C   0  0  0  0  0  3  0  0  0  0  0  0
  187.6900  177.5540  146.5910 C   0  0  0  0  0  0  0  0  0  0  0  0
  186.7700  178.1260  147.4720 C   0  0  0  0  0  3  0  0  0  0  0  0
  186.3560  178.2980  144.6960 C   0  0  0  0  0  0  0  0  0  0  0  0
  185.6480  178.7920  146.9730 C   0  0  0  0  0  3  0  0  0  0  0  0
  187.4860  177.6450  145.2110 C   0  0  0  0  0  3  0  0  0  0  0  0
  185.4460  178.8820  145.5930 C   0  0  0  0  0  3  0  0  0  0  0  0
  188.7820  176.9130  147.0730 F   0  0  0  0  0  0  0  0  0  0  0  0
  189.7020  177.9070  138.1670 C   0  0  0  0  0  2  0  0  0  0  0  0
  190.6660  177.2960  139.1690 C   0  0  0  0  0  2  0  0  0  0  0  0
  190.8710  175.0410  138.4580 O   0  0  0  0  0  0  0  0  0  0  0  0
  194.7480  175.7870  137.0620 O   0  0  0  0  0  0  0  0  0  0  0  0
  193.5980  175.4380  137.4300 C   0  0  0  0  0  0  0  0  0  0  0  0
  192.7410  176.4030  138.0530 N   0  0  0  0  0  2  0  0  0  0  0  0
  191.4110  176.1770  138.5350 C   0  0  0  0  0  0  0  0  0  0  0  0
  193.1700  174.0270  137.2020 C   0  0  0  0  0  1  0  0  0  0  0  0
  1 13  1  0  0  0  0
  2  8  1  0  0  0  0
  3 12  1  0  0  0  0
  4 15  2  0  0  0  0
  5  1  1  0  0  0  0
  6  2  2  0  0  0  0
  6 11  1  0  0  0  0
  7 18  1  0  0  0  0
  8  3  1  0  0  0  0
  8  1  2  0  0  0  0
  9 17  1  0  0  0  0
  9  7  1  0  0  0  0
 10  4  1  0  0  0  0
 11  5  2  0  0  0  0
 12 16  2  0  0  0  0
 12 19  1  0  0  0  0
 13 19  2  0  0  0  0
 14  2  1  0  0  0  0
 15 16  1  0  0  0  0
 16 22  1  0  0  0  0
 17 27  1  6  0  0  0
 17 10  1  0  0  0  0
 18  4  1  0  0  0  0
 18  3  2  0  0  0  0
 20 26  1  0  0  0  0
 20 21  1  0  0  0  0
 22 24  1  0  0  0  0
 22 25  2  0  0  0  0
 23 21  2  0  0  0  0
 24 20  2  0  0  0  0
 25 23  1  0  0  0  0
 27 28  1  0  0  0  0
 29 33  2  0  0  0  0
 30 31  2  0  0  0  0
 31 32  1  0  0  0  0
 32 33  1  0  0  0  0
 33 28  1  0  0  0  0
 34 31  1  0  0  0  0
M  END
>  <MODEL>
8

>  <REMARK>
 VINA RESULT:     -10.5      2.987      6.243
  Name = 
  4 active torsions:
  status: ('A' for Active; 'I' for Inactive)
    1  A    between atoms: C_3  and  C_13
    2  A    between atoms: C_3  and  C_29
    3  A    between atoms: C_12  and  C_28
    4  A    between atoms: C_13  and  C_33
                            x       y       z     vdW  Elec       q    Type
                         _______ _______ _______ _____ _____    ______ ____

>  <TORSDO>
F 4

$$$$
=
 OpenBabel10272400133D

 34 38  0  0  1  0  0  0  0  0999 V2000
  185.1750  178.7890  144.7570 C   0  0  0  0  0  0  0  0  0  0  0  0
  187.0870  177.3420  144.3920 C   0  0  0  0  0  0  0  0  0  0  0  0
  185.8470  178.3590  142.4360 C   0  0  0  0  0  0  0  0  0  0  0  0
  186.4730  178.2300  140.0760 C   0  0  0  0  0  0  0  0  0  0  0  0
  185.4280  178.7740  146.1300 C   0  0  0  0  0  3  0  0  0  0  0  0
  187.3320  177.3440  145.7690 C   0  0  0  0  0  3  0  0  0  0  0  0
  188.3280  178.2480  141.7950 C   0  0  0  0  0  2  0  0  0  0  0  0
  186.0770  178.1800  143.8420 C   0  0  0  0  0  0  0  0  0  0  0  0
  189.2540  178.5180  140.6130 C   0  0  0  0  0  2  0  0  0  0  0  0
  187.4720  178.0830  138.9610 C   0  0  0  0  0  2  0  0  0  0  0  0
  186.5260  178.0800  146.6320 C   0  0  0  0  0  3  0  0  0  0  0  0
  184.5580  178.7990  142.0160 C   0  0  0  0  0  0  0  0  0  0  0  0
  183.9880  179.3540  144.3100 C   0  0  0  0  0  3  0  0  0  0  0  0
  187.7800  176.4190  143.6200 O   0  0  0  0  0  1  0  0  0  0  0  0
  185.1890  178.4940  139.7340 N   0  0  0  0  0  0  0  0  0  0  0  0
  184.2240  178.7880  140.6410 C   0  0  0  0  0  0  0  0  0  0  0  0
  188.8440  177.6350  139.4500 C   0  0  1  0  0  3  0  0  0  0  0  0
  186.8550  178.2290  141.4380 C   0  0  0  0  0  0  0  0  0  0  0  0
  183.6660  179.3210  142.9610 C   0  0  0  0  0  3  0  0  0  0  0  0
  181.4640  180.3410  138.5630 C   0  0  0  0  0  0  0  0  0  0  0  0
  180.3330  179.6820  139.0480 C   0  0  0  0  0  3  0  0  0  0  0  0
  182.8670  179.1060  140.1220 C   0  0  0  0  0  0  0  0  0  0  0  0
  180.4620  178.7290  140.0620 C   0  0  0  0  0  3  0  0  0  0  0  0
  182.7240  180.0500  139.0930 C   0  0  0  0  0  3  0  0  0  0  0  0
  181.7230  178.4400  140.5910 C   0  0  0  0  0  3  0  0  0  0  0  0
  181.3410  181.2600  137.5750 F   0  0  0  0  0  0  0  0  0  0  0  0
  189.8660  177.7640  138.3350 C   0  0  0  0  0  2  0  0  0  0  0  0
  189.8170  176.5460  137.4300 C   0  0  0  0  0  2  0  0  0  0  0  0
  191.0400  174.6220  138.0930 O   0  0  0  0  0  0  0  0  0  0  0  0
  194.6050  176.3740  136.7660 O   0  0  0  0  0  0  0  0  0  0  0  0
  193.6070  175.7370  137.1920 C   0  0  0  0  0  0  0  0  0  0  0  0
  192.3100  176.3430  137.1250 N   0  0  0  0  0  2  0  0  0  0  0  0
  191.0760  175.7660  137.5660 C   0  0  0  0  0  0  0  0  0  0  0  0
  193.8160  174.3690  137.7510 C   0  0  0  0  0  1  0  0  0  0  0  0
  1  5  2  0  0  0  0
  2  6  1  0  0  0  0
  3  8  1  0  0  0  0
  4 18  1  0  0  0  0
  5 11  1  0  0  0  0
  6 11  2  0  0  0  0
  8  2  2  0  0  0  0
  8  1  1  0  0  0  0
  9  7  1  0  0  0  0
 10 17  1  0  0  0  0
 10  4  1  0  0  0  0
 12  3  1  0  0  0  0
 12 19  1  0  0  0  0
 13  1  1  0  0  0  0
 14  2  1  0  0  0  0
 15  4  2  0  0  0  0
 15 16  1  0  0  0  0
 16 12  2  0  0  0  0
 17 27  1  6  0  0  0
 17  9  1  0  0  0  0
 18  7  1  0  0  0  0
 18  3  2  0  0  0  0
 19 13  2  0  0  0  0
 20 21  2  0  0  0  0
 20 24  1  0  0  0  0
 21 23  1  0  0  0  0
 22 25  1  0  0  0  0
 22 16  1  0  0  0  0
 23 25  2  0  0  0  0
 24 22  2  0  0  0  0
 26 20  1  0  0  0  0
 28 33  1  0  0  0  0
 28 27  1  0  0  0  0
 30 31  2  0  0  0  0
 31 34  1  0  0  0  0
 32 31  1  0  0  0  0
 32 33  1  0  0  0  0
 33 29  2  0  0  0  0
M  END
>  <MODEL>
9

>  <REMARK>
 VINA RESULT:     -10.0      2.598      4.245
  Name = 
  4 active torsions:
  status: ('A' for Active; 'I' for Inactive)
    1  A    between atoms: C_3  and  C_13
    2  A    between atoms: C_3  and  C_29
    3  A    between atoms: C_12  and  C_28
    4  A    between atoms: C_13  and  C_33
                            x       y       z     vdW  Elec       q    Type
                         _______ _______ _______ _____ _____    ______ ____

>  <TORSDO>
F 4

$$$$
