=
 OpenBabel10272400013D

 34 38  0  0  1  0  0  0  0  0999 V2000
  188.2620  177.7090  146.5070 C   0  0  2  0  0  3  0  0  0  0  0  0
  191.2100  176.7060  144.8460 C   0  0  0  0  0  2  0  0  0  0  0  0
  189.2780  177.3430  143.4860 N   0  0  1  0  0  0  0  0  0  0  0  0
  188.4670  177.6810  141.1410 C   0  0  2  0  0  3  0  0  0  0  0  0
  190.1920  177.2350  147.7640 O   0  0  0  0  0  0  0  0  0  0  0  0
  191.2900  176.4770  147.3410 C   0  0  0  0  0  2  0  0  0  0  0  0
  190.8740  177.2860  141.6110 C   0  0  0  0  0  1  0  0  0  0  0  0
  190.3140  177.8450  144.3920 C   0  0  0  0  0  2  0  0  0  0  0  0
  189.0840  176.6260  147.1730 C   0  0  1  0  0  3  0  0  0  0  0  0
  187.9770  177.8270  144.0130 C   0  0  1  0  0  3  0  0  0  0  0  0
  187.7910  177.0910  147.8070 C   0  0  0  0  0  2  0  0  0  0  0  0
  191.9530  177.0990  146.1140 C   0  0  0  0  0  2  0  0  0  0  0  0
  187.1590  178.2290  141.6660 C   0  0  0  0  0  2  0  0  0  0  0  0
  186.8280  177.6190  143.0100 C   0  0  2  0  0  3  0  0  0  0  0  0
  189.5920  177.9150  142.1590 C   0  0  2  0  0  3  0  0  0  0  0  0
  187.5980  177.0780  145.3010 C   0  0  0  0  0  2  0  0  0  0  0  0
  183.2300  178.8710  143.1340 C   0  0  0  0  0  0  0  0  0  0  0  0
  183.1340  179.2750  144.4690 C   0  0  0  0  0  3  0  0  0  0  0  0
  185.5400  178.2150  143.5000 C   0  0  0  0  0  0  0  0  0  0  0  0
  184.2360  179.1490  145.3190 C   0  0  0  0  0  3  0  0  0  0  0  0
  184.4290  178.3420  142.6500 C   0  0  0  0  0  3  0  0  0  0  0  0
  185.4360  178.6180  144.8360 C   0  0  0  0  0  3  0  0  0  0  0  0
  182.1620  178.9890  142.3100 F   0  0  0  0  0  0  0  0  0  0  0  0
  188.7720  178.3310  139.7870 C   0  0  0  0  0  2  0  0  0  0  0  0
  187.5700  178.4350  138.9720 N   0  0  0  0  0  2  0  0  0  0  0  0
  187.8840  177.8640  137.6720 C   0  0  0  0  0  2  0  0  0  0  0  0
  188.0800  176.3630  137.8010 C   0  0  0  0  0  2  0  0  0  0  0  0
  188.5350  173.5150  136.6910 O   0  0  0  0  0  0  0  0  0  0  0  0
  189.0590  175.8520  136.7500 C   0  0  2  0  0  3  0  0  0  0  0  0
  189.3830  174.3990  136.9810 C   0  0  0  0  0  0  0  0  0  0  0  0
  191.7480  174.9340  137.6930 C   0  0  0  0  0  2  0  0  0  0  0  0
  191.2580  176.3620  137.8850 C   0  0  0  0  0  2  0  0  0  0  0  0
  190.3190  176.7220  136.7380 C   0  0  0  0  0  2  0  0  0  0  0  0
  190.6200  174.0140  137.5920 N   0  0  0  0  0  2  0  0  0  0  0  0
  1 16  1  6  0  0  0
  1  9  1  0  0  0  0
  1 11  1  0  0  0  0
  2 12  1  0  0  0  0
  3 10  1  0  0  0  0
  3  8  1  1  0  0  0
  4 24  1  6  0  0  0
  4 13  1  0  0  0  0
  4 15  1  0  0  0  0
  6  5  1  0  0  0  0
  8  2  1  0  0  0  0
  9  5  1  0  0  0  0
  9 11  1  1  0  0  0
 10 16  1  1  0  0  0
 12  6  1  0  0  0  0
 13 14  1  0  0  0  0
 14 19  1  1  0  0  0
 14 10  1  0  0  0  0
 15  7  1  6  0  0  0
 15  3  1  0  0  0  0
 17 18  1  0  0  0  0
 18 20  2  0  0  0  0
 19 22  2  0  0  0  0
 21 17  2  0  0  0  0
 21 19  1  0  0  0  0
 22 20  1  0  0  0  0
 23 17  1  0  0  0  0
 25 24  1  0  0  0  0
 26 27  1  0  0  0  0
 26 25  1  0  0  0  0
 28 30  2  0  0  0  0
 29 30  1  0  0  0  0
 29 27  1  1  0  0  0
 30 34  1  0  0  0  0
 31 32  1  0  0  0  0
 33 29  1  0  0  0  0
 33 32  1  0  0  0  0
 34 31  1  0  0  0  0
M  END
>  <MODEL>
1

>  <REMARK>
 VINA RESULT:     -10.2      0.000      0.000
  Name = 
  6 active torsions:
  status: ('A' for Active; 'I' for Inactive)
    1  A    between atoms: C_3  and  C_13
    2  A    between atoms: C_3  and  C_17
    3  A    between atoms: C_5  and  C_18
    4  A    between atoms: C_12  and  C_28
    5  A    between atoms: C_17  and  N_29
    6  A    between atoms: C_18  and  N_29
                            x       y       z     vdW  Elec       q    Type
                         _______ _______ _______ _____ _____    ______ ____

>  <TORSDO>
F 6

$$$$
=
 OpenBabel10272400013D

 34 38  0  0  1  0  0  0  0  0999 V2000
  188.2640  177.7050  146.5160 C   0  0  2  0  0  3  0  0  0  0  0  0
  191.2390  176.6310  144.9500 C   0  0  0  0  0  2  0  0  0  0  0  0
  189.3520  177.2700  143.5290 N   0  0  1  0  0  0  0  0  0  0  0  0
  188.6060  177.5770  141.1580 C   0  0  2  0  0  3  0  0  0  0  0  0
  190.1540  177.2270  147.8310 O   0  0  0  0  0  0  0  0  0  0  0  0
  191.2510  176.4450  147.4500 C   0  0  0  0  0  2  0  0  0  0  0  0
  190.9940  177.1570  141.6980 C   0  0  0  0  0  1  0  0  0  0  0  0
  190.3710  177.7740  144.4520 C   0  0  0  0  0  2  0  0  0  0  0  0
  189.0530  176.6220  147.2220 C   0  0  1  0  0  3  0  0  0  0  0  0
  188.0450  177.7820  144.0140 C   0  0  1  0  0  3  0  0  0  0  0  0
  187.7500  177.1170  147.8140 C   0  0  0  0  0  2  0  0  0  0  0  0
  191.9550  177.0350  146.2300 C   0  0  0  0  0  2  0  0  0  0  0  0
  187.2930  178.1530  141.6400 C   0  0  0  0  0  2  0  0  0  0  0  0
  186.9190  177.5720  142.9850 C   0  0  2  0  0  3  0  0  0  0  0  0
  189.7080  177.8140  142.2010 C   0  0  2  0  0  3  0  0  0  0  0  0
  187.6220  177.0620  145.3040 C   0  0  0  0  0  2  0  0  0  0  0  0
  183.3280  178.8510  143.0030 C   0  0  0  0  0  0  0  0  0  0  0  0
  183.2140  179.3070  144.3190 C   0  0  0  0  0  3  0  0  0  0  0  0
  185.6280  178.1950  143.4300 C   0  0  0  0  0  0  0  0  0  0  0  0
  184.3020  179.2080  145.1910 C   0  0  0  0  0  3  0  0  0  0  0  0
  184.5310  178.2950  142.5590 C   0  0  0  0  0  3  0  0  0  0  0  0
  185.5060  178.6510  144.7480 C   0  0  0  0  0  3  0  0  0  0  0  0
  182.2730  178.9420  142.1580 F   0  0  0  0  0  0  0  0  0  0  0  0
  188.9550  178.1980  139.8010 C   0  0  0  0  0  2  0  0  0  0  0  0
  188.3200  177.4710  138.7120 N   0  0  0  0  0  2  0  0  0  0  0  0
  189.2390  176.4200  138.3060 C   0  0  0  0  0  2  0  0  0  0  0  0
  190.6200  177.0060  138.0630 C   0  0  0  0  0  2  0  0  0  0  0  0
  193.4910  177.0980  139.2040 O   0  0  0  0  0  0  0  0  0  0  0  0
  191.6900  175.9240  138.1450 C   0  0  2  0  0  3  0  0  0  0  0  0
  193.0680  176.5340  138.1610 C   0  0  0  0  0  0  0  0  0  0  0  0
  193.5850  175.6760  135.8420 C   0  0  0  0  0  2  0  0  0  0  0  0
  192.0840  175.4830  135.6890 C   0  0  0  0  0  2  0  0  0  0  0  0
  191.5210  174.9290  136.9930 C   0  0  0  0  0  2  0  0  0  0  0  0
  193.8780  176.5390  136.9800 N   0  0  0  0  0  2  0  0  0  0  0  0
  1 16  1  6  0  0  0
  1  9  1  0  0  0  0
  1 11  1  0  0  0  0
  2 12  1  0  0  0  0
  3 10  1  0  0  0  0
  3  8  1  1  0  0  0
  4 24  1  6  0  0  0
  4 13  1  0  0  0  0
  4 15  1  0  0  0  0
  6  5  1  0  0  0  0
  8  2  1  0  0  0  0
  9 11  1  1  0  0  0
  9  5  1  0  0  0  0
 10 16  1  1  0  0  0
 12  6  1  0  0  0  0
 13 14  1  0  0  0  0
 14 19  1  1  0  0  0
 14 10  1  0  0  0  0
 15  7  1  6  0  0  0
 15  3  1  0  0  0  0
 17 18  1  0  0  0  0
 18 20  2  0  0  0  0
 19 22  2  0  0  0  0
 21 17  2  0  0  0  0
 21 19  1  0  0  0  0
 22 20  1  0  0  0  0
 23 17  1  0  0  0  0
 25 24  1  0  0  0  0
 26 25  1  0  0  0  0
 27 26  1  0  0  0  0
 29 27  1  6  0  0  0
 29 30  1  0  0  0  0
 30 28  2  0  0  0  0
 31 34  1  0  0  0  0
 32 31  1  0  0  0  0
 32 33  1  0  0  0  0
 33 29  1  0  0  0  0
 34 30  1  0  0  0  0
M  END
>  <MODEL>
2

>  <REMARK>
 VINA RESULT:     -10.1      1.550      1.887
  Name = 
  6 active torsions:
  status: ('A' for Active; 'I' for Inactive)
    1  A    between atoms: C_3  and  C_13
    2  A    between atoms: C_3  and  C_17
    3  A    between atoms: C_5  and  C_18
    4  A    between atoms: C_12  and  C_28
    5  A    between atoms: C_17  and  N_29
    6  A    between atoms: C_18  and  N_29
                            x       y       z     vdW  Elec       q    Type
                         _______ _______ _______ _____ _____    ______ ____

>  <TORSDO>
F 6

$$$$
=
 OpenBabel10272400013D

 34 38  0  0  1  0  0  0  0  0999 V2000
  190.2140  177.4720  142.9500 C   0  0  2  0  0  3  0  0  0  0  0  0
  188.1230  177.7360  140.1190 C   0  0  0  0  0  2  0  0  0  0  0  0
  187.1060  177.9810  142.3320 N   0  0  1  0  0  0  0  0  0  0  0  0
  184.9700  178.4640  143.5440 C   0  0  2  0  0  3  0  0  0  0  0  0
  191.1650  177.3980  140.8010 O   0  0  0  0  0  0  0  0  0  0  0  0
  190.4940  177.1030  139.6090 C   0  0  0  0  0  2  0  0  0  0  0  0
  185.1300  178.7520  141.0820 C   0  0  0  0  0  1  0  0  0  0  0  0
  188.0040  178.6070  141.3580 C   0  0  0  0  0  2  0  0  0  0  0  0
  190.5570  176.5940  141.7660 C   0  0  1  0  0  3  0  0  0  0  0  0
  187.8380  177.9390  143.6230 C   0  0  1  0  0  3  0  0  0  0  0  0
  191.3870  176.5180  143.0290 C   0  0  0  0  0  2  0  0  0  0  0  0
  189.3750  178.1060  139.3390 C   0  0  0  0  0  2  0  0  0  0  0  0
  185.7130  178.4810  144.8610 C   0  0  0  0  0  2  0  0  0  0  0  0
  186.9190  177.5700  144.8020 C   0  0  2  0  0  3  0  0  0  0  0  0
  185.9110  178.8480  142.3930 C   0  0  2  0  0  3  0  0  0  0  0  0
  188.9640  176.8930  143.5800 C   0  0  0  0  0  2  0  0  0  0  0  0
  189.6270  177.3220  147.4730 C   0  0  0  0  0  0  0  0  0  0  0  0
  188.9600  177.8570  148.5790 C   0  0  0  0  0  3  0  0  0  0  0  0
  187.6360  177.6440  146.1190 C   0  0  0  0  0  0  0  0  0  0  0  0
  187.6360  178.2860  148.4580 C   0  0  0  0  0  3  0  0  0  0  0  0
  188.9680  177.2160  146.2460 C   0  0  0  0  0  3  0  0  0  0  0  0
  186.9760  178.1810  147.2290 C   0  0  0  0  0  3  0  0  0  0  0  0
  190.9120  176.9100  147.5880 F   0  0  0  0  0  0  0  0  0  0  0  0
  183.7650  179.4070  143.6400 C   0  0  0  0  0  2  0  0  0  0  0  0
  182.5890  178.7080  144.1400 N   0  0  0  0  0  2  0  0  0  0  0  0
  181.4620  179.1310  143.3250 C   0  0  0  0  0  2  0  0  0  0  0  0
  181.6920  178.7300  141.8770 C   0  0  0  0  0  2  0  0  0  0  0  0
  179.9820  176.4870  140.6150 O   0  0  0  0  0  0  0  0  0  0  0  0
  180.3940  178.8000  141.0820 C   0  0  2  0  0  3  0  0  0  0  0  0
  180.2700  177.6210  140.1520 C   0  0  0  0  0  0  0  0  0  0  0  0
  180.6040  179.0680  138.1090 C   0  0  0  0  0  2  0  0  0  0  0  0
  181.1610  180.1120  139.0650 C   0  0  0  0  0  2  0  0  0  0  0  0
  180.3090  180.1300  140.3290 C   0  0  0  0  0  2  0  0  0  0  0  0
  180.5440  177.7610  138.7540 N   0  0  0  0  0  2  0  0  0  0  0  0
  1 11  1  1  0  0  0
  1 16  1  0  0  0  0
  2  8  1  0  0  0  0
  3  8  1  6  0  0  0
  3 15  1  0  0  0  0
  3 10  1  0  0  0  0
  4 24  1  1  0  0  0
  4 13  1  0  0  0  0
  5  9  1  0  0  0  0
  6  5  1  0  0  0  0
  9  1  1  0  0  0  0
  9 11  1  1  0  0  0
 10 16  1  6  0  0  0
 10 14  1  0  0  0  0
 12  6  1  0  0  0  0
 12  2  1  0  0  0  0
 14 13  1  0  0  0  0
 14 19  1  1  0  0  0
 15  7  1  6  0  0  0
 15  4  1  0  0  0  0
 17 23  1  0  0  0  0
 17 18  1  0  0  0  0
 19 21  1  0  0  0  0
 19 22  2  0  0  0  0
 20 18  2  0  0  0  0
 21 17  2  0  0  0  0
 22 20  1  0  0  0  0
 24 25  1  0  0  0  0
 26 25  1  0  0  0  0
 27 26  1  0  0  0  0
 29 27  1  6  0  0  0
 30 28  2  0  0  0  0
 30 29  1  0  0  0  0
 31 34  1  0  0  0  0
 31 32  1  0  0  0  0
 32 33  1  0  0  0  0
 33 29  1  0  0  0  0
 34 30  1  0  0  0  0
M  END
>  <MODEL>
3

>  <REMARK>
 VINA RESULT:      -9.9      3.793      7.126
  Name = 
  6 active torsions:
  status: ('A' for Active; 'I' for Inactive)
    1  A    between atoms: C_3  and  C_13
    2  A    between atoms: C_3  and  C_17
    3  A    between atoms: C_5  and  C_18
    4  A    between atoms: C_12  and  C_28
    5  A    between atoms: C_17  and  N_29
    6  A    between atoms: C_18  and  N_29
                            x       y       z     vdW  Elec       q    Type
                         _______ _______ _______ _____ _____    ______ ____

>  <TORSDO>
F 6

$$$$
=
 OpenBabel10272400013D

 34 38  0  0  1  0  0  0  0  0999 V2000
  188.2740  177.7330  146.5230 C   0  0  2  0  0  3  0  0  0  0  0  0
  191.2440  176.7820  144.8700 C   0  0  0  0  0  2  0  0  0  0  0  0
  189.3090  177.3980  143.5040 N   0  0  1  0  0  0  0  0  0  0  0  0
  188.5030  177.7370  141.1580 C   0  0  2  0  0  3  0  0  0  0  0  0
  190.2050  177.2800  147.7860 O   0  0  0  0  0  0  0  0  0  0  0  0
  191.3160  176.5400  147.3640 C   0  0  0  0  0  2  0  0  0  0  0  0
  190.9130  177.3750  141.6370 C   0  0  0  0  0  1  0  0  0  0  0  0
  190.3330  177.9100  144.4180 C   0  0  0  0  0  2  0  0  0  0  0  0
  189.1090  176.6580  147.1860 C   0  0  1  0  0  3  0  0  0  0  0  0
  187.9990  177.8600  144.0280 C   0  0  1  0  0  3  0  0  0  0  0  0
  187.8060  177.1010  147.8170 C   0  0  0  0  0  2  0  0  0  0  0  0
  191.9750  177.1780  146.1430 C   0  0  0  0  0  2  0  0  0  0  0  0
  187.1850  178.2630  141.6800 C   0  0  0  0  0  2  0  0  0  0  0  0
  186.8570  177.6410  143.0190 C   0  0  2  0  0  3  0  0  0  0  0  0
  189.6200  177.9820  142.1820 C   0  0  2  0  0  3  0  0  0  0  0  0
  187.6250  177.0990  145.3100 C   0  0  0  0  0  2  0  0  0  0  0  0
  183.2270  178.7970  143.1490 C   0  0  0  0  0  0  0  0  0  0  0  0
  183.1350  179.2370  144.4720 C   0  0  0  0  0  3  0  0  0  0  0  0
  185.5580  178.2150  143.5060 C   0  0  0  0  0  0  0  0  0  0  0  0
  184.2490  179.1670  145.3120 C   0  0  0  0  0  3  0  0  0  0  0  0
  184.4350  178.2860  142.6660 C   0  0  0  0  0  3  0  0  0  0  0  0
  185.4580  178.6550  144.8310 C   0  0  0  0  0  3  0  0  0  0  0  0
  182.1470  178.8600  142.3340 F   0  0  0  0  0  0  0  0  0  0  0  0
  188.8050  178.3990  139.8080 C   0  0  0  0  0  2  0  0  0  0  0  0
  188.5860  177.4710  138.7080 N   0  0  0  0  0  2  0  0  0  0  0  0
  187.5500  178.0450  137.8650 C   0  0  0  0  0  2  0  0  0  0  0  0
  186.2670  177.2410  138.0040 C   0  0  0  0  0  2  0  0  0  0  0  0
  184.8870  179.5740  139.4870 O   0  0  0  0  0  0  0  0  0  0  0  0
  185.0560  178.0830  137.6200 C   0  0  2  0  0  3  0  0  0  0  0  0
  184.3680  178.6230  138.8470 C   0  0  0  0  0  0  0  0  0  0  0  0
  182.3640  177.1220  138.5080 C   0  0  0  0  0  2  0  0  0  0  0  0
  183.2580  176.3100  137.5830 C   0  0  0  0  0  2  0  0  0  0  0  0
  184.1020  177.2650  136.7460 C   0  0  0  0  0  2  0  0  0  0  0  0
  183.1630  178.0210  139.3340 N   0  0  0  0  0  2  0  0  0  0  0  0
  1 16  1  6  0  0  0
  1  9  1  0  0  0  0
  1 11  1  0  0  0  0
  2 12  1  0  0  0  0
  3 10  1  0  0  0  0
  3  8  1  1  0  0  0
  4 24  1  6  0  0  0
  4 13  1  0  0  0  0
  4 15  1  0  0  0  0
  6  5  1  0  0  0  0
  8  2  1  0  0  0  0
  9  5  1  0  0  0  0
  9 11  1  1  0  0  0
 10 16  1  1  0  0  0
 12  6  1  0  0  0  0
 13 14  1  0  0  0  0
 14 19  1  1  0  0  0
 14 10  1  0  0  0  0
 15  7  1  6  0  0  0
 15  3  1  0  0  0  0
 17 18  1  0  0  0  0
 18 20  2  0  0  0  0
 19 22  2  0  0  0  0
 21 17  2  0  0  0  0
 21 19  1  0  0  0  0
 22 20  1  0  0  0  0
 23 17  1  0  0  0  0
 25 24  1  0  0  0  0
 26 27  1  0  0  0  0
 26 25  1  0  0  0  0
 29 27  1  1  0  0  0
 29 30  1  0  0  0  0
 30 34  1  0  0  0  0
 30 28  2  0  0  0  0
 31 34  1  0  0  0  0
 32 31  1  0  0  0  0
 33 32  1  0  0  0  0
 33 29  1  0  0  0  0
M  END
>  <MODEL>
4

>  <REMARK>
 VINA RESULT:      -9.8      2.217      3.446
  Name = 
  6 active torsions:
  status: ('A' for Active; 'I' for Inactive)
    1  A    between atoms: C_3  and  C_13
    2  A    between atoms: C_3  and  C_17
    3  A    between atoms: C_5  and  C_18
    4  A    between atoms: C_12  and  C_28
    5  A    between atoms: C_17  and  N_29
    6  A    between atoms: C_18  and  N_29
                            x       y       z     vdW  Elec       q    Type
                         _______ _______ _______ _____ _____    ______ ____

>  <TORSDO>
F 6

$$$$
=
 OpenBabel10272400013D

 34 38  0  0  1  0  0  0  0  0999 V2000
  186.9140  177.5850  146.1290 C   0  0  2  0  0  3  0  0  0  0  0  0
  185.2940  178.9110  143.2880 C   0  0  0  0  0  2  0  0  0  0  0  0
  187.5760  178.0670  143.0260 N   0  0  1  0  0  0  0  0  0  0  0  0
  189.4090  177.6460  141.3730 C   0  0  2  0  0  3  0  0  0  0  0  0
  184.6710  178.2670  146.2930 O   0  0  0  0  0  0  0  0  0  0  0  0
  184.0060  179.1430  145.4260 C   0  0  0  0  0  2  0  0  0  0  0  0
  187.1370  178.3030  140.6150 C   0  0  0  0  0  1  0  0  0  0  0  0
  186.1840  177.6810  143.2720 C   0  0  0  0  0  2  0  0  0  0  0  0
  185.9770  178.7510  146.3610 C   0  0  1  0  0  3  0  0  0  0  0  0
  188.3890  177.4410  144.0990 C   0  0  1  0  0  3  0  0  0  0  0  0
  186.7340  178.1450  147.5240 C   0  0  0  0  0  2  0  0  0  0  0  0
  183.9850  178.6010  143.9990 C   0  0  0  0  0  2  0  0  0  0  0  0
  190.2240  176.9550  142.4440 C   0  0  0  0  0  2  0  0  0  0  0  0
  189.8990  177.5220  143.8090 C   0  0  2  0  0  3  0  0  0  0  0  0
  187.9110  177.5350  141.6870 C   0  0  2  0  0  3  0  0  0  0  0  0
  188.1470  178.1410  145.4460 C   0  0  0  0  0  2  0  0  0  0  0  0
  192.1960  174.9720  145.4660 C   0  0  0  0  0  0  0  0  0  0  0  0
  192.2610  175.4770  146.7670 C   0  0  0  0  0  3  0  0  0  0  0  0
  190.7100  176.7870  144.8360 C   0  0  0  0  0  0  0  0  0  0  0  0
  191.5550  176.6350  147.1040 C   0  0  0  0  0  3  0  0  0  0  0  0
  191.4230  175.6240  144.5020 C   0  0  0  0  0  3  0  0  0  0  0  0
  190.7820  177.2900  146.1400 C   0  0  0  0  0  3  0  0  0  0  0  0
  192.8830  173.8520  145.1360 F   0  0  0  0  0  0  0  0  0  0  0  0
  189.7580  177.0360  140.0110 C   0  0  0  0  0  2  0  0  0  0  0  0
  191.1490  177.2870  139.6640 N   0  0  0  0  0  2  0  0  0  0  0  0
  191.3070  176.9480  138.2590 C   0  0  0  0  0  2  0  0  0  0  0  0
  189.9460  176.7000  137.6310 C   0  0  0  0  0  2  0  0  0  0  0  0
  188.9870  179.6370  137.7160 O   0  0  0  0  0  0  0  0  0  0  0  0
  189.6810  177.6910  136.5030 C   0  0  2  0  0  3  0  0  0  0  0  0
  188.6610  178.7180  136.9210 C   0  0  0  0  0  0  0  0  0  0  0  0
  186.9190  177.7730  135.3530 C   0  0  0  0  0  2  0  0  0  0  0  0
  187.7880  176.5250  135.3040 C   0  0  0  0  0  2  0  0  0  0  0  0
  189.2520  176.9440  135.2370 C   0  0  0  0  0  2  0  0  0  0  0  0
  187.3030  178.6210  136.4760 N   0  0  0  0  0  2  0  0  0  0  0  0
  1 16  1  6  0  0  0
  1  9  1  0  0  0  0
  1 11  1  0  0  0  0
  2 12  1  0  0  0  0
  3  8  1  1  0  0  0
  3 10  1  0  0  0  0
  4 24  1  6  0  0  0
  4 15  1  0  0  0  0
  4 13  1  0  0  0  0
  5  9  1  0  0  0  0
  6  5  1  0  0  0  0
  8  2  1  0  0  0  0
  9 11  1  1  0  0  0
 10 16  1  1  0  0  0
 12  6  1  0  0  0  0
 13 14  1  0  0  0  0
 14 10  1  0  0  0  0
 14 19  1  1  0  0  0
 15  7  1  6  0  0  0
 15  3  1  0  0  0  0
 17 18  1  0  0  0  0
 18 20  2  0  0  0  0
 19 22  2  0  0  0  0
 21 19  1  0  0  0  0
 21 17  2  0  0  0  0
 22 20  1  0  0  0  0
 23 17  1  0  0  0  0
 25 24  1  0  0  0  0
 26 25  1  0  0  0  0
 27 26  1  0  0  0  0
 29 30  1  0  0  0  0
 29 27  1  1  0  0  0
 30 28  2  0  0  0  0
 31 34  1  0  0  0  0
 32 31  1  0  0  0  0
 33 32  1  0  0  0  0
 33 29  1  0  0  0  0
 34 30  1  0  0  0  0
M  END
>  <MODEL>
5

>  <REMARK>
 VINA RESULT:      -9.6      2.937      5.481
  Name = 
  6 active torsions:
  status: ('A' for Active; 'I' for Inactive)
    1  A    between atoms: C_3  and  C_13
    2  A    between atoms: C_3  and  C_17
    3  A    between atoms: C_5  and  C_18
    4  A    between atoms: C_12  and  C_28
    5  A    between atoms: C_17  and  N_29
    6  A    between atoms: C_18  and  N_29
                            x       y       z     vdW  Elec       q    Type
                         _______ _______ _______ _____ _____    ______ ____

>  <TORSDO>
F 6

$$$$
=
 OpenBabel10272400013D

 34 38  0  0  1  0  0  0  0  0999 V2000
  187.0720  177.5630  146.0370 C   0  0  2  0  0  3  0  0  0  0  0  0
  185.4300  178.8500  143.1910 C   0  0  0  0  0  2  0  0  0  0  0  0
  187.7110  178.0040  142.9240 N   0  0  1  0  0  0  0  0  0  0  0  0
  189.5330  177.5630  141.2640 C   0  0  2  0  0  3  0  0  0  0  0  0
  184.8290  178.2450  146.2080 O   0  0  0  0  0  0  0  0  0  0  0  0
  184.1570  179.1090  145.3350 C   0  0  0  0  0  2  0  0  0  0  0  0
  187.2550  178.2080  140.5130 C   0  0  0  0  0  1  0  0  0  0  0  0
  186.3220  177.6200  143.1850 C   0  0  0  0  0  2  0  0  0  0  0  0
  186.1360  178.7310  146.2610 C   0  0  1  0  0  3  0  0  0  0  0  0
  188.5330  177.3930  143.9990 C   0  0  1  0  0  3  0  0  0  0  0  0
  186.9010  178.1410  147.4260 C   0  0  0  0  0  2  0  0  0  0  0  0
  184.1270  178.5480  143.9150 C   0  0  0  0  0  2  0  0  0  0  0  0
  190.3560  176.8870  142.3390 C   0  0  0  0  0  2  0  0  0  0  0  0
  190.0400  177.4720  143.6970 C   0  0  2  0  0  3  0  0  0  0  0  0
  188.0370  177.4550  141.5900 C   0  0  2  0  0  3  0  0  0  0  0  0
  188.2990  178.1100  145.3390 C   0  0  0  0  0  2  0  0  0  0  0  0
  191.6940  176.5240  146.9980 C   0  0  0  0  0  0  0  0  0  0  0  0
  192.3460  175.3410  146.6390 C   0  0  0  0  0  3  0  0  0  0  0  0
  190.8590  176.7500  144.7280 C   0  0  0  0  0  0  0  0  0  0  0  0
  192.2550  174.8610  145.3300 C   0  0  0  0  0  3  0  0  0  0  0  0
  190.9510  177.2270  146.0460 C   0  0  0  0  0  3  0  0  0  0  0  0
  191.5110  175.5630  144.3770 C   0  0  0  0  0  3  0  0  0  0  0  0
  191.7780  176.9870  148.2680 F   0  0  0  0  0  0  0  0  0  0  0  0
  189.8730  176.9350  139.9080 C   0  0  0  0  0  2  0  0  0  0  0  0
  191.2460  177.2270  139.5230 N   0  0  0  0  0  2  0  0  0  0  0  0
  191.3700  176.9120  138.1090 C   0  0  0  0  0  2  0  0  0  0  0  0
  189.9950  176.6680  137.5110 C   0  0  0  0  0  2  0  0  0  0  0  0
  189.0070  179.5890  137.7180 O   0  0  0  0  0  0  0  0  0  0  0  0
  189.6870  177.6910  136.4240 C   0  0  2  0  0  3  0  0  0  0  0  0
  188.6680  178.6920  136.9030 C   0  0  0  0  0  0  0  0  0  0  0  0
  186.8930  177.7780  135.3550 C   0  0  0  0  0  2  0  0  0  0  0  0
  187.7730  176.5420  135.2410 C   0  0  0  0  0  2  0  0  0  0  0  0
  189.2310  176.9800  135.1470 C   0  0  0  0  0  2  0  0  0  0  0  0
  187.2990  178.5940  136.4940 N   0  0  0  0  0  2  0  0  0  0  0  0
  1 16  1  6  0  0  0
  1  9  1  0  0  0  0
  1 11  1  0  0  0  0
  2 12  1  0  0  0  0
  3  8  1  1  0  0  0
  3 10  1  0  0  0  0
  4 24  1  6  0  0  0
  4 15  1  0  0  0  0
  4 13  1  0  0  0  0
  5  9  1  0  0  0  0
  6  5  1  0  0  0  0
  8  2  1  0  0  0  0
  9 11  1  1  0  0  0
 10 16  1  1  0  0  0
 12  6  1  0  0  0  0
 13 14  1  0  0  0  0
 14 10  1  0  0  0  0
 14 19  1  1  0  0  0
 15  7  1  6  0  0  0
 15  3  1  0  0  0  0
 17 23  1  0  0  0  0
 18 17  1  0  0  0  0
 19 21  1  0  0  0  0
 20 18  2  0  0  0  0
 21 17  2  0  0  0  0
 22 19  2  0  0  0  0
 22 20  1  0  0  0  0
 25 24  1  0  0  0  0
 26 25  1  0  0  0  0
 27 26  1  0  0  0  0
 29 30  1  0  0  0  0
 29 27  1  1  0  0  0
 30 28  2  0  0  0  0
 31 34  1  0  0  0  0
 32 31  1  0  0  0  0
 33 32  1  0  0  0  0
 33 29  1  0  0  0  0
 34 30  1  0  0  0  0
M  END
>  <MODEL>
6

>  <REMARK>
 VINA RESULT:      -9.6      2.836      5.480
  Name = 
  6 active torsions:
  status: ('A' for Active; 'I' for Inactive)
    1  A    between atoms: C_3  and  C_13
    2  A    between atoms: C_3  and  C_17
    3  A    between atoms: C_5  and  C_18
    4  A    between atoms: C_12  and  C_28
    5  A    between atoms: C_17  and  N_29
    6  A    between atoms: C_18  and  N_29
                            x       y       z     vdW  Elec       q    Type
                         _______ _______ _______ _____ _____    ______ ____

>  <TORSDO>
F 6

$$$$
=
 OpenBabel10272400013D

 34 38  0  0  1  0  0  0  0  0999 V2000
  190.1410  176.7620  144.4260 C   0  0  2  0  0  3  0  0  0  0  0  0
  187.2700  178.0840  145.9950 C   0  0  0  0  0  2  0  0  0  0  0  0
  187.4080  178.1980  143.5540 N   0  0  1  0  0  0  0  0  0  0  0  0
  186.1820  178.8780  141.4790 C   0  0  2  0  0  3  0  0  0  0  0  0
  189.8910  176.5390  146.7530 O   0  0  0  0  0  0  0  0  0  0  0  0
  189.0560  177.3070  147.5730 C   0  0  0  0  0  2  0  0  0  0  0  0
  185.0380  178.8520  143.6840 C   0  0  0  0  0  1  0  0  0  0  0  0
  187.2530  177.2950  144.6970 C   0  0  0  0  0  2  0  0  0  0  0  0
  190.3440  177.4220  145.7730 C   0  0  1  0  0  3  0  0  0  0  0  0
  188.5180  177.6570  142.7300 C   0  0  1  0  0  3  0  0  0  0  0  0
  191.5300  176.8570  145.0220 C   0  0  0  0  0  2  0  0  0  0  0  0
  187.5920  177.1640  147.1620 C   0  0  0  0  0  2  0  0  0  0  0  0
  187.2800  178.2800  140.6280 C   0  0  0  0  0  2  0  0  0  0  0  0
  188.6070  178.3380  141.3520 C   0  0  2  0  0  3  0  0  0  0  0  0
  186.1140  178.1680  142.8390 C   0  0  2  0  0  3  0  0  0  0  0  0
  189.8710  177.8690  143.4290 C   0  0  0  0  0  2  0  0  0  0  0  0
  191.9750  177.1900  139.9860 C   0  0  0  0  0  0  0  0  0  0  0  0
  191.5730  176.4670  138.8600 C   0  0  0  0  0  3  0  0  0  0  0  0
  189.6540  177.7090  140.4800 C   0  0  0  0  0  0  0  0  0  0  0  0
  190.2160  176.3620  138.5430 C   0  0  0  0  0  3  0  0  0  0  0  0
  191.0180  177.8090  140.7950 C   0  0  0  0  0  3  0  0  0  0  0  0
  189.2580  176.9800  139.3520 C   0  0  0  0  0  3  0  0  0  0  0  0
  193.2890  177.2880  140.2970 F   0  0  0  0  0  0  0  0  0  0  0  0
  184.8550  178.7880  140.7170 C   0  0  0  0  0  2  0  0  0  0  0  0
  185.0540  179.0030  139.2900 N   0  0  0  0  0  2  0  0  0  0  0  0
  184.2760  177.9910  138.5940 C   0  0  0  0  0  2  0  0  0  0  0  0
  184.8900  177.7150  137.2320 C   0  0  0  0  0  2  0  0  0  0  0  0
  187.4850  179.3730  136.9710 O   0  0  0  0  0  0  0  0  0  0  0  0
  186.3500  177.3010  137.3690 C   0  0  2  0  0  3  0  0  0  0  0  0
  187.2430  178.2070  136.5620 C   0  0  0  0  0  0  0  0  0  0  0  0
  187.7670  176.3790  134.8990 C   0  0  0  0  0  2  0  0  0  0  0  0
  186.5450  175.6630  135.4560 C   0  0  0  0  0  2  0  0  0  0  0  0
  186.5210  175.8320  136.9710 C   0  0  0  0  0  2  0  0  0  0  0  0
  187.7650  177.7820  135.2990 N   0  0  0  0  0  2  0  0  0  0  0  0
  1 16  1  6  0  0  0
  1 11  1  0  0  0  0
  1  9  1  0  0  0  0
  2 12  1  0  0  0  0
  3  8  1  1  0  0  0
  4 24  1  6  0  0  0
  4 15  1  0  0  0  0
  5  6  1  0  0  0  0
  8  2  1  0  0  0  0
  9 11  1  1  0  0  0
  9  5  1  0  0  0  0
 10 16  1  1  0  0  0
 10  3  1  0  0  0  0
 12  6  1  0  0  0  0
 13 14  1  0  0  0  0
 13  4  1  0  0  0  0
 14 19  1  6  0  0  0
 14 10  1  0  0  0  0
 15  3  1  0  0  0  0
 15  7  1  1  0  0  0
 17 23  1  0  0  0  0
 17 21  1  0  0  0  0
 18 17  2  0  0  0  0
 19 21  2  0  0  0  0
 20 18  1  0  0  0  0
 20 22  2  0  0  0  0
 22 19  1  0  0  0  0
 25 24  1  0  0  0  0
 26 25  1  0  0  0  0
 27 26  1  0  0  0  0
 29 27  1  6  0  0  0
 30 28  2  0  0  0  0
 30 29  1  0  0  0  0
 31 34  1  0  0  0  0
 31 32  1  0  0  0  0
 32 33  1  0  0  0  0
 33 29  1  0  0  0  0
 34 30  1  0  0  0  0
M  END
>  <MODEL>
7

>  <REMARK>
 VINA RESULT:      -9.5      2.798      5.218
  Name = 
  6 active torsions:
  status: ('A' for Active; 'I' for Inactive)
    1  A    between atoms: C_3  and  C_13
    2  A    between atoms: C_3  and  C_17
    3  A    between atoms: C_5  and  C_18
    4  A    between atoms: C_12  and  C_28
    5  A    between atoms: C_17  and  N_29
    6  A    between atoms: C_18  and  N_29
                            x       y       z     vdW  Elec       q    Type
                         _______ _______ _______ _____ _____    ______ ____

>  <TORSDO>
F 6

$$$$
=
 OpenBabel10272400013D

 34 38  0  0  1  0  0  0  0  0999 V2000
  187.1940  177.4090  145.3830 C   0  0  2  0  0  3  0  0  0  0  0  0
  185.9830  178.8460  142.3960 C   0  0  0  0  0  2  0  0  0  0  0  0
  188.2990  178.0570  142.4410 N   0  0  1  0  0  0  0  0  0  0  0  0
  190.3690  177.7530  141.0650 C   0  0  2  0  0  3  0  0  0  0  0  0
  184.9340  178.0410  145.2390 O   0  0  0  0  0  0  0  0  0  0  0  0
  184.3850  178.9480  144.3240 C   0  0  0  0  0  2  0  0  0  0  0  0
  188.2200  178.4060  140.0050 C   0  0  0  0  0  1  0  0  0  0  0  0
  186.8960  177.6340  142.4560 C   0  0  0  0  0  2  0  0  0  0  0  0
  186.2030  178.5450  145.5260 C   0  0  1  0  0  3  0  0  0  0  0  0
  188.9580  177.3930  143.5940 C   0  0  1  0  0  3  0  0  0  0  0  0
  186.7920  177.8950  146.7590 C   0  0  0  0  0  2  0  0  0  0  0  0
  184.5910  178.4770  142.8860 C   0  0  0  0  0  2  0  0  0  0  0  0
  191.0310  177.0240  142.2130 C   0  0  0  0  0  2  0  0  0  0  0  0
  190.4920  177.5160  143.5380 C   0  0  2  0  0  3  0  0  0  0  0  0
  188.8430  177.5990  141.1450 C   0  0  2  0  0  3  0  0  0  0  0  0
  188.5000  178.0200  144.9200 C   0  0  0  0  0  2  0  0  0  0  0  0
  191.7900  176.4880  146.9710 C   0  0  0  0  0  0  0  0  0  0  0  0
  192.3570  175.2450  146.6810 C   0  0  0  0  0  3  0  0  0  0  0  0
  191.1580  176.7450  144.6400 C   0  0  0  0  0  0  0  0  0  0  0  0
  192.3260  174.7500  145.3740 C   0  0  0  0  0  3  0  0  0  0  0  0
  191.1900  177.2370  145.9550 C   0  0  0  0  0  3  0  0  0  0  0  0
  191.7260  175.4970  144.3560 C   0  0  0  0  0  3  0  0  0  0  0  0
  191.8150  176.9680  148.2380 F   0  0  0  0  0  0  0  0  0  0  0  0
  190.9330  177.2180  139.7440 C   0  0  0  0  0  2  0  0  0  0  0  0
  190.4750  175.8590  139.4890 N   0  0  0  0  0  2  0  0  0  0  0  0
  190.1360  175.7790  138.0780 C   0  0  0  0  0  2  0  0  0  0  0  0
  191.2210  176.4440  137.2480 C   0  0  0  0  0  2  0  0  0  0  0  0
  194.0410  176.0440  138.4460 O   0  0  0  0  0  0  0  0  0  0  0  0
  192.3180  175.4470  136.8920 C   0  0  2  0  0  3  0  0  0  0  0  0
  193.6760  175.9980  137.2430 C   0  0  0  0  0  0  0  0  0  0  0  0
  194.3080  176.2620  134.8110 C   0  0  0  0  0  2  0  0  0  0  0  0
  192.8200  176.1440  134.5170 C   0  0  0  0  0  2  0  0  0  0  0  0
  192.2230  175.0650  135.4130 C   0  0  0  0  0  2  0  0  0  0  0  0
  194.5320  176.5330  136.2270 N   0  0  0  0  0  2  0  0  0  0  0  0
  1 16  1  6  0  0  0
  1  9  1  0  0  0  0
  1 11  1  0  0  0  0
  2  8  1  0  0  0  0
  2 12  1  0  0  0  0
  3  8  1  6  0  0  0
  3 10  1  0  0  0  0
  4 24  1  6  0  0  0
  4 15  1  0  0  0  0
  4 13  1  0  0  0  0
  5  9  1  0  0  0  0
  6  5  1  0  0  0  0
  9 11  1  1  0  0  0
 10 16  1  1  0  0  0
 12  6  1  0  0  0  0
 13 14  1  0  0  0  0
 14 10  1  0  0  0  0
 14 19  1  1  0  0  0
 15  7  1  6  0  0  0
 15  3  1  0  0  0  0
 17 23  1  0  0  0  0
 18 17  1  0  0  0  0
 19 21  1  0  0  0  0
 20 18  2  0  0  0  0
 21 17  2  0  0  0  0
 22 19  2  0  0  0  0
 22 20  1  0  0  0  0
 25 24  1  0  0  0  0
 26 25  1  0  0  0  0
 27 26  1  0  0  0  0
 29 30  1  0  0  0  0
 29 27  1  6  0  0  0
 30 28  2  0  0  0  0
 31 34  1  0  0  0  0
 32 31  1  0  0  0  0
 32 33  1  0  0  0  0
 33 29  1  0  0  0  0
 34 30  1  0  0  0  0
M  END
>  <MODEL>
8

>  <REMARK>
 VINA RESULT:      -9.4      3.014      5.488
  Name = 
  6 active torsions:
  status: ('A' for Active; 'I' for Inactive)
    1  A    between atoms: C_3  and  C_13
    2  A    between atoms: C_3  and  C_17
    3  A    between atoms: C_5  and  C_18
    4  A    between atoms: C_12  and  C_28
    5  A    between atoms: C_17  and  N_29
    6  A    between atoms: C_18  and  N_29
                            x       y       z     vdW  Elec       q    Type
                         _______ _______ _______ _____ _____    ______ ____

>  <TORSDO>
F 6

$$$$
=
 OpenBabel10272400013D

 34 38  0  0  1  0  0  0  0  0999 V2000
  187.0290  177.4320  145.2140 C   0  0  2  0  0  3  0  0  0  0  0  0
  185.8960  178.9200  142.2210 C   0  0  0  0  0  2  0  0  0  0  0  0
  188.2050  178.1170  142.3080 N   0  0  1  0  0  0  0  0  0  0  0  0
  190.3050  177.8200  140.9760 C   0  0  2  0  0  3  0  0  0  0  0  0
  184.7770  178.0800  145.0270 O   0  0  0  0  0  0  0  0  0  0  0  0
  184.2540  179.0030  144.1140 C   0  0  0  0  0  2  0  0  0  0  0  0
  188.1850  178.5020  139.8770 C   0  0  0  0  0  1  0  0  0  0  0  0
  186.8010  177.7020  142.2850 C   0  0  0  0  0  2  0  0  0  0  0  0
  186.0420  178.5720  145.3510 C   0  0  1  0  0  3  0  0  0  0  0  0
  188.8340  177.4320  143.4660 C   0  0  1  0  0  3  0  0  0  0  0  0
  186.5980  177.9000  146.5880 C   0  0  0  0  0  2  0  0  0  0  0  0
  184.4910  178.5530  142.6740 C   0  0  0  0  0  2  0  0  0  0  0  0
  190.9360  177.0700  142.1280 C   0  0  0  0  0  2  0  0  0  0  0  0
  190.3700  177.5460  143.4480 C   0  0  2  0  0  3  0  0  0  0  0  0
  188.7770  177.6750  141.0180 C   0  0  2  0  0  3  0  0  0  0  0  0
  188.3490  178.0420  144.7910 C   0  0  0  0  0  2  0  0  0  0  0  0
  192.2430  174.8170  145.3360 C   0  0  0  0  0  0  0  0  0  0  0  0
  192.2370  175.3370  146.6330 C   0  0  0  0  0  3  0  0  0  0  0  0
  191.0060  176.7550  144.5530 C   0  0  0  0  0  0  0  0  0  0  0  0
  191.6180  176.5630  146.8920 C   0  0  0  0  0  3  0  0  0  0  0  0
  191.6310  175.5230  144.2970 C   0  0  0  0  0  3  0  0  0  0  0  0
  191.0050  177.2710  145.8530 C   0  0  0  0  0  3  0  0  0  0  0  0
  192.8470  173.6310  145.0820 F   0  0  0  0  0  0  0  0  0  0  0  0
  190.8960  177.3010  139.6610 C   0  0  0  0  0  2  0  0  0  0  0  0
  190.5400  175.9070  139.4390 N   0  0  0  0  0  2  0  0  0  0  0  0
  190.2200  175.7660  138.0270 C   0  0  0  0  0  2  0  0  0  0  0  0
  191.4880  175.8780  137.1970 C   0  0  0  0  0  2  0  0  0  0  0  0
  194.0720  176.1830  138.8640 O   0  0  0  0  0  0  0  0  0  0  0  0
  192.5150  174.8400  137.6350 C   0  0  2  0  0  3  0  0  0  0  0  0
  193.8650  175.4760  137.8430 C   0  0  0  0  0  0  0  0  0  0  0  0
  194.8320  174.3300  135.8100 C   0  0  0  0  0  2  0  0  0  0  0  0
  193.3910  174.0850  135.3890 C   0  0  0  0  0  2  0  0  0  0  0  0
  192.5750  173.6970  136.6170 C   0  0  0  0  0  2  0  0  0  0  0  0
  194.8950  175.3430  136.8580 N   0  0  0  0  0  2  0  0  0  0  0  0
  1 16  1  1  0  0  0
  1  9  1  0  0  0  0
  1 11  1  0  0  0  0
  2  8  1  0  0  0  0
  2 12  1  0  0  0  0
  3  8  1  6  0  0  0
  3 10  1  0  0  0  0
  4 24  1  6  0  0  0
  4 15  1  0  0  0  0
  4 13  1  0  0  0  0
  5  9  1  0  0  0  0
  6  5  1  0  0  0  0
  9 11  1  1  0  0  0
 10 16  1  1  0  0  0
 12  6  1  0  0  0  0
 13 14  1  0  0  0  0
 14 10  1  0  0  0  0
 14 19  1  1  0  0  0
 15  7  1  6  0  0  0
 15  3  1  0  0  0  0
 17 18  1  0  0  0  0
 18 20  2  0  0  0  0
 19 22  2  0  0  0  0
 21 19  1  0  0  0  0
 21 17  2  0  0  0  0
 22 20  1  0  0  0  0
 23 17  1  0  0  0  0
 25 24  1  0  0  0  0
 26 25  1  0  0  0  0
 27 26  1  0  0  0  0
 29 27  1  6  0  0  0
 29 30  1  0  0  0  0
 30 28  2  0  0  0  0
 31 34  1  0  0  0  0
 32 31  1  0  0  0  0
 32 33  1  0  0  0  0
 33 29  1  0  0  0  0
 34 30  1  0  0  0  0
M  END
>  <MODEL>
9

>  <REMARK>
 VINA RESULT:      -9.4      3.078      5.531
  Name = 
  6 active torsions:
  status: ('A' for Active; 'I' for Inactive)
    1  A    between atoms: C_3  and  C_13
    2  A    between atoms: C_3  and  C_17
    3  A    between atoms: C_5  and  C_18
    4  A    between atoms: C_12  and  C_28
    5  A    between atoms: C_17  and  N_29
    6  A    between atoms: C_18  and  N_29
                            x       y       z     vdW  Elec       q    Type
                         _______ _______ _______ _____ _____    ______ ____

>  <TORSDO>
F 6

$$$$
