=
 OpenBabel10272413343D

 32 37  0  0  1  0  0  0  0  0999 V2000
  182.1610  178.8330  142.6770 C   0  0  0  0  0  0  0  0  0  0  0  0
  187.0290  178.1080  143.7770 C   0  0  0  0  0  0  0  0  0  0  0  0
  189.2770  177.6910  139.4850 C   0  0  0  0  0  3  0  0  0  0  0  0
  190.4900  177.5170  140.1520 C   0  0  0  0  0  3  0  0  0  0  0  0
  184.6400  178.4750  143.9290 C   0  0  0  0  0  0  0  0  0  0  0  0
  185.6980  178.2800  141.7480 C   0  0  0  0  0  3  0  0  0  0  0  0
  183.3090  178.6510  141.9000 C   0  0  0  0  0  3  0  0  0  0  0  0
  188.1000  177.8830  140.2120 C   0  0  0  0  0  3  0  0  0  0  0  0
  186.9470  178.0970  142.3660 C   0  0  0  0  0  0  0  0  0  0  0  0
  188.1230  177.9040  141.6170 C   0  0  0  0  0  0  0  0  0  0  0  0
  189.3800  177.7480  143.7000 C   0  0  0  0  0  0  0  0  0  0  0  0
  182.2520  178.8450  144.0740 C   0  0  0  0  0  3  0  0  0  0  0  0
  184.5490  178.4680  142.5190 C   0  0  0  0  0  0  0  0  0  0  0  0
  183.4900  178.6640  144.6990 C   0  0  0  0  0  3  0  0  0  0  0  0
  190.5310  177.5350  141.5470 C   0  0  0  0  0  3  0  0  0  0  0  0
  189.3560  177.7270  142.2920 C   0  0  0  0  0  0  0  0  0  0  0  0
  185.8780  178.2950  144.5480 C   0  0  0  0  0  3  0  0  0  0  0  0
  188.2260  177.9330  144.3920 N   0  0  0  0  0  0  0  0  0  0  0  0
  180.8450  179.0530  142.0160 C   0  0  0  0  0  2  0  0  0  0  0  0
  180.9180  178.6340  140.6270 N   0  0  0  0  0  2  0  0  0  0  0  0
  180.4640  179.7550  139.8260 C   0  0  1  0  0  3  0  0  0  0  0  0
  181.5690  180.3320  139.1740 O   0  0  0  0  0  0  0  0  0  0  0  0
  180.7480  179.4940  138.3990 C   0  0  0  0  0  2  0  0  0  0  0  0
  190.6490  177.5350  144.4660 C   0  0  0  0  0  2  0  0  0  0  0  0
  190.3680  176.8630  145.8100 C   0  0  1  0  0  3  0  0  0  0  0  0
  191.5810  176.0910  146.3230 C   0  0  0  0  0  2  0  0  0  0  0  0
  192.1910  176.7570  147.3880 O   0  0  0  0  0  0  0  0  0  0  0  0
  192.7140  175.7380  148.1840 C   0  0  0  0  0  1  0  0  0  0  0  0
  189.7870  177.8170  146.8590 C   0  0  0  0  0  2  0  0  0  0  0  0
  188.4330  178.0720  148.9120 C   0  0  0  0  0  2  0  0  0  0  0  0
  187.4860  178.0040  147.7370 C   0  0  0  0  0  2  0  0  0  0  0  0
  188.7410  177.1570  147.7440 C   0  0  0  0  0  3  0  0  0  0  0  0
  1 12  1  0  0  0  0
  2 18  1  0  0  0  0
  2 17  1  0  0  0  0
  3  4  2  0  0  0  0
  3  8  1  0  0  0  0
  4 15  1  0  0  0  0
  5 17  2  0  0  0  0
  5 14  1  0  0  0  0
  6  9  1  0  0  0  0
  6 13  2  0  0  0  0
  7 13  1  0  0  0  0
  7  1  2  0  0  0  0
  8 10  2  0  0  0  0
  9  2  2  0  0  0  0
 10 16  1  0  0  0  0
 10  9  1  0  0  0  0
 11 18  2  0  0  0  0
 11 24  1  0  0  0  0
 12 14  2  0  0  0  0
 13  5  1  0  0  0  0
 15 16  2  0  0  0  0
 16 11  1  0  0  0  0
 19  1  1  0  0  0  0
 20 19  1  0  0  0  0
 21 20  1  1  0  0  0
 22 21  1  0  0  0  0
 23 22  1  0  0  0  0
 23 21  1  0  0  0  0
 25 24  1  6  0  0  0
 25 26  1  0  0  0  0
 25 29  1  0  0  0  0
 26 27  1  0  0  0  0
 27 28  1  0  0  0  0
 29 32  1  0  0  0  0
 31 32  1  0  0  0  0
 31 30  1  0  0  0  0
 32 30  1  0  0  0  0
M  END
>  <MODEL>
1

>  <REMARK>
 VINA RESULT:      -8.9      0.000      0.000
  Name = 
  9 active torsions:
  status: ('A' for Active; 'I' for Inactive)
    1  A    between atoms: C_1  and  N_10
    2  A    between atoms: C_2  and  C_24
    3  A    between atoms: O_6  and  C_7
    4  A    between atoms: C_7  and  C_32
    5  A    between atoms: N_10  and  C_24
    6  A    between atoms: C_16  and  C_27
    7  A    between atoms: C_22  and  C_30
    8  A    between atoms: C_22  and  C_32
    9  A    between atoms: C_27  and  C_32
                            x       y       z     vdW  Elec       q    Type
                         _______ _______ _______ _____ _____    ______ ____

>  <TORSDO>
F 9

$$$$
=
 OpenBabel10272413343D

 32 37  0  0  1  0  0  0  0  0999 V2000
  189.3700  177.3210  146.1020 C   0  0  0  0  0  0  0  0  0  0  0  0
  186.3840  178.2740  142.1500 C   0  0  0  0  0  0  0  0  0  0  0  0
  181.9190  178.8110  144.0020 C   0  0  0  0  0  3  0  0  0  0  0  0
  181.4280  179.0410  142.7160 C   0  0  0  0  0  3  0  0  0  0  0  0
  188.2940  177.7920  143.5600 C   0  0  0  0  0  0  0  0  0  0  0  0
  186.0900  178.0520  144.5550 C   0  0  0  0  0  3  0  0  0  0  0  0
  188.0010  177.5730  145.9640 C   0  0  0  0  0  3  0  0  0  0  0  0
  183.2790  178.5610  144.1960 C   0  0  0  0  0  3  0  0  0  0  0  0
  185.5390  178.2870  143.2840 C   0  0  0  0  0  0  0  0  0  0  0  0
  184.1660  178.5370  143.1060 C   0  0  0  0  0  0  0  0  0  0  0  0
  184.5510  178.7470  140.7080 C   0  0  0  0  0  0  0  0  0  0  0  0
  190.1990  177.3120  144.9740 C   0  0  0  0  0  3  0  0  0  0  0  0
  187.4570  177.8050  144.6980 C   0  0  0  0  0  0  0  0  0  0  0  0
  189.6610  177.5460  143.7040 C   0  0  0  0  0  3  0  0  0  0  0  0
  182.2940  179.0220  141.6220 C   0  0  0  0  0  3  0  0  0  0  0  0
  183.6640  178.7700  141.8010 C   0  0  0  0  0  0  0  0  0  0  0  0
  187.7520  178.0260  142.2940 C   0  0  0  0  0  3  0  0  0  0  0  0
  185.8710  178.4990  140.9140 N   0  0  0  0  0  0  0  0  0  0  0  0
  189.9510  177.0980  147.4540 C   0  0  0  0  0  2  0  0  0  0  0  0
  191.3990  177.0240  147.3600 N   0  0  0  0  0  2  0  0  0  0  0  0
  191.7750  175.6740  147.7340 C   0  0  1  0  0  3  0  0  0  0  0  0
  193.0170  175.3640  147.1500 O   0  0  0  0  0  0  0  0  0  0  0  0
  193.0310  175.7050  148.5130 C   0  0  0  0  0  2  0  0  0  0  0  0
  184.0720  178.9560  139.3050 C   0  0  0  0  0  2  0  0  0  0  0  0
  183.8340  177.6180  138.6050 C   0  0  1  0  0  3  0  0  0  0  0  0
  182.4260  177.5240  138.0240 C   0  0  0  0  0  2  0  0  0  0  0  0
  181.5110  177.0820  138.9810 O   0  0  0  0  0  0  0  0  0  0  0  0
  181.9940  175.8350  139.3770 C   0  0  0  0  0  1  0  0  0  0  0  0
  184.9200  177.2620  137.5850 C   0  0  0  0  0  2  0  0  0  0  0  0
  187.3670  177.5990  137.7070 C   0  0  0  0  0  2  0  0  0  0  0  0
  186.9120  178.0000  136.3230 C   0  0  0  0  0  2  0  0  0  0  0  0
  186.0350  178.2950  137.5220 C   0  0  0  0  0  3  0  0  0  0  0  0
  1 19  1  0  0  0  0
  2 17  2  0  0  0  0
  2  9  1  0  0  0  0
  3  8  1  0  0  0  0
  4  3  2  0  0  0  0
  5 14  2  0  0  0  0
  5 13  1  0  0  0  0
  6 13  1  0  0  0  0
  7  1  1  0  0  0  0
  9  6  2  0  0  0  0
 10  9  1  0  0  0  0
 10  8  2  0  0  0  0
 11 18  2  0  0  0  0
 11 16  1  0  0  0  0
 12  1  2  0  0  0  0
 13  7  2  0  0  0  0
 14 12  1  0  0  0  0
 15 16  2  0  0  0  0
 15  4  1  0  0  0  0
 16 10  1  0  0  0  0
 17  5  1  0  0  0  0
 18  2  1  0  0  0  0
 20 19  1  0  0  0  0
 21 20  1  6  0  0  0
 21 23  1  0  0  0  0
 22 21  1  0  0  0  0
 22 23  1  0  0  0  0
 24 11  1  0  0  0  0
 25 29  1  6  0  0  0
 25 24  1  0  0  0  0
 26 25  1  0  0  0  0
 26 27  1  0  0  0  0
 27 28  1  0  0  0  0
 31 32  1  0  0  0  0
 31 30  1  0  0  0  0
 32 29  1  0  0  0  0
 32 30  1  0  0  0  0
M  END
>  <MODEL>
2

>  <REMARK>
 VINA RESULT:      -8.7      2.253      9.338
  Name = 
  9 active torsions:
  status: ('A' for Active; 'I' for Inactive)
    1  A    between atoms: C_1  and  N_10
    2  A    between atoms: C_2  and  C_24
    3  A    between atoms: O_6  and  C_7
    4  A    between atoms: C_7  and  C_32
    5  A    between atoms: N_10  and  C_24
    6  A    between atoms: C_16  and  C_27
    7  A    between atoms: C_22  and  C_30
    8  A    between atoms: C_22  and  C_32
    9  A    between atoms: C_27  and  C_32
                            x       y       z     vdW  Elec       q    Type
                         _______ _______ _______ _____ _____    ______ ____

>  <TORSDO>
F 9

$$$$
=
 OpenBabel10272413343D

 32 37  0  0  1  0  0  0  0  0999 V2000
  188.8510  177.3300  146.1280 C   0  0  0  0  0  0  0  0  0  0  0  0
  185.8670  178.3270  142.1860 C   0  0  0  0  0  0  0  0  0  0  0  0
  181.4080  178.8840  144.0480 C   0  0  0  0  0  3  0  0  0  0  0  0
  180.9170  179.1250  142.7640 C   0  0  0  0  0  3  0  0  0  0  0  0
  187.7750  177.8230  143.5900 C   0  0  0  0  0  0  0  0  0  0  0  0
  185.5750  178.0920  144.5910 C   0  0  0  0  0  3  0  0  0  0  0  0
  187.4840  177.5920  145.9940 C   0  0  0  0  0  3  0  0  0  0  0  0
  182.7670  178.6230  144.2390 C   0  0  0  0  0  3  0  0  0  0  0  0
  185.0230  178.3390  143.3210 C   0  0  0  0  0  0  0  0  0  0  0  0
  183.6510  178.6000  143.1470 C   0  0  0  0  0  0  0  0  0  0  0  0
  184.0350  178.8210  140.7500 C   0  0  0  0  0  0  0  0  0  0  0  0
  189.6790  177.3220  144.9990 C   0  0  0  0  0  3  0  0  0  0  0  0
  186.9400  177.8350  144.7300 C   0  0  0  0  0  0  0  0  0  0  0  0
  189.1410  177.5660  143.7310 C   0  0  0  0  0  3  0  0  0  0  0  0
  181.7810  179.1060  141.6690 C   0  0  0  0  0  3  0  0  0  0  0  0
  183.1500  178.8440  141.8440 C   0  0  0  0  0  0  0  0  0  0  0  0
  187.2330  178.0680  142.3270 C   0  0  0  0  0  3  0  0  0  0  0  0
  185.3530  178.5620  140.9520 N   0  0  0  0  0  0  0  0  0  0  0  0
  189.4330  177.0950  147.4780 C   0  0  0  0  0  2  0  0  0  0  0  0
  190.8840  177.1070  147.3960 N   0  0  0  0  0  2  0  0  0  0  0  0
  191.3250  175.7380  147.5810 C   0  0  1  0  0  3  0  0  0  0  0  0
  192.3700  175.4660  146.6790 O   0  0  0  0  0  0  0  0  0  0  0  0
  192.7400  175.7250  148.0100 C   0  0  0  0  0  2  0  0  0  0  0  0
  183.5550  179.0410  139.3490 C   0  0  0  0  0  2  0  0  0  0  0  0
  183.3700  177.7100  138.6200 C   0  0  1  0  0  3  0  0  0  0  0  0
  184.6160  177.3160  137.8310 C   0  0  0  0  0  2  0  0  0  0  0  0
  185.4990  178.3910  137.7100 O   0  0  0  0  0  0  0  0  0  0  0  0
  186.7490  177.7990  137.5420 C   0  0  0  0  0  1  0  0  0  0  0  0
  182.8650  176.5830  139.5280 C   0  0  0  0  0  2  0  0  0  0  0  0
  180.5700  175.8740  140.1140 C   0  0  0  0  0  2  0  0  0  0  0  0
  180.4690  176.9290  139.0370 C   0  0  0  0  0  2  0  0  0  0  0  0
  181.5990  175.9230  139.0040 C   0  0  0  0  0  3  0  0  0  0  0  0
  1 19  1  0  0  0  0
  2 17  2  0  0  0  0
  2  9  1  0  0  0  0
  3  8  1  0  0  0  0
  4  3  2  0  0  0  0
  5 14  2  0  0  0  0
  5 13  1  0  0  0  0
  6 13  1  0  0  0  0
  7  1  1  0  0  0  0
  9  6  2  0  0  0  0
 10  9  1  0  0  0  0
 10  8  2  0  0  0  0
 11 18  2  0  0  0  0
 11 16  1  0  0  0  0
 12  1  2  0  0  0  0
 13  7  2  0  0  0  0
 14 12  1  0  0  0  0
 15 16  2  0  0  0  0
 15  4  1  0  0  0  0
 16 10  1  0  0  0  0
 17  5  1  0  0  0  0
 18  2  1  0  0  0  0
 20 19  1  0  0  0  0
 21 20  1  6  0  0  0
 21 23  1  0  0  0  0
 22 21  1  0  0  0  0
 22 23  1  0  0  0  0
 24 11  1  0  0  0  0
 25 26  1  1  0  0  0
 25 24  1  0  0  0  0
 25 29  1  0  0  0  0
 27 26  1  0  0  0  0
 28 27  1  0  0  0  0
 31 30  1  0  0  0  0
 32 31  1  0  0  0  0
 32 29  1  0  0  0  0
 32 30  1  0  0  0  0
M  END
>  <MODEL>
3

>  <REMARK>
 VINA RESULT:      -8.7      2.272      9.113
  Name = 
  9 active torsions:
  status: ('A' for Active; 'I' for Inactive)
    1  A    between atoms: C_1  and  N_10
    2  A    between atoms: C_2  and  C_24
    3  A    between atoms: O_6  and  C_7
    4  A    between atoms: C_7  and  C_32
    5  A    between atoms: N_10  and  C_24
    6  A    between atoms: C_16  and  C_27
    7  A    between atoms: C_22  and  C_30
    8  A    between atoms: C_22  and  C_32
    9  A    between atoms: C_27  and  C_32
                            x       y       z     vdW  Elec       q    Type
                         _______ _______ _______ _____ _____    ______ ____

>  <TORSDO>
F 9

$$$$
=
 OpenBabel10272413343D

 32 37  0  0  1  0  0  0  0  0999 V2000
  182.4500  178.9390  139.8300 C   0  0  0  0  0  0  0  0  0  0  0  0
  186.8150  178.3330  142.2830 C   0  0  0  0  0  0  0  0  0  0  0  0
  185.6280  178.0830  146.9930 C   0  0  0  0  0  3  0  0  0  0  0  0
  186.9780  177.9290  147.3110 C   0  0  0  0  0  3  0  0  0  0  0  0
  185.1340  178.6270  140.5640 C   0  0  0  0  0  0  0  0  0  0  0  0
  184.4680  178.5060  142.8990 C   0  0  0  0  0  3  0  0  0  0  0  0
  182.7880  178.7960  141.1800 C   0  0  0  0  0  3  0  0  0  0  0  0
  185.2360  178.2230  145.6600 C   0  0  0  0  0  3  0  0  0  0  0  0
  185.8120  178.3510  143.2790 C   0  0  0  0  0  0  0  0  0  0  0  0
  186.1890  178.2110  144.6280 C   0  0  0  0  0  0  0  0  0  0  0  0
  188.5170  178.0440  143.9210 C   0  0  0  0  0  0  0  0  0  0  0  0
  183.4490  178.9170  138.8500 C   0  0  0  0  0  3  0  0  0  0  0  0
  184.1260  178.6430  141.5530 C   0  0  0  0  0  0  0  0  0  0  0  0
  184.7900  178.7630  139.2170 C   0  0  0  0  0  3  0  0  0  0  0  0
  187.9390  177.9150  146.2990 C   0  0  0  0  0  3  0  0  0  0  0  0
  187.5600  178.0560  144.9540 C   0  0  0  0  0  0  0  0  0  0  0  0
  186.4710  178.4720  140.9350 C   0  0  0  0  0  3  0  0  0  0  0  0
  188.1190  178.1840  142.6300 N   0  0  0  0  0  0  0  0  0  0  0  0
  181.0220  179.0760  139.4320 C   0  0  0  0  0  2  0  0  0  0  0  0
  180.9110  179.9870  138.3060 N   0  0  0  0  0  2  0  0  0  0  0  0
  180.7590  181.3200  138.8570 C   0  0  1  0  0  3  0  0  0  0  0  0
  181.8420  182.1160  138.4430 O   0  0  0  0  0  0  0  0  0  0  0  0
  180.6280  182.3010  137.7580 C   0  0  0  0  0  2  0  0  0  0  0  0
  189.9810  177.9140  144.2100 C   0  0  0  0  0  2  0  0  0  0  0  0
  190.4750  176.5020  143.8960 C   0  0  1  0  0  3  0  0  0  0  0  0
  190.8580  176.3480  142.4260 C   0  0  0  0  0  2  0  0  0  0  0  0
  191.3380  177.5480  141.9000 O   0  0  0  0  0  0  0  0  0  0  0  0
  191.4080  177.3240  140.5260 C   0  0  0  0  0  1  0  0  0  0  0  0
  191.5730  176.0150  144.8470 C   0  0  0  0  0  2  0  0  0  0  0  0
  190.7750  176.0210  147.1870 C   0  0  0  0  0  2  0  0  0  0  0  0
  192.2820  175.9250  147.2110 C   0  0  0  0  0  2  0  0  0  0  0  0
  191.5970  176.7760  146.1630 C   0  0  0  0  0  3  0  0  0  0  0  0
  1  7  1  0  0  0  0
  2 18  1  0  0  0  0
  2  9  1  0  0  0  0
  3  4  1  0  0  0  0
  5 17  1  0  0  0  0
  5 13  1  0  0  0  0
  6  9  2  0  0  0  0
  7 13  2  0  0  0  0
  8  3  2  0  0  0  0
  9 10  1  0  0  0  0
 10 16  2  0  0  0  0
 10  8  1  0  0  0  0
 11 24  1  0  0  0  0
 11 16  1  0  0  0  0
 12 14  1  0  0  0  0
 12  1  2  0  0  0  0
 13  6  1  0  0  0  0
 14  5  2  0  0  0  0
 15  4  2  0  0  0  0
 16 15  1  0  0  0  0
 17  2  2  0  0  0  0
 18 11  2  0  0  0  0
 19  1  1  0  0  0  0
 20 19  1  0  0  0  0
 21 20  1  6  0  0  0
 22 21  1  0  0  0  0
 23 22  1  0  0  0  0
 23 21  1  0  0  0  0
 25 26  1  6  0  0  0
 25 24  1  0  0  0  0
 25 29  1  0  0  0  0
 27 26  1  0  0  0  0
 28 27  1  0  0  0  0
 29 32  1  0  0  0  0
 30 31  1  0  0  0  0
 32 30  1  0  0  0  0
 32 31  1  0  0  0  0
M  END
>  <MODEL>
4

>  <REMARK>
 VINA RESULT:      -8.5      1.825      4.097
  Name = 
  9 active torsions:
  status: ('A' for Active; 'I' for Inactive)
    1  A    between atoms: C_1  and  N_10
    2  A    between atoms: C_2  and  C_24
    3  A    between atoms: O_6  and  C_7
    4  A    between atoms: C_7  and  C_32
    5  A    between atoms: N_10  and  C_24
    6  A    between atoms: C_16  and  C_27
    7  A    between atoms: C_22  and  C_30
    8  A    between atoms: C_22  and  C_32
    9  A    between atoms: C_27  and  C_32
                            x       y       z     vdW  Elec       q    Type
                         _______ _______ _______ _____ _____    ______ ____

>  <TORSDO>
F 9

$$$$
=
 OpenBabel10272413343D

 32 37  0  0  1  0  0  0  0  0999 V2000
  187.9260  177.8570  146.9670 C   0  0  0  0  0  0  0  0  0  0  0  0
  184.9680  178.5990  142.9510 C   0  0  0  0  0  0  0  0  0  0  0  0
  187.8660  178.0370  139.0860 C   0  0  0  0  0  3  0  0  0  0  0  0
  186.7790  178.2960  138.2500 C   0  0  0  0  0  3  0  0  0  0  0  0
  185.8050  178.3660  145.2110 C   0  0  0  0  0  0  0  0  0  0  0  0
  187.3120  178.0670  143.3250 C   0  0  0  0  0  3  0  0  0  0  0  0
  188.1480  177.8300  145.5860 C   0  0  0  0  0  3  0  0  0  0  0  0
  187.6990  178.0450  140.4720 C   0  0  0  0  0  3  0  0  0  0  0  0
  186.2550  178.3230  142.4350 C   0  0  0  0  0  0  0  0  0  0  0  0
  186.4420  178.3120  141.0400 C   0  0  0  0  0  0  0  0  0  0  0  0
  184.0790  178.8420  140.7560 C   0  0  0  0  0  0  0  0  0  0  0  0
  186.6480  178.1280  147.4680 C   0  0  0  0  0  3  0  0  0  0  0  0
  187.0940  178.0870  144.7040 C   0  0  0  0  0  0  0  0  0  0  0  0
  185.5890  178.3850  146.5910 C   0  0  0  0  0  3  0  0  0  0  0  0
  185.5230  178.5630  138.7960 C   0  0  0  0  0  3  0  0  0  0  0  0
  185.3400  178.5750  140.1890 C   0  0  0  0  0  0  0  0  0  0  0  0
  184.7510  178.6200  144.3310 C   0  0  0  0  0  3  0  0  0  0  0  0
  183.9340  178.8490  142.1070 N   0  0  0  0  0  0  0  0  0  0  0  0
  189.0450  177.5590  147.9030 C   0  0  0  0  0  2  0  0  0  0  0  0
  189.8320  176.4500  147.3910 N   0  0  0  0  0  2  0  0  0  0  0  0
  191.2200  176.8670  147.4310 C   0  0  1  0  0  3  0  0  0  0  0  0
  192.0280  175.7520  147.7190 O   0  0  0  0  0  0  0  0  0  0  0  0
  191.9810  176.1640  146.3760 C   0  0  0  0  0  2  0  0  0  0  0  0
  182.8880  179.1580  139.9060 C   0  0  0  0  0  2  0  0  0  0  0  0
  181.6620  178.3730  140.3730 C   0  0  1  0  0  3  0  0  0  0  0  0
  180.5130  179.2970  140.7680 C   0  0  0  0  0  2  0  0  0  0  0  0
  180.6420  179.7300  142.0890 O   0  0  0  0  0  0  0  0  0  0  0  0
  180.3320  178.6080  142.8560 C   0  0  0  0  0  1  0  0  0  0  0  0
  181.2290  177.2780  139.3920 C   0  0  0  0  0  2  0  0  0  0  0  0
  181.6760  175.0410  138.4380 C   0  0  0  0  0  2  0  0  0  0  0  0
  182.9820  175.8000  138.4730 C   0  0  0  0  0  2  0  0  0  0  0  0
  181.9800  175.9710  139.5950 C   0  0  0  0  0  3  0  0  0  0  0  0
  1 12  1  0  0  0  0
  1 19  1  0  0  0  0
  2 17  1  0  0  0  0
  3  8  1  0  0  0  0
  4 15  1  0  0  0  0
  4  3  2  0  0  0  0
  5 14  1  0  0  0  0
  6 13  2  0  0  0  0
  7  1  2  0  0  0  0
  8 10  2  0  0  0  0
  9  2  2  0  0  0  0
  9  6  1  0  0  0  0
 10  9  1  0  0  0  0
 11 18  2  0  0  0  0
 13  5  1  0  0  0  0
 13  7  1  0  0  0  0
 14 12  2  0  0  0  0
 15 16  2  0  0  0  0
 16 11  1  0  0  0  0
 16 10  1  0  0  0  0
 17  5  2  0  0  0  0
 18  2  1  0  0  0  0
 20 19  1  0  0  0  0
 21 20  1  6  0  0  0
 21 22  1  0  0  0  0
 23 21  1  0  0  0  0
 23 22  1  0  0  0  0
 24 25  1  0  0  0  0
 24 11  1  0  0  0  0
 25 29  1  6  0  0  0
 25 26  1  0  0  0  0
 26 27  1  0  0  0  0
 27 28  1  0  0  0  0
 29 32  1  0  0  0  0
 30 31  1  0  0  0  0
 30 32  1  0  0  0  0
 31 32  1  0  0  0  0
M  END
>  <MODEL>
5

>  <REMARK>
 VINA RESULT:      -8.4      2.115      8.572
  Name = 
  9 active torsions:
  status: ('A' for Active; 'I' for Inactive)
    1  A    between atoms: C_1  and  N_10
    2  A    between atoms: C_2  and  C_24
    3  A    between atoms: O_6  and  C_7
    4  A    between atoms: C_7  and  C_32
    5  A    between atoms: N_10  and  C_24
    6  A    between atoms: C_16  and  C_27
    7  A    between atoms: C_22  and  C_30
    8  A    between atoms: C_22  and  C_32
    9  A    between atoms: C_27  and  C_32
                            x       y       z     vdW  Elec       q    Type
                         _______ _______ _______ _____ _____    ______ ____

>  <TORSDO>
F 9

$$$$
=
 OpenBabel10272413343D

 32 37  0  0  1  0  0  0  0  0999 V2000
  188.4710  177.5800  145.5550 C   0  0  0  0  0  0  0  0  0  0  0  0
  190.8480  177.0290  141.1410 C   0  0  0  0  0  0  0  0  0  0  0  0
  187.4990  177.9690  137.7420 C   0  0  0  0  0  3  0  0  0  0  0  0
  188.4560  177.7340  136.7540 C   0  0  0  0  0  3  0  0  0  0  0  0
  190.3220  177.1260  143.5030 C   0  0  0  0  0  0  0  0  0  0  0  0
  188.5980  177.6130  141.8590 C   0  0  0  0  0  3  0  0  0  0  0  0
  188.0740  177.7140  144.2210 C   0  0  0  0  0  3  0  0  0  0  0  0
  187.8450  177.8550  139.0900 C   0  0  0  0  0  3  0  0  0  0  0  0
  189.5180  177.3860  140.8210 C   0  0  0  0  0  0  0  0  0  0  0  0
  189.1520  177.5050  139.4670 C   0  0  0  0  0  0  0  0  0  0  0  0
  191.4320  176.9150  138.8370 C   0  0  0  0  0  0  0  0  0  0  0  0
  189.7910  177.2290  145.8630 C   0  0  0  0  0  3  0  0  0  0  0  0
  188.9920  177.4860  143.1920 C   0  0  0  0  0  0  0  0  0  0  0  0
  190.7150  177.0000  144.8380 C   0  0  0  0  0  3  0  0  0  0  0  0
  189.7590  177.3850  137.1090 C   0  0  0  0  0  3  0  0  0  0  0  0
  190.1210  177.2660  138.4610 C   0  0  0  0  0  0  0  0  0  0  0  0
  191.2410  176.9010  142.4760 C   0  0  0  0  0  3  0  0  0  0  0  0
  191.7510  176.8050  140.1530 N   0  0  0  0  0  0  0  0  0  0  0  0
  187.4990  177.8470  146.6500 C   0  0  0  0  0  2  0  0  0  0  0  0
  186.1740  177.4060  146.2480 N   0  0  0  0  0  2  0  0  0  0  0  0
  185.2380  178.4130  146.7110 C   0  0  1  0  0  3  0  0  0  0  0  0
  185.4220  179.5910  145.9640 O   0  0  0  0  0  0  0  0  0  0  0  0
  184.3240  178.7870  145.6110 C   0  0  0  0  0  2  0  0  0  0  0  0
  192.4880  176.6220  137.8170 C   0  0  0  0  0  2  0  0  0  0  0  0
  192.8740  175.1430  137.8410 C   0  0  1  0  0  3  0  0  0  0  0  0
  191.9520  174.3010  136.9620 C   0  0  0  0  0  2  0  0  0  0  0  0
  190.8280  173.8720  137.6710 O   0  0  0  0  0  0  0  0  0  0  0  0
  189.8560  173.6650  136.6940 C   0  0  0  0  0  1  0  0  0  0  0  0
  194.3570  174.8940  137.5490 C   0  0  0  0  0  2  0  0  0  0  0  0
  196.1400  173.1920  137.7480 C   0  0  0  0  0  2  0  0  0  0  0  0
  196.3910  174.2520  138.7950 C   0  0  0  0  0  2  0  0  0  0  0  0
  194.9720  173.8430  138.4600 C   0  0  0  0  0  3  0  0  0  0  0  0
  1 12  1  0  0  0  0
  1 19  1  0  0  0  0
  2 17  1  0  0  0  0
  3  8  1  0  0  0  0
  4 15  1  0  0  0  0
  4  3  2  0  0  0  0
  5 14  1  0  0  0  0
  6 13  2  0  0  0  0
  7  1  2  0  0  0  0
  8 10  2  0  0  0  0
  9  2  2  0  0  0  0
  9  6  1  0  0  0  0
 10  9  1  0  0  0  0
 11 18  2  0  0  0  0
 13  5  1  0  0  0  0
 13  7  1  0  0  0  0
 14 12  2  0  0  0  0
 15 16  2  0  0  0  0
 16 11  1  0  0  0  0
 16 10  1  0  0  0  0
 17  5  2  0  0  0  0
 18  2  1  0  0  0  0
 20 19  1  0  0  0  0
 21 20  1  6  0  0  0
 22 21  1  0  0  0  0
 23 22  1  0  0  0  0
 23 21  1  0  0  0  0
 24 25  1  0  0  0  0
 24 11  1  0  0  0  0
 25 26  1  6  0  0  0
 26 27  1  0  0  0  0
 28 27  1  0  0  0  0
 29 25  1  0  0  0  0
 29 32  1  0  0  0  0
 30 32  1  0  0  0  0
 30 31  1  0  0  0  0
 32 31  1  0  0  0  0
M  END
>  <MODEL>
6

>  <REMARK>
 VINA RESULT:      -8.1      3.909      7.653
  Name = 
  9 active torsions:
  status: ('A' for Active; 'I' for Inactive)
    1  A    between atoms: C_1  and  N_10
    2  A    between atoms: C_2  and  C_24
    3  A    between atoms: O_6  and  C_7
    4  A    between atoms: C_7  and  C_32
    5  A    between atoms: N_10  and  C_24
    6  A    between atoms: C_16  and  C_27
    7  A    between atoms: C_22  and  C_30
    8  A    between atoms: C_22  and  C_32
    9  A    between atoms: C_27  and  C_32
                            x       y       z     vdW  Elec       q    Type
                         _______ _______ _______ _____ _____    ______ ____

>  <TORSDO>
F 9

$$$$
=
 OpenBabel10272413343D

 32 37  0  0  1  0  0  0  0  0999 V2000
  193.0500  176.4360  136.9910 C   0  0  0  0  0  0  0  0  0  0  0  0
  189.3470  177.1580  140.3370 C   0  0  0  0  0  0  0  0  0  0  0  0
  191.5790  178.0650  144.5620 C   0  0  0  0  0  3  0  0  0  0  0  0
  190.3330  178.1980  145.1760 C   0  0  0  0  0  3  0  0  0  0  0  0
  190.5960  176.7200  138.3090 C   0  0  0  0  0  0  0  0  0  0  0  0
  191.7790  177.1710  140.3860 C   0  0  0  0  0  3  0  0  0  0  0  0
  193.0270  176.7370  138.3570 C   0  0  0  0  0  3  0  0  0  0  0  0
  191.6580  177.7720  143.1990 C   0  0  0  0  0  3  0  0  0  0  0  0
  190.5530  177.3130  141.0580 C   0  0  0  0  0  0  0  0  0  0  0  0
  190.4920  177.6080  142.4330 C   0  0  0  0  0  0  0  0  0  0  0  0
  188.0580  177.5800  142.2930 C   0  0  0  0  0  0  0  0  0  0  0  0
  191.8500  176.2870  136.2850 C   0  0  0  0  0  3  0  0  0  0  0  0
  191.8060  176.8760  139.0220 C   0  0  0  0  0  0  0  0  0  0  0  0
  190.6250  176.4270  136.9440 C   0  0  0  0  0  3  0  0  0  0  0  0
  189.1640  178.0390  144.4310 C   0  0  0  0  0  3  0  0  0  0  0  0
  189.2280  177.7430  143.0600 C   0  0  0  0  0  0  0  0  0  0  0  0
  189.3750  176.8620  138.9720 C   0  0  0  0  0  3  0  0  0  0  0  0
  188.1530  177.2920  140.9690 N   0  0  0  0  0  0  0  0  0  0  0  0
  194.3510  176.3120  136.2790 C   0  0  0  0  0  2  0  0  0  0  0  0
  195.2250  175.4090  137.0080 N   0  0  0  0  0  2  0  0  0  0  0  0
  196.3350  175.0960  136.1280 C   0  0  1  0  0  3  0  0  0  0  0  0
  197.4320  175.9090  136.4630 O   0  0  0  0  0  0  0  0  0  0  0  0
  197.4700  174.5810  136.9220 C   0  0  0  0  0  2  0  0  0  0  0  0
  186.6970  177.6810  142.9090 C   0  0  0  0  0  2  0  0  0  0  0  0
  185.9140  178.8510  142.3140 C   0  0  1  0  0  3  0  0  0  0  0  0
  185.2590  178.4780  140.9860 C   0  0  0  0  0  2  0  0  0  0  0  0
  185.2290  179.5680  140.1130 O   0  0  0  0  0  0  0  0  0  0  0  0
  184.2470  179.2400  139.1790 C   0  0  0  0  0  1  0  0  0  0  0  0
  184.9300  179.4910  143.2990 C   0  0  0  0  0  2  0  0  0  0  0  0
  184.2200  178.8340  145.5750 C   0  0  0  0  0  2  0  0  0  0  0  0
  182.9790  179.1540  144.7750 C   0  0  0  0  0  2  0  0  0  0  0  0
  184.1500  178.4660  144.1070 C   0  0  0  0  0  3  0  0  0  0  0  0
  1  7  1  0  0  0  0
  2 18  1  0  0  0  0
  2  9  1  0  0  0  0
  3  4  1  0  0  0  0
  5 17  1  0  0  0  0
  5 13  1  0  0  0  0
  6  9  2  0  0  0  0
  7 13  2  0  0  0  0
  8  3  2  0  0  0  0
  9 10  1  0  0  0  0
 10 16  2  0  0  0  0
 10  8  1  0  0  0  0
 11 24  1  0  0  0  0
 11 16  1  0  0  0  0
 12 14  1  0  0  0  0
 12  1  2  0  0  0  0
 13  6  1  0  0  0  0
 14  5  2  0  0  0  0
 15  4  2  0  0  0  0
 16 15  1  0  0  0  0
 17  2  2  0  0  0  0
 18 11  2  0  0  0  0
 19  1  1  0  0  0  0
 19 20  1  0  0  0  0
 21 22  1  0  0  0  0
 21 23  1  0  0  0  0
 21 20  1  1  0  0  0
 22 23  1  0  0  0  0
 25 26  1  6  0  0  0
 25 24  1  0  0  0  0
 25 29  1  0  0  0  0
 27 26  1  0  0  0  0
 28 27  1  0  0  0  0
 29 32  1  0  0  0  0
 31 30  1  0  0  0  0
 32 31  1  0  0  0  0
 32 30  1  0  0  0  0
M  END
>  <MODEL>
7

>  <REMARK>
 VINA RESULT:      -8.1      4.066      9.306
  Name = 
  9 active torsions:
  status: ('A' for Active; 'I' for Inactive)
    1  A    between atoms: C_1  and  N_10
    2  A    between atoms: C_2  and  C_24
    3  A    between atoms: O_6  and  C_7
    4  A    between atoms: C_7  and  C_32
    5  A    between atoms: N_10  and  C_24
    6  A    between atoms: C_16  and  C_27
    7  A    between atoms: C_22  and  C_30
    8  A    between atoms: C_22  and  C_32
    9  A    between atoms: C_27  and  C_32
                            x       y       z     vdW  Elec       q    Type
                         _______ _______ _______ _____ _____    ______ ____

>  <TORSDO>
F 9

$$$$
=
 OpenBabel10272413343D

 32 37  0  0  1  0  0  0  0  0999 V2000
  185.7320  178.3650  145.5720 C   0  0  0  0  0  0  0  0  0  0  0  0
  186.6640  178.4130  140.6160 C   0  0  0  0  0  0  0  0  0  0  0  0
  191.2640  176.9060  140.1500 C   0  0  0  0  0  3  0  0  0  0  0  0
  191.1550  177.0440  138.7650 C   0  0  0  0  0  3  0  0  0  0  0  0
  185.6060  178.6110  142.7860 C   0  0  0  0  0  0  0  0  0  0  0  0
  187.9090  177.8460  142.6280 C   0  0  0  0  0  3  0  0  0  0  0  0
  186.8500  178.0400  144.7960 C   0  0  0  0  0  3  0  0  0  0  0  0
  190.1760  177.2110  140.9700 C   0  0  0  0  0  3  0  0  0  0  0  0
  187.8580  177.9680  141.2280 C   0  0  0  0  0  0  0  0  0  0  0  0
  188.9650  177.6570  140.4160 C   0  0  0  0  0  0  0  0  0  0  0  0
  187.6420  178.2420  138.4540 C   0  0  0  0  0  0  0  0  0  0  0  0
  184.5540  178.8030  144.9570 C   0  0  0  0  0  3  0  0  0  0  0  0
  186.7950  178.1640  143.4060 C   0  0  0  0  0  0  0  0  0  0  0  0
  184.4910  178.9270  143.5660 C   0  0  0  0  0  3  0  0  0  0  0  0
  189.9590  177.4850  138.1980 C   0  0  0  0  0  3  0  0  0  0  0  0
  188.8560  177.7960  139.0100 C   0  0  0  0  0  0  0  0  0  0  0  0
  185.5490  178.7320  141.3960 C   0  0  0  0  0  3  0  0  0  0  0  0
  186.5950  178.5380  139.2660 N   0  0  0  0  0  0  0  0  0  0  0  0
  185.7850  178.2090  147.0520 C   0  0  0  0  0  2  0  0  0  0  0  0
  187.0180  178.7820  147.5620 N   0  0  0  0  0  2  0  0  0  0  0  0
  187.6420  177.7670  148.3910 C   0  0  1  0  0  3  0  0  0  0  0  0
  188.5920  177.0680  147.6250 O   0  0  0  0  0  0  0  0  0  0  0  0
  189.0900  178.0420  148.5080 C   0  0  0  0  0  2  0  0  0  0  0  0
  187.4820  178.4370  136.9770 C   0  0  0  0  0  2  0  0  0  0  0  0
  187.0200  177.1450  136.3040 C   0  0  1  0  0  3  0  0  0  0  0  0
  185.5610  177.2260  135.8610 C   0  0  0  0  0  2  0  0  0  0  0  0
  184.7430  176.4280  136.6630 O   0  0  0  0  0  0  0  0  0  0  0  0
  183.8540  177.3230  137.2560 C   0  0  0  0  0  1  0  0  0  0  0  0
  187.9530  176.6740  135.1840 C   0  0  0  0  0  2  0  0  0  0  0  0
  189.5180  174.7930  135.5390 C   0  0  0  0  0  2  0  0  0  0  0  0
  188.3890  174.6520  136.5330 C   0  0  0  0  0  2  0  0  0  0  0  0
  188.1050  175.1620  135.1360 C   0  0  0  0  0  3  0  0  0  0  0  0
  1 19  1  0  0  0  0
  2  9  2  0  0  0  0
  2 17  1  0  0  0  0
  3  8  1  0  0  0  0
  4  3  2  0  0  0  0
  5 13  1  0  0  0  0
  5 14  1  0  0  0  0
  6 13  2  0  0  0  0
  7  1  2  0  0  0  0
  9  6  1  0  0  0  0
 10  8  2  0  0  0  0
 10  9  1  0  0  0  0
 11 16  1  0  0  0  0
 11 18  2  0  0  0  0
 12  1  1  0  0  0  0
 13  7  1  0  0  0  0
 14 12  2  0  0  0  0
 15  4  1  0  0  0  0
 15 16  2  0  0  0  0
 16 10  1  0  0  0  0
 17  5  2  0  0  0  0
 18  2  1  0  0  0  0
 19 20  1  0  0  0  0
 21 20  1  6  0  0  0
 21 23  1  0  0  0  0
 22 21  1  0  0  0  0
 22 23  1  0  0  0  0
 24 11  1  0  0  0  0
 25 29  1  6  0  0  0
 25 24  1  0  0  0  0
 26 25  1  0  0  0  0
 26 27  1  0  0  0  0
 27 28  1  0  0  0  0
 30 31  1  0  0  0  0
 32 29  1  0  0  0  0
 32 30  1  0  0  0  0
 32 31  1  0  0  0  0
M  END
>  <MODEL>
8

>  <REMARK>
 VINA RESULT:      -7.9      2.897      8.052
  Name = 
  9 active torsions:
  status: ('A' for Active; 'I' for Inactive)
    1  A    between atoms: C_1  and  N_10
    2  A    between atoms: C_2  and  C_24
    3  A    between atoms: O_6  and  C_7
    4  A    between atoms: C_7  and  C_32
    5  A    between atoms: N_10  and  C_24
    6  A    between atoms: C_16  and  C_27
    7  A    between atoms: C_22  and  C_30
    8  A    between atoms: C_22  and  C_32
    9  A    between atoms: C_27  and  C_32
                            x       y       z     vdW  Elec       q    Type
                         _______ _______ _______ _____ _____    ______ ____

>  <TORSDO>
F 9

$$$$
=
 OpenBabel10272413343D

 32 37  0  0  1  0  0  0  0  0999 V2000
  192.0590  175.7770  136.8940 C   0  0  0  0  0  0  0  0  0  0  0  0
  188.4290  177.7800  139.7650 C   0  0  0  0  0  0  0  0  0  0  0  0
  189.7320  176.8260  144.3520 C   0  0  0  0  0  3  0  0  0  0  0  0
  188.5840  177.4790  144.8000 C   0  0  0  0  0  3  0  0  0  0  0  0
  189.7810  177.0670  137.8860 C   0  0  0  0  0  0  0  0  0  0  0  0
  190.4970  176.5580  140.1540 C   0  0  0  0  0  3  0  0  0  0  0  0
  191.8500  175.8490  138.2750 C   0  0  0  0  0  3  0  0  0  0  0  0
  189.9930  176.7300  142.9830 C   0  0  0  0  0  3  0  0  0  0  0  0
  189.3550  177.2020  140.6630 C   0  0  0  0  0  0  0  0  0  0  0  0
  189.1080  177.2880  142.0460 C   0  0  0  0  0  0  0  0  0  0  0  0
  187.0540  178.5090  141.5650 C   0  0  0  0  0  0  0  0  0  0  0  0
  191.1380  176.3540  136.0130 C   0  0  0  0  0  3  0  0  0  0  0  0
  190.7130  176.4880  138.7770 C   0  0  0  0  0  0  0  0  0  0  0  0
  189.9990  176.9970  136.5080 C   0  0  0  0  0  3  0  0  0  0  0  0
  187.6930  178.0390  143.8830 C   0  0  0  0  0  3  0  0  0  0  0  0
  187.9420  177.9500  142.5040 C   0  0  0  0  0  0  0  0  0  0  0  0
  188.6460  177.7080  138.3860 C   0  0  0  0  0  3  0  0  0  0  0  0
  187.3210  178.4050  140.2370 N   0  0  0  0  0  0  0  0  0  0  0  0
  193.2830  175.1170  136.3630 C   0  0  0  0  0  2  0  0  0  0  0  0
  193.7960  174.1720  137.3410 N   0  0  0  0  0  2  0  0  0  0  0  0
  195.1850  174.5200  137.5730 C   0  0  1  0  0  3  0  0  0  0  0  0
  195.3180  175.0390  138.8730 O   0  0  0  0  0  0  0  0  0  0  0  0
  195.7220  173.7060  138.6840 C   0  0  0  0  0  2  0  0  0  0  0  0
  185.7910  179.1930  141.9910 C   0  0  0  0  0  2  0  0  0  0  0  0
  184.6630  178.1810  142.1870 C   0  0  1  0  0  3  0  0  0  0  0  0
  183.8810  178.4440  143.4720 C   0  0  0  0  0  2  0  0  0  0  0  0
  184.5340  179.3780  144.2790 O   0  0  0  0  0  0  0  0  0  0  0  0
  184.5630  178.7890  145.5420 C   0  0  0  0  0  1  0  0  0  0  0  0
  183.7540  178.0360  140.9620 C   0  0  0  0  0  2  0  0  0  0  0  0
  184.1910  178.6100  138.5960 C   0  0  0  0  0  2  0  0  0  0  0  0
  182.8010  179.0930  138.9420 C   0  0  0  0  0  2  0  0  0  0  0  0
  183.9080  179.1800  139.9710 C   0  0  0  0  0  3  0  0  0  0  0  0
  1  7  1  0  0  0  0
  2 18  1  0  0  0  0
  2  9  1  0  0  0  0
  3  4  1  0  0  0  0
  5 17  1  0  0  0  0
  5 13  1  0  0  0  0
  6  9  2  0  0  0  0
  7 13  2  0  0  0  0
  8  3  2  0  0  0  0
  9 10  1  0  0  0  0
 10 16  2  0  0  0  0
 10  8  1  0  0  0  0
 11 24  1  0  0  0  0
 11 16  1  0  0  0  0
 12 14  1  0  0  0  0
 12  1  2  0  0  0  0
 13  6  1  0  0  0  0
 14  5  2  0  0  0  0
 15  4  2  0  0  0  0
 16 15  1  0  0  0  0
 17  2  2  0  0  0  0
 18 11  2  0  0  0  0
 19  1  1  0  0  0  0
 19 20  1  0  0  0  0
 21 20  1  1  0  0  0
 21 23  1  0  0  0  0
 21 22  1  0  0  0  0
 23 22  1  0  0  0  0
 24 25  1  0  0  0  0
 25 29  1  6  0  0  0
 25 26  1  0  0  0  0
 26 27  1  0  0  0  0
 27 28  1  0  0  0  0
 30 31  1  0  0  0  0
 30 32  1  0  0  0  0
 31 32  1  0  0  0  0
 32 29  1  0  0  0  0
M  END
>  <MODEL>
9

>  <REMARK>
 VINA RESULT:      -7.8      3.706      9.094
  Name = 
  9 active torsions:
  status: ('A' for Active; 'I' for Inactive)
    1  A    between atoms: C_1  and  N_10
    2  A    between atoms: C_2  and  C_24
    3  A    between atoms: O_6  and  C_7
    4  A    between atoms: C_7  and  C_32
    5  A    between atoms: N_10  and  C_24
    6  A    between atoms: C_16  and  C_27
    7  A    between atoms: C_22  and  C_30
    8  A    between atoms: C_22  and  C_32
    9  A    between atoms: C_27  and  C_32
                            x       y       z     vdW  Elec       q    Type
                         _______ _______ _______ _____ _____    ______ ____

>  <TORSDO>
F 9

$$$$
