=
 OpenBabel10272401283D

 55 59  0  0  1  0  0  0  0  0999 V2000
  190.0500  177.6000  144.4560 C   0  0  0  0  0  2  0  0  0  0  0  0
  191.1610  177.2940  141.8630 C   0  0  0  0  0  0  0  0  0  0  0  0
  190.3770  176.1070  142.3590 C   0  0  0  0  0  2  0  0  0  0  0  0
  191.5000  177.9790  144.1990 C   0  0  0  0  0  2  0  0  0  0  0  0
  189.6760  176.3050  143.7240 C   0  0  2  0  0  3  0  0  0  0  0  0
  191.6890  178.1670  142.7290 C   0  0  0  0  0  3  0  0  0  0  0  0
  191.3540  177.4300  140.4850 O   0  0  0  0  0  0  0  0  0  0  0  0
  190.2800  177.5880  139.5650 C   0  0  0  0  0  2  0  0  0  0  0  0
  190.7080  177.1040  138.1970 C   0  0  0  0  0  2  0  0  0  0  0  0
  191.4820  175.8050  138.3370 C   0  0  0  0  0  2  0  0  0  0  0  0
  191.5030  175.0270  137.0270 C   0  0  1  0  0  3  0  0  0  0  0  0
  192.9150  174.5590  136.6770 C   0  0  0  0  0  2  0  0  0  0  0  0
  195.5920  175.8790  135.6660 C   0  0  0  0  0  0  0  0  0  0  0  0
  194.5100  173.1660  138.3740 F   0  0  0  0  0  0  0  0  0  0  0  0
  193.9810  175.3420  137.4450 C   0  0  1  0  0  3  0  0  0  0  0  0
  198.6810  174.0080  136.0400 N   0  0  0  0  0  2  0  0  0  0  0  0
  195.2980  174.9970  139.3900 F   0  0  0  0  0  0  0  0  0  0  0  0
  195.0280  174.4350  138.1570 C   0  0  0  0  0  0  0  0  0  0  0  0
  195.9200  176.6320  134.7110 O   0  0  0  0  0  0  0  0  0  0  0  0
  198.2690  172.7830  136.7210 C   0  0  0  0  0  2  0  0  0  0  0  0
  197.1800  173.0820  137.7560 C   0  0  0  0  0  2  0  0  0  0  0  0
  196.2360  174.5430  135.8710 C   0  0  2  0  0  3  0  0  0  0  0  0
  196.3630  174.3300  137.3870 C   0  0  1  0  0  3  0  0  0  0  0  0
  197.5950  174.4360  135.1510 C   0  0  0  0  0  2  0  0  0  0  0  0
  194.5960  176.2790  136.5580 O   0  0  0  0  0  0  0  0  0  0  0  0
  190.5030  173.8670  137.0600 C   0  0  0  0  0  2  0  0  0  0  0  0
  188.0520  173.5160  136.7220 O   0  0  0  0  0  1  0  0  0  0  0  0
  189.2150  174.1860  136.3660 C   0  0  0  0  0  0  0  0  0  0  0  0
  189.1890  175.0360  135.4390 O   0  0  0  0  0  0  0  0  0  0  0  0
  188.1660  176.2590  143.5600 C   0  0  0  0  0  2  0  0  0  0  0  0
  187.6080  177.6270  143.2150 C   0  0  0  0  0  2  0  0  0  0  0  0
  187.3910  177.7110  141.7190 C   0  0  0  0  0  2  0  0  0  0  0  0
  186.6950  179.0120  141.3670 C   0  0  0  0  0  2  0  0  0  0  0  0
  185.1930  178.7610  141.1540 C   0  0  1  0  0  3  0  0  0  0  0  0
  183.1900  178.6380  142.4520 C   0  0  0  0  0  2  0  0  0  0  0  0
  184.0670  179.5600  144.4930 C   0  0  1  0  0  3  0  0  0  0  0  0
  184.3410  179.4750  142.1150 N   0  0  0  0  0  0  0  0  0  0  0  0
  185.0490  179.7640  143.3610 C   0  0  0  0  0  2  0  0  0  0  0  0
  183.0970  178.5330  143.9610 C   0  0  0  0  0  2  0  0  0  0  0  0
  184.7610  179.0890  145.7370 C   0  0  0  0  0  0  0  0  0  0  0  0
  184.1190  178.2410  146.6320 O   0  0  0  0  0  1  0  0  0  0  0  0
  185.9150  179.5130  146.0090 O   0  0  0  0  0  0  0  0  0  0  0  0
  184.7640  179.0930  139.7250 C   0  0  0  0  0  2  0  0  0  0  0  0
  185.7780  176.2290  136.2790 C   0  0  0  0  0  2  0  0  0  0  0  0
  186.6940  176.8880  137.3040 C   0  0  0  0  0  2  0  0  0  0  0  0
  183.6790  177.6660  138.0430 C   0  0  0  0  0  3  0  0  0  0  0  0
  184.9510  177.9020  138.8030 C   0  0  1  0  0  3  0  0  0  0  0  0
  186.1030  178.1830  137.8470 C   0  0  0  0  0  2  0  0  0  0  0  0
  183.5050  176.6320  137.2100 C   0  0  0  0  0  3  0  0  0  0  0  0
  184.5640  175.5980  136.9510 C   0  0  1  0  0  3  0  0  0  0  0  0
  184.0060  174.5090  136.0390 C   0  0  0  0  0  2  0  0  0  0  0  0
  182.8310  172.4750  136.7910 C   0  0  0  0  0  1  0  0  0  0  0  0
  184.9280  173.1040  137.9110 C   0  0  0  0  0  1  0  0  0  0  0  0
  184.9610  172.2330  135.5880 C   0  0  0  0  0  1  0  0  0  0  0  0
  184.1970  173.0910  136.5810 C   0  0  0  0  0  0  0  0  0  0  0  0
  2  3  1  0  0  0  0
  2  6  2  0  0  0  0
  3  5  1  0  0  0  0
  4  1  1  0  0  0  0
  5 30  1  6  0  0  0
  5  1  1  0  0  0  0
  6  4  1  0  0  0  0
  7  2  1  0  0  0  0
  8  7  1  0  0  0  0
  9 10  1  0  0  0  0
  9  8  1  0  0  0  0
 11 12  1  1  0  0  0
 11 26  1  0  0  0  0
 11 10  1  0  0  0  0
 13 22  1  0  0  0  0
 13 25  1  0  0  0  0
 15 12  1  6  0  0  0
 15 18  1  0  0  0  0
 16 20  1  0  0  0  0
 18 14  1  0  0  0  0
 18 17  1  0  0  0  0
 19 13  2  0  0  0  0
 20 21  1  0  0  0  0
 22 24  1  6  0  0  0
 22 23  1  0  0  0  0
 23 21  1  6  0  0  0
 23 18  1  0  0  0  0
 24 16  1  0  0  0  0
 25 15  1  0  0  0  0
 28 27  1  0  0  0  0
 28 26  1  0  0  0  0
 29 28  2  0  0  0  0
 31 30  1  0  0  0  0
 32 31  1  0  0  0  0
 33 32  1  0  0  0  0
 34 43  1  6  0  0  0
 34 33  1  0  0  0  0
 34 37  1  0  0  0  0
 35 39  1  0  0  0  0
 36 40  1  1  0  0  0
 37 35  1  0  0  0  0
 37 38  1  0  0  0  0
 38 36  1  0  0  0  0
 39 36  1  0  0  0  0
 40 42  2  0  0  0  0
 40 41  1  0  0  0  0
 44 50  1  0  0  0  0
 44 45  1  0  0  0  0
 45 48  1  0  0  0  0
 46 47  1  0  0  0  0
 47 43  1  1  0  0  0
 48 47  1  0  0  0  0
 49 46  2  0  0  0  0
 50 51  1  6  0  0  0
 50 49  1  0  0  0  0
 51 55  1  0  0  0  0
 54 55  1  0  0  0  0
 55 52  1  0  0  0  0
 55 53  1  0  0  0  0
M  END
>  <MODEL>
1

>  <REMARK>
 VINA RESULT:      -7.1      0.000      0.000
  Name = 
  20 active torsions:
  status: ('A' for Active; 'I' for Inactive)
    1  A    between atoms: C_2  and  C_28
    2  A    between atoms: C_2  and  C_44
    3  A    between atoms: C_6  and  C_46
    4  A    between atoms: C_8  and  C_20
    5  A    between atoms: C_8  and  C_22
    6  A    between atoms: C_10  and  C_32
    7  A    between atoms: C_17  and  C_36
    8  A    between atoms: C_19  and  C_40
    9  A    between atoms: C_19  and  C_45
   10  A    between atoms: C_22  and  C_35
   11  A    between atoms: C_22  and  C_46
   12  A    between atoms: C_27  and  O_54
   13  A    between atoms: C_28  and  C_49
   14  A    between atoms: C_33  and  C_49
   15  A    between atoms: C_33  and  C_52
   16  A    between atoms: N_34  and  C_52
   17  A    between atoms: C_35  and  C_43
   18  A    between atoms: C_36  and  C_52
   19  A    between atoms: C_43  and  C_51
   20  A    between atoms: C_51  and  O_54
                            x       y       z     vdW  Elec       q    Type
                         _______ _______ _______ _____ _____    ______ ____

>  <TORSDO>
F 20

$$$$
=
 OpenBabel10272401283D

 55 59  0  0  1  0  0  0  0  0999 V2000
  191.4450  176.0930  144.7370 C   0  0  0  0  0  2  0  0  0  0  0  0
  189.4180  177.6650  145.9480 C   0  0  0  0  0  0  0  0  0  0  0  0
  189.6730  177.9740  144.4960 C   0  0  0  0  0  2  0  0  0  0  0  0
  191.6880  176.7330  146.0950 C   0  0  0  0  0  2  0  0  0  0  0  0
  190.6980  177.0480  143.7970 C   0  0  2  0  0  3  0  0  0  0  0  0
  190.3670  177.0870  146.6960 C   0  0  0  0  0  3  0  0  0  0  0  0
  188.1870  178.0380  146.4960 O   0  0  0  0  0  0  0  0  0  0  0  0
  186.9540  177.4490  146.1010 C   0  0  0  0  0  2  0  0  0  0  0  0
  186.1790  178.4220  145.2390 C   0  0  0  0  0  2  0  0  0  0  0  0
  186.0370  177.8560  143.8370 C   0  0  0  0  0  2  0  0  0  0  0  0
  185.2650  178.8080  142.9310 C   0  0  1  0  0  3  0  0  0  0  0  0
  184.3680  178.0460  141.9550 C   0  0  0  0  0  2  0  0  0  0  0  0
  181.7940  177.6650  140.1780 C   0  0  0  0  0  0  0  0  0  0  0  0
  185.6730  178.3530  139.5960 F   0  0  0  0  0  0  0  0  0  0  0  0
  183.7380  178.9760  140.9160 C   0  0  1  0  0  3  0  0  0  0  0  0
  182.2100  176.4350  136.7870 N   0  0  0  0  0  2  0  0  0  0  0  0
  184.4730  180.1390  138.9810 F   0  0  0  0  0  0  0  0  0  0  0  0
  184.3860  178.8630  139.5050 C   0  0  0  0  0  0  0  0  0  0  0  0
  180.6030  177.3080  140.3820 O   0  0  0  0  0  0  0  0  0  0  0  0
  183.6570  176.3060  136.6360 C   0  0  0  0  0  2  0  0  0  0  0  0
  184.3790  177.4510  137.3530 C   0  0  0  0  0  2  0  0  0  0  0  0
  182.6710  176.9490  139.1990 C   0  0  2  0  0  3  0  0  0  0  0  0
  183.5530  178.0080  138.5230 C   0  0  1  0  0  3  0  0  0  0  0  0
  181.8570  176.1300  138.1770 C   0  0  0  0  0  2  0  0  0  0  0  0
  182.3280  178.7440  140.8820 O   0  0  0  0  0  0  0  0  0  0  0  0
  184.4800  179.8350  143.7530 C   0  0  0  0  0  2  0  0  0  0  0  0
  181.9840  179.9090  143.6600 O   0  0  0  0  0  0  0  0  0  0  0  0
  183.1360  179.3350  144.1830 C   0  0  0  0  0  0  0  0  0  0  0  0
  183.0450  178.4190  145.0390 O   0  0  0  0  0  1  0  0  0  0  0  0
  190.0240  176.2300  142.7100 C   0  0  0  0  0  2  0  0  0  0  0  0
  189.1980  177.1090  141.7900 C   0  0  0  0  0  2  0  0  0  0  0  0
  189.9160  177.2530  140.4640 C   0  0  0  0  0  2  0  0  0  0  0  0
  188.9360  177.6750  139.3870 C   0  0  0  0  0  2  0  0  0  0  0  0
  189.0760  176.7560  138.1620 C   0  0  1  0  0  3  0  0  0  0  0  0
  187.8760  177.0700  136.1190 C   0  0  0  0  0  2  0  0  0  0  0  0
  186.9060  174.8750  135.9690 C   0  0  1  0  0  3  0  0  0  0  0  0
  187.8030  176.5130  137.4690 N   0  0  0  0  0  0  0  0  0  0  0  0
  187.5200  175.0840  137.3360 C   0  0  0  0  0  2  0  0  0  0  0  0
  187.4770  175.9920  135.1310 C   0  0  0  0  0  2  0  0  0  0  0  0
  187.2540  173.5220  135.4200 C   0  0  0  0  0  0  0  0  0  0  0  0
  186.3810  172.4500  135.5650 O   0  0  0  0  0  1  0  0  0  0  0  0
  188.3730  173.3370  134.8740 O   0  0  0  0  0  0  0  0  0  0  0  0
  190.1170  177.2850  137.1760 C   0  0  0  0  0  2  0  0  0  0  0  0
  193.0010  173.7130  137.3500 C   0  0  0  0  0  2  0  0  0  0  0  0
  191.6740  173.8630  136.6150 C   0  0  0  0  0  2  0  0  0  0  0  0
  192.3550  176.6720  137.9880 C   0  0  0  0  0  3  0  0  0  0  0  0
  191.2700  176.3100  137.0180 C   0  0  1  0  0  3  0  0  0  0  0  0
  190.7690  174.8940  137.2760 C   0  0  0  0  0  2  0  0  0  0  0  0
  193.5380  176.0460  138.0310 C   0  0  0  0  0  3  0  0  0  0  0  0
  193.9040  174.9170  137.1090 C   0  0  1  0  0  3  0  0  0  0  0  0
  195.3520  174.5040  137.3540 C   0  0  0  0  0  2  0  0  0  0  0  0
  197.6320  174.1430  136.4850 C   0  0  0  0  0  1  0  0  0  0  0  0
  196.2240  175.8550  135.4200 C   0  0  0  0  0  1  0  0  0  0  0  0
  195.7180  173.4470  135.1070 C   0  0  0  0  0  1  0  0  0  0  0  0
  196.2140  174.4930  136.0890 C   0  0  0  0  0  0  0  0  0  0  0  0
  1  4  1  0  0  0  0
  2  7  1  0  0  0  0
  2  6  2  0  0  0  0
  3  2  1  0  0  0  0
  4  6  1  0  0  0  0
  5 30  1  6  0  0  0
  5  3  1  0  0  0  0
  5  1  1  0  0  0  0
  8  7  1  0  0  0  0
  9  8  1  0  0  0  0
 10  9  1  0  0  0  0
 11 12  1  1  0  0  0
 11 26  1  0  0  0  0
 11 10  1  0  0  0  0
 13 19  2  0  0  0  0
 13 25  1  0  0  0  0
 15 12  1  1  0  0  0
 16 24  1  0  0  0  0
 17 18  1  0  0  0  0
 18 14  1  0  0  0  0
 18 15  1  0  0  0  0
 20 16  1  0  0  0  0
 20 21  1  0  0  0  0
 22 24  1  6  0  0  0
 22 13  1  0  0  0  0
 23 21  1  6  0  0  0
 23 22  1  0  0  0  0
 23 18  1  0  0  0  0
 25 15  1  0  0  0  0
 26 28  1  0  0  0  0
 27 28  2  0  0  0  0
 28 29  1  0  0  0  0
 31 30  1  0  0  0  0
 32 31  1  0  0  0  0
 33 32  1  0  0  0  0
 34 43  1  6  0  0  0
 34 33  1  0  0  0  0
 35 37  1  0  0  0  0
 36 40  1  6  0  0  0
 36 38  1  0  0  0  0
 37 34  1  0  0  0  0
 38 37  1  0  0  0  0
 39 36  1  0  0  0  0
 39 35  1  0  0  0  0
 40 41  1  0  0  0  0
 42 40  2  0  0  0  0
 45 48  1  0  0  0  0
 45 44  1  0  0  0  0
 46 49  2  0  0  0  0
 47 43  1  1  0  0  0
 47 48  1  0  0  0  0
 47 46  1  0  0  0  0
 50 44  1  0  0  0  0
 50 51  1  1  0  0  0
 50 49  1  0  0  0  0
 53 55  1  0  0  0  0
 54 55  1  0  0  0  0
 55 52  1  0  0  0  0
 55 51  1  0  0  0  0
M  END
>  <MODEL>
2

>  <REMARK>
 VINA RESULT:      -7.0      3.512     10.129
  Name = 
  20 active torsions:
  status: ('A' for Active; 'I' for Inactive)
    1  A    between atoms: C_2  and  C_28
    2  A    between atoms: C_2  and  C_44
    3  A    between atoms: C_6  and  C_46
    4  A    between atoms: C_8  and  C_20
    5  A    between atoms: C_8  and  C_22
    6  A    between atoms: C_10  and  C_32
    7  A    between atoms: C_17  and  C_36
    8  A    between atoms: C_19  and  C_40
    9  A    between atoms: C_19  and  C_45
   10  A    between atoms: C_22  and  C_35
   11  A    between atoms: C_22  and  C_46
   12  A    between atoms: C_27  and  O_54
   13  A    between atoms: C_28  and  C_49
   14  A    between atoms: C_33  and  C_49
   15  A    between atoms: C_33  and  C_52
   16  A    between atoms: N_34  and  C_52
   17  A    between atoms: C_35  and  C_43
   18  A    between atoms: C_36  and  C_52
   19  A    between atoms: C_43  and  C_51
   20  A    between atoms: C_51  and  O_54
                            x       y       z     vdW  Elec       q    Type
                         _______ _______ _______ _____ _____    ______ ____

>  <TORSDO>
F 20

$$$$
=
 OpenBabel10272401283D

 55 59  0  0  1  0  0  0  0  0999 V2000
  185.3910  178.2020  145.3090 C   0  0  0  0  0  2  0  0  0  0  0  0
  184.4380  178.6080  142.6670 C   0  0  0  0  0  0  0  0  0  0  0  0
  185.9280  178.7480  142.8290 C   0  0  0  0  0  2  0  0  0  0  0  0
  184.1840  179.0950  145.0640 C   0  0  0  0  0  2  0  0  0  0  0  0
  186.4710  178.4210  144.2420 C   0  0  2  0  0  3  0  0  0  0  0  0
  183.6230  178.7760  143.7160 C   0  0  0  0  0  3  0  0  0  0  0  0
  183.9340  178.3440  141.3910 O   0  0  0  0  0  0  0  0  0  0  0  0
  184.6000  178.7420  140.1980 C   0  0  0  0  0  2  0  0  0  0  0  0
  183.7230  179.7010  139.4220 C   0  0  0  0  0  2  0  0  0  0  0  0
  182.3590  179.0720  139.1980 C   0  0  0  0  0  2  0  0  0  0  0  0
  181.9400  179.1640  137.7350 C   0  0  1  0  0  3  0  0  0  0  0  0
  181.8600  177.7820  137.0880 C   0  0  0  0  0  2  0  0  0  0  0  0
  183.9100  176.0540  135.4330 C   0  0  0  0  0  0  0  0  0  0  0  0
  181.1560  175.4290  138.2410 F   0  0  0  0  0  0  0  0  0  0  0  0
  182.9880  176.8650  137.5630 C   0  0  1  0  0  3  0  0  0  0  0  0
  183.1580  172.5420  134.8930 N   0  0  0  0  0  2  0  0  0  0  0  0
  183.1990  175.0390  139.0660 F   0  0  0  0  0  0  0  0  0  0  0  0
  182.5090  175.4300  137.9340 C   0  0  0  0  0  0  0  0  0  0  0  0
  184.6720  176.2560  134.4500 O   0  0  0  0  0  0  0  0  0  0  0  0
  181.9080  172.3360  135.6190 C   0  0  0  0  0  2  0  0  0  0  0  0
  181.9000  173.1450  136.9200 C   0  0  0  0  0  2  0  0  0  0  0  0
  182.8670  174.9800  135.4110 C   0  0  2  0  0  3  0  0  0  0  0  0
  182.7940  174.3910  136.8280 C   0  0  1  0  0  3  0  0  0  0  0  0
  183.1610  173.9040  134.3470 C   0  0  0  0  0  2  0  0  0  0  0  0
  184.0190  176.8490  136.5740 O   0  0  0  0  0  0  0  0  0  0  0  0
  180.6310  179.9470  137.5870 C   0  0  0  0  0  2  0  0  0  0  0  0
  180.8710  181.8790  136.0210 O   0  0  0  0  0  0  0  0  0  0  0  0
  180.8480  181.4050  137.3260 C   0  0  0  0  0  0  0  0  0  0  0  0
  181.0410  182.1970  138.2840 O   0  0  0  0  0  1  0  0  0  0  0  0
  187.3650  177.1940  144.1990 C   0  0  0  0  0  2  0  0  0  0  0  0
  188.1460  177.1250  142.9000 C   0  0  0  0  0  2  0  0  0  0  0  0
  188.7100  175.7300  142.7340 C   0  0  0  0  0  2  0  0  0  0  0  0
  190.2180  175.7950  142.5830 C   0  0  0  0  0  2  0  0  0  0  0  0
  190.6610  177.2510  142.3640 C   0  0  1  0  0  3  0  0  0  0  0  0
  190.5580  178.8610  144.1280 C   0  0  0  0  0  2  0  0  0  0  0  0
  191.4500  177.4800  145.8830 C   0  0  1  0  0  3  0  0  0  0  0  0
  191.3800  177.8190  143.5130 N   0  0  0  0  0  0  0  0  0  0  0  0
  191.6480  176.8130  144.5400 C   0  0  0  0  0  2  0  0  0  0  0  0
  190.4430  178.5700  145.6110 C   0  0  0  0  0  2  0  0  0  0  0  0
  190.9600  176.5010  146.9090 C   0  0  0  0  0  0  0  0  0  0  0  0
  191.7470  175.4230  147.2970 O   0  0  0  0  0  0  0  0  0  0  0  0
  189.7980  176.6180  147.3810 O   0  0  0  0  0  1  0  0  0  0  0  0
  191.4990  177.4000  141.0950 C   0  0  0  0  0  2  0  0  0  0  0  0
  190.2260  175.8960  136.9450 C   0  0  0  0  0  2  0  0  0  0  0  0
  191.4440  175.5310  137.7850 C   0  0  0  0  0  2  0  0  0  0  0  0
  189.6170  177.5090  139.5160 C   0  0  0  0  0  3  0  0  0  0  0  0
  190.8320  176.7220  139.9120 C   0  0  1  0  0  3  0  0  0  0  0  0
  191.8220  176.6440  138.7550 C   0  0  0  0  0  2  0  0  0  0  0  0
  188.7720  177.1150  138.5550 C   0  0  0  0  0  3  0  0  0  0  0  0
  188.9480  175.8430  137.7750 C   0  0  1  0  0  3  0  0  0  0  0  0
  187.7610  175.6470  136.8380 C   0  0  0  0  0  2  0  0  0  0  0  0
  188.5720  173.3250  137.0170 C   0  0  0  0  0  1  0  0  0  0  0  0
  187.1020  173.9160  135.1360 C   0  0  0  0  0  1  0  0  0  0  0  0
  186.1940  173.7810  137.4410 C   0  0  0  0  0  1  0  0  0  0  0  0
  187.3950  174.1800  136.6020 C   0  0  0  0  0  0  0  0  0  0  0  0
  2  3  1  0  0  0  0
  2  6  2  0  0  0  0
  3  5  1  0  0  0  0
  4  1  1  0  0  0  0
  5 30  1  6  0  0  0
  5  1  1  0  0  0  0
  6  4  1  0  0  0  0
  7  2  1  0  0  0  0
  8  7  1  0  0  0  0
  9  8  1  0  0  0  0
 10  9  1  0  0  0  0
 11 12  1  1  0  0  0
 11 10  1  0  0  0  0
 13 25  1  0  0  0  0
 15 12  1  6  0  0  0
 15 18  1  0  0  0  0
 16 20  1  0  0  0  0
 18 14  1  0  0  0  0
 18 17  1  0  0  0  0
 19 13  2  0  0  0  0
 20 21  1  0  0  0  0
 22 24  1  6  0  0  0
 22 13  1  0  0  0  0
 22 23  1  0  0  0  0
 23 21  1  6  0  0  0
 23 18  1  0  0  0  0
 24 16  1  0  0  0  0
 25 15  1  0  0  0  0
 26 11  1  0  0  0  0
 27 28  2  0  0  0  0
 28 26  1  0  0  0  0
 28 29  1  0  0  0  0
 31 30  1  0  0  0  0
 32 31  1  0  0  0  0
 33 32  1  0  0  0  0
 34 43  1  6  0  0  0
 34 33  1  0  0  0  0
 34 37  1  0  0  0  0
 35 39  1  0  0  0  0
 36 40  1  1  0  0  0
 37 35  1  0  0  0  0
 37 38  1  0  0  0  0
 38 36  1  0  0  0  0
 39 36  1  0  0  0  0
 40 41  2  0  0  0  0
 40 42  1  0  0  0  0
 44 50  1  0  0  0  0
 44 45  1  0  0  0  0
 45 48  1  0  0  0  0
 46 47  1  0  0  0  0
 47 43  1  1  0  0  0
 48 47  1  0  0  0  0
 49 46  2  0  0  0  0
 50 51  1  6  0  0  0
 50 49  1  0  0  0  0
 53 55  1  0  0  0  0
 55 51  1  0  0  0  0
 55 52  1  0  0  0  0
 55 54  1  0  0  0  0
M  END
>  <MODEL>
3

>  <REMARK>
 VINA RESULT:      -6.9      4.567      8.899
  Name = 
  20 active torsions:
  status: ('A' for Active; 'I' for Inactive)
    1  A    between atoms: C_2  and  C_28
    2  A    between atoms: C_2  and  C_44
    3  A    between atoms: C_6  and  C_46
    4  A    between atoms: C_8  and  C_20
    5  A    between atoms: C_8  and  C_22
    6  A    between atoms: C_10  and  C_32
    7  A    between atoms: C_17  and  C_36
    8  A    between atoms: C_19  and  C_40
    9  A    between atoms: C_19  and  C_45
   10  A    between atoms: C_22  and  C_35
   11  A    between atoms: C_22  and  C_46
   12  A    between atoms: C_27  and  O_54
   13  A    between atoms: C_28  and  C_49
   14  A    between atoms: C_33  and  C_49
   15  A    between atoms: C_33  and  C_52
   16  A    between atoms: N_34  and  C_52
   17  A    between atoms: C_35  and  C_43
   18  A    between atoms: C_36  and  C_52
   19  A    between atoms: C_43  and  C_51
   20  A    between atoms: C_51  and  O_54
                            x       y       z     vdW  Elec       q    Type
                         _______ _______ _______ _____ _____    ______ ____

>  <TORSDO>
F 20

$$$$
=
 OpenBabel10272401283D

 55 59  0  0  1  0  0  0  0  0999 V2000
  184.8410  178.3980  144.4240 C   0  0  0  0  0  2  0  0  0  0  0  0
  182.7590  178.8750  142.5570 C   0  0  0  0  0  0  0  0  0  0  0  0
  184.1190  179.3540  142.1220 C   0  0  0  0  0  2  0  0  0  0  0  0
  183.5220  178.9920  144.8910 C   0  0  0  0  0  2  0  0  0  0  0  0
  185.2800  179.0000  143.0830 C   0  0  2  0  0  3  0  0  0  0  0  0
  182.4810  178.7110  143.8570 C   0  0  0  0  0  3  0  0  0  0  0  0
  181.7920  178.6520  141.5730 O   0  0  0  0  0  0  0  0  0  0  0  0
  182.1000  178.5830  140.1860 C   0  0  0  0  0  2  0  0  0  0  0  0
  180.8220  178.6400  139.3780 C   0  0  0  0  0  2  0  0  0  0  0  0
  181.1530  178.5570  137.8980 C   0  0  0  0  0  2  0  0  0  0  0  0
  181.1240  177.1160  137.4040 C   0  0  1  0  0  3  0  0  0  0  0  0
  182.4770  176.4310  137.5990 C   0  0  0  0  0  2  0  0  0  0  0  0
  182.9650  173.8740  135.8230 C   0  0  0  0  0  0  0  0  0  0  0  0
  185.1830  176.6130  137.6770 F   0  0  0  0  0  0  0  0  0  0  0  0
  183.2320  176.2760  136.2780 C   0  0  1  0  0  3  0  0  0  0  0  0
  186.0930  172.0740  136.2230 N   0  0  0  0  0  2  0  0  0  0  0  0
  185.3920  176.8250  135.4600 F   0  0  0  0  0  0  0  0  0  0  0  0
  184.7690  176.0990  136.4570 C   0  0  0  0  0  0  0  0  0  0  0  0
  182.2480  172.9440  135.3660 O   0  0  0  0  0  0  0  0  0  0  0  0
  186.8260  172.8600  137.2120 C   0  0  0  0  0  2  0  0  0  0  0  0
  186.5840  174.3570  136.9980 C   0  0  0  0  0  2  0  0  0  0  0  0
  184.1540  173.5960  136.6890 C   0  0  2  0  0  3  0  0  0  0  0  0
  185.2300  174.6300  136.3260 C   0  0  1  0  0  3  0  0  0  0  0  0
  184.6620  172.1480  136.5350 C   0  0  0  0  0  2  0  0  0  0  0  0
  182.6500  175.2020  135.5350 O   0  0  0  0  0  0  0  0  0  0  0  0
  179.9820  176.3320  138.0590 C   0  0  0  0  0  2  0  0  0  0  0  0
  180.4620  173.8810  138.1300 O   0  0  0  0  0  0  0  0  0  0  0  0
  180.4520  175.1080  138.7810 C   0  0  0  0  0  0  0  0  0  0  0  0
  180.8090  175.1800  139.9850 O   0  0  0  0  0  1  0  0  0  0  0  0
  186.2530  178.0430  142.4170 C   0  0  0  0  0  2  0  0  0  0  0  0
  187.2050  178.7790  141.4930 C   0  0  0  0  0  2  0  0  0  0  0  0
  187.1040  178.1870  140.1030 C   0  0  0  0  0  2  0  0  0  0  0  0
  188.4530  178.2470  139.4140 C   0  0  0  0  0  2  0  0  0  0  0  0
  189.3640  177.1300  139.9490 C   0  0  1  0  0  3  0  0  0  0  0  0
  189.4330  176.6860  137.6010 C   0  0  0  0  0  2  0  0  0  0  0  0
  191.6320  175.7150  137.5180 C   0  0  1  0  0  3  0  0  0  0  0  0
  189.7420  176.1460  138.9250 N   0  0  0  0  0  0  0  0  0  0  0  0
  191.1750  175.8540  138.9530 C   0  0  0  0  0  2  0  0  0  0  0  0
  190.6750  176.5820  136.7380 C   0  0  0  0  0  2  0  0  0  0  0  0
  193.0560  176.1580  137.3560 C   0  0  0  0  0  0  0  0  0  0  0  0
  193.5620  176.4820  136.1010 O   0  0  0  0  0  0  0  0  0  0  0  0
  193.8230  176.1800  138.3540 O   0  0  0  0  0  1  0  0  0  0  0  0
  190.6160  177.6960  140.6190 C   0  0  0  0  0  2  0  0  0  0  0  0
  191.2300  177.4910  145.1670 C   0  0  0  0  0  2  0  0  0  0  0  0
  191.6880  178.5450  144.1660 C   0  0  0  0  0  2  0  0  0  0  0  0
  189.9150  176.3980  142.5870 C   0  0  0  0  0  3  0  0  0  0  0  0
  190.4710  177.7150  142.1300 C   0  0  1  0  0  3  0  0  0  0  0  0
  191.8340  177.9720  142.7620 C   0  0  0  0  0  2  0  0  0  0  0  0
  189.5980  176.1410  143.8620 C   0  0  0  0  0  3  0  0  0  0  0  0
  189.7590  177.1450  144.9680 C   0  0  1  0  0  3  0  0  0  0  0  0
  189.2080  176.5680  146.2680 C   0  0  0  0  0  2  0  0  0  0  0  0
  187.7690  178.5700  146.3210 C   0  0  0  0  0  1  0  0  0  0  0  0
  189.6070  178.4000  147.9450 C   0  0  0  0  0  1  0  0  0  0  0  0
  187.6070  176.9500  148.1620 C   0  0  0  0  0  1  0  0  0  0  0  0
  188.5600  177.6100  147.1820 C   0  0  0  0  0  0  0  0  0  0  0  0
  1  4  1  0  0  0  0
  2  6  2  0  0  0  0
  3  2  1  0  0  0  0
  3  5  1  0  0  0  0
  5 30  1  6  0  0  0
  5  1  1  0  0  0  0
  6  4  1  0  0  0  0
  7  2  1  0  0  0  0
  8  7  1  0  0  0  0
  9  8  1  0  0  0  0
 10  9  1  0  0  0  0
 11 12  1  1  0  0  0
 11 10  1  0  0  0  0
 11 26  1  0  0  0  0
 13 22  1  0  0  0  0
 15 18  1  0  0  0  0
 15 12  1  1  0  0  0
 16 24  1  0  0  0  0
 16 20  1  0  0  0  0
 17 18  1  0  0  0  0
 18 14  1  0  0  0  0
 19 13  2  0  0  0  0
 21 20  1  0  0  0  0
 22 24  1  6  0  0  0
 23 18  1  0  0  0  0
 23 22  1  0  0  0  0
 23 21  1  1  0  0  0
 25 13  1  0  0  0  0
 25 15  1  0  0  0  0
 26 28  1  0  0  0  0
 27 28  2  0  0  0  0
 28 29  1  0  0  0  0
 31 30  1  0  0  0  0
 32 31  1  0  0  0  0
 33 32  1  0  0  0  0
 34 33  1  6  0  0  0
 34 43  1  0  0  0  0
 35 37  1  0  0  0  0
 36 40  1  1  0  0  0
 36 38  1  0  0  0  0
 37 38  1  0  0  0  0
 37 34  1  0  0  0  0
 39 36  1  0  0  0  0
 39 35  1  0  0  0  0
 40 42  1  0  0  0  0
 41 40  2  0  0  0  0
 45 44  1  0  0  0  0
 46 49  2  0  0  0  0
 47 43  1  6  0  0  0
 47 46  1  0  0  0  0
 47 48  1  0  0  0  0
 48 45  1  0  0  0  0
 49 50  1  0  0  0  0
 50 44  1  0  0  0  0
 50 51  1  1  0  0  0
 51 55  1  0  0  0  0
 52 55  1  0  0  0  0
 55 53  1  0  0  0  0
 55 54  1  0  0  0  0
M  END
>  <MODEL>
4

>  <REMARK>
 VINA RESULT:      -6.6      3.653      9.891
  Name = 
  20 active torsions:
  status: ('A' for Active; 'I' for Inactive)
    1  A    between atoms: C_2  and  C_28
    2  A    between atoms: C_2  and  C_44
    3  A    between atoms: C_6  and  C_46
    4  A    between atoms: C_8  and  C_20
    5  A    between atoms: C_8  and  C_22
    6  A    between atoms: C_10  and  C_32
    7  A    between atoms: C_17  and  C_36
    8  A    between atoms: C_19  and  C_40
    9  A    between atoms: C_19  and  C_45
   10  A    between atoms: C_22  and  C_35
   11  A    between atoms: C_22  and  C_46
   12  A    between atoms: C_27  and  O_54
   13  A    between atoms: C_28  and  C_49
   14  A    between atoms: C_33  and  C_49
   15  A    between atoms: C_33  and  C_52
   16  A    between atoms: N_34  and  C_52
   17  A    between atoms: C_35  and  C_43
   18  A    between atoms: C_36  and  C_52
   19  A    between atoms: C_43  and  C_51
   20  A    between atoms: C_51  and  O_54
                            x       y       z     vdW  Elec       q    Type
                         _______ _______ _______ _____ _____    ______ ____

>  <TORSDO>
F 20

$$$$
=
 OpenBabel10272401283D

 55 59  0  0  1  0  0  0  0  0999 V2000
  184.8410  178.2340  145.0910 C   0  0  0  0  0  2  0  0  0  0  0  0
  184.3750  178.7310  142.3370 C   0  0  0  0  0  0  0  0  0  0  0  0
  185.8100  178.8740  142.7710 C   0  0  0  0  0  2  0  0  0  0  0  0
  183.6870  179.1270  144.6630 C   0  0  0  0  0  2  0  0  0  0  0  0
  186.0930  178.4990  144.2450 C   0  0  2  0  0  3  0  0  0  0  0  0
  183.3820  178.8540  143.2260 C   0  0  0  0  0  3  0  0  0  0  0  0
  184.1140  178.5100  140.9820 O   0  0  0  0  0  0  0  0  0  0  0  0
  185.1030  178.6520  139.9690 C   0  0  0  0  0  2  0  0  0  0  0  0
  184.4330  178.8160  138.6230 C   0  0  0  0  0  2  0  0  0  0  0  0
  183.4270  177.6970  138.4160 C   0  0  0  0  0  2  0  0  0  0  0  0
  183.1310  177.4840  136.9370 C   0  0  1  0  0  3  0  0  0  0  0  0
  183.3350  176.0250  136.5300 C   0  0  0  0  0  2  0  0  0  0  0  0
  184.6290  173.3110  137.4720 C   0  0  0  0  0  0  0  0  0  0  0  0
  181.0980  174.5490  136.1090 F   0  0  0  0  0  0  0  0  0  0  0  0
  182.9090  175.0600  137.6370 C   0  0  1  0  0  3  0  0  0  0  0  0
  183.2720  170.2100  136.1570 N   0  0  0  0  0  2  0  0  0  0  0  0
  180.9190  173.9170  138.2480 F   0  0  0  0  0  0  0  0  0  0  0  0
  181.8050  174.0550  137.1960 C   0  0  0  0  0  0  0  0  0  0  0  0
  185.7900  172.9200  137.7660 O   0  0  0  0  0  0  0  0  0  0  0  0
  182.1590  170.6430  135.3160 C   0  0  0  0  0  2  0  0  0  0  0  0
  181.4330  171.8320  135.9530 C   0  0  0  0  0  2  0  0  0  0  0  0
  183.8240  172.6460  136.4000 C   0  0  2  0  0  3  0  0  0  0  0  0
  182.3600  172.6520  136.8640 C   0  0  1  0  0  3  0  0  0  0  0  0
  184.3310  171.2220  136.0890 C   0  0  0  0  0  2  0  0  0  0  0  0
  184.0690  174.3970  138.1460 O   0  0  0  0  0  0  0  0  0  0  0  0
  181.7300  177.9910  136.5790 C   0  0  0  0  0  2  0  0  0  0  0  0
  180.1480  177.0570  138.2730 O   0  0  0  0  0  0  0  0  0  0  0  0
  180.8430  178.1510  137.7740 C   0  0  0  0  0  0  0  0  0  0  0  0
  180.6990  179.2800  138.3100 O   0  0  0  0  0  1  0  0  0  0  0  0
  186.9960  177.2800  144.3230 C   0  0  0  0  0  2  0  0  0  0  0  0
  187.8320  177.1320  143.0650 C   0  0  0  0  0  2  0  0  0  0  0  0
  188.4630  175.7560  143.0480 C   0  0  0  0  0  2  0  0  0  0  0  0
  189.9130  175.8560  142.6150 C   0  0  0  0  0  2  0  0  0  0  0  0
  190.2830  177.3250  142.3550 C   0  0  1  0  0  3  0  0  0  0  0  0
  190.2710  178.7950  144.2400 C   0  0  0  0  0  2  0  0  0  0  0  0
  191.6090  177.4450  145.7140 C   0  0  1  0  0  3  0  0  0  0  0  0
  191.1050  177.9160  143.4200 N   0  0  0  0  0  0  0  0  0  0  0  0
  191.6640  176.8960  144.3060 C   0  0  0  0  0  2  0  0  0  0  0  0
  190.4410  178.4000  145.6940 C   0  0  0  0  0  2  0  0  0  0  0  0
  191.4230  176.3470  146.7190 C   0  0  0  0  0  0  0  0  0  0  0  0
  192.3190  175.2860  146.7880 O   0  0  0  0  0  0  0  0  0  0  0  0
  190.4120  176.3490  147.4700 O   0  0  0  0  0  1  0  0  0  0  0  0
  190.9720  177.5020  141.0020 C   0  0  0  0  0  2  0  0  0  0  0  0
  189.3300  175.9450  137.0040 C   0  0  0  0  0  2  0  0  0  0  0  0
  190.3810  175.3440  137.9300 C   0  0  0  0  0  2  0  0  0  0  0  0
  189.2150  177.9660  139.3460 C   0  0  0  0  0  3  0  0  0  0  0  0
  190.1390  176.9110  139.8790 C   0  0  1  0  0  3  0  0  0  0  0  0
  191.0660  176.4050  138.7800 C   0  0  0  0  0  2  0  0  0  0  0  0
  188.2960  177.7250  138.4030 C   0  0  0  0  0  3  0  0  0  0  0  0
  188.0900  176.3720  137.7820 C   0  0  1  0  0  3  0  0  0  0  0  0
  186.9020  176.4210  136.8270 C   0  0  0  0  0  2  0  0  0  0  0  0
  188.5250  177.7170  135.4960 C   0  0  0  0  0  1  0  0  0  0  0  0
  186.1610  177.7470  134.8220 C   0  0  0  0  0  1  0  0  0  0  0  0
  187.5270  175.7020  134.5050 C   0  0  0  0  0  1  0  0  0  0  0  0
  187.2620  176.8880  135.4140 C   0  0  0  0  0  0  0  0  0  0  0  0
  2  3  1  0  0  0  0
  2  6  2  0  0  0  0
  3  5  1  0  0  0  0
  4  1  1  0  0  0  0
  5 30  1  6  0  0  0
  5  1  1  0  0  0  0
  6  4  1  0  0  0  0
  7  2  1  0  0  0  0
  8  7  1  0  0  0  0
  9  8  1  0  0  0  0
 10  9  1  0  0  0  0
 11 12  1  1  0  0  0
 11 10  1  0  0  0  0
 13 19  2  0  0  0  0
 13 25  1  0  0  0  0
 14 18  1  0  0  0  0
 15 12  1  6  0  0  0
 15 25  1  0  0  0  0
 18 15  1  0  0  0  0
 18 17  1  0  0  0  0
 20 21  1  0  0  0  0
 20 16  1  0  0  0  0
 22 24  1  1  0  0  0
 22 23  1  0  0  0  0
 22 13  1  0  0  0  0
 23 21  1  6  0  0  0
 23 18  1  0  0  0  0
 24 16  1  0  0  0  0
 26 11  1  0  0  0  0
 26 28  1  0  0  0  0
 28 27  2  0  0  0  0
 28 29  1  0  0  0  0
 31 30  1  0  0  0  0
 32 31  1  0  0  0  0
 33 32  1  0  0  0  0
 34 43  1  6  0  0  0
 34 33  1  0  0  0  0
 34 37  1  0  0  0  0
 35 39  1  0  0  0  0
 36 40  1  1  0  0  0
 37 35  1  0  0  0  0
 37 38  1  0  0  0  0
 38 36  1  0  0  0  0
 39 36  1  0  0  0  0
 40 41  2  0  0  0  0
 40 42  1  0  0  0  0
 44 50  1  0  0  0  0
 44 45  1  0  0  0  0
 45 48  1  0  0  0  0
 46 47  1  0  0  0  0
 47 43  1  1  0  0  0
 48 47  1  0  0  0  0
 49 46  2  0  0  0  0
 50 51  1  6  0  0  0
 50 49  1  0  0  0  0
 53 55  1  0  0  0  0
 54 55  1  0  0  0  0
 55 52  1  0  0  0  0
 55 51  1  0  0  0  0
M  END
>  <MODEL>
5

>  <REMARK>
 VINA RESULT:      -6.5      4.845      8.749
  Name = 
  20 active torsions:
  status: ('A' for Active; 'I' for Inactive)
    1  A    between atoms: C_2  and  C_28
    2  A    between atoms: C_2  and  C_44
    3  A    between atoms: C_6  and  C_46
    4  A    between atoms: C_8  and  C_20
    5  A    between atoms: C_8  and  C_22
    6  A    between atoms: C_10  and  C_32
    7  A    between atoms: C_17  and  C_36
    8  A    between atoms: C_19  and  C_40
    9  A    between atoms: C_19  and  C_45
   10  A    between atoms: C_22  and  C_35
   11  A    between atoms: C_22  and  C_46
   12  A    between atoms: C_27  and  O_54
   13  A    between atoms: C_28  and  C_49
   14  A    between atoms: C_33  and  C_49
   15  A    between atoms: C_33  and  C_52
   16  A    between atoms: N_34  and  C_52
   17  A    between atoms: C_35  and  C_43
   18  A    between atoms: C_36  and  C_52
   19  A    between atoms: C_43  and  C_51
   20  A    between atoms: C_51  and  O_54
                            x       y       z     vdW  Elec       q    Type
                         _______ _______ _______ _____ _____    ______ ____

>  <TORSDO>
F 20

$$$$
=
 OpenBabel10272401283D

 55 59  0  0  1  0  0  0  0  0999 V2000
  191.5890  177.0350  143.9610 C   0  0  0  0  0  2  0  0  0  0  0  0
  188.9970  177.9070  144.7160 C   0  0  0  0  0  0  0  0  0  0  0  0
  189.4070  178.2810  143.3160 C   0  0  0  0  0  2  0  0  0  0  0  0
  191.3760  177.7150  145.3040 C   0  0  0  0  0  2  0  0  0  0  0  0
  190.7730  177.7170  142.8560 C   0  0  2  0  0  3  0  0  0  0  0  0
  189.9240  177.6460  145.6470 C   0  0  0  0  0  3  0  0  0  0  0  0
  187.6340  177.8830  145.0210 O   0  0  0  0  0  0  0  0  0  0  0  0
  186.6720  177.2110  144.2160 C   0  0  0  0  0  2  0  0  0  0  0  0
  185.4480  178.0850  144.0490 C   0  0  0  0  0  2  0  0  0  0  0  0
  185.4280  178.6670  142.6460 C   0  0  0  0  0  2  0  0  0  0  0  0
  184.0010  178.8660  142.1490 C   0  0  1  0  0  3  0  0  0  0  0  0
  183.7510  178.1040  140.8480 C   0  0  0  0  0  2  0  0  0  0  0  0
  182.2280  180.0730  138.9160 C   0  0  0  0  0  0  0  0  0  0  0  0
  184.2940  176.6830  138.6020 F   0  0  0  0  0  0  0  0  0  0  0  0
  184.2550  178.8780  139.6290 C   0  0  1  0  0  3  0  0  0  0  0  0
  180.9150  178.7520  135.7990 N   0  0  0  0  0  2  0  0  0  0  0  0
  185.4070  178.3570  137.6190 F   0  0  0  0  0  0  0  0  0  0  0  0
  184.2570  178.0410  138.3170 C   0  0  0  0  0  0  0  0  0  0  0  0
  181.4630  181.0640  139.0590 O   0  0  0  0  0  0  0  0  0  0  0  0
  181.3390  177.3540  135.8050 C   0  0  0  0  0  2  0  0  0  0  0  0
  182.7400  177.2180  136.4070 C   0  0  0  0  0  2  0  0  0  0  0  0
  181.8100  178.8630  138.1410 C   0  0  2  0  0  3  0  0  0  0  0  0
  183.0520  178.3490  137.4000 C   0  0  1  0  0  3  0  0  0  0  0  0
  180.6410  179.1620  137.1800 C   0  0  0  0  0  2  0  0  0  0  0  0
  183.4960  180.0820  139.4990 O   0  0  0  0  0  0  0  0  0  0  0  0
  182.9850  178.5000  143.2360 C   0  0  0  0  0  2  0  0  0  0  0  0
  180.5990  178.2260  142.5450 O   0  0  0  0  0  0  0  0  0  0  0  0
  181.6220  179.0620  142.9730 C   0  0  0  0  0  0  0  0  0  0  0  0
  181.4080  180.2940  143.1090 O   0  0  0  0  0  1  0  0  0  0  0  0
  190.5870  176.7330  141.7130 C   0  0  0  0  0  2  0  0  0  0  0  0
  189.7670  177.3420  140.5910 C   0  0  0  0  0  2  0  0  0  0  0  0
  190.5630  177.2750  139.3040 C   0  0  0  0  0  2  0  0  0  0  0  0
  189.7580  177.8700  138.1650 C   0  0  0  0  0  2  0  0  0  0  0  0
  189.3070  176.7580  137.2050 C   0  0  1  0  0  3  0  0  0  0  0  0
  187.5610  176.9540  135.5840 C   0  0  0  0  0  2  0  0  0  0  0  0
  186.2150  175.1060  136.3300 C   0  0  1  0  0  3  0  0  0  0  0  0
  187.8530  176.7210  136.9990 N   0  0  0  0  0  0  0  0  0  0  0  0
  187.2850  175.4200  137.3520 C   0  0  0  0  0  2  0  0  0  0  0  0
  186.6590  175.8400  135.0900 C   0  0  0  0  0  2  0  0  0  0  0  0
  186.1010  173.6270  136.1000 C   0  0  0  0  0  0  0  0  0  0  0  0
  185.7930  172.7660  137.1470 O   0  0  0  0  0  1  0  0  0  0  0  0
  186.3460  173.1490  134.9610 O   0  0  0  0  0  0  0  0  0  0  0  0
  190.0250  176.8490  135.8590 C   0  0  0  0  0  2  0  0  0  0  0  0
  193.6180  174.1370  134.9410 C   0  0  0  0  0  2  0  0  0  0  0  0
  193.2390  175.4900  134.3510 C   0  0  0  0  0  2  0  0  0  0  0  0
  191.1310  174.8040  136.6590 C   0  0  0  0  0  3  0  0  0  0  0  0
  191.3270  176.0680  135.8760 C   0  0  1  0  0  3  0  0  0  0  0  0
  191.7420  175.7530  134.4430 C   0  0  0  0  0  2  0  0  0  0  0  0
  192.1240  173.9440  136.9220 C   0  0  0  0  0  3  0  0  0  0  0  0
  193.5390  174.1580  136.4630 C   0  0  1  0  0  3  0  0  0  0  0  0
  194.4300  173.0510  137.0180 C   0  0  0  0  0  2  0  0  0  0  0  0
  196.2450  174.6620  136.5760 C   0  0  0  0  0  1  0  0  0  0  0  0
  196.8340  172.4290  137.4190 C   0  0  0  0  0  1  0  0  0  0  0  0
  195.7270  174.0760  138.9060 C   0  0  0  0  0  1  0  0  0  0  0  0
  195.8030  173.5390  137.4880 C   0  0  0  0  0  0  0  0  0  0  0  0
  1  4  1  0  0  0  0
  2  7  1  0  0  0  0
  2  6  2  0  0  0  0
  3  2  1  0  0  0  0
  4  6  1  0  0  0  0
  5 30  1  6  0  0  0
  5  3  1  0  0  0  0
  5  1  1  0  0  0  0
  8  7  1  0  0  0  0
  9  8  1  0  0  0  0
 10  9  1  0  0  0  0
 11 12  1  6  0  0  0
 11 10  1  0  0  0  0
 11 26  1  0  0  0  0
 13 19  2  0  0  0  0
 13 25  1  0  0  0  0
 15 12  1  1  0  0  0
 16 20  1  0  0  0  0
 16 24  1  0  0  0  0
 17 18  1  0  0  0  0
 18 14  1  0  0  0  0
 18 15  1  0  0  0  0
 20 21  1  0  0  0  0
 22 24  1  6  0  0  0
 22 13  1  0  0  0  0
 23 21  1  1  0  0  0
 23 22  1  0  0  0  0
 23 18  1  0  0  0  0
 25 15  1  0  0  0  0
 27 28  2  0  0  0  0
 28 29  1  0  0  0  0
 28 26  1  0  0  0  0
 31 30  1  0  0  0  0
 32 31  1  0  0  0  0
 33 32  1  0  0  0  0
 34 43  1  6  0  0  0
 34 33  1  0  0  0  0
 35 37  1  0  0  0  0
 36 40  1  6  0  0  0
 36 38  1  0  0  0  0
 37 34  1  0  0  0  0
 37 38  1  0  0  0  0
 39 35  1  0  0  0  0
 39 36  1  0  0  0  0
 40 41  1  0  0  0  0
 42 40  2  0  0  0  0
 44 50  1  0  0  0  0
 45 48  1  0  0  0  0
 45 44  1  0  0  0  0
 46 49  2  0  0  0  0
 47 43  1  6  0  0  0
 47 46  1  0  0  0  0
 48 47  1  0  0  0  0
 50 49  1  0  0  0  0
 50 51  1  1  0  0  0
 51 55  1  0  0  0  0
 52 55  1  0  0  0  0
 53 55  1  0  0  0  0
 55 54  1  0  0  0  0
M  END
>  <MODEL>
6

>  <REMARK>
 VINA RESULT:      -6.3      3.719     10.185
  Name = 
  20 active torsions:
  status: ('A' for Active; 'I' for Inactive)
    1  A    between atoms: C_2  and  C_28
    2  A    between atoms: C_2  and  C_44
    3  A    between atoms: C_6  and  C_46
    4  A    between atoms: C_8  and  C_20
    5  A    between atoms: C_8  and  C_22
    6  A    between atoms: C_10  and  C_32
    7  A    between atoms: C_17  and  C_36
    8  A    between atoms: C_19  and  C_40
    9  A    between atoms: C_19  and  C_45
   10  A    between atoms: C_22  and  C_35
   11  A    between atoms: C_22  and  C_46
   12  A    between atoms: C_27  and  O_54
   13  A    between atoms: C_28  and  C_49
   14  A    between atoms: C_33  and  C_49
   15  A    between atoms: C_33  and  C_52
   16  A    between atoms: N_34  and  C_52
   17  A    between atoms: C_35  and  C_43
   18  A    between atoms: C_36  and  C_52
   19  A    between atoms: C_43  and  C_51
   20  A    between atoms: C_51  and  O_54
                            x       y       z     vdW  Elec       q    Type
                         _______ _______ _______ _____ _____    ______ ____

>  <TORSDO>
F 20

$$$$
=
 OpenBabel10272401283D

 55 59  0  0  1  0  0  0  0  0999 V2000
  188.1520  178.3890  138.1220 C   0  0  0  0  0  2  0  0  0  0  0  0
  189.6020  177.1540  140.2250 C   0  0  0  0  0  0  0  0  0  0  0  0
  189.4730  176.3240  138.9750 C   0  0  0  0  0  2  0  0  0  0  0  0
  187.6000  178.4050  139.5390 C   0  0  0  0  0  2  0  0  0  0  0  0
  188.7800  177.0300  137.7850 C   0  0  2  0  0  3  0  0  0  0  0  0
  188.7200  178.1260  140.4890 C   0  0  0  0  0  3  0  0  0  0  0  0
  190.6370  176.8520  141.1150 O   0  0  0  0  0  0  0  0  0  0  0  0
  191.6720  177.7730  141.4410 C   0  0  0  0  0  2  0  0  0  0  0  0
  191.5790  178.1440  142.9060 C   0  0  0  0  0  2  0  0  0  0  0  0
  191.6960  176.8900  143.7540 C   0  0  0  0  0  2  0  0  0  0  0  0
  191.4480  177.1930  145.2270 C   0  0  1  0  0  3  0  0  0  0  0  0
  190.1080  177.8980  145.4350 C   0  0  0  0  0  2  0  0  0  0  0  0
  187.6490  176.8060  143.7950 C   0  0  0  0  0  0  0  0  0  0  0  0
  188.2480  178.7730  147.2060 F   0  0  0  0  0  0  0  0  0  0  0  0
  189.0060  176.9180  145.8420 C   0  0  1  0  0  3  0  0  0  0  0  0
  184.4340  178.4400  144.2230 N   0  0  0  0  0  2  0  0  0  0  0  0
  187.4530  176.7240  147.6270 F   0  0  0  0  0  0  0  0  0  0  0  0
  187.8330  177.5870  146.6170 C   0  0  0  0  0  0  0  0  0  0  0  0
  187.4780  176.3110  142.6490 O   0  0  0  0  0  0  0  0  0  0  0  0
  184.6920  179.4620  145.2340 C   0  0  0  0  0  2  0  0  0  0  0  0
  185.6680  178.9400  146.2920 C   0  0  0  0  0  2  0  0  0  0  0  0
  186.9090  178.0290  144.2410 C   0  0  2  0  0  3  0  0  0  0  0  0
  186.5940  177.8480  145.7330 C   0  0  1  0  0  3  0  0  0  0  0  0
  185.6390  178.2800  143.4030 C   0  0  0  0  0  2  0  0  0  0  0  0
  188.5550  176.2200  144.6790 O   0  0  0  0  0  0  0  0  0  0  0  0
  191.5700  175.9240  146.0780 C   0  0  0  0  0  2  0  0  0  0  0  0
  191.7160  177.3410  148.1310 O   0  0  0  0  0  1  0  0  0  0  0  0
  192.0980  176.1910  147.4530 C   0  0  0  0  0  0  0  0  0  0  0  0
  192.9130  175.3930  147.9840 O   0  0  0  0  0  0  0  0  0  0  0  0
  189.7540  177.2190  136.6350 C   0  0  0  0  0  2  0  0  0  0  0  0
  189.0590  177.0730  135.2940 C   0  0  0  0  0  2  0  0  0  0  0  0
  188.0530  175.9440  135.3780 C   0  0  0  0  0  2  0  0  0  0  0  0
  188.4660  174.8110  134.4590 C   0  0  0  0  0  2  0  0  0  0  0  0
  189.1210  173.6860  135.2760 C   0  0  1  0  0  3  0  0  0  0  0  0
  187.9410  172.7580  137.1360 C   0  0  0  0  0  2  0  0  0  0  0  0
  185.8130  172.4610  136.0560 C   0  0  1  0  0  3  0  0  0  0  0  0
  188.1740  172.6440  135.6960 N   0  0  0  0  0  0  0  0  0  0  0  0
  186.8780  172.7870  135.0330 C   0  0  0  0  0  2  0  0  0  0  0  0
  186.4460  172.8180  137.3780 C   0  0  0  0  0  2  0  0  0  0  0  0
  184.5570  173.2430  135.8020 C   0  0  0  0  0  0  0  0  0  0  0  0
  183.7650  173.6790  136.8580 O   0  0  0  0  0  1  0  0  0  0  0  0
  184.1810  173.4560  134.6200 O   0  0  0  0  0  0  0  0  0  0  0  0
  190.2950  173.0550  134.5270 C   0  0  0  0  0  2  0  0  0  0  0  0
  194.1730  175.1440  135.8320 C   0  0  0  0  0  2  0  0  0  0  0  0
  192.7280  175.4330  136.2220 C   0  0  0  0  0  2  0  0  0  0  0  0
  192.7370  172.8280  134.3630 C   0  0  0  0  0  3  0  0  0  0  0  0
  191.6210  173.4470  135.1520 C   0  0  1  0  0  3  0  0  0  0  0  0
  191.7450  174.9660  135.1570 C   0  0  0  0  0  2  0  0  0  0  0  0
  194.0250  172.9230  134.7180 C   0  0  0  0  0  3  0  0  0  0  0  0
  194.4870  173.6570  135.9460 C   0  0  1  0  0  3  0  0  0  0  0  0
  195.9940  173.4830  136.1100 C   0  0  0  0  0  2  0  0  0  0  0  0
  196.1630  171.6490  137.7510 C   0  0  0  0  0  1  0  0  0  0  0  0
  195.6290  173.9070  138.5620 C   0  0  0  0  0  1  0  0  0  0  0  0
  197.9060  173.3820  137.7320 C   0  0  0  0  0  1  0  0  0  0  0  0
  196.4230  173.1230  137.5350 C   0  0  0  0  0  0  0  0  0  0  0  0
  1  4  1  0  0  0  0
  2  6  2  0  0  0  0
  2  7  1  0  0  0  0
  3  2  1  0  0  0  0
  4  6  1  0  0  0  0
  5 30  1  6  0  0  0
  5  1  1  0  0  0  0
  5  3  1  0  0  0  0
  7  8  1  0  0  0  0
  8  9  1  0  0  0  0
  9 10  1  0  0  0  0
 11 10  1  6  0  0  0
 11 12  1  0  0  0  0
 11 26  1  0  0  0  0
 13 22  1  0  0  0  0
 13 25  1  0  0  0  0
 15 12  1  6  0  0  0
 15 18  1  0  0  0  0
 16 20  1  0  0  0  0
 18 14  1  0  0  0  0
 18 17  1  0  0  0  0
 19 13  2  0  0  0  0
 20 21  1  0  0  0  0
 22 24  1  6  0  0  0
 22 23  1  0  0  0  0
 23 21  1  1  0  0  0
 23 18  1  0  0  0  0
 24 16  1  0  0  0  0
 25 15  1  0  0  0  0
 26 28  1  0  0  0  0
 28 29  2  0  0  0  0
 28 27  1  0  0  0  0
 31 32  1  0  0  0  0
 31 30  1  0  0  0  0
 33 32  1  0  0  0  0
 34 33  1  6  0  0  0
 34 37  1  0  0  0  0
 35 39  1  0  0  0  0
 36 40  1  6  0  0  0
 36 39  1  0  0  0  0
 37 35  1  0  0  0  0
 38 37  1  0  0  0  0
 38 36  1  0  0  0  0
 40 41  1  0  0  0  0
 42 40  2  0  0  0  0
 43 34  1  0  0  0  0
 44 50  1  0  0  0  0
 44 45  1  0  0  0  0
 46 49  2  0  0  0  0
 46 47  1  0  0  0  0
 47 43  1  6  0  0  0
 47 48  1  0  0  0  0
 48 45  1  0  0  0  0
 49 50  1  0  0  0  0
 50 51  1  6  0  0  0
 51 55  1  0  0  0  0
 55 54  1  0  0  0  0
 55 52  1  0  0  0  0
 55 53  1  0  0  0  0
M  END
>  <MODEL>
7

>  <REMARK>
 VINA RESULT:      -6.2      3.694     10.362
  Name = 
  20 active torsions:
  status: ('A' for Active; 'I' for Inactive)
    1  A    between atoms: C_2  and  C_28
    2  A    between atoms: C_2  and  C_44
    3  A    between atoms: C_6  and  C_46
    4  A    between atoms: C_8  and  C_20
    5  A    between atoms: C_8  and  C_22
    6  A    between atoms: C_10  and  C_32
    7  A    between atoms: C_17  and  C_36
    8  A    between atoms: C_19  and  C_40
    9  A    between atoms: C_19  and  C_45
   10  A    between atoms: C_22  and  C_35
   11  A    between atoms: C_22  and  C_46
   12  A    between atoms: C_27  and  O_54
   13  A    between atoms: C_28  and  C_49
   14  A    between atoms: C_33  and  C_49
   15  A    between atoms: C_33  and  C_52
   16  A    between atoms: N_34  and  C_52
   17  A    between atoms: C_35  and  C_43
   18  A    between atoms: C_36  and  C_52
   19  A    between atoms: C_43  and  C_51
   20  A    between atoms: C_51  and  O_54
                            x       y       z     vdW  Elec       q    Type
                         _______ _______ _______ _____ _____    ______ ____

>  <TORSDO>
F 20

$$$$
=
 OpenBabel10272401283D

 55 59  0  0  1  0  0  0  0  0999 V2000
  187.6890  176.6010  137.8140 C   0  0  0  0  0  2  0  0  0  0  0  0
  189.3790  176.7620  135.5410 C   0  0  0  0  0  0  0  0  0  0  0  0
  189.1920  178.0600  136.2820 C   0  0  0  0  0  2  0  0  0  0  0  0
  187.2580  175.9700  136.4990 C   0  0  0  0  0  2  0  0  0  0  0  0
  188.3620  177.9600  137.5850 C   0  0  2  0  0  3  0  0  0  0  0  0
  188.4680  175.7860  135.6420 C   0  0  0  0  0  3  0  0  0  0  0  0
  190.5010  176.6270  134.7180 O   0  0  0  0  0  0  0  0  0  0  0  0
  191.5610  175.7200  134.9960 C   0  0  0  0  0  2  0  0  0  0  0  0
  191.7720  175.6280  136.4920 C   0  0  0  0  0  2  0  0  0  0  0  0
  191.9660  174.1760  136.8890 C   0  0  0  0  0  2  0  0  0  0  0  0
  193.2220  173.5910  136.2560 C   0  0  1  0  0  3  0  0  0  0  0  0
  194.4860  174.1050  136.9450 C   0  0  0  0  0  2  0  0  0  0  0  0
  196.6540  174.3750  139.2160 C   0  0  0  0  0  0  0  0  0  0  0  0
  196.2510  172.4050  135.7780 F   0  0  0  0  0  0  0  0  0  0  0  0
  195.1260  173.0350  137.8310 C   0  0  1  0  0  3  0  0  0  0  0  0
  200.1290  173.7660  138.3590 N   0  0  0  0  0  2  0  0  0  0  0  0
  196.2470  170.9690  137.4940 F   0  0  0  0  0  0  0  0  0  0  0  0
  196.3280  172.3080  137.1600 C   0  0  0  0  0  0  0  0  0  0  0  0
  196.8150  175.1140  140.2240 O   0  0  0  0  0  0  0  0  0  0  0  0
  200.0810  173.3880  136.9490 C   0  0  0  0  0  2  0  0  0  0  0  0
  198.8430  172.5330  136.6620 C   0  0  0  0  0  2  0  0  0  0  0  0
  197.6840  174.2840  138.1350 C   0  0  2  0  0  3  0  0  0  0  0  0
  197.6990  172.8290  137.6450 C   0  0  1  0  0  3  0  0  0  0  0  0
  199.0740  174.7530  138.6130 C   0  0  0  0  0  2  0  0  0  0  0  0
  195.4840  173.6250  139.0830 O   0  0  0  0  0  0  0  0  0  0  0  0
  193.1630  172.0600  136.2280 C   0  0  0  0  0  2  0  0  0  0  0  0
  191.4950  172.3920  134.3980 O   0  0  0  0  0  0  0  0  0  0  0  0
  192.3060  171.5280  135.1220 C   0  0  0  0  0  0  0  0  0  0  0  0
  192.2940  170.2970  134.8660 O   0  0  0  0  0  1  0  0  0  0  0  0
  189.2230  178.2840  138.7930 C   0  0  0  0  0  2  0  0  0  0  0  0
  188.7270  177.5640  140.0330 C   0  0  0  0  0  2  0  0  0  0  0  0
  187.6950  178.4270  140.7270 C   0  0  0  0  0  2  0  0  0  0  0  0
  188.0020  178.5110  142.2100 C   0  0  0  0  0  2  0  0  0  0  0  0
  186.8300  177.9350  143.0220 C   0  0  1  0  0  3  0  0  0  0  0  0
  188.7110  176.8880  144.0600 C   0  0  0  0  0  2  0  0  0  0  0  0
  187.9490  177.0350  146.3370 C   0  0  1  0  0  3  0  0  0  0  0  0
  187.2500  176.9700  144.0470 N   0  0  0  0  0  0  0  0  0  0  0  0
  186.8250  177.3780  145.3850 C   0  0  0  0  0  2  0  0  0  0  0  0
  189.1910  177.0990  145.4820 C   0  0  0  0  0  2  0  0  0  0  0  0
  188.0030  178.0000  147.4850 C   0  0  0  0  0  0  0  0  0  0  0  0
  186.8820  178.7380  147.8470 O   0  0  0  0  0  0  0  0  0  0  0  0
  189.0900  178.1920  148.0910 O   0  0  0  0  0  1  0  0  0  0  0  0
  185.9870  179.0410  143.6570 C   0  0  0  0  0  2  0  0  0  0  0  0
  181.5450  178.4880  142.6230 C   0  0  0  0  0  2  0  0  0  0  0  0
  182.1940  179.2540  143.7700 C   0  0  0  0  0  2  0  0  0  0  0  0
  184.5330  178.1410  141.8900 C   0  0  0  0  0  3  0  0  0  0  0  0
  184.5960  179.0890  143.0510 C   0  0  1  0  0  3  0  0  0  0  0  0
  183.5730  178.7060  144.1140 C   0  0  0  0  0  2  0  0  0  0  0  0
  183.4580  178.0220  141.1010 C   0  0  0  0  0  3  0  0  0  0  0  0
  182.2040  178.8280  141.2910 C   0  0  1  0  0  3  0  0  0  0  0  0
  181.2230  178.5230  140.1640 C   0  0  0  0  0  2  0  0  0  0  0  0
  180.4100  180.6520  139.2180 C   0  0  0  0  0  1  0  0  0  0  0  0
  180.9140  178.7980  137.6820 C   0  0  0  0  0  1  0  0  0  0  0  0
  182.7500  180.0050  138.8330 C   0  0  0  0  0  1  0  0  0  0  0  0
  181.3330  179.4790  138.9730 C   0  0  0  0  0  0  0  0  0  0  0  0
  2  6  2  0  0  0  0
  2  3  1  0  0  0  0
  3  5  1  0  0  0  0
  4  1  1  0  0  0  0
  5  1  1  0  0  0  0
  5 30  1  1  0  0  0
  6  4  1  0  0  0  0
  7  8  1  0  0  0  0
  7  2  1  0  0  0  0
  8  9  1  0  0  0  0
  9 10  1  0  0  0  0
 11 26  1  1  0  0  0
 11 10  1  0  0  0  0
 11 12  1  0  0  0  0
 13 19  2  0  0  0  0
 14 18  1  0  0  0  0
 15 12  1  6  0  0  0
 15 25  1  0  0  0  0
 16 24  1  0  0  0  0
 18 17  1  0  0  0  0
 18 23  1  0  0  0  0
 18 15  1  0  0  0  0
 20 16  1  0  0  0  0
 21 20  1  0  0  0  0
 22 24  1  1  0  0  0
 22 13  1  0  0  0  0
 23 21  1  6  0  0  0
 23 22  1  0  0  0  0
 25 13  1  0  0  0  0
 27 28  2  0  0  0  0
 28 26  1  0  0  0  0
 29 28  1  0  0  0  0
 30 31  1  0  0  0  0
 31 32  1  0  0  0  0
 32 33  1  0  0  0  0
 34 33  1  1  0  0  0
 34 43  1  0  0  0  0
 34 37  1  0  0  0  0
 35 39  1  0  0  0  0
 36 40  1  1  0  0  0
 37 35  1  0  0  0  0
 37 38  1  0  0  0  0
 38 36  1  0  0  0  0
 39 36  1  0  0  0  0
 40 41  2  0  0  0  0
 40 42  1  0  0  0  0
 44 45  1  0  0  0  0
 45 48  1  0  0  0  0
 46 47  1  0  0  0  0
 47 43  1  1  0  0  0
 47 48  1  0  0  0  0
 49 50  1  0  0  0  0
 49 46  2  0  0  0  0
 50 51  1  6  0  0  0
 50 44  1  0  0  0  0
 53 55  1  0  0  0  0
 54 55  1  0  0  0  0
 55 52  1  0  0  0  0
 55 51  1  0  0  0  0
M  END
>  <MODEL>
8

>  <REMARK>
 VINA RESULT:      -6.2      2.731      5.118
  Name = 
  20 active torsions:
  status: ('A' for Active; 'I' for Inactive)
    1  A    between atoms: C_2  and  C_28
    2  A    between atoms: C_2  and  C_44
    3  A    between atoms: C_6  and  C_46
    4  A    between atoms: C_8  and  C_20
    5  A    between atoms: C_8  and  C_22
    6  A    between atoms: C_10  and  C_32
    7  A    between atoms: C_17  and  C_36
    8  A    between atoms: C_19  and  C_40
    9  A    between atoms: C_19  and  C_45
   10  A    between atoms: C_22  and  C_35
   11  A    between atoms: C_22  and  C_46
   12  A    between atoms: C_27  and  O_54
   13  A    between atoms: C_28  and  C_49
   14  A    between atoms: C_33  and  C_49
   15  A    between atoms: C_33  and  C_52
   16  A    between atoms: N_34  and  C_52
   17  A    between atoms: C_35  and  C_43
   18  A    between atoms: C_36  and  C_52
   19  A    between atoms: C_43  and  C_51
   20  A    between atoms: C_51  and  O_54
                            x       y       z     vdW  Elec       q    Type
                         _______ _______ _______ _____ _____    ______ ____

>  <TORSDO>
F 20

$$$$
=
 OpenBabel10272401283D

 55 59  0  0  1  0  0  0  0  0999 V2000
  191.3310  176.4920  144.7690 C   0  0  0  0  0  2  0  0  0  0  0  0
  188.8850  177.9060  145.0300 C   0  0  0  0  0  0  0  0  0  0  0  0
  189.7170  178.2980  143.8370 C   0  0  0  0  0  2  0  0  0  0  0  0
  190.9280  177.0740  146.1150 C   0  0  0  0  0  2  0  0  0  0  0  0
  190.9990  177.4570  143.6240 C   0  0  2  0  0  3  0  0  0  0  0  0
  189.4580  177.3370  146.0980 C   0  0  0  0  0  3  0  0  0  0  0  0
  187.5180  178.1940  145.0050 O   0  0  0  0  0  0  0  0  0  0  0  0
  186.7100  178.0150  143.8470 C   0  0  0  0  0  2  0  0  0  0  0  0
  185.2590  178.2680  144.1960 C   0  0  0  0  0  2  0  0  0  0  0  0
  184.7340  179.4280  143.3690 C   0  0  0  0  0  2  0  0  0  0  0  0
  183.3190  179.1580  142.8710 C   0  0  1  0  0  3  0  0  0  0  0  0
  183.3030  178.0700  141.7980 C   0  0  0  0  0  2  0  0  0  0  0  0
  181.6950  176.4350  139.6370 C   0  0  0  0  0  0  0  0  0  0  0  0
  184.8760  178.8290  139.7210 F   0  0  0  0  0  0  0  0  0  0  0  0
  182.6050  178.5410  140.5200 C   0  0  1  0  0  3  0  0  0  0  0  0
  183.4390  175.3700  136.6350 N   0  0  0  0  0  2  0  0  0  0  0  0
  183.2030  179.8100  138.6050 F   0  0  0  0  0  0  0  0  0  0  0  0
  183.5630  178.6710  139.3000 C   0  0  0  0  0  0  0  0  0  0  0  0
  180.7760  175.5730  139.6580 O   0  0  0  0  0  0  0  0  0  0  0  0
  184.7800  175.9270  136.7930 C   0  0  0  0  0  2  0  0  0  0  0  0
  184.7160  177.3120  137.4430 C   0  0  0  0  0  2  0  0  0  0  0  0
  183.0100  176.1640  138.9760 C   0  0  2  0  0  3  0  0  0  0  0  0
  183.4680  177.4770  138.3240 C   0  0  1  0  0  3  0  0  0  0  0  0
  182.9250  175.0070  137.9600 C   0  0  0  0  0  2  0  0  0  0  0  0
  181.5020  177.6740  140.2490 O   0  0  0  0  0  0  0  0  0  0  0  0
  182.3790  178.8320  144.0360 C   0  0  0  0  0  2  0  0  0  0  0  0
  180.6820  180.2400  142.8600 O   0  0  0  0  0  0  0  0  0  0  0  0
  180.9600  179.2280  143.7700 C   0  0  0  0  0  0  0  0  0  0  0  0
  180.0200  178.6700  144.3920 O   0  0  0  0  0  1  0  0  0  0  0  0
  190.9080  176.6630  142.3320 C   0  0  0  0  0  2  0  0  0  0  0  0
  191.5800  177.3960  141.1860 C   0  0  0  0  0  2  0  0  0  0  0  0
  190.7020  177.3050  139.9560 C   0  0  0  0  0  2  0  0  0  0  0  0
  191.4760  176.6840  138.8100 C   0  0  0  0  0  2  0  0  0  0  0  0
  190.5410  175.8120  137.9570 C   0  0  1  0  0  3  0  0  0  0  0  0
  189.4410  175.4370  135.8680 C   0  0  0  0  0  2  0  0  0  0  0  0
  188.7420  177.7020  135.4570 C   0  0  1  0  0  3  0  0  0  0  0  0
  190.3420  176.3310  136.5960 N   0  0  0  0  0  0  0  0  0  0  0  0
  189.7270  177.6580  136.6030 C   0  0  0  0  0  2  0  0  0  0  0  0
  188.3160  176.2650  135.2780 C   0  0  0  0  0  2  0  0  0  0  0  0
  187.5820  178.6000  135.7710 C   0  0  0  0  0  0  0  0  0  0  0  0
  187.5800  179.3840  136.9190 O   0  0  0  0  0  1  0  0  0  0  0  0
  186.5690  178.6010  135.0220 O   0  0  0  0  0  0  0  0  0  0  0  0
  191.0180  174.3610  137.9000 C   0  0  0  0  0  2  0  0  0  0  0  0
  194.0940  172.8650  134.8340 C   0  0  0  0  0  2  0  0  0  0  0  0
  192.6320  173.2520  134.6430 C   0  0  0  0  0  2  0  0  0  0  0  0
  193.4140  173.8530  137.6870 C   0  0  0  0  0  3  0  0  0  0  0  0
  192.1690  174.1980  136.9240 C   0  0  1  0  0  3  0  0  0  0  0  0
  191.8280  173.0960  135.9270 C   0  0  0  0  0  2  0  0  0  0  0  0
  194.6150  173.7280  137.1090 C   0  0  0  0  0  3  0  0  0  0  0  0
  194.8430  173.9220  135.6370 C   0  0  1  0  0  3  0  0  0  0  0  0
  196.3330  173.8090  135.3290 C   0  0  0  0  0  2  0  0  0  0  0  0
  196.2330  176.2740  135.3810 C   0  0  0  0  0  1  0  0  0  0  0  0
  198.3520  175.1950  134.7520 C   0  0  0  0  0  1  0  0  0  0  0  0
  197.5510  175.1090  137.0980 C   0  0  0  0  0  1  0  0  0  0  0  0
  197.1270  175.0810  135.6400 C   0  0  0  0  0  0  0  0  0  0  0  0
  1  4  1  0  0  0  0
  2  6  2  0  0  0  0
  3  2  1  0  0  0  0
  5 30  1  6  0  0  0
  5  3  1  0  0  0  0
  5  1  1  0  0  0  0
  6  4  1  0  0  0  0
  7  2  1  0  0  0  0
  8  9  1  0  0  0  0
  8  7  1  0  0  0  0
 10  9  1  0  0  0  0
 11 12  1  6  0  0  0
 11 10  1  0  0  0  0
 11 26  1  0  0  0  0
 13 19  2  0  0  0  0
 13 25  1  0  0  0  0
 15 12  1  1  0  0  0
 16 20  1  0  0  0  0
 16 24  1  0  0  0  0
 17 18  1  0  0  0  0
 18 14  1  0  0  0  0
 18 15  1  0  0  0  0
 20 21  1  0  0  0  0
 22 24  1  6  0  0  0
 22 13  1  0  0  0  0
 23 21  1  1  0  0  0
 23 22  1  0  0  0  0
 23 18  1  0  0  0  0
 25 15  1  0  0  0  0
 27 28  2  0  0  0  0
 28 26  1  0  0  0  0
 28 29  1  0  0  0  0
 31 30  1  0  0  0  0
 32 31  1  0  0  0  0
 33 32  1  0  0  0  0
 34 43  1  6  0  0  0
 34 33  1  0  0  0  0
 35 37  1  0  0  0  0
 36 40  1  1  0  0  0
 36 38  1  0  0  0  0
 37 38  1  0  0  0  0
 37 34  1  0  0  0  0
 39 36  1  0  0  0  0
 39 35  1  0  0  0  0
 40 41  1  0  0  0  0
 42 40  2  0  0  0  0
 44 50  1  0  0  0  0
 45 44  1  0  0  0  0
 45 48  1  0  0  0  0
 47 46  1  0  0  0  0
 47 43  1  1  0  0  0
 48 47  1  0  0  0  0
 49 46  2  0  0  0  0
 50 51  1  1  0  0  0
 50 49  1  0  0  0  0
 51 55  1  0  0  0  0
 52 55  1  0  0  0  0
 53 55  1  0  0  0  0
 55 54  1  0  0  0  0
M  END
>  <MODEL>
9

>  <REMARK>
 VINA RESULT:      -6.0      3.666     10.484
  Name = 
  20 active torsions:
  status: ('A' for Active; 'I' for Inactive)
    1  A    between atoms: C_2  and  C_28
    2  A    between atoms: C_2  and  C_44
    3  A    between atoms: C_6  and  C_46
    4  A    between atoms: C_8  and  C_20
    5  A    between atoms: C_8  and  C_22
    6  A    between atoms: C_10  and  C_32
    7  A    between atoms: C_17  and  C_36
    8  A    between atoms: C_19  and  C_40
    9  A    between atoms: C_19  and  C_45
   10  A    between atoms: C_22  and  C_35
   11  A    between atoms: C_22  and  C_46
   12  A    between atoms: C_27  and  O_54
   13  A    between atoms: C_28  and  C_49
   14  A    between atoms: C_33  and  C_49
   15  A    between atoms: C_33  and  C_52
   16  A    between atoms: N_34  and  C_52
   17  A    between atoms: C_35  and  C_43
   18  A    between atoms: C_36  and  C_52
   19  A    between atoms: C_43  and  C_51
   20  A    between atoms: C_51  and  O_54
                            x       y       z     vdW  Elec       q    Type
                         _______ _______ _______ _____ _____    ______ ____

>  <TORSDO>
F 20

$$$$
