=
 OpenBabel10272400193D

 31 34  0  0  1  0  0  0  0  0999 V2000
  187.7950  177.9160  144.7800 C   0  0  1  0  0  3  0  0  0  0  0  0
  186.5370  178.5500  145.4050 C   0  0  1  0  0  3  0  0  0  0  0  0
  185.4460  178.7910  144.3750 C   0  0  0  0  0  0  0  0  0  0  0  0
  185.3600  178.4430  141.9320 C   0  0  0  0  0  3  0  0  0  0  0  0
  185.8320  179.3310  143.0320 C   0  0  0  0  0  2  0  0  0  0  0  0
  183.8570  178.4790  146.1060 O   0  0  0  0  0  0  0  0  0  0  0  0
  184.0700  178.2080  141.7020 C   0  0  0  0  0  3  0  0  0  0  0  0
  186.0520  177.7570  146.5380 N   0  0  0  0  0  2  0  0  0  0  0  0
  182.9640  178.7110  142.5360 C   0  0  0  0  0  3  0  0  0  0  0  0
  184.8820  178.4230  147.0950 C   0  0  0  0  0  2  0  0  0  0  0  0
  184.1550  178.7420  144.7650 C   0  0  0  0  0  0  0  0  0  0  0  0
  183.0070  178.9490  143.8540 C   0  0  0  0  0  3  0  0  0  0  0  0
  190.0300  176.4830  147.2300 N   0  0  0  0  0  0  0  0  0  0  0  0
  189.6720  177.7830  147.7810 C   0  0  0  0  0  2  0  0  0  0  0  0
  191.4760  176.3760  147.3080 C   0  0  0  0  0  1  0  0  0  0  0  0
  189.6880  176.5790  145.8310 C   0  0  0  0  0  2  0  0  0  0  0  0
  189.0540  177.9370  145.6570 C   0  0  2  0  0  3  0  0  0  0  0  0
  188.7550  178.4230  146.9320 O   0  0  0  0  0  0  0  0  0  0  0  0
  187.5820  176.6000  144.0230 C   0  0  0  0  0  2  0  0  0  0  0  0
  188.6910  176.2990  143.0190 C   0  0  0  0  0  2  0  0  0  0  0  0
  188.9720  177.4930  142.1100 C   0  0  1  0  0  3  0  0  0  0  0  0
  191.1280  177.1080  142.4390 C   0  0  0  0  0  1  0  0  0  0  0  0
  190.1650  178.1180  142.4810 O   0  0  0  0  0  0  0  0  0  0  0  0
  189.0370  177.0770  140.6440 C   0  0  0  0  0  2  0  0  0  0  0  0
  187.0060  178.0270  138.6220 C   0  0  2  0  0  3  0  0  0  0  0  0
  187.9340  178.0040  137.4380 C   0  0  2  0  0  3  0  0  0  0  0  0
  185.8030  178.6690  138.3200 O   0  0  0  0  0  1  0  0  0  0  0  0
  187.6860  178.7190  139.7030 N   0  0  0  0  0  2  0  0  0  0  0  0
  189.5570  177.7280  138.1640 S   0  0  0  0  0  0  0  0  0  0  0  0
  189.0160  178.2500  139.7760 N   0  0  0  0  0  0  0  0  0  0  0  0
  187.9360  179.2890  136.7560 N   0  0  0  0  0  1  0  0  0  0  0  0
  1 19  1  1  0  0  0
  2  1  1  6  0  0  0
  2  8  1  0  0  0  0
  3 11  2  0  0  0  0
  3  2  1  0  0  0  0
  4  5  1  0  0  0  0
  5  3  1  0  0  0  0
  6 10  1  0  0  0  0
  7  4  2  0  0  0  0
  7  9  1  0  0  0  0
  8 10  1  0  0  0  0
  9 12  2  0  0  0  0
 11  6  1  0  0  0  0
 12 11  1  0  0  0  0
 13 15  1  0  0  0  0
 13 14  1  0  0  0  0
 16 13  1  0  0  0  0
 17  1  1  6  0  0  0
 17 16  1  0  0  0  0
 17 18  1  0  0  0  0
 18 14  1  0  0  0  0
 20 19  1  0  0  0  0
 21 24  1  6  0  0  0
 21 23  1  0  0  0  0
 21 20  1  0  0  0  0
 22 23  1  0  0  0  0
 25 27  1  6  0  0  0
 25 28  1  0  0  0  0
 26 31  1  1  0  0  0
 26 29  1  0  0  0  0
 26 25  1  0  0  0  0
 28 30  1  0  0  0  0
 29 30  1  0  0  0  0
 30 24  1  0  0  0  0
M  END
>  <MODEL>
1

>  <REMARK>
 VINA RESULT:      -8.2      0.000      0.000
  Name = 
  8 active torsions:
  status: ('A' for Active; 'I' for Inactive)
    1  A    between atoms: C_3  and  C_9
    2  A    between atoms: C_3  and  N_22
    3  A    between atoms: C_4  and  C_12
    4  A    between atoms: C_9  and  C_15
    5  A    between atoms: C_9  and  O_23
    6  A    between atoms: C_12  and  C_20
    7  A    between atoms: C_12  and  C_27
    8  A    between atoms: C_15  and  C_20
                            x       y       z     vdW  Elec       q    Type
                         _______ _______ _______ _____ _____    ______ ____

>  <TORSDO>
F 8

$$$$
=
 OpenBabel10272400193D

 31 34  0  0  1  0  0  0  0  0999 V2000
  185.7190  178.1540  141.8170 C   0  0  1  0  0  3  0  0  0  0  0  0
  185.3160  178.1780  143.3050 C   0  0  1  0  0  3  0  0  0  0  0  0
  186.4350  177.6920  144.2090 C   0  0  0  0  0  0  0  0  0  0  0  0
  188.6920  176.8090  143.7340 C   0  0  0  0  0  3  0  0  0  0  0  0
  187.2350  176.4980  143.7850 C   0  0  0  0  0  2  0  0  0  0  0  0
  185.5870  179.1280  145.8930 O   0  0  0  0  0  0  0  0  0  0  0  0
  189.3900  177.1580  144.8110 C   0  0  0  0  0  3  0  0  0  0  0  0
  184.8330  179.5050  143.6990 N   0  0  0  0  0  2  0  0  0  0  0  0
  188.8150  177.3660  146.1530 C   0  0  0  0  0  3  0  0  0  0  0  0
  184.4460  179.4510  145.1030 C   0  0  0  0  0  2  0  0  0  0  0  0
  186.5290  178.1880  145.4610 C   0  0  0  0  0  0  0  0  0  0  0  0
  187.5790  177.8000  146.4280 C   0  0  0  0  0  3  0  0  0  0  0  0
  182.8130  179.3100  140.0090 N   0  0  0  0  0  0  0  0  0  0  0  0
  182.3590  178.1110  140.6990 C   0  0  0  0  0  2  0  0  0  0  0  0
  182.3940  179.1850  138.6240 C   0  0  0  0  0  1  0  0  0  0  0  0
  184.2530  179.2100  140.0250 C   0  0  0  0  0  2  0  0  0  0  0  0
  184.5680  177.9680  140.8200 C   0  0  2  0  0  3  0  0  0  0  0  0
  183.3990  177.5920  141.4860 O   0  0  0  0  0  0  0  0  0  0  0  0
  186.7600  179.1940  141.3830 C   0  0  0  0  0  2  0  0  0  0  0  0
  188.1150  178.5790  141.0420 C   0  0  0  0  0  2  0  0  0  0  0  0
  188.1340  177.9960  139.6310 C   0  0  1  0  0  3  0  0  0  0  0  0
  186.8880  177.8620  137.8050 C   0  0  0  0  0  1  0  0  0  0  0  0
  187.3320  178.7600  138.7780 O   0  0  0  0  0  0  0  0  0  0  0  0
  189.5530  177.9150  139.0770 C   0  0  0  0  0  2  0  0  0  0  0  0
  192.2070  176.7160  138.2810 C   0  0  2  0  0  3  0  0  0  0  0  0
  191.6410  175.6500  137.3840 C   0  0  2  0  0  3  0  0  0  0  0  0
  193.5690  176.5170  138.5190 O   0  0  0  0  0  1  0  0  0  0  0  0
  191.4690  176.6790  139.5320 N   0  0  0  0  0  2  0  0  0  0  0  0
  189.8700  175.7140  137.6980 S   0  0  0  0  0  0  0  0  0  0  0  0
  190.0910  176.5690  139.2430 N   0  0  0  0  0  0  0  0  0  0  0  0
  192.1380  174.3370  137.7610 N   0  0  0  0  0  1  0  0  0  0  0  0
  1 19  1  6  0  0  0
  2  1  1  6  0  0  0
  2  8  1  0  0  0  0
  2  3  1  0  0  0  0
  3 11  2  0  0  0  0
  4  5  1  0  0  0  0
  4  7  2  0  0  0  0
  5  3  1  0  0  0  0
  7  9  1  0  0  0  0
  8 10  1  0  0  0  0
  9 12  2  0  0  0  0
 10  6  1  0  0  0  0
 11  6  1  0  0  0  0
 11 12  1  0  0  0  0
 13 16  1  0  0  0  0
 13 14  1  0  0  0  0
 14 18  1  0  0  0  0
 15 13  1  0  0  0  0
 16 17  1  0  0  0  0
 17 18  1  0  0  0  0
 17  1  1  1  0  0  0
 20 19  1  0  0  0  0
 21 24  1  6  0  0  0
 21 20  1  0  0  0  0
 22 23  1  0  0  0  0
 23 21  1  0  0  0  0
 24 30  1  0  0  0  0
 25 27  1  1  0  0  0
 25 28  1  0  0  0  0
 26 29  1  0  0  0  0
 26 31  1  1  0  0  0
 26 25  1  0  0  0  0
 29 30  1  0  0  0  0
 30 28  1  0  0  0  0
M  END
>  <MODEL>
2

>  <REMARK>
 VINA RESULT:      -7.9      2.639      5.759
  Name = 
  8 active torsions:
  status: ('A' for Active; 'I' for Inactive)
    1  A    between atoms: C_3  and  C_9
    2  A    between atoms: C_3  and  N_22
    3  A    between atoms: C_4  and  C_12
    4  A    between atoms: C_9  and  C_15
    5  A    between atoms: C_9  and  O_23
    6  A    between atoms: C_12  and  C_20
    7  A    between atoms: C_12  and  C_27
    8  A    between atoms: C_15  and  C_20
                            x       y       z     vdW  Elec       q    Type
                         _______ _______ _______ _____ _____    ______ ____

>  <TORSDO>
F 8

$$$$
=
 OpenBabel10272400193D

 31 34  0  0  1  0  0  0  0  0999 V2000
  188.4100  178.1020  142.5000 C   0  0  1  0  0  3  0  0  0  0  0  0
  186.8860  177.9120  142.3610 C   0  0  1  0  0  3  0  0  0  0  0  0
  186.1790  177.9600  143.7040 C   0  0  0  0  0  0  0  0  0  0  0  0
  187.0140  178.1920  146.0170 C   0  0  0  0  0  3  0  0  0  0  0  0
  186.8040  177.2610  144.8720 C   0  0  0  0  0  2  0  0  0  0  0  0
  184.2810  178.8280  142.5800 O   0  0  0  0  0  0  0  0  0  0  0  0
  186.0080  178.7950  146.6460 C   0  0  0  0  0  3  0  0  0  0  0  0
  186.3180  178.8720  141.4100 N   0  0  0  0  0  2  0  0  0  0  0  0
  184.5910  178.6950  146.2520 C   0  0  0  0  0  3  0  0  0  0  0  0
  184.8870  178.6210  141.3080 C   0  0  0  0  0  2  0  0  0  0  0  0
  184.9100  178.4180  143.7610 C   0  0  0  0  0  0  0  0  0  0  0  0
  184.1230  178.5230  145.0090 C   0  0  0  0  0  3  0  0  0  0  0  0
  191.3410  176.7450  144.1170 N   0  0  0  0  0  0  0  0  0  0  0  0
  190.6890  175.5900  143.5170 C   0  0  0  0  0  2  0  0  0  0  0  0
  191.6390  176.3950  145.4940 C   0  0  0  0  0  1  0  0  0  0  0  0
  190.3140  177.7600  144.1520 C   0  0  0  0  0  2  0  0  0  0  0  0
  189.1130  177.1490  143.4750 C   0  0  2  0  0  3  0  0  0  0  0  0
  189.5500  176.0010  142.8080 O   0  0  0  0  0  0  0  0  0  0  0  0
  189.1800  178.3440  141.1960 C   0  0  0  0  0  2  0  0  0  0  0  0
  189.1430  177.1500  140.2470 C   0  0  0  0  0  2  0  0  0  0  0  0
  188.7260  177.5600  138.8360 C   0  0  1  0  0  3  0  0  0  0  0  0
  189.0230  179.0930  137.2650 C   0  0  0  0  0  1  0  0  0  0  0  0
  188.9240  178.9300  138.6490 O   0  0  0  0  0  0  0  0  0  0  0  0
  189.4910  176.7740  137.7760 C   0  0  0  0  0  2  0  0  0  0  0  0
  192.4300  176.3770  137.2150 C   0  0  2  0  0  3  0  0  0  0  0  0
  192.3370  174.9120  136.8880 C   0  0  2  0  0  3  0  0  0  0  0  0
  193.7580  176.7900  137.3490 O   0  0  0  0  0  1  0  0  0  0  0  0
  191.7080  176.6010  138.4550 N   0  0  0  0  0  2  0  0  0  0  0  0
  190.6570  174.4700  137.3580 S   0  0  0  0  0  0  0  0  0  0  0  0
  190.4820  175.9030  138.3980 N   0  0  0  0  0  0  0  0  0  0  0  0
  193.2690  174.1400  137.6950 N   0  0  0  0  0  1  0  0  0  0  0  0
  1 19  1  6  0  0  0
  2  1  1  1  0  0  0
  2  3  1  0  0  0  0
  3 11  2  0  0  0  0
  3  5  1  0  0  0  0
  4  7  2  0  0  0  0
  5  4  1  0  0  0  0
  6 11  1  0  0  0  0
  8  2  1  0  0  0  0
  9  7  1  0  0  0  0
 10  8  1  0  0  0  0
 10  6  1  0  0  0  0
 11 12  1  0  0  0  0
 12  9  2  0  0  0  0
 13 16  1  0  0  0  0
 13 15  1  0  0  0  0
 14 13  1  0  0  0  0
 17  1  1  6  0  0  0
 17 16  1  0  0  0  0
 18 17  1  0  0  0  0
 18 14  1  0  0  0  0
 20 19  1  0  0  0  0
 21 24  1  6  0  0  0
 21 20  1  0  0  0  0
 22 23  1  0  0  0  0
 23 21  1  0  0  0  0
 24 30  1  0  0  0  0
 25 27  1  1  0  0  0
 25 28  1  0  0  0  0
 26 25  1  0  0  0  0
 26 29  1  0  0  0  0
 26 31  1  1  0  0  0
 29 30  1  0  0  0  0
 30 28  1  0  0  0  0
M  END
>  <MODEL>
3

>  <REMARK>
 VINA RESULT:      -7.8      2.809      4.271
  Name = 
  8 active torsions:
  status: ('A' for Active; 'I' for Inactive)
    1  A    between atoms: C_3  and  C_9
    2  A    between atoms: C_3  and  N_22
    3  A    between atoms: C_4  and  C_12
    4  A    between atoms: C_9  and  C_15
    5  A    between atoms: C_9  and  O_23
    6  A    between atoms: C_12  and  C_20
    7  A    between atoms: C_12  and  C_27
    8  A    between atoms: C_15  and  C_20
                            x       y       z     vdW  Elec       q    Type
                         _______ _______ _______ _____ _____    ______ ____

>  <TORSDO>
F 8

$$$$
=
 OpenBabel10272400193D

 31 34  0  0  1  0  0  0  0  0999 V2000
  185.6550  178.1960  142.1460 C   0  0  1  0  0  3  0  0  0  0  0  0
  185.4770  178.0920  143.6740 C   0  0  1  0  0  3  0  0  0  0  0  0
  186.7310  177.5860  144.3640 C   0  0  0  0  0  0  0  0  0  0  0  0
  188.9190  176.8340  143.4970 C   0  0  0  0  0  3  0  0  0  0  0  0
  187.4950  176.4610  143.7340 C   0  0  0  0  0  2  0  0  0  0  0  0
  186.1000  178.8560  146.2630 O   0  0  0  0  0  0  0  0  0  0  0  0
  189.7580  177.1310  144.4860 C   0  0  0  0  0  3  0  0  0  0  0  0
  185.0180  179.3640  144.2390 N   0  0  0  0  0  2  0  0  0  0  0  0
  189.3820  177.2140  145.9090 C   0  0  0  0  0  3  0  0  0  0  0  0
  184.8450  179.1900  145.6760 C   0  0  0  0  0  2  0  0  0  0  0  0
  186.9940  177.9900  145.6240 C   0  0  0  0  0  0  0  0  0  0  0  0
  188.1870  177.5750  146.3950 C   0  0  0  0  0  3  0  0  0  0  0  0
  183.2800  178.2600  139.4250 N   0  0  0  0  0  0  0  0  0  0  0  0
  183.9400  179.5560  139.3620 C   0  0  0  0  0  2  0  0  0  0  0  0
  181.8510  178.5100  139.3640 C   0  0  0  0  0  1  0  0  0  0  0  0
  183.5680  177.7740  140.7540 C   0  0  0  0  0  2  0  0  0  0  0  0
  184.4750  178.8050  141.3790 C   0  0  2  0  0  3  0  0  0  0  0  0
  184.9340  179.6330  140.3510 O   0  0  0  0  0  0  0  0  0  0  0  0
  187.0300  178.6690  141.6580 C   0  0  0  0  0  2  0  0  0  0  0  0
  187.4190  178.0860  140.3030 C   0  0  0  0  0  2  0  0  0  0  0  0
  188.9120  178.2460  140.0240 C   0  0  1  0  0  3  0  0  0  0  0  0
  190.9600  177.4340  140.2480 C   0  0  0  0  0  1  0  0  0  0  0  0
  189.6220  177.1560  140.5340 O   0  0  0  0  0  0  0  0  0  0  0  0
  189.1900  178.3960  138.5320 C   0  0  0  0  0  2  0  0  0  0  0  0
  189.6410  176.9550  135.9180 C   0  0  2  0  0  3  0  0  0  0  0  0
  188.5060  177.6050  135.1760 C   0  0  2  0  0  3  0  0  0  0  0  0
  190.1780  175.8830  135.2000 O   0  0  0  0  0  1  0  0  0  0  0  0
  189.1280  176.4940  137.1970 N   0  0  0  0  0  2  0  0  0  0  0  0
  187.6000  178.4850  136.4570 S   0  0  0  0  0  0  0  0  0  0  0  0
  188.3260  177.5120  137.7570 N   0  0  0  0  0  0  0  0  0  0  0  0
  187.6320  176.6040  134.5850 N   0  0  0  0  0  1  0  0  0  0  0  0
  1 19  1  1  0  0  0
  2  1  1  6  0  0  0
  2  8  1  0  0  0  0
  2  3  1  0  0  0  0
  3 11  2  0  0  0  0
  4  5  1  0  0  0  0
  4  7  2  0  0  0  0
  5  3  1  0  0  0  0
  7  9  1  0  0  0  0
  8 10  1  0  0  0  0
  9 12  2  0  0  0  0
 10  6  1  0  0  0  0
 11  6  1  0  0  0  0
 11 12  1  0  0  0  0
 13 16  1  0  0  0  0
 14 13  1  0  0  0  0
 14 18  1  0  0  0  0
 15 13  1  0  0  0  0
 16 17  1  0  0  0  0
 17  1  1  6  0  0  0
 18 17  1  0  0  0  0
 20 19  1  0  0  0  0
 21 24  1  6  0  0  0
 21 20  1  0  0  0  0
 21 23  1  0  0  0  0
 22 23  1  0  0  0  0
 25 27  1  6  0  0  0
 25 28  1  0  0  0  0
 26 31  1  1  0  0  0
 26 25  1  0  0  0  0
 26 29  1  0  0  0  0
 28 30  1  0  0  0  0
 29 30  1  0  0  0  0
 30 24  1  0  0  0  0
M  END
>  <MODEL>
4

>  <REMARK>
 VINA RESULT:      -7.6      2.342      5.344
  Name = 
  8 active torsions:
  status: ('A' for Active; 'I' for Inactive)
    1  A    between atoms: C_3  and  C_9
    2  A    between atoms: C_3  and  N_22
    3  A    between atoms: C_4  and  C_12
    4  A    between atoms: C_9  and  C_15
    5  A    between atoms: C_9  and  O_23
    6  A    between atoms: C_12  and  C_20
    7  A    between atoms: C_12  and  C_27
    8  A    between atoms: C_15  and  C_20
                            x       y       z     vdW  Elec       q    Type
                         _______ _______ _______ _____ _____    ______ ____

>  <TORSDO>
F 8

$$$$
=
 OpenBabel10272400193D

 31 34  0  0  1  0  0  0  0  0999 V2000
  188.3000  178.2240  142.6130 C   0  0  1  0  0  3  0  0  0  0  0  0
  186.7780  178.0030  142.5110 C   0  0  1  0  0  3  0  0  0  0  0  0
  186.1050  178.0110  143.8720 C   0  0  0  0  0  0  0  0  0  0  0  0
  186.9960  178.2200  146.1660 C   0  0  0  0  0  3  0  0  0  0  0  0
  186.7760  177.3050  145.0100 C   0  0  0  0  0  2  0  0  0  0  0  0
  184.1600  178.8570  142.8140 O   0  0  0  0  0  0  0  0  0  0  0  0
  185.9950  178.7890  146.8320 C   0  0  0  0  0  3  0  0  0  0  0  0
  186.1640  178.9670  141.5930 N   0  0  0  0  0  2  0  0  0  0  0  0
  184.5700  178.6640  146.4730 C   0  0  0  0  0  3  0  0  0  0  0  0
  184.7360  178.6860  141.5230 C   0  0  0  0  0  2  0  0  0  0  0  0
  184.8290  178.4400  143.9700 C   0  0  0  0  0  0  0  0  0  0  0  0
  184.0730  178.5050  145.2400 C   0  0  0  0  0  3  0  0  0  0  0  0
  191.3020  176.9210  144.1420 N   0  0  0  0  0  0  0  0  0  0  0  0
  190.7440  175.7900  143.4140 C   0  0  0  0  0  2  0  0  0  0  0  0
  191.6070  176.4530  145.4820 C   0  0  0  0  0  1  0  0  0  0  0  0
  190.2030  177.8500  144.2590 C   0  0  0  0  0  2  0  0  0  0  0  0
  189.0580  177.2280  143.4990 C   0  0  2  0  0  3  0  0  0  0  0  0
  189.5870  176.1900  142.7280 O   0  0  0  0  0  0  0  0  0  0  0  0
  189.0200  178.5720  141.3040 C   0  0  0  0  0  2  0  0  0  0  0  0
  188.7460  177.5720  140.1850 C   0  0  0  0  0  2  0  0  0  0  0  0
  189.9550  177.4020  139.2670 C   0  0  1  0  0  3  0  0  0  0  0  0
  191.3980  175.9720  138.3860 C   0  0  0  0  0  1  0  0  0  0  0  0
  190.5670  176.1660  139.4910 O   0  0  0  0  0  0  0  0  0  0  0  0
  189.5650  177.5320  137.7980 C   0  0  0  0  0  2  0  0  0  0  0  0
  187.9540  176.3210  135.5500 C   0  0  2  0  0  3  0  0  0  0  0  0
  187.1540  177.5560  135.2410 C   0  0  2  0  0  3  0  0  0  0  0  0
  187.4480  175.2010  134.8860 O   0  0  0  0  0  1  0  0  0  0  0  0
  187.9100  176.1140  136.9870 N   0  0  0  0  0  2  0  0  0  0  0  0
  187.5440  178.6750  136.5950 S   0  0  0  0  0  0  0  0  0  0  0  0
  188.1270  177.3520  137.6310 N   0  0  0  0  0  0  0  0  0  0  0  0
  185.7280  177.2700  135.2620 N   0  0  0  0  0  1  0  0  0  0  0  0
  1 19  1  6  0  0  0
  2  1  1  1  0  0  0
  2  3  1  0  0  0  0
  3 11  2  0  0  0  0
  3  5  1  0  0  0  0
  4  7  2  0  0  0  0
  5  4  1  0  0  0  0
  6 11  1  0  0  0  0
  8  2  1  0  0  0  0
  9  7  1  0  0  0  0
 10  8  1  0  0  0  0
 10  6  1  0  0  0  0
 11 12  1  0  0  0  0
 12  9  2  0  0  0  0
 13 16  1  0  0  0  0
 13 15  1  0  0  0  0
 14 13  1  0  0  0  0
 17  1  1  6  0  0  0
 17 16  1  0  0  0  0
 18 14  1  0  0  0  0
 18 17  1  0  0  0  0
 20 19  1  0  0  0  0
 21 24  1  6  0  0  0
 21 23  1  0  0  0  0
 21 20  1  0  0  0  0
 22 23  1  0  0  0  0
 25 27  1  6  0  0  0
 25 28  1  0  0  0  0
 26 31  1  1  0  0  0
 26 25  1  0  0  0  0
 26 29  1  0  0  0  0
 28 30  1  0  0  0  0
 29 30  1  0  0  0  0
 30 24  1  0  0  0  0
M  END
>  <MODEL>
5

>  <REMARK>
 VINA RESULT:      -7.4      2.376      3.561
  Name = 
  8 active torsions:
  status: ('A' for Active; 'I' for Inactive)
    1  A    between atoms: C_3  and  C_9
    2  A    between atoms: C_3  and  N_22
    3  A    between atoms: C_4  and  C_12
    4  A    between atoms: C_9  and  C_15
    5  A    between atoms: C_9  and  O_23
    6  A    between atoms: C_12  and  C_20
    7  A    between atoms: C_12  and  C_27
    8  A    between atoms: C_15  and  C_20
                            x       y       z     vdW  Elec       q    Type
                         _______ _______ _______ _____ _____    ______ ____

>  <TORSDO>
F 8

$$$$
=
 OpenBabel10272400193D

 31 34  0  0  1  0  0  0  0  0999 V2000
  186.9740  178.0910  143.3830 C   0  0  1  0  0  3  0  0  0  0  0  0
  186.1240  177.9290  144.6580 C   0  0  1  0  0  3  0  0  0  0  0  0
  186.9810  177.7820  145.9030 C   0  0  0  0  0  0  0  0  0  0  0  0
  189.4260  177.6670  146.2350 C   0  0  0  0  0  3  0  0  0  0  0  0
  188.2020  176.9150  145.8380 C   0  0  0  0  0  2  0  0  0  0  0  0
  185.2330  178.8130  147.1280 O   0  0  0  0  0  0  0  0  0  0  0  0
  189.5920  178.1740  147.4540 C   0  0  0  0  0  3  0  0  0  0  0  0
  185.1550  179.0210  144.7890 N   0  0  0  0  0  2  0  0  0  0  0  0
  188.5790  178.1380  148.5240 C   0  0  0  0  0  3  0  0  0  0  0  0
  184.3700  178.7930  145.9960 C   0  0  0  0  0  2  0  0  0  0  0  0
  186.5050  178.2310  147.0830 C   0  0  0  0  0  0  0  0  0  0  0  0
  187.2500  178.1530  148.3600 C   0  0  0  0  0  3  0  0  0  0  0  0
  190.2630  177.4800  142.0210 N   0  0  0  0  0  0  0  0  0  0  0  0
  189.7800  176.1630  142.4100 C   0  0  0  0  0  2  0  0  0  0  0  0
  191.6020  177.6170  142.5670 C   0  0  0  0  0  1  0  0  0  0  0  0
  189.4170  178.4000  142.7420 C   0  0  0  0  0  2  0  0  0  0  0  0
  188.4060  177.5460  143.4650 C   0  0  2  0  0  3  0  0  0  0  0  0
  188.4740  176.2640  142.9130 O   0  0  0  0  0  0  0  0  0  0  0  0
  186.2650  177.7910  142.0570 C   0  0  0  0  0  2  0  0  0  0  0  0
  186.0660  179.0300  141.1890 C   0  0  0  0  0  2  0  0  0  0  0  0
  185.0620  178.7810  140.0660 C   0  0  1  0  0  3  0  0  0  0  0  0
  183.2650  179.7010  139.1560 C   0  0  0  0  0  1  0  0  0  0  0  0
  184.5630  179.9920  139.5810 O   0  0  0  0  0  0  0  0  0  0  0  0
  185.6830  177.9800  138.9260 C   0  0  0  0  0  2  0  0  0  0  0  0
  187.3340  177.6880  136.4150 C   0  0  2  0  0  3  0  0  0  0  0  0
  188.5420  177.0910  137.0840 C   0  0  2  0  0  3  0  0  0  0  0  0
  187.6020  178.0430  135.0910 O   0  0  0  0  0  1  0  0  0  0  0  0
  186.9390  178.8600  137.1780 N   0  0  0  0  0  2  0  0  0  0  0  0
  188.2030  177.2820  138.8400 S   0  0  0  0  0  0  0  0  0  0  0  0
  186.9780  178.5400  138.5530 N   0  0  0  0  0  0  0  0  0  0  0  0
  189.7420  177.8420  136.7520 N   0  0  0  0  0  1  0  0  0  0  0  0
  1 19  1  6  0  0  0
  2  1  1  6  0  0  0
  2  8  1  0  0  0  0
  2  3  1  0  0  0  0
  3 11  2  0  0  0  0
  4  7  2  0  0  0  0
  5  3  1  0  0  0  0
  5  4  1  0  0  0  0
  7  9  1  0  0  0  0
  8 10  1  0  0  0  0
 10  6  1  0  0  0  0
 11  6  1  0  0  0  0
 11 12  1  0  0  0  0
 12  9  2  0  0  0  0
 13 14  1  0  0  0  0
 13 15  1  0  0  0  0
 13 16  1  0  0  0  0
 14 18  1  0  0  0  0
 16 17  1  0  0  0  0
 17  1  1  6  0  0  0
 18 17  1  0  0  0  0
 20 19  1  0  0  0  0
 21 24  1  6  0  0  0
 21 20  1  0  0  0  0
 22 23  1  0  0  0  0
 23 21  1  0  0  0  0
 25 27  1  6  0  0  0
 25 26  1  0  0  0  0
 25 28  1  0  0  0  0
 26 31  1  6  0  0  0
 26 29  1  0  0  0  0
 28 30  1  0  0  0  0
 30 29  1  0  0  0  0
 30 24  1  0  0  0  0
M  END
>  <MODEL>
6

>  <REMARK>
 VINA RESULT:      -7.0      2.023      4.412
  Name = 
  8 active torsions:
  status: ('A' for Active; 'I' for Inactive)
    1  A    between atoms: C_3  and  C_9
    2  A    between atoms: C_3  and  N_22
    3  A    between atoms: C_4  and  C_12
    4  A    between atoms: C_9  and  C_15
    5  A    between atoms: C_9  and  O_23
    6  A    between atoms: C_12  and  C_20
    7  A    between atoms: C_12  and  C_27
    8  A    between atoms: C_15  and  C_20
                            x       y       z     vdW  Elec       q    Type
                         _______ _______ _______ _____ _____    ______ ____

>  <TORSDO>
F 8

$$$$
=
 OpenBabel10272400193D

 31 34  0  0  1  0  0  0  0  0999 V2000
  185.3310  178.2790  139.3340 C   0  0  1  0  0  3  0  0  0  0  0  0
  184.1550  178.9750  138.6200 C   0  0  1  0  0  3  0  0  0  0  0  0
  182.9160  178.0990  138.5700 C   0  0  0  0  0  0  0  0  0  0  0  0
  182.4820  175.7870  139.3260 C   0  0  0  0  0  3  0  0  0  0  0  0
  183.0770  176.6420  138.2590 C   0  0  0  0  0  2  0  0  0  0  0  0
  181.6140  180.0790  138.6080 O   0  0  0  0  0  0  0  0  0  0  0  0
  181.1830  175.7990  139.6130 C   0  0  0  0  0  3  0  0  0  0  0  0
  183.8750  180.2830  139.2180 N   0  0  0  0  0  2  0  0  0  0  0  0
  180.1930  176.6980  138.9920 C   0  0  0  0  0  3  0  0  0  0  0  0
  182.7750  180.8950  138.4830 C   0  0  0  0  0  2  0  0  0  0  0  0
  181.6990  178.6830  138.5710 C   0  0  0  0  0  0  0  0  0  0  0  0
  180.4220  177.9370  138.5360 C   0  0  0  0  0  3  0  0  0  0  0  0
  188.7470  178.7270  138.2480 N   0  0  0  0  0  0  0  0  0  0  0  0
  187.9550  178.8940  137.0370 C   0  0  0  0  0  2  0  0  0  0  0  0
  189.8150  177.7950  137.9290 C   0  0  0  0  0  1  0  0  0  0  0  0
  187.8600  178.0540  139.1670 C   0  0  0  0  0  2  0  0  0  0  0  0
  186.5380  177.9390  138.4500 C   0  0  2  0  0  3  0  0  0  0  0  0
  186.5900  178.7910  137.3440 O   0  0  0  0  0  0  0  0  0  0  0  0
  185.7030  178.8300  140.7160 C   0  0  0  0  0  2  0  0  0  0  0  0
  184.9240  178.1750  141.8520 C   0  0  0  0  0  2  0  0  0  0  0  0
  185.5720  178.4390  143.2100 C   0  0  1  0  0  3  0  0  0  0  0  0
  183.4160  178.7990  143.5660 C   0  0  0  0  0  1  0  0  0  0  0  0
  184.6030  178.4570  144.2160 O   0  0  0  0  0  0  0  0  0  0  0  0
  186.6390  177.3980  143.5330 C   0  0  0  0  0  2  0  0  0  0  0  0
  189.4160  176.3280  143.0270 C   0  0  2  0  0  3  0  0  0  0  0  0
  189.9330  176.5530  144.4220 C   0  0  2  0  0  3  0  0  0  0  0  0
  190.4470  175.9970  142.1450 O   0  0  0  0  0  1  0  0  0  0  0  0
  188.7610  177.5510  142.5960 N   0  0  0  0  0  2  0  0  0  0  0  0
  188.6420  177.5270  145.2100 S   0  0  0  0  0  0  0  0  0  0  0  0
  187.9500  178.0270  143.6490 N   0  0  0  0  0  0  0  0  0  0  0  0
  191.1620  177.3290  144.4010 N   0  0  0  0  0  1  0  0  0  0  0  0
  1 19  1  1  0  0  0
  2  8  1  0  0  0  0
  2  1  1  1  0  0  0
  3 11  2  0  0  0  0
  3  2  1  0  0  0  0
  4  7  2  0  0  0  0
  5  3  1  0  0  0  0
  5  4  1  0  0  0  0
  9  7  1  0  0  0  0
 10  6  1  0  0  0  0
 10  8  1  0  0  0  0
 11  6  1  0  0  0  0
 12 11  1  0  0  0  0
 12  9  2  0  0  0  0
 13 16  1  0  0  0  0
 14 18  1  0  0  0  0
 14 13  1  0  0  0  0
 15 13  1  0  0  0  0
 17 16  1  0  0  0  0
 17  1  1  1  0  0  0
 18 17  1  0  0  0  0
 19 20  1  0  0  0  0
 21 20  1  6  0  0  0
 21 24  1  0  0  0  0
 21 23  1  0  0  0  0
 22 23  1  0  0  0  0
 24 30  1  0  0  0  0
 25 27  1  6  0  0  0
 25 26  1  0  0  0  0
 26 31  1  6  0  0  0
 26 29  1  0  0  0  0
 28 25  1  0  0  0  0
 28 30  1  0  0  0  0
 30 29  1  0  0  0  0
M  END
>  <MODEL>
7

>  <REMARK>
 VINA RESULT:      -6.9      3.101      6.886
  Name = 
  8 active torsions:
  status: ('A' for Active; 'I' for Inactive)
    1  A    between atoms: C_3  and  C_9
    2  A    between atoms: C_3  and  N_22
    3  A    between atoms: C_4  and  C_12
    4  A    between atoms: C_9  and  C_15
    5  A    between atoms: C_9  and  O_23
    6  A    between atoms: C_12  and  C_20
    7  A    between atoms: C_12  and  C_27
    8  A    between atoms: C_15  and  C_20
                            x       y       z     vdW  Elec       q    Type
                         _______ _______ _______ _____ _____    ______ ____

>  <TORSDO>
F 8

$$$$
=
 OpenBabel10272400193D

 31 34  0  0  1  0  0  0  0  0999 V2000
  190.2890  176.6690  138.8760 C   0  0  1  0  0  3  0  0  0  0  0  0
  189.6690  177.5940  137.8100 C   0  0  1  0  0  3  0  0  0  0  0  0
  188.4910  176.9460  137.1050 C   0  0  0  0  0  0  0  0  0  0  0  0
  187.4700  174.7040  137.2870 C   0  0  0  0  0  3  0  0  0  0  0  0
  188.5900  175.5030  136.7140 C   0  0  0  0  0  2  0  0  0  0  0  0
  187.5790  179.1150  136.8130 O   0  0  0  0  0  0  0  0  0  0  0  0
  186.1970  174.9210  136.9680 C   0  0  0  0  0  3  0  0  0  0  0  0
  189.3140  178.8960  138.3830 N   0  0  0  0  0  2  0  0  0  0  0  0
  185.7250  176.0100  136.0920 C   0  0  0  0  0  3  0  0  0  0  0  0
  188.7600  179.7260  137.3210 C   0  0  0  0  0  2  0  0  0  0  0  0
  187.4940  177.7290  136.6400 C   0  0  0  0  0  0  0  0  0  0  0  0
  186.2920  177.2140  135.9470 C   0  0  0  0  0  3  0  0  0  0  0  0
  192.5240  175.3250  136.3780 N   0  0  0  0  0  0  0  0  0  0  0  0
  192.1310  174.1700  137.1720 C   0  0  0  0  0  2  0  0  0  0  0  0
  193.9710  175.2850  136.2630 C   0  0  0  0  0  1  0  0  0  0  0  0
  192.1970  176.4600  137.2080 C   0  0  0  0  0  2  0  0  0  0  0  0
  191.5360  175.8910  138.4380 C   0  0  2  0  0  3  0  0  0  0  0  0
  191.2110  174.5620  138.1570 O   0  0  0  0  0  0  0  0  0  0  0  0
  190.3750  177.2400  140.2970 C   0  0  0  0  0  2  0  0  0  0  0  0
  189.1620  176.8930  141.1570 C   0  0  0  0  0  2  0  0  0  0  0  0
  189.5730  176.3950  142.5410 C   0  0  1  0  0  3  0  0  0  0  0  0
  191.3590  176.3460  143.8490 C   0  0  0  0  0  1  0  0  0  0  0  0
  190.5800  177.2050  143.0710 O   0  0  0  0  0  0  0  0  0  0  0  0
  188.3840  176.3510  143.4960 C   0  0  0  0  0  2  0  0  0  0  0  0
  187.1350  177.4220  146.0270 C   0  0  2  0  0  3  0  0  0  0  0  0
  185.8890  177.9600  145.3790 C   0  0  2  0  0  3  0  0  0  0  0  0
  187.2540  177.8560  147.3500 O   0  0  0  0  0  1  0  0  0  0  0  0
  188.2730  177.8780  145.2460 N   0  0  0  0  0  2  0  0  0  0  0  0
  186.2260  177.8250  143.6160 S   0  0  0  0  0  0  0  0  0  0  0  0
  187.9810  177.7010  143.8760 N   0  0  0  0  0  0  0  0  0  0  0  0
  185.6930  179.3610  145.7140 N   0  0  0  0  0  1  0  0  0  0  0  0
  1 19  1  1  0  0  0
  2  8  1  0  0  0  0
  2  1  1  1  0  0  0
  3  2  1  0  0  0  0
  5  3  1  0  0  0  0
  5  4  1  0  0  0  0
  6 10  1  0  0  0  0
  7  4  2  0  0  0  0
  9  7  1  0  0  0  0
 10  8  1  0  0  0  0
 11  6  1  0  0  0  0
 11  3  2  0  0  0  0
 12  9  2  0  0  0  0
 12 11  1  0  0  0  0
 13 14  1  0  0  0  0
 13 16  1  0  0  0  0
 14 18  1  0  0  0  0
 15 13  1  0  0  0  0
 16 17  1  0  0  0  0
 17  1  1  6  0  0  0
 18 17  1  0  0  0  0
 19 20  1  0  0  0  0
 21 20  1  6  0  0  0
 21 23  1  0  0  0  0
 21 24  1  0  0  0  0
 23 22  1  0  0  0  0
 24 30  1  0  0  0  0
 25 27  1  1  0  0  0
 26 31  1  1  0  0  0
 26 25  1  0  0  0  0
 28 25  1  0  0  0  0
 29 30  1  0  0  0  0
 29 26  1  0  0  0  0
 30 28  1  0  0  0  0
M  END
>  <MODEL>
8

>  <REMARK>
 VINA RESULT:      -6.7      3.201      7.767
  Name = 
  8 active torsions:
  status: ('A' for Active; 'I' for Inactive)
    1  A    between atoms: C_3  and  C_9
    2  A    between atoms: C_3  and  N_22
    3  A    between atoms: C_4  and  C_12
    4  A    between atoms: C_9  and  C_15
    5  A    between atoms: C_9  and  O_23
    6  A    between atoms: C_12  and  C_20
    7  A    between atoms: C_12  and  C_27
    8  A    between atoms: C_15  and  C_20
                            x       y       z     vdW  Elec       q    Type
                         _______ _______ _______ _____ _____    ______ ____

>  <TORSDO>
F 8

$$$$
=
 OpenBabel10272400193D

 31 34  0  0  1  0  0  0  0  0999 V2000
  190.3640  176.8060  138.4640 C   0  0  1  0  0  3  0  0  0  0  0  0
  190.5520  175.7420  137.3650 C   0  0  1  0  0  3  0  0  0  0  0  0
  191.9920  175.2700  137.2660 C   0  0  0  0  0  0  0  0  0  0  0  0
  194.0490  175.9440  138.4550 C   0  0  0  0  0  3  0  0  0  0  0  0
  193.0910  176.2840  137.3650 C   0  0  0  0  0  2  0  0  0  0  0  0
  191.1670  173.1720  136.5340 O   0  0  0  0  0  0  0  0  0  0  0  0
  194.7860  174.8370  138.4440 C   0  0  0  0  0  3  0  0  0  0  0  0
  189.6220  174.6240  137.5470 N   0  0  0  0  0  2  0  0  0  0  0  0
  194.6940  173.7780  137.4220 C   0  0  0  0  0  3  0  0  0  0  0  0
  189.8350  173.6710  136.4650 C   0  0  0  0  0  2  0  0  0  0  0  0
  192.2420  174.0070  136.8600 C   0  0  0  0  0  0  0  0  0  0  0  0
  193.5980  173.4300  136.7350 C   0  0  0  0  0  3  0  0  0  0  0  0
  187.0650  177.6710  137.2740 N   0  0  0  0  0  0  0  0  0  0  0  0
  187.9480  178.6300  136.6260 C   0  0  0  0  0  2  0  0  0  0  0  0
  185.9710  178.4300  137.8540 C   0  0  0  0  0  1  0  0  0  0  0  0
  187.8450  177.1490  138.3710 C   0  0  0  0  0  2  0  0  0  0  0  0
  189.2050  177.7880  138.2470 C   0  0  2  0  0  3  0  0  0  0  0  0
  189.2810  178.3610  136.9750 O   0  0  0  0  0  0  0  0  0  0  0  0
  190.5050  176.3150  139.9100 C   0  0  0  0  0  2  0  0  0  0  0  0
  191.0650  177.3760  140.8520 C   0  0  0  0  0  2  0  0  0  0  0  0
  190.1420  177.6200  142.0440 C   0  0  1  0  0  3  0  0  0  0  0  0
  188.0470  178.2760  141.7530 C   0  0  0  0  0  1  0  0  0  0  0  0
  188.8590  177.1400  141.7730 O   0  0  0  0  0  0  0  0  0  0  0  0
  190.6830  176.9720  143.3140 C   0  0  0  0  0  2  0  0  0  0  0  0
  191.3020  176.5920  146.2440 C   0  0  2  0  0  3  0  0  0  0  0  0
  189.8880  176.7490  146.7300 C   0  0  2  0  0  3  0  0  0  0  0  0
  192.2130  176.5990  147.3030 O   0  0  0  0  0  1  0  0  0  0  0  0
  191.5820  177.6890  145.3340 N   0  0  0  0  0  2  0  0  0  0  0  0
  188.9920  177.3210  145.2780 S   0  0  0  0  0  0  0  0  0  0  0  0
  190.4830  177.8480  144.4630 N   0  0  0  0  0  0  0  0  0  0  0  0
  189.8050  177.7680  147.7650 N   0  0  0  0  0  1  0  0  0  0  0  0
  1 19  1  1  0  0  0
  2  8  1  0  0  0  0
  2  1  1  1  0  0  0
  3  2  1  0  0  0  0
  3  5  1  0  0  0  0
  5  4  1  0  0  0  0
  6 11  1  0  0  0  0
  7  4  2  0  0  0  0
  9  7  1  0  0  0  0
 10  6  1  0  0  0  0
 10  8  1  0  0  0  0
 11  3  2  0  0  0  0
 12 11  1  0  0  0  0
 12  9  2  0  0  0  0
 13 15  1  0  0  0  0
 13 16  1  0  0  0  0
 14 18  1  0  0  0  0
 14 13  1  0  0  0  0
 17 16  1  0  0  0  0
 17  1  1  6  0  0  0
 18 17  1  0  0  0  0
 19 20  1  0  0  0  0
 21 20  1  6  0  0  0
 21 24  1  0  0  0  0
 22 23  1  0  0  0  0
 23 21  1  0  0  0  0
 24 30  1  0  0  0  0
 25 26  1  0  0  0  0
 25 27  1  1  0  0  0
 26 31  1  1  0  0  0
 28 25  1  0  0  0  0
 29 26  1  0  0  0  0
 30 29  1  0  0  0  0
 30 28  1  0  0  0  0
M  END
>  <MODEL>
9

>  <REMARK>
 VINA RESULT:      -6.7      3.977      9.367
  Name = 
  8 active torsions:
  status: ('A' for Active; 'I' for Inactive)
    1  A    between atoms: C_3  and  C_9
    2  A    between atoms: C_3  and  N_22
    3  A    between atoms: C_4  and  C_12
    4  A    between atoms: C_9  and  C_15
    5  A    between atoms: C_9  and  O_23
    6  A    between atoms: C_12  and  C_20
    7  A    between atoms: C_12  and  C_27
    8  A    between atoms: C_15  and  C_20
                            x       y       z     vdW  Elec       q    Type
                         _______ _______ _______ _____ _____    ______ ____

>  <TORSDO>
F 8

$$$$
