=
 OpenBabel10272414353D

 43 48  0  0  1  0  0  0  0  0999 V2000
  191.3110  176.7290  146.9380 C   0  0  0  0  0  0  0  0  0  0  0  0
  186.9810  177.8240  144.4260 C   0  0  0  0  0  0  0  0  0  0  0  0
  187.7990  178.1530  141.6860 C   0  0  0  0  0  0  0  0  0  0  0  0
  188.9070  177.2080  146.3490 C   0  0  0  0  0  0  0  0  0  0  0  0
  191.6460  176.8740  145.5150 C   0  0  0  0  0  3  0  0  0  0  0  0
  192.2260  176.4630  147.7610 O   0  0  0  0  0  0  0  0  0  0  0  0
  189.2940  177.3290  144.9980 C   0  0  0  0  0  0  0  0  0  0  0  0
  189.9030  176.8980  147.4350 C   0  0  0  0  0  2  0  0  0  0  0  0
  190.7090  177.1520  144.6140 C   0  0  0  0  0  3  0  0  0  0  0  0
  188.6660  177.7010  142.6010 C   0  0  0  0  0  3  0  0  0  0  0  0
  188.3170  177.6240  144.0320 C   0  0  0  0  0  0  0  0  0  0  0  0
  186.6430  177.6500  145.7730 C   0  0  0  0  0  3  0  0  0  0  0  0
  185.9140  178.0610  143.3740 C   0  0  2  0  0  3  0  0  0  0  0  0
  186.4760  178.7280  142.1080 C   0  0  0  0  0  2  0  0  0  0  0  0
  187.6010  177.3600  146.6920 N   0  0  0  0  0  0  0  0  0  0  0  0
  188.1910  178.2530  140.2410 C   0  0  2  0  0  3  0  0  0  0  0  0
  186.9610  178.1630  139.3590 C   0  0  0  0  0  1  0  0  0  0  0  0
  189.1220  177.1910  139.8800 N   0  0  0  0  0  2  0  0  0  0  0  0
  190.0550  177.3050  138.8040 C   0  0  0  0  0  0  0  0  0  0  0  0
  189.9610  178.2420  137.9670 O   0  0  0  0  0  0  0  0  0  0  0  0
  191.1990  176.3570  138.7300 C   0  0  0  0  0  2  0  0  0  0  0  0
  191.1070  175.5700  137.4340 C   0  0  2  0  0  3  0  0  0  0  0  0
  191.5780  173.3330  136.7720 O   0  0  0  0  0  0  0  0  0  0  0  0
  189.8170  174.8310  137.3540 C   0  0  0  0  0  2  0  0  0  0  0  0
  192.1300  174.4650  137.4000 C   0  0  1  0  0  3  0  0  0  0  0  0
  190.1980  173.5710  136.6190 C   0  0  0  0  0  2  0  0  0  0  0  0
  194.6650  174.4820  137.0980 N   0  0  0  0  0  0  0  0  0  0  0  0
  193.3640  174.9230  136.6790 C   0  0  0  0  0  0  0  0  0  0  0  0
  197.0620  172.9700  137.1110 C   0  0  0  0  0  2  0  0  0  0  0  0
  195.8250  172.4430  137.8550 C   0  0  0  0  0  2  0  0  0  0  0  0
  197.1370  174.4930  137.0880 C   0  0  0  0  0  2  0  0  0  0  0  0
  194.8030  173.5290  138.2020 C   0  0  0  0  0  2  0  0  0  0  0  0
  195.8600  175.0630  136.4770 C   0  0  0  0  0  2  0  0  0  0  0  0
  193.2530  175.7340  135.7190 O   0  0  0  0  0  0  0  0  0  0  0  0
  184.6780  178.8170  143.8900 C   0  0  0  0  0  2  0  0  0  0  0  0
  182.5530  178.1960  140.8060 C   0  0  0  0  0  3  0  0  0  0  0  0
  181.2750  178.5300  141.2680 C   0  0  0  0  0  0  0  0  0  0  0  0
  182.2130  179.0480  143.4460 C   0  0  0  0  0  3  0  0  0  0  0  0
  183.6570  178.2870  141.6590 C   0  0  0  0  0  3  0  0  0  0  0  0
  183.4900  178.7150  142.9800 C   0  0  0  0  0  0  0  0  0  0  0  0
  181.1090  178.9550  142.5930 C   0  0  0  0  0  3  0  0  0  0  0  0
  180.2550  177.8160  139.0590 C   0  0  0  0  0  1  0  0  0  0  0  0
  180.1620  178.4250  140.3770 N   0  0  0  0  0  2  0  0  0  0  0  0
  1  8  1  0  0  0  0
  1  6  2  0  0  0  0
  2 12  1  0  0  0  0
  3 14  1  0  0  0  0
  3 10  2  0  0  0  0
  4 15  1  0  0  0  0
  4  8  1  0  0  0  0
  5  1  1  0  0  0  0
  7  4  2  0  0  0  0
  9  7  1  0  0  0  0
  9  5  2  0  0  0  0
 10 11  1  0  0  0  0
 11  2  2  0  0  0  0
 11  7  1  0  0  0  0
 12 15  2  0  0  0  0
 13 35  1  1  0  0  0
 13  2  1  0  0  0  0
 14 13  1  0  0  0  0
 16 17  1  6  0  0  0
 16  3  1  0  0  0  0
 18 16  1  0  0  0  0
 19 18  1  0  0  0  0
 20 19  2  0  0  0  0
 21 19  1  0  0  0  0
 22 21  1  1  0  0  0
 23 25  1  0  0  0  0
 24 22  1  0  0  0  0
 25 28  1  6  0  0  0
 25 22  1  0  0  0  0
 26 23  1  0  0  0  0
 26 24  1  0  0  0  0
 27 32  1  0  0  0  0
 28 27  1  0  0  0  0
 29 30  1  0  0  0  0
 30 32  1  0  0  0  0
 31 29  1  0  0  0  0
 33 31  1  0  0  0  0
 33 27  1  0  0  0  0
 34 28  2  0  0  0  0
 36 37  2  0  0  0  0
 36 39  1  0  0  0  0
 37 41  1  0  0  0  0
 39 40  2  0  0  0  0
 40 38  1  0  0  0  0
 40 35  1  0  0  0  0
 41 38  2  0  0  0  0
 42 43  1  0  0  0  0
 43 37  1  0  0  0  0
M  END
>  <MODEL>
1

>  <REMARK>
 VINA RESULT:     -10.7      0.000      0.000
  Name = 
  8 active torsions:
  status: ('A' for Active; 'I' for Inactive)
    1  A    between atoms: C_1  and  C_34
    2  A    between atoms: C_1  and  C_35
    3  A    between atoms: C_2  and  N_6
    4  A    between atoms: C_2  and  C_13
    5  A    between atoms: C_3  and  C_4
    6  A    between atoms: C_3  and  C_12
    7  A    between atoms: C_14  and  C_22
    8  A    between atoms: C_19  and  N_37
                            x       y       z     vdW  Elec       q    Type
                         _______ _______ _______ _____ _____    ______ ____

>  <TORSDO>
F 8

$$$$
=
 OpenBabel10272414353D

 43 48  0  0  1  0  0  0  0  0999 V2000
  191.2270  176.7690  146.9270 C   0  0  0  0  0  0  0  0  0  0  0  0
  186.8860  177.9050  144.4510 C   0  0  0  0  0  0  0  0  0  0  0  0
  187.6780  178.1910  141.7000 C   0  0  0  0  0  0  0  0  0  0  0  0
  188.8230  177.2800  146.3600 C   0  0  0  0  0  0  0  0  0  0  0  0
  191.5480  176.8920  145.4990 C   0  0  0  0  0  3  0  0  0  0  0  0
  192.1450  176.4970  147.7430 O   0  0  0  0  0  0  0  0  0  0  0  0
  189.1980  177.3800  145.0040 C   0  0  0  0  0  0  0  0  0  0  0  0
  189.8260  176.9660  147.4380 C   0  0  0  0  0  2  0  0  0  0  0  0
  190.6040  177.1750  144.6050 C   0  0  0  0  0  3  0  0  0  0  0  0
  188.5480  177.7350  142.6090 C   0  0  0  0  0  3  0  0  0  0  0  0
  188.2140  177.6800  144.0450 C   0  0  0  0  0  0  0  0  0  0  0  0
  186.5610  177.7510  145.8040 C   0  0  0  0  0  3  0  0  0  0  0  0
  185.8110  178.1470  143.4080 C   0  0  2  0  0  3  0  0  0  0  0  0
  186.3690  178.7910  142.1290 C   0  0  0  0  0  2  0  0  0  0  0  0
  187.5240  177.4570  146.7160 N   0  0  0  0  0  0  0  0  0  0  0  0
  188.0560  178.2680  140.2490 C   0  0  2  0  0  3  0  0  0  0  0  0
  186.8120  178.4130  139.3930 C   0  0  0  0  0  1  0  0  0  0  0  0
  188.7890  177.0770  139.8370 N   0  0  0  0  0  2  0  0  0  0  0  0
  189.8290  177.1020  138.8590 C   0  0  0  0  0  0  0  0  0  0  0  0
  190.0080  178.1170  138.1350 O   0  0  0  0  0  0  0  0  0  0  0  0
  190.7630  175.9490  138.7620 C   0  0  0  0  0  2  0  0  0  0  0  0
  190.7110  175.3860  137.3520 C   0  0  2  0  0  3  0  0  0  0  0  0
  189.4130  175.8100  135.4030 O   0  0  0  0  0  0  0  0  0  0  0  0
  191.5310  176.2100  136.4230 C   0  0  0  0  0  2  0  0  0  0  0  0
  189.3250  175.5040  136.7750 C   0  0  1  0  0  3  0  0  0  0  0  0
  190.7580  176.1250  135.1300 C   0  0  0  0  0  2  0  0  0  0  0  0
  187.1370  174.2420  137.1400 N   0  0  0  0  0  0  0  0  0  0  0  0
  188.5650  174.2280  136.9860 C   0  0  0  0  0  0  0  0  0  0  0  0
  184.4030  173.9870  136.4380 C   0  0  0  0  0  2  0  0  0  0  0  0
  185.1340  175.3140  136.1840 C   0  0  0  0  0  2  0  0  0  0  0  0
  184.9370  173.2380  137.6550 C   0  0  0  0  0  2  0  0  0  0  0  0
  186.3940  175.4990  137.0360 C   0  0  0  0  0  2  0  0  0  0  0  0
  186.4370  173.0030  137.4980 C   0  0  0  0  0  2  0  0  0  0  0  0
  189.1960  173.1380  137.0650 O   0  0  0  0  0  0  0  0  0  0  0  0
  184.5940  178.9290  143.9300 C   0  0  0  0  0  2  0  0  0  0  0  0
  182.4000  178.4040  140.8760 C   0  0  0  0  0  3  0  0  0  0  0  0
  181.1190  178.5680  141.4130 C   0  0  0  0  0  0  0  0  0  0  0  0
  182.1000  178.9650  143.5970 C   0  0  0  0  0  3  0  0  0  0  0  0
  183.5280  178.5170  141.6950 C   0  0  0  0  0  3  0  0  0  0  0  0
  183.3810  178.8010  143.0570 C   0  0  0  0  0  0  0  0  0  0  0  0
  180.9730  178.8490  142.7790 C   0  0  0  0  0  3  0  0  0  0  0  0
  180.0050  177.6870  139.3130 C   0  0  0  0  0  1  0  0  0  0  0  0
  179.9820  178.4430  140.5550 N   0  0  0  0  0  2  0  0  0  0  0  0
  1  8  1  0  0  0  0
  1  6  2  0  0  0  0
  2 12  1  0  0  0  0
  3 14  1  0  0  0  0
  3 10  2  0  0  0  0
  4 15  1  0  0  0  0
  4  8  1  0  0  0  0
  5  1  1  0  0  0  0
  7  4  2  0  0  0  0
  9  7  1  0  0  0  0
  9  5  2  0  0  0  0
 10 11  1  0  0  0  0
 11  2  2  0  0  0  0
 11  7  1  0  0  0  0
 12 15  2  0  0  0  0
 13 35  1  1  0  0  0
 13  2  1  0  0  0  0
 14 13  1  0  0  0  0
 16 17  1  6  0  0  0
 16  3  1  0  0  0  0
 18 16  1  0  0  0  0
 19 18  1  0  0  0  0
 20 19  2  0  0  0  0
 21 19  1  0  0  0  0
 22 21  1  1  0  0  0
 23 25  1  0  0  0  0
 24 22  1  0  0  0  0
 25 28  1  6  0  0  0
 25 22  1  0  0  0  0
 26 23  1  0  0  0  0
 26 24  1  0  0  0  0
 27 33  1  0  0  0  0
 28 34  2  0  0  0  0
 28 27  1  0  0  0  0
 29 31  1  0  0  0  0
 30 29  1  0  0  0  0
 30 32  1  0  0  0  0
 32 27  1  0  0  0  0
 33 31  1  0  0  0  0
 36 37  2  0  0  0  0
 36 39  1  0  0  0  0
 37 41  1  0  0  0  0
 39 40  2  0  0  0  0
 40 38  1  0  0  0  0
 40 35  1  0  0  0  0
 41 38  2  0  0  0  0
 42 43  1  0  0  0  0
 43 37  1  0  0  0  0
M  END
>  <MODEL>
2

>  <REMARK>
 VINA RESULT:     -10.5      2.339      4.181
  Name = 
  8 active torsions:
  status: ('A' for Active; 'I' for Inactive)
    1  A    between atoms: C_1  and  C_34
    2  A    between atoms: C_1  and  C_35
    3  A    between atoms: C_2  and  N_6
    4  A    between atoms: C_2  and  C_13
    5  A    between atoms: C_3  and  C_4
    6  A    between atoms: C_3  and  C_12
    7  A    between atoms: C_14  and  C_22
    8  A    between atoms: C_19  and  N_37
                            x       y       z     vdW  Elec       q    Type
                         _______ _______ _______ _____ _____    ______ ____

>  <TORSDO>
F 8

$$$$
=
 OpenBabel10272414353D

 43 48  0  0  1  0  0  0  0  0999 V2000
  190.7550  176.8580  146.6280 C   0  0  0  0  0  0  0  0  0  0  0  0
  189.7310  177.6640  141.6710 C   0  0  0  0  0  0  0  0  0  0  0  0
  186.9960  178.5590  141.6350 C   0  0  0  0  0  0  0  0  0  0  0  0
  190.9180  177.0380  144.1180 C   0  0  0  0  0  0  0  0  0  0  0  0
  189.3760  177.3580  146.5330 C   0  0  0  0  0  3  0  0  0  0  0  0
  191.2320  176.5810  147.7580 O   0  0  0  0  0  0  0  0  0  0  0  0
  189.5920  177.5170  144.0970 C   0  0  0  0  0  0  0  0  0  0  0  0
  191.6060  176.6640  145.4040 C   0  0  0  0  0  2  0  0  0  0  0  0
  188.8370  177.6650  145.3570 C   0  0  0  0  0  3  0  0  0  0  0  0
  187.6420  178.4070  142.7980 C   0  0  0  0  0  3  0  0  0  0  0  0
  189.0040  177.8460  142.8620 C   0  0  0  0  0  0  0  0  0  0  0  0
  191.0570  177.2260  141.7520 C   0  0  0  0  0  3  0  0  0  0  0  0
  189.1260  178.0960  140.3490 C   0  0  2  0  0  3  0  0  0  0  0  0
  187.5900  178.0360  140.3580 C   0  0  0  0  0  2  0  0  0  0  0  0
  191.6100  176.9170  142.9540 N   0  0  0  0  0  0  0  0  0  0  0  0
  185.5970  179.1010  141.6010 C   0  0  2  0  0  3  0  0  0  0  0  0
  184.9400  178.9360  142.9580 C   0  0  0  0  0  1  0  0  0  0  0  0
  184.7970  178.4150  140.5920 N   0  0  0  0  0  2  0  0  0  0  0  0
  184.3770  179.0380  139.3770 C   0  0  0  0  0  0  0  0  0  0  0  0
  184.4820  180.2830  139.2210 O   0  0  0  0  0  0  0  0  0  0  0  0
  183.8950  178.1880  138.2550 C   0  0  0  0  0  2  0  0  0  0  0  0
  182.4570  177.7790  138.5250 C   0  0  2  0  0  3  0  0  0  0  0  0
  181.3850  176.1460  139.8830 O   0  0  0  0  0  0  0  0  0  0  0  0
  181.9320  178.4630  139.7390 C   0  0  0  0  0  2  0  0  0  0  0  0
  182.3710  176.3220  138.8940 C   0  0  1  0  0  3  0  0  0  0  0  0
  181.0090  177.4270  140.3320 C   0  0  0  0  0  2  0  0  0  0  0  0
  183.0610  174.6610  137.0830 N   0  0  0  0  0  0  0  0  0  0  0  0
  182.0580  175.4970  137.6810 C   0  0  0  0  0  0  0  0  0  0  0  0
  184.5010  172.3020  136.4560 C   0  0  0  0  0  2  0  0  0  0  0  0
  184.8570  173.0980  137.7210 C   0  0  0  0  0  2  0  0  0  0  0  0
  183.9810  173.1840  135.3250 C   0  0  0  0  0  2  0  0  0  0  0  0
  184.3920  174.5570  137.6850 C   0  0  0  0  0  2  0  0  0  0  0  0
  182.7760  173.9860  135.8110 C   0  0  0  0  0  2  0  0  0  0  0  0
  180.9100  175.5720  137.1620 O   0  0  0  0  0  0  0  0  0  0  0  0
  189.6970  177.3580  139.1260 C   0  0  0  0  0  2  0  0  0  0  0  0
  187.5490  178.5740  136.2410 C   0  0  0  0  0  3  0  0  0  0  0  0
  187.0460  177.3710  135.7330 C   0  0  0  0  0  0  0  0  0  0  0  0
  188.2740  176.1540  137.4360 C   0  0  0  0  0  3  0  0  0  0  0  0
  188.4130  178.5680  137.3400 C   0  0  0  0  0  3  0  0  0  0  0  0
  188.7750  177.3590  137.9420 C   0  0  0  0  0  0  0  0  0  0  0  0
  187.4130  176.1600  136.3350 C   0  0  0  0  0  3  0  0  0  0  0  0
  184.7810  176.9700  134.6650 C   0  0  0  0  0  1  0  0  0  0  0  0
  186.1680  177.4040  134.6050 N   0  0  0  0  0  2  0  0  0  0  0  0
  1  6  2  0  0  0  0
  2 12  2  0  0  0  0
  2 11  1  0  0  0  0
  3 10  2  0  0  0  0
  4  8  1  0  0  0  0
  5  1  1  0  0  0  0
  7  4  1  0  0  0  0
  7  9  1  0  0  0  0
  8  1  1  0  0  0  0
  9  5  2  0  0  0  0
 10 11  1  0  0  0  0
 11  7  2  0  0  0  0
 12 15  1  0  0  0  0
 13 35  1  6  0  0  0
 13 14  1  0  0  0  0
 13  2  1  0  0  0  0
 14  3  1  0  0  0  0
 15  4  2  0  0  0  0
 16  3  1  0  0  0  0
 16 17  1  1  0  0  0
 18 16  1  0  0  0  0
 19 18  1  0  0  0  0
 20 19  2  0  0  0  0
 21 19  1  0  0  0  0
 22 21  1  1  0  0  0
 22 25  1  0  0  0  0
 22 24  1  0  0  0  0
 23 26  1  0  0  0  0
 24 26  1  0  0  0  0
 25 28  1  6  0  0  0
 25 23  1  0  0  0  0
 27 28  1  0  0  0  0
 27 32  1  0  0  0  0
 29 30  1  0  0  0  0
 31 33  1  0  0  0  0
 31 29  1  0  0  0  0
 32 30  1  0  0  0  0
 33 27  1  0  0  0  0
 34 28  2  0  0  0  0
 36 39  1  0  0  0  0
 37 36  2  0  0  0  0
 37 41  1  0  0  0  0
 38 40  1  0  0  0  0
 39 40  2  0  0  0  0
 40 35  1  0  0  0  0
 41 38  2  0  0  0  0
 43 42  1  0  0  0  0
 43 37  1  0  0  0  0
M  END
>  <MODEL>
3

>  <REMARK>
 VINA RESULT:     -10.0      4.252      7.636
  Name = 
  8 active torsions:
  status: ('A' for Active; 'I' for Inactive)
    1  A    between atoms: C_1  and  C_34
    2  A    between atoms: C_1  and  C_35
    3  A    between atoms: C_2  and  N_6
    4  A    between atoms: C_2  and  C_13
    5  A    between atoms: C_3  and  C_4
    6  A    between atoms: C_3  and  C_12
    7  A    between atoms: C_14  and  C_22
    8  A    between atoms: C_19  and  N_37
                            x       y       z     vdW  Elec       q    Type
                         _______ _______ _______ _____ _____    ______ ____

>  <TORSDO>
F 8

$$$$
=
 OpenBabel10272414353D

 43 48  0  0  1  0  0  0  0  0999 V2000
  185.9560  177.2920  135.3640 C   0  0  0  0  0  0  0  0  0  0  0  0
  190.5510  176.4130  137.4570 C   0  0  0  0  0  0  0  0  0  0  0  0
  190.2530  177.2010  140.2090 C   0  0  0  0  0  0  0  0  0  0  0  0
  188.3670  176.6530  135.7370 C   0  0  0  0  0  0  0  0  0  0  0  0
  185.8690  177.6370  136.7890 C   0  0  0  0  0  3  0  0  0  0  0  0
  184.9400  177.4330  134.6340 O   0  0  0  0  0  0  0  0  0  0  0  0
  188.2160  176.9980  137.0950 C   0  0  0  0  0  0  0  0  0  0  0  0
  187.2320  176.7810  134.7550 C   0  0  0  0  0  2  0  0  0  0  0  0
  186.9190  177.4990  137.5940 C   0  0  0  0  0  3  0  0  0  0  0  0
  189.1860  177.1510  139.4010 C   0  0  0  0  0  3  0  0  0  0  0  0
  189.3150  176.8600  137.9610 C   0  0  0  0  0  0  0  0  0  0  0  0
  190.6340  176.0450  136.1100 C   0  0  0  0  0  3  0  0  0  0  0  0
  191.7120  176.1870  138.4060 C   0  0  2  0  0  3  0  0  0  0  0  0
  191.6420  177.0930  139.6460 C   0  0  0  0  0  2  0  0  0  0  0  0
  189.5600  176.1800  135.2890 N   0  0  0  0  0  0  0  0  0  0  0  0
  190.0970  177.5330  141.6640 C   0  0  2  0  0  3  0  0  0  0  0  0
  191.2970  177.0320  142.4450 C   0  0  0  0  0  1  0  0  0  0  0  0
  188.8840  176.9350  142.2080 N   0  0  0  0  0  2  0  0  0  0  0  0
  188.2930  177.3550  143.4390 C   0  0  0  0  0  0  0  0  0  0  0  0
  188.9200  178.1070  144.2310 O   0  0  0  0  0  0  0  0  0  0  0  0
  186.8880  176.9690  143.7390 C   0  0  0  0  0  2  0  0  0  0  0  0
  186.0750  178.2240  144.0060 C   0  0  2  0  0  3  0  0  0  0  0  0
  183.7600  178.7750  144.0210 O   0  0  0  0  0  0  0  0  0  0  0  0
  185.6210  178.2680  145.4230 C   0  0  0  0  0  2  0  0  0  0  0  0
  184.7810  178.2030  143.2370 C   0  0  1  0  0  3  0  0  0  0  0  0
  184.2750  178.9400  145.3220 C   0  0  0  0  0  2  0  0  0  0  0  0
  183.9500  178.8180  140.9040 N   0  0  0  0  0  0  0  0  0  0  0  0
  184.9340  178.9450  141.9430 C   0  0  0  0  0  0  0  0  0  0  0  0
  181.7250  179.4840  139.2800 C   0  0  0  0  0  2  0  0  0  0  0  0
  181.5050  178.7360  140.6040 C   0  0  0  0  0  2  0  0  0  0  0  0
  183.0590  179.1450  138.6210 C   0  0  0  0  0  2  0  0  0  0  0  0
  182.7510  178.0060  141.1160 C   0  0  0  0  0  2  0  0  0  0  0  0
  184.2000  179.4300  139.5930 C   0  0  0  0  0  2  0  0  0  0  0  0
  185.9590  179.6570  141.7560 O   0  0  0  0  0  0  0  0  0  0  0  0
  193.0950  176.2760  137.7390 C   0  0  0  0  0  2  0  0  0  0  0  0
  194.2570  172.7190  137.0980 C   0  0  0  0  0  3  0  0  0  0  0  0
  195.3430  172.6100  137.9740 C   0  0  0  0  0  0  0  0  0  0  0  0
  194.9690  174.8970  138.6980 C   0  0  0  0  0  3  0  0  0  0  0  0
  193.5300  173.9100  137.0200 C   0  0  0  0  0  3  0  0  0  0  0  0
  193.8830  175.0010  137.8210 C   0  0  0  0  0  0  0  0  0  0  0  0
  195.6970  173.7060  138.7740 C   0  0  0  0  0  3  0  0  0  0  0  0
  195.4560  170.0820  137.8210 C   0  0  0  0  0  1  0  0  0  0  0  0
  196.0730  171.3830  138.0320 N   0  0  0  0  0  2  0  0  0  0  0  0
  1  5  1  0  0  0  0
  2 11  1  0  0  0  0
  2 13  1  0  0  0  0
  3 16  1  0  0  0  0
  4  7  1  0  0  0  0
  5  9  2  0  0  0  0
  6  1  2  0  0  0  0
  7  9  1  0  0  0  0
  7 11  2  0  0  0  0
  8  1  1  0  0  0  0
  8  4  1  0  0  0  0
 10  3  2  0  0  0  0
 11 10  1  0  0  0  0
 12  2  2  0  0  0  0
 13 35  1  6  0  0  0
 13 14  1  0  0  0  0
 14  3  1  0  0  0  0
 15  4  2  0  0  0  0
 15 12  1  0  0  0  0
 16 18  1  0  0  0  0
 16 17  1  1  0  0  0
 18 19  1  0  0  0  0
 19 21  1  0  0  0  0
 19 20  2  0  0  0  0
 22 21  1  1  0  0  0
 22 24  1  0  0  0  0
 23 26  1  0  0  0  0
 25 28  1  6  0  0  0
 25 22  1  0  0  0  0
 25 23  1  0  0  0  0
 26 24  1  0  0  0  0
 27 32  1  0  0  0  0
 27 28  1  0  0  0  0
 29 30  1  0  0  0  0
 30 32  1  0  0  0  0
 31 29  1  0  0  0  0
 31 33  1  0  0  0  0
 33 27  1  0  0  0  0
 34 28  2  0  0  0  0
 35 40  1  0  0  0  0
 36 37  1  0  0  0  0
 37 43  1  0  0  0  0
 37 41  2  0  0  0  0
 38 41  1  0  0  0  0
 39 36  2  0  0  0  0
 39 40  1  0  0  0  0
 40 38  2  0  0  0  0
 42 43  1  0  0  0  0
M  END
>  <MODEL>
4

>  <REMARK>
 VINA RESULT:      -9.5      3.004     11.234
  Name = 
  8 active torsions:
  status: ('A' for Active; 'I' for Inactive)
    1  A    between atoms: C_1  and  C_34
    2  A    between atoms: C_1  and  C_35
    3  A    between atoms: C_2  and  N_6
    4  A    between atoms: C_2  and  C_13
    5  A    between atoms: C_3  and  C_4
    6  A    between atoms: C_3  and  C_12
    7  A    between atoms: C_14  and  C_22
    8  A    between atoms: C_19  and  N_37
                            x       y       z     vdW  Elec       q    Type
                         _______ _______ _______ _____ _____    ______ ____

>  <TORSDO>
F 8

$$$$
=
 OpenBabel10272414353D

 43 48  0  0  1  0  0  0  0  0999 V2000
  193.4420  175.5600  136.3940 C   0  0  0  0  0  0  0  0  0  0  0  0
  189.7390  177.3140  139.4720 C   0  0  0  0  0  0  0  0  0  0  0  0
  187.3210  177.0030  137.9430 C   0  0  0  0  0  0  0  0  0  0  0  0
  192.1670  176.5340  138.3400 C   0  0  0  0  0  0  0  0  0  0  0  0
  192.1630  175.3960  135.6910 C   0  0  0  0  0  3  0  0  0  0  0  0
  194.5060  175.2010  135.8270 O   0  0  0  0  0  0  0  0  0  0  0  0
  190.9740  176.3460  137.6120 C   0  0  0  0  0  0  0  0  0  0  0  0
  193.5090  176.1530  137.7740 C   0  0  0  0  0  2  0  0  0  0  0  0
  191.0160  175.7600  136.2570 C   0  0  0  0  0  3  0  0  0  0  0  0
  188.4750  176.4920  137.4940 C   0  0  0  0  0  3  0  0  0  0  0  0
  189.7520  176.7260  138.1940 C   0  0  0  0  0  0  0  0  0  0  0  0
  190.9460  177.4390  140.1680 C   0  0  0  0  0  3  0  0  0  0  0  0
  188.4140  177.6480  140.1320 C   0  0  2  0  0  3  0  0  0  0  0  0
  187.3080  177.9500  139.1090 C   0  0  0  0  0  2  0  0  0  0  0  0
  192.1180  177.0620  139.5910 N   0  0  0  0  0  0  0  0  0  0  0  0
  186.0410  176.7780  137.1930 C   0  0  2  0  0  3  0  0  0  0  0  0
  185.9800  177.6860  135.9790 C   0  0  0  0  0  1  0  0  0  0  0  0
  184.8860  177.0340  138.0450 N   0  0  0  0  0  2  0  0  0  0  0  0
  183.7500  176.1690  138.0990 C   0  0  0  0  0  0  0  0  0  0  0  0
  183.5900  175.2620  137.2400 O   0  0  0  0  0  0  0  0  0  0  0  0
  182.7990  176.2890  139.2360 C   0  0  0  0  0  2  0  0  0  0  0  0
  181.8360  177.4310  138.9580 C   0  0  2  0  0  3  0  0  0  0  0  0
  182.0460  179.7680  138.5560 O   0  0  0  0  0  0  0  0  0  0  0  0
  181.6970  177.6610  137.4940 C   0  0  0  0  0  2  0  0  0  0  0  0
  182.3940  178.7390  139.4530 C   0  0  1  0  0  3  0  0  0  0  0  0
  181.5100  179.1550  137.4070 C   0  0  0  0  0  2  0  0  0  0  0  0
  182.7140  178.8810  141.9820 N   0  0  0  0  0  0  0  0  0  0  0  0
  181.8720  179.0380  140.8280 C   0  0  0  0  0  0  0  0  0  0  0  0
  184.4310  179.6090  144.1150 C   0  0  0  0  0  2  0  0  0  0  0  0
  185.0210  179.3300  142.7240 C   0  0  0  0  0  2  0  0  0  0  0  0
  183.1820  178.7830  144.4080 C   0  0  0  0  0  2  0  0  0  0  0  0
  184.1140  178.4820  141.8270 C   0  0  0  0  0  2  0  0  0  0  0  0
  182.1370  179.0300  143.3230 C   0  0  0  0  0  2  0  0  0  0  0  0
  180.6700  179.3940  140.9700 O   0  0  0  0  0  0  0  0  0  0  0  0
  188.5030  178.7610  141.1900 C   0  0  0  0  0  2  0  0  0  0  0  0
  189.9630  178.1320  144.6370 C   0  0  0  0  0  3  0  0  0  0  0  0
  189.0070  177.2810  145.2020 C   0  0  0  0  0  0  0  0  0  0  0  0
  187.7140  177.3960  143.1510 C   0  0  0  0  0  3  0  0  0  0  0  0
  189.7970  178.6150  143.3360 C   0  0  0  0  0  3  0  0  0  0  0  0
  188.6740  178.2460  142.5890 C   0  0  0  0  0  0  0  0  0  0  0  0
  187.8800  176.9150  144.4530 C   0  0  0  0  0  3  0  0  0  0  0  0
  188.9830  177.6310  147.7130 C   0  0  0  0  0  1  0  0  0  0  0  0
  189.1990  176.8040  146.5360 N   0  0  0  0  0  2  0  0  0  0  0  0
  1  8  1  0  0  0  0
  2 13  1  0  0  0  0
  2 12  1  0  0  0  0
  3 14  1  0  0  0  0
  4 15  1  0  0  0  0
  5  9  2  0  0  0  0
  5  1  1  0  0  0  0
  6  1  2  0  0  0  0
  7 11  1  0  0  0  0
  7  4  2  0  0  0  0
  8  4  1  0  0  0  0
  9  7  1  0  0  0  0
 10  3  2  0  0  0  0
 10 11  1  0  0  0  0
 11  2  2  0  0  0  0
 13 35  1  1  0  0  0
 14 13  1  0  0  0  0
 15 12  2  0  0  0  0
 16 17  1  6  0  0  0
 16  3  1  0  0  0  0
 16 18  1  0  0  0  0
 18 19  1  0  0  0  0
 19 21  1  0  0  0  0
 20 19  2  0  0  0  0
 22 21  1  6  0  0  0
 22 25  1  0  0  0  0
 23 25  1  0  0  0  0
 24 22  1  0  0  0  0
 25 28  1  1  0  0  0
 26 24  1  0  0  0  0
 26 23  1  0  0  0  0
 27 33  1  0  0  0  0
 28 34  2  0  0  0  0
 28 27  1  0  0  0  0
 29 31  1  0  0  0  0
 30 29  1  0  0  0  0
 32 27  1  0  0  0  0
 32 30  1  0  0  0  0
 33 31  1  0  0  0  0
 35 40  1  0  0  0  0
 36 37  1  0  0  0  0
 37 43  1  0  0  0  0
 38 41  1  0  0  0  0
 39 36  2  0  0  0  0
 40 38  2  0  0  0  0
 40 39  1  0  0  0  0
 41 37  2  0  0  0  0
 43 42  1  0  0  0  0
M  END
>  <MODEL>
5

>  <REMARK>
 VINA RESULT:      -9.4      2.903      9.565
  Name = 
  8 active torsions:
  status: ('A' for Active; 'I' for Inactive)
    1  A    between atoms: C_1  and  C_34
    2  A    between atoms: C_1  and  C_35
    3  A    between atoms: C_2  and  N_6
    4  A    between atoms: C_2  and  C_13
    5  A    between atoms: C_3  and  C_4
    6  A    between atoms: C_3  and  C_12
    7  A    between atoms: C_14  and  C_22
    8  A    between atoms: C_19  and  N_37
                            x       y       z     vdW  Elec       q    Type
                         _______ _______ _______ _____ _____    ______ ____

>  <TORSDO>
F 8

$$$$
=
 OpenBabel10272414353D

 43 48  0  0  1  0  0  0  0  0999 V2000
  188.1080  177.7530  148.0830 C   0  0  0  0  0  0  0  0  0  0  0  0
  188.7560  178.0080  143.0050 C   0  0  0  0  0  0  0  0  0  0  0  0
  186.1180  178.5000  141.9650 C   0  0  0  0  0  0  0  0  0  0  0  0
  189.0970  177.7540  145.7630 C   0  0  0  0  0  0  0  0  0  0  0  0
  186.8000  178.0430  147.4810 C   0  0  0  0  0  3  0  0  0  0  0  0
  188.1980  177.6370  149.3320 O   0  0  0  0  0  0  0  0  0  0  0  0
  187.8150  178.0370  145.2500 C   0  0  0  0  0  0  0  0  0  0  0  0
  189.3410  177.5850  147.2390 C   0  0  0  0  0  2  0  0  0  0  0  0
  186.6640  178.1760  146.1650 C   0  0  0  0  0  3  0  0  0  0  0  0
  186.3410  178.5350  143.2850 C   0  0  0  0  0  3  0  0  0  0  0  0
  187.6520  178.1790  143.8610 C   0  0  0  0  0  0  0  0  0  0  0  0
  190.0140  177.7710  143.5700 C   0  0  0  0  0  3  0  0  0  0  0  0
  188.5950  178.2430  141.5150 C   0  0  2  0  0  3  0  0  0  0  0  0
  187.1640  177.9670  141.0280 C   0  0  0  0  0  2  0  0  0  0  0  0
  190.1540  177.6400  144.9150 N   0  0  0  0  0  0  0  0  0  0  0  0
  184.7650  178.8340  141.4080 C   0  0  2  0  0  3  0  0  0  0  0  0
  183.6810  178.4130  142.3820 C   0  0  0  0  0  1  0  0  0  0  0  0
  184.5490  178.1670  140.1290 N   0  0  0  0  0  2  0  0  0  0  0  0
  184.5370  178.8620  138.8810 C   0  0  0  0  0  0  0  0  0  0  0  0
  184.4820  180.1200  138.8440 O   0  0  0  0  0  0  0  0  0  0  0  0
  184.6810  178.0900  137.6180 C   0  0  0  0  0  2  0  0  0  0  0  0
  183.3160  177.5790  137.1910 C   0  0  2  0  0  3  0  0  0  0  0  0
  181.8920  175.7880  137.8500 O   0  0  0  0  0  0  0  0  0  0  0  0
  182.2460  178.1370  138.0620 C   0  0  0  0  0  2  0  0  0  0  0  0
  183.1980  176.0950  137.4220 C   0  0  1  0  0  3  0  0  0  0  0  0
  181.2470  177.0090  138.1310 C   0  0  0  0  0  2  0  0  0  0  0  0
  184.7830  174.6480  136.0400 N   0  0  0  0  0  0  0  0  0  0  0  0
  183.5340  175.3460  136.1660 C   0  0  0  0  0  0  0  0  0  0  0  0
  186.6030  172.4760  136.0260 C   0  0  0  0  0  2  0  0  0  0  0  0
  186.2860  173.1950  137.3450 C   0  0  0  0  0  2  0  0  0  0  0  0
  186.5290  173.3990  134.8130 C   0  0  0  0  0  2  0  0  0  0  0  0
  185.7250  174.6080  137.1600 C   0  0  0  0  0  2  0  0  0  0  0  0
  185.1530  174.0550  134.7490 C   0  0  0  0  0  2  0  0  0  0  0  0
  182.7230  175.3650  135.2000 O   0  0  0  0  0  0  0  0  0  0  0  0
  189.6240  177.4990  140.6470 C   0  0  0  0  0  2  0  0  0  0  0  0
  188.9060  176.4120  137.0810 C   0  0  0  0  0  3  0  0  0  0  0  0
  188.7610  177.6430  136.4310 C   0  0  0  0  0  0  0  0  0  0  0  0
  189.1750  178.7850  138.5330 C   0  0  0  0  0  3  0  0  0  0  0  0
  189.1830  176.3660  138.4510 C   0  0  0  0  0  3  0  0  0  0  0  0
  189.3200  177.5520  139.1790 C   0  0  0  0  0  0  0  0  0  0  0  0
  188.8960  178.8310  137.1640 C   0  0  0  0  0  3  0  0  0  0  0  0
  187.1220  177.5950  134.4970 C   0  0  0  0  0  1  0  0  0  0  0  0
  188.4740  177.6630  135.0310 N   0  0  0  0  0  2  0  0  0  0  0  0
  1  6  2  0  0  0  0
  2 12  2  0  0  0  0
  2 11  1  0  0  0  0
  3 10  2  0  0  0  0
  4  8  1  0  0  0  0
  5  1  1  0  0  0  0
  7  4  1  0  0  0  0
  7  9  1  0  0  0  0
  8  1  1  0  0  0  0
  9  5  2  0  0  0  0
 10 11  1  0  0  0  0
 11  7  2  0  0  0  0
 12 15  1  0  0  0  0
 13 35  1  6  0  0  0
 13  2  1  0  0  0  0
 14 13  1  0  0  0  0
 14  3  1  0  0  0  0
 15  4  2  0  0  0  0
 16  3  1  0  0  0  0
 16 17  1  1  0  0  0
 18 16  1  0  0  0  0
 19 18  1  0  0  0  0
 20 19  2  0  0  0  0
 21 19  1  0  0  0  0
 22 25  1  0  0  0  0
 22 21  1  1  0  0  0
 22 24  1  0  0  0  0
 23 26  1  0  0  0  0
 24 26  1  0  0  0  0
 25 28  1  6  0  0  0
 25 23  1  0  0  0  0
 27 28  1  0  0  0  0
 27 32  1  0  0  0  0
 29 30  1  0  0  0  0
 31 29  1  0  0  0  0
 32 30  1  0  0  0  0
 33 31  1  0  0  0  0
 33 27  1  0  0  0  0
 34 28  2  0  0  0  0
 36 39  1  0  0  0  0
 37 36  2  0  0  0  0
 37 41  1  0  0  0  0
 38 40  1  0  0  0  0
 39 40  2  0  0  0  0
 40 35  1  0  0  0  0
 41 38  2  0  0  0  0
 42 43  1  0  0  0  0
 43 37  1  0  0  0  0
M  END
>  <MODEL>
6

>  <REMARK>
 VINA RESULT:      -9.3      4.190      7.071
  Name = 
  8 active torsions:
  status: ('A' for Active; 'I' for Inactive)
    1  A    between atoms: C_1  and  C_34
    2  A    between atoms: C_1  and  C_35
    3  A    between atoms: C_2  and  N_6
    4  A    between atoms: C_2  and  C_13
    5  A    between atoms: C_3  and  C_4
    6  A    between atoms: C_3  and  C_12
    7  A    between atoms: C_14  and  C_22
    8  A    between atoms: C_19  and  N_37
                            x       y       z     vdW  Elec       q    Type
                         _______ _______ _______ _____ _____    ______ ____

>  <TORSDO>
F 8

$$$$
=
 OpenBabel10272414353D

 43 48  0  0  1  0  0  0  0  0999 V2000
  190.6630  176.6200  146.3730 C   0  0  0  0  0  0  0  0  0  0  0  0
  189.7220  178.0060  141.5300 C   0  0  0  0  0  0  0  0  0  0  0  0
  186.9340  178.7220  141.5130 C   0  0  0  0  0  0  0  0  0  0  0  0
  190.8820  177.1400  143.9150 C   0  0  0  0  0  0  0  0  0  0  0  0
  189.2570  177.0400  146.2950 C   0  0  0  0  0  3  0  0  0  0  0  0
  191.1270  176.2270  147.4750 O   0  0  0  0  0  0  0  0  0  0  0  0
  189.5280  177.5320  143.9100 C   0  0  0  0  0  0  0  0  0  0  0  0
  191.5580  176.6430  145.1660 C   0  0  0  0  0  2  0  0  0  0  0  0
  188.7300  177.4640  145.1510 C   0  0  0  0  0  3  0  0  0  0  0  0
  187.5580  178.4590  142.6690 C   0  0  0  0  0  3  0  0  0  0  0  0
  188.9530  177.9820  142.7080 C   0  0  0  0  0  0  0  0  0  0  0  0
  191.0720  177.6460  141.6010 C   0  0  0  0  0  3  0  0  0  0  0  0
  189.1250  178.5690  140.2540 C   0  0  2  0  0  3  0  0  0  0  0  0
  187.5970  178.4110  140.2010 C   0  0  0  0  0  2  0  0  0  0  0  0
  191.6120  177.2170  142.7720 N   0  0  0  0  0  0  0  0  0  0  0  0
  185.5030  179.1740  141.4990 C   0  0  2  0  0  3  0  0  0  0  0  0
  184.9320  179.1400  142.9040 C   0  0  0  0  0  1  0  0  0  0  0  0
  184.6970  178.3250  140.6310 N   0  0  0  0  0  2  0  0  0  0  0  0
  184.3220  178.7000  139.3040 C   0  0  0  0  0  0  0  0  0  0  0  0
  184.4750  179.8840  138.9030 O   0  0  0  0  0  0  0  0  0  0  0  0
  183.8290  177.6570  138.3660 C   0  0  0  0  0  2  0  0  0  0  0  0
  182.6670  176.9200  139.0100 C   0  0  2  0  0  3  0  0  0  0  0  0
  180.5750  176.0680  138.2600 O   0  0  0  0  0  0  0  0  0  0  0  0
  182.8070  175.4490  138.8270 C   0  0  0  0  0  2  0  0  0  0  0  0
  181.3750  177.2270  138.3000 C   0  0  1  0  0  3  0  0  0  0  0  0
  181.3760  174.9920  138.6880 C   0  0  0  0  0  2  0  0  0  0  0  0
  180.7440  179.6920  138.5040 N   0  0  0  0  0  0  0  0  0  0  0  0
  180.6540  178.3450  138.9940 C   0  0  0  0  0  0  0  0  0  0  0  0
  179.9900  182.0640  137.1490 C   0  0  0  0  0  2  0  0  0  0  0  0
  180.7120  180.9460  136.3820 C   0  0  0  0  0  2  0  0  0  0  0  0
  180.3980  182.1370  138.6170 C   0  0  0  0  0  2  0  0  0  0  0  0
  181.4950  179.9850  137.2820 C   0  0  0  0  0  2  0  0  0  0  0  0
  180.1590  180.7860  139.2860 C   0  0  0  0  0  2  0  0  0  0  0  0
  179.9940  178.0990  140.0410 O   0  0  0  0  0  0  0  0  0  0  0  0
  189.7770  178.0360  138.9670 C   0  0  0  0  0  2  0  0  0  0  0  0
  187.4660  175.5980  137.1990 C   0  0  0  0  0  3  0  0  0  0  0  0
  186.9600  176.3860  136.1590 C   0  0  0  0  0  0  0  0  0  0  0  0
  188.2890  178.2570  136.9500 C   0  0  0  0  0  3  0  0  0  0  0  0
  188.3770  176.1350  138.1120 C   0  0  0  0  0  3  0  0  0  0  0  0
  188.7930  177.4650  137.9890 C   0  0  0  0  0  0  0  0  0  0  0  0
  187.3750  177.7200  136.0390 C   0  0  0  0  0  3  0  0  0  0  0  0
  184.8680  175.0420  135.6650 C   0  0  0  0  0  1  0  0  0  0  0  0
  186.0260  175.8140  135.2410 N   0  0  0  0  0  2  0  0  0  0  0  0
  1  6  2  0  0  0  0
  2 12  2  0  0  0  0
  2 11  1  0  0  0  0
  3 10  2  0  0  0  0
  4  8  1  0  0  0  0
  5  1  1  0  0  0  0
  7  4  1  0  0  0  0
  7  9  1  0  0  0  0
  8  1  1  0  0  0  0
  9  5  2  0  0  0  0
 10 11  1  0  0  0  0
 11  7  2  0  0  0  0
 12 15  1  0  0  0  0
 13 35  1  6  0  0  0
 13  2  1  0  0  0  0
 14 13  1  0  0  0  0
 14  3  1  0  0  0  0
 15  4  2  0  0  0  0
 16  3  1  0  0  0  0
 16 17  1  1  0  0  0
 18 16  1  0  0  0  0
 19 18  1  0  0  0  0
 20 19  2  0  0  0  0
 21 19  1  0  0  0  0
 22 21  1  6  0  0  0
 23 25  1  0  0  0  0
 23 26  1  0  0  0  0
 24 22  1  0  0  0  0
 25 28  1  1  0  0  0
 25 22  1  0  0  0  0
 26 24  1  0  0  0  0
 27 28  1  0  0  0  0
 27 33  1  0  0  0  0
 28 34  2  0  0  0  0
 29 31  1  0  0  0  0
 30 29  1  0  0  0  0
 30 32  1  0  0  0  0
 31 33  1  0  0  0  0
 32 27  1  0  0  0  0
 36 39  1  0  0  0  0
 37 36  2  0  0  0  0
 38 40  1  0  0  0  0
 40 39  2  0  0  0  0
 40 35  1  0  0  0  0
 41 37  1  0  0  0  0
 41 38  2  0  0  0  0
 43 42  1  0  0  0  0
 43 37  1  0  0  0  0
M  END
>  <MODEL>
7

>  <REMARK>
 VINA RESULT:      -9.1      4.245      8.939
  Name = 
  8 active torsions:
  status: ('A' for Active; 'I' for Inactive)
    1  A    between atoms: C_1  and  C_34
    2  A    between atoms: C_1  and  C_35
    3  A    between atoms: C_2  and  N_6
    4  A    between atoms: C_2  and  C_13
    5  A    between atoms: C_3  and  C_4
    6  A    between atoms: C_3  and  C_12
    7  A    between atoms: C_14  and  C_22
    8  A    between atoms: C_19  and  N_37
                            x       y       z     vdW  Elec       q    Type
                         _______ _______ _______ _____ _____    ______ ____

>  <TORSDO>
F 8

$$$$
=
 OpenBabel10272414353D

 43 48  0  0  1  0  0  0  0  0999 V2000
  191.0220  176.6920  146.6220 C   0  0  0  0  0  0  0  0  0  0  0  0
  187.4220  177.9120  143.1850 C   0  0  0  0  0  0  0  0  0  0  0  0
  188.7680  177.7640  140.6460 C   0  0  0  0  0  0  0  0  0  0  0  0
  188.8570  177.3540  145.5120 C   0  0  0  0  0  0  0  0  0  0  0  0
  191.6300  176.5990  145.2880 C   0  0  0  0  0  3  0  0  0  0  0  0
  191.7230  176.4400  147.6360 O   0  0  0  0  0  0  0  0  0  0  0  0
  189.4990  177.2420  144.2620 C   0  0  0  0  0  0  0  0  0  0  0  0
  189.5830  177.0870  146.8040 C   0  0  0  0  0  2  0  0  0  0  0  0
  190.9220  176.8540  144.1920 C   0  0  0  0  0  3  0  0  0  0  0  0
  189.3810  177.3470  141.7610 C   0  0  0  0  0  3  0  0  0  0  0  0
  188.7670  177.5100  143.0920 C   0  0  0  0  0  0  0  0  0  0  0  0
  186.8210  177.9650  144.4480 C   0  0  0  0  0  3  0  0  0  0  0  0
  186.6100  178.1200  141.9210 C   0  0  2  0  0  3  0  0  0  0  0  0
  187.4820  178.5370  140.7260 C   0  0  0  0  0  2  0  0  0  0  0  0
  187.5430  177.7000  145.5680 N   0  0  0  0  0  0  0  0  0  0  0  0
  189.4300  177.6170  139.3070 C   0  0  2  0  0  3  0  0  0  0  0  0
  189.3570  178.9250  138.5430 C   0  0  0  0  0  1  0  0  0  0  0  0
  188.7930  176.5650  138.5240 N   0  0  0  0  0  2  0  0  0  0  0  0
  189.5280  175.6320  137.7290 C   0  0  0  0  0  0  0  0  0  0  0  0
  190.7500  175.8170  137.4840 O   0  0  0  0  0  0  0  0  0  0  0  0
  188.8600  174.3870  137.2670 C   0  0  0  0  0  2  0  0  0  0  0  0
  188.1990  174.6490  135.9240 C   0  0  2  0  0  3  0  0  0  0  0  0
  186.1970  175.7120  135.1970 O   0  0  0  0  0  0  0  0  0  0  0  0
  188.5540  176.0020  135.4140 C   0  0  0  0  0  2  0  0  0  0  0  0
  186.7020  174.7240  136.0650 C   0  0  1  0  0  3  0  0  0  0  0  0
  187.3000  176.4270  134.6920 C   0  0  0  0  0  2  0  0  0  0  0  0
  184.8570  172.9920  136.3960 N   0  0  0  0  0  0  0  0  0  0  0  0
  186.0840  173.3900  135.7660 C   0  0  0  0  0  0  0  0  0  0  0  0
  182.0790  172.5180  136.7030 C   0  0  0  0  0  2  0  0  0  0  0  0
  182.6530  173.9090  137.0100 C   0  0  0  0  0  2  0  0  0  0  0  0
  183.0680  171.3910  136.9890 C   0  0  0  0  0  2  0  0  0  0  0  0
  184.1570  173.9080  137.2990 C   0  0  0  0  0  2  0  0  0  0  0  0
  184.3560  171.6260  136.2060 C   0  0  0  0  0  2  0  0  0  0  0  0
  186.6740  172.5990  134.9800 O   0  0  0  0  0  0  0  0  0  0  0  0
  185.4170  179.0750  142.0900 C   0  0  0  0  0  2  0  0  0  0  0  0
  183.3950  178.7720  138.8910 C   0  0  0  0  0  3  0  0  0  0  0  0
  182.1750  178.2820  139.3690 C   0  0  0  0  0  0  0  0  0  0  0  0
  183.0680  178.3020  141.6260 C   0  0  0  0  0  3  0  0  0  0  0  0
  184.4480  179.0270  139.7740 C   0  0  0  0  0  3  0  0  0  0  0  0
  184.2860  178.7950  141.1440 C   0  0  0  0  0  0  0  0  0  0  0  0
  182.0160  178.0460  140.7420 C   0  0  0  0  0  3  0  0  0  0  0  0
  181.3440  177.6980  137.0460 C   0  0  0  0  0  1  0  0  0  0  0  0
  181.1150  178.0260  138.4440 N   0  0  0  0  0  2  0  0  0  0  0  0
  1  8  1  0  0  0  0
  1  6  2  0  0  0  0
  2 12  1  0  0  0  0
  3 14  1  0  0  0  0
  3 10  2  0  0  0  0
  4 15  1  0  0  0  0
  4  8  1  0  0  0  0
  5  1  1  0  0  0  0
  7  4  2  0  0  0  0
  9  7  1  0  0  0  0
  9  5  2  0  0  0  0
 10 11  1  0  0  0  0
 11  2  2  0  0  0  0
 11  7  1  0  0  0  0
 12 15  2  0  0  0  0
 13 35  1  1  0  0  0
 13  2  1  0  0  0  0
 14 13  1  0  0  0  0
 16 17  1  6  0  0  0
 16  3  1  0  0  0  0
 18 16  1  0  0  0  0
 19 18  1  0  0  0  0
 20 19  2  0  0  0  0
 21 19  1  0  0  0  0
 22 25  1  0  0  0  0
 22 21  1  1  0  0  0
 23 25  1  0  0  0  0
 24 22  1  0  0  0  0
 25 28  1  6  0  0  0
 26 23  1  0  0  0  0
 26 24  1  0  0  0  0
 27 32  1  0  0  0  0
 28 27  1  0  0  0  0
 29 31  1  0  0  0  0
 29 30  1  0  0  0  0
 30 32  1  0  0  0  0
 33 27  1  0  0  0  0
 33 31  1  0  0  0  0
 34 28  2  0  0  0  0
 36 37  2  0  0  0  0
 36 39  1  0  0  0  0
 37 41  1  0  0  0  0
 39 40  2  0  0  0  0
 40 38  1  0  0  0  0
 40 35  1  0  0  0  0
 41 38  2  0  0  0  0
 42 43  1  0  0  0  0
 43 37  1  0  0  0  0
M  END
>  <MODEL>
8

>  <REMARK>
 VINA RESULT:      -8.9      3.023      5.450
  Name = 
  8 active torsions:
  status: ('A' for Active; 'I' for Inactive)
    1  A    between atoms: C_1  and  C_34
    2  A    between atoms: C_1  and  C_35
    3  A    between atoms: C_2  and  N_6
    4  A    between atoms: C_2  and  C_13
    5  A    between atoms: C_3  and  C_4
    6  A    between atoms: C_3  and  C_12
    7  A    between atoms: C_14  and  C_22
    8  A    between atoms: C_19  and  N_37
                            x       y       z     vdW  Elec       q    Type
                         _______ _______ _______ _____ _____    ______ ____

>  <TORSDO>
F 8

$$$$
=
 OpenBabel10272414353D

 43 48  0  0  1  0  0  0  0  0999 V2000
  183.5260  171.3240  136.5800 C   0  0  0  0  0  0  0  0  0  0  0  0
  182.8010  176.3210  137.4560 C   0  0  0  0  0  0  0  0  0  0  0  0
  185.4550  177.4330  137.5280 C   0  0  0  0  0  0  0  0  0  0  0  0
  182.4930  173.5830  137.0120 C   0  0  0  0  0  0  0  0  0  0  0  0
  184.8450  171.9700  136.5920 C   0  0  0  0  0  3  0  0  0  0  0  0
  183.4500  170.0820  136.3870 O   0  0  0  0  0  0  0  0  0  0  0  0
  183.7880  174.1410  137.0070 C   0  0  0  0  0  0  0  0  0  0  0  0
  182.2630  172.1100  136.8000 C   0  0  0  0  0  2  0  0  0  0  0  0
  184.9660  173.2790  136.7890 C   0  0  0  0  0  3  0  0  0  0  0  0
  185.2650  176.1600  137.1590 C   0  0  0  0  0  3  0  0  0  0  0  0
  183.9360  175.5240  137.2160 C   0  0  0  0  0  0  0  0  0  0  0  0
  181.5370  175.7240  137.4080 C   0  0  0  0  0  3  0  0  0  0  0  0
  182.9550  177.8230  137.5990 C   0  0  2  0  0  3  0  0  0  0  0  0
  184.3350  178.2230  138.1440 C   0  0  0  0  0  2  0  0  0  0  0  0
  181.4130  174.3860  137.2010 N   0  0  0  0  0  0  0  0  0  0  0  0
  186.8240  178.0460  137.4930 C   0  0  2  0  0  3  0  0  0  0  0  0
  187.3260  178.1190  136.0640 C   0  0  0  0  0  1  0  0  0  0  0  0
  187.7630  177.2700  138.2950 N   0  0  0  0  0  2  0  0  0  0  0  0
  188.7630  177.8700  139.1200 C   0  0  0  0  0  0  0  0  0  0  0  0
  189.0330  179.0960  139.0170 O   0  0  0  0  0  0  0  0  0  0  0  0
  189.4240  177.0510  140.1710 C   0  0  0  0  0  2  0  0  0  0  0  0
  189.5300  177.8720  141.4450 C   0  0  2  0  0  3  0  0  0  0  0  0
  189.2180  177.4490  143.7670 O   0  0  0  0  0  0  0  0  0  0  0  0
  190.8720  177.7100  142.0690 C   0  0  0  0  0  2  0  0  0  0  0  0
  188.6000  177.3450  142.5060 C   0  0  1  0  0  3  0  0  0  0  0  0
  190.5670  177.7870  143.5440 C   0  0  0  0  0  2  0  0  0  0  0  0
  186.3920  178.0270  143.5910 N   0  0  0  0  0  0  0  0  0  0  0  0
  187.3060  178.1050  142.4860 C   0  0  0  0  0  0  0  0  0  0  0  0
  185.0590  178.7890  145.9730 C   0  0  0  0  0  2  0  0  0  0  0  0
  186.3890  178.0250  146.0550 C   0  0  0  0  0  2  0  0  0  0  0  0
  184.2390  178.4220  144.7400 C   0  0  0  0  0  2  0  0  0  0  0  0
  186.7360  177.2490  144.7820 C   0  0  0  0  0  2  0  0  0  0  0  0
  185.0700  178.6540  143.4810 C   0  0  0  0  0  2  0  0  0  0  0  0
  187.0070  178.7890  141.4680 O   0  0  0  0  0  0  0  0  0  0  0  0
  181.8300  178.4960  138.4040 C   0  0  0  0  0  2  0  0  0  0  0  0
  180.3760  181.2340  136.2130 C   0  0  0  0  0  3  0  0  0  0  0  0
  180.7530  182.3880  136.9100 C   0  0  0  0  0  0  0  0  0  0  0  0
  181.8310  181.0050  138.5880 C   0  0  0  0  0  3  0  0  0  0  0  0
  180.7240  179.9710  136.7000 C   0  0  0  0  0  3  0  0  0  0  0  0
  181.4530  179.8530  137.8880 C   0  0  0  0  0  0  0  0  0  0  0  0
  181.4810  182.2680  138.1020 C   0  0  0  0  0  3  0  0  0  0  0  0
  180.8220  184.9220  136.9830 C   0  0  0  0  0  1  0  0  0  0  0  0
  180.3810  183.6680  136.3920 N   0  0  0  0  0  2  0  0  0  0  0  0
  1  5  1  0  0  0  0
  1  8  1  0  0  0  0
  2 13  1  0  0  0  0
  3 14  1  0  0  0  0
  4 15  1  0  0  0  0
  5  9  2  0  0  0  0
  6  1  2  0  0  0  0
  7  4  2  0  0  0  0
  7 11  1  0  0  0  0
  8  4  1  0  0  0  0
  9  7  1  0  0  0  0
 10 11  1  0  0  0  0
 10  3  2  0  0  0  0
 11  2  2  0  0  0  0
 12  2  1  0  0  0  0
 13 14  1  0  0  0  0
 13 35  1  1  0  0  0
 15 12  2  0  0  0  0
 16 17  1  6  0  0  0
 16  3  1  0  0  0  0
 16 18  1  0  0  0  0
 18 19  1  0  0  0  0
 19 21  1  0  0  0  0
 20 19  2  0  0  0  0
 22 21  1  6  0  0  0
 22 24  1  0  0  0  0
 22 25  1  0  0  0  0
 24 26  1  0  0  0  0
 25 28  1  1  0  0  0
 25 23  1  0  0  0  0
 26 23  1  0  0  0  0
 27 32  1  0  0  0  0
 28 27  1  0  0  0  0
 29 30  1  0  0  0  0
 31 29  1  0  0  0  0
 32 30  1  0  0  0  0
 33 27  1  0  0  0  0
 33 31  1  0  0  0  0
 34 28  2  0  0  0  0
 36 39  2  0  0  0  0
 36 37  1  0  0  0  0
 37 41  2  0  0  0  0
 39 40  1  0  0  0  0
 40 35  1  0  0  0  0
 40 38  2  0  0  0  0
 41 38  1  0  0  0  0
 43 37  1  0  0  0  0
 43 42  1  0  0  0  0
M  END
>  <MODEL>
9

>  <REMARK>
 VINA RESULT:      -8.9      4.215      9.055
  Name = 
  8 active torsions:
  status: ('A' for Active; 'I' for Inactive)
    1  A    between atoms: C_1  and  C_34
    2  A    between atoms: C_1  and  C_35
    3  A    between atoms: C_2  and  N_6
    4  A    between atoms: C_2  and  C_13
    5  A    between atoms: C_3  and  C_4
    6  A    between atoms: C_3  and  C_12
    7  A    between atoms: C_14  and  C_22
    8  A    between atoms: C_19  and  N_37
                            x       y       z     vdW  Elec       q    Type
                         _______ _______ _______ _____ _____    ______ ____

>  <TORSDO>
F 8

$$$$
