=
 OpenBabel10272413563D

 30 32  0  0  1  0  0  0  0  0999 V2000
  188.1610  178.5980  141.2230 N   0  0  0  0  0  2  0  0  0  0  0  0
  186.2960  178.4480  139.6360 C   0  0  0  0  0  0  0  0  0  0  0  0
  189.4990  178.2640  141.6980 C   0  0  2  0  0  3  0  0  0  0  0  0
  185.7830  178.0460  138.4000 C   0  0  0  0  0  3  0  0  0  0  0  0
  185.2300  179.2550  140.7740 Cl  0  0  0  0  0  0  0  0  0  0  0  0
  189.8650  177.3270  139.3370 N   0  0  0  0  0  0  0  0  0  0  0  0
  186.6060  177.4050  137.4740 C   0  0  0  0  0  3  0  0  0  0  0  0
  187.6420  178.2000  139.9520 C   0  0  0  0  0  0  0  0  0  0  0  0
  190.3930  177.7050  140.6210 C   0  0  0  0  0  0  0  0  0  0  0  0
  191.6290  177.5970  140.8520 O   0  0  0  0  0  0  0  0  0  0  0  0
  187.9470  177.1640  137.7820 C   0  0  0  0  0  3  0  0  0  0  0  0
  188.4780  177.5580  139.0220 C   0  0  0  0  0  0  0  0  0  0  0  0
  190.7730  176.7920  138.3210 C   0  0  0  0  0  2  0  0  0  0  0  0
  190.7500  175.2710  138.3200 C   0  0  0  0  0  2  0  0  0  0  0  0
  191.9130  174.7290  137.5150 C   0  0  0  0  0  1  0  0  0  0  0  0
  189.4310  177.4410  143.0010 C   0  0  1  0  0  3  0  0  0  0  0  0
  190.9120  179.3070  143.9690 C   0  0  0  0  0  1  0  0  0  0  0  0
  190.1690  178.0030  144.2310 C   0  0  2  0  0  3  0  0  0  0  0  0
  191.1760  177.0910  146.3600 N   0  0  0  0  0  2  0  0  0  0  0  0
  191.5350  176.0300  144.3100 O   0  0  0  0  0  0  0  0  0  0  0  0
  191.0060  176.9850  144.9450 C   0  0  0  0  0  0  0  0  0  0  0  0
  192.5430  175.3370  147.7220 C   0  0  0  0  0  3  0  0  0  0  0  0
  191.9110  176.1470  147.0920 C   0  0  0  0  0  0  0  0  0  0  0  0
  188.0040  177.0310  143.3440 C   0  0  0  0  0  2  0  0  0  0  0  0
  186.4060  177.2620  145.2090 C   0  0  1  0  0  3  0  0  0  0  0  0
  185.9060  178.1220  144.0640 C   0  0  0  0  0  2  0  0  0  0  0  0
  187.3910  178.0070  144.3290 C   0  0  2  0  0  3  0  0  0  0  0  0
  184.9800  178.3820  146.9310 O   0  0  0  0  0  0  0  0  0  0  0  0
  186.2420  177.9870  146.5050 C   0  0  0  0  0  0  0  0  0  0  0  0
  187.2440  178.2060  147.2360 O   0  0  0  0  0  1  0  0  0  0  0  0
  1  3  1  0  0  0  0
  2  8  1  0  0  0  0
  2  5  1  0  0  0  0
  3 16  1  1  0  0  0
  4  2  2  0  0  0  0
  6  9  1  0  0  0  0
  7 11  2  0  0  0  0
  7  4  1  0  0  0  0
  8  1  1  0  0  0  0
  9 10  2  0  0  0  0
  9  3  1  0  0  0  0
 11 12  1  0  0  0  0
 12  6  1  0  0  0  0
 12  8  2  0  0  0  0
 13  6  1  0  0  0  0
 14 13  1  0  0  0  0
 15 14  1  0  0  0  0
 16 24  1  1  0  0  0
 16 18  1  0  0  0  0
 18 17  1  6  0  0  0
 18 21  1  0  0  0  0
 19 23  1  0  0  0  0
 20 21  2  0  0  0  0
 21 19  1  0  0  0  0
 23 22  3  0  0  0  0
 25 29  1  1  0  0  0
 26 27  1  0  0  0  0
 26 25  1  0  0  0  0
 27 24  1  6  0  0  0
 27 25  1  0  0  0  0
 29 28  2  0  0  0  0
 29 30  1  0  0  0  0
M  END
>  <MODEL>
1

>  <REMARK>
 VINA RESULT:      -7.7      0.000      0.000
  Name = 
  9 active torsions:
  status: ('A' for Active; 'I' for Inactive)
    1  A    between atoms: C_3  and  C_11
    2  A    between atoms: C_3  and  N_19
    3  A    between atoms: C_4  and  C_13
    4  A    between atoms: N_5  and  C_21
    5  A    between atoms: C_7  and  C_15
    6  A    between atoms: C_8  and  C_12
    7  A    between atoms: C_8  and  C_13
    8  A    between atoms: C_13  and  C_27
    9  A    between atoms: C_27  and  C_30
                            x       y       z     vdW  Elec       q    Type
                         _______ _______ _______ _____ _____    ______ ____

>  <TORSDO>
F 9

$$$$
=
 OpenBabel10272413563D

 30 32  0  0  1  0  0  0  0  0999 V2000
  186.8420  177.4420  142.9880 N   0  0  0  0  0  2  0  0  0  0  0  0
  184.6650  178.5080  142.6110 C   0  0  0  0  0  0  0  0  0  0  0  0
  187.9970  177.0880  143.8060 C   0  0  2  0  0  3  0  0  0  0  0  0
  183.5240  179.1460  143.1040 C   0  0  0  0  0  3  0  0  0  0  0  0
  184.8170  178.2630  140.8790 Cl  0  0  0  0  0  0  0  0  0  0  0  0
  186.5400  177.8200  145.7880 N   0  0  0  0  0  0  0  0  0  0  0  0
  183.3740  179.3530  144.4760 C   0  0  0  0  0  3  0  0  0  0  0  0
  185.6680  178.0800  143.4960 C   0  0  0  0  0  0  0  0  0  0  0  0
  187.7350  177.1940  145.2870 C   0  0  0  0  0  0  0  0  0  0  0  0
  188.5720  176.6980  146.0900 O   0  0  0  0  0  0  0  0  0  0  0  0
  184.3660  178.9220  145.3590 C   0  0  0  0  0  3  0  0  0  0  0  0
  185.5220  178.2820  144.8790 C   0  0  0  0  0  0  0  0  0  0  0  0
  186.3270  177.8970  147.2350 C   0  0  0  0  0  2  0  0  0  0  0  0
  187.3130  178.8590  147.8780 C   0  0  0  0  0  2  0  0  0  0  0  0
  188.1410  178.1410  148.9240 C   0  0  0  0  0  1  0  0  0  0  0  0
  189.2680  177.8010  143.3030 C   0  0  1  0  0  3  0  0  0  0  0  0
  190.4610  175.5780  142.7990 C   0  0  0  0  0  1  0  0  0  0  0  0
  190.5850  177.0010  143.3300 C   0  0  2  0  0  3  0  0  0  0  0  0
  191.4060  175.9000  145.4500 N   0  0  0  0  0  2  0  0  0  0  0  0
  191.8340  178.1570  145.0250 O   0  0  0  0  0  0  0  0  0  0  0  0
  191.3040  177.0750  144.6440 C   0  0  0  0  0  0  0  0  0  0  0  0
  192.6980  175.8860  147.7150 C   0  0  0  0  0  3  0  0  0  0  0  0
  192.1010  175.8930  146.6680 C   0  0  0  0  0  0  0  0  0  0  0  0
  189.0490  178.4720  141.9520 C   0  0  0  0  0  2  0  0  0  0  0  0
  189.7570  178.0300  139.6300 C   0  0  1  0  0  3  0  0  0  0  0  0
  188.2430  177.9590  139.6720 C   0  0  0  0  0  2  0  0  0  0  0  0
  189.0550  177.4420  140.8390 C   0  0  2  0  0  3  0  0  0  0  0  0
  190.3910  177.0890  137.4010 O   0  0  0  0  0  0  0  0  0  0  0  0
  190.2990  176.9290  138.7780 C   0  0  0  0  0  0  0  0  0  0  0  0
  190.7110  175.8640  139.3110 O   0  0  0  0  0  1  0  0  0  0  0  0
  1  8  1  0  0  0  0
  1  3  1  0  0  0  0
  2  4  2  0  0  0  0
  2  8  1  0  0  0  0
  3 16  1  6  0  0  0
  3  9  1  0  0  0  0
  4  7  1  0  0  0  0
  5  2  1  0  0  0  0
  6 13  1  0  0  0  0
  7 11  2  0  0  0  0
  8 12  2  0  0  0  0
  9  6  1  0  0  0  0
  9 10  2  0  0  0  0
 12 11  1  0  0  0  0
 12  6  1  0  0  0  0
 13 14  1  0  0  0  0
 14 15  1  0  0  0  0
 16 24  1  6  0  0  0
 16 18  1  0  0  0  0
 18 17  1  1  0  0  0
 18 21  1  0  0  0  0
 19 23  1  0  0  0  0
 21 20  2  0  0  0  0
 21 19  1  0  0  0  0
 23 22  3  0  0  0  0
 25 29  1  6  0  0  0
 25 26  1  0  0  0  0
 25 27  1  0  0  0  0
 26 27  1  0  0  0  0
 27 24  1  1  0  0  0
 28 29  2  0  0  0  0
 29 30  1  0  0  0  0
M  END
>  <MODEL>
2

>  <REMARK>
 VINA RESULT:      -7.1      1.977      6.158
  Name = 
  9 active torsions:
  status: ('A' for Active; 'I' for Inactive)
    1  A    between atoms: C_3  and  C_11
    2  A    between atoms: C_3  and  N_19
    3  A    between atoms: C_4  and  C_13
    4  A    between atoms: N_5  and  C_21
    5  A    between atoms: C_7  and  C_15
    6  A    between atoms: C_8  and  C_12
    7  A    between atoms: C_8  and  C_13
    8  A    between atoms: C_13  and  C_27
    9  A    between atoms: C_27  and  C_30
                            x       y       z     vdW  Elec       q    Type
                         _______ _______ _______ _____ _____    ______ ____

>  <TORSDO>
F 9

$$$$
=
 OpenBabel10272413563D

 30 32  0  0  1  0  0  0  0  0999 V2000
  186.7450  177.2790  144.6880 N   0  0  0  0  0  2  0  0  0  0  0  0
  186.8840  178.1130  146.9900 C   0  0  0  0  0  0  0  0  0  0  0  0
  187.3220  176.8470  143.4200 C   0  0  2  0  0  3  0  0  0  0  0  0
  187.6350  178.4130  148.1290 C   0  0  0  0  0  3  0  0  0  0  0  0
  185.1570  178.4320  147.0050 Cl  0  0  0  0  0  0  0  0  0  0  0  0
  189.5340  176.7380  144.7170 N   0  0  0  0  0  0  0  0  0  0  0  0
  189.0090  178.1690  148.1480 C   0  0  0  0  0  3  0  0  0  0  0  0
  187.5120  177.5710  145.8570 C   0  0  0  0  0  0  0  0  0  0  0  0
  188.7750  176.4590  143.5270 C   0  0  0  0  0  0  0  0  0  0  0  0
  189.3160  175.8550  142.5600 O   0  0  0  0  0  0  0  0  0  0  0  0
  189.6350  177.6220  147.0260 C   0  0  0  0  0  3  0  0  0  0  0  0
  188.8950  177.3190  145.8710 C   0  0  0  0  0  0  0  0  0  0  0  0
  190.9420  176.3400  144.7760 C   0  0  0  0  0  2  0  0  0  0  0  0
  191.7730  177.1340  143.7810 C   0  0  0  0  0  2  0  0  0  0  0  0
  191.5920  178.6200  144.0140 C   0  0  0  0  0  1  0  0  0  0  0  0
  186.9800  177.8400  142.2910 C   0  0  1  0  0  3  0  0  0  0  0  0
  184.8010  178.2140  143.6050 C   0  0  0  0  0  1  0  0  0  0  0  0
  185.6600  178.6260  142.4170 C   0  0  2  0  0  3  0  0  0  0  0  0
  183.8000  177.8060  140.9180 N   0  0  0  0  0  2  0  0  0  0  0  0
  185.1750  179.5780  140.2660 O   0  0  0  0  0  0  0  0  0  0  0  0
  184.8870  178.7080  141.1350 C   0  0  0  0  0  0  0  0  0  0  0  0
  182.3330  177.9030  138.7640 C   0  0  0  0  0  3  0  0  0  0  0  0
  183.0110  177.8590  139.7600 C   0  0  0  0  0  0  0  0  0  0  0  0
  188.1510  178.7600  141.9650 C   0  0  0  0  0  2  0  0  0  0  0  0
  188.2090  177.4310  139.8870 C   0  0  1  0  0  3  0  0  0  0  0  0
  189.5970  178.0020  140.1100 C   0  0  0  0  0  2  0  0  0  0  0  0
  188.3780  178.8220  140.4670 C   0  0  2  0  0  3  0  0  0  0  0  0
  187.4440  178.7480  137.9040 O   0  0  0  0  0  1  0  0  0  0  0  0
  187.8400  177.5300  138.4430 C   0  0  0  0  0  0  0  0  0  0  0  0
  187.9240  176.5170  137.7000 O   0  0  0  0  0  0  0  0  0  0  0  0
  1  8  1  0  0  0  0
  2  5  1  0  0  0  0
  2  4  1  0  0  0  0
  3 16  1  6  0  0  0
  3  9  1  0  0  0  0
  3  1  1  0  0  0  0
  4  7  2  0  0  0  0
  6 13  1  0  0  0  0
  6 12  1  0  0  0  0
  8 12  1  0  0  0  0
  8  2  2  0  0  0  0
  9  6  1  0  0  0  0
 10  9  2  0  0  0  0
 11  7  1  0  0  0  0
 12 11  2  0  0  0  0
 14 15  1  0  0  0  0
 14 13  1  0  0  0  0
 16 24  1  1  0  0  0
 16 18  1  0  0  0  0
 18 17  1  1  0  0  0
 19 21  1  0  0  0  0
 20 21  2  0  0  0  0
 21 18  1  0  0  0  0
 22 23  3  0  0  0  0
 23 19  1  0  0  0  0
 25 29  1  6  0  0  0
 25 26  1  0  0  0  0
 25 27  1  0  0  0  0
 26 27  1  0  0  0  0
 27 24  1  1  0  0  0
 28 29  1  0  0  0  0
 30 29  2  0  0  0  0
M  END
>  <MODEL>
3

>  <REMARK>
 VINA RESULT:      -7.0      3.020      7.378
  Name = 
  9 active torsions:
  status: ('A' for Active; 'I' for Inactive)
    1  A    between atoms: C_3  and  C_11
    2  A    between atoms: C_3  and  N_19
    3  A    between atoms: C_4  and  C_13
    4  A    between atoms: N_5  and  C_21
    5  A    between atoms: C_7  and  C_15
    6  A    between atoms: C_8  and  C_12
    7  A    between atoms: C_8  and  C_13
    8  A    between atoms: C_13  and  C_27
    9  A    between atoms: C_27  and  C_30
                            x       y       z     vdW  Elec       q    Type
                         _______ _______ _______ _____ _____    ______ ____

>  <TORSDO>
F 9

$$$$
=
 OpenBabel10272413563D

 30 32  0  0  1  0  0  0  0  0999 V2000
  189.4600  178.1870  141.8370 N   0  0  0  0  0  2  0  0  0  0  0  0
  189.9150  177.6810  144.1930 C   0  0  0  0  0  0  0  0  0  0  0  0
  188.5920  178.2910  140.6690 C   0  0  2  0  0  3  0  0  0  0  0  0
  189.4610  177.3840  145.4810 C   0  0  0  0  0  3  0  0  0  0  0  0
  191.6450  177.7690  143.9040 Cl  0  0  0  0  0  0  0  0  0  0  0  0
  186.6680  178.0780  142.3540 N   0  0  0  0  0  0  0  0  0  0  0  0
  188.0920  177.3090  145.7420 C   0  0  0  0  0  3  0  0  0  0  0  0
  188.9930  177.8990  143.1560 C   0  0  0  0  0  0  0  0  0  0  0  0
  187.1270  178.3490  141.0170 C   0  0  0  0  0  0  0  0  0  0  0  0
  186.3010  178.6700  140.1190 O   0  0  0  0  0  0  0  0  0  0  0  0
  187.1740  177.5330  144.7150 C   0  0  0  0  0  3  0  0  0  0  0  0
  187.6130  177.8290  143.4130 C   0  0  0  0  0  0  0  0  0  0  0  0
  185.2360  178.1500  142.6460 C   0  0  0  0  0  2  0  0  0  0  0  0
  184.8740  179.4920  143.2630 C   0  0  0  0  0  2  0  0  0  0  0  0
  183.8310  179.3080  144.3460 C   0  0  0  0  0  1  0  0  0  0  0  0
  188.9810  177.2510  139.5990 C   0  0  1  0  0  3  0  0  0  0  0  0
  188.9360  179.1840  137.9040 C   0  0  0  0  0  1  0  0  0  0  0  0
  188.8680  177.6780  138.1230 C   0  0  2  0  0  3  0  0  0  0  0  0
  186.7520  177.8570  136.7550 N   0  0  0  0  0  2  0  0  0  0  0  0
  187.6340  175.7740  137.3350 O   0  0  0  0  0  0  0  0  0  0  0  0
  187.7250  177.0320  137.3980 C   0  0  0  0  0  0  0  0  0  0  0  0
  184.7660  176.8500  135.3980 C   0  0  0  0  0  3  0  0  0  0  0  0
  185.6840  177.3150  136.0250 C   0  0  0  0  0  0  0  0  0  0  0  0
  190.3310  176.6070  139.8930 C   0  0  0  0  0  2  0  0  0  0  0  0
  192.4120  175.9390  138.7460 C   0  0  1  0  0  3  0  0  0  0  0  0
  192.7000  177.2080  139.5250 C   0  0  0  0  0  2  0  0  0  0  0  0
  191.3570  177.0240  138.8560 C   0  0  2  0  0  3  0  0  0  0  0  0
  194.4200  175.7550  137.2690 O   0  0  0  0  0  1  0  0  0  0  0  0
  193.0600  176.0030  137.4020 C   0  0  0  0  0  0  0  0  0  0  0  0
  192.3660  176.2420  136.3780 O   0  0  0  0  0  0  0  0  0  0  0  0
  1  8  1  0  0  0  0
  2  4  1  0  0  0  0
  3 16  1  6  0  0  0
  3  9  1  0  0  0  0
  3  1  1  0  0  0  0
  4  7  2  0  0  0  0
  5  2  1  0  0  0  0
  6 13  1  0  0  0  0
  6 12  1  0  0  0  0
  8 12  1  0  0  0  0
  8  2  2  0  0  0  0
  9  6  1  0  0  0  0
 10  9  2  0  0  0  0
 11  7  1  0  0  0  0
 12 11  2  0  0  0  0
 13 14  1  0  0  0  0
 14 15  1  0  0  0  0
 16 24  1  1  0  0  0
 18 17  1  1  0  0  0
 18 16  1  0  0  0  0
 19 21  1  0  0  0  0
 20 21  2  0  0  0  0
 21 18  1  0  0  0  0
 22 23  3  0  0  0  0
 23 19  1  0  0  0  0
 25 29  1  6  0  0  0
 25 27  1  0  0  0  0
 25 26  1  0  0  0  0
 27 26  1  0  0  0  0
 27 24  1  1  0  0  0
 28 29  1  0  0  0  0
 30 29  2  0  0  0  0
M  END
>  <MODEL>
4

>  <REMARK>
 VINA RESULT:      -7.0      3.308      8.215
  Name = 
  9 active torsions:
  status: ('A' for Active; 'I' for Inactive)
    1  A    between atoms: C_3  and  C_11
    2  A    between atoms: C_3  and  N_19
    3  A    between atoms: C_4  and  C_13
    4  A    between atoms: N_5  and  C_21
    5  A    between atoms: C_7  and  C_15
    6  A    between atoms: C_8  and  C_12
    7  A    between atoms: C_8  and  C_13
    8  A    between atoms: C_13  and  C_27
    9  A    between atoms: C_27  and  C_30
                            x       y       z     vdW  Elec       q    Type
                         _______ _______ _______ _____ _____    ______ ____

>  <TORSDO>
F 9

$$$$
=
 OpenBabel10272413563D

 30 32  0  0  1  0  0  0  0  0999 V2000
  185.5330  178.9260  143.0570 N   0  0  0  0  0  2  0  0  0  0  0  0
  183.1220  178.9090  143.5070 C   0  0  0  0  0  0  0  0  0  0  0  0
  186.7030  178.7310  142.2080 C   0  0  2  0  0  3  0  0  0  0  0  0
  181.8030  178.8140  143.0550 C   0  0  0  0  0  3  0  0  0  0  0  0
  183.4160  179.1010  145.2270 Cl  0  0  0  0  0  0  0  0  0  0  0  0
  185.0150  178.6570  140.2770 N   0  0  0  0  0  0  0  0  0  0  0  0
  181.5380  178.6640  141.6940 C   0  0  0  0  0  3  0  0  0  0  0  0
  184.1850  178.8450  142.5910 C   0  0  0  0  0  0  0  0  0  0  0  0
  186.3770  178.7180  140.7360 C   0  0  0  0  0  0  0  0  0  0  0  0
  187.3220  178.7880  139.9040 O   0  0  0  0  0  0  0  0  0  0  0  0
  182.5920  178.6080  140.7800 C   0  0  0  0  0  3  0  0  0  0  0  0
  183.9240  178.6970  141.2180 C   0  0  0  0  0  0  0  0  0  0  0  0
  184.7470  178.6490  138.8370 C   0  0  0  0  0  2  0  0  0  0  0  0
  184.4920  177.2350  138.3400 C   0  0  0  0  0  2  0  0  0  0  0  0
  185.0140  177.0730  136.9270 C   0  0  0  0  0  1  0  0  0  0  0  0
  187.5590  177.5510  142.7110 C   0  0  1  0  0  3  0  0  0  0  0  0
  189.5480  179.1800  142.6400 C   0  0  0  0  0  1  0  0  0  0  0  0
  189.0900  177.7280  142.6890 C   0  0  2  0  0  3  0  0  0  0  0  0
  189.8210  177.2820  140.3130 N   0  0  0  0  0  2  0  0  0  0  0  0
  190.3360  175.7840  142.0290 O   0  0  0  0  0  0  0  0  0  0  0  0
  189.7780  176.8610  141.6780 C   0  0  0  0  0  0  0  0  0  0  0  0
  191.0560  175.9010  138.4780 C   0  0  0  0  0  3  0  0  0  0  0  0
  190.4850  176.5390  139.3270 C   0  0  0  0  0  0  0  0  0  0  0  0
  187.0760  177.0290  144.0590 C   0  0  0  0  0  2  0  0  0  0  0  0
  187.4210  177.0510  146.5020 C   0  0  1  0  0  3  0  0  0  0  0  0
  186.8670  178.4060  146.1010 C   0  0  0  0  0  2  0  0  0  0  0  0
  187.8390  177.6890  145.1910 C   0  0  2  0  0  3  0  0  0  0  0  0
  188.2080  177.6580  148.7960 O   0  0  0  0  0  1  0  0  0  0  0  0
  188.5080  177.2200  147.5120 C   0  0  0  0  0  0  0  0  0  0  0  0
  189.6960  176.9250  147.2150 O   0  0  0  0  0  0  0  0  0  0  0  0
  2  5  1  0  0  0  0
  3 16  1  1  0  0  0
  3  1  1  0  0  0  0
  4  2  1  0  0  0  0
  6  9  1  0  0  0  0
  6 12  1  0  0  0  0
  7  4  2  0  0  0  0
  8  1  1  0  0  0  0
  8  2  2  0  0  0  0
  9  3  1  0  0  0  0
 10  9  2  0  0  0  0
 11 12  2  0  0  0  0
 11  7  1  0  0  0  0
 12  8  1  0  0  0  0
 13  6  1  0  0  0  0
 14 13  1  0  0  0  0
 15 14  1  0  0  0  0
 16 24  1  1  0  0  0
 18 17  1  6  0  0  0
 18 16  1  0  0  0  0
 19 21  1  0  0  0  0
 21 20  2  0  0  0  0
 21 18  1  0  0  0  0
 22 23  3  0  0  0  0
 23 19  1  0  0  0  0
 25 29  1  1  0  0  0
 26 25  1  0  0  0  0
 27 24  1  6  0  0  0
 27 26  1  0  0  0  0
 27 25  1  0  0  0  0
 29 28  1  0  0  0  0
 30 29  2  0  0  0  0
M  END
>  <MODEL>
5

>  <REMARK>
 VINA RESULT:      -6.8      2.555      4.812
  Name = 
  9 active torsions:
  status: ('A' for Active; 'I' for Inactive)
    1  A    between atoms: C_3  and  C_11
    2  A    between atoms: C_3  and  N_19
    3  A    between atoms: C_4  and  C_13
    4  A    between atoms: N_5  and  C_21
    5  A    between atoms: C_7  and  C_15
    6  A    between atoms: C_8  and  C_12
    7  A    between atoms: C_8  and  C_13
    8  A    between atoms: C_13  and  C_27
    9  A    between atoms: C_27  and  C_30
                            x       y       z     vdW  Elec       q    Type
                         _______ _______ _______ _____ _____    ______ ____

>  <TORSDO>
F 9

$$$$
=
 OpenBabel10272413563D

 30 32  0  0  1  0  0  0  0  0999 V2000
  187.9020  176.9310  144.6390 N   0  0  0  0  0  2  0  0  0  0  0  0
  187.0760  177.8690  146.7500 C   0  0  0  0  0  0  0  0  0  0  0  0
  188.9560  176.5510  143.7050 C   0  0  2  0  0  3  0  0  0  0  0  0
  187.3120  178.3360  148.0460 C   0  0  0  0  0  3  0  0  0  0  0  0
  185.4360  177.8970  146.1240 Cl  0  0  0  0  0  0  0  0  0  0  0  0
  190.5360  176.8630  145.7020 N   0  0  0  0  0  0  0  0  0  0  0  0
  188.6050  178.3240  148.5710 C   0  0  0  0  0  3  0  0  0  0  0  0
  188.1430  177.3940  145.9700 C   0  0  0  0  0  0  0  0  0  0  0  0
  190.3090  176.4140  144.3540 C   0  0  0  0  0  0  0  0  0  0  0  0
  191.2430  175.8700  143.7030 O   0  0  0  0  0  0  0  0  0  0  0  0
  189.6660  177.8440  147.8010 C   0  0  0  0  0  3  0  0  0  0  0  0
  189.4470  177.3750  146.4940 C   0  0  0  0  0  0  0  0  0  0  0  0
  191.8670  176.7070  146.2920 C   0  0  0  0  0  2  0  0  0  0  0  0
  191.9430  175.4430  147.1340 C   0  0  0  0  0  2  0  0  0  0  0  0
  192.7920  175.6820  148.3650 C   0  0  0  0  0  1  0  0  0  0  0  0
  188.9110  177.4270  142.4360 C   0  0  1  0  0  3  0  0  0  0  0  0
  191.2680  178.1750  141.7320 C   0  0  0  0  0  1  0  0  0  0  0  0
  190.0720  177.2800  141.4340 C   0  0  2  0  0  3  0  0  0  0  0  0
  189.2800  178.6030  139.4340 N   0  0  0  0  0  2  0  0  0  0  0  0
  189.6080  176.2940  139.2940 O   0  0  0  0  0  0  0  0  0  0  0  0
  189.6370  177.3410  140.0010 C   0  0  0  0  0  0  0  0  0  0  0  0
  188.5840  178.8450  136.9320 C   0  0  0  0  0  3  0  0  0  0  0  0
  188.9060  178.7340  138.0880 C   0  0  0  0  0  0  0  0  0  0  0  0
  187.5570  177.3530  141.7400 C   0  0  0  0  0  2  0  0  0  0  0  0
  185.2500  178.1600  142.0800 C   0  0  1  0  0  3  0  0  0  0  0  0
  185.8380  178.9220  140.9070 C   0  0  0  0  0  2  0  0  0  0  0  0
  186.7120  178.5630  142.0880 C   0  0  2  0  0  3  0  0  0  0  0  0
  183.0930  178.9370  143.0760 O   0  0  0  0  0  0  0  0  0  0  0  0
  184.4690  179.0850  142.9530 C   0  0  0  0  0  0  0  0  0  0  0  0
  185.0610  179.9790  143.6150 O   0  0  0  0  0  1  0  0  0  0  0  0
  1  8  1  0  0  0  0
  2  4  1  0  0  0  0
  3 16  1  6  0  0  0
  3  9  1  0  0  0  0
  3  1  1  0  0  0  0
  4  7  2  0  0  0  0
  5  2  1  0  0  0  0
  6 13  1  0  0  0  0
  6 12  1  0  0  0  0
  8 12  1  0  0  0  0
  8  2  2  0  0  0  0
  9  6  1  0  0  0  0
 10  9  2  0  0  0  0
 11  7  1  0  0  0  0
 12 11  2  0  0  0  0
 13 14  1  0  0  0  0
 14 15  1  0  0  0  0
 16 24  1  6  0  0  0
 18 17  1  1  0  0  0
 18 16  1  0  0  0  0
 19 21  1  0  0  0  0
 20 21  2  0  0  0  0
 21 18  1  0  0  0  0
 22 23  3  0  0  0  0
 23 19  1  0  0  0  0
 25 27  1  0  0  0  0
 25 29  1  1  0  0  0
 26 25  1  0  0  0  0
 26 27  1  0  0  0  0
 27 24  1  6  0  0  0
 29 28  2  0  0  0  0
 29 30  1  0  0  0  0
M  END
>  <MODEL>
6

>  <REMARK>
 VINA RESULT:      -6.7      2.341      6.608
  Name = 
  9 active torsions:
  status: ('A' for Active; 'I' for Inactive)
    1  A    between atoms: C_3  and  C_11
    2  A    between atoms: C_3  and  N_19
    3  A    between atoms: C_4  and  C_13
    4  A    between atoms: N_5  and  C_21
    5  A    between atoms: C_7  and  C_15
    6  A    between atoms: C_8  and  C_12
    7  A    between atoms: C_8  and  C_13
    8  A    between atoms: C_13  and  C_27
    9  A    between atoms: C_27  and  C_30
                            x       y       z     vdW  Elec       q    Type
                         _______ _______ _______ _____ _____    ______ ____

>  <TORSDO>
F 9

$$$$
=
 OpenBabel10272413563D

 30 32  0  0  1  0  0  0  0  0999 V2000
  187.5690  178.4000  139.9230 N   0  0  0  0  0  2  0  0  0  0  0  0
  185.9600  178.0500  138.1050 C   0  0  0  0  0  0  0  0  0  0  0  0
  188.7730  178.0750  140.6800 C   0  0  2  0  0  3  0  0  0  0  0  0
  185.5980  177.4260  136.9080 C   0  0  0  0  0  3  0  0  0  0  0  0
  184.8340  179.1690  138.8530 Cl  0  0  0  0  0  0  0  0  0  0  0  0
  189.3830  176.6140  138.6600 N   0  0  0  0  0  0  0  0  0  0  0  0
  186.4730  176.5330  136.2890 C   0  0  0  0  0  3  0  0  0  0  0  0
  187.2060  177.7730  138.6910 C   0  0  0  0  0  0  0  0  0  0  0  0
  189.7510  177.2240  139.9100 C   0  0  0  0  0  0  0  0  0  0  0  0
  190.9170  177.0740  140.3680 O   0  0  0  0  0  0  0  0  0  0  0  0
  187.7160  176.2620  136.8650 C   0  0  0  0  0  3  0  0  0  0  0  0
  188.0950  176.8770  138.0710 C   0  0  0  0  0  0  0  0  0  0  0  0
  190.3670  175.7980  137.9470 C   0  0  0  0  0  2  0  0  0  0  0  0
  191.2900  176.6690  137.1090 C   0  0  0  0  0  2  0  0  0  0  0  0
  192.7200  176.1820  137.2250 C   0  0  0  0  0  1  0  0  0  0  0  0
  188.4170  177.5690  142.0920 C   0  0  1  0  0  3  0  0  0  0  0  0
  189.7190  175.5580  143.0280 C   0  0  0  0  0  1  0  0  0  0  0  0
  189.5760  177.0740  142.9790 C   0  0  2  0  0  3  0  0  0  0  0  0
  188.9420  177.0590  145.4240 N   0  0  0  0  0  2  0  0  0  0  0  0
  190.2250  178.7930  144.5260 O   0  0  0  0  0  0  0  0  0  0  0  0
  189.6040  177.7090  144.3370 C   0  0  0  0  0  0  0  0  0  0  0  0
  188.9880  178.0260  147.8460 C   0  0  0  0  0  3  0  0  0  0  0  0
  188.9670  177.5790  146.7270 C   0  0  0  0  0  0  0  0  0  0  0  0
  187.5190  178.5480  142.8400 C   0  0  0  0  0  2  0  0  0  0  0  0
  185.1960  179.0640  143.4920 C   0  0  1  0  0  3  0  0  0  0  0  0
  185.7340  178.0400  144.4730 C   0  0  0  0  0  2  0  0  0  0  0  0
  186.1290  177.9670  143.0150 C   0  0  2  0  0  3  0  0  0  0  0  0
  182.7750  178.8070  144.0630 O   0  0  0  0  0  1  0  0  0  0  0  0
  183.7900  178.7270  143.1180 C   0  0  0  0  0  0  0  0  0  0  0  0
  183.5130  178.4070  141.9310 O   0  0  0  0  0  0  0  0  0  0  0  0
  1  3  1  0  0  0  0
  2  8  1  0  0  0  0
  2  5  1  0  0  0  0
  3 16  1  1  0  0  0
  4  2  2  0  0  0  0
  6  9  1  0  0  0  0
  7 11  2  0  0  0  0
  7  4  1  0  0  0  0
  8  1  1  0  0  0  0
  9 10  2  0  0  0  0
  9  3  1  0  0  0  0
 11 12  1  0  0  0  0
 12  6  1  0  0  0  0
 12  8  2  0  0  0  0
 13  6  1  0  0  0  0
 14 15  1  0  0  0  0
 14 13  1  0  0  0  0
 16 24  1  1  0  0  0
 16 18  1  0  0  0  0
 18 17  1  1  0  0  0
 18 21  1  0  0  0  0
 19 23  1  0  0  0  0
 21 20  2  0  0  0  0
 21 19  1  0  0  0  0
 23 22  3  0  0  0  0
 25 29  1  6  0  0  0
 25 26  1  0  0  0  0
 27 24  1  1  0  0  0
 27 25  1  0  0  0  0
 27 26  1  0  0  0  0
 29 28  1  0  0  0  0
 30 29  2  0  0  0  0
M  END
>  <MODEL>
7

>  <REMARK>
 VINA RESULT:      -6.6      1.966      2.507
  Name = 
  9 active torsions:
  status: ('A' for Active; 'I' for Inactive)
    1  A    between atoms: C_3  and  C_11
    2  A    between atoms: C_3  and  N_19
    3  A    between atoms: C_4  and  C_13
    4  A    between atoms: N_5  and  C_21
    5  A    between atoms: C_7  and  C_15
    6  A    between atoms: C_8  and  C_12
    7  A    between atoms: C_8  and  C_13
    8  A    between atoms: C_13  and  C_27
    9  A    between atoms: C_27  and  C_30
                            x       y       z     vdW  Elec       q    Type
                         _______ _______ _______ _____ _____    ______ ____

>  <TORSDO>
F 9

$$$$
=
 OpenBabel10272413563D

 30 32  0  0  1  0  0  0  0  0999 V2000
  186.4960  178.8970  142.8390 N   0  0  0  0  0  2  0  0  0  0  0  0
  184.8150  178.9070  144.6260 C   0  0  0  0  0  0  0  0  0  0  0  0
  186.9350  178.7000  141.4620 C   0  0  2  0  0  3  0  0  0  0  0  0
  183.4820  178.8400  145.0380 C   0  0  0  0  0  3  0  0  0  0  0  0
  186.0720  179.0640  145.8410 Cl  0  0  0  0  0  0  0  0  0  0  0  0
  184.4320  178.6860  140.8990 N   0  0  0  0  0  0  0  0  0  0  0  0
  182.4610  178.7170  144.0950 C   0  0  0  0  0  3  0  0  0  0  0  0
  185.1310  178.8440  143.2580 C   0  0  0  0  0  0  0  0  0  0  0  0
  185.8030  178.7180  140.4660 C   0  0  0  0  0  0  0  0  0  0  0  0
  186.0770  178.7900  139.2370 O   0  0  0  0  0  0  0  0  0  0  0  0
  182.7720  178.6620  142.7350 C   0  0  0  0  0  3  0  0  0  0  0  0
  184.1070  178.7240  142.3030 C   0  0  0  0  0  0  0  0  0  0  0  0
  183.3660  178.7080  139.8950 C   0  0  0  0  0  2  0  0  0  0  0  0
  182.8670  177.3010  139.6020 C   0  0  0  0  0  2  0  0  0  0  0  0
  183.3710  176.8360  138.2520 C   0  0  0  0  0  1  0  0  0  0  0  0
  187.8970  177.4990  141.3560 C   0  0  1  0  0  3  0  0  0  0  0  0
  189.3550  179.0940  139.9610 C   0  0  0  0  0  1  0  0  0  0  0  0
  189.1610  177.6800  140.4940 C   0  0  2  0  0  3  0  0  0  0  0  0
  188.3600  176.5490  138.3820 N   0  0  0  0  0  2  0  0  0  0  0  0
  190.3040  175.8360  139.4630 O   0  0  0  0  0  0  0  0  0  0  0  0
  189.3200  176.6280  139.4370 C   0  0  0  0  0  0  0  0  0  0  0  0
  188.5740  174.8160  136.4460 C   0  0  0  0  0  3  0  0  0  0  0  0
  188.4750  175.6170  137.3410 C   0  0  0  0  0  0  0  0  0  0  0  0
  188.2300  176.9130  142.7230 C   0  0  0  0  0  2  0  0  0  0  0  0
  189.9050  176.9190  144.5350 C   0  0  1  0  0  3  0  0  0  0  0  0
  189.8530  178.3170  143.9490 C   0  0  0  0  0  2  0  0  0  0  0  0
  189.6980  177.1150  143.0450 C   0  0  2  0  0  3  0  0  0  0  0  0
  191.9530  176.9250  145.9700 O   0  0  0  0  0  1  0  0  0  0  0  0
  191.3210  176.5250  144.7990 C   0  0  0  0  0  0  0  0  0  0  0  0
  191.9350  175.7940  143.9770 O   0  0  0  0  0  0  0  0  0  0  0  0
  1  8  1  0  0  0  0
  2  4  1  0  0  0  0
  2  5  1  0  0  0  0
  3 16  1  1  0  0  0
  3  1  1  0  0  0  0
  6 12  1  0  0  0  0
  7  4  2  0  0  0  0
  8  2  2  0  0  0  0
  9  6  1  0  0  0  0
  9  3  1  0  0  0  0
 10  9  2  0  0  0  0
 11  7  1  0  0  0  0
 12 11  2  0  0  0  0
 12  8  1  0  0  0  0
 13  6  1  0  0  0  0
 14 13  1  0  0  0  0
 15 14  1  0  0  0  0
 16 24  1  1  0  0  0
 18 17  1  6  0  0  0
 18 16  1  0  0  0  0
 19 21  1  0  0  0  0
 21 20  2  0  0  0  0
 21 18  1  0  0  0  0
 22 23  3  0  0  0  0
 23 19  1  0  0  0  0
 25 29  1  6  0  0  0
 26 25  1  0  0  0  0
 27 24  1  1  0  0  0
 27 26  1  0  0  0  0
 27 25  1  0  0  0  0
 29 28  1  0  0  0  0
 30 29  2  0  0  0  0
M  END
>  <MODEL>
8

>  <REMARK>
 VINA RESULT:      -6.5      2.829      6.207
  Name = 
  9 active torsions:
  status: ('A' for Active; 'I' for Inactive)
    1  A    between atoms: C_3  and  C_11
    2  A    between atoms: C_3  and  N_19
    3  A    between atoms: C_4  and  C_13
    4  A    between atoms: N_5  and  C_21
    5  A    between atoms: C_7  and  C_15
    6  A    between atoms: C_8  and  C_12
    7  A    between atoms: C_8  and  C_13
    8  A    between atoms: C_13  and  C_27
    9  A    between atoms: C_27  and  C_30
                            x       y       z     vdW  Elec       q    Type
                         _______ _______ _______ _____ _____    ______ ____

>  <TORSDO>
F 9

$$$$
=
 OpenBabel10272413563D

 30 32  0  0  1  0  0  0  0  0999 V2000
  186.5920  178.8630  140.5920 N   0  0  0  0  0  2  0  0  0  0  0  0
  188.8220  177.8700  140.8450 C   0  0  0  0  0  0  0  0  0  0  0  0
  185.2090  179.0830  140.9990 C   0  0  2  0  0  3  0  0  0  0  0  0
  189.7570  177.1630  141.6060 C   0  0  0  0  0  3  0  0  0  0  0  0
  189.2610  178.3840  139.2250 Cl  0  0  0  0  0  0  0  0  0  0  0  0
  185.9330  178.0500  143.2340 N   0  0  0  0  0  0  0  0  0  0  0  0
  189.4370  176.7440  142.8970 C   0  0  0  0  0  3  0  0  0  0  0  0
  187.5530  178.1530  141.3780 C   0  0  0  0  0  0  0  0  0  0  0  0
  184.9510  178.7460  142.4460 C   0  0  0  0  0  0  0  0  0  0  0  0
  183.8630  179.1100  142.9700 O   0  0  0  0  0  0  0  0  0  0  0  0
  188.1800  177.0310  143.4320 C   0  0  0  0  0  3  0  0  0  0  0  0
  187.2260  177.7370  142.6800 C   0  0  0  0  0  0  0  0  0  0  0  0
  185.6390  177.7470  144.6360 C   0  0  0  0  0  2  0  0  0  0  0  0
  185.8810  178.9630  145.5170 C   0  0  0  0  0  2  0  0  0  0  0  0
  185.6200  178.6210  146.9680 C   0  0  0  0  0  1  0  0  0  0  0  0
  184.2300  178.4580  139.9850 C   0  0  1  0  0  3  0  0  0  0  0  0
  181.7480  177.8200  140.2080 C   0  0  0  0  0  1  0  0  0  0  0  0
  182.7660  178.9390  140.0260 C   0  0  2  0  0  3  0  0  0  0  0  0
  181.4470  179.4710  137.9390 N   0  0  0  0  0  2  0  0  0  0  0  0
  182.9420  181.0210  138.8430 O   0  0  0  0  0  0  0  0  0  0  0  0
  182.4130  179.8760  138.9110 C   0  0  0  0  0  0  0  0  0  0  0  0
  180.6930  181.0440  136.0010 C   0  0  0  0  0  3  0  0  0  0  0  0
  181.0420  180.3170  136.8970 C   0  0  0  0  0  0  0  0  0  0  0  0
  184.7870  178.4790  138.5660 C   0  0  0  0  0  2  0  0  0  0  0  0
  185.4600  177.1030  136.6320 C   0  0  1  0  0  3  0  0  0  0  0  0
  183.9490  177.2290  136.6060 C   0  0  0  0  0  2  0  0  0  0  0  0
  184.6730  177.1080  137.9280 C   0  0  2  0  0  3  0  0  0  0  0  0
  186.1640  175.3610  134.9830 O   0  0  0  0  0  0  0  0  0  0  0  0
  185.8650  175.7060  136.2950 C   0  0  0  0  0  0  0  0  0  0  0  0
  185.9770  174.8450  137.2080 O   0  0  0  0  0  1  0  0  0  0  0  0
  1  3  1  0  0  0  0
  1  8  1  0  0  0  0
  2  8  2  0  0  0  0
  2  4  1  0  0  0  0
  3 16  1  6  0  0  0
  3  9  1  0  0  0  0
  4  7  2  0  0  0  0
  5  2  1  0  0  0  0
  6 13  1  0  0  0  0
  7 11  1  0  0  0  0
  8 12  1  0  0  0  0
  9 10  2  0  0  0  0
  9  6  1  0  0  0  0
 12  6  1  0  0  0  0
 12 11  2  0  0  0  0
 13 14  1  0  0  0  0
 14 15  1  0  0  0  0
 16 24  1  6  0  0  0
 16 18  1  0  0  0  0
 18 17  1  6  0  0  0
 19 21  1  0  0  0  0
 20 21  2  0  0  0  0
 21 18  1  0  0  0  0
 22 23  3  0  0  0  0
 23 19  1  0  0  0  0
 25 29  1  6  0  0  0
 25 27  1  0  0  0  0
 26 25  1  0  0  0  0
 26 27  1  0  0  0  0
 27 24  1  1  0  0  0
 28 29  2  0  0  0  0
 29 30  1  0  0  0  0
M  END
>  <MODEL>
9

>  <REMARK>
 VINA RESULT:      -6.2      3.924      8.890
  Name = 
  9 active torsions:
  status: ('A' for Active; 'I' for Inactive)
    1  A    between atoms: C_3  and  C_11
    2  A    between atoms: C_3  and  N_19
    3  A    between atoms: C_4  and  C_13
    4  A    between atoms: N_5  and  C_21
    5  A    between atoms: C_7  and  C_15
    6  A    between atoms: C_8  and  C_12
    7  A    between atoms: C_8  and  C_13
    8  A    between atoms: C_13  and  C_27
    9  A    between atoms: C_27  and  C_30
                            x       y       z     vdW  Elec       q    Type
                         _______ _______ _______ _____ _____    ______ ____

>  <TORSDO>
F 9

$$$$
