=
 OpenBabel10272413143D

 32 37  0  0  1  0  0  0  0  0999 V2000
  189.8750  177.0770  142.8610 C   0  0  0  0  0  0  0  0  0  0  0  0
  188.0700  177.9230  144.3450 C   0  0  2  0  0  3  0  0  0  0  0  0
  191.1630  176.5570  142.6760 C   0  0  0  0  0  3  0  0  0  0  0  0
  189.3880  177.2510  144.1660 C   0  0  0  0  0  0  0  0  0  0  0  0
  187.4780  177.7260  145.7120 C   0  0  0  0  0  0  0  0  0  0  0  0
  183.6230  178.8400  142.6450 C   0  0  0  0  0  3  0  0  0  0  0  0
  187.1160  177.4350  143.2610 C   0  0  2  0  0  3  0  0  0  0  0  0
  184.0430  178.7530  145.0340 C   0  0  0  0  0  3  0  0  0  0  0  0
  185.3310  178.2680  144.7920 C   0  0  0  0  0  0  0  0  0  0  0  0
  190.1530  176.8820  145.2810 C   0  0  0  0  0  0  0  0  0  0  0  0
  186.2070  177.9590  145.8960 N   0  0  0  0  0  0  0  0  0  0  0  0
  189.6040  177.0020  146.6060 N   0  0  0  0  0  0  0  0  0  0  0  0
  191.4350  176.3590  145.0860 C   0  0  0  0  0  3  0  0  0  0  0  0
  187.7100  177.6640  141.9390 N   0  0  0  0  0  0  0  0  0  0  0  0
  188.9820  177.4350  141.7220 C   0  0  0  0  0  0  0  0  0  0  0  0
  185.7700  178.0730  143.4610 C   0  0  0  0  0  0  0  0  0  0  0  0
  188.3740  177.3810  146.8360 C   0  0  0  0  0  0  0  0  0  0  0  0
  191.9400  176.2040  143.7880 C   0  0  0  0  0  3  0  0  0  0  0  0
  183.1930  179.0450  143.9610 C   0  0  0  0  0  3  0  0  0  0  0  0
  184.9050  178.3440  142.3940 C   0  0  0  0  0  3  0  0  0  0  0  0
  187.8040  177.3040  138.5030 C   0  0  1  0  0  3  0  0  0  0  0  0
  190.5120  176.0440  136.3500 O   0  0  0  0  0  0  0  0  0  0  0  0
  186.4820  177.8780  138.0350 C   0  0  0  0  0  1  0  0  0  0  0  0
  190.8240  176.6200  138.6310 C   0  0  0  0  0  2  0  0  0  0  0  0
  189.5490  177.6300  140.3490 C   0  0  1  0  0  3  0  0  0  0  0  0
  188.6270  176.9620  137.3440 N   0  0  0  0  0  2  0  0  0  0  0  0
  190.0380  176.3540  139.8250 N   0  0  0  0  0  2  0  0  0  0  0  0
  188.5050  178.2950  139.4380 C   0  0  1  0  0  3  0  0  0  0  0  0
  189.0880  179.3430  138.7200 O   0  0  0  0  0  1  0  0  0  0  0  0
  189.9820  176.4970  137.3960 C   0  0  0  0  0  0  0  0  0  0  0  0
  187.8850  177.4430  148.1780 N   0  0  0  0  0  2  0  0  0  0  0  0
  188.1630  178.4040  148.9240 O   0  0  0  0  0  1  0  0  0  0  0  0
  1  4  1  0  0  0  0
  2  4  1  1  0  0  0
  2  5  1  0  0  0  0
  3  1  2  0  0  0  0
  3 18  1  0  0  0  0
  4 10  2  0  0  0  0
  5 11  2  0  0  0  0
  5 17  1  0  0  0  0
  6 19  1  0  0  0  0
  7 14  1  6  0  0  0
  7 16  1  0  0  0  0
  7  2  1  0  0  0  0
  9  8  1  0  0  0  0
  9 11  1  0  0  0  0
 10 12  1  0  0  0  0
 12 17  2  0  0  0  0
 13 10  1  0  0  0  0
 15 14  2  0  0  0  0
 15  1  1  0  0  0  0
 16  9  2  0  0  0  0
 17 31  1  0  0  0  0
 18 13  2  0  0  0  0
 19  8  2  0  0  0  0
 20  6  2  0  0  0  0
 20 16  1  0  0  0  0
 21 23  1  6  0  0  0
 21 28  1  0  0  0  0
 22 30  2  0  0  0  0
 24 27  1  0  0  0  0
 25 15  1  1  0  0  0
 26 30  1  0  0  0  0
 26 21  1  0  0  0  0
 27 25  1  0  0  0  0
 28 29  1  6  0  0  0
 28 25  1  0  0  0  0
 30 24  1  0  0  0  0
 31 32  1  0  0  0  0
M  END
>  <MODEL>
1

>  <REMARK>
 VINA RESULT:     -11.7      0.000      0.000
  Name = 
  2 active torsions:
  status: ('A' for Active; 'I' for Inactive)
    1  A    between atoms: N_13  and  C_29
    2  A    between atoms: C_16  and  C_27
                            x       y       z     vdW  Elec       q    Type
                         _______ _______ _______ _____ _____    ______ ____

>  <TORSDO>
F 2

$$$$
=
 OpenBabel10272413143D

 32 37  0  0  1  0  0  0  0  0999 V2000
  184.7880  178.7960  142.9540 C   0  0  0  0  0  0  0  0  0  0  0  0
  187.0190  177.7160  142.7690 C   0  0  2  0  0  3  0  0  0  0  0  0
  183.6850  179.2030  143.7170 C   0  0  0  0  0  3  0  0  0  0  0  0
  185.9110  178.2610  143.6040 C   0  0  0  0  0  0  0  0  0  0  0  0
  188.3010  177.5220  143.5280 C   0  0  0  0  0  0  0  0  0  0  0  0
  189.5810  177.8990  138.6570 C   0  0  0  0  0  3  0  0  0  0  0  0
  187.2290  178.6330  141.5700 C   0  0  2  0  0  3  0  0  0  0  0  0
  190.6100  177.1560  140.7260 C   0  0  0  0  0  3  0  0  0  0  0  0
  189.4710  177.5480  141.4360 C   0  0  0  0  0  0  0  0  0  0  0  0
  185.9600  178.1600  145.0010 C   0  0  0  0  0  0  0  0  0  0  0  0
  189.4180  177.3830  142.8680 N   0  0  0  0  0  0  0  0  0  0  0  0
  187.1510  177.6760  145.6490 N   0  0  0  0  0  0  0  0  0  0  0  0
  184.8570  178.5740  145.7550 C   0  0  0  0  0  3  0  0  0  0  0  0
  185.9670  178.7830  140.8340 N   0  0  0  0  0  0  0  0  0  0  0  0
  184.8300  178.9280  141.4690 C   0  0  0  0  0  0  0  0  0  0  0  0
  188.3750  178.1170  140.7460 C   0  0  0  0  0  0  0  0  0  0  0  0
  188.2460  177.3810  145.0000 C   0  0  0  0  0  0  0  0  0  0  0  0
  183.7210  179.0860  145.1130 C   0  0  0  0  0  3  0  0  0  0  0  0
  190.6620  177.3250  139.3380 C   0  0  0  0  0  3  0  0  0  0  0  0
  188.4440  178.3050  139.3600 C   0  0  0  0  0  3  0  0  0  0  0  0
  183.0390  177.1700  139.1310 C   0  0  1  0  0  3  0  0  0  0  0  0
  181.4780  179.5890  136.8360 O   0  0  0  0  0  0  0  0  0  0  0  0
  182.7660  175.6800  139.1820 C   0  0  0  0  0  1  0  0  0  0  0  0
  182.6040  180.2230  138.8260 C   0  0  0  0  0  2  0  0  0  0  0  0
  183.5650  179.1300  140.6920 C   0  0  1  0  0  3  0  0  0  0  0  0
  182.1850  177.7890  138.1180 N   0  0  0  0  0  2  0  0  0  0  0  0
  183.8600  179.7930  139.4210 N   0  0  0  0  0  2  0  0  0  0  0  0
  182.8350  177.7900  140.5170 C   0  0  1  0  0  3  0  0  0  0  0  0
  181.4760  177.9370  140.8100 O   0  0  0  0  0  1  0  0  0  0  0  0
  182.0880  179.1970  137.8630 C   0  0  0  0  0  0  0  0  0  0  0  0
  189.4030  176.9400  145.7130 N   0  0  0  0  0  2  0  0  0  0  0  0
  189.4310  176.9350  146.9600 O   0  0  0  0  0  1  0  0  0  0  0  0
  1  4  2  0  0  0  0
  1  3  1  0  0  0  0
  2  5  1  1  0  0  0
  2  4  1  0  0  0  0
  3 18  2  0  0  0  0
  4 10  1  0  0  0  0
  5 17  1  0  0  0  0
  6 19  2  0  0  0  0
  6 20  1  0  0  0  0
  7 16  1  6  0  0  0
  7  2  1  0  0  0  0
  8  9  2  0  0  0  0
  9 11  1  0  0  0  0
 10 12  1  0  0  0  0
 10 13  2  0  0  0  0
 11  5  2  0  0  0  0
 14 15  2  0  0  0  0
 14  7  1  0  0  0  0
 15  1  1  0  0  0  0
 16  9  1  0  0  0  0
 17 12  2  0  0  0  0
 17 31  1  0  0  0  0
 18 13  1  0  0  0  0
 19  8  1  0  0  0  0
 20 16  2  0  0  0  0
 21 23  1  1  0  0  0
 21 28  1  0  0  0  0
 22 30  2  0  0  0  0
 24 27  1  0  0  0  0
 25 15  1  6  0  0  0
 26 21  1  0  0  0  0
 27 25  1  0  0  0  0
 28 25  1  0  0  0  0
 28 29  1  6  0  0  0
 30 26  1  0  0  0  0
 30 24  1  0  0  0  0
 31 32  1  0  0  0  0
M  END
>  <MODEL>
2

>  <REMARK>
 VINA RESULT:     -11.3      3.124      5.904
  Name = 
  2 active torsions:
  status: ('A' for Active; 'I' for Inactive)
    1  A    between atoms: N_13  and  C_29
    2  A    between atoms: C_16  and  C_27
                            x       y       z     vdW  Elec       q    Type
                         _______ _______ _______ _____ _____    ______ ____

>  <TORSDO>
F 2

$$$$
=
 OpenBabel10272413143D

 32 37  0  0  1  0  0  0  0  0999 V2000
  185.8690  178.1070  144.3610 C   0  0  0  0  0  0  0  0  0  0  0  0
  188.1190  177.3880  143.5870 C   0  0  2  0  0  3  0  0  0  0  0  0
  184.9660  178.3980  145.3920 C   0  0  0  0  0  3  0  0  0  0  0  0
  187.2060  177.8200  144.6820 C   0  0  0  0  0  0  0  0  0  0  0  0
  189.5740  177.4700  143.9520 C   0  0  0  0  0  0  0  0  0  0  0  0
  189.3700  177.6110  138.9080 C   0  0  0  0  0  3  0  0  0  0  0  0
  187.8210  178.2150  142.3420 C   0  0  2  0  0  3  0  0  0  0  0  0
  191.0460  177.2310  140.6220 C   0  0  0  0  0  3  0  0  0  0  0  0
  190.0970  177.4970  141.6130 C   0  0  0  0  0  0  0  0  0  0  0  0
  187.6560  177.8530  146.0090 C   0  0  0  0  0  0  0  0  0  0  0  0
  190.4710  177.4540  143.0050 N   0  0  0  0  0  0  0  0  0  0  0  0
  189.0460  177.6260  146.3060 N   0  0  0  0  0  0  0  0  0  0  0  0
  186.7480  178.1500  147.0310 C   0  0  0  0  0  3  0  0  0  0  0  0
  186.4000  178.0950  141.9950 N   0  0  0  0  0  0  0  0  0  0  0  0
  185.4760  178.1120  142.9230 C   0  0  0  0  0  0  0  0  0  0  0  0
  188.7690  177.8190  141.2450 C   0  0  0  0  0  0  0  0  0  0  0  0
  189.9540  177.4540  145.3820 C   0  0  0  0  0  0  0  0  0  0  0  0
  185.4070  178.4140  146.7230 C   0  0  0  0  0  3  0  0  0  0  0  0
  190.6810  177.2820  139.2720 C   0  0  0  0  0  3  0  0  0  0  0  0
  188.4170  177.8910  139.8910 C   0  0  0  0  0  3  0  0  0  0  0  0
  183.5490  179.1840  140.2960 C   0  0  1  0  0  3  0  0  0  0  0  0
  180.2140  180.0400  141.6040 O   0  0  0  0  0  0  0  0  0  0  0  0
  183.9420  179.0990  138.8350 C   0  0  0  0  0  1  0  0  0  0  0  0
  181.8880  178.9700  142.9030 C   0  0  0  0  0  2  0  0  0  0  0  0
  184.0310  178.0380  142.5350 C   0  0  1  0  0  3  0  0  0  0  0  0
  182.1260  179.5030  140.4010 N   0  0  0  0  0  2  0  0  0  0  0  0
  183.3150  179.2060  143.0500 N   0  0  0  0  0  2  0  0  0  0  0  0
  183.9030  177.8760  141.0120 C   0  0  1  0  0  3  0  0  0  0  0  0
  182.9830  176.8680  140.7090 O   0  0  0  0  0  1  0  0  0  0  0  0
  181.3750  179.5570  141.6230 C   0  0  0  0  0  0  0  0  0  0  0  0
  191.3220  177.2690  145.7490 N   0  0  0  0  0  2  0  0  0  0  0  0
  191.6400  176.9170  146.9030 O   0  0  0  0  0  1  0  0  0  0  0  0
  1  4  2  0  0  0  0
  1  3  1  0  0  0  0
  2  5  1  1  0  0  0
  2  4  1  0  0  0  0
  3 18  2  0  0  0  0
  4 10  1  0  0  0  0
  5 17  1  0  0  0  0
  6 19  2  0  0  0  0
  6 20  1  0  0  0  0
  7 16  1  6  0  0  0
  7  2  1  0  0  0  0
  8  9  2  0  0  0  0
  9 11  1  0  0  0  0
 10 12  1  0  0  0  0
 10 13  2  0  0  0  0
 11  5  2  0  0  0  0
 14  7  1  0  0  0  0
 14 15  2  0  0  0  0
 15  1  1  0  0  0  0
 16  9  1  0  0  0  0
 17 31  1  0  0  0  0
 17 12  2  0  0  0  0
 18 13  1  0  0  0  0
 19  8  1  0  0  0  0
 20 16  2  0  0  0  0
 21 23  1  6  0  0  0
 21 26  1  0  0  0  0
 21 28  1  0  0  0  0
 22 30  2  0  0  0  0
 24 27  1  0  0  0  0
 25 15  1  6  0  0  0
 25 27  1  0  0  0  0
 26 30  1  0  0  0  0
 28 29  1  1  0  0  0
 28 25  1  0  0  0  0
 30 24  1  0  0  0  0
 31 32  1  0  0  0  0
M  END
>  <MODEL>
3

>  <REMARK>
 VINA RESULT:     -10.5      2.904      5.981
  Name = 
  2 active torsions:
  status: ('A' for Active; 'I' for Inactive)
    1  A    between atoms: N_13  and  C_29
    2  A    between atoms: C_16  and  C_27
                            x       y       z     vdW  Elec       q    Type
                         _______ _______ _______ _____ _____    ______ ____

>  <TORSDO>
F 2

$$$$
=
 OpenBabel10272413143D

 32 37  0  0  1  0  0  0  0  0999 V2000
  188.8330  177.8180  140.9710 C   0  0  0  0  0  0  0  0  0  0  0  0
  188.7810  178.1980  143.4270 C   0  0  2  0  0  3  0  0  0  0  0  0
  189.5360  177.5440  139.7910 C   0  0  0  0  0  3  0  0  0  0  0  0
  189.5140  177.7800  142.1980 C   0  0  0  0  0  0  0  0  0  0  0  0
  189.4550  177.7730  144.7000 C   0  0  0  0  0  0  0  0  0  0  0  0
  184.5920  178.5040  145.8490 C   0  0  0  0  0  3  0  0  0  0  0  0
  187.3560  177.6610  143.3580 C   0  0  2  0  0  3  0  0  0  0  0  0
  186.6950  178.2610  147.0360 C   0  0  0  0  0  3  0  0  0  0  0  0
  187.3540  178.0280  145.8260 C   0  0  0  0  0  0  0  0  0  0  0  0
  190.8720  177.4420  142.2640 C   0  0  0  0  0  0  0  0  0  0  0  0
  188.7730  177.7680  145.8130 N   0  0  0  0  0  0  0  0  0  0  0  0
  191.5310  177.3390  143.5400 N   0  0  0  0  0  0  0  0  0  0  0  0
  191.5650  177.1650  141.0800 C   0  0  0  0  0  3  0  0  0  0  0  0
  186.7160  178.1140  142.1170 N   0  0  0  0  0  0  0  0  0  0  0  0
  187.3740  178.1270  140.9840 C   0  0  0  0  0  0  0  0  0  0  0  0
  186.6230  178.0390  144.6140 C   0  0  0  0  0  0  0  0  0  0  0  0
  190.9050  177.4790  144.6780 C   0  0  0  0  0  0  0  0  0  0  0  0
  190.8990  177.2240  139.8480 C   0  0  0  0  0  3  0  0  0  0  0  0
  185.3170  178.5060  147.0460 C   0  0  0  0  0  3  0  0  0  0  0  0
  185.2410  178.2600  144.6350 C   0  0  0  0  0  3  0  0  0  0  0  0
  184.3050  177.6020  139.5450 C   0  0  1  0  0  3  0  0  0  0  0  0
  184.7600  177.5140  135.8920 O   0  0  0  0  0  0  0  0  0  0  0  0
  182.9810  177.6300  140.2820 C   0  0  0  0  0  1  0  0  0  0  0  0
  186.4820  178.1310  137.4050 C   0  0  0  0  0  2  0  0  0  0  0  0
  186.6790  178.5450  139.7260 C   0  0  1  0  0  3  0  0  0  0  0  0
  184.0630  177.6210  138.1040 N   0  0  0  0  0  2  0  0  0  0  0  0
  186.9260  177.5640  138.6680 N   0  0  0  0  0  2  0  0  0  0  0  0
  185.1840  178.7720  140.0000 C   0  0  1  0  0  3  0  0  0  0  0  0
  184.7630  179.9740  139.4250 O   0  0  0  0  0  1  0  0  0  0  0  0
  185.0770  177.7130  137.0930 C   0  0  0  0  0  0  0  0  0  0  0  0
  191.6160  177.3280  145.9080 N   0  0  0  0  0  2  0  0  0  0  0  0
  192.1210  176.2340  146.2340 O   0  0  0  0  0  1  0  0  0  0  0  0
  1 15  1  0  0  0  0
  1  4  1  0  0  0  0
  2  4  1  6  0  0  0
  2  5  1  0  0  0  0
  3 18  1  0  0  0  0
  3  1  2  0  0  0  0
  4 10  2  0  0  0  0
  5 11  2  0  0  0  0
  6 19  1  0  0  0  0
  7 14  1  6  0  0  0
  7  2  1  0  0  0  0
  7 16  1  0  0  0  0
  8 19  2  0  0  0  0
  9  8  1  0  0  0  0
 10 12  1  0  0  0  0
 11  9  1  0  0  0  0
 12 17  2  0  0  0  0
 13 10  1  0  0  0  0
 15 14  2  0  0  0  0
 16 20  1  0  0  0  0
 16  9  2  0  0  0  0
 17  5  1  0  0  0  0
 17 31  1  0  0  0  0
 18 13  2  0  0  0  0
 20  6  2  0  0  0  0
 21 28  1  0  0  0  0
 21 23  1  1  0  0  0
 22 30  2  0  0  0  0
 24 27  1  0  0  0  0
 25 28  1  0  0  0  0
 25 15  1  1  0  0  0
 26 21  1  0  0  0  0
 27 25  1  0  0  0  0
 28 29  1  6  0  0  0
 30 24  1  0  0  0  0
 30 26  1  0  0  0  0
 31 32  1  0  0  0  0
M  END
>  <MODEL>
4

>  <REMARK>
 VINA RESULT:     -10.2      2.357      3.506
  Name = 
  2 active torsions:
  status: ('A' for Active; 'I' for Inactive)
    1  A    between atoms: N_13  and  C_29
    2  A    between atoms: C_16  and  C_27
                            x       y       z     vdW  Elec       q    Type
                         _______ _______ _______ _____ _____    ______ ____

>  <TORSDO>
F 2

$$$$
=
 OpenBabel10272413143D

 32 37  0  0  1  0  0  0  0  0999 V2000
  186.3350  178.3390  143.5140 C   0  0  0  0  0  0  0  0  0  0  0  0
  186.0820  178.8530  141.0960 C   0  0  2  0  0  3  0  0  0  0  0  0
  185.8020  178.2440  144.8060 C   0  0  0  0  0  3  0  0  0  0  0  0
  185.4790  178.6290  142.4400 C   0  0  0  0  0  0  0  0  0  0  0  0
  185.0870  178.7810  139.9730 C   0  0  0  0  0  0  0  0  0  0  0  0
  189.6080  177.8560  137.9200 C   0  0  0  0  0  3  0  0  0  0  0  0
  187.2120  177.8510  140.8890 C   0  0  2  0  0  3  0  0  0  0  0  0
  187.3810  178.4450  137.1550 C   0  0  0  0  0  3  0  0  0  0  0  0
  186.9070  178.3700  138.4680 C   0  0  0  0  0  0  0  0  0  0  0  0
  184.1000  178.7900  142.6340 C   0  0  0  0  0  0  0  0  0  0  0  0
  185.5150  178.6190  138.7510 N   0  0  0  0  0  0  0  0  0  0  0  0
  183.2330  179.0140  141.5070 N   0  0  0  0  0  0  0  0  0  0  0  0
  183.5760  178.6870  143.9270 C   0  0  0  0  0  3  0  0  0  0  0  0
  188.1800  177.9620  141.9860 N   0  0  0  0  0  0  0  0  0  0  0  0
  187.7810  178.1220  143.2240 C   0  0  0  0  0  0  0  0  0  0  0  0
  187.7970  178.0380  139.5170 C   0  0  0  0  0  0  0  0  0  0  0  0
  183.6560  179.0090  140.2700 C   0  0  0  0  0  0  0  0  0  0  0  0
  184.4260  178.4230  145.0090 C   0  0  0  0  0  3  0  0  0  0  0  0
  188.7300  178.1950  136.8830 C   0  0  0  0  0  3  0  0  0  0  0  0
  189.1400  177.7660  139.2340 C   0  0  0  0  0  3  0  0  0  0  0  0
  191.0320  177.1280  143.6780 C   0  0  1  0  0  3  0  0  0  0  0  0
  191.4410  176.1410  147.2020 O   0  0  0  0  0  0  0  0  0  0  0  0
  192.1430  177.2880  142.6590 C   0  0  0  0  0  1  0  0  0  0  0  0
  189.4840  177.1870  146.3610 C   0  0  0  0  0  2  0  0  0  0  0  0
  188.7910  178.1810  144.3290 C   0  0  1  0  0  3  0  0  0  0  0  0
  191.6070  176.7740  144.9750 N   0  0  0  0  0  2  0  0  0  0  0  0
  188.7010  176.9760  145.1540 N   0  0  0  0  0  2  0  0  0  0  0  0
  190.1950  178.4090  143.7470 C   0  0  1  0  0  3  0  0  0  0  0  0
  190.8580  179.4100  144.4630 O   0  0  0  0  0  1  0  0  0  0  0  0
  190.8730  176.6480  146.2010 C   0  0  0  0  0  0  0  0  0  0  0  0
  182.7320  179.2040  139.1980 N   0  0  0  0  0  2  0  0  0  0  0  0
  182.5450  180.3330  138.7010 O   0  0  0  0  0  1  0  0  0  0  0  0
  1  3  1  0  0  0  0
  2  5  1  6  0  0  0
  2  4  1  0  0  0  0
  3 18  2  0  0  0  0
  4 10  1  0  0  0  0
  4  1  2  0  0  0  0
  5 17  1  0  0  0  0
  6 20  1  0  0  0  0
  7 16  1  6  0  0  0
  7  2  1  0  0  0  0
  7 14  1  0  0  0  0
  8  9  2  0  0  0  0
  9 11  1  0  0  0  0
  9 16  1  0  0  0  0
 10 13  2  0  0  0  0
 11  5  2  0  0  0  0
 12 10  1  0  0  0  0
 13 18  1  0  0  0  0
 14 15  2  0  0  0  0
 15  1  1  0  0  0  0
 17 12  2  0  0  0  0
 19  8  1  0  0  0  0
 19  6  2  0  0  0  0
 20 16  2  0  0  0  0
 21 23  1  6  0  0  0
 21 28  1  0  0  0  0
 21 26  1  0  0  0  0
 25 15  1  6  0  0  0
 25 27  1  0  0  0  0
 26 30  1  0  0  0  0
 27 24  1  0  0  0  0
 28 25  1  0  0  0  0
 28 29  1  1  0  0  0
 30 24  1  0  0  0  0
 30 22  2  0  0  0  0
 31 17  1  0  0  0  0
 32 31  1  0  0  0  0
M  END
>  <MODEL>
5

>  <REMARK>
 VINA RESULT:      -9.8      2.577      7.031
  Name = 
  2 active torsions:
  status: ('A' for Active; 'I' for Inactive)
    1  A    between atoms: N_13  and  C_29
    2  A    between atoms: C_16  and  C_27
                            x       y       z     vdW  Elec       q    Type
                         _______ _______ _______ _____ _____    ______ ____

>  <TORSDO>
F 2

$$$$
=
 OpenBabel10272413143D

 32 37  0  0  1  0  0  0  0  0999 V2000
  186.6010  178.1800  145.0820 C   0  0  0  0  0  0  0  0  0  0  0  0
  185.6070  178.8020  142.8910 C   0  0  2  0  0  3  0  0  0  0  0  0
  186.4960  178.0110  146.4690 C   0  0  0  0  0  3  0  0  0  0  0  0
  185.4520  178.5000  144.3420 C   0  0  0  0  0  0  0  0  0  0  0  0
  184.3130  178.7600  142.1290 C   0  0  0  0  0  0  0  0  0  0  0  0
  187.9800  178.0380  138.7320 C   0  0  0  0  0  3  0  0  0  0  0  0
  186.6230  177.8370  142.2920 C   0  0  2  0  0  3  0  0  0  0  0  0
  185.6210  178.6120  138.7260 C   0  0  0  0  0  3  0  0  0  0  0  0
  185.5790  178.4630  140.1150 C   0  0  0  0  0  0  0  0  0  0  0  0
  184.2000  178.6200  144.9620 C   0  0  0  0  0  0  0  0  0  0  0  0
  184.3410  178.6660  140.8280 N   0  0  0  0  0  0  0  0  0  0  0  0
  183.0250  178.8780  144.1720 N   0  0  0  0  0  0  0  0  0  0  0  0
  184.1040  178.4440  146.3460 C   0  0  0  0  0  3  0  0  0  0  0  0
  187.8840  177.9180  143.0410 N   0  0  0  0  0  0  0  0  0  0  0  0
  187.8880  178.0100  144.3480 C   0  0  0  0  0  0  0  0  0  0  0  0
  186.7520  178.1030  140.8190 C   0  0  0  0  0  0  0  0  0  0  0  0
  183.0430  178.9410  142.8660 C   0  0  0  0  0  0  0  0  0  0  0  0
  185.2500  178.1480  147.0970 C   0  0  0  0  0  3  0  0  0  0  0  0
  186.8220  178.4060  138.0370 C   0  0  0  0  0  3  0  0  0  0  0  0
  187.9440  177.8760  140.1200 C   0  0  0  0  0  3  0  0  0  0  0  0
  191.0300  176.7090  143.9040 C   0  0  1  0  0  3  0  0  0  0  0  0
  192.4230  175.9390  147.2250 O   0  0  0  0  0  0  0  0  0  0  0  0
  191.7810  176.6750  142.5890 C   0  0  0  0  0  1  0  0  0  0  0  0
  190.3930  177.1260  146.9080 C   0  0  0  0  0  2  0  0  0  0  0  0
  189.1890  178.0400  145.0870 C   0  0  1  0  0  3  0  0  0  0  0  0
  191.9450  176.3890  144.9990 N   0  0  0  0  0  2  0  0  0  0  0  0
  189.2620  176.9130  146.0190 N   0  0  0  0  0  2  0  0  0  0  0  0
  190.3600  178.0740  144.0920 C   0  0  1  0  0  3  0  0  0  0  0  0
  191.2890  179.0470  144.4710 O   0  0  0  0  0  1  0  0  0  0  0  0
  191.6170  176.4310  146.3940 C   0  0  0  0  0  0  0  0  0  0  0  0
  181.8300  179.1650  142.1450 N   0  0  0  0  0  2  0  0  0  0  0  0
  180.8990  179.8340  142.6370 O   0  0  0  0  0  1  0  0  0  0  0  0
  1  3  1  0  0  0  0
  2  5  1  6  0  0  0
  2  4  1  0  0  0  0
  3 18  2  0  0  0  0
  4 10  1  0  0  0  0
  4  1  2  0  0  0  0
  5 17  1  0  0  0  0
  6 20  1  0  0  0  0
  7 16  1  6  0  0  0
  7  2  1  0  0  0  0
  7 14  1  0  0  0  0
  8  9  2  0  0  0  0
  9 16  1  0  0  0  0
  9 11  1  0  0  0  0
 10 13  2  0  0  0  0
 11  5  2  0  0  0  0
 12 10  1  0  0  0  0
 13 18  1  0  0  0  0
 14 15  2  0  0  0  0
 15  1  1  0  0  0  0
 17 12  2  0  0  0  0
 19  8  1  0  0  0  0
 19  6  2  0  0  0  0
 20 16  2  0  0  0  0
 21 23  1  6  0  0  0
 21 28  1  0  0  0  0
 21 26  1  0  0  0  0
 25 15  1  6  0  0  0
 25 27  1  0  0  0  0
 26 30  1  0  0  0  0
 27 24  1  0  0  0  0
 28 29  1  1  0  0  0
 28 25  1  0  0  0  0
 30 24  1  0  0  0  0
 30 22  2  0  0  0  0
 31 32  1  0  0  0  0
 31 17  1  0  0  0  0
M  END
>  <MODEL>
6

>  <REMARK>
 VINA RESULT:      -9.8      2.834      6.383
  Name = 
  2 active torsions:
  status: ('A' for Active; 'I' for Inactive)
    1  A    between atoms: N_13  and  C_29
    2  A    between atoms: C_16  and  C_27
                            x       y       z     vdW  Elec       q    Type
                         _______ _______ _______ _____ _____    ______ ____

>  <TORSDO>
F 2

$$$$
=
 OpenBabel10272413143D

 32 37  0  0  1  0  0  0  0  0999 V2000
  186.9500  178.3010  140.9040 C   0  0  0  0  0  0  0  0  0  0  0  0
  189.2010  178.0320  141.9240 C   0  0  2  0  0  3  0  0  0  0  0  0
  186.1260  178.4410  139.7790 C   0  0  0  0  0  3  0  0  0  0  0  0
  188.3190  178.0490  140.7220 C   0  0  0  0  0  0  0  0  0  0  0  0
  190.5390  177.3950  141.6770 C   0  0  0  0  0  0  0  0  0  0  0  0
  189.7360  177.1160  146.6550 C   0  0  0  0  0  3  0  0  0  0  0  0
  188.4670  177.3350  143.0640 C   0  0  2  0  0  3  0  0  0  0  0  0
  191.6070  176.8770  145.1270 C   0  0  0  0  0  3  0  0  0  0  0  0
  190.7460  177.0560  144.0410 C   0  0  0  0  0  0  0  0  0  0  0  0
  188.8660  177.9000  139.4400 C   0  0  0  0  0  0  0  0  0  0  0  0
  191.2600  177.0100  142.6940 N   0  0  0  0  0  0  0  0  0  0  0  0
  190.2580  177.5690  139.2820 N   0  0  0  0  0  0  0  0  0  0  0  0
  188.0340  178.0350  138.3240 C   0  0  0  0  0  3  0  0  0  0  0  0
  187.1770  177.9940  143.2990 N   0  0  0  0  0  0  0  0  0  0  0  0
  186.4290  178.3880  142.2980 C   0  0  0  0  0  0  0  0  0  0  0  0
  189.3660  177.2720  144.2670 C   0  0  0  0  0  0  0  0  0  0  0  0
  191.0510  177.3250  140.2910 C   0  0  0  0  0  0  0  0  0  0  0  0
  186.6710  178.3120  138.4940 C   0  0  0  0  0  3  0  0  0  0  0  0
  191.1030  176.9140  146.4320 C   0  0  0  0  0  3  0  0  0  0  0  0
  188.8660  177.2840  145.5750 C   0  0  0  0  0  3  0  0  0  0  0  0
  184.2340  178.5250  144.9300 C   0  0  1  0  0  3  0  0  0  0  0  0
  180.8170  178.6120  143.5620 O   0  0  0  0  0  0  0  0  0  0  0  0
  184.6240  178.7390  146.3790 C   0  0  0  0  0  1  0  0  0  0  0  0
  182.7640  178.8020  142.2170 C   0  0  0  0  0  2  0  0  0  0  0  0
  185.0940  179.0120  142.5680 C   0  0  1  0  0  3  0  0  0  0  0  0
  182.7890  178.6880  144.7840 N   0  0  0  0  0  2  0  0  0  0  0  0
  184.0250  178.0780  142.2110 N   0  0  0  0  0  2  0  0  0  0  0  0
  185.0190  179.4830  144.0280 C   0  0  1  0  0  3  0  0  0  0  0  0
  184.4980  180.7790  144.0930 O   0  0  0  0  0  1  0  0  0  0  0  0
  182.0730  178.6660  143.5410 C   0  0  0  0  0  0  0  0  0  0  0  0
  192.4150  176.9670  140.0570 N   0  0  0  0  0  2  0  0  0  0  0  0
  192.8810  176.9130  138.9000 O   0  0  0  0  0  1  0  0  0  0  0  0
  1 15  1  0  0  0  0
  2  4  1  6  0  0  0
  2  7  1  0  0  0  0
  3  1  2  0  0  0  0
  4  1  1  0  0  0  0
  5  2  1  0  0  0  0
  5 11  2  0  0  0  0
  7 14  1  1  0  0  0
  7 16  1  0  0  0  0
  8 19  2  0  0  0  0
  9 16  2  0  0  0  0
  9  8  1  0  0  0  0
 10  4  2  0  0  0  0
 11  9  1  0  0  0  0
 12 10  1  0  0  0  0
 12 17  2  0  0  0  0
 13 18  2  0  0  0  0
 13 10  1  0  0  0  0
 15 14  2  0  0  0  0
 16 20  1  0  0  0  0
 17  5  1  0  0  0  0
 18  3  1  0  0  0  0
 19  6  1  0  0  0  0
 20  6  2  0  0  0  0
 21 23  1  1  0  0  0
 24 30  1  0  0  0  0
 25 15  1  1  0  0  0
 25 28  1  0  0  0  0
 26 21  1  0  0  0  0
 27 24  1  0  0  0  0
 27 25  1  0  0  0  0
 28 29  1  6  0  0  0
 28 21  1  0  0  0  0
 30 22  2  0  0  0  0
 30 26  1  0  0  0  0
 31 17  1  0  0  0  0
 32 31  1  0  0  0  0
M  END
>  <MODEL>
7

>  <REMARK>
 VINA RESULT:      -9.7      2.628      7.077
  Name = 
  2 active torsions:
  status: ('A' for Active; 'I' for Inactive)
    1  A    between atoms: N_13  and  C_29
    2  A    between atoms: C_16  and  C_27
                            x       y       z     vdW  Elec       q    Type
                         _______ _______ _______ _____ _____    ______ ____

>  <TORSDO>
F 2

$$$$
=
 OpenBabel10272413143D

 32 37  0  0  1  0  0  0  0  0999 V2000
  187.6170  178.1300  140.9610 C   0  0  0  0  0  0  0  0  0  0  0  0
  187.5440  177.4880  143.3610 C   0  0  2  0  0  3  0  0  0  0  0  0
  186.9770  178.5460  139.7870 C   0  0  0  0  0  3  0  0  0  0  0  0
  186.8800  178.0550  142.1530 C   0  0  0  0  0  0  0  0  0  0  0  0
  186.8210  177.7950  144.6420 C   0  0  0  0  0  0  0  0  0  0  0  0
  191.6070  176.8100  145.9190 C   0  0  0  0  0  3  0  0  0  0  0  0
  188.9830  177.9900  143.4140 C   0  0  2  0  0  3  0  0  0  0  0  0
  189.4570  176.9840  147.0320 C   0  0  0  0  0  3  0  0  0  0  0  0
  188.8610  177.3630  145.8260 C   0  0  0  0  0  0  0  0  0  0  0  0
  185.5280  178.4230  142.1940 C   0  0  0  0  0  0  0  0  0  0  0  0
  187.4500  177.6620  145.7770 N   0  0  0  0  0  0  0  0  0  0  0  0
  184.8130  178.4070  143.4430 N   0  0  0  0  0  0  0  0  0  0  0  0
  184.8990  178.8420  141.0180 C   0  0  0  0  0  3  0  0  0  0  0  0
  189.6710  177.6550  142.1610 N   0  0  0  0  0  0  0  0  0  0  0  0
  189.0660  177.7800  141.0050 C   0  0  0  0  0  0  0  0  0  0  0  0
  189.6480  177.4610  144.6530 C   0  0  0  0  0  0  0  0  0  0  0  0
  185.3810  178.1290  144.5870 C   0  0  0  0  0  0  0  0  0  0  0  0
  185.6200  178.8960  139.8180 C   0  0  0  0  0  3  0  0  0  0  0  0
  190.8270  176.7020  147.0760 C   0  0  0  0  0  3  0  0  0  0  0  0
  191.0220  177.2000  144.7120 C   0  0  0  0  0  3  0  0  0  0  0  0
  188.4580  176.0280  138.1200 C   0  0  1  0  0  3  0  0  0  0  0  0
  191.6410  174.5670  136.9820 O   0  0  0  0  0  0  0  0  0  0  0  0
  187.1560  176.0510  137.3450 C   0  0  0  0  0  1  0  0  0  0  0  0
  191.4870  176.1220  138.7690 C   0  0  0  0  0  2  0  0  0  0  0  0
  189.8100  177.4790  139.7410 C   0  0  1  0  0  3  0  0  0  0  0  0
  189.5000  175.4030  137.3070 N   0  0  0  0  0  2  0  0  0  0  0  0
  190.5690  176.2370  139.8910 N   0  0  0  0  0  2  0  0  0  0  0  0
  188.8370  177.4490  138.5520 C   0  0  1  0  0  3  0  0  0  0  0  0
  189.3580  178.1820  137.4820 O   0  0  0  0  0  1  0  0  0  0  0  0
  190.8850  175.3040  137.6660 C   0  0  0  0  0  0  0  0  0  0  0  0
  184.6160  178.1680  145.7930 N   0  0  0  0  0  2  0  0  0  0  0  0
  183.7320  179.0310  145.9710 O   0  0  0  0  0  1  0  0  0  0  0  0
  1 15  1  0  0  0  0
  1  4  1  0  0  0  0
  2  4  1  6  0  0  0
  2  7  1  0  0  0  0
  2  5  1  0  0  0  0
  3 18  1  0  0  0  0
  3  1  2  0  0  0  0
  4 10  2  0  0  0  0
  5 11  2  0  0  0  0
  6 19  1  0  0  0  0
  7 14  1  6  0  0  0
  7 16  1  0  0  0  0
  8 19  2  0  0  0  0
  9  8  1  0  0  0  0
 10 12  1  0  0  0  0
 11  9  1  0  0  0  0
 12 17  2  0  0  0  0
 13 10  1  0  0  0  0
 15 14  2  0  0  0  0
 16 20  1  0  0  0  0
 16  9  2  0  0  0  0
 17  5  1  0  0  0  0
 17 31  1  0  0  0  0
 18 13  2  0  0  0  0
 20  6  2  0  0  0  0
 21 23  1  6  0  0  0
 21 28  1  0  0  0  0
 22 30  2  0  0  0  0
 24 27  1  0  0  0  0
 25 27  1  0  0  0  0
 25 15  1  1  0  0  0
 26 30  1  0  0  0  0
 26 21  1  0  0  0  0
 28 29  1  6  0  0  0
 28 25  1  0  0  0  0
 30 24  1  0  0  0  0
 31 32  1  0  0  0  0
M  END
>  <MODEL>
8

>  <REMARK>
 VINA RESULT:      -9.4      1.743      4.352
  Name = 
  2 active torsions:
  status: ('A' for Active; 'I' for Inactive)
    1  A    between atoms: N_13  and  C_29
    2  A    between atoms: C_16  and  C_27
                            x       y       z     vdW  Elec       q    Type
                         _______ _______ _______ _____ _____    ______ ____

>  <TORSDO>
F 2

$$$$
=
 OpenBabel10272413143D

 32 37  0  0  1  0  0  0  0  0999 V2000
  186.5450  178.1870  141.6600 C   0  0  0  0  0  0  0  0  0  0  0  0
  187.1530  177.6020  143.9990 C   0  0  2  0  0  3  0  0  0  0  0  0
  185.6180  178.6480  140.7170 C   0  0  0  0  0  3  0  0  0  0  0  0
  186.2070  178.2140  143.0230 C   0  0  0  0  0  0  0  0  0  0  0  0
  186.8920  178.0090  145.4210 C   0  0  0  0  0  0  0  0  0  0  0  0
  191.7210  176.5400  145.2310 C   0  0  0  0  0  3  0  0  0  0  0  0
  188.5790  177.9470  143.5860 C   0  0  2  0  0  3  0  0  0  0  0  0
  190.0440  176.9650  146.9340 C   0  0  0  0  0  3  0  0  0  0  0  0
  189.1450  177.3830  145.9490 C   0  0  0  0  0  0  0  0  0  0  0  0
  184.9760  178.7250  143.4540 C   0  0  0  0  0  0  0  0  0  0  0  0
  187.8240  177.8310  146.3160 N   0  0  0  0  0  0  0  0  0  0  0  0
  184.6810  178.8100  144.8610 N   0  0  0  0  0  0  0  0  0  0  0  0
  184.0580  179.1880  142.5050 C   0  0  0  0  0  3  0  0  0  0  0  0
  188.8120  177.5170  142.2020 N   0  0  0  0  0  0  0  0  0  0  0  0
  187.8960  177.6850  141.2800 C   0  0  0  0  0  0  0  0  0  0  0  0
  189.5390  177.3740  144.5890 C   0  0  0  0  0  0  0  0  0  0  0  0
  185.5440  178.4950  145.7900 C   0  0  0  0  0  0  0  0  0  0  0  0
  184.3760  179.1420  141.1410 C   0  0  0  0  0  3  0  0  0  0  0  0
  191.3280  176.5380  146.5740 C   0  0  0  0  0  3  0  0  0  0  0  0
  190.8320  176.9680  144.2400 C   0  0  0  0  0  3  0  0  0  0  0  0
  190.6260  177.6630  139.2030 C   0  0  1  0  0  3  0  0  0  0  0  0
  189.4550  178.3220  135.7750 O   0  0  0  0  0  0  0  0  0  0  0  0
  192.0230  177.2340  139.6050 C   0  0  0  0  0  1  0  0  0  0  0  0
  187.9880  177.9340  137.6000 C   0  0  0  0  0  2  0  0  0  0  0  0
  188.1820  177.2820  139.8660 C   0  0  1  0  0  3  0  0  0  0  0  0
  190.5480  177.7730  137.7470 N   0  0  0  0  0  2  0  0  0  0  0  0
  187.9790  178.4210  138.9700 N   0  0  0  0  0  2  0  0  0  0  0  0
  189.5930  176.6810  139.7650 C   0  0  1  0  0  3  0  0  0  0  0  0
  189.5630  175.4970  139.0210 O   0  0  0  0  0  1  0  0  0  0  0  0
  189.3570  178.0510  136.9990 C   0  0  0  0  0  0  0  0  0  0  0  0
  185.1960  178.6380  147.1680 N   0  0  0  0  0  2  0  0  0  0  0  0
  185.6070  179.6050  147.8420 O   0  0  0  0  0  1  0  0  0  0  0  0
  1  4  1  0  0  0  0
  2  4  1  6  0  0  0
  2  5  1  0  0  0  0
  3 18  1  0  0  0  0
  3  1  2  0  0  0  0
  4 10  2  0  0  0  0
  5 17  1  0  0  0  0
  5 11  2  0  0  0  0
  6 19  1  0  0  0  0
  7 14  1  6  0  0  0
  7  2  1  0  0  0  0
  7 16  1  0  0  0  0
  9 11  1  0  0  0  0
  9  8  1  0  0  0  0
 10 12  1  0  0  0  0
 12 17  2  0  0  0  0
 13 10  1  0  0  0  0
 15  1  1  0  0  0  0
 15 14  2  0  0  0  0
 16  9  2  0  0  0  0
 17 31  1  0  0  0  0
 18 13  2  0  0  0  0
 19  8  2  0  0  0  0
 20 16  1  0  0  0  0
 20  6  2  0  0  0  0
 21 23  1  6  0  0  0
 21 28  1  0  0  0  0
 22 30  2  0  0  0  0
 24 27  1  0  0  0  0
 25 15  1  1  0  0  0
 26 21  1  0  0  0  0
 27 25  1  0  0  0  0
 28 29  1  6  0  0  0
 28 25  1  0  0  0  0
 30 24  1  0  0  0  0
 30 26  1  0  0  0  0
 31 32  1  0  0  0  0
M  END
>  <MODEL>
9

>  <REMARK>
 VINA RESULT:      -9.3      1.598      4.610
  Name = 
  2 active torsions:
  status: ('A' for Active; 'I' for Inactive)
    1  A    between atoms: N_13  and  C_29
    2  A    between atoms: C_16  and  C_27
                            x       y       z     vdW  Elec       q    Type
                         _______ _______ _______ _____ _____    ______ ____

>  <TORSDO>
F 2

$$$$
