=
 OpenBabel10272414473D

 37 42  0  0  1  0  0  0  0  0999 V2000
  190.5850  176.4890  140.8710 C   0  0  0  0  0  2  0  0  0  0  0  0
  189.2220  175.3980  136.3650 C   0  0  0  0  0  0  0  0  0  0  0  0
  190.4160  177.0860  142.2640 C   0  0  0  0  0  2  0  0  0  0  0  0
  187.4390  178.1560  138.1920 O   0  0  0  0  0  0  0  0  0  0  0  0
  190.9490  174.3120  137.7200 C   0  0  0  0  0  2  0  0  0  0  0  0
  188.7830  176.1950  137.5650 C   0  0  2  0  0  3  0  0  0  0  0  0
  188.1970  178.2250  142.4420 C   0  0  2  0  0  3  0  0  0  0  0  0
  190.2390  174.5190  136.4450 C   0  0  0  0  0  0  0  0  0  0  0  0
  187.9090  177.3940  137.1150 C   0  0  1  0  0  3  0  0  0  0  0  0
  190.5760  174.1160  135.2480 O   0  0  0  0  0  0  0  0  0  0  0  0
  188.9920  176.9630  142.7810 C   0  0  2  0  0  3  0  0  0  0  0  0
  191.1600  175.7080  138.3470 C   0  0  2  0  0  3  0  0  0  0  0  0
  188.2490  176.6460  134.3470 C   0  0  0  0  0  2  0  0  0  0  0  0
  189.8530  174.7220  134.3470 N   0  0  0  0  0  0  0  0  0  0  0  0
  187.7940  178.2750  140.9730 C   0  0  0  0  0  2  0  0  0  0  0  0
  188.5100  178.9050  138.6860 C   0  0  0  0  0  2  0  0  0  0  0  0
  189.0060  175.5400  135.0060 C   0  0  0  0  0  0  0  0  0  0  0  0
  189.9550  176.5980  138.4050 N   0  0  2  0  0  0  0  0  0  0  0  0
  186.7580  176.8950  136.3370 N   0  0  0  0  0  0  0  0  0  0  0  0
  188.9770  178.2840  139.9970 C   0  0  2  0  0  3  0  0  0  0  0  0
  188.8910  179.3850  142.8040 O   0  0  0  0  0  1  0  0  0  0  0  0
  189.5120  176.8460  139.8060 C   0  0  2  0  0  3  0  0  0  0  0  0
  186.8250  176.7550  134.8800 C   0  0  0  0  0  2  0  0  0  0  0  0
  184.6990  177.2590  137.6370 C   0  0  0  0  0  3  0  0  0  0  0  0
  185.5810  176.3840  136.9880 C   0  0  0  0  0  0  0  0  0  0  0  0
  185.3210  175.0050  137.0250 C   0  0  0  0  0  3  0  0  0  0  0  0
  183.9540  173.1800  137.7180 F   0  0  0  0  0  0  0  0  0  0  0  0
  183.3180  175.3930  138.3220 C   0  0  0  0  0  3  0  0  0  0  0  0
  184.1930  174.5110  137.6850 C   0  0  0  0  0  0  0  0  0  0  0  0
  183.5700  176.7670  138.2980 C   0  0  0  0  0  3  0  0  0  0  0  0
  187.7160  176.9080  144.7960 O   0  0  0  0  0  1  0  0  0  0  0  0
  189.0070  176.7570  144.2860 C   0  0  0  0  0  2  0  0  0  0  0  0
  192.3020  176.4530  137.6740 C   0  0  0  0  0  2  0  0  0  0  0  0
  193.5350  176.4040  138.5030 C   0  0  0  0  0  0  0  0  0  0  0  0
  193.6700  177.2110  139.4600 O   0  0  0  0  0  0  0  0  0  0  0  0
  194.5010  175.4340  138.2430 O   0  0  0  0  0  0  0  0  0  0  0  0
  194.6610  174.8630  136.9530 C   0  0  0  0  0  1  0  0  0  0  0  0
  1  3  1  0  0  0  0
  2  8  2  0  0  0  0
  3 11  1  0  0  0  0
  4 16  1  0  0  0  0
  5 12  1  0  0  0  0
  6  2  1  6  0  0  0
  6 18  1  0  0  0  0
  7 11  1  0  0  0  0
  7 21  1  6  0  0  0
  8  5  1  0  0  0  0
  9  6  1  0  0  0  0
  9  4  1  1  0  0  0
 10  8  1  0  0  0  0
 11 32  1  1  0  0  0
 12 33  1  6  0  0  0
 12 18  1  0  0  0  0
 13 23  1  0  0  0  0
 13 17  1  0  0  0  0
 14 17  2  0  0  0  0
 14 10  1  0  0  0  0
 15  7  1  0  0  0  0
 16 20  1  0  0  0  0
 17  2  1  0  0  0  0
 18 22  1  0  0  0  0
 19 25  1  0  0  0  0
 19  9  1  0  0  0  0
 20 15  1  0  0  0  0
 22 20  1  0  0  0  0
 22  1  1  0  0  0  0
 23 19  1  0  0  0  0
 24 30  1  0  0  0  0
 25 26  1  0  0  0  0
 25 24  2  0  0  0  0
 26 29  2  0  0  0  0
 29 27  1  0  0  0  0
 29 28  1  0  0  0  0
 30 28  2  0  0  0  0
 32 31  1  0  0  0  0
 33 34  1  0  0  0  0
 34 35  2  0  0  0  0
 36 34  1  0  0  0  0
 37 36  1  0  0  0  0
M  END
>  <MODEL>
1

>  <REMARK>
 VINA RESULT:      -6.2      0.000      0.000
  Name = 
  5 active torsions:
  status: ('A' for Active; 'I' for Inactive)
    1  A    between atoms: O_3  and  C_21
    2  A    between atoms: C_6  and  N_31
    3  A    between atoms: C_17  and  C_23
    4  A    between atoms: C_20  and  C_25
    5  A    between atoms: C_21  and  C_25
                            x       y       z     vdW  Elec       q    Type
                         _______ _______ _______ _____ _____    ______ ____

>  <TORSDO>
F 5

$$$$
=
 OpenBabel10272414473D

 37 42  0  0  1  0  0  0  0  0999 V2000
  186.8490  178.0570  140.5720 C   0  0  0  0  0  2  0  0  0  0  0  0
  184.5700  176.6350  136.5560 C   0  0  0  0  0  0  0  0  0  0  0  0
  186.9430  178.5250  142.0210 C   0  0  0  0  0  2  0  0  0  0  0  0
  182.6450  178.5250  139.1730 O   0  0  0  0  0  0  0  0  0  0  0  0
  186.8990  176.2220  137.1910 C   0  0  0  0  0  2  0  0  0  0  0  0
  184.2960  177.1960  137.9260 C   0  0  2  0  0  3  0  0  0  0  0  0
  184.6510  178.7790  142.9870 C   0  0  2  0  0  3  0  0  0  0  0  0
  185.7930  176.1830  136.2180 C   0  0  0  0  0  0  0  0  0  0  0  0
  182.9740  178.0060  137.9140 C   0  0  1  0  0  3  0  0  0  0  0  0
  185.8440  175.9530  134.9320 O   0  0  0  0  0  0  0  0  0  0  0  0
  185.8890  177.8840  142.9090 C   0  0  2  0  0  3  0  0  0  0  0  0
  186.8150  177.5870  137.9100 C   0  0  2  0  0  3  0  0  0  0  0  0
  182.6420  177.4860  135.0930 C   0  0  0  0  0  2  0  0  0  0  0  0
  184.7110  176.2730  134.3700 N   0  0  0  0  0  0  0  0  0  0  0  0
  183.8080  178.7100  141.7200 C   0  0  0  0  0  2  0  0  0  0  0  0
  183.4990  179.6000  139.4280 C   0  0  0  0  0  2  0  0  0  0  0  0
  183.8970  176.7170  135.3500 C   0  0  0  0  0  0  0  0  0  0  0  0
  185.4670  177.9790  138.4350 N   0  0  2  0  0  0  0  0  0  0  0  0
  181.8740  177.1400  137.4450 N   0  0  0  0  0  0  0  0  0  0  0  0
  184.5400  179.1650  140.4520 C   0  0  2  0  0  3  0  0  0  0  0  0
  184.9900  180.1040  143.2830 O   0  0  0  0  0  1  0  0  0  0  0  0
  185.4370  178.0220  139.9230 C   0  0  2  0  0  3  0  0  0  0  0  0
  181.5150  177.0630  136.0270 C   0  0  0  0  0  2  0  0  0  0  0  0
  180.8320  176.6420  139.6200 C   0  0  0  0  0  3  0  0  0  0  0  0
  181.2120  176.2240  138.3370 C   0  0  0  0  0  0  0  0  0  0  0  0
  180.9790  174.8930  137.9580 C   0  0  0  0  0  3  0  0  0  0  0  0
  180.1480  172.7180  138.4650 F   0  0  0  0  0  0  0  0  0  0  0  0
  179.9840  174.4290  140.1110 C   0  0  0  0  0  3  0  0  0  0  0  0
  180.3640  174.0000  138.8390 C   0  0  0  0  0  0  0  0  0  0  0  0
  180.2160  175.7500  140.5020 C   0  0  0  0  0  3  0  0  0  0  0  0
  187.8460  177.7330  144.2660 O   0  0  0  0  0  1  0  0  0  0  0  0
  186.4520  177.6680  144.3030 C   0  0  0  0  0  2  0  0  0  0  0  0
  187.3600  178.7080  137.0390 C   0  0  0  0  0  2  0  0  0  0  0  0
  188.8110  178.9190  137.2850 C   0  0  0  0  0  0  0  0  0  0  0  0
  189.2220  180.0590  137.6260 O   0  0  0  0  0  0  0  0  0  0  0  0
  189.6890  177.8420  137.1850 O   0  0  0  0  0  0  0  0  0  0  0  0
  190.4060  177.3520  138.3090 C   0  0  0  0  0  1  0  0  0  0  0  0
  1  3  1  0  0  0  0
  3 11  1  0  0  0  0
  4 16  1  0  0  0  0
  5 12  1  0  0  0  0
  6  2  1  6  0  0  0
  6 18  1  0  0  0  0
  7 21  1  6  0  0  0
  8  2  2  0  0  0  0
  8  5  1  0  0  0  0
  9  6  1  0  0  0  0
  9  4  1  1  0  0  0
 10  8  1  0  0  0  0
 11  7  1  0  0  0  0
 11 32  1  1  0  0  0
 12 33  1  6  0  0  0
 12 18  1  0  0  0  0
 13 17  1  0  0  0  0
 13 23  1  0  0  0  0
 14 10  1  0  0  0  0
 14 17  2  0  0  0  0
 15  7  1  0  0  0  0
 16 20  1  0  0  0  0
 17  2  1  0  0  0  0
 18 22  1  0  0  0  0
 19  9  1  0  0  0  0
 19 25  1  0  0  0  0
 20 15  1  0  0  0  0
 22 20  1  0  0  0  0
 22  1  1  0  0  0  0
 23 19  1  0  0  0  0
 24 30  1  0  0  0  0
 25 24  2  0  0  0  0
 26 25  1  0  0  0  0
 26 29  2  0  0  0  0
 27 29  1  0  0  0  0
 28 30  2  0  0  0  0
 29 28  1  0  0  0  0
 31 32  1  0  0  0  0
 33 34  1  0  0  0  0
 34 35  2  0  0  0  0
 36 34  1  0  0  0  0
 36 37  1  0  0  0  0
M  END
>  <MODEL>
2

>  <REMARK>
 VINA RESULT:      -5.6      2.947      4.599
  Name = 
  5 active torsions:
  status: ('A' for Active; 'I' for Inactive)
    1  A    between atoms: O_3  and  C_21
    2  A    between atoms: C_6  and  N_31
    3  A    between atoms: C_17  and  C_23
    4  A    between atoms: C_20  and  C_25
    5  A    between atoms: C_21  and  C_25
                            x       y       z     vdW  Elec       q    Type
                         _______ _______ _______ _____ _____    ______ ____

>  <TORSDO>
F 5

$$$$
=
 OpenBabel10272414473D

 37 42  0  0  1  0  0  0  0  0999 V2000
  185.9820  175.2000  136.2800 C   0  0  0  0  0  2  0  0  0  0  0  0
  182.8630  176.8250  139.5930 C   0  0  0  0  0  0  0  0  0  0  0  0
  187.3370  175.0890  135.5870 C   0  0  0  0  0  2  0  0  0  0  0  0
  185.9960  178.7890  138.9200 O   0  0  0  0  0  0  0  0  0  0  0  0
  182.7200  174.7680  138.2730 C   0  0  0  0  0  2  0  0  0  0  0  0
  184.2620  177.0540  139.0850 C   0  0  2  0  0  3  0  0  0  0  0  0
  188.9840  176.6170  136.6860 C   0  0  2  0  0  3  0  0  0  0  0  0
  182.1450  175.7530  139.2060 C   0  0  0  0  0  0  0  0  0  0  0  0
  184.6860  178.5220  139.3410 C   0  0  1  0  0  3  0  0  0  0  0  0
  180.9050  175.8820  139.5960 O   0  0  0  0  0  0  0  0  0  0  0  0
  188.4980  175.1720  136.5650 C   0  0  2  0  0  3  0  0  0  0  0  0
  183.4580  175.5670  137.1750 C   0  0  2  0  0  3  0  0  0  0  0  0
  182.1050  179.1030  140.4950 C   0  0  0  0  0  2  0  0  0  0  0  0
  180.7370  177.0260  140.2010 N   0  0  0  0  0  0  0  0  0  0  0  0
  188.0470  177.4710  137.5310 C   0  0  0  0  0  2  0  0  0  0  0  0
  185.9920  178.8550  137.5250 C   0  0  0  0  0  2  0  0  0  0  0  0
  181.9340  177.6490  140.2050 C   0  0  0  0  0  0  0  0  0  0  0  0
  184.3910  176.6400  137.6510 N   0  0  2  0  0  0  0  0  0  0  0  0
  184.5710  178.8210  140.7810 N   0  0  0  0  0  0  0  0  0  0  0  0
  186.6240  177.5830  136.9730 C   0  0  2  0  0  3  0  0  0  0  0  0
  189.1870  177.2000  135.4300 O   0  0  0  0  0  1  0  0  0  0  0  0
  185.8130  176.3200  137.3440 C   0  0  2  0  0  3  0  0  0  0  0  0
  183.3380  179.3710  141.3500 C   0  0  0  0  0  2  0  0  0  0  0  0
  186.9440  178.4140  141.2940 C   0  0  0  0  0  3  0  0  0  0  0  0
  185.6060  178.4440  141.7080 C   0  0  0  0  0  0  0  0  0  0  0  0
  185.2900  178.0570  143.0200 C   0  0  0  0  0  3  0  0  0  0  0  0
  185.9800  177.2870  145.1670 F   0  0  0  0  0  0  0  0  0  0  0  0
  187.6260  177.6430  143.4840 C   0  0  0  0  0  3  0  0  0  0  0  0
  186.2950  177.6620  143.9060 C   0  0  0  0  0  0  0  0  0  0  0  0
  187.9510  178.0180  142.1790 C   0  0  0  0  0  3  0  0  0  0  0  0
  189.4080  173.8950  134.7660 O   0  0  0  0  0  1  0  0  0  0  0  0
  189.6370  174.2880  136.0860 C   0  0  0  0  0  2  0  0  0  0  0  0
  182.4840  176.1590  136.1680 C   0  0  0  0  0  2  0  0  0  0  0  0
  181.6400  175.1000  135.5560 C   0  0  0  0  0  0  0  0  0  0  0  0
  180.3880  175.1590  135.6770 O   0  0  0  0  0  0  0  0  0  0  0  0
  182.2400  174.0830  134.8160 O   0  0  0  0  0  0  0  0  0  0  0  0
  182.0110  172.7110  135.1050 C   0  0  0  0  0  1  0  0  0  0  0  0
  1 22  1  0  0  0  0
  2 17  1  0  0  0  0
  3  1  1  0  0  0  0
  3 11  1  0  0  0  0
  5  8  1  0  0  0  0
  6  9  1  0  0  0  0
  6  2  1  6  0  0  0
  7 21  1  6  0  0  0
  7 15  1  0  0  0  0
  8  2  2  0  0  0  0
  8 10  1  0  0  0  0
  9  4  1  1  0  0  0
  9 19  1  0  0  0  0
 10 14  1  0  0  0  0
 11 32  1  6  0  0  0
 11  7  1  0  0  0  0
 12 33  1  6  0  0  0
 12 18  1  0  0  0  0
 12  5  1  0  0  0  0
 13 23  1  0  0  0  0
 14 17  2  0  0  0  0
 16  4  1  0  0  0  0
 17 13  1  0  0  0  0
 18  6  1  0  0  0  0
 19 23  1  0  0  0  0
 19 25  1  0  0  0  0
 20 22  1  0  0  0  0
 20 16  1  0  0  0  0
 20 15  1  0  0  0  0
 22 18  1  0  0  0  0
 24 25  2  0  0  0  0
 24 30  1  0  0  0  0
 25 26  1  0  0  0  0
 26 29  2  0  0  0  0
 28 29  1  0  0  0  0
 29 27  1  0  0  0  0
 30 28  2  0  0  0  0
 31 32  1  0  0  0  0
 34 35  2  0  0  0  0
 34 33  1  0  0  0  0
 36 37  1  0  0  0  0
 36 34  1  0  0  0  0
M  END
>  <MODEL>
3

>  <REMARK>
 VINA RESULT:      -4.9      3.542      8.033
  Name = 
  5 active torsions:
  status: ('A' for Active; 'I' for Inactive)
    1  A    between atoms: O_3  and  C_21
    2  A    between atoms: C_6  and  N_31
    3  A    between atoms: C_17  and  C_23
    4  A    between atoms: C_20  and  C_25
    5  A    between atoms: C_21  and  C_25
                            x       y       z     vdW  Elec       q    Type
                         _______ _______ _______ _____ _____    ______ ____

>  <TORSDO>
F 5

$$$$
=
 OpenBabel10272414473D

 37 42  0  0  1  0  0  0  0  0999 V2000
  182.6420  176.4430  138.2960 C   0  0  0  0  0  2  0  0  0  0  0  0
  187.3100  177.6580  138.0010 C   0  0  0  0  0  0  0  0  0  0  0  0
  181.3760  175.6960  137.8890 C   0  0  0  0  0  2  0  0  0  0  0  0
  185.6410  176.0940  135.0180 O   0  0  0  0  0  0  0  0  0  0  0  0
  185.8200  177.8640  139.9340 C   0  0  0  0  0  2  0  0  0  0  0  0
  186.2500  176.8790  137.2680 C   0  0  2  0  0  3  0  0  0  0  0  0
  181.8370  174.2540  135.9000 C   0  0  2  0  0  3  0  0  0  0  0  0
  187.1000  178.1190  139.2490 C   0  0  0  0  0  0  0  0  0  0  0  0
  186.5750  176.8370  135.7530 C   0  0  1  0  0  3  0  0  0  0  0  0
  188.0590  178.9390  139.5890 O   0  0  0  0  0  0  0  0  0  0  0  0
  181.6610  174.2790  137.4190 C   0  0  2  0  0  3  0  0  0  0  0  0
  184.7020  178.0900  138.8920 C   0  0  2  0  0  3  0  0  0  0  0  0
  188.9270  178.4560  136.1780 C   0  0  0  0  0  2  0  0  0  0  0  0
  188.8970  179.0900  138.6010 N   0  0  0  0  0  0  0  0  0  0  0  0
  183.1890  174.8050  135.4660 C   0  0  0  0  0  2  0  0  0  0  0  0
  184.4730  176.8530  134.9200 C   0  0  0  0  0  2  0  0  0  0  0  0
  188.4540  178.3180  137.5870 C   0  0  0  0  0  0  0  0  0  0  0  0
  184.8820  177.4110  137.5670 N   0  0  2  0  0  0  0  0  0  0  0  0
  187.9170  176.2570  135.5550 N   0  0  0  0  0  0  0  0  0  0  0  0
  183.4280  176.2670  135.8620 C   0  0  2  0  0  3  0  0  0  0  0  0
  180.7960  174.9260  135.2490 O   0  0  0  0  0  1  0  0  0  0  0  0
  183.8660  176.3460  137.3420 C   0  0  2  0  0  3  0  0  0  0  0  0
  189.1140  177.1010  135.5050 C   0  0  0  0  0  2  0  0  0  0  0  0
  188.4320  174.1640  134.3650 C   0  0  0  0  0  3  0  0  0  0  0  0
  188.1230  174.8320  135.5580 C   0  0  0  0  0  0  0  0  0  0  0  0
  187.9740  174.0860  136.7370 C   0  0  0  0  0  3  0  0  0  0  0  0
  187.9940  171.9890  137.8680 F   0  0  0  0  0  0  0  0  0  0  0  0
  188.4590  172.0460  135.5340 C   0  0  0  0  0  3  0  0  0  0  0  0
  188.1450  172.6990  136.7270 C   0  0  0  0  0  0  0  0  0  0  0  0
  188.6040  172.7770  134.3540 C   0  0  0  0  0  3  0  0  0  0  0  0
  180.8640  172.0360  137.5680 O   0  0  0  0  0  1  0  0  0  0  0  0
  180.5160  173.3640  137.8160 C   0  0  0  0  0  2  0  0  0  0  0  0
  184.4440  179.5710  138.6650 C   0  0  0  0  0  2  0  0  0  0  0  0
  183.0700  179.9450  139.0930 C   0  0  0  0  0  0  0  0  0  0  0  0
  182.4250  180.7990  138.4290 O   0  0  0  0  0  0  0  0  0  0  0  0
  182.4960  179.3120  140.1930 O   0  0  0  0  0  0  0  0  0  0  0  0
  181.0880  179.2670  140.3810 C   0  0  0  0  0  1  0  0  0  0  0  0
  2  8  2  0  0  0  0
  3  1  1  0  0  0  0
  6 18  1  0  0  0  0
  6  2  1  1  0  0  0
  7 21  1  6  0  0  0
  7 11  1  0  0  0  0
  8 10  1  0  0  0  0
  8  5  1  0  0  0  0
  9  4  1  6  0  0  0
  9  6  1  0  0  0  0
 11 32  1  6  0  0  0
 11  3  1  0  0  0  0
 12 33  1  6  0  0  0
 12  5  1  0  0  0  0
 13 17  1  0  0  0  0
 14 10  1  0  0  0  0
 15 20  1  0  0  0  0
 15  7  1  0  0  0  0
 16  4  1  0  0  0  0
 16 20  1  0  0  0  0
 17  2  1  0  0  0  0
 17 14  2  0  0  0  0
 18 12  1  0  0  0  0
 19 25  1  0  0  0  0
 19  9  1  0  0  0  0
 20 22  1  0  0  0  0
 22 18  1  0  0  0  0
 22  1  1  0  0  0  0
 23 19  1  0  0  0  0
 23 13  1  0  0  0  0
 24 25  1  0  0  0  0
 25 26  2  0  0  0  0
 28 29  2  0  0  0  0
 29 26  1  0  0  0  0
 29 27  1  0  0  0  0
 30 24  2  0  0  0  0
 30 28  1  0  0  0  0
 31 32  1  0  0  0  0
 33 34  1  0  0  0  0
 34 36  1  0  0  0  0
 35 34  2  0  0  0  0
 36 37  1  0  0  0  0
M  END
>  <MODEL>
4

>  <REMARK>
 VINA RESULT:      -4.9      3.489      7.628
  Name = 
  5 active torsions:
  status: ('A' for Active; 'I' for Inactive)
    1  A    between atoms: O_3  and  C_21
    2  A    between atoms: C_6  and  N_31
    3  A    between atoms: C_17  and  C_23
    4  A    between atoms: C_20  and  C_25
    5  A    between atoms: C_21  and  C_25
                            x       y       z     vdW  Elec       q    Type
                         _______ _______ _______ _____ _____    ______ ____

>  <TORSDO>
F 5

$$$$
=
 OpenBabel10272414473D

 37 42  0  0  1  0  0  0  0  0999 V2000
  185.0620  177.7760  142.5480 C   0  0  0  0  0  2  0  0  0  0  0  0
  189.7450  176.5940  142.4130 C   0  0  0  0  0  0  0  0  0  0  0  0
  183.7260  178.2200  141.9600 C   0  0  0  0  0  2  0  0  0  0  0  0
  188.2930  178.6180  139.5980 O   0  0  0  0  0  0  0  0  0  0  0  0
  188.0850  175.9750  144.1030 C   0  0  0  0  0  2  0  0  0  0  0  0
  188.6520  177.1630  141.5480 C   0  0  2  0  0  3  0  0  0  0  0  0
  183.9770  178.6620  139.5120 C   0  0  2  0  0  3  0  0  0  0  0  0
  189.4720  176.0410  143.6100 C   0  0  0  0  0  0  0  0  0  0  0  0
  189.2600  178.0840  140.4600 C   0  0  1  0  0  3  0  0  0  0  0  0
  190.5830  175.8200  144.2630 O   0  0  0  0  0  0  0  0  0  0  0  0
  183.4920  177.6650  140.5650 C   0  0  2  0  0  3  0  0  0  0  0  0
  187.4280  177.3360  143.7780 C   0  0  2  0  0  3  0  0  0  0  0  0
  191.9120  177.6220  141.5040 C   0  0  0  0  0  2  0  0  0  0  0  0
  191.6050  176.2420  143.5720 N   0  0  0  0  0  0  0  0  0  0  0  0
  185.4950  178.6780  139.3880 C   0  0  0  0  0  2  0  0  0  0  0  0
  187.6030  179.6130  140.2940 C   0  0  0  0  0  2  0  0  0  0  0  0
  191.1200  176.7450  142.4180 C   0  0  0  0  0  0  0  0  0  0  0  0
  187.6020  177.8380  142.3770 N   0  0  2  0  0  0  0  0  0  0  0  0
  190.2440  177.3210  139.6670 N   0  0  0  0  0  0  0  0  0  0  0  0
  186.2270  179.0800  140.6740 C   0  0  2  0  0  3  0  0  0  0  0  0
  183.4880  179.9500  139.7580 O   0  0  0  0  0  1  0  0  0  0  0  0
  186.3130  177.8690  141.6310 C   0  0  2  0  0  3  0  0  0  0  0  0
  191.6620  177.2880  140.0380 C   0  0  0  0  0  2  0  0  0  0  0  0
  190.7090  175.4840  138.0950 C   0  0  0  0  0  3  0  0  0  0  0  0
  189.8310  176.4580  138.5930 C   0  0  0  0  0  0  0  0  0  0  0  0
  188.5690  176.6040  137.9960 C   0  0  0  0  0  3  0  0  0  0  0  0
  186.9680  175.9370  136.3630 F   0  0  0  0  0  0  0  0  0  0  0  0
  189.0650  174.8130  136.4510 C   0  0  0  0  0  3  0  0  0  0  0  0
  188.1850  175.7840  136.9330 C   0  0  0  0  0  0  0  0  0  0  0  0
  190.3250  174.6630  137.0320 C   0  0  0  0  0  3  0  0  0  0  0  0
  181.2650  178.1020  141.3010 O   0  0  0  0  0  1  0  0  0  0  0  0
  182.0120  177.3880  140.3630 C   0  0  0  0  0  2  0  0  0  0  0  0
  187.8710  178.4140  144.7560 C   0  0  0  0  0  2  0  0  0  0  0  0
  187.4910  178.0590  146.1490 C   0  0  0  0  0  0  0  0  0  0  0  0
  186.2740  177.9580  146.4520 O   0  0  0  0  0  0  0  0  0  0  0  0
  188.4870  177.7950  147.0870 O   0  0  0  0  0  0  0  0  0  0  0  0
  188.2850  178.0170  148.4760 C   0  0  0  0  0  1  0  0  0  0  0  0
  2 17  1  0  0  0  0
  2  8  2  0  0  0  0
  3  1  1  0  0  0  0
  4 16  1  0  0  0  0
  6 18  1  0  0  0  0
  6  2  1  1  0  0  0
  7 21  1  1  0  0  0
  7 11  1  0  0  0  0
  8  5  1  0  0  0  0
  8 10  1  0  0  0  0
  9  4  1  6  0  0  0
  9  6  1  0  0  0  0
 11 32  1  6  0  0  0
 11  3  1  0  0  0  0
 12  5  1  0  0  0  0
 12 33  1  1  0  0  0
 13 17  1  0  0  0  0
 14 10  1  0  0  0  0
 15  7  1  0  0  0  0
 15 20  1  0  0  0  0
 16 20  1  0  0  0  0
 17 14  2  0  0  0  0
 18 12  1  0  0  0  0
 19 23  1  0  0  0  0
 19  9  1  0  0  0  0
 20 22  1  0  0  0  0
 22 18  1  0  0  0  0
 22  1  1  0  0  0  0
 23 13  1  0  0  0  0
 24 25  1  0  0  0  0
 25 19  1  0  0  0  0
 26 25  2  0  0  0  0
 27 29  1  0  0  0  0
 28 29  2  0  0  0  0
 28 30  1  0  0  0  0
 29 26  1  0  0  0  0
 30 24  2  0  0  0  0
 32 31  1  0  0  0  0
 33 34  1  0  0  0  0
 34 35  2  0  0  0  0
 34 36  1  0  0  0  0
 36 37  1  0  0  0  0
M  END
>  <MODEL>
5

>  <REMARK>
 VINA RESULT:      -4.7      3.052      6.851
  Name = 
  5 active torsions:
  status: ('A' for Active; 'I' for Inactive)
    1  A    between atoms: O_3  and  C_21
    2  A    between atoms: C_6  and  N_31
    3  A    between atoms: C_17  and  C_23
    4  A    between atoms: C_20  and  C_25
    5  A    between atoms: C_21  and  C_25
                            x       y       z     vdW  Elec       q    Type
                         _______ _______ _______ _____ _____    ______ ____

>  <TORSDO>
F 5

$$$$
=
 OpenBabel10272414473D

 37 42  0  0  1  0  0  0  0  0999 V2000
  187.0560  178.3180  139.9650 C   0  0  0  0  0  2  0  0  0  0  0  0
  182.8950  179.1670  142.2700 C   0  0  0  0  0  0  0  0  0  0  0  0
  187.9370  178.0380  138.7510 C   0  0  0  0  0  2  0  0  0  0  0  0
  182.8030  177.5690  138.8690 O   0  0  0  0  0  0  0  0  0  0  0  0
  185.1640  179.7180  143.0080 C   0  0  0  0  0  2  0  0  0  0  0  0
  183.4310  178.7750  140.9180 C   0  0  2  0  0  3  0  0  0  0  0  0
  186.5240  177.8460  136.6980 C   0  0  2  0  0  3  0  0  0  0  0  0
  183.7140  179.6060  143.2450 C   0  0  0  0  0  0  0  0  0  0  0  0
  182.3760  177.9350  140.1530 C   0  0  1  0  0  3  0  0  0  0  0  0
  183.0640  179.6740  144.3770 O   0  0  0  0  0  0  0  0  0  0  0  0
  187.4520  178.7560  137.5030 C   0  0  2  0  0  3  0  0  0  0  0  0
  185.5910  178.4510  142.2330 C   0  0  2  0  0  3  0  0  0  0  0  0
  180.5710  178.0900  142.4010 C   0  0  0  0  0  2  0  0  0  0  0  0
  181.8380  179.2570  144.2200 N   0  0  0  0  0  0  0  0  0  0  0  0
  185.1400  177.7340  137.3240 C   0  0  0  0  0  2  0  0  0  0  0  0
  183.7550  176.5560  139.0090 C   0  0  0  0  0  2  0  0  0  0  0  0
  181.7000  178.9170  142.9210 C   0  0  0  0  0  0  0  0  0  0  0  0
  184.7590  178.0920  141.0390 N   0  0  2  0  0  0  0  0  0  0  0  0
  181.1230  178.7060  140.0430 N   0  0  0  0  0  0  0  0  0  0  0  0
  185.1360  177.1430  138.7390 C   0  0  2  0  0  3  0  0  0  0  0  0
  187.0840  176.5770  136.5070 O   0  0  0  0  0  1  0  0  0  0  0  0
  185.5180  178.2350  139.7660 C   0  0  2  0  0  3  0  0  0  0  0  0
  180.0680  178.5970  141.0540 C   0  0  0  0  0  2  0  0  0  0  0  0
  180.1330  179.4480  137.9140 C   0  0  0  0  0  3  0  0  0  0  0  0
  180.9480  179.7080  139.0250 C   0  0  0  0  0  0  0  0  0  0  0  0
  181.6220  180.9370  139.1010 C   0  0  0  0  0  3  0  0  0  0  0  0
  182.1310  183.0730  138.1760 F   0  0  0  0  0  0  0  0  0  0  0  0
  180.6540  181.6260  136.9960 C   0  0  0  0  0  3  0  0  0  0  0  0
  181.4730  181.8940  138.0940 C   0  0  0  0  0  0  0  0  0  0  0  0
  179.9830  180.4050  136.9060 C   0  0  0  0  0  3  0  0  0  0  0  0
  189.7340  178.3420  136.9400 O   0  0  0  0  0  1  0  0  0  0  0  0
  188.6410  179.1590  136.6470 C   0  0  0  0  0  2  0  0  0  0  0  0
  185.6950  177.2450  143.1530 C   0  0  0  0  0  2  0  0  0  0  0  0
  187.0670  177.1170  143.7120 C   0  0  0  0  0  0  0  0  0  0  0  0
  187.8700  176.2940  143.2000 O   0  0  0  0  0  0  0  0  0  0  0  0
  187.4620  177.9440  144.7620 O   0  0  0  0  0  0  0  0  0  0  0  0
  186.9420  177.7880  146.0750 C   0  0  0  0  0  1  0  0  0  0  0  0
  2 17  1  0  0  0  0
  2  8  2  0  0  0  0
  3  1  1  0  0  0  0
  4 16  1  0  0  0  0
  5  8  1  0  0  0  0
  6 18  1  0  0  0  0
  6  2  1  1  0  0  0
  7 21  1  1  0  0  0
  7 15  1  0  0  0  0
  7 11  1  0  0  0  0
  8 10  1  0  0  0  0
  9  4  1  6  0  0  0
  9  6  1  0  0  0  0
 11 32  1  6  0  0  0
 11  3  1  0  0  0  0
 12  5  1  0  0  0  0
 12 33  1  1  0  0  0
 13 17  1  0  0  0  0
 14 10  1  0  0  0  0
 15 20  1  0  0  0  0
 17 14  2  0  0  0  0
 18 12  1  0  0  0  0
 19  9  1  0  0  0  0
 19 23  1  0  0  0  0
 20 16  1  0  0  0  0
 20 22  1  0  0  0  0
 22  1  1  0  0  0  0
 22 18  1  0  0  0  0
 23 13  1  0  0  0  0
 24 25  1  0  0  0  0
 25 26  2  0  0  0  0
 25 19  1  0  0  0  0
 28 29  2  0  0  0  0
 29 27  1  0  0  0  0
 29 26  1  0  0  0  0
 30 28  1  0  0  0  0
 30 24  2  0  0  0  0
 32 31  1  0  0  0  0
 33 34  1  0  0  0  0
 34 36  1  0  0  0  0
 35 34  2  0  0  0  0
 36 37  1  0  0  0  0
M  END
>  <MODEL>
6

>  <REMARK>
 VINA RESULT:      -4.3      4.312      8.062
  Name = 
  5 active torsions:
  status: ('A' for Active; 'I' for Inactive)
    1  A    between atoms: O_3  and  C_21
    2  A    between atoms: C_6  and  N_31
    3  A    between atoms: C_17  and  C_23
    4  A    between atoms: C_20  and  C_25
    5  A    between atoms: C_21  and  C_25
                            x       y       z     vdW  Elec       q    Type
                         _______ _______ _______ _____ _____    ______ ____

>  <TORSDO>
F 5

$$$$
=
 OpenBabel10272414473D

 37 42  0  0  1  0  0  0  0  0999 V2000
  185.2400  178.4230  138.5670 C   0  0  0  0  0  2  0  0  0  0  0  0
  187.6520  174.7060  136.6390 C   0  0  0  0  0  0  0  0  0  0  0  0
  184.0030  179.2540  138.8930 C   0  0  0  0  0  2  0  0  0  0  0  0
  184.2330  175.5430  135.3200 O   0  0  0  0  0  0  0  0  0  0  0  0
  188.3450  176.1530  138.4900 C   0  0  0  0  0  2  0  0  0  0  0  0
  186.2830  175.3330  136.6620 C   0  0  2  0  0  3  0  0  0  0  0  0
  181.9800  178.2170  137.8520 C   0  0  2  0  0  3  0  0  0  0  0  0
  188.6140  175.0970  137.4970 C   0  0  0  0  0  0  0  0  0  0  0  0
  185.5310  175.0140  135.3450 C   0  0  1  0  0  3  0  0  0  0  0  0
  189.7610  174.5770  137.1490 O   0  0  0  0  0  0  0  0  0  0  0  0
  182.7750  178.3940  139.1460 C   0  0  2  0  0  3  0  0  0  0  0  0
  187.5430  177.2570  137.7640 C   0  0  2  0  0  3  0  0  0  0  0  0
  187.8220  173.5690  134.3470 C   0  0  0  0  0  2  0  0  0  0  0  0
  189.6270  173.8760  136.0560 N   0  0  0  0  0  0  0  0  0  0  0  0
  182.6370  177.2220  136.9020 C   0  0  0  0  0  2  0  0  0  0  0  0
  184.3370  176.9220  135.1250 C   0  0  0  0  0  2  0  0  0  0  0  0
  188.3270  173.9470  135.7000 C   0  0  0  0  0  0  0  0  0  0  0  0
  186.3640  176.7990  136.9590 N   0  0  2  0  0  0  0  0  0  0  0  0
  185.4610  173.5520  135.1630 N   0  0  0  0  0  0  0  0  0  0  0  0
  184.0430  177.6260  136.4440 C   0  0  2  0  0  3  0  0  0  0  0  0
  181.7590  179.4400  137.2100 O   0  0  0  0  0  1  0  0  0  0  0  0
  185.0750  177.2690  137.5390 C   0  0  2  0  0  3  0  0  0  0  0  0
  186.4950  172.8240  134.4230 C   0  0  0  0  0  2  0  0  0  0  0  0
  184.6080  171.3720  135.9270 C   0  0  0  0  0  3  0  0  0  0  0  0
  184.4600  172.7620  135.8320 C   0  0  0  0  0  0  0  0  0  0  0  0
  183.3040  173.3610  136.3580 C   0  0  0  0  0  3  0  0  0  0  0  0
  181.2090  173.1720  137.4770 F   0  0  0  0  0  0  0  0  0  0  0  0
  182.4840  171.2030  137.0730 C   0  0  0  0  0  3  0  0  0  0  0  0
  182.3220  172.5860  136.9780 C   0  0  0  0  0  0  0  0  0  0  0  0
  183.6260  170.5950  136.5480 C   0  0  0  0  0  3  0  0  0  0  0  0
  181.9310  178.2960  141.3750 O   0  0  0  0  0  1  0  0  0  0  0  0
  181.8970  179.0470  140.2000 C   0  0  0  0  0  2  0  0  0  0  0  0
  188.4440  178.1160  136.8910 C   0  0  0  0  0  2  0  0  0  0  0  0
  187.9620  178.1370  135.4850 C   0  0  0  0  0  0  0  0  0  0  0  0
  187.0520  178.9410  135.1540 O   0  0  0  0  0  0  0  0  0  0  0  0
  188.5560  177.3010  134.5410 O   0  0  0  0  0  0  0  0  0  0  0  0
  189.9640  177.1210  134.4800 C   0  0  0  0  0  1  0  0  0  0  0  0
  1  3  1  0  0  0  0
  2  8  2  0  0  0  0
  3 11  1  0  0  0  0
  6  2  1  6  0  0  0
  6 18  1  0  0  0  0
  7 21  1  6  0  0  0
  7 11  1  0  0  0  0
  8  5  1  0  0  0  0
  9  4  1  1  0  0  0
  9  6  1  0  0  0  0
 10  8  1  0  0  0  0
 11 32  1  1  0  0  0
 12 33  1  6  0  0  0
 12  5  1  0  0  0  0
 13 23  1  0  0  0  0
 13 17  1  0  0  0  0
 14 10  1  0  0  0  0
 15  7  1  0  0  0  0
 16  4  1  0  0  0  0
 16 20  1  0  0  0  0
 17 14  2  0  0  0  0
 17  2  1  0  0  0  0
 18 22  1  0  0  0  0
 18 12  1  0  0  0  0
 19  9  1  0  0  0  0
 19 25  1  0  0  0  0
 20 15  1  0  0  0  0
 20 22  1  0  0  0  0
 22  1  1  0  0  0  0
 23 19  1  0  0  0  0
 24 30  1  0  0  0  0
 25 24  2  0  0  0  0
 25 26  1  0  0  0  0
 26 29  2  0  0  0  0
 29 28  1  0  0  0  0
 29 27  1  0  0  0  0
 30 28  2  0  0  0  0
 32 31  1  0  0  0  0
 34 33  1  0  0  0  0
 35 34  2  0  0  0  0
 36 34  1  0  0  0  0
 37 36  1  0  0  0  0
M  END
>  <MODEL>
7

>  <REMARK>
 VINA RESULT:      -4.1      3.457      5.322
  Name = 
  5 active torsions:
  status: ('A' for Active; 'I' for Inactive)
    1  A    between atoms: O_3  and  C_21
    2  A    between atoms: C_6  and  N_31
    3  A    between atoms: C_17  and  C_23
    4  A    between atoms: C_20  and  C_25
    5  A    between atoms: C_21  and  C_25
                            x       y       z     vdW  Elec       q    Type
                         _______ _______ _______ _____ _____    ______ ____

>  <TORSDO>
F 5

$$$$
=
 OpenBabel10272414473D

 37 42  0  0  1  0  0  0  0  0999 V2000
  188.9370  177.4780  141.0570 C   0  0  0  0  0  2  0  0  0  0  0  0
  189.1840  175.2590  136.7720 C   0  0  0  0  0  0  0  0  0  0  0  0
  188.2420  178.2060  142.2030 C   0  0  0  0  0  2  0  0  0  0  0  0
  186.2690  177.5220  137.4880 O   0  0  0  0  0  0  0  0  0  0  0  0
  190.7270  175.0570  138.6620 C   0  0  0  0  0  2  0  0  0  0  0  0
  188.2340  176.0500  137.6320 C   0  0  2  0  0  3  0  0  0  0  0  0
  185.8260  178.5460  141.6580 C   0  0  2  0  0  3  0  0  0  0  0  0
  190.3510  174.7990  137.2600 C   0  0  0  0  0  0  0  0  0  0  0  0
  187.2050  176.7930  136.7420 C   0  0  1  0  0  3  0  0  0  0  0  0
  191.0930  174.3400  136.2870 O   0  0  0  0  0  0  0  0  0  0  0  0
  186.8290  177.7000  142.4420 C   0  0  2  0  0  3  0  0  0  0  0  0
  190.3570  176.5270  138.9620 C   0  0  2  0  0  3  0  0  0  0  0  0
  188.4630  175.7540  134.3600 C   0  0  0  0  0  2  0  0  0  0  0  0
  190.4910  174.5080  135.1420 N   0  0  0  0  0  0  0  0  0  0  0  0
  185.8280  178.2140  140.1710 C   0  0  0  0  0  2  0  0  0  0  0  0
  186.9120  178.6580  137.9870 C   0  0  0  0  0  2  0  0  0  0  0  0
  189.3030  175.0930  135.4030 C   0  0  0  0  0  0  0  0  0  0  0  0
  188.9770  176.9570  138.5640 N   0  0  2  0  0  0  0  0  0  0  0  0
  186.4930  175.8160  135.8960 N   0  0  0  0  0  0  0  0  0  0  0  0
  187.1730  178.4570  139.4750 C   0  0  2  0  0  3  0  0  0  0  0  0
  186.0370  179.9150  141.8590 O   0  0  0  0  0  1  0  0  0  0  0  0
  188.1270  177.2710  139.7470 C   0  0  2  0  0  3  0  0  0  0  0  0
  186.9800  175.4660  134.5590 C   0  0  0  0  0  2  0  0  0  0  0  0
  185.5730  174.1610  137.4690 C   0  0  0  0  0  3  0  0  0  0  0  0
  185.3830  175.0550  136.4060 C   0  0  0  0  0  0  0  0  0  0  0  0
  184.1110  175.1580  135.8210 C   0  0  0  0  0  3  0  0  0  0  0  0
  181.8240  174.4970  135.7270 F   0  0  0  0  0  0  0  0  0  0  0  0
  183.2430  173.5120  137.3640 C   0  0  0  0  0  3  0  0  0  0  0  0
  183.0450  174.3930  136.3000 C   0  0  0  0  0  0  0  0  0  0  0  0
  184.5060  173.3960  137.9490 C   0  0  0  0  0  3  0  0  0  0  0  0
  187.6550  178.0810  144.6490 O   0  0  0  0  0  1  0  0  0  0  0  0
  186.5040  177.7640  143.9250 C   0  0  0  0  0  2  0  0  0  0  0  0
  191.3730  177.4890  138.3670 C   0  0  0  0  0  2  0  0  0  0  0  0
  192.7590  177.0890  138.7250 C   0  0  0  0  0  0  0  0  0  0  0  0
  193.5700  176.7810  137.8130 O   0  0  0  0  0  0  0  0  0  0  0  0
  193.1580  177.1060  140.0600 O   0  0  0  0  0  0  0  0  0  0  0  0
  192.3420  177.6680  141.0790 C   0  0  0  0  0  1  0  0  0  0  0  0
  1  3  1  0  0  0  0
  2  8  2  0  0  0  0
  3 11  1  0  0  0  0
  4 16  1  0  0  0  0
  5 12  1  0  0  0  0
  6  2  1  6  0  0  0
  6 18  1  0  0  0  0
  7 21  1  6  0  0  0
  7 11  1  0  0  0  0
  8  5  1  0  0  0  0
  9  4  1  1  0  0  0
  9  6  1  0  0  0  0
 10  8  1  0  0  0  0
 11 32  1  1  0  0  0
 12 33  1  6  0  0  0
 13 23  1  0  0  0  0
 13 17  1  0  0  0  0
 14 17  2  0  0  0  0
 14 10  1  0  0  0  0
 15  7  1  0  0  0  0
 16 20  1  0  0  0  0
 17  2  1  0  0  0  0
 18 12  1  0  0  0  0
 18 22  1  0  0  0  0
 19 25  1  0  0  0  0
 19  9  1  0  0  0  0
 20 22  1  0  0  0  0
 20 15  1  0  0  0  0
 22  1  1  0  0  0  0
 23 19  1  0  0  0  0
 24 30  1  0  0  0  0
 25 24  2  0  0  0  0
 26 29  2  0  0  0  0
 26 25  1  0  0  0  0
 27 29  1  0  0  0  0
 28 30  2  0  0  0  0
 29 28  1  0  0  0  0
 32 31  1  0  0  0  0
 33 34  1  0  0  0  0
 34 36  1  0  0  0  0
 35 34  2  0  0  0  0
 36 37  1  0  0  0  0
M  END
>  <MODEL>
8

>  <REMARK>
 VINA RESULT:      -3.8      1.639      2.073
  Name = 
  5 active torsions:
  status: ('A' for Active; 'I' for Inactive)
    1  A    between atoms: O_3  and  C_21
    2  A    between atoms: C_6  and  N_31
    3  A    between atoms: C_17  and  C_23
    4  A    between atoms: C_20  and  C_25
    5  A    between atoms: C_21  and  C_25
                            x       y       z     vdW  Elec       q    Type
                         _______ _______ _______ _____ _____    ______ ____

>  <TORSDO>
F 5

$$$$
=
 OpenBabel10272414473D

 37 42  0  0  1  0  0  0  0  0999 V2000
  188.0850  177.5940  140.7900 C   0  0  0  0  0  2  0  0  0  0  0  0
  187.0830  175.6330  136.4890 C   0  0  0  0  0  0  0  0  0  0  0  0
  187.7590  178.3040  142.1000 C   0  0  0  0  0  2  0  0  0  0  0  0
  184.6550  178.0800  137.9890 O   0  0  0  0  0  0  0  0  0  0  0  0
  189.0090  175.1870  137.9340 C   0  0  0  0  0  2  0  0  0  0  0  0
  186.4480  176.4450  137.5870 C   0  0  2  0  0  3  0  0  0  0  0  0
  185.3260  178.8760  142.1780 C   0  0  2  0  0  3  0  0  0  0  0  0
  188.2840  175.0480  136.6580 C   0  0  0  0  0  0  0  0  0  0  0  0
  185.3100  177.3240  137.0070 C   0  0  1  0  0  3  0  0  0  0  0  0
  188.7230  174.5910  135.5150 O   0  0  0  0  0  0  0  0  0  0  0  0
  186.4040  177.9020  142.6580 C   0  0  2  0  0  3  0  0  0  0  0  0
  188.8630  176.6610  138.3750 C   0  0  2  0  0  3  0  0  0  0  0  0
  185.8540  176.3340  134.3500 C   0  0  0  0  0  2  0  0  0  0  0  0
  187.8830  174.8790  134.5600 N   0  0  0  0  0  0  0  0  0  0  0  0
  184.9400  178.6370  140.7240 C   0  0  0  0  0  2  0  0  0  0  0  0
  185.5040  179.1250  138.3600 C   0  0  0  0  0  2  0  0  0  0  0  0
  186.8540  175.5430  135.1280 C   0  0  0  0  0  0  0  0  0  0  0  0
  187.4750  177.2280  138.3450 N   0  0  2  0  0  0  0  0  0  0  0  0
  184.3260  176.4630  136.3230 N   0  0  0  0  0  0  0  0  0  0  0  0
  186.0940  178.8110  139.7300 C   0  0  2  0  0  3  0  0  0  0  0  0
  185.7090  180.2070  142.3760 O   0  0  0  0  0  1  0  0  0  0  0  0
  186.9690  177.5360  139.7110 C   0  0  2  0  0  3  0  0  0  0  0  0
  184.4420  176.1580  134.8940 C   0  0  0  0  0  2  0  0  0  0  0  0
  182.8050  176.3050  138.2520 C   0  0  0  0  0  3  0  0  0  0  0  0
  183.3040  175.7660  137.0580 C   0  0  0  0  0  0  0  0  0  0  0  0
  182.8260  174.5200  136.6210 C   0  0  0  0  0  3  0  0  0  0  0  0
  181.4060  172.6320  136.9270 F   0  0  0  0  0  0  0  0  0  0  0  0
  181.3620  174.3830  138.5390 C   0  0  0  0  0  3  0  0  0  0  0  0
  181.8570  173.8330  137.3550 C   0  0  0  0  0  0  0  0  0  0  0  0
  181.8340  175.6180  138.9870 C   0  0  0  0  0  3  0  0  0  0  0  0
  187.7790  177.8940  144.6070 O   0  0  0  0  0  1  0  0  0  0  0  0
  186.4520  177.9010  144.1760 C   0  0  0  0  0  2  0  0  0  0  0  0
  189.7930  177.5710  137.5880 C   0  0  0  0  0  2  0  0  0  0  0  0
  189.0410  178.6880  136.9590 C   0  0  0  0  0  0  0  0  0  0  0  0
  188.9120  179.7750  137.5800 O   0  0  0  0  0  0  0  0  0  0  0  0
  188.5310  178.5350  135.6710 O   0  0  0  0  0  0  0  0  0  0  0  0
  189.3200  178.0180  134.6090 C   0  0  0  0  0  1  0  0  0  0  0  0
  1  3  1  0  0  0  0
  2  8  2  0  0  0  0
  3 11  1  0  0  0  0
  4 16  1  0  0  0  0
  5 12  1  0  0  0  0
  6  2  1  6  0  0  0
  6 18  1  0  0  0  0
  7 21  1  6  0  0  0
  7 11  1  0  0  0  0
  8  5  1  0  0  0  0
  9  6  1  0  0  0  0
  9  4  1  1  0  0  0
 10  8  1  0  0  0  0
 11 32  1  1  0  0  0
 12 33  1  6  0  0  0
 13 23  1  0  0  0  0
 13 17  1  0  0  0  0
 14 17  2  0  0  0  0
 14 10  1  0  0  0  0
 15  7  1  0  0  0  0
 16 20  1  0  0  0  0
 17  2  1  0  0  0  0
 18 12  1  0  0  0  0
 18 22  1  0  0  0  0
 19  9  1  0  0  0  0
 19 25  1  0  0  0  0
 20 15  1  0  0  0  0
 22 20  1  0  0  0  0
 22  1  1  0  0  0  0
 23 19  1  0  0  0  0
 24 30  1  0  0  0  0
 25 24  2  0  0  0  0
 26 25  1  0  0  0  0
 26 29  2  0  0  0  0
 27 29  1  0  0  0  0
 28 30  2  0  0  0  0
 29 28  1  0  0  0  0
 32 31  1  0  0  0  0
 34 35  2  0  0  0  0
 34 33  1  0  0  0  0
 36 34  1  0  0  0  0
 37 36  1  0  0  0  0
M  END
>  <MODEL>
9

>  <REMARK>
 VINA RESULT:      -3.6      2.552      3.145
  Name = 
  5 active torsions:
  status: ('A' for Active; 'I' for Inactive)
    1  A    between atoms: O_3  and  C_21
    2  A    between atoms: C_6  and  N_31
    3  A    between atoms: C_17  and  C_23
    4  A    between atoms: C_20  and  C_25
    5  A    between atoms: C_21  and  C_25
                            x       y       z     vdW  Elec       q    Type
                         _______ _______ _______ _____ _____    ______ ____

>  <TORSDO>
F 5

$$$$
