=
 OpenBabel10272401243D

 55 60  0  0  1  0  0  0  0  0999 V2000
  183.8690  177.3280  139.1910 C   0  0  0  0  0  2  0  0  0  0  0  0
  187.7950  176.2430  135.2740 C   0  0  0  0  0  2  0  0  0  0  0  0
  185.6380  173.2090  135.3260 O   0  0  0  0  0  0  0  0  0  0  0  0
  184.0780  170.3740  135.4860 C   0  0  0  0  0  2  0  0  0  0  0  0
  182.7980  169.6730  135.1160 C   0  0  0  0  0  3  0  0  0  0  0  0
  182.7990  172.5240  135.3970 C   0  0  2  0  0  3  0  0  0  0  0  0
  181.4620  171.7730  135.3640 C   0  0  0  0  0  2  0  0  0  0  0  0
  185.7510  172.3130  137.4520 O   0  0  0  0  0  0  0  0  0  0  0  0
  181.6260  170.3170  135.0110 C   0  0  0  0  0  3  0  0  0  0  0  0
  183.8290  171.7070  136.1940 C   0  0  2  0  0  3  0  0  0  0  0  0
  182.3630  175.1850  139.1880 C   0  0  0  0  0  2  0  0  0  0  0  0
  184.7660  179.0110  137.5810 C   0  0  0  0  0  2  0  0  0  0  0  0
  182.9560  174.3030  138.1120 C   0  0  0  0  0  2  0  0  0  0  0  0
  186.7970  179.1000  135.3430 C   0  0  0  0  0  1  0  0  0  0  0  0
  182.6350  173.9570  135.9320 C   0  0  2  0  0  3  0  0  0  0  0  0
  186.6400  175.3370  134.8710 C   0  0  0  0  0  2  0  0  0  0  0  0
  186.8230  173.9700  135.4910 C   0  0  0  0  0  2  0  0  0  0  0  0
  187.5200  177.0350  136.5600 C   0  0  1  0  0  3  0  0  0  0  0  0
  182.2100  176.8920  138.5960 S   0  0  0  0  0  0  0  0  0  0  0  0
  185.1290  172.4220  136.3610 C   0  0  0  0  0  0  0  0  0  0  0  0
  184.1260  178.8000  138.9520 C   0  0  2  0  0  3  0  0  0  0  0  0
  186.3910  178.0590  136.3820 C   0  0  1  0  0  3  0  0  0  0  0  0
  181.9720  173.9810  137.1720 O   0  0  0  0  0  0  0  0  0  0  0  0
  186.1310  178.7020  137.5990 O   0  0  0  0  0  0  0  0  0  0  0  0
  181.9380  174.8540  134.9080 C   0  0  1  0  0  3  0  0  0  0  0  0
  180.9300  176.9790  135.2350 C   0  0  1  0  0  3  0  0  0  0  0  0
  180.5400  174.6730  134.9520 O   0  0  0  0  0  0  0  0  0  0  0  0
  179.9820  175.9360  134.7050 C   0  0  0  0  0  2  0  0  0  0  0  0
  182.2680  176.3060  135.1700 C   0  0  0  0  0  2  0  0  0  0  0  0
  180.9080  178.2100  134.3460 C   0  0  0  0  0  3  0  0  0  0  0  0
  182.0760  179.1110  134.6910 C   0  0  0  0  0  2  0  0  0  0  0  0
  180.6930  179.4390  135.2090 C   0  0  0  0  0  2  0  0  0  0  0  0
  187.2720  176.1010  137.7380 C   0  0  0  0  0  2  0  0  0  0  0  0
  188.4550  175.9050  138.4520 O   0  0  0  0  0  0  0  0  0  0  0  0
  188.6590  177.1140  139.1180 C   0  0  0  0  0  2  0  0  0  0  0  0
  189.8810  177.0250  140.0200 C   0  0  2  0  0  3  0  0  0  0  0  0
  189.0600  178.7880  141.4270 O   0  0  0  0  0  0  0  0  0  0  0  0
  190.5660  175.7410  142.4770 O   0  0  0  0  0  1  0  0  0  0  0  0
  189.6110  177.6520  141.3640 C   0  0  0  0  0  0  0  0  0  0  0  0
  190.0480  176.9930  142.5610 N   0  0  0  0  0  0  0  0  0  0  0  0
  190.6400  176.8430  144.9100 C   0  0  0  0  0  2  0  0  0  0  0  0
  189.1400  177.0600  144.8610 C   0  0  2  0  0  3  0  0  0  0  0  0
  190.0430  177.7230  143.8300 C   0  0  2  0  0  3  0  0  0  0  0  0
  188.7730  178.0750  145.9200 C   0  0  0  0  0  2  0  0  0  0  0  0
  186.5570  177.7040  146.7140 O   0  0  0  0  0  0  0  0  0  0  0  0
  188.2290  176.7360  147.9490 O   0  0  0  0  0  1  0  0  0  0  0  0
  187.7890  177.4960  146.8760 C   0  0  0  0  0  0  0  0  0  0  0  0
  192.7800  176.3500  138.6670 C   0  0  0  0  0  2  0  0  0  0  0  0
  192.4400  177.1100  139.9360 C   0  0  0  0  0  2  0  0  0  0  0  0
  191.1340  177.5680  139.3060 C   0  0  0  0  0  3  0  0  0  0  0  0
  191.4700  176.7980  138.0400 C   0  0  0  0  0  2  0  0  0  0  0  0
  184.9830  179.3570  140.0810 C   0  0  0  0  0  2  0  0  0  0  0  0
  184.4830  178.8870  141.4400 C   0  0  0  0  0  2  0  0  0  0  0  0
  186.0640  177.8380  143.0270 C   0  0  0  0  0  1  0  0  0  0  0  0
  185.5250  179.1520  142.5110 C   0  0  0  0  0  2  0  0  0  0  0  0
  2 18  1  0  0  0  0
  3 17  1  0  0  0  0
  3 20  1  0  0  0  0
  5  4  1  0  0  0  0
  6  7  1  1  0  0  0
  6 15  1  0  0  0  0
  6 10  1  0  0  0  0
  9  5  2  0  0  0  0
  9  7  1  0  0  0  0
 10  4  1  6  0  0  0
 10 20  1  0  0  0  0
 12 24  1  0  0  0  0
 12 21  1  0  0  0  0
 13 11  1  0  0  0  0
 15 23  1  1  0  0  0
 16  2  1  0  0  0  0
 16 17  1  0  0  0  0
 18 33  1  1  0  0  0
 19 11  1  0  0  0  0
 19  1  1  0  0  0  0
 20  8  2  0  0  0  0
 21  1  1  0  0  0  0
 21 52  1  1  0  0  0
 22 14  1  6  0  0  0
 22 18  1  0  0  0  0
 22 24  1  0  0  0  0
 23 13  1  0  0  0  0
 25 27  1  0  0  0  0
 25 29  1  1  0  0  0
 25 15  1  0  0  0  0
 26 30  1  6  0  0  0
 28 27  1  0  0  0  0
 28 26  1  0  0  0  0
 29 26  1  0  0  0  0
 30 31  1  0  0  0  0
 30 32  1  0  0  0  0
 31 32  1  0  0  0  0
 33 34  1  0  0  0  0
 34 35  1  0  0  0  0
 36 35  1  6  0  0  0
 36 39  1  0  0  0  0
 38 40  1  0  0  0  0
 39 37  2  0  0  0  0
 39 40  1  0  0  0  0
 42 41  1  0  0  0  0
 42 44  1  1  0  0  0
 43 40  1  6  0  0  0
 43 42  1  0  0  0  0
 43 41  1  0  0  0  0
 44 47  1  0  0  0  0
 45 47  2  0  0  0  0
 47 46  1  0  0  0  0
 48 49  1  0  0  0  0
 50 49  1  0  0  0  0
 50 36  1  0  0  0  0
 51 48  1  0  0  0  0
 51 50  1  0  0  0  0
 52 53  1  0  0  0  0
 53 55  1  0  0  0  0
 55 54  1  0  0  0  0
M  END
>  <MODEL>
1

>  <REMARK>
 VINA RESULT:      -5.1      0.000      0.000
  Name = 
  14 active torsions:
  status: ('A' for Active; 'I' for Inactive)
    1  A    between atoms: C_6  and  C_14
    2  A    between atoms: C_6  and  C_38
    3  A    between atoms: O_8  and  C_20
    4  A    between atoms: O_8  and  C_22
    5  A    between atoms: C_10  and  C_32
    6  A    between atoms: C_12  and  C_20
    7  A    between atoms: C_12  and  C_42
    8  A    between atoms: C_12  and  C_46
    9  A    between atoms: C_13  and  C_36
   10  A    between atoms: C_21  and  N_53
   11  A    between atoms: C_22  and  C_43
   12  A    between atoms: C_27  and  C_49
   13  A    between atoms: C_27  and  C_55
   14  A    between atoms: C_41  and  C_55
                            x       y       z     vdW  Elec       q    Type
                         _______ _______ _______ _____ _____    ______ ____

>  <TORSDO>
F 14

$$$$
=
 OpenBabel10272401243D

 55 60  0  0  1  0  0  0  0  0999 V2000
  185.0810  177.5560  140.2170 C   0  0  0  0  0  2  0  0  0  0  0  0
  187.8400  176.9360  135.3240 C   0  0  0  0  0  2  0  0  0  0  0  0
  184.7860  174.8390  134.9660 O   0  0  0  0  0  0  0  0  0  0  0  0
  182.3680  172.7100  134.6240 C   0  0  0  0  0  2  0  0  0  0  0  0
  180.8880  172.5880  134.3790 C   0  0  0  0  0  3  0  0  0  0  0  0
  181.9210  175.0070  135.5120 C   0  0  2  0  0  3  0  0  0  0  0  0
  180.4130  174.7310  135.5760 C   0  0  0  0  0  2  0  0  0  0  0  0
  184.8510  173.2280  136.6200 O   0  0  0  0  0  0  0  0  0  0  0  0
  180.0110  173.5270  134.7650 C   0  0  0  0  0  3  0  0  0  0  0  0
  182.6930  173.6980  135.7450 C   0  0  2  0  0  3  0  0  0  0  0  0
  182.9350  176.0850  139.9230 C   0  0  0  0  0  2  0  0  0  0  0  0
  186.2940  179.3880  139.0330 C   0  0  0  0  0  2  0  0  0  0  0  0
  183.0380  175.5340  138.5180 C   0  0  0  0  0  2  0  0  0  0  0  0
  187.9210  179.7220  136.5070 C   0  0  0  0  0  1  0  0  0  0  0  0
  182.3380  176.1240  136.4840 C   0  0  2  0  0  3  0  0  0  0  0  0
  186.4000  176.6090  134.9560 C   0  0  0  0  0  2  0  0  0  0  0  0
  186.1720  175.1180  135.0630 C   0  0  0  0  0  2  0  0  0  0  0  0
  188.0290  177.2400  136.8180 C   0  0  1  0  0  3  0  0  0  0  0  0
  183.3130  177.8580  139.9390 S   0  0  0  0  0  0  0  0  0  0  0  0
  184.1720  173.9040  135.8010 C   0  0  0  0  0  0  0  0  0  0  0  0
  185.8030  178.8750  140.3860 C   0  0  2  0  0  3  0  0  0  0  0  0
  187.3150  178.5310  137.2430 C   0  0  1  0  0  3  0  0  0  0  0  0
  181.8910  175.8740  137.7940 O   0  0  0  0  0  0  0  0  0  0  0  0
  187.4550  178.7230  138.6230 O   0  0  0  0  0  0  0  0  0  0  0  0
  181.8730  177.4940  135.9860 C   0  0  1  0  0  3  0  0  0  0  0  0
  180.7330  179.2010  137.1810 C   0  0  1  0  0  3  0  0  0  0  0  0
  180.5130  177.4560  135.6130 O   0  0  0  0  0  0  0  0  0  0  0  0
  179.9820  178.7030  135.9740 C   0  0  0  0  0  2  0  0  0  0  0  0
  182.0730  178.5390  137.0600 C   0  0  0  0  0  2  0  0  0  0  0  0
  180.8770  180.7110  137.1230 C   0  0  0  0  0  3  0  0  0  0  0  0
  181.8110  181.1780  138.2210 C   0  0  0  0  0  2  0  0  0  0  0  0
  180.3130  181.3100  138.3980 C   0  0  0  0  0  2  0  0  0  0  0  0
  187.6240  176.0480  137.6750 C   0  0  0  0  0  2  0  0  0  0  0  0
  188.7170  175.5950  138.4150 O   0  0  0  0  0  0  0  0  0  0  0  0
  189.5150  176.7280  138.5780 C   0  0  0  0  0  2  0  0  0  0  0  0
  190.8710  176.3460  139.1520 C   0  0  2  0  0  3  0  0  0  0  0  0
  191.8830  178.1280  140.4040 O   0  0  0  0  0  0  0  0  0  0  0  0
  189.8030  175.5350  141.6730 O   0  0  0  0  0  1  0  0  0  0  0  0
  191.1510  177.0960  140.4290 C   0  0  0  0  0  0  0  0  0  0  0  0
  190.6490  176.5960  141.6760 N   0  0  0  0  0  0  0  0  0  0  0  0
  191.2710  176.0440  143.9560 C   0  0  0  0  0  2  0  0  0  0  0  0
  190.1290  177.0370  144.0540 C   0  0  2  0  0  3  0  0  0  0  0  0
  191.1520  177.1550  142.9330 C   0  0  2  0  0  3  0  0  0  0  0  0
  190.4630  178.0400  145.1340 C   0  0  0  0  0  2  0  0  0  0  0  0
  191.1220  176.9550  147.1510 O   0  0  0  0  0  1  0  0  0  0  0  0
  188.8970  177.4880  146.9920 O   0  0  0  0  0  0  0  0  0  0  0  0
  190.1860  177.4670  146.4810 C   0  0  0  0  0  0  0  0  0  0  0  0
  193.4060  174.9340  137.6430 C   0  0  0  0  0  2  0  0  0  0  0  0
  193.3610  176.1120  138.6000 C   0  0  0  0  0  2  0  0  0  0  0  0
  191.9760  176.4720  138.0860 C   0  0  0  0  0  3  0  0  0  0  0  0
  192.0170  175.2860  137.1370 C   0  0  0  0  0  2  0  0  0  0  0  0
  186.9390  178.7100  141.3870 C   0  0  0  0  0  2  0  0  0  0  0  0
  186.5460  177.7740  142.5210 C   0  0  0  0  0  2  0  0  0  0  0  0
  185.9390  177.6060  144.9130 C   0  0  0  0  0  1  0  0  0  0  0  0
  186.3910  178.5450  143.8190 C   0  0  0  0  0  2  0  0  0  0  0  0
  1 21  1  0  0  0  0
  2 18  1  0  0  0  0
  3 17  1  0  0  0  0
  3 20  1  0  0  0  0
  5  4  1  0  0  0  0
  5  9  2  0  0  0  0
  6  7  1  1  0  0  0
  6 10  1  0  0  0  0
  6 15  1  0  0  0  0
  9  7  1  0  0  0  0
 10  4  1  6  0  0  0
 10 20  1  0  0  0  0
 11 19  1  0  0  0  0
 12 21  1  0  0  0  0
 13 11  1  0  0  0  0
 15 23  1  1  0  0  0
 16 17  1  0  0  0  0
 16  2  1  0  0  0  0
 18 22  1  0  0  0  0
 18 33  1  1  0  0  0
 19  1  1  0  0  0  0
 20  8  2  0  0  0  0
 21 52  1  1  0  0  0
 22 14  1  6  0  0  0
 22 24  1  0  0  0  0
 23 13  1  0  0  0  0
 24 12  1  0  0  0  0
 25 15  1  0  0  0  0
 25 29  1  1  0  0  0
 26 30  1  6  0  0  0
 27 28  1  0  0  0  0
 27 25  1  0  0  0  0
 28 26  1  0  0  0  0
 29 26  1  0  0  0  0
 30 31  1  0  0  0  0
 30 32  1  0  0  0  0
 31 32  1  0  0  0  0
 33 34  1  0  0  0  0
 34 35  1  0  0  0  0
 36 35  1  6  0  0  0
 36 39  1  0  0  0  0
 37 39  2  0  0  0  0
 38 40  1  0  0  0  0
 39 40  1  0  0  0  0
 41 42  1  0  0  0  0
 42 44  1  1  0  0  0
 43 40  1  6  0  0  0
 43 41  1  0  0  0  0
 43 42  1  0  0  0  0
 44 47  1  0  0  0  0
 47 46  2  0  0  0  0
 47 45  1  0  0  0  0
 48 49  1  0  0  0  0
 50 49  1  0  0  0  0
 50 36  1  0  0  0  0
 51 48  1  0  0  0  0
 51 50  1  0  0  0  0
 52 53  1  0  0  0  0
 53 55  1  0  0  0  0
 55 54  1  0  0  0  0
M  END
>  <MODEL>
2

>  <REMARK>
 VINA RESULT:      -2.8      1.672      2.278
  Name = 
  14 active torsions:
  status: ('A' for Active; 'I' for Inactive)
    1  A    between atoms: C_6  and  C_14
    2  A    between atoms: C_6  and  C_38
    3  A    between atoms: O_8  and  C_20
    4  A    between atoms: O_8  and  C_22
    5  A    between atoms: C_10  and  C_32
    6  A    between atoms: C_12  and  C_20
    7  A    between atoms: C_12  and  C_42
    8  A    between atoms: C_12  and  C_46
    9  A    between atoms: C_13  and  C_36
   10  A    between atoms: C_21  and  N_53
   11  A    between atoms: C_22  and  C_43
   12  A    between atoms: C_27  and  C_49
   13  A    between atoms: C_27  and  C_55
   14  A    between atoms: C_41  and  C_55
                            x       y       z     vdW  Elec       q    Type
                         _______ _______ _______ _____ _____    ______ ____

>  <TORSDO>
F 14

$$$$
=
 OpenBabel10272401243D

 55 60  0  0  1  0  0  0  0  0999 V2000
  184.4390  177.2590  139.3400 C   0  0  0  0  0  2  0  0  0  0  0  0
  187.3290  175.7950  134.7100 C   0  0  0  0  0  2  0  0  0  0  0  0
  184.5980  173.2780  134.9620 O   0  0  0  0  0  0  0  0  0  0  0  0
  182.5020  170.8210  135.2240 C   0  0  0  0  0  2  0  0  0  0  0  0
  181.0570  170.4380  135.0500 C   0  0  0  0  0  3  0  0  0  0  0  0
  181.7300  173.1850  135.5070 C   0  0  2  0  0  3  0  0  0  0  0  0
  180.2740  172.7310  135.6710 C   0  0  0  0  0  2  0  0  0  0  0  0
  184.8600  172.1670  136.9700 O   0  0  0  0  0  0  0  0  0  0  0  0
  180.0540  171.3160  135.2030 C   0  0  0  0  0  3  0  0  0  0  0  0
  182.6720  172.0980  136.0490 C   0  0  2  0  0  3  0  0  0  0  0  0
  182.5200  175.4810  139.4760 C   0  0  0  0  0  2  0  0  0  0  0  0
  185.4040  178.8760  137.7030 C   0  0  0  0  0  2  0  0  0  0  0  0
  182.7190  174.6090  138.2550 C   0  0  0  0  0  2  0  0  0  0  0  0
  187.0080  178.7740  135.1420 C   0  0  0  0  0  1  0  0  0  0  0  0
  181.9750  174.5600  136.1540 C   0  0  2  0  0  3  0  0  0  0  0  0
  185.9530  175.1910  134.4680 C   0  0  0  0  0  2  0  0  0  0  0  0
  185.9320  173.7600  134.9560 C   0  0  0  0  0  2  0  0  0  0  0  0
  187.4510  176.4920  136.0720 C   0  0  1  0  0  3  0  0  0  0  0  0
  182.6500  177.2340  139.0310 S   0  0  0  0  0  0  0  0  0  0  0  0
  184.1070  172.5120  136.0210 C   0  0  0  0  0  0  0  0  0  0  0  0
  184.9690  178.6630  139.1530 C   0  0  2  0  0  3  0  0  0  0  0  0
  186.5600  177.7390  136.1690 C   0  0  1  0  0  3  0  0  0  0  0  0
  181.5470  174.5930  137.4930 O   0  0  0  0  0  0  0  0  0  0  0  0
  186.6520  178.2940  137.4520 O   0  0  0  0  0  0  0  0  0  0  0  0
  181.3330  175.6800  135.3330 C   0  0  1  0  0  3  0  0  0  0  0  0
  181.3700  178.0210  135.7290 C   0  0  1  0  0  3  0  0  0  0  0  0
  180.0870  176.0510  135.8810 O   0  0  0  0  0  0  0  0  0  0  0  0
  179.9820  177.4370  135.6910 C   0  0  0  0  0  2  0  0  0  0  0  0
  182.2430  176.8860  135.2870 C   0  0  0  0  0  2  0  0  0  0  0  0
  181.4770  179.1850  134.7600 C   0  0  0  0  0  3  0  0  0  0  0  0
  181.2610  180.4890  135.5010 C   0  0  0  0  0  2  0  0  0  0  0  0
  180.1350  179.8900  134.6860 C   0  0  0  0  0  2  0  0  0  0  0  0
  187.2020  175.5150  137.2140 C   0  0  0  0  0  2  0  0  0  0  0  0
  188.1550  174.4950  137.1890 O   0  0  0  0  0  0  0  0  0  0  0  0
  189.3780  175.1680  137.1880 C   0  0  0  0  0  2  0  0  0  0  0  0
  190.4440  174.3310  136.4960 C   0  0  2  0  0  3  0  0  0  0  0  0
  191.3880  175.9750  135.0230 O   0  0  0  0  0  0  0  0  0  0  0  0
  193.0390  174.2940  137.6880 O   0  0  0  0  0  1  0  0  0  0  0  0
  191.5750  175.1960  136.0010 C   0  0  0  0  0  0  0  0  0  0  0  0
  192.8770  175.0770  136.5910 N   0  0  0  0  0  0  0  0  0  0  0  0
  194.4920  174.8020  134.8010 C   0  0  0  0  0  2  0  0  0  0  0  0
  195.2890  174.8590  136.0890 C   0  0  2  0  0  3  0  0  0  0  0  0
  194.0280  175.6970  135.9320 C   0  0  2  0  0  3  0  0  0  0  0  0
  196.4980  175.7380  135.8610 C   0  0  0  0  0  2  0  0  0  0  0  0
  198.8250  175.3880  136.2370 O   0  0  0  0  0  1  0  0  0  0  0  0
  197.6990  173.6340  135.2830 O   0  0  0  0  0  0  0  0  0  0  0  0
  197.7380  174.9160  135.8100 C   0  0  0  0  0  0  0  0  0  0  0  0
  190.3730  171.3760  135.1000 C   0  0  0  0  0  2  0  0  0  0  0  0
  190.8460  172.7100  134.5540 C   0  0  0  0  0  2  0  0  0  0  0  0
  189.8190  173.4240  135.4190 C   0  0  0  0  0  3  0  0  0  0  0  0
  189.3530  172.0880  135.9720 C   0  0  0  0  0  2  0  0  0  0  0  0
  186.1020  178.9150  140.1380 C   0  0  0  0  0  2  0  0  0  0  0  0
  185.5770  179.0670  141.5590 C   0  0  0  0  0  2  0  0  0  0  0  0
  187.6840  177.8350  141.9620 C   0  0  0  0  0  1  0  0  0  0  0  0
  186.3000  178.1190  142.4980 C   0  0  0  0  0  2  0  0  0  0  0  0
  2 18  1  0  0  0  0
  3 20  1  0  0  0  0
  5  9  2  0  0  0  0
  5  4  1  0  0  0  0
  6  7  1  1  0  0  0
  6 10  1  0  0  0  0
  6 15  1  0  0  0  0
  9  7  1  0  0  0  0
 10  4  1  6  0  0  0
 12 21  1  0  0  0  0
 13 11  1  0  0  0  0
 15 23  1  1  0  0  0
 16  2  1  0  0  0  0
 16 17  1  0  0  0  0
 17  3  1  0  0  0  0
 18 22  1  0  0  0  0
 18 33  1  1  0  0  0
 19  1  1  0  0  0  0
 19 11  1  0  0  0  0
 20 10  1  0  0  0  0
 20  8  2  0  0  0  0
 21  1  1  0  0  0  0
 21 52  1  1  0  0  0
 22 14  1  6  0  0  0
 22 24  1  0  0  0  0
 23 13  1  0  0  0  0
 24 12  1  0  0  0  0
 25 29  1  1  0  0  0
 25 27  1  0  0  0  0
 25 15  1  0  0  0  0
 26 30  1  6  0  0  0
 28 26  1  0  0  0  0
 28 27  1  0  0  0  0
 29 26  1  0  0  0  0
 30 31  1  0  0  0  0
 32 30  1  0  0  0  0
 32 31  1  0  0  0  0
 34 33  1  0  0  0  0
 35 34  1  0  0  0  0
 36 35  1  6  0  0  0
 37 39  2  0  0  0  0
 39 36  1  0  0  0  0
 39 40  1  0  0  0  0
 40 38  1  0  0  0  0
 41 43  1  0  0  0  0
 41 42  1  0  0  0  0
 42 44  1  6  0  0  0
 43 42  1  0  0  0  0
 43 40  1  1  0  0  0
 46 47  2  0  0  0  0
 47 44  1  0  0  0  0
 47 45  1  0  0  0  0
 48 51  1  0  0  0  0
 49 48  1  0  0  0  0
 49 50  1  0  0  0  0
 50 51  1  0  0  0  0
 50 36  1  0  0  0  0
 52 53  1  0  0  0  0
 53 55  1  0  0  0  0
 54 55  1  0  0  0  0
M  END
>  <MODEL>
3

>  <REMARK>
 VINA RESULT:      -2.5      3.078      5.486
  Name = 
  14 active torsions:
  status: ('A' for Active; 'I' for Inactive)
    1  A    between atoms: C_6  and  C_14
    2  A    between atoms: C_6  and  C_38
    3  A    between atoms: O_8  and  C_20
    4  A    between atoms: O_8  and  C_22
    5  A    between atoms: C_10  and  C_32
    6  A    between atoms: C_12  and  C_20
    7  A    between atoms: C_12  and  C_42
    8  A    between atoms: C_12  and  C_46
    9  A    between atoms: C_13  and  C_36
   10  A    between atoms: C_21  and  N_53
   11  A    between atoms: C_22  and  C_43
   12  A    between atoms: C_27  and  C_49
   13  A    between atoms: C_27  and  C_55
   14  A    between atoms: C_41  and  C_55
                            x       y       z     vdW  Elec       q    Type
                         _______ _______ _______ _____ _____    ______ ____

>  <TORSDO>
F 14

$$$$
=
 OpenBabel10272401243D

 55 60  0  0  1  0  0  0  0  0999 V2000
  183.7370  177.2810  139.3630 C   0  0  0  0  0  2  0  0  0  0  0  0
  188.0630  176.7820  135.7620 C   0  0  0  0  0  2  0  0  0  0  0  0
  186.1790  173.5880  135.4340 O   0  0  0  0  0  0  0  0  0  0  0  0
  184.8610  170.6320  135.2810 C   0  0  0  0  0  2  0  0  0  0  0  0
  183.6830  169.8580  134.7540 C   0  0  0  0  0  3  0  0  0  0  0  0
  183.4150  172.6740  135.2050 C   0  0  2  0  0  3  0  0  0  0  0  0
  182.1550  171.8210  135.0050 C   0  0  0  0  0  2  0  0  0  0  0  0
  186.1860  172.5620  137.5040 O   0  0  0  0  0  0  0  0  0  0  0  0
  182.4730  170.4100  134.5820 C   0  0  0  0  0  3  0  0  0  0  0  0
  184.4380  171.8900  136.0420 C   0  0  2  0  0  3  0  0  0  0  0  0
  182.4270  175.0290  139.0940 C   0  0  0  0  0  2  0  0  0  0  0  0
  184.6200  179.1350  137.9460 C   0  0  0  0  0  2  0  0  0  0  0  0
  183.1840  174.2720  138.0250 C   0  0  0  0  0  2  0  0  0  0  0  0
  186.8210  179.5380  135.9120 C   0  0  0  0  0  1  0  0  0  0  0  0
  183.0830  174.0490  135.8080 C   0  0  2  0  0  3  0  0  0  0  0  0
  187.0300  175.8160  135.2010 C   0  0  0  0  0  2  0  0  0  0  0  0
  187.2760  174.4290  135.7520 C   0  0  0  0  0  2  0  0  0  0  0  0
  187.6120  177.4610  137.0630 C   0  0  1  0  0  3  0  0  0  0  0  0
  182.1790  176.7540  138.5940 S   0  0  0  0  0  0  0  0  0  0  0  0
  185.6530  172.6950  136.3700 C   0  0  0  0  0  0  0  0  0  0  0  0
  183.8850  178.7810  139.2380 C   0  0  2  0  0  3  0  0  0  0  0  0
  186.4180  178.4010  136.8450 C   0  0  1  0  0  3  0  0  0  0  0  0
  182.3160  173.9360  136.9820 O   0  0  0  0  0  0  0  0  0  0  0  0
  186.0010  178.9360  138.0690 O   0  0  0  0  0  0  0  0  0  0  0  0
  182.4010  174.9550  134.7800 C   0  0  1  0  0  3  0  0  0  0  0  0
  180.9840  176.8240  135.1540 C   0  0  1  0  0  3  0  0  0  0  0  0
  181.0700  174.5460  134.5570 O   0  0  0  0  0  0  0  0  0  0  0  0
  180.3360  175.7240  134.3540 C   0  0  0  0  0  2  0  0  0  0  0  0
  182.4160  176.3910  135.2540 C   0  0  0  0  0  2  0  0  0  0  0  0
  180.8760  178.1450  134.4140 C   0  0  0  0  0  3  0  0  0  0  0  0
  182.2290  178.8270  134.3860 C   0  0  0  0  0  2  0  0  0  0  0  0
  181.1790  179.2770  135.3780 C   0  0  0  0  0  2  0  0  0  0  0  0
  187.3460  176.4330  138.1550 C   0  0  0  0  0  2  0  0  0  0  0  0
  187.7950  176.9110  139.3860 O   0  0  0  0  0  0  0  0  0  0  0  0
  189.1620  176.6260  139.3870 C   0  0  0  0  0  2  0  0  0  0  0  0
  189.8530  177.3400  140.5390 C   0  0  2  0  0  3  0  0  0  0  0  0
  188.9490  175.7060  142.0480 O   0  0  0  0  0  0  0  0  0  0  0  0
  192.1280  177.2880  142.2660 O   0  0  0  0  0  1  0  0  0  0  0  0
  189.9230  176.4590  141.7610 C   0  0  0  0  0  0  0  0  0  0  0  0
  191.0600  176.5340  142.6320 N   0  0  0  0  0  0  0  0  0  0  0  0
  190.1010  176.7180  144.8530 C   0  0  0  0  0  2  0  0  0  0  0  0
  191.6050  176.7870  145.0310 C   0  0  2  0  0  3  0  0  0  0  0  0
  191.0020  175.9000  143.9510 C   0  0  2  0  0  3  0  0  0  0  0  0
  191.9820  175.9300  146.2180 C   0  0  0  0  0  2  0  0  0  0  0  0
  192.4540  176.8820  148.3520 O   0  0  0  0  0  1  0  0  0  0  0  0
  190.2480  176.8930  147.7260 O   0  0  0  0  0  0  0  0  0  0  0  0
  191.5810  176.5960  147.4890 C   0  0  0  0  0  0  0  0  0  0  0  0
  187.8620  179.1560  142.3900 C   0  0  0  0  0  2  0  0  0  0  0  0
  187.7110  178.6810  140.9570 C   0  0  0  0  0  2  0  0  0  0  0  0
  189.2220  178.7230  140.7890 C   0  0  0  0  0  3  0  0  0  0  0  0
  189.3720  179.1890  142.2270 C   0  0  0  0  0  2  0  0  0  0  0  0
  184.5920  179.3280  140.4710 C   0  0  0  0  0  2  0  0  0  0  0  0
  184.1480  178.6000  141.7320 C   0  0  0  0  0  2  0  0  0  0  0  0
  183.6220  179.2910  144.0480 C   0  0  0  0  0  1  0  0  0  0  0  0
  184.6780  179.3020  142.9680 C   0  0  0  0  0  2  0  0  0  0  0  0
  2 18  1  0  0  0  0
  3 17  1  0  0  0  0
  3 20  1  0  0  0  0
  5  4  1  0  0  0  0
  6  7  1  1  0  0  0
  6 15  1  0  0  0  0
  6 10  1  0  0  0  0
  9  5  2  0  0  0  0
  9  7  1  0  0  0  0
 10  4  1  6  0  0  0
 10 20  1  0  0  0  0
 12 24  1  0  0  0  0
 12 21  1  0  0  0  0
 13 11  1  0  0  0  0
 15 23  1  1  0  0  0
 16 17  1  0  0  0  0
 16  2  1  0  0  0  0
 18 33  1  1  0  0  0
 19 11  1  0  0  0  0
 19  1  1  0  0  0  0
 20  8  2  0  0  0  0
 21  1  1  0  0  0  0
 21 52  1  1  0  0  0
 22 14  1  6  0  0  0
 22 18  1  0  0  0  0
 22 24  1  0  0  0  0
 23 13  1  0  0  0  0
 25 29  1  1  0  0  0
 25 15  1  0  0  0  0
 26 30  1  6  0  0  0
 26 29  1  0  0  0  0
 27 25  1  0  0  0  0
 28 27  1  0  0  0  0
 28 26  1  0  0  0  0
 30 32  1  0  0  0  0
 31 30  1  0  0  0  0
 31 32  1  0  0  0  0
 33 34  1  0  0  0  0
 34 35  1  0  0  0  0
 36 35  1  6  0  0  0
 36 50  1  0  0  0  0
 36 39  1  0  0  0  0
 38 40  1  0  0  0  0
 39 37  2  0  0  0  0
 39 40  1  0  0  0  0
 41 42  1  0  0  0  0
 42 44  1  1  0  0  0
 43 40  1  6  0  0  0
 43 41  1  0  0  0  0
 43 42  1  0  0  0  0
 44 47  1  0  0  0  0
 47 46  2  0  0  0  0
 47 45  1  0  0  0  0
 49 48  1  0  0  0  0
 50 49  1  0  0  0  0
 50 51  1  0  0  0  0
 51 48  1  0  0  0  0
 52 53  1  0  0  0  0
 53 55  1  0  0  0  0
 55 54  1  0  0  0  0
M  END
>  <MODEL>
4

>  <REMARK>
 VINA RESULT:      -2.2      1.363      2.057
  Name = 
  14 active torsions:
  status: ('A' for Active; 'I' for Inactive)
    1  A    between atoms: C_6  and  C_14
    2  A    between atoms: C_6  and  C_38
    3  A    between atoms: O_8  and  C_20
    4  A    between atoms: O_8  and  C_22
    5  A    between atoms: C_10  and  C_32
    6  A    between atoms: C_12  and  C_20
    7  A    between atoms: C_12  and  C_42
    8  A    between atoms: C_12  and  C_46
    9  A    between atoms: C_13  and  C_36
   10  A    between atoms: C_21  and  N_53
   11  A    between atoms: C_22  and  C_43
   12  A    between atoms: C_27  and  C_49
   13  A    between atoms: C_27  and  C_55
   14  A    between atoms: C_41  and  C_55
                            x       y       z     vdW  Elec       q    Type
                         _______ _______ _______ _____ _____    ______ ____

>  <TORSDO>
F 14

$$$$
