=
 OpenBabel10272400153D

 31 35  0  0  1  0  0  0  0  0999 V2000
  186.8090  178.4700  147.0610 C   0  0  0  0  0  0  0  0  0  0  0  0
  186.6870  177.6160  143.3250 C   0  0  1  0  0  3  0  0  0  0  0  0
  188.2120  177.5190  143.0930 C   0  0  1  0  0  3  0  0  0  0  0  0
  190.1400  176.0480  143.8690 C   0  0  0  0  0  2  0  0  0  0  0  0
  186.3050  178.0250  144.7280 C   0  0  0  0  0  0  0  0  0  0  0  0
  185.4690  178.7910  147.2930 C   0  0  0  0  0  3  0  0  0  0  0  0
  188.6390  176.1630  143.6590 C   0  0  0  0  0  2  0  0  0  0  0  0
  184.5330  178.7520  142.5280 C   0  0  1  0  0  3  0  0  0  0  0  0
  187.7060  178.5310  148.0740 F   0  0  0  0  0  0  0  0  0  0  0  0
  187.8730  178.7300  140.9090 C   0  0  0  0  0  3  0  0  0  0  0  0
  190.8330  175.7990  142.5420 C   0  0  0  0  0  2  0  0  0  0  0  0
  183.9650  178.2260  143.8560 C   0  0  0  0  0  2  0  0  0  0  0  0
  185.9730  178.4750  142.3600 N   0  0  0  0  0  0  0  0  0  0  0  0
  187.2280  178.0850  145.7840 C   0  0  0  0  0  3  0  0  0  0  0  0
  191.0590  177.0900  141.8230 C   0  0  0  0  0  3  0  0  0  0  0  0
  184.9590  178.3450  144.9690 C   0  0  0  0  0  0  0  0  0  0  0  0
  184.5430  178.7250  146.2480 C   0  0  0  0  0  3  0  0  0  0  0  0
  186.6460  179.0910  141.2580 C   0  0  0  0  0  3  0  0  0  0  0  0
  188.6000  177.6210  141.6020 C   0  0  1  0  0  3  0  0  0  0  0  0
  190.0680  177.8950  141.4160 C   0  0  0  0  0  3  0  0  0  0  0  0
  183.7210  178.1710  141.3720 C   0  0  0  0  0  2  0  0  0  0  0  0
  182.4390  178.7400  141.3430 O   0  0  0  0  0  0  0  0  0  0  0  0
  180.8840  179.8810  139.7340 C   0  0  0  0  0  1  0  0  0  0  0  0
  184.2560  180.3600  138.9730 O   0  0  0  0  0  0  0  0  0  0  0  0
  183.3220  179.5730  139.2790 C   0  0  0  0  0  0  0  0  0  0  0  0
  182.5600  178.2550  139.0870 N   0  0  0  0  0  0  0  0  0  0  0  0
  182.2170  179.2160  140.0390 C   0  0  1  0  0  0  0  0  0  0  0  0
  182.4000  176.9650  138.4310 C   0  0  0  0  0  0  0  0  0  0  0  0
  183.6610  176.4010  138.2190 O   0  0  0  0  0  1  0  0  0  0  0  0
  181.7080  177.1590  137.0980 C   0  0  0  0  0  1  0  0  0  0  0  0
  181.5730  176.0340  139.3000 C   0  0  0  0  0  1  0  0  0  0  0  0
  1  6  1  0  0  0  0
  1  9  1  0  0  0  0
  2  5  1  1  0  0  0
  3  2  1  0  0  0  0
  3  7  1  6  0  0  0
  5 16  2  0  0  0  0
  5 14  1  0  0  0  0
  7  4  1  0  0  0  0
  8 21  1  6  0  0  0
  8 12  1  0  0  0  0
 10 18  2  0  0  0  0
 11  4  1  0  0  0  0
 12 16  1  0  0  0  0
 13  8  1  0  0  0  0
 13  2  1  0  0  0  0
 14  1  2  0  0  0  0
 15 11  1  0  0  0  0
 16 17  1  0  0  0  0
 17  6  2  0  0  0  0
 18 13  1  0  0  0  0
 19 10  1  1  0  0  0
 19  3  1  0  0  0  0
 20 19  1  0  0  0  0
 20 15  2  0  0  0  0
 22 21  1  0  0  0  0
 24 25  2  0  0  0  0
 25 27  1  0  0  0  0
 26 25  1  0  0  0  0
 26 27  1  0  0  0  0
 27 23  1  6  0  0  0
 27 22  1  0  0  0  0
 28 26  1  0  0  0  0
 28 31  1  0  0  0  0
 29 28  1  0  0  0  0
 30 28  1  0  0  0  0
M  END
>  <MODEL>
1

>  <REMARK>
 VINA RESULT:      -8.8      0.000      0.000
  Name = 
  4 active torsions:
  status: ('A' for Active; 'I' for Inactive)
    1  A    between atoms: C_1  and  N_19
    2  A    between atoms: O_9  and  C_22
    3  A    between atoms: O_9  and  C_23
    4  A    between atoms: C_15  and  C_23
                            x       y       z     vdW  Elec       q    Type
                         _______ _______ _______ _____ _____    ______ ____

>  <TORSDO>
F 4

$$$$
=
 OpenBabel10272400153D

 31 35  0  0  1  0  0  0  0  0999 V2000
  184.7540  179.1630  142.8680 C   0  0  0  0  0  0  0  0  0  0  0  0
  188.2260  177.6460  143.4620 C   0  0  1  0  0  3  0  0  0  0  0  0
  188.2930  177.8940  144.9860 C   0  0  1  0  0  3  0  0  0  0  0  0
  187.0550  177.1180  147.0710 C   0  0  0  0  0  2  0  0  0  0  0  0
  186.9790  178.1920  142.8060 C   0  0  0  0  0  0  0  0  0  0  0  0
  184.7170  179.1750  141.4710 C   0  0  0  0  0  3  0  0  0  0  0  0
  187.4210  176.8130  145.6270 C   0  0  0  0  0  2  0  0  0  0  0  0
  189.4340  178.0430  141.2360 C   0  0  1  0  0  3  0  0  0  0  0  0
  183.6990  179.6280  143.5780 F   0  0  0  0  0  0  0  0  0  0  0  0
  190.7030  178.5670  144.6860 C   0  0  0  0  0  3  0  0  0  0  0  0
  188.2340  176.8150  147.9790 C   0  0  0  0  0  2  0  0  0  0  0  0
  188.0820  177.6400  140.6250 C   0  0  0  0  0  2  0  0  0  0  0  0
  189.4090  178.1100  142.7110 N   0  0  0  0  0  0  0  0  0  0  0  0
  185.8800  178.6710  143.5350 C   0  0  0  0  0  3  0  0  0  0  0  0
  189.1820  177.9700  148.0030 C   0  0  0  0  0  3  0  0  0  0  0  0
  186.9330  178.2030  141.4020 C   0  0  0  0  0  0  0  0  0  0  0  0
  185.8040  178.6910  140.7370 C   0  0  0  0  0  3  0  0  0  0  0  0
  190.5500  178.6660  143.3730 C   0  0  0  0  0  3  0  0  0  0  0  0
  189.7310  177.8190  145.5420 C   0  0  1  0  0  3  0  0  0  0  0  0
  189.8360  178.4140  146.9210 C   0  0  0  0  0  3  0  0  0  0  0  0
  190.5120  177.0790  140.7460 C   0  0  0  0  0  2  0  0  0  0  0  0
  189.9570  176.1290  139.8760 O   0  0  0  0  0  0  0  0  0  0  0  0
  192.0190  176.9170  138.6800 C   0  0  0  0  0  1  0  0  0  0  0  0
  190.7380  173.9330  137.4050 O   0  0  0  0  0  0  0  0  0  0  0  0
  190.5360  175.1150  137.7850 C   0  0  0  0  0  0  0  0  0  0  0  0
  189.8930  176.4960  137.5960 N   0  0  0  0  0  0  0  0  0  0  0  0
  190.7010  176.1600  138.6840 C   0  0  1  0  0  0  0  0  0  0  0  0
  189.0330  177.4030  136.8510 C   0  0  0  0  0  0  0  0  0  0  0  0
  189.4140  177.3960  135.5070 O   0  0  0  0  0  1  0  0  0  0  0  0
  189.1780  178.8060  137.4050 C   0  0  0  0  0  1  0  0  0  0  0  0
  187.5840  176.9630  136.9650 C   0  0  0  0  0  1  0  0  0  0  0  0
  1 14  1  0  0  0  0
  1  9  1  0  0  0  0
  2  5  1  6  0  0  0
  2  3  1  0  0  0  0
  3 19  1  0  0  0  0
  3  7  1  1  0  0  0
  4 11  1  0  0  0  0
  5 14  2  0  0  0  0
  6  1  2  0  0  0  0
  7  4  1  0  0  0  0
  8 21  1  1  0  0  0
  8 13  1  0  0  0  0
 11 15  1  0  0  0  0
 12  8  1  0  0  0  0
 12 16  1  0  0  0  0
 13 18  1  0  0  0  0
 13  2  1  0  0  0  0
 16  5  1  0  0  0  0
 17 16  2  0  0  0  0
 17  6  1  0  0  0  0
 18 10  2  0  0  0  0
 19 10  1  6  0  0  0
 19 20  1  0  0  0  0
 20 15  2  0  0  0  0
 22 21  1  0  0  0  0
 24 25  2  0  0  0  0
 25 27  1  0  0  0  0
 26 25  1  0  0  0  0
 26 27  1  0  0  0  0
 27 23  1  1  0  0  0
 27 22  1  0  0  0  0
 28 31  1  0  0  0  0
 28 30  1  0  0  0  0
 28 26  1  0  0  0  0
 29 28  1  0  0  0  0
M  END
>  <MODEL>
2

>  <REMARK>
 VINA RESULT:      -8.3      3.681      6.120
  Name = 
  4 active torsions:
  status: ('A' for Active; 'I' for Inactive)
    1  A    between atoms: C_1  and  N_19
    2  A    between atoms: O_9  and  C_22
    3  A    between atoms: O_9  and  C_23
    4  A    between atoms: C_15  and  C_23
                            x       y       z     vdW  Elec       q    Type
                         _______ _______ _______ _____ _____    ______ ____

>  <TORSDO>
F 4

$$$$
=
 OpenBabel10272400153D

 31 35  0  0  1  0  0  0  0  0999 V2000
  187.1480  178.4310  147.1150 C   0  0  0  0  0  0  0  0  0  0  0  0
  186.7050  177.5910  143.4000 C   0  0  1  0  0  3  0  0  0  0  0  0
  188.2050  177.5190  143.0320 C   0  0  1  0  0  3  0  0  0  0  0  0
  190.2160  176.0750  143.6250 C   0  0  0  0  0  2  0  0  0  0  0  0
  186.4440  177.9880  144.8340 C   0  0  0  0  0  0  0  0  0  0  0  0
  185.8290  178.7300  147.4670 C   0  0  0  0  0  3  0  0  0  0  0  0
  188.7010  176.1670  143.5500 C   0  0  0  0  0  2  0  0  0  0  0  0
  184.4710  178.6980  142.8050 C   0  0  1  0  0  3  0  0  0  0  0  0
  188.1300  178.5010  148.0450 F   0  0  0  0  0  0  0  0  0  0  0  0
  187.6540  178.7340  140.8950 C   0  0  0  0  0  3  0  0  0  0  0  0
  190.7910  175.8420  142.2400 C   0  0  0  0  0  2  0  0  0  0  0  0
  184.0330  178.1570  144.1760 C   0  0  0  0  0  2  0  0  0  0  0  0
  185.8950  178.4440  142.5080 N   0  0  0  0  0  0  0  0  0  0  0  0
  187.4560  178.0580  145.8040 C   0  0  0  0  0  3  0  0  0  0  0  0
  190.9330  177.1400  141.5120 C   0  0  0  0  0  3  0  0  0  0  0  0
  185.1200  178.2870  145.1960 C   0  0  0  0  0  0  0  0  0  0  0  0
  184.8140  178.6550  146.5090 C   0  0  0  0  0  3  0  0  0  0  0  0
  186.4580  179.0750  141.3530 C   0  0  0  0  0  3  0  0  0  0  0  0
  188.4560  177.6340  141.5130 C   0  0  1  0  0  3  0  0  0  0  0  0
  189.8980  177.9310  141.1990 C   0  0  0  0  0  3  0  0  0  0  0  0
  183.5690  178.1100  141.7230 C   0  0  0  0  0  2  0  0  0  0  0  0
  183.0500  179.1310  140.9130 O   0  0  0  0  0  0  0  0  0  0  0  0
  181.2350  177.3970  140.8430 C   0  0  0  0  0  1  0  0  0  0  0  0
  180.0570  180.6020  141.5590 O   0  0  0  0  0  0  0  0  0  0  0  0
  180.7670  179.8520  140.8400 C   0  0  0  0  0  0  0  0  0  0  0  0
  181.2680  179.3900  139.4660 N   0  0  0  0  0  0  0  0  0  0  0  0
  181.6970  178.8350  140.6720 C   0  0  1  0  0  0  0  0  0  0  0  0
  181.2940  179.5190  138.0160 C   0  0  0  0  0  0  0  0  0  0  0  0
  181.4680  180.8640  137.6790 O   0  0  0  0  0  1  0  0  0  0  0  0
  179.9820  179.0250  137.4410 C   0  0  0  0  0  1  0  0  0  0  0  0
  182.4380  178.7050  137.4380 C   0  0  0  0  0  1  0  0  0  0  0  0
  1  6  1  0  0  0  0
  1  9  1  0  0  0  0
  2  5  1  1  0  0  0
  3  2  1  0  0  0  0
  3  7  1  6  0  0  0
  5 16  2  0  0  0  0
  5 14  1  0  0  0  0
  7  4  1  0  0  0  0
  8 21  1  6  0  0  0
  8 12  1  0  0  0  0
 10 18  2  0  0  0  0
 11  4  1  0  0  0  0
 12 16  1  0  0  0  0
 13  8  1  0  0  0  0
 13  2  1  0  0  0  0
 14  1  2  0  0  0  0
 15 11  1  0  0  0  0
 16 17  1  0  0  0  0
 17  6  2  0  0  0  0
 18 13  1  0  0  0  0
 19 10  1  1  0  0  0
 19  3  1  0  0  0  0
 20 15  2  0  0  0  0
 20 19  1  0  0  0  0
 22 21  1  0  0  0  0
 25 24  2  0  0  0  0
 26 27  1  0  0  0  0
 26 25  1  0  0  0  0
 27 25  1  0  0  0  0
 27 23  1  1  0  0  0
 27 22  1  0  0  0  0
 28 26  1  0  0  0  0
 29 28  1  0  0  0  0
 30 28  1  0  0  0  0
 31 28  1  0  0  0  0
M  END
>  <MODEL>
3

>  <REMARK>
 VINA RESULT:      -8.0      1.214      1.779
  Name = 
  4 active torsions:
  status: ('A' for Active; 'I' for Inactive)
    1  A    between atoms: C_1  and  N_19
    2  A    between atoms: O_9  and  C_22
    3  A    between atoms: O_9  and  C_23
    4  A    between atoms: C_15  and  C_23
                            x       y       z     vdW  Elec       q    Type
                         _______ _______ _______ _____ _____    ______ ____

>  <TORSDO>
F 4

$$$$
=
 OpenBabel10272400153D

 31 35  0  0  1  0  0  0  0  0999 V2000
  184.5780  178.8180  145.6340 C   0  0  0  0  0  0  0  0  0  0  0  0
  186.8960  177.7970  142.7550 C   0  0  1  0  0  3  0  0  0  0  0  0
  188.2300  177.8920  143.5300 C   0  0  1  0  0  3  0  0  0  0  0  0
  189.3460  176.7210  145.4960 C   0  0  0  0  0  2  0  0  0  0  0  0
  185.6880  178.2110  143.5600 C   0  0  0  0  0  0  0  0  0  0  0  0
  183.3710  178.9700  144.9470 C   0  0  0  0  0  3  0  0  0  0  0  0
  188.3070  176.6280  144.3900 C   0  0  0  0  0  2  0  0  0  0  0  0
  185.6430  178.6060  140.6700 C   0  0  1  0  0  3  0  0  0  0  0  0
  184.6310  179.0390  146.9690 F   0  0  0  0  0  0  0  0  0  0  0  0
  189.2480  178.9530  141.4840 C   0  0  0  0  0  3  0  0  0  0  0  0
  190.7350  176.5090  144.9230 C   0  0  0  0  0  2  0  0  0  0  0  0
  184.4080  178.0660  141.4120 C   0  0  0  0  0  2  0  0  0  0  0  0
  186.8840  178.5130  141.4640 N   0  0  0  0  0  0  0  0  0  0  0  0
  185.7340  178.4370  144.9450 C   0  0  0  0  0  3  0  0  0  0  0  0
  191.2640  177.7860  144.3560 C   0  0  0  0  0  3  0  0  0  0  0  0
  184.4690  178.3620  142.8770 C   0  0  0  0  0  0  0  0  0  0  0  0
  183.3150  178.7380  143.5690 C   0  0  0  0  0  3  0  0  0  0  0  0
  188.0520  179.1650  140.9530 C   0  0  0  0  0  3  0  0  0  0  0  0
  189.4590  177.9800  142.6000 C   0  0  1  0  0  3  0  0  0  0  0  0
  190.6920  178.4370  143.3330 C   0  0  0  0  0  3  0  0  0  0  0  0
  185.7840  177.8750  139.3370 C   0  0  0  0  0  2  0  0  0  0  0  0
  186.0550  178.7880  138.3070 O   0  0  0  0  0  0  0  0  0  0  0  0
  187.4820  178.9780  136.2480 C   0  0  0  0  0  1  0  0  0  0  0  0
  188.6120  176.5590  138.4950 O   0  0  0  0  0  0  0  0  0  0  0  0
  187.6580  177.0680  137.8510 C   0  0  0  0  0  0  0  0  0  0  0  0
  186.4050  176.9330  136.9750 N   0  0  0  0  0  0  0  0  0  0  0  0
  186.9240  178.1570  137.4000 C   0  0  1  0  0  0  0  0  0  0  0  0
  185.4150  176.1100  136.2950 C   0  0  0  0  0  0  0  0  0  0  0  0
  184.2330  176.8410  136.1510 O   0  0  0  0  0  1  0  0  0  0  0  0
  185.1380  174.8690  137.1190 C   0  0  0  0  0  1  0  0  0  0  0  0
  185.9250  175.7030  134.9240 C   0  0  0  0  0  1  0  0  0  0  0  0
  1  9  1  0  0  0  0
  2  3  1  0  0  0  0
  2  5  1  1  0  0  0
  3  7  1  6  0  0  0
  5 14  1  0  0  0  0
  6  1  1  0  0  0  0
  7  4  1  0  0  0  0
  8 21  1  6  0  0  0
  8 12  1  0  0  0  0
  8 13  1  0  0  0  0
 11  4  1  0  0  0  0
 12 16  1  0  0  0  0
 13  2  1  0  0  0  0
 14  1  2  0  0  0  0
 15 11  1  0  0  0  0
 16  5  2  0  0  0  0
 16 17  1  0  0  0  0
 17  6  2  0  0  0  0
 18 13  1  0  0  0  0
 18 10  2  0  0  0  0
 19 10  1  6  0  0  0
 19 20  1  0  0  0  0
 19  3  1  0  0  0  0
 20 15  2  0  0  0  0
 22 21  1  0  0  0  0
 25 24  2  0  0  0  0
 26 27  1  0  0  0  0
 26 25  1  0  0  0  0
 27 23  1  6  0  0  0
 27 25  1  0  0  0  0
 27 22  1  0  0  0  0
 28 26  1  0  0  0  0
 28 30  1  0  0  0  0
 29 28  1  0  0  0  0
 31 28  1  0  0  0  0
M  END
>  <MODEL>
4

>  <REMARK>
 VINA RESULT:      -7.8      2.555      3.414
  Name = 
  4 active torsions:
  status: ('A' for Active; 'I' for Inactive)
    1  A    between atoms: C_1  and  N_19
    2  A    between atoms: O_9  and  C_22
    3  A    between atoms: O_9  and  C_23
    4  A    between atoms: C_15  and  C_23
                            x       y       z     vdW  Elec       q    Type
                         _______ _______ _______ _____ _____    ______ ____

>  <TORSDO>
F 4

$$$$
=
 OpenBabel10272400153D

 31 35  0  0  1  0  0  0  0  0999 V2000
  185.6310  178.7710  146.1940 C   0  0  0  0  0  0  0  0  0  0  0  0
  186.3370  177.6560  142.5930 C   0  0  1  0  0  3  0  0  0  0  0  0
  187.8720  177.5330  142.7210 C   0  0  1  0  0  3  0  0  0  0  0  0
  189.5400  176.1060  144.0110 C   0  0  0  0  0  2  0  0  0  0  0  0
  185.6570  178.1660  143.8430 C   0  0  0  0  0  0  0  0  0  0  0  0
  184.2810  179.1170  146.0940 C   0  0  0  0  0  3  0  0  0  0  0  0
  188.1290  176.2160  143.4580 C   0  0  0  0  0  2  0  0  0  0  0  0
  184.4450  178.7500  141.2540 C   0  0  1  0  0  3  0  0  0  0  0  0
  186.2770  178.8960  147.3780 F   0  0  0  0  0  0  0  0  0  0  0  0
  188.0640  178.5890  140.4420 C   0  0  0  0  0  3  0  0  0  0  0  0
  190.5090  175.7590  142.8950 C   0  0  0  0  0  2  0  0  0  0  0  0
  183.5800  178.3230  142.4510 C   0  0  0  0  0  2  0  0  0  0  0  0
  185.8790  178.4510  141.4370 N   0  0  0  0  0  0  0  0  0  0  0  0
  186.3180  178.2940  145.0740 C   0  0  0  0  0  3  0  0  0  0  0  0
  190.9210  176.9940  142.1630 C   0  0  0  0  0  3  0  0  0  0  0  0
  184.2990  178.5130  143.7500 C   0  0  0  0  0  0  0  0  0  0  0  0
  183.6130  178.9850  144.8730 C   0  0  0  0  0  3  0  0  0  0  0  0
  186.7990  178.9830  140.4770 C   0  0  0  0  0  3  0  0  0  0  0  0
  188.5890  177.5270  141.3530 C   0  0  1  0  0  3  0  0  0  0  0  0
  190.0680  177.7760  141.4880 C   0  0  0  0  0  3  0  0  0  0  0  0
  183.9020  178.0950  139.9860 C   0  0  0  0  0  2  0  0  0  0  0  0
  183.2200  176.9110  140.3020 O   0  0  0  0  0  0  0  0  0  0  0  0
  181.1740  175.6860  139.5140 C   0  0  0  0  0  1  0  0  0  0  0  0
  181.7030  178.7070  137.8500 O   0  0  0  0  0  0  0  0  0  0  0  0
  182.1650  177.6150  138.2710 C   0  0  0  0  0  0  0  0  0  0  0  0
  183.0060  176.3470  138.0720 N   0  0  0  0  0  0  0  0  0  0  0  0
  182.3230  176.6460  139.2520 C   0  0  1  0  0  0  0  0  0  0  0  0
  183.8920  175.5270  137.2590 C   0  0  0  0  0  0  0  0  0  0  0  0
  184.1520  174.3290  137.9300 O   0  0  0  0  0  1  0  0  0  0  0  0
  185.1950  176.2650  137.0310 C   0  0  0  0  0  1  0  0  0  0  0  0
  183.2430  175.2220  135.9210 C   0  0  0  0  0  1  0  0  0  0  0  0
  1  9  1  0  0  0  0
  2  3  1  0  0  0  0
  2  5  1  1  0  0  0
  3  7  1  6  0  0  0
  5 14  1  0  0  0  0
  6  1  1  0  0  0  0
  7  4  1  0  0  0  0
  8 21  1  6  0  0  0
  8 13  1  0  0  0  0
  8 12  1  0  0  0  0
 10 18  2  0  0  0  0
 11  4  1  0  0  0  0
 12 16  1  0  0  0  0
 13  2  1  0  0  0  0
 14  1  2  0  0  0  0
 15 11  1  0  0  0  0
 16  5  2  0  0  0  0
 16 17  1  0  0  0  0
 17  6  2  0  0  0  0
 18 13  1  0  0  0  0
 19 10  1  6  0  0  0
 19 20  1  0  0  0  0
 19  3  1  0  0  0  0
 20 15  2  0  0  0  0
 21 22  1  0  0  0  0
 24 25  2  0  0  0  0
 25 27  1  0  0  0  0
 26 25  1  0  0  0  0
 26 27  1  0  0  0  0
 27 23  1  1  0  0  0
 27 22  1  0  0  0  0
 28 29  1  0  0  0  0
 28 26  1  0  0  0  0
 30 28  1  0  0  0  0
 31 28  1  0  0  0  0
M  END
>  <MODEL>
5

>  <REMARK>
 VINA RESULT:      -7.8      1.435      1.922
  Name = 
  4 active torsions:
  status: ('A' for Active; 'I' for Inactive)
    1  A    between atoms: C_1  and  N_19
    2  A    between atoms: O_9  and  C_22
    3  A    between atoms: O_9  and  C_23
    4  A    between atoms: C_15  and  C_23
                            x       y       z     vdW  Elec       q    Type
                         _______ _______ _______ _____ _____    ______ ____

>  <TORSDO>
F 4

$$$$
=
 OpenBabel10272400153D

 31 35  0  0  1  0  0  0  0  0999 V2000
  186.4800  178.4490  139.1270 C   0  0  0  0  0  0  0  0  0  0  0  0
  189.6440  176.8410  140.5800 C   0  0  1  0  0  3  0  0  0  0  0  0
  189.5250  177.4220  142.0070 C   0  0  1  0  0  3  0  0  0  0  0  0
  187.9290  177.2360  143.9820 C   0  0  0  0  0  2  0  0  0  0  0  0
  188.5700  177.3200  139.6310 C   0  0  0  0  0  0  0  0  0  0  0  0
  186.6400  178.1470  137.7720 C   0  0  0  0  0  3  0  0  0  0  0  0
  188.4560  176.5850  142.7140 C   0  0  0  0  0  2  0  0  0  0  0  0
  191.1880  176.6300  138.5450 C   0  0  1  0  0  3  0  0  0  0  0  0
  185.3940  179.1430  139.5430 F   0  0  0  0  0  0  0  0  0  0  0  0
  192.0120  177.8200  141.9630 C   0  0  0  0  0  3  0  0  0  0  0  0
  188.9270  177.0560  145.1110 C   0  0  0  0  0  2  0  0  0  0  0  0
  189.8980  176.2050  137.8230 C   0  0  0  0  0  2  0  0  0  0  0  0
  190.9640  177.0300  139.9480 N   0  0  0  0  0  0  0  0  0  0  0  0
  187.4390  178.0350  140.0560 C   0  0  0  0  0  3  0  0  0  0  0  0
  189.9850  178.1090  145.0420 C   0  0  0  0  0  3  0  0  0  0  0  0
  188.7220  177.0170  138.2680 C   0  0  0  0  0  0  0  0  0  0  0  0
  187.7590  177.4270  137.3420 C   0  0  0  0  0  3  0  0  0  0  0  0
  192.0560  177.6310  140.6520 C   0  0  0  0  0  3  0  0  0  0  0  0
  190.8530  177.3630  142.7910 C   0  0  1  0  0  3  0  0  0  0  0  0
  190.8300  178.2450  144.0110 C   0  0  0  0  0  3  0  0  0  0  0  0
  192.2100  175.4990  138.4500 C   0  0  0  0  0  2  0  0  0  0  0  0
  193.4000  175.9650  137.8730 O   0  0  0  0  0  0  0  0  0  0  0  0
  192.8820  173.8990  136.5410 C   0  0  0  0  0  1  0  0  0  0  0  0
  195.4240  175.8400  135.1470 O   0  0  0  0  0  0  0  0  0  0  0  0
  194.9290  175.2820  136.1600 C   0  0  0  0  0  0  0  0  0  0  0  0
  195.0720  174.4330  137.4300 N   0  0  0  0  0  0  0  0  0  0  0  0
  193.8610  174.9710  136.9920 C   0  0  1  0  0  0  0  0  0  0  0  0
  195.8960  173.6970  138.3780 C   0  0  0  0  0  0  0  0  0  0  0  0
  195.1820  172.5890  138.8420 O   0  0  0  0  0  1  0  0  0  0  0  0
  196.2420  174.5930  139.5490 C   0  0  0  0  0  1  0  0  0  0  0  0
  197.1730  173.2260  137.7060 C   0  0  0  0  0  1  0  0  0  0  0  0
  1  9  1  0  0  0  0
  1 14  1  0  0  0  0
  2  5  1  6  0  0  0
  2  3  1  0  0  0  0
  3  7  1  1  0  0  0
  3 19  1  0  0  0  0
  4 11  1  0  0  0  0
  5 14  2  0  0  0  0
  6  1  2  0  0  0  0
  7  4  1  0  0  0  0
  8 21  1  1  0  0  0
  8 13  1  0  0  0  0
 12 16  1  0  0  0  0
 12  8  1  0  0  0  0
 13  2  1  0  0  0  0
 13 18  1  0  0  0  0
 15 11  1  0  0  0  0
 16  5  1  0  0  0  0
 17  6  1  0  0  0  0
 17 16  2  0  0  0  0
 18 10  2  0  0  0  0
 19 10  1  6  0  0  0
 19 20  1  0  0  0  0
 20 15  2  0  0  0  0
 22 21  1  0  0  0  0
 24 25  2  0  0  0  0
 25 27  1  0  0  0  0
 25 26  1  0  0  0  0
 26 28  1  0  0  0  0
 27 23  1  6  0  0  0
 27 26  1  0  0  0  0
 27 22  1  0  0  0  0
 28 29  1  0  0  0  0
 28 30  1  0  0  0  0
 31 28  1  0  0  0  0
M  END
>  <MODEL>
6

>  <REMARK>
 VINA RESULT:      -7.7      5.738      9.220
  Name = 
  4 active torsions:
  status: ('A' for Active; 'I' for Inactive)
    1  A    between atoms: C_1  and  N_19
    2  A    between atoms: O_9  and  C_22
    3  A    between atoms: O_9  and  C_23
    4  A    between atoms: C_15  and  C_23
                            x       y       z     vdW  Elec       q    Type
                         _______ _______ _______ _____ _____    ______ ____

>  <TORSDO>
F 4

$$$$
=
 OpenBabel10272400153D

 31 35  0  0  1  0  0  0  0  0999 V2000
  190.8190  176.5120  139.1590 C   0  0  0  0  0  0  0  0  0  0  0  0
  188.5970  178.1400  141.8270 C   0  0  1  0  0  3  0  0  0  0  0  0
  189.3970  177.6730  143.0640 C   0  0  1  0  0  3  0  0  0  0  0  0
  191.7110  178.0530  144.0550 C   0  0  0  0  0  2  0  0  0  0  0  0
  189.1360  177.6190  140.5160 C   0  0  0  0  0  0  0  0  0  0  0  0
  190.0320  176.7050  138.0200 C   0  0  0  0  0  3  0  0  0  0  0  0
  190.6190  178.5900  143.1450 C   0  0  0  0  0  2  0  0  0  0  0  0
  186.2770  178.1520  140.7370 C   0  0  1  0  0  3  0  0  0  0  0  0
  192.0130  175.8810  139.0590 F   0  0  0  0  0  0  0  0  0  0  0  0
  187.2000  177.2050  144.2060 C   0  0  0  0  0  3  0  0  0  0  0  0
  191.3400  178.2910  145.5080 C   0  0  0  0  0  2  0  0  0  0  0  0
  187.0580  178.5560  139.4760 C   0  0  0  0  0  2  0  0  0  0  0  0
  187.1480  177.8670  141.8950 N   0  0  0  0  0  0  0  0  0  0  0  0
  190.3750  176.9690  140.4040 C   0  0  0  0  0  3  0  0  0  0  0  0
  190.4350  177.2080  145.9970 C   0  0  0  0  0  3  0  0  0  0  0  0
  188.3530  177.8130  139.3660 C   0  0  0  0  0  0  0  0  0  0  0  0
  188.8010  177.3590  138.1220 C   0  0  0  0  0  3  0  0  0  0  0  0
  186.5430  177.2920  143.0580 C   0  0  0  0  0  3  0  0  0  0  0  0
  188.5810  177.7550  144.3720 C   0  0  1  0  0  3  0  0  0  0  0  0
  189.2190  176.9700  145.4870 C   0  0  0  0  0  3  0  0  0  0  0  0
  185.2620  179.2440  141.0670 C   0  0  0  0  0  2  0  0  0  0  0  0
  184.7100  179.7700  139.8890 O   0  0  0  0  0  0  0  0  0  0  0  0
  182.7340  178.8010  141.1000 C   0  0  0  0  0  1  0  0  0  0  0  0
  181.8440  180.9660  138.5120 O   0  0  0  0  0  0  0  0  0  0  0  0
  182.5350  179.9930  138.9120 C   0  0  0  0  0  0  0  0  0  0  0  0
  183.1110  178.5850  138.7160 N   0  0  0  0  0  0  0  0  0  0  0  0
  183.3620  179.3740  139.8400 C   0  0  1  0  0  0  0  0  0  0  0  0
  183.2880  177.3870  137.9070 C   0  0  0  0  0  0  0  0  0  0  0  0
  182.3010  177.3530  136.9180 O   0  0  0  0  0  1  0  0  0  0  0  0
  183.1570  176.1600  138.7860 C   0  0  0  0  0  1  0  0  0  0  0  0
  184.6570  177.3960  137.2510 C   0  0  0  0  0  1  0  0  0  0  0  0
  1 14  1  0  0  0  0
  2  5  1  6  0  0  0
  2 13  1  0  0  0  0
  2  3  1  0  0  0  0
  3  7  1  1  0  0  0
  3 19  1  0  0  0  0
  4 11  1  0  0  0  0
  6 17  1  0  0  0  0
  6  1  2  0  0  0  0
  7  4  1  0  0  0  0
  8 21  1  1  0  0  0
  8 13  1  0  0  0  0
  9  1  1  0  0  0  0
 11 15  1  0  0  0  0
 12  8  1  0  0  0  0
 13 18  1  0  0  0  0
 14  5  2  0  0  0  0
 16 12  1  0  0  0  0
 16  5  1  0  0  0  0
 17 16  2  0  0  0  0
 18 10  2  0  0  0  0
 19 10  1  6  0  0  0
 19 20  1  0  0  0  0
 20 15  2  0  0  0  0
 22 21  1  0  0  0  0
 24 25  2  0  0  0  0
 25 27  1  0  0  0  0
 26 25  1  0  0  0  0
 26 27  1  0  0  0  0
 27 22  1  0  0  0  0
 27 23  1  1  0  0  0
 28 26  1  0  0  0  0
 28 30  1  0  0  0  0
 29 28  1  0  0  0  0
 31 28  1  0  0  0  0
M  END
>  <MODEL>
7

>  <REMARK>
 VINA RESULT:      -7.5      2.669      4.722
  Name = 
  4 active torsions:
  status: ('A' for Active; 'I' for Inactive)
    1  A    between atoms: C_1  and  N_19
    2  A    between atoms: O_9  and  C_22
    3  A    between atoms: O_9  and  C_23
    4  A    between atoms: C_15  and  C_23
                            x       y       z     vdW  Elec       q    Type
                         _______ _______ _______ _____ _____    ______ ____

>  <TORSDO>
F 4

$$$$
=
 OpenBabel10272400153D

 31 35  0  0  1  0  0  0  0  0999 V2000
  190.6750  176.6230  139.2630 C   0  0  0  0  0  0  0  0  0  0  0  0
  188.5280  178.1630  142.0420 C   0  0  1  0  0  3  0  0  0  0  0  0
  189.3720  177.6730  143.2410 C   0  0  1  0  0  3  0  0  0  0  0  0
  191.7140  178.0480  144.1660 C   0  0  0  0  0  2  0  0  0  0  0  0
  189.0290  177.6810  140.7010 C   0  0  0  0  0  0  0  0  0  0  0  0
  189.8510  176.8380  138.1560 C   0  0  0  0  0  3  0  0  0  0  0  0
  190.5890  178.5980  143.3050 C   0  0  0  0  0  2  0  0  0  0  0  0
  186.1740  178.1830  141.0290 C   0  0  1  0  0  3  0  0  0  0  0  0
  191.8710  176.0060  139.1080 F   0  0  0  0  0  0  0  0  0  0  0  0
  187.2180  177.1560  144.4400 C   0  0  0  0  0  3  0  0  0  0  0  0
  191.3890  178.2460  145.6350 C   0  0  0  0  0  2  0  0  0  0  0  0
  186.9110  178.6250  139.7540 C   0  0  0  0  0  2  0  0  0  0  0  0
  187.0850  177.8760  142.1500 N   0  0  0  0  0  0  0  0  0  0  0  0
  190.2690  177.0450  140.5330 C   0  0  0  0  0  3  0  0  0  0  0  0
  190.5090  177.1420  146.1260 C   0  0  0  0  0  3  0  0  0  0  0  0
  188.2070  177.8970  139.5820 C   0  0  0  0  0  0  0  0  0  0  0  0
  188.6180  177.4790  138.3140 C   0  0  0  0  0  3  0  0  0  0  0  0
  186.5230  177.2670  143.3170 C   0  0  0  0  0  3  0  0  0  0  0  0
  188.5980  177.7140  144.5760 C   0  0  1  0  0  3  0  0  0  0  0  0
  189.2780  176.9070  145.6490 C   0  0  0  0  0  3  0  0  0  0  0  0
  185.1610  179.2580  141.4190 C   0  0  0  0  0  2  0  0  0  0  0  0
  184.2890  179.5160  140.3520 O   0  0  0  0  0  0  0  0  0  0  0  0
  183.1650  177.3200  139.8790 C   0  0  0  0  0  1  0  0  0  0  0  0
  182.1430  178.7790  142.8800 O   0  0  0  0  0  0  0  0  0  0  0  0
  182.3730  178.8980  141.6480 C   0  0  0  0  0  0  0  0  0  0  0  0
  181.9840  179.4030  140.2530 N   0  0  0  0  0  0  0  0  0  0  0  0
  183.1580  178.6980  140.5210 C   0  0  1  0  0  0  0  0  0  0  0  0
  181.0810  180.1310  139.3730 C   0  0  0  0  0  0  0  0  0  0  0  0
  180.0940  180.7520  140.1420 O   0  0  0  0  0  1  0  0  0  0  0  0
  180.4270  179.1630  138.4070 C   0  0  0  0  0  1  0  0  0  0  0  0
  181.8470  181.1840  138.5930 C   0  0  0  0  0  1  0  0  0  0  0  0
  1 14  1  0  0  0  0
  2  5  1  6  0  0  0
  2 13  1  0  0  0  0
  2  3  1  0  0  0  0
  3  7  1  1  0  0  0
  3 19  1  0  0  0  0
  4 11  1  0  0  0  0
  6 17  1  0  0  0  0
  6  1  2  0  0  0  0
  7  4  1  0  0  0  0
  8 21  1  1  0  0  0
  8 13  1  0  0  0  0
  9  1  1  0  0  0  0
 11 15  1  0  0  0  0
 12  8  1  0  0  0  0
 13 18  1  0  0  0  0
 14  5  2  0  0  0  0
 16 12  1  0  0  0  0
 16  5  1  0  0  0  0
 17 16  2  0  0  0  0
 18 10  2  0  0  0  0
 19 10  1  6  0  0  0
 19 20  1  0  0  0  0
 20 15  2  0  0  0  0
 22 27  1  0  0  0  0
 22 21  1  0  0  0  0
 25 24  2  0  0  0  0
 26 27  1  0  0  0  0
 26 25  1  0  0  0  0
 27 23  1  6  0  0  0
 27 25  1  0  0  0  0
 28 29  1  0  0  0  0
 28 26  1  0  0  0  0
 30 28  1  0  0  0  0
 31 28  1  0  0  0  0
M  END
>  <MODEL>
8

>  <REMARK>
 VINA RESULT:      -7.3      2.699      4.919
  Name = 
  4 active torsions:
  status: ('A' for Active; 'I' for Inactive)
    1  A    between atoms: C_1  and  N_19
    2  A    between atoms: O_9  and  C_22
    3  A    between atoms: O_9  and  C_23
    4  A    between atoms: C_15  and  C_23
                            x       y       z     vdW  Elec       q    Type
                         _______ _______ _______ _____ _____    ______ ____

>  <TORSDO>
F 4

$$$$
=
 OpenBabel10272400153D

 31 35  0  0  1  0  0  0  0  0999 V2000
  187.9420  178.2820  137.2400 C   0  0  0  0  0  0  0  0  0  0  0  0
  190.5990  176.6570  139.4760 C   0  0  1  0  0  3  0  0  0  0  0  0
  190.2370  177.3960  140.7850 C   0  0  1  0  0  3  0  0  0  0  0  0
  188.2600  177.5210  142.3840 C   0  0  0  0  0  2  0  0  0  0  0  0
  189.7850  177.0930  138.2810 C   0  0  0  0  0  0  0  0  0  0  0  0
  188.3520  177.8260  135.9850 C   0  0  0  0  0  3  0  0  0  0  0  0
  188.9820  176.7050  141.3240 C   0  0  0  0  0  2  0  0  0  0  0  0
  192.5060  176.1350  137.8450 C   0  0  1  0  0  3  0  0  0  0  0  0
  186.8530  179.0810  137.3490 F   0  0  0  0  0  0  0  0  0  0  0  0
  192.7040  177.6390  141.2330 C   0  0  0  0  0  3  0  0  0  0  0  0
  188.9870  177.4060  143.7120 C   0  0  0  0  0  2  0  0  0  0  0  0
  191.3620  175.7110  136.9090 C   0  0  0  0  0  2  0  0  0  0  0  0
  192.0320  176.6980  139.1250 N   0  0  0  0  0  0  0  0  0  0  0  0
  188.6530  177.9160  138.3860 C   0  0  0  0  0  3  0  0  0  0  0  0
  190.1190  178.3800  143.7700 C   0  0  0  0  0  3  0  0  0  0  0  0
  190.1890  176.6350  137.0150 C   0  0  0  0  0  0  0  0  0  0  0  0
  189.4730  176.9990  135.8720 C   0  0  0  0  0  3  0  0  0  0  0  0
  193.0010  177.3060  139.9850 C   0  0  0  0  0  3  0  0  0  0  0  0
  191.3670  177.3440  141.8350 C   0  0  1  0  0  3  0  0  0  0  0  0
  191.1650  178.3530  142.9340 C   0  0  0  0  0  3  0  0  0  0  0  0
  193.4310  174.9410  138.0770 C   0  0  0  0  0  2  0  0  0  0  0  0
  194.7450  175.2650  137.7090 O   0  0  0  0  0  0  0  0  0  0  0  0
  195.9390  175.1000  139.9130 C   0  0  0  0  0  1  0  0  0  0  0  0
  195.2190  171.9940  138.4950 O   0  0  0  0  0  0  0  0  0  0  0  0
  195.6790  173.1590  138.3610 C   0  0  0  0  0  0  0  0  0  0  0  0
  196.7510  174.1280  137.8470 N   0  0  0  0  0  0  0  0  0  0  0  0
  195.6100  174.5330  138.5410 C   0  0  1  0  0  0  0  0  0  0  0  0
  197.9870  174.3850  137.1210 C   0  0  0  0  0  0  0  0  0  0  0  0
  197.9950  175.7130  136.6870 O   0  0  0  0  0  1  0  0  0  0  0  0
  198.0660  173.4650  135.9190 C   0  0  0  0  0  1  0  0  0  0  0  0
  199.1840  174.1440  138.0230 C   0  0  0  0  0  1  0  0  0  0  0  0
  1  9  1  0  0  0  0
  1 14  1  0  0  0  0
  2  5  1  6  0  0  0
  2  3  1  0  0  0  0
  3  7  1  1  0  0  0
  3 19  1  0  0  0  0
  4 11  1  0  0  0  0
  5 14  2  0  0  0  0
  6  1  2  0  0  0  0
  7  4  1  0  0  0  0
  8 21  1  1  0  0  0
  8 13  1  0  0  0  0
 11 15  1  0  0  0  0
 12 16  1  0  0  0  0
 12  8  1  0  0  0  0
 13  2  1  0  0  0  0
 13 18  1  0  0  0  0
 16  5  1  0  0  0  0
 17  6  1  0  0  0  0
 17 16  2  0  0  0  0
 18 10  2  0  0  0  0
 19 10  1  6  0  0  0
 19 20  1  0  0  0  0
 20 15  2  0  0  0  0
 22 21  1  0  0  0  0
 22 27  1  0  0  0  0
 25 24  2  0  0  0  0
 25 27  1  0  0  0  0
 26 25  1  0  0  0  0
 26 27  1  0  0  0  0
 27 23  1  1  0  0  0
 28 26  1  0  0  0  0
 28 31  1  0  0  0  0
 29 28  1  0  0  0  0
 30 28  1  0  0  0  0
M  END
>  <MODEL>
9

>  <REMARK>
 VINA RESULT:      -7.2      6.706     10.626
  Name = 
  4 active torsions:
  status: ('A' for Active; 'I' for Inactive)
    1  A    between atoms: C_1  and  N_19
    2  A    between atoms: O_9  and  C_22
    3  A    between atoms: O_9  and  C_23
    4  A    between atoms: C_15  and  C_23
                            x       y       z     vdW  Elec       q    Type
                         _______ _______ _______ _____ _____    ______ ____

>  <TORSDO>
F 4

$$$$
