=
 OpenBabel10272414033D

 43 49  0  0  1  0  0  0  0  0999 V2000
  191.4330  176.2210  147.0990 C   0  0  1  0  0  3  0  0  0  0  0  0
  187.2730  177.7990  144.5150 C   0  0  0  0  0  0  0  0  0  0  0  0
  188.1340  178.2590  141.9340 C   0  0  0  0  0  0  0  0  0  0  0  0
  189.1420  177.0630  146.4710 C   0  0  0  0  0  0  0  0  0  0  0  0
  191.8800  176.7510  145.7620 C   0  0  0  0  0  3  0  0  0  0  0  0
  192.3560  176.5670  148.0840 O   0  0  0  0  0  1  0  0  0  0  0  0
  189.5690  177.2910  145.1530 C   0  0  0  0  0  0  0  0  0  0  0  0
  190.1030  176.7090  147.4680 N   0  0  0  0  0  2  0  0  0  0  0  0
  191.0120  177.2030  144.8530 C   0  0  0  0  0  3  0  0  0  0  0  0
  189.0300  177.8970  142.8900 N   0  0  0  0  0  0  0  0  0  0  0  0
  188.6360  177.6630  144.1700 C   0  0  0  0  0  0  0  0  0  0  0  0
  186.8630  177.5770  145.8380 C   0  0  0  0  0  3  0  0  0  0  0  0
  186.3630  178.1690  143.5140 C   0  0  0  0  0  0  0  0  0  0  0  0
  186.8170  178.3830  142.2490 N   0  0  0  0  0  0  0  0  0  0  0  0
  187.7960  177.2150  146.8130 C   0  0  0  0  0  3  0  0  0  0  0  0
  188.5980  178.4780  140.5330 C   0  0  2  0  0  3  0  0  0  0  0  0
  188.9180  177.1800  139.9000 C   0  0  2  0  0  3  0  0  0  0  0  0
  189.9250  178.0320  140.3880 O   0  0  0  0  0  0  0  0  0  0  0  0
  188.8350  177.3110  138.3920 C   0  0  1  0  0  3  0  0  0  0  0  0
  190.1010  177.1190  137.8390 O   0  0  0  0  0  1  0  0  0  0  0  0
  187.8760  176.2650  137.8500 C   0  0  0  0  0  2  0  0  0  0  0  0
  187.0350  176.8480  136.8030 N   0  0  0  0  0  0  0  0  0  0  0  0
  184.8130  176.8640  137.7220 C   0  0  0  0  0  2  0  0  0  0  0  0
  186.7560  178.2160  137.2370 C   0  0  0  0  0  2  0  0  0  0  0  0
  185.7180  176.1880  136.7100 C   0  0  1  0  0  0  0  0  0  0  0  0
  185.1590  176.4270  135.3120 C   0  0  0  0  0  1  0  0  0  0  0  0
  185.3970  178.2420  137.9160 C   0  0  0  0  0  2  0  0  0  0  0  0
  185.7880  174.6670  136.9480 C   0  0  0  0  0  2  0  0  0  0  0  0
  184.7340  173.9600  136.2320 N   0  0  0  0  0  0  0  0  0  0  0  0
  184.8610  170.5330  135.4700 O   0  0  0  0  0  0  0  0  0  0  0  0
  183.6130  171.9120  136.9410 C   0  0  0  0  0  2  0  0  0  0  0  0
  184.6350  171.6410  135.9260 C   0  0  0  0  0  0  0  0  0  0  0  0
  183.8420  173.3820  137.2470 C   0  0  0  0  0  2  0  0  0  0  0  0
  185.3690  172.8520  135.5230 C   0  0  0  0  0  2  0  0  0  0  0  0
  184.9680  178.3180  143.8310 N   0  0  0  0  0  2  0  0  0  0  0  0
  182.8850  178.1870  140.7060 C   0  0  0  0  0  3  0  0  0  0  0  0
  181.6880  178.7390  141.1740 C   0  0  0  0  0  0  0  0  0  0  0  0
  182.6760  179.0080  143.3690 C   0  0  0  0  0  3  0  0  0  0  0  0
  183.9710  178.0380  141.5730 C   0  0  0  0  0  3  0  0  0  0  0  0
  183.8740  178.4460  142.9120 C   0  0  0  0  0  0  0  0  0  0  0  0
  181.5870  179.1580  142.5040 C   0  0  0  0  0  3  0  0  0  0  0  0
  180.7590  180.0340  139.4350 O   0  0  0  0  0  1  0  0  0  0  0  0
  180.5390  178.9210  140.2460 C   0  0  0  0  0  2  0  0  0  0  0  0
  1  8  1  0  0  0  0
  1  6  1  1  0  0  0
  2 12  1  0  0  0  0
  3 14  1  0  0  0  0
  3 10  2  0  0  0  0
  4 15  1  0  0  0  0
  4  8  1  0  0  0  0
  5  1  1  0  0  0  0
  7  4  2  0  0  0  0
  9  7  1  0  0  0  0
  9  5  2  0  0  0  0
 10 11  1  0  0  0  0
 11  2  2  0  0  0  0
 11  7  1  0  0  0  0
 12 15  2  0  0  0  0
 13 35  1  0  0  0  0
 13  2  1  0  0  0  0
 14 13  2  0  0  0  0
 16  3  1  1  0  0  0
 17 19  1  6  0  0  0
 17 18  1  0  0  0  0
 17 16  1  0  0  0  0
 18 16  1  0  0  0  0
 19 20  1  6  0  0  0
 21 19  1  0  0  0  0
 22 24  1  0  0  0  0
 22 21  1  0  0  0  0
 23 27  1  0  0  0  0
 24 27  1  0  0  0  0
 25 26  1  6  0  0  0
 25 22  1  0  0  0  0
 25 28  1  0  0  0  0
 25 23  1  0  0  0  0
 29 28  1  0  0  0  0
 29 33  1  0  0  0  0
 30 32  2  0  0  0  0
 31 33  1  0  0  0  0
 32 31  1  0  0  0  0
 34 32  1  0  0  0  0
 34 29  1  0  0  0  0
 36 37  2  0  0  0  0
 36 39  1  0  0  0  0
 37 41  1  0  0  0  0
 39 40  2  0  0  0  0
 40 38  1  0  0  0  0
 40 35  1  0  0  0  0
 41 38  2  0  0  0  0
 42 43  1  0  0  0  0
 43 37  1  0  0  0  0
M  END
>  <MODEL>
1

>  <REMARK>
 VINA RESULT:      -9.6      0.000      0.000
  Name = 
  9 active torsions:
  status: ('A' for Active; 'I' for Inactive)
    1  A    between atoms: N_1  and  C_34
    2  A    between atoms: N_1  and  C_35
    3  A    between atoms: C_2  and  C_13
    4  A    between atoms: C_3  and  N_4
    5  A    between atoms: C_3  and  C_12
    6  A    between atoms: C_6  and  C_12
    7  A    between atoms: N_11  and  C_14
    8  A    between atoms: C_14  and  C_22
    9  A    between atoms: C_19  and  C_37
                            x       y       z     vdW  Elec       q    Type
                         _______ _______ _______ _____ _____    ______ ____

>  <TORSDO>
F 9

$$$$
=
 OpenBabel10272414033D

 43 49  0  0  1  0  0  0  0  0999 V2000
  188.0560  177.2650  147.6700 C   0  0  1  0  0  3  0  0  0  0  0  0
  186.1710  178.4410  143.0300 C   0  0  0  0  0  0  0  0  0  0  0  0
  188.2790  178.1390  141.2750 C   0  0  0  0  0  0  0  0  0  0  0  0
  186.6160  178.0940  145.7760 C   0  0  0  0  0  0  0  0  0  0  0  0
  189.2100  177.3890  146.7090 C   0  0  0  0  0  3  0  0  0  0  0  0
  188.4120  177.7810  148.9140 O   0  0  0  0  0  1  0  0  0  0  0  0
  187.6800  177.9340  144.8740 C   0  0  0  0  0  0  0  0  0  0  0  0
  186.8540  177.9370  147.1760 N   0  0  0  0  0  2  0  0  0  0  0  0
  189.0260  177.6560  145.4130 C   0  0  0  0  0  3  0  0  0  0  0  0
  188.4810  177.9690  142.6080 N   0  0  0  0  0  0  0  0  0  0  0  0
  187.4620  178.1100  143.4970 C   0  0  0  0  0  0  0  0  0  0  0  0
  185.1200  178.6060  143.9430 C   0  0  0  0  0  3  0  0  0  0  0  0
  185.9810  178.6070  141.6500 C   0  0  0  0  0  0  0  0  0  0  0  0
  187.0390  178.4470  140.8090 N   0  0  0  0  0  0  0  0  0  0  0  0
  185.3430  178.4380  145.3120 C   0  0  0  0  0  3  0  0  0  0  0  0
  189.4140  177.9460  140.3260 C   0  0  2  0  0  3  0  0  0  0  0  0
  189.4710  176.5340  139.8890 C   0  0  2  0  0  3  0  0  0  0  0  0
  190.3470  177.0410  140.8650 O   0  0  0  0  0  0  0  0  0  0  0  0
  190.1970  176.4360  138.5630 C   0  0  1  0  0  3  0  0  0  0  0  0
  191.3820  175.7180  138.7340 O   0  0  0  0  0  1  0  0  0  0  0  0
  189.3100  175.7240  137.5560 C   0  0  0  0  0  2  0  0  0  0  0  0
  189.1370  176.5550  136.3630 N   0  0  0  0  0  0  0  0  0  0  0  0
  186.9370  177.5030  136.5730 C   0  0  0  0  0  2  0  0  0  0  0  0
  189.3010  177.9350  136.8150 C   0  0  0  0  0  2  0  0  0  0  0  0
  187.7660  176.4790  135.8220 C   0  0  1  0  0  0  0  0  0  0  0  0
  187.8100  176.8680  134.3480 C   0  0  0  0  0  1  0  0  0  0  0  0
  187.9260  178.5340  137.0560 C   0  0  0  0  0  2  0  0  0  0  0  0
  187.1520  175.0690  135.9310 C   0  0  0  0  0  2  0  0  0  0  0  0
  185.7760  175.1170  136.4070 N   0  0  0  0  0  0  0  0  0  0  0  0
  183.2160  173.0550  135.1650 O   0  0  0  0  0  0  0  0  0  0  0  0
  184.4390  173.2310  137.1890 C   0  0  0  0  0  2  0  0  0  0  0  0
  184.0920  173.6010  135.8140 C   0  0  0  0  0  0  0  0  0  0  0  0
  185.6540  174.1020  137.4630 C   0  0  0  0  0  2  0  0  0  0  0  0
  184.9250  174.6990  135.2960 C   0  0  0  0  0  2  0  0  0  0  0  0
  184.6800  178.9460  141.1400 N   0  0  0  0  0  2  0  0  0  0  0  0
  182.2640  176.6020  139.4670 C   0  0  0  0  0  3  0  0  0  0  0  0
  182.4960  176.9130  138.1240 C   0  0  0  0  0  0  0  0  0  0  0  0
  184.1590  178.5420  138.7920 C   0  0  0  0  0  3  0  0  0  0  0  0
  182.9740  177.2680  140.4710 C   0  0  0  0  0  3  0  0  0  0  0  0
  183.9250  178.2460  140.1400 C   0  0  0  0  0  0  0  0  0  0  0  0
  183.4500  177.8780  137.7870 C   0  0  0  0  0  3  0  0  0  0  0  0
  181.3280  174.9510  137.5330 O   0  0  0  0  0  1  0  0  0  0  0  0
  181.7590  176.1880  137.0530 C   0  0  0  0  0  2  0  0  0  0  0  0
  1  6  1  1  0  0  0
  2 11  2  0  0  0  0
  2 12  1  0  0  0  0
  3 10  2  0  0  0  0
  4  8  1  0  0  0  0
  5  1  1  0  0  0  0
  7  9  1  0  0  0  0
  7  4  2  0  0  0  0
  8  1  1  0  0  0  0
  9  5  2  0  0  0  0
 10 11  1  0  0  0  0
 11  7  1  0  0  0  0
 12 15  2  0  0  0  0
 13  2  1  0  0  0  0
 14  3  1  0  0  0  0
 14 13  2  0  0  0  0
 15  4  1  0  0  0  0
 16 18  1  0  0  0  0
 16  3  1  1  0  0  0
 17 19  1  6  0  0  0
 17 16  1  0  0  0  0
 17 18  1  0  0  0  0
 19 20  1  1  0  0  0
 21 19  1  0  0  0  0
 22 24  1  0  0  0  0
 22 21  1  0  0  0  0
 23 27  1  0  0  0  0
 24 27  1  0  0  0  0
 25 26  1  6  0  0  0
 25 28  1  0  0  0  0
 25 22  1  0  0  0  0
 25 23  1  0  0  0  0
 28 29  1  0  0  0  0
 29 33  1  0  0  0  0
 30 32  2  0  0  0  0
 31 33  1  0  0  0  0
 32 31  1  0  0  0  0
 34 32  1  0  0  0  0
 34 29  1  0  0  0  0
 35 13  1  0  0  0  0
 36 39  1  0  0  0  0
 37 36  2  0  0  0  0
 38 40  1  0  0  0  0
 40 39  2  0  0  0  0
 40 35  1  0  0  0  0
 41 37  1  0  0  0  0
 41 38  2  0  0  0  0
 43 42  1  0  0  0  0
 43 37  1  0  0  0  0
M  END
>  <MODEL>
2

>  <REMARK>
 VINA RESULT:      -9.2      2.043      2.697
  Name = 
  9 active torsions:
  status: ('A' for Active; 'I' for Inactive)
    1  A    between atoms: N_1  and  C_34
    2  A    between atoms: N_1  and  C_35
    3  A    between atoms: C_2  and  C_13
    4  A    between atoms: C_3  and  N_4
    5  A    between atoms: C_3  and  C_12
    6  A    between atoms: C_6  and  C_12
    7  A    between atoms: N_11  and  C_14
    8  A    between atoms: C_14  and  C_22
    9  A    between atoms: C_19  and  C_37
                            x       y       z     vdW  Elec       q    Type
                         _______ _______ _______ _____ _____    ______ ____

>  <TORSDO>
F 9

$$$$
=
 OpenBabel10272414033D

 43 49  0  0  1  0  0  0  0  0999 V2000
  181.5710  179.8140  139.3060 C   0  0  1  0  0  3  0  0  0  0  0  0
  185.2610  178.3800  142.5910 C   0  0  0  0  0  0  0  0  0  0  0  0
  187.6070  178.4340  141.1400 C   0  0  0  0  0  0  0  0  0  0  0  0
  182.8360  178.9160  141.2920 C   0  0  0  0  0  0  0  0  0  0  0  0
  182.8290  179.5560  138.5190 C   0  0  0  0  0  3  0  0  0  0  0  0
  180.4590  179.3790  138.5870 O   0  0  0  0  0  1  0  0  0  0  0  0
  184.0350  178.9500  140.5640 C   0  0  0  0  0  0  0  0  0  0  0  0
  181.6000  179.1690  140.6190 N   0  0  0  0  0  2  0  0  0  0  0  0
  183.9730  179.1990  139.1100 C   0  0  0  0  0  3  0  0  0  0  0  0
  186.4250  178.6970  140.5220 N   0  0  0  0  0  0  0  0  0  0  0  0
  185.2540  178.6790  141.2100 C   0  0  0  0  0  0  0  0  0  0  0  0
  184.0540  178.3420  143.3030 C   0  0  0  0  0  3  0  0  0  0  0  0
  186.4910  178.1170  143.2120 C   0  0  0  0  0  0  0  0  0  0  0  0
  187.6320  178.1560  142.4710 N   0  0  0  0  0  0  0  0  0  0  0  0
  182.8450  178.6040  142.6540 C   0  0  0  0  0  3  0  0  0  0  0  0
  188.8770  178.4930  140.3590 C   0  0  2  0  0  3  0  0  0  0  0  0
  189.2460  177.1380  139.8930 C   0  0  2  0  0  3  0  0  0  0  0  0
  189.8740  177.7340  141.0010 O   0  0  0  0  0  0  0  0  0  0  0  0
  190.1530  177.2410  138.6840 C   0  0  1  0  0  3  0  0  0  0  0  0
  191.4840  177.2660  139.1020 O   0  0  0  0  0  1  0  0  0  0  0  0
  189.9240  176.0420  137.7800 C   0  0  0  0  0  2  0  0  0  0  0  0
  190.4760  176.3020  136.4490 N   0  0  0  0  0  0  0  0  0  0  0  0
  190.2010  174.2400  135.2420 C   0  0  0  0  0  2  0  0  0  0  0  0
  189.3220  176.4670  135.5680 C   0  0  0  0  0  2  0  0  0  0  0  0
  191.2170  175.1440  135.9140 C   0  0  1  0  0  0  0  0  0  0  0  0
  192.1990  175.6470  134.8610 C   0  0  0  0  0  1  0  0  0  0  0  0
  189.0570  175.1470  134.8630 C   0  0  0  0  0  2  0  0  0  0  0  0
  192.0140  174.3860  136.9950 C   0  0  0  0  0  2  0  0  0  0  0  0
  193.4520  174.5320  136.8060 N   0  0  0  0  0  0  0  0  0  0  0  0
  195.7390  174.8520  139.4540 O   0  0  0  0  0  0  0  0  0  0  0  0
  195.2020  173.1900  137.8500 C   0  0  0  0  0  2  0  0  0  0  0  0
  195.0470  174.4850  138.5190 C   0  0  0  0  0  0  0  0  0  0  0  0
  194.0310  173.1840  136.8810 C   0  0  0  0  0  2  0  0  0  0  0  0
  193.9570  175.2920  137.9460 C   0  0  0  0  0  2  0  0  0  0  0  0
  186.5350  177.8080  144.6160 N   0  0  0  0  0  2  0  0  0  0  0  0
  188.8230  177.3970  147.5700 C   0  0  0  0  0  3  0  0  0  0  0  0
  190.0230  177.0900  146.9220 C   0  0  0  0  0  0  0  0  0  0  0  0
  188.9080  177.2700  144.7790 C   0  0  0  0  0  3  0  0  0  0  0  0
  187.6650  177.6320  146.8210 C   0  0  0  0  0  3  0  0  0  0  0  0
  187.6990  177.5670  145.4200 C   0  0  0  0  0  0  0  0  0  0  0  0
  190.0670  177.0340  145.5250 C   0  0  0  0  0  3  0  0  0  0  0  0
  192.2890  176.4370  146.8750 O   0  0  0  0  0  1  0  0  0  0  0  0
  191.2620  176.8650  147.7150 C   0  0  0  0  0  2  0  0  0  0  0  0
  1  6  1  6  0  0  0
  1  8  1  0  0  0  0
  2 13  1  0  0  0  0
  2 12  1  0  0  0  0
  3 14  1  0  0  0  0
  4 15  1  0  0  0  0
  5  9  2  0  0  0  0
  5  1  1  0  0  0  0
  7 11  1  0  0  0  0
  7  4  2  0  0  0  0
  8  4  1  0  0  0  0
  9  7  1  0  0  0  0
 10  3  2  0  0  0  0
 10 11  1  0  0  0  0
 11  2  2  0  0  0  0
 13 35  1  0  0  0  0
 14 13  2  0  0  0  0
 15 12  2  0  0  0  0
 16 18  1  0  0  0  0
 16  3  1  1  0  0  0
 17 19  1  6  0  0  0
 17 16  1  0  0  0  0
 17 18  1  0  0  0  0
 19 20  1  1  0  0  0
 21 19  1  0  0  0  0
 22 21  1  0  0  0  0
 23 25  1  0  0  0  0
 24 22  1  0  0  0  0
 25 26  1  6  0  0  0
 25 22  1  0  0  0  0
 25 28  1  0  0  0  0
 27 23  1  0  0  0  0
 27 24  1  0  0  0  0
 29 33  1  0  0  0  0
 29 28  1  0  0  0  0
 29 34  1  0  0  0  0
 31 32  1  0  0  0  0
 32 30  2  0  0  0  0
 33 31  1  0  0  0  0
 34 32  1  0  0  0  0
 35 40  1  0  0  0  0
 37 36  1  0  0  0  0
 37 43  1  0  0  0  0
 38 40  2  0  0  0  0
 38 41  1  0  0  0  0
 39 36  2  0  0  0  0
 40 39  1  0  0  0  0
 41 37  2  0  0  0  0
 42 43  1  0  0  0  0
M  END
>  <MODEL>
3

>  <REMARK>
 VINA RESULT:      -8.9      3.227      7.868
  Name = 
  9 active torsions:
  status: ('A' for Active; 'I' for Inactive)
    1  A    between atoms: N_1  and  C_34
    2  A    between atoms: N_1  and  C_35
    3  A    between atoms: C_2  and  C_13
    4  A    between atoms: C_3  and  N_4
    5  A    between atoms: C_3  and  C_12
    6  A    between atoms: C_6  and  C_12
    7  A    between atoms: N_11  and  C_14
    8  A    between atoms: C_14  and  C_22
    9  A    between atoms: C_19  and  C_37
                            x       y       z     vdW  Elec       q    Type
                         _______ _______ _______ _____ _____    ______ ____

>  <TORSDO>
F 9

$$$$
=
 OpenBabel10272414033D

 43 49  0  0  1  0  0  0  0  0999 V2000
  181.1670  179.5020  140.0970 C   0  0  1  0  0  3  0  0  0  0  0  0
  185.2860  178.4380  142.9890 C   0  0  0  0  0  0  0  0  0  0  0  0
  187.4320  178.4480  141.2540 C   0  0  0  0  0  0  0  0  0  0  0  0
  182.7000  178.7990  141.9690 C   0  0  0  0  0  0  0  0  0  0  0  0
  182.3280  179.2200  139.1790 C   0  0  0  0  0  3  0  0  0  0  0  0
  179.9920  178.9790  139.5570 O   0  0  0  0  0  1  0  0  0  0  0  0
  183.7990  178.8110  141.0950 C   0  0  0  0  0  0  0  0  0  0  0  0
  181.3820  178.9620  141.4400 N   0  0  0  0  0  2  0  0  0  0  0  0
  183.5480  178.9440  139.6460 C   0  0  0  0  0  3  0  0  0  0  0  0
  186.1740  178.6270  140.7720 N   0  0  0  0  0  0  0  0  0  0  0  0
  185.0970  178.6280  141.6020 C   0  0  0  0  0  0  0  0  0  0  0  0
  184.1780  178.4200  143.8480 C   0  0  0  0  0  3  0  0  0  0  0  0
  186.5920  178.2610  143.4680 C   0  0  0  0  0  0  0  0  0  0  0  0
  187.6310  178.2760  142.5880 N   0  0  0  0  0  0  0  0  0  0  0  0
  182.8890  178.5950  143.3380 C   0  0  0  0  0  3  0  0  0  0  0  0
  188.5930  178.4830  140.3180 C   0  0  2  0  0  3  0  0  0  0  0  0
  188.9980  177.1050  139.9640 C   0  0  2  0  0  3  0  0  0  0  0  0
  189.7100  177.8640  140.9100 O   0  0  0  0  0  0  0  0  0  0  0  0
  189.7460  177.1120  138.6460 C   0  0  1  0  0  3  0  0  0  0  0  0
  191.1120  176.9570  138.8860 O   0  0  0  0  0  1  0  0  0  0  0  0
  189.2470  175.9680  137.7800 C   0  0  0  0  0  2  0  0  0  0  0  0
  188.7450  176.4840  136.5050 N   0  0  0  0  0  0  0  0  0  0  0  0
  186.4680  177.1220  136.9400 C   0  0  0  0  0  2  0  0  0  0  0  0
  188.7230  177.9390  136.6490 C   0  0  0  0  0  2  0  0  0  0  0  0
  187.3450  176.0920  136.2540 C   0  0  1  0  0  0  0  0  0  0  0  0
  187.0920  176.1520  134.7520 C   0  0  0  0  0  1  0  0  0  0  0  0
  187.3150  178.3670  137.0250 C   0  0  0  0  0  2  0  0  0  0  0  0
  187.0220  174.6660  136.7420 C   0  0  0  0  0  2  0  0  0  0  0  0
  185.7240  174.2120  136.2580 N   0  0  0  0  0  0  0  0  0  0  0  0
  184.9510  170.8420  135.6320 O   0  0  0  0  0  0  0  0  0  0  0  0
  184.3310  172.4680  137.2440 C   0  0  0  0  0  2  0  0  0  0  0  0
  185.0630  171.9730  136.0740 C   0  0  0  0  0  0  0  0  0  0  0  0
  184.9310  173.8500  137.4410 C   0  0  0  0  0  2  0  0  0  0  0  0
  185.9570  172.9890  135.4940 C   0  0  0  0  0  2  0  0  0  0  0  0
  186.8210  178.0630  144.8740 N   0  0  0  0  0  2  0  0  0  0  0  0
  190.3620  176.9380  145.4370 C   0  0  0  0  0  3  0  0  0  0  0  0
  190.3940  176.8850  146.8340 C   0  0  0  0  0  0  0  0  0  0  0  0
  188.0810  177.5980  146.9090 C   0  0  0  0  0  3  0  0  0  0  0  0
  189.1930  177.3290  144.7790 C   0  0  0  0  0  3  0  0  0  0  0  0
  188.0430  177.6650  145.5110 C   0  0  0  0  0  0  0  0  0  0  0  0
  189.2500  177.2080  147.5690 C   0  0  0  0  0  3  0  0  0  0  0  0
  192.3410  175.5580  146.7260 O   0  0  0  0  0  1  0  0  0  0  0  0
  191.6310  176.4440  147.5350 C   0  0  0  0  0  2  0  0  0  0  0  0
  1  6  1  6  0  0  0
  1  8  1  0  0  0  0
  2 13  1  0  0  0  0
  2 12  1  0  0  0  0
  3 14  1  0  0  0  0
  4 15  1  0  0  0  0
  5  9  2  0  0  0  0
  5  1  1  0  0  0  0
  7 11  1  0  0  0  0
  7  4  2  0  0  0  0
  8  4  1  0  0  0  0
  9  7  1  0  0  0  0
 10  3  2  0  0  0  0
 10 11  1  0  0  0  0
 11  2  2  0  0  0  0
 13 35  1  0  0  0  0
 14 13  2  0  0  0  0
 15 12  2  0  0  0  0
 16 18  1  0  0  0  0
 16  3  1  1  0  0  0
 17 19  1  6  0  0  0
 17 16  1  0  0  0  0
 17 18  1  0  0  0  0
 19 20  1  1  0  0  0
 21 19  1  0  0  0  0
 22 24  1  0  0  0  0
 22 21  1  0  0  0  0
 23 27  1  0  0  0  0
 24 27  1  0  0  0  0
 25 26  1  6  0  0  0
 25 22  1  0  0  0  0
 25 28  1  0  0  0  0
 25 23  1  0  0  0  0
 29 28  1  0  0  0  0
 29 33  1  0  0  0  0
 30 32  2  0  0  0  0
 31 33  1  0  0  0  0
 32 31  1  0  0  0  0
 34 32  1  0  0  0  0
 34 29  1  0  0  0  0
 35 40  1  0  0  0  0
 36 37  1  0  0  0  0
 37 43  1  0  0  0  0
 37 41  2  0  0  0  0
 38 41  1  0  0  0  0
 39 36  2  0  0  0  0
 39 40  1  0  0  0  0
 40 38  2  0  0  0  0
 42 43  1  0  0  0  0
M  END
>  <MODEL>
4

>  <REMARK>
 VINA RESULT:      -8.9      1.352      6.403
  Name = 
  9 active torsions:
  status: ('A' for Active; 'I' for Inactive)
    1  A    between atoms: N_1  and  C_34
    2  A    between atoms: N_1  and  C_35
    3  A    between atoms: C_2  and  C_13
    4  A    between atoms: C_3  and  N_4
    5  A    between atoms: C_3  and  C_12
    6  A    between atoms: C_6  and  C_12
    7  A    between atoms: N_11  and  C_14
    8  A    between atoms: C_14  and  C_22
    9  A    between atoms: C_19  and  C_37
                            x       y       z     vdW  Elec       q    Type
                         _______ _______ _______ _____ _____    ______ ____

>  <TORSDO>
F 9

$$$$
=
 OpenBabel10272414033D

 43 49  0  0  1  0  0  0  0  0999 V2000
  191.3260  176.2230  146.9710 C   0  0  1  0  0  3  0  0  0  0  0  0
  187.0110  177.8630  144.7000 C   0  0  0  0  0  0  0  0  0  0  0  0
  187.6850  178.3040  142.0610 C   0  0  0  0  0  0  0  0  0  0  0  0
  189.0090  177.1010  146.5130 C   0  0  0  0  0  0  0  0  0  0  0  0
  191.6810  176.7430  145.6020 C   0  0  0  0  0  3  0  0  0  0  0  0
  192.3260  176.5550  147.8830 O   0  0  0  0  0  1  0  0  0  0  0  0
  189.3400  177.3190  145.1660 C   0  0  0  0  0  0  0  0  0  0  0  0
  190.0360  176.7330  147.4370 N   0  0  0  0  0  2  0  0  0  0  0  0
  190.7550  177.2070  144.7600 C   0  0  0  0  0  3  0  0  0  0  0  0
  188.6430  177.9290  142.9480 N   0  0  0  0  0  0  0  0  0  0  0  0
  188.3420  177.7040  144.2540 C   0  0  0  0  0  0  0  0  0  0  0  0
  186.6980  177.6500  146.0500 C   0  0  0  0  0  3  0  0  0  0  0  0
  186.0350  178.2450  143.7690 C   0  0  0  0  0  0  0  0  0  0  0  0
  186.3970  178.4500  142.4730 N   0  0  0  0  0  0  0  0  0  0  0  0
  187.6950  177.2750  146.9540 C   0  0  0  0  0  3  0  0  0  0  0  0
  188.0450  178.5130  140.6280 C   0  0  2  0  0  3  0  0  0  0  0  0
  188.6510  177.2810  140.0760 C   0  0  2  0  0  3  0  0  0  0  0  0
  189.4360  178.3830  140.4560 O   0  0  0  0  0  0  0  0  0  0  0  0
  188.4990  177.2660  138.5690 C   0  0  1  0  0  3  0  0  0  0  0  0
  189.1220  178.3920  138.0280 O   0  0  0  0  0  1  0  0  0  0  0  0
  189.1440  176.0090  138.0120 C   0  0  0  0  0  2  0  0  0  0  0  0
  189.5180  176.2140  136.6110 N   0  0  0  0  0  0  0  0  0  0  0  0
  189.7980  174.0030  135.7060 C   0  0  0  0  0  2  0  0  0  0  0  0
  188.3190  175.9100  135.8330 C   0  0  0  0  0  2  0  0  0  0  0  0
  190.5380  175.2490  136.1560 C   0  0  1  0  0  0  0  0  0  0  0  0
  191.2650  175.8480  134.9580 C   0  0  0  0  0  1  0  0  0  0  0  0
  188.4170  174.4800  135.3300 C   0  0  0  0  0  2  0  0  0  0  0  0
  191.5820  174.9190  137.2410 C   0  0  0  0  0  2  0  0  0  0  0  0
  192.9300  174.8560  136.6890 N   0  0  0  0  0  0  0  0  0  0  0  0
  195.8400  174.8980  138.6560 O   0  0  0  0  0  0  0  0  0  0  0  0
  194.6950  173.2990  137.3330 C   0  0  0  0  0  2  0  0  0  0  0  0
  194.8900  174.6150  137.9470 C   0  0  0  0  0  0  0  0  0  0  0  0
  193.3250  173.4410  136.6900 C   0  0  0  0  0  2  0  0  0  0  0  0
  193.8070  175.5580  137.6230 C   0  0  0  0  0  2  0  0  0  0  0  0
  184.6700  178.4180  144.1880 N   0  0  0  0  0  2  0  0  0  0  0  0
  181.1980  179.2780  143.0370 C   0  0  0  0  0  3  0  0  0  0  0  0
  181.3230  179.0570  141.6620 C   0  0  0  0  0  0  0  0  0  0  0  0
  183.6370  178.4160  141.9800 C   0  0  0  0  0  3  0  0  0  0  0  0
  182.2950  179.0750  143.8790 C   0  0  0  0  0  3  0  0  0  0  0  0
  183.5240  178.6450  143.3560 C   0  0  0  0  0  0  0  0  0  0  0  0
  182.5420  178.6180  141.1350 C   0  0  0  0  0  3  0  0  0  0  0  0
  180.3480  180.3710  139.9620 O   0  0  0  0  0  1  0  0  0  0  0  0
  180.1500  179.2480  140.7660 C   0  0  0  0  0  2  0  0  0  0  0  0
  1  8  1  0  0  0  0
  1  6  1  1  0  0  0
  2 12  1  0  0  0  0
  3 14  1  0  0  0  0
  3 10  2  0  0  0  0
  4 15  1  0  0  0  0
  4  8  1  0  0  0  0
  5  1  1  0  0  0  0
  7  4  2  0  0  0  0
  9  7  1  0  0  0  0
  9  5  2  0  0  0  0
 10 11  1  0  0  0  0
 11  2  2  0  0  0  0
 11  7  1  0  0  0  0
 12 15  2  0  0  0  0
 13 35  1  0  0  0  0
 13  2  1  0  0  0  0
 14 13  2  0  0  0  0
 16  3  1  1  0  0  0
 17 19  1  6  0  0  0
 17 18  1  0  0  0  0
 17 16  1  0  0  0  0
 18 16  1  0  0  0  0
 19 20  1  6  0  0  0
 21 19  1  0  0  0  0
 22 21  1  0  0  0  0
 23 25  1  0  0  0  0
 24 22  1  0  0  0  0
 25 26  1  6  0  0  0
 25 22  1  0  0  0  0
 25 28  1  0  0  0  0
 27 23  1  0  0  0  0
 27 24  1  0  0  0  0
 29 33  1  0  0  0  0
 29 28  1  0  0  0  0
 29 34  1  0  0  0  0
 31 32  1  0  0  0  0
 32 30  2  0  0  0  0
 33 31  1  0  0  0  0
 34 32  1  0  0  0  0
 36 39  1  0  0  0  0
 37 36  2  0  0  0  0
 38 40  1  0  0  0  0
 40 39  2  0  0  0  0
 40 35  1  0  0  0  0
 41 37  1  0  0  0  0
 41 38  2  0  0  0  0
 42 43  1  0  0  0  0
 43 37  1  0  0  0  0
M  END
>  <MODEL>
5

>  <REMARK>
 VINA RESULT:      -8.8      2.767      4.438
  Name = 
  9 active torsions:
  status: ('A' for Active; 'I' for Inactive)
    1  A    between atoms: N_1  and  C_34
    2  A    between atoms: N_1  and  C_35
    3  A    between atoms: C_2  and  C_13
    4  A    between atoms: C_3  and  N_4
    5  A    between atoms: C_3  and  C_12
    6  A    between atoms: C_6  and  C_12
    7  A    between atoms: N_11  and  C_14
    8  A    between atoms: C_14  and  C_22
    9  A    between atoms: C_19  and  C_37
                            x       y       z     vdW  Elec       q    Type
                         _______ _______ _______ _____ _____    ______ ____

>  <TORSDO>
F 9

$$$$
=
 OpenBabel10272414033D

 43 49  0  0  1  0  0  0  0  0999 V2000
  191.6370  176.1340  147.3990 C   0  0  1  0  0  3  0  0  0  0  0  0
  187.3860  177.7480  144.9910 C   0  0  0  0  0  0  0  0  0  0  0  0
  187.9930  177.6920  142.3000 C   0  0  0  0  0  0  0  0  0  0  0  0
  189.3830  177.1230  146.8570 C   0  0  0  0  0  0  0  0  0  0  0  0
  191.9810  176.3900  145.9550 C   0  0  0  0  0  3  0  0  0  0  0  0
  192.6940  176.5230  148.2190 O   0  0  0  0  0  1  0  0  0  0  0  0
  189.6800  177.0880  145.4850 C   0  0  0  0  0  0  0  0  0  0  0  0
  190.4110  176.8230  147.8040 N   0  0  0  0  0  2  0  0  0  0  0  0
  191.0640  176.7890  145.0690 C   0  0  0  0  0  3  0  0  0  0  0  0
  188.9510  177.3850  143.2140 N   0  0  0  0  0  0  0  0  0  0  0  0
  188.6820  177.4040  144.5460 C   0  0  0  0  0  0  0  0  0  0  0  0
  187.1080  177.7870  146.3650 C   0  0  0  0  0  3  0  0  0  0  0  0
  186.4100  178.0560  144.0330 C   0  0  0  0  0  0  0  0  0  0  0  0
  186.7380  178.0140  142.7130 N   0  0  0  0  0  0  0  0  0  0  0  0
  188.1050  177.4800  147.2940 C   0  0  0  0  0  3  0  0  0  0  0  0
  188.3140  177.6310  140.8440 C   0  0  2  0  0  3  0  0  0  0  0  0
  189.7760  177.7430  140.6460 C   0  0  2  0  0  3  0  0  0  0  0  0
  188.9170  178.8350  140.4320 O   0  0  0  0  0  0  0  0  0  0  0  0
  190.1610  177.1360  139.3130 C   0  0  1  0  0  3  0  0  0  0  0  0
  190.4820  175.7890  139.4910 O   0  0  0  0  0  1  0  0  0  0  0  0
  188.9940  177.2590  138.3490 C   0  0  0  0  0  2  0  0  0  0  0  0
  189.1440  176.3000  137.2520 N   0  0  0  0  0  0  0  0  0  0  0  0
  187.9030  177.2430  135.4210 C   0  0  0  0  0  2  0  0  0  0  0  0
  190.1120  176.8970  136.3350 C   0  0  0  0  0  2  0  0  0  0  0  0
  187.9030  176.1470  136.4690 C   0  0  1  0  0  0  0  0  0  0  0  0
  187.9430  174.7940  135.7650 C   0  0  0  0  0  1  0  0  0  0  0  0
  189.3560  177.5920  135.2150 C   0  0  0  0  0  2  0  0  0  0  0  0
  186.6310  176.2010  137.3380 C   0  0  0  0  0  2  0  0  0  0  0  0
  185.6490  177.1330  136.7990 N   0  0  0  0  0  0  0  0  0  0  0  0
  182.1860  176.5390  136.8170 O   0  0  0  0  0  0  0  0  0  0  0  0
  183.6770  177.9970  137.9470 C   0  0  0  0  0  2  0  0  0  0  0  0
  183.3270  176.9200  137.0160 C   0  0  0  0  0  0  0  0  0  0  0  0
  185.1960  177.9700  137.9180 C   0  0  0  0  0  2  0  0  0  0  0  0
  184.5070  176.3400  136.3520 C   0  0  0  0  0  2  0  0  0  0  0  0
  185.0810  178.4120  144.4510 N   0  0  0  0  0  2  0  0  0  0  0  0
  181.5270  178.9080  143.3320 C   0  0  0  0  0  3  0  0  0  0  0  0
  181.6760  178.7850  141.9470 C   0  0  0  0  0  0  0  0  0  0  0  0
  184.0520  178.4120  142.2400 C   0  0  0  0  0  3  0  0  0  0  0  0
  182.6420  178.7920  144.1680 C   0  0  0  0  0  3  0  0  0  0  0  0
  183.9140  178.5460  143.6270 C   0  0  0  0  0  0  0  0  0  0  0  0
  182.9380  178.5290  141.4020 C   0  0  0  0  0  3  0  0  0  0  0  0
  180.8410  179.5120  139.8650 O   0  0  0  0  0  1  0  0  0  0  0  0
  180.4870  178.8830  141.0580 C   0  0  0  0  0  2  0  0  0  0  0  0
  1  8  1  0  0  0  0
  1  6  1  1  0  0  0
  2 12  1  0  0  0  0
  3 14  1  0  0  0  0
  3 10  2  0  0  0  0
  4 15  1  0  0  0  0
  4  8  1  0  0  0  0
  5  1  1  0  0  0  0
  7  4  2  0  0  0  0
  9  7  1  0  0  0  0
  9  5  2  0  0  0  0
 10 11  1  0  0  0  0
 11  2  2  0  0  0  0
 11  7  1  0  0  0  0
 12 15  2  0  0  0  0
 13 35  1  0  0  0  0
 13  2  1  0  0  0  0
 14 13  2  0  0  0  0
 16  3  1  1  0  0  0
 17 19  1  6  0  0  0
 17 16  1  0  0  0  0
 18 17  1  0  0  0  0
 18 16  1  0  0  0  0
 19 20  1  1  0  0  0
 21 19  1  0  0  0  0
 22 21  1  0  0  0  0
 23 25  1  0  0  0  0
 24 22  1  0  0  0  0
 25 26  1  6  0  0  0
 25 22  1  0  0  0  0
 25 28  1  0  0  0  0
 27 23  1  0  0  0  0
 27 24  1  0  0  0  0
 29 28  1  0  0  0  0
 29 33  1  0  0  0  0
 30 32  2  0  0  0  0
 32 31  1  0  0  0  0
 33 31  1  0  0  0  0
 34 29  1  0  0  0  0
 34 32  1  0  0  0  0
 36 39  1  0  0  0  0
 37 36  2  0  0  0  0
 38 40  1  0  0  0  0
 40 39  2  0  0  0  0
 40 35  1  0  0  0  0
 41 37  1  0  0  0  0
 41 38  2  0  0  0  0
 42 43  1  0  0  0  0
 43 37  1  0  0  0  0
M  END
>  <MODEL>
6

>  <REMARK>
 VINA RESULT:      -8.7      1.869      2.569
  Name = 
  9 active torsions:
  status: ('A' for Active; 'I' for Inactive)
    1  A    between atoms: N_1  and  C_34
    2  A    between atoms: N_1  and  C_35
    3  A    between atoms: C_2  and  C_13
    4  A    between atoms: C_3  and  N_4
    5  A    between atoms: C_3  and  C_12
    6  A    between atoms: C_6  and  C_12
    7  A    between atoms: N_11  and  C_14
    8  A    between atoms: C_14  and  C_22
    9  A    between atoms: C_19  and  C_37
                            x       y       z     vdW  Elec       q    Type
                         _______ _______ _______ _____ _____    ______ ____

>  <TORSDO>
F 9

$$$$
=
 OpenBabel10272414033D

 43 49  0  0  1  0  0  0  0  0999 V2000
  188.4130  177.5790  147.0990 C   0  0  1  0  0  3  0  0  0  0  0  0
  188.6810  177.9630  141.9750 C   0  0  0  0  0  0  0  0  0  0  0  0
  186.1410  178.6540  141.1500 C   0  0  0  0  0  0  0  0  0  0  0  0
  189.1430  177.4410  144.6910 C   0  0  0  0  0  0  0  0  0  0  0  0
  187.0100  177.6820  146.5590 C   0  0  0  0  0  3  0  0  0  0  0  0
  188.4470  176.6930  148.1740 O   0  0  0  0  0  1  0  0  0  0  0  0
  187.8560  177.8030  144.2630 C   0  0  0  0  0  0  0  0  0  0  0  0
  189.3680  177.1570  146.0740 N   0  0  0  0  0  2  0  0  0  0  0  0
  186.7630  177.8280  145.2540 C   0  0  0  0  0  3  0  0  0  0  0  0
  186.3790  178.4050  142.4650 N   0  0  0  0  0  0  0  0  0  0  0  0
  187.6190  178.0620  142.9020 C   0  0  0  0  0  0  0  0  0  0  0  0
  189.9600  177.5920  142.4170 C   0  0  0  0  0  3  0  0  0  0  0  0
  188.4180  178.2300  140.6240 C   0  0  0  0  0  0  0  0  0  0  0  0
  187.1550  178.5740  140.2490 N   0  0  0  0  0  0  0  0  0  0  0  0
  190.1880  177.3280  143.7700 C   0  0  0  0  0  3  0  0  0  0  0  0
  184.7730  179.0580  140.7110 C   0  0  2  0  0  3  0  0  0  0  0  0
  184.4680  178.4540  139.3950 C   0  0  2  0  0  3  0  0  0  0  0  0
  184.8480  179.8020  139.5180 O   0  0  0  0  0  0  0  0  0  0  0  0
  182.9670  178.3700  139.2040 C   0  0  1  0  0  3  0  0  0  0  0  0
  182.6090  179.0430  138.0360 O   0  0  0  0  0  1  0  0  0  0  0  0
  182.5560  176.9110  139.1000 C   0  0  0  0  0  2  0  0  0  0  0  0
  181.6390  176.7260  137.9730 N   0  0  0  0  0  0  0  0  0  0  0  0
  181.3990  174.3450  137.7440 C   0  0  0  0  0  2  0  0  0  0  0  0
  180.3530  176.3620  138.5650 C   0  0  0  0  0  2  0  0  0  0  0  0
  182.0200  175.5820  137.1240 C   0  0  1  0  0  0  0  0  0  0  0  0
  181.4190  175.7920  135.7380 C   0  0  0  0  0  1  0  0  0  0  0  0
  180.2140  174.8500  138.5290 C   0  0  0  0  0  2  0  0  0  0  0  0
  183.5460  175.4270  136.9690 C   0  0  0  0  0  2  0  0  0  0  0  0
  184.0170  175.9700  135.7020 N   0  0  0  0  0  0  0  0  0  0  0  0
  186.9770  177.8330  135.3640 O   0  0  0  0  0  0  0  0  0  0  0  0
  186.2340  175.6740  134.7250 C   0  0  0  0  0  2  0  0  0  0  0  0
  186.0990  176.9870  135.3630 C   0  0  0  0  0  0  0  0  0  0  0  0
  184.9440  174.9820  135.1320 C   0  0  0  0  0  2  0  0  0  0  0  0
  184.7910  177.1690  136.0120 C   0  0  0  0  0  2  0  0  0  0  0  0
  189.4750  178.1360  139.6540 N   0  0  0  0  0  2  0  0  0  0  0  0
  191.3920  175.4100  137.9170 C   0  0  0  0  0  3  0  0  0  0  0  0
  190.3680  174.8090  137.1780 C   0  0  0  0  0  0  0  0  0  0  0  0
  188.7870  176.4100  138.0760 C   0  0  0  0  0  3  0  0  0  0  0  0
  191.1100  176.5050  138.7400 C   0  0  0  0  0  3  0  0  0  0  0  0
  189.8040  177.0110  138.8270 C   0  0  0  0  0  0  0  0  0  0  0  0
  189.0670  175.3150  137.2520 C   0  0  0  0  0  3  0  0  0  0  0  0
  189.5430  173.3410  135.5270 O   0  0  0  0  0  1  0  0  0  0  0  0
  190.6720  173.6600  136.2820 C   0  0  0  0  0  2  0  0  0  0  0  0
  1  6  1  1  0  0  0
  2 12  2  0  0  0  0
  2 11  1  0  0  0  0
  3 10  2  0  0  0  0
  4  8  1  0  0  0  0
  5  1  1  0  0  0  0
  7  4  1  0  0  0  0
  7  9  1  0  0  0  0
  8  1  1  0  0  0  0
  9  5  2  0  0  0  0
 10 11  1  0  0  0  0
 11  7  2  0  0  0  0
 12 15  1  0  0  0  0
 13  2  1  0  0  0  0
 14 13  2  0  0  0  0
 14  3  1  0  0  0  0
 15  4  2  0  0  0  0
 16  3  1  6  0  0  0
 17 19  1  1  0  0  0
 17 18  1  0  0  0  0
 17 16  1  0  0  0  0
 18 16  1  0  0  0  0
 19 20  1  6  0  0  0
 21 19  1  0  0  0  0
 22 24  1  0  0  0  0
 22 21  1  0  0  0  0
 23 27  1  0  0  0  0
 25 26  1  6  0  0  0
 25 23  1  0  0  0  0
 25 22  1  0  0  0  0
 27 24  1  0  0  0  0
 28 25  1  0  0  0  0
 29 34  1  0  0  0  0
 29 28  1  0  0  0  0
 31 33  1  0  0  0  0
 31 32  1  0  0  0  0
 32 30  2  0  0  0  0
 32 34  1  0  0  0  0
 33 29  1  0  0  0  0
 35 13  1  0  0  0  0
 36 39  1  0  0  0  0
 37 41  1  0  0  0  0
 37 36  2  0  0  0  0
 38 40  1  0  0  0  0
 39 40  2  0  0  0  0
 40 35  1  0  0  0  0
 41 38  2  0  0  0  0
 42 43  1  0  0  0  0
 43 37  1  0  0  0  0
M  END
>  <MODEL>
7

>  <REMARK>
 VINA RESULT:      -8.6      2.449      5.838
  Name = 
  9 active torsions:
  status: ('A' for Active; 'I' for Inactive)
    1  A    between atoms: N_1  and  C_34
    2  A    between atoms: N_1  and  C_35
    3  A    between atoms: C_2  and  C_13
    4  A    between atoms: C_3  and  N_4
    5  A    between atoms: C_3  and  C_12
    6  A    between atoms: C_6  and  C_12
    7  A    between atoms: N_11  and  C_14
    8  A    between atoms: C_14  and  C_22
    9  A    between atoms: C_19  and  C_37
                            x       y       z     vdW  Elec       q    Type
                         _______ _______ _______ _____ _____    ______ ____

>  <TORSDO>
F 9

$$$$
=
 OpenBabel10272414033D

 43 49  0  0  1  0  0  0  0  0999 V2000
  191.0030  176.5160  146.8070 C   0  0  1  0  0  3  0  0  0  0  0  0
  187.1910  177.9860  143.6810 C   0  0  0  0  0  0  0  0  0  0  0  0
  188.3370  178.2400  141.1840 C   0  0  0  0  0  0  0  0  0  0  0  0
  188.8180  177.3570  145.8750 C   0  0  0  0  0  0  0  0  0  0  0  0
  191.6070  176.9380  145.4930 C   0  0  0  0  0  3  0  0  0  0  0  0
  191.8250  176.9130  147.8610 O   0  0  0  0  0  1  0  0  0  0  0  0
  189.3910  177.4790  144.5990 C   0  0  0  0  0  0  0  0  0  0  0  0
  189.6560  177.0560  146.9940 N   0  0  0  0  0  2  0  0  0  0  0  0
  190.8540  177.3400  144.4650 C   0  0  0  0  0  3  0  0  0  0  0  0
  189.1150  177.9290  142.2550 N   0  0  0  0  0  0  0  0  0  0  0  0
  188.5790  177.7970  143.4960 C   0  0  0  0  0  0  0  0  0  0  0  0
  186.6360  177.8690  144.9630 C   0  0  0  0  0  3  0  0  0  0  0  0
  186.4050  178.3000  142.5630 C   0  0  0  0  0  0  0  0  0  0  0  0
  186.9980  178.4130  141.3430 N   0  0  0  0  0  0  0  0  0  0  0  0
  187.4480  177.5600  146.0570 C   0  0  0  0  0  3  0  0  0  0  0  0
  188.9540  178.3460  139.8290 C   0  0  2  0  0  3  0  0  0  0  0  0
  188.3630  177.3350  138.9250 C   0  0  2  0  0  3  0  0  0  0  0  0
  189.6290  177.1530  139.5100 O   0  0  0  0  0  0  0  0  0  0  0  0
  188.5330  177.7740  137.4850 C   0  0  1  0  0  3  0  0  0  0  0  0
  189.8290  177.4800  137.0590 O   0  0  0  0  0  1  0  0  0  0  0  0
  187.5300  177.0360  136.6140 C   0  0  0  0  0  2  0  0  0  0  0  0
  187.6120  175.5950  136.8620 N   0  0  0  0  0  0  0  0  0  0  0  0
  186.3620  174.5790  135.0770 C   0  0  0  0  0  2  0  0  0  0  0  0
  188.5800  175.0820  135.8940 C   0  0  0  0  0  2  0  0  0  0  0  0
  186.3460  174.9020  136.5590 C   0  0  1  0  0  0  0  0  0  0  0  0
  186.3140  173.5960  137.3460 C   0  0  0  0  0  1  0  0  0  0  0  0
  187.8220  174.5220  134.7020 C   0  0  0  0  0  2  0  0  0  0  0  0
  185.1010  175.7260  136.9400 C   0  0  0  0  0  2  0  0  0  0  0  0
  183.9610  174.8710  137.2450 N   0  0  0  0  0  0  0  0  0  0  0  0
  181.1130  175.9720  138.9830 O   0  0  0  0  0  0  0  0  0  0  0  0
  181.6160  175.3390  136.7540 C   0  0  0  0  0  2  0  0  0  0  0  0
  181.9340  175.6040  138.1600 C   0  0  0  0  0  0  0  0  0  0  0  0
  182.9860  175.0560  136.1600 C   0  0  0  0  0  2  0  0  0  0  0  0
  183.3560  175.3850  138.4710 C   0  0  0  0  0  2  0  0  0  0  0  0
  184.9890  178.5010  142.7150 N   0  0  0  0  0  2  0  0  0  0  0  0
  181.7430  178.7880  140.8430 C   0  0  0  0  0  3  0  0  0  0  0  0
  182.2050  179.2220  139.5960 C   0  0  0  0  0  0  0  0  0  0  0  0
  184.4800  179.1630  140.4240 C   0  0  0  0  0  3  0  0  0  0  0  0
  182.6500  178.5520  141.8800 C   0  0  0  0  0  3  0  0  0  0  0  0
  184.0260  178.7400  141.6780 C   0  0  0  0  0  0  0  0  0  0  0  0
  183.5760  179.4010  139.3850 C   0  0  0  0  0  3  0  0  0  0  0  0
  181.8030  179.0180  137.2800 O   0  0  0  0  0  1  0  0  0  0  0  0
  181.2440  179.4500  138.4830 C   0  0  0  0  0  2  0  0  0  0  0  0
  1  8  1  0  0  0  0
  1  6  1  1  0  0  0
  2 12  1  0  0  0  0
  3 14  1  0  0  0  0
  3 10  2  0  0  0  0
  4 15  1  0  0  0  0
  4  8  1  0  0  0  0
  5  1  1  0  0  0  0
  7  4  2  0  0  0  0
  9  7  1  0  0  0  0
  9  5  2  0  0  0  0
 10 11  1  0  0  0  0
 11  2  2  0  0  0  0
 11  7  1  0  0  0  0
 12 15  2  0  0  0  0
 13 35  1  0  0  0  0
 13  2  1  0  0  0  0
 14 13  2  0  0  0  0
 16  3  1  1  0  0  0
 17 19  1  6  0  0  0
 17 18  1  0  0  0  0
 17 16  1  0  0  0  0
 18 16  1  0  0  0  0
 19 20  1  6  0  0  0
 21 22  1  0  0  0  0
 21 19  1  0  0  0  0
 23 25  1  0  0  0  0
 24 22  1  0  0  0  0
 25 22  1  0  0  0  0
 25 28  1  0  0  0  0
 25 26  1  1  0  0  0
 27 23  1  0  0  0  0
 27 24  1  0  0  0  0
 28 29  1  0  0  0  0
 29 34  1  0  0  0  0
 31 32  1  0  0  0  0
 32 34  1  0  0  0  0
 32 30  2  0  0  0  0
 33 31  1  0  0  0  0
 33 29  1  0  0  0  0
 36 39  1  0  0  0  0
 37 36  2  0  0  0  0
 38 40  1  0  0  0  0
 40 39  2  0  0  0  0
 40 35  1  0  0  0  0
 41 37  1  0  0  0  0
 41 38  2  0  0  0  0
 42 43  1  0  0  0  0
 43 37  1  0  0  0  0
M  END
>  <MODEL>
8

>  <REMARK>
 VINA RESULT:      -8.6      1.780      2.491
  Name = 
  9 active torsions:
  status: ('A' for Active; 'I' for Inactive)
    1  A    between atoms: N_1  and  C_34
    2  A    between atoms: N_1  and  C_35
    3  A    between atoms: C_2  and  C_13
    4  A    between atoms: C_3  and  N_4
    5  A    between atoms: C_3  and  C_12
    6  A    between atoms: C_6  and  C_12
    7  A    between atoms: N_11  and  C_14
    8  A    between atoms: C_14  and  C_22
    9  A    between atoms: C_19  and  C_37
                            x       y       z     vdW  Elec       q    Type
                         _______ _______ _______ _____ _____    ______ ____

>  <TORSDO>
F 9

$$$$
=
 OpenBabel10272414033D

 43 49  0  0  1  0  0  0  0  0999 V2000
  188.1620  177.5880  146.8070 C   0  0  1  0  0  3  0  0  0  0  0  0
  188.3610  178.1160  141.6930 C   0  0  0  0  0  0  0  0  0  0  0  0
  185.7930  178.7570  140.9140 C   0  0  0  0  0  0  0  0  0  0  0  0
  188.8690  177.5360  144.3890 C   0  0  0  0  0  0  0  0  0  0  0  0
  186.7510  177.6660  146.2850 C   0  0  0  0  0  3  0  0  0  0  0  0
  188.2340  176.6750  147.8580 O   0  0  0  0  0  1  0  0  0  0  0  0
  187.5670  177.8720  143.9840 C   0  0  0  0  0  0  0  0  0  0  0  0
  189.1170  177.2210  145.7610 N   0  0  0  0  0  2  0  0  0  0  0  0
  186.4850  177.8400  144.9880 C   0  0  0  0  0  3  0  0  0  0  0  0
  186.0530  178.4790  142.2190 N   0  0  0  0  0  0  0  0  0  0  0  0
  187.3070  178.1610  142.6330 C   0  0  0  0  0  0  0  0  0  0  0  0
  189.6550  177.7700  142.1110 C   0  0  0  0  0  3  0  0  0  0  0  0
  188.0750  178.4110  140.3530 C   0  0  0  0  0  0  0  0  0  0  0  0
  186.7990  178.7300  140.0000 N   0  0  0  0  0  0  0  0  0  0  0  0
  189.9060  177.4770  143.4540 C   0  0  0  0  0  3  0  0  0  0  0  0
  184.4100  179.1330  140.5000 C   0  0  2  0  0  3  0  0  0  0  0  0
  184.1230  178.5940  139.1530 C   0  0  2  0  0  3  0  0  0  0  0  0
  184.4530  179.9450  139.3510 O   0  0  0  0  0  0  0  0  0  0  0  0
  182.6260  178.4630  138.9600 C   0  0  1  0  0  3  0  0  0  0  0  0
  182.1260  179.6380  138.3960 O   0  0  0  0  0  1  0  0  0  0  0  0
  182.3380  177.2910  138.0380 C   0  0  0  0  0  2  0  0  0  0  0  0
  182.5610  177.6810  136.6440 N   0  0  0  0  0  0  0  0  0  0  0  0
  182.2510  175.6640  135.3720 C   0  0  0  0  0  2  0  0  0  0  0  0
  181.2340  177.7520  136.0370 C   0  0  0  0  0  2  0  0  0  0  0  0
  183.2870  176.6470  135.8830 C   0  0  1  0  0  0  0  0  0  0  0  0
  183.9620  177.3140  134.6900 C   0  0  0  0  0  1  0  0  0  0  0  0
  180.9630  176.4470  135.3070 C   0  0  0  0  0  2  0  0  0  0  0  0
  184.3720  175.9350  136.7160 C   0  0  0  0  0  2  0  0  0  0  0  0
  184.4500  174.5150  136.3990 N   0  0  0  0  0  0  0  0  0  0  0  0
  187.4650  172.7150  136.2630 O   0  0  0  0  0  0  0  0  0  0  0  0
  185.5820  172.7920  137.7040 C   0  0  0  0  0  2  0  0  0  0  0  0
  186.3860  173.2060  136.5500 C   0  0  0  0  0  0  0  0  0  0  0  0
  184.4380  173.7910  137.6780 C   0  0  0  0  0  2  0  0  0  0  0  0
  185.7520  174.2870  135.7770 C   0  0  0  0  0  2  0  0  0  0  0  0
  189.1230  178.3740  139.3690 N   0  0  0  0  0  2  0  0  0  0  0  0
  188.9750  177.6510  135.6840 C   0  0  0  0  0  3  0  0  0  0  0  0
  189.1010  176.2580  135.6920 C   0  0  0  0  0  0  0  0  0  0  0  0
  189.2300  176.2890  138.1110 C   0  0  0  0  0  3  0  0  0  0  0  0
  188.9850  178.3600  136.8890 C   0  0  0  0  0  3  0  0  0  0  0  0
  189.1160  177.6840  138.1120 C   0  0  0  0  0  0  0  0  0  0  0  0
  189.2210  175.5770  136.9070 C   0  0  0  0  0  3  0  0  0  0  0  0
  189.9470  174.4220  134.4780 O   0  0  0  0  0  1  0  0  0  0  0  0
  189.0640  175.5000  134.4130 C   0  0  0  0  0  2  0  0  0  0  0  0
  1  6  1  1  0  0  0
  2 12  2  0  0  0  0
  2 11  1  0  0  0  0
  3 10  2  0  0  0  0
  4  8  1  0  0  0  0
  5  1  1  0  0  0  0
  7  4  1  0  0  0  0
  7  9  1  0  0  0  0
  8  1  1  0  0  0  0
  9  5  2  0  0  0  0
 10 11  1  0  0  0  0
 11  7  2  0  0  0  0
 12 15  1  0  0  0  0
 13  2  1  0  0  0  0
 14 13  2  0  0  0  0
 14  3  1  0  0  0  0
 15  4  2  0  0  0  0
 16  3  1  6  0  0  0
 17 19  1  1  0  0  0
 17 18  1  0  0  0  0
 17 16  1  0  0  0  0
 18 16  1  0  0  0  0
 19 20  1  6  0  0  0
 21 19  1  0  0  0  0
 22 21  1  0  0  0  0
 23 25  1  0  0  0  0
 24 22  1  0  0  0  0
 25 26  1  6  0  0  0
 25 22  1  0  0  0  0
 25 28  1  0  0  0  0
 27 23  1  0  0  0  0
 27 24  1  0  0  0  0
 29 28  1  0  0  0  0
 29 33  1  0  0  0  0
 30 32  2  0  0  0  0
 32 31  1  0  0  0  0
 33 31  1  0  0  0  0
 34 29  1  0  0  0  0
 34 32  1  0  0  0  0
 35 13  1  0  0  0  0
 36 37  2  0  0  0  0
 36 39  1  0  0  0  0
 37 41  1  0  0  0  0
 38 40  1  0  0  0  0
 39 40  2  0  0  0  0
 40 35  1  0  0  0  0
 41 38  2  0  0  0  0
 43 42  1  0  0  0  0
 43 37  1  0  0  0  0
M  END
>  <MODEL>
9

>  <REMARK>
 VINA RESULT:      -8.6      2.309      5.420
  Name = 
  9 active torsions:
  status: ('A' for Active; 'I' for Inactive)
    1  A    between atoms: N_1  and  C_34
    2  A    between atoms: N_1  and  C_35
    3  A    between atoms: C_2  and  C_13
    4  A    between atoms: C_3  and  N_4
    5  A    between atoms: C_3  and  C_12
    6  A    between atoms: C_6  and  C_12
    7  A    between atoms: N_11  and  C_14
    8  A    between atoms: C_14  and  C_22
    9  A    between atoms: C_19  and  C_37
                            x       y       z     vdW  Elec       q    Type
                         _______ _______ _______ _____ _____    ______ ____

>  <TORSDO>
F 9

$$$$
