=
 OpenBabel10272415163D

 34 37  0  0  1  0  0  0  0  0999 V2000
  191.0200  177.8330  143.6590 C   0  0  1  0  0  0  0  0  0  0  0  0
  187.4190  176.7420  142.1870 C   0  0  0  0  0  2  0  0  0  0  0  0
  188.1970  176.1850  143.3710 C   0  0  0  0  0  2  0  0  0  0  0  0
  191.7880  176.7980  143.0870 O   0  0  0  0  0  0  0  0  0  0  0  0
  191.4990  179.0870  143.2730 O   0  0  0  0  0  1  0  0  0  0  0  0
  187.9860  178.0800  141.7360 C   0  0  0  0  0  2  0  0  0  0  0  0
  189.0380  177.8640  140.6490 C   0  0  2  0  0  3  0  0  0  0  0  0
  189.6050  175.7460  142.9830 C   0  0  0  0  0  2  0  0  0  0  0  0
  190.4430  177.4770  141.1560 C   0  0  1  0  0  3  0  0  0  0  0  0
  190.4720  176.9440  142.5990 C   0  0  1  0  0  0  0  0  0  0  0  0
  189.5650  178.1160  145.7020 C   0  0  0  0  0  3  0  0  0  0  0  0
  190.1960  177.1290  147.8210 C   0  0  0  0  0  3  0  0  0  0  0  0
  189.2990  177.8780  147.0530 C   0  0  0  0  0  3  0  0  0  0  0  0
  191.6230  176.8530  145.8850 C   0  0  0  0  0  3  0  0  0  0  0  0
  190.7360  177.6140  145.1150 C   0  0  0  0  0  0  0  0  0  0  0  0
  191.3570  176.6150  147.2370 C   0  0  0  0  0  3  0  0  0  0  0  0
  191.2650  177.0650  138.8720 C   0  0  1  0  0  3  0  0  0  0  0  0
  191.0690  176.4640  140.1970 C   0  0  1  0  0  3  0  0  0  0  0  0
  192.8260  176.9160  139.8410 S   0  0  0  0  0  0  0  0  0  0  0  0
  191.1250  176.0210  137.7480 C   0  0  2  0  0  3  0  0  0  0  0  0
  189.7830  175.2800  137.6610 C   0  0  0  0  0  2  0  0  0  0  0  0
  189.1720  175.4050  136.2750 C   0  0  0  0  0  2  0  0  0  0  0  0
  189.7740  176.5860  135.5380 C   0  0  0  0  0  1  0  0  0  0  0  0
  192.3120  175.0610  137.7380 C   0  0  0  0  0  2  0  0  0  0  0  0
  193.2030  175.2670  136.5190 C   0  0  0  0  0  2  0  0  0  0  0  0
  194.4680  174.4340  136.6380 C   0  0  1  0  0  3  0  0  0  0  0  0
  195.6130  175.1540  135.9440 C   0  0  0  0  0  1  0  0  0  0  0  0
  194.7890  174.1360  138.1050 C   0  0  1  0  0  3  0  0  0  0  0  0
  195.2750  172.7090  138.2770 C   0  0  0  0  0  1  0  0  0  0  0  0
  195.7410  175.0260  138.6070 O   0  0  0  0  0  1  0  0  0  0  0  0
  189.1400  179.1120  139.7860 C   0  0  0  0  0  2  0  0  0  0  0  0
  188.7030  178.8250  138.3580 C   0  0  0  0  0  2  0  0  0  0  0  0
  187.4350  177.9910  138.3550 C   0  0  0  0  0  2  0  0  0  0  0  0
  186.7030  178.1900  137.0460 C   0  0  0  0  0  1  0  0  0  0  0  0
  1  5  1  6  0  0  0
  1 15  1  0  0  0  0
  2  3  1  0  0  0  0
  4  1  1  0  0  0  0
  6  2  1  0  0  0  0
  7 31  1  1  0  0  0
  7  9  1  0  0  0  0
  7  6  1  0  0  0  0
  8  3  1  0  0  0  0
  9 18  1  6  0  0  0
  9 10  1  0  0  0  0
 10  8  1  1  0  0  0
 10  4  1  0  0  0  0
 10  1  1  0  0  0  0
 11 13  1  0  0  0  0
 13 12  2  0  0  0  0
 14 16  2  0  0  0  0
 15 11  2  0  0  0  0
 15 14  1  0  0  0  0
 16 12  1  0  0  0  0
 17 20  1  6  0  0  0
 17 19  1  0  0  0  0
 17 18  1  0  0  0  0
 18 19  1  1  0  0  0
 20 21  1  1  0  0  0
 22 21  1  0  0  0  0
 23 22  1  0  0  0  0
 24 20  1  0  0  0  0
 25 26  1  0  0  0  0
 25 24  1  0  0  0  0
 26 27  1  1  0  0  0
 26 28  1  0  0  0  0
 28 29  1  6  0  0  0
 28 30  1  0  0  0  0
 32 31  1  0  0  0  0
 33 32  1  0  0  0  0
 34 33  1  0  0  0  0
M  END
>  <MODEL>
1

>  <REMARK>
 VINA RESULT:      -5.6      0.000      0.000
  Name = 
  12 active torsions:
  status: ('A' for Active; 'I' for Inactive)
    1  A    between atoms: C_1  and  C_20
    2  A    between atoms: C_3  and  C_13
    3  A    between atoms: C_4  and  C_16
    4  A    between atoms: C_6  and  C_28
    5  A    between atoms: C_7  and  C_11
    6  A    between atoms: C_7  and  C_29
    7  A    between atoms: C_13  and  C_27
    8  A    between atoms: C_16  and  C_28
    9  A    between atoms: C_18  and  C_33
   10  A    between atoms: C_25  and  C_27
   11  A    between atoms: C_26  and  C_28
   12  A    between atoms: C_26  and  C_29
                            x       y       z     vdW  Elec       q    Type
                         _______ _______ _______ _____ _____    ______ ____

>  <TORSDO>
F 12

$$$$
=
 OpenBabel10272415163D

 34 37  0  0  1  0  0  0  0  0999 V2000
  188.3800  176.8860  143.4720 C   0  0  1  0  0  0  0  0  0  0  0  0
  191.9270  178.7440  142.9340 C   0  0  0  0  0  2  0  0  0  0  0  0
  190.7910  179.0720  143.8930 C   0  0  0  0  0  2  0  0  0  0  0  0
  187.5770  177.7790  142.7340 O   0  0  0  0  0  0  0  0  0  0  0  0
  188.2740  175.5860  142.9750 O   0  0  0  0  0  1  0  0  0  0  0  0
  191.7710  177.3470  142.3520 C   0  0  0  0  0  2  0  0  0  0  0  0
  190.9880  177.4100  141.0410 C   0  0  2  0  0  3  0  0  0  0  0  0
  189.4580  179.2450  143.1730 C   0  0  0  0  0  2  0  0  0  0  0  0
  189.4540  177.4840  141.1890 C   0  0  1  0  0  3  0  0  0  0  0  0
  188.9720  177.9220  142.5830 C   0  0  1  0  0  0  0  0  0  0  0  0
  189.3290  176.7840  145.8090 C   0  0  0  0  0  3  0  0  0  0  0  0
  188.0210  177.5130  147.7120 C   0  0  0  0  0  3  0  0  0  0  0  0
  189.2090  176.9970  147.1850 C   0  0  0  0  0  3  0  0  0  0  0  0
  187.0740  177.6070  145.4860 C   0  0  0  0  0  3  0  0  0  0  0  0
  188.2560  177.0780  144.9540 C   0  0  0  0  0  0  0  0  0  0  0  0
  186.9550  177.8200  146.8630 C   0  0  0  0  0  3  0  0  0  0  0  0
  188.3990  177.6180  138.9690 C   0  0  1  0  0  3  0  0  0  0  0  0
  188.8830  178.4040  140.1100 C   0  0  1  0  0  3  0  0  0  0  0  0
  187.0410  178.2510  140.0440 S   0  0  0  0  0  0  0  0  0  0  0  0
  188.5550  178.3850  137.6420 C   0  0  2  0  0  3  0  0  0  0  0  0
  187.2700  178.9460  137.0170 C   0  0  0  0  0  2  0  0  0  0  0  0
  186.7560  178.0440  135.9060 C   0  0  0  0  0  2  0  0  0  0  0  0
  185.6620  177.1340  136.4300 C   0  0  0  0  0  1  0  0  0  0  0  0
  189.3780  177.5820  136.6360 C   0  0  0  0  0  2  0  0  0  0  0  0
  189.4140  176.1000  136.9820 C   0  0  0  0  0  2  0  0  0  0  0  0
  189.2900  175.2570  135.7230 C   0  0  1  0  0  3  0  0  0  0  0  0
  190.1500  175.8620  134.6250 C   0  0  0  0  0  1  0  0  0  0  0  0
  189.6650  173.8000  136.0030 C   0  0  1  0  0  3  0  0  0  0  0  0
  190.9440  173.4190  135.2810 C   0  0  0  0  0  1  0  0  0  0  0  0
  189.8030  173.5660  137.3720 O   0  0  0  0  0  1  0  0  0  0  0  0
  191.3540  176.2150  140.1740 C   0  0  0  0  0  2  0  0  0  0  0  0
  192.3140  176.6190  139.0660 C   0  0  0  0  0  2  0  0  0  0  0  0
  192.5740  175.4430  138.1430 C   0  0  0  0  0  2  0  0  0  0  0  0
  193.1870  175.9400  136.8520 C   0  0  0  0  0  1  0  0  0  0  0  0
  1  5  1  6  0  0  0
  1 15  1  0  0  0  0
  2  3  1  0  0  0  0
  4  1  1  0  0  0  0
  6  2  1  0  0  0  0
  7 31  1  6  0  0  0
  7  9  1  0  0  0  0
  7  6  1  0  0  0  0
  8  3  1  0  0  0  0
  9 18  1  6  0  0  0
  9 10  1  0  0  0  0
 10  4  1  0  0  0  0
 10  8  1  1  0  0  0
 10  1  1  0  0  0  0
 11 13  1  0  0  0  0
 13 12  2  0  0  0  0
 14 16  2  0  0  0  0
 15 14  1  0  0  0  0
 15 11  2  0  0  0  0
 16 12  1  0  0  0  0
 17 20  1  6  0  0  0
 17 19  1  0  0  0  0
 17 18  1  0  0  0  0
 18 19  1  1  0  0  0
 20 24  1  6  0  0  0
 21 20  1  0  0  0  0
 22 23  1  0  0  0  0
 22 21  1  0  0  0  0
 24 25  1  0  0  0  0
 26 27  1  6  0  0  0
 26 28  1  0  0  0  0
 26 25  1  0  0  0  0
 28 29  1  6  0  0  0
 28 30  1  0  0  0  0
 32 31  1  0  0  0  0
 33 32  1  0  0  0  0
 34 33  1  0  0  0  0
M  END
>  <MODEL>
2

>  <REMARK>
 VINA RESULT:      -5.5      2.298      4.199
  Name = 
  12 active torsions:
  status: ('A' for Active; 'I' for Inactive)
    1  A    between atoms: C_1  and  C_20
    2  A    between atoms: C_3  and  C_13
    3  A    between atoms: C_4  and  C_16
    4  A    between atoms: C_6  and  C_28
    5  A    between atoms: C_7  and  C_11
    6  A    between atoms: C_7  and  C_29
    7  A    between atoms: C_13  and  C_27
    8  A    between atoms: C_16  and  C_28
    9  A    between atoms: C_18  and  C_33
   10  A    between atoms: C_25  and  C_27
   11  A    between atoms: C_26  and  C_28
   12  A    between atoms: C_26  and  C_29
                            x       y       z     vdW  Elec       q    Type
                         _______ _______ _______ _____ _____    ______ ____

>  <TORSDO>
F 12

$$$$
=
 OpenBabel10272415163D

 34 37  0  0  1  0  0  0  0  0999 V2000
  191.0140  177.8220  143.6920 C   0  0  1  0  0  0  0  0  0  0  0  0
  187.4170  176.7410  142.2060 C   0  0  0  0  0  2  0  0  0  0  0  0
  188.1820  176.1930  143.4020 C   0  0  0  0  0  2  0  0  0  0  0  0
  191.7790  176.7750  143.1380 O   0  0  0  0  0  0  0  0  0  0  0  0
  191.5060  179.0670  143.2940 O   0  0  0  0  0  1  0  0  0  0  0  0
  187.9970  178.0690  141.7430 C   0  0  0  0  0  2  0  0  0  0  0  0
  189.0550  177.8320  140.6660 C   0  0  2  0  0  3  0  0  0  0  0  0
  189.5880  175.7380  143.0300 C   0  0  0  0  0  2  0  0  0  0  0  0
  190.4540  177.4410  141.1890 C   0  0  1  0  0  3  0  0  0  0  0  0
  190.4670  176.9250  142.6380 C   0  0  1  0  0  0  0  0  0  0  0  0
  189.5460  178.1410  145.7200 C   0  0  0  0  0  3  0  0  0  0  0  0
  190.1550  177.1750  147.8550 C   0  0  0  0  0  3  0  0  0  0  0  0
  189.2690  177.9210  147.0720 C   0  0  0  0  0  3  0  0  0  0  0  0
  191.5940  176.8660  145.9340 C   0  0  0  0  0  3  0  0  0  0  0  0
  190.7180  177.6230  145.1480 C   0  0  0  0  0  0  0  0  0  0  0  0
  191.3160  176.6460  147.2870 C   0  0  0  0  0  3  0  0  0  0  0  0
  191.1010  176.9210  138.8710 C   0  0  1  0  0  3  0  0  0  0  0  0
  191.0790  176.4110  140.2470 C   0  0  1  0  0  3  0  0  0  0  0  0
  192.7490  176.9780  139.6930 S   0  0  0  0  0  0  0  0  0  0  0  0
  190.9540  175.7860  137.8400 C   0  0  2  0  0  3  0  0  0  0  0  0
  191.5610  176.0350  136.4520 C   0  0  0  0  0  2  0  0  0  0  0  0
  192.4920  174.9030  136.0460 C   0  0  0  0  0  2  0  0  0  0  0  0
  192.9090  174.1010  137.2640 C   0  0  0  0  0  1  0  0  0  0  0  0
  189.5070  175.3040  137.7550 C   0  0  0  0  0  2  0  0  0  0  0  0
  188.9460  175.4290  136.3440 C   0  0  0  0  0  2  0  0  0  0  0  0
  188.0800  174.2270  136.0080 C   0  0  1  0  0  3  0  0  0  0  0  0
  188.9510  172.9830  135.9300 C   0  0  0  0  0  1  0  0  0  0  0  0
  186.9500  174.0660  137.0290 C   0  0  1  0  0  3  0  0  0  0  0  0
  185.6570  174.6650  136.5080 C   0  0  0  0  0  1  0  0  0  0  0  0
  186.7530  172.7240  137.3600 O   0  0  0  0  0  1  0  0  0  0  0  0
  189.1730  179.0690  139.7890 C   0  0  0  0  0  2  0  0  0  0  0  0
  188.6570  178.7930  138.3860 C   0  0  0  0  0  2  0  0  0  0  0  0
  187.3320  178.0560  138.4500 C   0  0  0  0  0  2  0  0  0  0  0  0
  186.5840  178.2470  137.1470 C   0  0  0  0  0  1  0  0  0  0  0  0
  1  5  1  6  0  0  0
  1 15  1  0  0  0  0
  2  3  1  0  0  0  0
  4  1  1  0  0  0  0
  6  2  1  0  0  0  0
  7 31  1  1  0  0  0
  7  9  1  0  0  0  0
  7  6  1  0  0  0  0
  8  3  1  0  0  0  0
  9 18  1  6  0  0  0
  9 10  1  0  0  0  0
 10  8  1  1  0  0  0
 10  4  1  0  0  0  0
 10  1  1  0  0  0  0
 11 13  1  0  0  0  0
 13 12  2  0  0  0  0
 14 16  2  0  0  0  0
 15 11  2  0  0  0  0
 15 14  1  0  0  0  0
 16 12  1  0  0  0  0
 17 20  1  6  0  0  0
 17 19  1  0  0  0  0
 17 18  1  0  0  0  0
 18 19  1  1  0  0  0
 20 21  1  6  0  0  0
 22 21  1  0  0  0  0
 22 23  1  0  0  0  0
 24 20  1  0  0  0  0
 25 24  1  0  0  0  0
 26 27  1  1  0  0  0
 26 25  1  0  0  0  0
 26 28  1  0  0  0  0
 28 29  1  6  0  0  0
 28 30  1  0  0  0  0
 32 33  1  0  0  0  0
 32 31  1  0  0  0  0
 34 33  1  0  0  0  0
M  END
>  <MODEL>
3

>  <REMARK>
 VINA RESULT:      -5.4      1.785      3.438
  Name = 
  12 active torsions:
  status: ('A' for Active; 'I' for Inactive)
    1  A    between atoms: C_1  and  C_20
    2  A    between atoms: C_3  and  C_13
    3  A    between atoms: C_4  and  C_16
    4  A    between atoms: C_6  and  C_28
    5  A    between atoms: C_7  and  C_11
    6  A    between atoms: C_7  and  C_29
    7  A    between atoms: C_13  and  C_27
    8  A    between atoms: C_16  and  C_28
    9  A    between atoms: C_18  and  C_33
   10  A    between atoms: C_25  and  C_27
   11  A    between atoms: C_26  and  C_28
   12  A    between atoms: C_26  and  C_29
                            x       y       z     vdW  Elec       q    Type
                         _______ _______ _______ _____ _____    ______ ____

>  <TORSDO>
F 12

$$$$
=
 OpenBabel10272415163D

 34 37  0  0  1  0  0  0  0  0999 V2000
  183.7500  172.9980  135.6260 C   0  0  1  0  0  0  0  0  0  0  0  0
  187.2610  174.2380  137.1930 C   0  0  0  0  0  2  0  0  0  0  0  0
  186.5320  172.9130  137.3640 C   0  0  0  0  0  2  0  0  0  0  0  0
  182.9410  173.2140  136.7600 O   0  0  0  0  0  0  0  0  0  0  0  0
  183.2710  173.7100  134.5240 O   0  0  0  0  0  1  0  0  0  0  0  0
  186.6930  175.0340  136.0270 C   0  0  0  0  0  2  0  0  0  0  0  0
  185.5870  175.9670  136.5180 C   0  0  2  0  0  3  0  0  0  0  0  0
  185.1010  173.0990  137.8570 C   0  0  0  0  0  2  0  0  0  0  0  0
  184.2020  175.3130  136.7040 C   0  0  1  0  0  3  0  0  0  0  0  0
  184.2350  173.7780  136.7970 C   0  0  1  0  0  0  0  0  0  0  0  0
  185.2040  171.1850  134.6430 C   0  0  0  0  0  3  0  0  0  0  0  0
  184.7710  168.8510  135.1210 C   0  0  0  0  0  3  0  0  0  0  0  0
  185.5360  169.8360  134.4890 C   0  0  0  0  0  3  0  0  0  0  0  0
  183.3450  170.5650  136.0660 C   0  0  0  0  0  3  0  0  0  0  0  0
  184.0990  171.5540  135.4240 C   0  0  0  0  0  0  0  0  0  0  0  0
  183.6770  169.2150  135.9110 C   0  0  0  0  0  3  0  0  0  0  0  0
  183.6370  177.3750  137.9250 C   0  0  1  0  0  3  0  0  0  0  0  0
  183.5180  175.9120  137.9330 C   0  0  1  0  0  3  0  0  0  0  0  0
  181.9610  176.7800  137.4420 S   0  0  0  0  0  0  0  0  0  0  0  0
  183.7100  177.9470  139.3530 C   0  0  2  0  0  3  0  0  0  0  0  0
  182.5220  178.8040  139.8120 C   0  0  0  0  0  2  0  0  0  0  0  0
  181.7020  178.0870  140.8740 C   0  0  0  0  0  2  0  0  0  0  0  0
  180.7690  179.0610  141.5650 C   0  0  0  0  0  1  0  0  0  0  0  0
  185.0480  178.6430  139.6000 C   0  0  0  0  0  2  0  0  0  0  0  0
  185.1310  179.2380  140.9990 C   0  0  0  0  0  2  0  0  0  0  0  0
  185.8630  178.2920  141.9360 C   0  0  1  0  0  3  0  0  0  0  0  0
  187.3570  178.3710  141.6670 C   0  0  0  0  0  1  0  0  0  0  0  0
  185.5310  178.6060  143.3970 C   0  0  1  0  0  3  0  0  0  0  0  0
  184.0300  178.6340  143.6210 C   0  0  0  0  0  1  0  0  0  0  0  0
  186.1230  177.6820  144.2610 O   0  0  0  0  0  1  0  0  0  0  0  0
  185.4630  177.1500  135.5690 C   0  0  0  0  0  2  0  0  0  0  0  0
  186.8000  177.8550  135.4000 C   0  0  0  0  0  2  0  0  0  0  0  0
  187.1700  178.5910  136.6740 C   0  0  0  0  0  2  0  0  0  0  0  0
  188.6580  178.4640  136.9170 C   0  0  0  0  0  1  0  0  0  0  0  0
  1  5  1  6  0  0  0
  1  4  1  0  0  0  0
  1 10  1  0  0  0  0
  2  3  1  0  0  0  0
  3  8  1  0  0  0  0
  4 10  1  0  0  0  0
  6  7  1  0  0  0  0
  6  2  1  0  0  0  0
  7 31  1  6  0  0  0
  7  9  1  0  0  0  0
  9 10  1  0  0  0  0
  9 18  1  1  0  0  0
 10  8  1  1  0  0  0
 11 15  1  0  0  0  0
 12 16  2  0  0  0  0
 13 11  2  0  0  0  0
 13 12  1  0  0  0  0
 15  1  1  0  0  0  0
 15 14  2  0  0  0  0
 16 14  1  0  0  0  0
 17 18  1  0  0  0  0
 17 20  1  1  0  0  0
 18 19  1  6  0  0  0
 19 17  1  0  0  0  0
 20 24  1  6  0  0  0
 20 21  1  0  0  0  0
 21 22  1  0  0  0  0
 22 23  1  0  0  0  0
 24 25  1  0  0  0  0
 25 26  1  0  0  0  0
 26 27  1  1  0  0  0
 26 28  1  0  0  0  0
 28 29  1  6  0  0  0
 28 30  1  0  0  0  0
 32 31  1  0  0  0  0
 32 33  1  0  0  0  0
 33 34  1  0  0  0  0
M  END
>  <MODEL>
4

>  <REMARK>
 VINA RESULT:      -5.2      5.693     10.292
  Name = 
  12 active torsions:
  status: ('A' for Active; 'I' for Inactive)
    1  A    between atoms: C_1  and  C_20
    2  A    between atoms: C_3  and  C_13
    3  A    between atoms: C_4  and  C_16
    4  A    between atoms: C_6  and  C_28
    5  A    between atoms: C_7  and  C_11
    6  A    between atoms: C_7  and  C_29
    7  A    between atoms: C_13  and  C_27
    8  A    between atoms: C_16  and  C_28
    9  A    between atoms: C_18  and  C_33
   10  A    between atoms: C_25  and  C_27
   11  A    between atoms: C_26  and  C_28
   12  A    between atoms: C_26  and  C_29
                            x       y       z     vdW  Elec       q    Type
                         _______ _______ _______ _____ _____    ______ ____

>  <TORSDO>
F 12

$$$$
=
 OpenBabel10272415163D

 34 37  0  0  1  0  0  0  0  0999 V2000
  184.0290  178.8740  139.6630 C   0  0  1  0  0  0  0  0  0  0  0  0
  180.6990  176.7020  138.9470 C   0  0  0  0  0  2  0  0  0  0  0  0
  181.7880  176.5000  139.9920 C   0  0  0  0  0  2  0  0  0  0  0  0
  184.9550  178.0340  139.0100 O   0  0  0  0  0  0  0  0  0  0  0  0
  184.0600  180.1640  139.1300 O   0  0  0  0  0  1  0  0  0  0  0  0
  180.7770  178.0910  138.3300 C   0  0  0  0  0  2  0  0  0  0  0  0
  181.6520  178.0600  137.0790 C   0  0  2  0  0  3  0  0  0  0  0  0
  183.1780  176.4230  139.3700 C   0  0  0  0  0  2  0  0  0  0  0  0
  183.1730  178.1230  137.3330 C   0  0  1  0  0  3  0  0  0  0  0  0
  183.5910  177.7660  138.7700 C   0  0  1  0  0  0  0  0  0  0  0  0
  185.2560  178.4000  141.8170 C   0  0  0  0  0  3  0  0  0  0  0  0
  184.1200  178.5490  143.9500 C   0  0  0  0  0  3  0  0  0  0  0  0
  185.2810  178.3030  143.2110 C   0  0  0  0  0  3  0  0  0  0  0  0
  182.9090  178.9920  141.9010 C   0  0  0  0  0  3  0  0  0  0  0  0
  184.0650  178.7340  141.1550 C   0  0  0  0  0  0  0  0  0  0  0  0
  182.9340  178.8940  143.2960 C   0  0  0  0  0  3  0  0  0  0  0  0
  184.1220  175.8930  136.8980 C   0  0  1  0  0  3  0  0  0  0  0  0
  183.8950  177.2260  136.3260 C   0  0  1  0  0  3  0  0  0  0  0  0
  182.7430  175.9350  135.6750 S   0  0  0  0  0  0  0  0  0  0  0  0
  185.4160  175.2560  136.3600 C   0  0  2  0  0  3  0  0  0  0  0  0
  185.8440  173.9260  136.9950 C   0  0  0  0  0  2  0  0  0  0  0  0
  184.7110  173.3090  137.8000 C   0  0  0  0  0  2  0  0  0  0  0  0
  184.1280  172.1200  137.0620 C   0  0  0  0  0  1  0  0  0  0  0  0
  186.5580  176.2700  136.3300 C   0  0  0  0  0  2  0  0  0  0  0  0
  187.5710  176.0220  137.4400 C   0  0  0  0  0  2  0  0  0  0  0  0
  188.4190  177.2610  137.6730 C   0  0  1  0  0  3  0  0  0  0  0  0
  187.7530  178.4590  137.0130 C   0  0  0  0  0  1  0  0  0  0  0  0
  188.6490  177.4910  139.1690 C   0  0  1  0  0  3  0  0  0  0  0  0
  190.1190  177.3560  139.5200 C   0  0  0  0  0  1  0  0  0  0  0  0
  188.1780  178.7440  139.5670 O   0  0  0  0  0  1  0  0  0  0  0  0
  181.2490  179.1950  136.1500 C   0  0  0  0  0  2  0  0  0  0  0  0
  180.8200  180.4200  136.9410 C   0  0  0  0  0  2  0  0  0  0  0  0
  180.6000  181.5960  136.0070 C   0  0  0  0  0  2  0  0  0  0  0  0
  180.7330  181.1340  134.5720 C   0  0  0  0  0  1  0  0  0  0  0  0
  1  5  1  6  0  0  0
  1 15  1  0  0  0  0
  2  3  1  0  0  0  0
  4  1  1  0  0  0  0
  6  2  1  0  0  0  0
  7 31  1  6  0  0  0
  7  9  1  0  0  0  0
  7  6  1  0  0  0  0
  8  3  1  0  0  0  0
  9 18  1  6  0  0  0
  9 10  1  0  0  0  0
 10  4  1  0  0  0  0
 10  8  1  1  0  0  0
 10  1  1  0  0  0  0
 11 13  1  0  0  0  0
 13 12  2  0  0  0  0
 14 16  2  0  0  0  0
 15 11  2  0  0  0  0
 15 14  1  0  0  0  0
 16 12  1  0  0  0  0
 17 20  1  6  0  0  0
 18 19  1  6  0  0  0
 18 17  1  0  0  0  0
 19 17  1  0  0  0  0
 20 24  1  1  0  0  0
 20 21  1  0  0  0  0
 21 22  1  0  0  0  0
 23 22  1  0  0  0  0
 24 25  1  0  0  0  0
 25 26  1  0  0  0  0
 26 27  1  1  0  0  0
 26 28  1  0  0  0  0
 28 29  1  6  0  0  0
 28 30  1  0  0  0  0
 31 32  1  0  0  0  0
 33 32  1  0  0  0  0
 34 33  1  0  0  0  0
M  END
>  <MODEL>
5

>  <REMARK>
 VINA RESULT:      -5.0      5.082      7.656
  Name = 
  12 active torsions:
  status: ('A' for Active; 'I' for Inactive)
    1  A    between atoms: C_1  and  C_20
    2  A    between atoms: C_3  and  C_13
    3  A    between atoms: C_4  and  C_16
    4  A    between atoms: C_6  and  C_28
    5  A    between atoms: C_7  and  C_11
    6  A    between atoms: C_7  and  C_29
    7  A    between atoms: C_13  and  C_27
    8  A    between atoms: C_16  and  C_28
    9  A    between atoms: C_18  and  C_33
   10  A    between atoms: C_25  and  C_27
   11  A    between atoms: C_26  and  C_28
   12  A    between atoms: C_26  and  C_29
                            x       y       z     vdW  Elec       q    Type
                         _______ _______ _______ _____ _____    ______ ____

>  <TORSDO>
F 12

$$$$
=
 OpenBabel10272415163D

 34 37  0  0  1  0  0  0  0  0999 V2000
  188.5450  176.8910  143.8440 C   0  0  1  0  0  0  0  0  0  0  0  0
  191.9830  178.4710  142.4280 C   0  0  0  0  0  2  0  0  0  0  0  0
  191.1620  178.8610  143.6490 C   0  0  0  0  0  2  0  0  0  0  0  0
  187.6590  177.8670  143.3440 O   0  0  0  0  0  0  0  0  0  0  0  0
  188.2040  175.6190  143.3810 O   0  0  0  0  0  1  0  0  0  0  0  0
  191.5640  177.1090  141.8940 C   0  0  0  0  0  2  0  0  0  0  0  0
  190.4810  177.2740  140.8290 C   0  0  2  0  0  3  0  0  0  0  0  0
  189.7090  179.1630  143.2970 C   0  0  0  0  0  2  0  0  0  0  0  0
  189.0480  177.4670  141.3660 C   0  0  1  0  0  3  0  0  0  0  0  0
  188.9770  177.9020  142.8410 C   0  0  1  0  0  0  0  0  0  0  0  0
  190.0520  176.6580  145.8550 C   0  0  0  0  0  3  0  0  0  0  0  0
  189.3340  177.4190  148.0390 C   0  0  0  0  0  3  0  0  0  0  0  0
  190.3050  176.8380  147.2180 C   0  0  0  0  0  3  0  0  0  0  0  0
  187.8560  177.6420  146.1340 C   0  0  0  0  0  3  0  0  0  0  0  0
  188.8200  177.0490  145.3100 C   0  0  0  0  0  0  0  0  0  0  0  0
  188.1100  177.8220  147.4970 C   0  0  0  0  0  3  0  0  0  0  0  0
  187.2290  177.7860  139.7380 C   0  0  1  0  0  3  0  0  0  0  0  0
  188.3010  178.4630  140.4780 C   0  0  1  0  0  3  0  0  0  0  0  0
  186.6120  178.7890  141.1560 S   0  0  0  0  0  0  0  0  0  0  0  0
  186.9890  178.4340  138.3620 C   0  0  2  0  0  3  0  0  0  0  0  0
  185.6630  178.0980  137.6650 C   0  0  0  0  0  2  0  0  0  0  0  0
  184.5050  178.1020  138.6500 C   0  0  0  0  0  2  0  0  0  0  0  0
  184.0040  179.5160  138.8690 C   0  0  0  0  0  1  0  0  0  0  0  0
  188.1900  178.2290  137.4400 C   0  0  0  0  0  2  0  0  0  0  0  0
  187.7680  178.0430  135.9880 C   0  0  0  0  0  2  0  0  0  0  0  0
  188.3580  176.7610  135.4240 C   0  0  1  0  0  3  0  0  0  0  0  0
  189.8360  176.9710  135.1330 C   0  0  0  0  0  1  0  0  0  0  0  0
  188.1280  175.5880  136.3790 C   0  0  1  0  0  3  0  0  0  0  0  0
  186.7630  174.9640  136.1560 C   0  0  0  0  0  1  0  0  0  0  0  0
  189.1230  174.6180  136.2400 O   0  0  0  0  0  1  0  0  0  0  0  0
  190.5090  176.0790  139.8880 C   0  0  0  0  0  2  0  0  0  0  0  0
  191.0200  176.4800  138.5130 C   0  0  0  0  0  2  0  0  0  0  0  0
  192.2880  175.7140  138.1810 C   0  0  0  0  0  2  0  0  0  0  0  0
  193.1270  176.5230  137.2150 C   0  0  0  0  0  1  0  0  0  0  0  0
  1  5  1  6  0  0  0
  1 15  1  0  0  0  0
  2  3  1  0  0  0  0
  4  1  1  0  0  0  0
  6  2  1  0  0  0  0
  7 31  1  6  0  0  0
  7  9  1  0  0  0  0
  7  6  1  0  0  0  0
  8  3  1  0  0  0  0
  9 18  1  6  0  0  0
  9 10  1  0  0  0  0
 10  8  1  1  0  0  0
 10  4  1  0  0  0  0
 10  1  1  0  0  0  0
 11 13  1  0  0  0  0
 13 12  2  0  0  0  0
 14 16  2  0  0  0  0
 15 11  2  0  0  0  0
 15 14  1  0  0  0  0
 16 12  1  0  0  0  0
 17 20  1  6  0  0  0
 17 18  1  0  0  0  0
 17 19  1  0  0  0  0
 18 19  1  1  0  0  0
 20 24  1  6  0  0  0
 21 20  1  0  0  0  0
 21 22  1  0  0  0  0
 22 23  1  0  0  0  0
 25 24  1  0  0  0  0
 26 27  1  1  0  0  0
 26 25  1  0  0  0  0
 26 28  1  0  0  0  0
 28 29  1  6  0  0  0
 30 28  1  0  0  0  0
 32 31  1  0  0  0  0
 33 32  1  0  0  0  0
 34 33  1  0  0  0  0
M  END
>  <MODEL>
6

>  <REMARK>
 VINA RESULT:      -4.9      2.448      4.817
  Name = 
  12 active torsions:
  status: ('A' for Active; 'I' for Inactive)
    1  A    between atoms: C_1  and  C_20
    2  A    between atoms: C_3  and  C_13
    3  A    between atoms: C_4  and  C_16
    4  A    between atoms: C_6  and  C_28
    5  A    between atoms: C_7  and  C_11
    6  A    between atoms: C_7  and  C_29
    7  A    between atoms: C_13  and  C_27
    8  A    between atoms: C_16  and  C_28
    9  A    between atoms: C_18  and  C_33
   10  A    between atoms: C_25  and  C_27
   11  A    between atoms: C_26  and  C_28
   12  A    between atoms: C_26  and  C_29
                            x       y       z     vdW  Elec       q    Type
                         _______ _______ _______ _____ _____    ______ ____

>  <TORSDO>
F 12

$$$$
=
 OpenBabel10272415163D

 34 37  0  0  1  0  0  0  0  0999 V2000
  188.3310  176.9570  143.7800 C   0  0  1  0  0  0  0  0  0  0  0  0
  191.8880  178.5850  142.7700 C   0  0  0  0  0  2  0  0  0  0  0  0
  190.8720  179.0330  143.8110 C   0  0  0  0  0  2  0  0  0  0  0  0
  187.4990  177.8430  143.0640 O   0  0  0  0  0  0  0  0  0  0  0  0
  188.1140  175.6350  143.3860 O   0  0  0  0  0  1  0  0  0  0  0  0
  191.6080  177.1640  142.3030 C   0  0  0  0  0  2  0  0  0  0  0  0
  190.7010  177.1850  141.0740 C   0  0  2  0  0  3  0  0  0  0  0  0
  189.4830  179.2310  143.2150 C   0  0  0  0  0  2  0  0  0  0  0  0
  189.1950  177.3500  141.3660 C   0  0  1  0  0  3  0  0  0  0  0  0
  188.8780  177.9010  142.7670 C   0  0  1  0  0  0  0  0  0  0  0  0
  187.2500  177.7950  145.9010 C   0  0  0  0  0  3  0  0  0  0  0  0
  188.4360  177.7210  148.0110 C   0  0  0  0  0  3  0  0  0  0  0  0
  187.2870  178.0350  147.2770 C   0  0  0  0  0  3  0  0  0  0  0  0
  189.5080  176.9250  145.9920 C   0  0  0  0  0  3  0  0  0  0  0  0
  188.3670  177.2500  145.2500 C   0  0  0  0  0  0  0  0  0  0  0  0
  189.5450  177.1650  147.3690 C   0  0  0  0  0  3  0  0  0  0  0  0
  187.6460  177.4380  139.4540 C   0  0  1  0  0  3  0  0  0  0  0  0
  188.5610  178.2290  140.2880 C   0  0  1  0  0  3  0  0  0  0  0  0
  186.7740  178.5200  140.6650 S   0  0  0  0  0  0  0  0  0  0  0  0
  187.6030  177.9590  138.0060 C   0  0  2  0  0  3  0  0  0  0  0  0
  188.7050  178.9460  137.5970 C   0  0  0  0  0  2  0  0  0  0  0  0
  189.7340  178.2820  136.6950 C   0  0  0  0  0  2  0  0  0  0  0  0
  189.0510  177.6260  135.5110 C   0  0  0  0  0  1  0  0  0  0  0  0
  186.2100  178.4740  137.6470 C   0  0  0  0  0  2  0  0  0  0  0  0
  185.5270  177.5950  136.6090 C   0  0  0  0  0  2  0  0  0  0  0  0
  184.9990  176.3240  137.2530 C   0  0  1  0  0  3  0  0  0  0  0  0
  183.4810  176.3040  137.1600 C   0  0  0  0  0  1  0  0  0  0  0  0
  185.6240  175.0850  136.6080 C   0  0  1  0  0  3  0  0  0  0  0  0
  186.0180  175.3600  135.1690 C   0  0  0  0  0  1  0  0  0  0  0  0
  186.7360  174.6450  137.3290 O   0  0  0  0  0  1  0  0  0  0  0  0
  190.9210  175.9190  140.2600 C   0  0  0  0  0  2  0  0  0  0  0  0
  191.1800  176.2480  138.7990 C   0  0  0  0  0  2  0  0  0  0  0  0
  192.6540  176.5390  138.5800 C   0  0  0  0  0  2  0  0  0  0  0  0
  193.0270  176.2070  137.1520 C   0  0  0  0  0  1  0  0  0  0  0  0
  1  5  1  6  0  0  0
  1 15  1  0  0  0  0
  2  3  1  0  0  0  0
  4  1  1  0  0  0  0
  6  2  1  0  0  0  0
  7 31  1  1  0  0  0
  7  9  1  0  0  0  0
  7  6  1  0  0  0  0
  8  3  1  0  0  0  0
  9 18  1  6  0  0  0
  9 10  1  0  0  0  0
 10  4  1  0  0  0  0
 10  8  1  1  0  0  0
 10  1  1  0  0  0  0
 11 13  1  0  0  0  0
 13 12  2  0  0  0  0
 14 16  2  0  0  0  0
 15 11  2  0  0  0  0
 15 14  1  0  0  0  0
 16 12  1  0  0  0  0
 17 20  1  6  0  0  0
 17 18  1  0  0  0  0
 17 19  1  0  0  0  0
 18 19  1  1  0  0  0
 20 21  1  1  0  0  0
 22 21  1  0  0  0  0
 23 22  1  0  0  0  0
 24 20  1  0  0  0  0
 25 26  1  0  0  0  0
 25 24  1  0  0  0  0
 26 27  1  6  0  0  0
 28 29  1  6  0  0  0
 28 26  1  0  0  0  0
 28 30  1  0  0  0  0
 32 31  1  0  0  0  0
 33 32  1  0  0  0  0
 34 33  1  0  0  0  0
M  END
>  <MODEL>
7

>  <REMARK>
 VINA RESULT:      -4.8      2.669      5.383
  Name = 
  12 active torsions:
  status: ('A' for Active; 'I' for Inactive)
    1  A    between atoms: C_1  and  C_20
    2  A    between atoms: C_3  and  C_13
    3  A    between atoms: C_4  and  C_16
    4  A    between atoms: C_6  and  C_28
    5  A    between atoms: C_7  and  C_11
    6  A    between atoms: C_7  and  C_29
    7  A    between atoms: C_13  and  C_27
    8  A    between atoms: C_16  and  C_28
    9  A    between atoms: C_18  and  C_33
   10  A    between atoms: C_25  and  C_27
   11  A    between atoms: C_26  and  C_28
   12  A    between atoms: C_26  and  C_29
                            x       y       z     vdW  Elec       q    Type
                         _______ _______ _______ _____ _____    ______ ____

>  <TORSDO>
F 12

$$$$
=
 OpenBabel10272415163D

 34 37  0  0  1  0  0  0  0  0999 V2000
  194.6800  174.4450  137.4230 C   0  0  1  0  0  0  0  0  0  0  0  0
  192.1360  175.0670  134.3460 C   0  0  0  0  0  2  0  0  0  0  0  0
  193.6130  175.4140  134.4750 C   0  0  0  0  0  2  0  0  0  0  0  0
  194.6620  175.7490  137.9590 O   0  0  0  0  0  0  0  0  0  0  0  0
  194.2880  173.5040  138.3780 O   0  0  0  0  0  1  0  0  0  0  0  0
  191.7040  174.0870  135.4270 C   0  0  0  0  0  2  0  0  0  0  0  0
  191.1830  174.8470  136.6460 C   0  0  2  0  0  3  0  0  0  0  0  0
  193.9020  176.2570  135.7120 C   0  0  0  0  0  2  0  0  0  0  0  0
  192.2670  175.3780  137.6070 C   0  0  1  0  0  3  0  0  0  0  0  0
  193.6760  175.4560  136.9930 C   0  0  1  0  0  0  0  0  0  0  0  0
  195.9950  173.0240  135.8040 C   0  0  0  0  0  3  0  0  0  0  0  0
  198.2160  173.6800  135.0980 C   0  0  0  0  0  3  0  0  0  0  0  0
  197.1440  172.7840  135.0460 C   0  0  0  0  0  3  0  0  0  0  0  0
  196.9890  175.0570  136.6660 C   0  0  0  0  0  3  0  0  0  0  0  0
  195.9180  174.1570  136.6280 C   0  0  0  0  0  0  0  0  0  0  0  0
  198.1380  174.8170  135.9070 C   0  0  0  0  0  3  0  0  0  0  0  0
  190.7250  176.5950  139.0910 C   0  0  1  0  0  3  0  0  0  0  0  0
  191.8410  176.7430  138.1490 C   0  0  1  0  0  3  0  0  0  0  0  0
  192.3390  176.9140  139.9210 S   0  0  0  0  0  0  0  0  0  0  0  0
  189.7870  177.8160  139.0570 C   0  0  2  0  0  3  0  0  0  0  0  0
  188.5690  177.7740  139.9920 C   0  0  0  0  0  2  0  0  0  0  0  0
  188.9510  178.1510  141.4140 C   0  0  0  0  0  2  0  0  0  0  0  0
  188.8380  176.9470  142.3280 C   0  0  0  0  0  1  0  0  0  0  0  0
  189.3970  178.1720  137.6240 C   0  0  0  0  0  2  0  0  0  0  0  0
  187.9560  177.7900  137.3140 C   0  0  0  0  0  2  0  0  0  0  0  0
  187.7180  177.7880  135.8120 C   0  0  1  0  0  3  0  0  0  0  0  0
  188.9940  177.3660  135.1010 C   0  0  0  0  0  1  0  0  0  0  0  0
  186.5380  176.8830  135.4480 C   0  0  1  0  0  3  0  0  0  0  0  0
  185.8770  176.3240  136.6940 C   0  0  0  0  0  1  0  0  0  0  0  0
  185.5960  177.5660  134.6760 O   0  0  0  0  0  1  0  0  0  0  0  0
  190.2140  173.9640  137.4170 C   0  0  0  0  0  2  0  0  0  0  0  0
  188.7860  174.1740  136.9390 C   0  0  0  0  0  2  0  0  0  0  0  0
  188.2660  172.9150  136.2720 C   0  0  0  0  0  2  0  0  0  0  0  0
  187.0600  172.4030  137.0300 C   0  0  0  0  0  1  0  0  0  0  0  0
  1  4  1  0  0  0  0
  1  5  1  1  0  0  0
  2  3  1  0  0  0  0
  2  6  1  0  0  0  0
  3  8  1  0  0  0  0
  6  7  1  0  0  0  0
  7 31  1  1  0  0  0
  7  9  1  0  0  0  0
  9 18  1  6  0  0  0
 10  8  1  6  0  0  0
 10  1  1  0  0  0  0
 10  9  1  0  0  0  0
 10  4  1  0  0  0  0
 11 15  1  0  0  0  0
 12 16  2  0  0  0  0
 13 12  1  0  0  0  0
 13 11  2  0  0  0  0
 15 14  2  0  0  0  0
 15  1  1  0  0  0  0
 16 14  1  0  0  0  0
 17 20  1  6  0  0  0
 17 19  1  0  0  0  0
 18 17  1  0  0  0  0
 18 19  1  1  0  0  0
 20 24  1  6  0  0  0
 20 21  1  0  0  0  0
 21 22  1  0  0  0  0
 22 23  1  0  0  0  0
 25 24  1  0  0  0  0
 26 27  1  6  0  0  0
 26 25  1  0  0  0  0
 28 26  1  0  0  0  0
 28 29  1  1  0  0  0
 30 28  1  0  0  0  0
 32 31  1  0  0  0  0
 33 32  1  0  0  0  0
 33 34  1  0  0  0  0
M  END
>  <MODEL>
8

>  <REMARK>
 VINA RESULT:      -4.8      2.781      8.283
  Name = 
  12 active torsions:
  status: ('A' for Active; 'I' for Inactive)
    1  A    between atoms: C_1  and  C_20
    2  A    between atoms: C_3  and  C_13
    3  A    between atoms: C_4  and  C_16
    4  A    between atoms: C_6  and  C_28
    5  A    between atoms: C_7  and  C_11
    6  A    between atoms: C_7  and  C_29
    7  A    between atoms: C_13  and  C_27
    8  A    between atoms: C_16  and  C_28
    9  A    between atoms: C_18  and  C_33
   10  A    between atoms: C_25  and  C_27
   11  A    between atoms: C_26  and  C_28
   12  A    between atoms: C_26  and  C_29
                            x       y       z     vdW  Elec       q    Type
                         _______ _______ _______ _____ _____    ______ ____

>  <TORSDO>
F 12

$$$$
=
 OpenBabel10272415163D

 34 37  0  0  1  0  0  0  0  0999 V2000
  190.1820  178.0110  143.8030 C   0  0  1  0  0  0  0  0  0  0  0  0
  186.4640  176.4480  143.5690 C   0  0  0  0  0  2  0  0  0  0  0  0
  187.7220  175.8790  144.2110 C   0  0  0  0  0  2  0  0  0  0  0  0
  190.7730  177.2690  142.7610 O   0  0  0  0  0  0  0  0  0  0  0  0
  190.2980  179.3830  143.5720 O   0  0  0  0  0  1  0  0  0  0  0  0
  186.6220  177.9300  143.2660 C   0  0  0  0  0  2  0  0  0  0  0  0
  187.1570  178.1210  141.8470 C   0  0  2  0  0  3  0  0  0  0  0  0
  188.8910  175.8140  143.2350 C   0  0  0  0  0  2  0  0  0  0  0  0
  188.6830  177.9600  141.6880 C   0  0  1  0  0  3  0  0  0  0  0  0
  189.3660  177.2140  142.8470 C   0  0  1  0  0  0  0  0  0  0  0  0
  189.7710  177.8250  146.2860 C   0  0  0  0  0  3  0  0  0  0  0  0
  191.2140  176.4750  147.6850 C   0  0  0  0  0  3  0  0  0  0  0  0
  190.1070  177.3180  147.5440 C   0  0  0  0  0  3  0  0  0  0  0  0
  191.6460  176.6450  145.3090 C   0  0  0  0  0  3  0  0  0  0  0  0
  190.5480  177.5000  145.1650 C   0  0  0  0  0  0  0  0  0  0  0  0
  191.9820  176.1370  146.5680 C   0  0  0  0  0  3  0  0  0  0  0  0
  189.3060  178.2680  139.3260 C   0  0  1  0  0  3  0  0  0  0  0  0
  188.9850  177.2720  140.3560 C   0  0  1  0  0  3  0  0  0  0  0  0
  190.7900  177.3840  139.9700 S   0  0  0  0  0  0  0  0  0  0  0  0
  188.8600  177.8040  137.9270 C   0  0  2  0  0  3  0  0  0  0  0  0
  187.7470  176.7470  137.8760 C   0  0  0  0  0  2  0  0  0  0  0  0
  186.5180  177.2750  137.1510 C   0  0  0  0  0  2  0  0  0  0  0  0
  185.8330  176.1550  136.3920 C   0  0  0  0  0  1  0  0  0  0  0  0
  190.0600  177.4130  137.0670 C   0  0  0  0  0  2  0  0  0  0  0  0
  189.7870  176.1640  136.2400 C   0  0  0  0  0  2  0  0  0  0  0  0
  191.0810  175.4140  135.9680 C   0  0  1  0  0  3  0  0  0  0  0  0
  192.2420  176.1640  136.6020 C   0  0  0  0  0  1  0  0  0  0  0  0
  190.9920  173.9720  136.4720 C   0  0  1  0  0  3  0  0  0  0  0  0
  192.3680  173.3360  136.5480 C   0  0  0  0  0  1  0  0  0  0  0  0
  190.3710  173.9090  137.7210 O   0  0  0  0  0  1  0  0  0  0  0  0
  186.7370  179.4880  141.3280 C   0  0  0  0  0  2  0  0  0  0  0  0
  185.2370  179.5450  141.0910 C   0  0  0  0  0  2  0  0  0  0  0  0
  184.8490  178.6200  139.9530 C   0  0  0  0  0  2  0  0  0  0  0  0
  183.6730  177.7660  140.3730 C   0  0  0  0  0  1  0  0  0  0  0  0
  1  5  1  6  0  0  0
  1 15  1  0  0  0  0
  2  3  1  0  0  0  0
  4 10  1  0  0  0  0
  4  1  1  0  0  0  0
  6  2  1  0  0  0  0
  7 31  1  1  0  0  0
  7  6  1  0  0  0  0
  8  3  1  0  0  0  0
  9 18  1  6  0  0  0
  9  7  1  0  0  0  0
  9 10  1  0  0  0  0
 10  8  1  1  0  0  0
 10  1  1  0  0  0  0
 11 13  1  0  0  0  0
 13 12  2  0  0  0  0
 14 16  2  0  0  0  0
 15 14  1  0  0  0  0
 15 11  2  0  0  0  0
 16 12  1  0  0  0  0
 17 20  1  6  0  0  0
 17 19  1  0  0  0  0
 17 18  1  0  0  0  0
 18 19  1  1  0  0  0
 20 24  1  1  0  0  0
 21 20  1  0  0  0  0
 22 21  1  0  0  0  0
 23 22  1  0  0  0  0
 25 24  1  0  0  0  0
 26 25  1  0  0  0  0
 26 28  1  0  0  0  0
 26 27  1  1  0  0  0
 28 29  1  1  0  0  0
 28 30  1  0  0  0  0
 32 31  1  0  0  0  0
 33 34  1  0  0  0  0
 33 32  1  0  0  0  0
M  END
>  <MODEL>
9

>  <REMARK>
 VINA RESULT:      -4.7      1.892      2.722
  Name = 
  12 active torsions:
  status: ('A' for Active; 'I' for Inactive)
    1  A    between atoms: C_1  and  C_20
    2  A    between atoms: C_3  and  C_13
    3  A    between atoms: C_4  and  C_16
    4  A    between atoms: C_6  and  C_28
    5  A    between atoms: C_7  and  C_11
    6  A    between atoms: C_7  and  C_29
    7  A    between atoms: C_13  and  C_27
    8  A    between atoms: C_16  and  C_28
    9  A    between atoms: C_18  and  C_33
   10  A    between atoms: C_25  and  C_27
   11  A    between atoms: C_26  and  C_28
   12  A    between atoms: C_26  and  C_29
                            x       y       z     vdW  Elec       q    Type
                         _______ _______ _______ _____ _____    ______ ____

>  <TORSDO>
F 12

$$$$
