=
 OpenBabel10272415293D

 34 39  0  0  0  0  0  0  0  0999 V2000
  186.6550  177.9510  143.8680 C   0  0  0  0  0  0  0  0  0  0  0  0
  187.8330  177.8710  147.6440 C   0  0  0  0  0  3  0  0  0  0  0  0
  185.7610  178.2710  146.5740 C   0  0  0  0  0  3  0  0  0  0  0  0
  186.2680  178.5320  141.4920 C   0  0  0  0  0  0  0  0  0  0  0  0
  187.0870  178.0550  142.4540 C   0  0  0  0  0  3  0  0  0  0  0  0
  184.4730  178.6690  143.1710 N   0  0  0  0  0  0  0  0  0  0  0  0
  183.4280  179.2420  143.9650 C   0  0  0  0  0  3  0  0  0  0  0  0
  184.8990  179.0950  141.8390 C   0  0  0  0  0  2  0  0  0  0  0  0
  184.9010  178.3510  145.4360 N   0  0  0  0  0  0  0  0  0  0  0  0
  185.3840  178.1950  144.1320 C   0  0  0  0  0  0  0  0  0  0  0  0
  183.6710  179.0540  145.2740 C   0  0  0  0  0  3  0  0  0  0  0  0
  189.0940  177.5050  147.8420 C   0  0  0  0  0  3  0  0  0  0  0  0
  190.1090  177.0350  146.8890 C   0  0  0  0  0  0  0  0  0  0  0  0
  189.9570  176.9630  145.5660 C   0  0  0  0  0  3  0  0  0  0  0  0
  187.0510  177.9250  146.4070 C   0  0  0  0  0  0  0  0  0  0  0  0
  188.8120  177.2940  144.7120 C   0  0  0  0  0  3  0  0  0  0  0  0
  187.5770  177.6990  145.0140 C   0  0  0  0  0  0  0  0  0  0  0  0
  191.4100  176.6280  147.4570 C   0  0  0  0  0  0  0  0  0  0  0  0
  192.0270  175.4590  147.0260 O   0  0  0  0  0  0  0  0  0  0  0  0
  191.9780  177.3300  148.3380 O   0  0  0  0  0  1  0  0  0  0  0  0
  186.7000  178.6360  140.1260 N   0  0  0  0  0  2  0  0  0  0  0  0
  189.3220  177.6630  137.6190 C   0  0  0  0  0  3  0  0  0  0  0  0
  188.9520  177.7400  140.3770 C   0  0  0  0  0  3  0  0  0  0  0  0
  192.8330  176.5810  138.2350 C   0  0  0  0  0  0  0  0  0  0  0  0
  193.3090  176.9110  139.5970 C   0  0  0  0  0  0  0  0  0  0  0  0
  191.5850  176.7610  137.7780 C   0  0  0  0  0  3  0  0  0  0  0  0
  194.4920  176.6190  139.9140 O   0  0  0  0  0  0  0  0  0  0  0  0
  190.3640  177.2500  138.4570 C   0  0  0  0  0  0  0  0  0  0  0  0
  193.7580  176.0540  137.3430 O   0  0  0  0  0  1  0  0  0  0  0  0
  191.1950  176.8180  140.8250 C   0  0  0  0  0  2  0  0  0  0  0  0
  190.1670  177.2820  139.8560 C   0  0  0  0  0  0  0  0  0  0  0  0
  192.4680  177.6000  140.6120 C   0  0  0  0  0  2  0  0  0  0  0  0
  187.9200  178.1610  139.5350 C   0  0  0  0  0  0  0  0  0  0  0  0
  188.1150  178.1200  138.1490 C   0  0  0  0  0  3  0  0  0  0  0  0
  1 10  2  0  0  0  0
  1 17  1  0  0  0  0
  2 12  2  0  0  0  0
  4  8  1  0  0  0  0
  4  5  2  0  0  0  0
  5  1  1  0  0  0  0
  6  7  1  0  0  0  0
  6 10  1  0  0  0  0
  7 11  2  0  0  0  0
  8  6  1  0  0  0  0
  9  3  1  0  0  0  0
 10  9  1  0  0  0  0
 11  9  1  0  0  0  0
 13 18  1  0  0  0  0
 13 12  1  0  0  0  0
 14 13  2  0  0  0  0
 15  3  2  0  0  0  0
 15  2  1  0  0  0  0
 16 17  2  0  0  0  0
 16 14  1  0  0  0  0
 17 15  1  0  0  0  0
 18 20  1  0  0  0  0
 19 18  2  0  0  0  0
 21  4  1  0  0  0  0
 22 34  2  0  0  0  0
 22 28  1  0  0  0  0
 24 25  1  0  0  0  0
 25 27  2  0  0  0  0
 25 32  1  0  0  0  0
 26 24  2  0  0  0  0
 26 28  1  0  0  0  0
 28 31  2  0  0  0  0
 29 24  1  0  0  0  0
 31 23  1  0  0  0  0
 31 30  1  0  0  0  0
 32 30  1  0  0  0  0
 33 21  1  0  0  0  0
 33 23  2  0  0  0  0
 34 33  1  0  0  0  0
M  END
>  <MODEL>
1

>  <REMARK>
 VINA RESULT:     -12.5      0.000      0.000
  Name = 
  3 active torsions:
  status: ('A' for Active; 'I' for Inactive)
    1  A    between atoms: C_3  and  C_25
    2  A    between atoms: C_8  and  N_18
    3  A    between atoms: N_18  and  C_30
                            x       y       z     vdW  Elec       q    Type
                         _______ _______ _______ _____ _____    ______ ____

>  <TORSDO>
F 3

$$$$
=
 OpenBabel10272415293D

 34 39  0  0  0  0  0  0  0  0999 V2000
  187.2520  177.8370  143.6370 C   0  0  0  0  0  0  0  0  0  0  0  0
  188.1620  177.7960  147.4870 C   0  0  0  0  0  3  0  0  0  0  0  0
  186.1740  178.2020  146.2690 C   0  0  0  0  0  3  0  0  0  0  0  0
  187.0380  178.3890  141.2330 C   0  0  0  0  0  0  0  0  0  0  0  0
  187.7830  177.9170  142.2560 C   0  0  0  0  0  3  0  0  0  0  0  0
  185.1320  178.5660  142.7800 N   0  0  0  0  0  0  0  0  0  0  0  0
  184.0390  179.1600  143.4910 C   0  0  0  0  0  3  0  0  0  0  0  0
  185.6540  178.9690  141.4760 C   0  0  0  0  0  2  0  0  0  0  0  0
  185.3970  178.2740  145.0730 N   0  0  0  0  0  0  0  0  0  0  0  0
  185.9680  178.0970  143.8080 C   0  0  0  0  0  0  0  0  0  0  0  0
  184.1880  178.9880  144.8160 C   0  0  0  0  0  3  0  0  0  0  0  0
  189.4020  177.4220  147.7780 C   0  0  0  0  0  3  0  0  0  0  0  0
  190.4760  176.9290  146.9040 C   0  0  0  0  0  0  0  0  0  0  0  0
  190.4160  176.8410  145.5750 C   0  0  0  0  0  3  0  0  0  0  0  0
  187.4690  177.8410  146.1980 C   0  0  0  0  0  0  0  0  0  0  0  0
  189.3370  177.1700  144.6390 C   0  0  0  0  0  3  0  0  0  0  0  0
  188.0890  177.5910  144.8480 C   0  0  0  0  0  0  0  0  0  0  0  0
  191.7300  176.5170  147.5680 C   0  0  0  0  0  0  0  0  0  0  0  0
  192.3880  175.3610  147.1640 O   0  0  0  0  0  0  0  0  0  0  0  0
  192.2190  177.2040  148.5060 O   0  0  0  0  0  1  0  0  0  0  0  0
  187.5660  178.4700  139.8990 N   0  0  0  0  0  2  0  0  0  0  0  0
  190.9270  176.9670  139.1580 C   0  0  0  0  0  3  0  0  0  0  0  0
  188.3000  176.8380  138.2450 C   0  0  0  0  0  3  0  0  0  0  0  0
  191.7740  174.2480  136.7570 C   0  0  0  0  0  0  0  0  0  0  0  0
  190.5910  173.4730  136.3200 C   0  0  0  0  0  0  0  0  0  0  0  0
  191.7490  175.3410  137.5330 C   0  0  0  0  0  3  0  0  0  0  0  0
  190.7560  172.5080  135.5280 O   0  0  0  0  0  0  0  0  0  0  0  0
  190.6140  176.1000  138.1050 C   0  0  0  0  0  0  0  0  0  0  0  0
  193.0210  173.7990  136.3430 O   0  0  0  0  0  1  0  0  0  0  0  0
  188.8610  175.1950  136.4940 C   0  0  0  0  0  2  0  0  0  0  0  0
  189.2810  176.0470  137.6390 C   0  0  0  0  0  0  0  0  0  0  0  0
  189.2080  173.7570  136.7920 C   0  0  0  0  0  2  0  0  0  0  0  0
  188.6170  177.6930  139.3040 C   0  0  0  0  0  0  0  0  0  0  0  0
  189.9400  177.7510  139.7580 C   0  0  0  0  0  3  0  0  0  0  0  0
  1 10  2  0  0  0  0
  1 17  1  0  0  0  0
  2 12  2  0  0  0  0
  4  8  1  0  0  0  0
  4  5  2  0  0  0  0
  5  1  1  0  0  0  0
  6  7  1  0  0  0  0
  6 10  1  0  0  0  0
  7 11  2  0  0  0  0
  8  6  1  0  0  0  0
  9  3  1  0  0  0  0
 10  9  1  0  0  0  0
 11  9  1  0  0  0  0
 13 18  1  0  0  0  0
 13 12  1  0  0  0  0
 14 13  2  0  0  0  0
 15  3  2  0  0  0  0
 15  2  1  0  0  0  0
 16 17  2  0  0  0  0
 16 14  1  0  0  0  0
 17 15  1  0  0  0  0
 18 20  1  0  0  0  0
 19 18  2  0  0  0  0
 21  4  1  0  0  0  0
 22 34  1  0  0  0  0
 23 33  1  0  0  0  0
 24 26  2  0  0  0  0
 25 24  1  0  0  0  0
 25 32  1  0  0  0  0
 26 28  1  0  0  0  0
 27 25  2  0  0  0  0
 28 22  2  0  0  0  0
 29 24  1  0  0  0  0
 30 32  1  0  0  0  0
 30 31  1  0  0  0  0
 31 28  1  0  0  0  0
 31 23  2  0  0  0  0
 33 34  2  0  0  0  0
 33 21  1  0  0  0  0
M  END
>  <MODEL>
2

>  <REMARK>
 VINA RESULT:     -12.0      1.658      2.419
  Name = 
  3 active torsions:
  status: ('A' for Active; 'I' for Inactive)
    1  A    between atoms: C_3  and  C_25
    2  A    between atoms: C_8  and  N_18
    3  A    between atoms: N_18  and  C_30
                            x       y       z     vdW  Elec       q    Type
                         _______ _______ _______ _____ _____    ______ ____

>  <TORSDO>
F 3

$$$$
=
 OpenBabel10272415293D

 34 39  0  0  0  0  0  0  0  0999 V2000
  187.5900  177.6960  145.1130 C   0  0  0  0  0  0  0  0  0  0  0  0
  191.2480  177.1420  143.7090 C   0  0  0  0  0  3  0  0  0  0  0  0
  190.3180  177.2530  145.8820 C   0  0  0  0  0  3  0  0  0  0  0  0
  185.3950  178.6310  145.7710 C   0  0  0  0  0  0  0  0  0  0  0  0
  186.2230  178.1760  144.8060 C   0  0  0  0  0  3  0  0  0  0  0  0
  187.0940  178.0090  147.4410 N   0  0  0  0  0  0  0  0  0  0  0  0
  188.0060  178.1540  148.5350 C   0  0  0  0  0  3  0  0  0  0  0  0
  185.8730  178.7790  147.2070 C   0  0  0  0  0  2  0  0  0  0  0  0
  189.2360  177.3550  146.8080 N   0  0  0  0  0  0  0  0  0  0  0  0
  187.9200  177.5800  146.3880 C   0  0  0  0  0  0  0  0  0  0  0  0
  189.2430  177.7710  148.1740 C   0  0  0  0  0  3  0  0  0  0  0  0
  191.3450  177.0490  142.3880 C   0  0  0  0  0  3  0  0  0  0  0  0
  190.2990  177.0270  141.3570 C   0  0  0  0  0  0  0  0  0  0  0  0
  188.9930  177.1860  141.5730 C   0  0  0  0  0  3  0  0  0  0  0  0
  190.0620  177.2580  144.5610 C   0  0  0  0  0  0  0  0  0  0  0  0
  188.2450  177.4040  142.8150 C   0  0  0  0  0  3  0  0  0  0  0  0
  188.6440  177.4420  144.0870 C   0  0  0  0  0  0  0  0  0  0  0  0
  190.7490  176.8300  139.9640 C   0  0  0  0  0  0  0  0  0  0  0  0
  192.0590  177.1280  139.6030 O   0  0  0  0  0  1  0  0  0  0  0  0
  189.9580  176.3910  139.0860 O   0  0  0  0  0  0  0  0  0  0  0  0
  184.0730  179.1030  145.4620 N   0  0  0  0  0  2  0  0  0  0  0  0
  181.2180  178.7580  143.0460 C   0  0  0  0  0  3  0  0  0  0  0  0
  184.0020  178.7050  143.0590 C   0  0  0  0  0  3  0  0  0  0  0  0
  181.3440  178.4430  139.3360 C   0  0  0  0  0  0  0  0  0  0  0  0
  182.6490  178.8430  138.7660 C   0  0  0  0  0  0  0  0  0  0  0  0
  181.0540  178.3600  140.6430 C   0  0  0  0  0  3  0  0  0  0  0  0
  182.8030  178.8070  137.5160 O   0  0  0  0  0  0  0  0  0  0  0  0
  181.9010  178.5640  141.8400 C   0  0  0  0  0  0  0  0  0  0  0  0
  180.3210  178.1420  138.4460 O   0  0  0  0  0  1  0  0  0  0  0  0
  184.1260  178.2780  140.6330 C   0  0  0  0  0  2  0  0  0  0  0  0
  183.3130  178.5280  141.8540 C   0  0  0  0  0  0  0  0  0  0  0  0
  183.7910  179.3190  139.5930 C   0  0  0  0  0  2  0  0  0  0  0  0
  183.3140  178.9100  144.2570 C   0  0  0  0  0  0  0  0  0  0  0  0
  181.9150  178.9360  144.2420 C   0  0  0  0  0  3  0  0  0  0  0  0
  1 10  2  0  0  0  0
  2 15  1  0  0  0  0
  3  9  1  0  0  0  0
  4  8  1  0  0  0  0
  5  1  1  0  0  0  0
  5  4  2  0  0  0  0
  6  7  1  0  0  0  0
  8  6  1  0  0  0  0
  9 11  1  0  0  0  0
 10  9  1  0  0  0  0
 10  6  1  0  0  0  0
 11  7  2  0  0  0  0
 12  2  2  0  0  0  0
 13 14  2  0  0  0  0
 13 12  1  0  0  0  0
 14 16  1  0  0  0  0
 15  3  2  0  0  0  0
 16 17  2  0  0  0  0
 17 15  1  0  0  0  0
 17  1  1  0  0  0  0
 18 13  1  0  0  0  0
 19 18  1  0  0  0  0
 20 18  2  0  0  0  0
 21  4  1  0  0  0  0
 22 34  1  0  0  0  0
 23 33  1  0  0  0  0
 24 26  2  0  0  0  0
 25 24  1  0  0  0  0
 25 32  1  0  0  0  0
 26 28  1  0  0  0  0
 27 25  2  0  0  0  0
 28 31  1  0  0  0  0
 28 22  2  0  0  0  0
 29 24  1  0  0  0  0
 30 31  1  0  0  0  0
 31 23  2  0  0  0  0
 32 30  1  0  0  0  0
 33 21  1  0  0  0  0
 34 33  2  0  0  0  0
M  END
>  <MODEL>
3

>  <REMARK>
 VINA RESULT:     -11.8      3.714      7.318
  Name = 
  3 active torsions:
  status: ('A' for Active; 'I' for Inactive)
    1  A    between atoms: C_3  and  C_25
    2  A    between atoms: C_8  and  N_18
    3  A    between atoms: N_18  and  C_30
                            x       y       z     vdW  Elec       q    Type
                         _______ _______ _______ _____ _____    ______ ____

>  <TORSDO>
F 3

$$$$
=
 OpenBabel10272415293D

 34 39  0  0  0  0  0  0  0  0999 V2000
  185.0920  178.3090  142.6430 C   0  0  0  0  0  0  0  0  0  0  0  0
  184.9210  178.6480  146.5810 C   0  0  0  0  0  3  0  0  0  0  0  0
  183.3110  178.7430  144.8490 C   0  0  0  0  0  3  0  0  0  0  0  0
  185.4920  178.6590  140.2250 C   0  0  0  0  0  0  0  0  0  0  0  0
  185.9690  178.3470  141.4500 C   0  0  0  0  0  3  0  0  0  0  0  0
  183.2290  178.7360  141.1910 N   0  0  0  0  0  0  0  0  0  0  0  0
  181.9380  179.2570  141.5260 C   0  0  0  0  0  3  0  0  0  0  0  0
  184.0490  179.0990  140.0360 C   0  0  0  0  0  2  0  0  0  0  0  0
  182.8850  178.6430  143.4900 N   0  0  0  0  0  0  0  0  0  0  0  0
  183.7920  178.4380  142.4440 C   0  0  0  0  0  0  0  0  0  0  0  0
  181.7350  179.1980  142.8550 C   0  0  0  0  0  3  0  0  0  0  0  0
  186.0630  178.4350  147.2240 C   0  0  0  0  0  3  0  0  0  0  0  0
  187.3720  178.0010  146.7170 C   0  0  0  0  0  0  0  0  0  0  0  0
  187.6830  177.8110  145.4350 C   0  0  0  0  0  3  0  0  0  0  0  0
  184.6030  178.5230  145.1580 C   0  0  0  0  0  0  0  0  0  0  0  0
  186.8760  177.9510  144.2200 C   0  0  0  0  0  3  0  0  0  0  0  0
  185.5860  178.2460  144.0500 C   0  0  0  0  0  0  0  0  0  0  0  0
  188.4290  177.7790  147.7250 C   0  0  0  0  0  0  0  0  0  0  0  0
  189.6730  177.2930  147.3380 O   0  0  0  0  0  0  0  0  0  0  0  0
  188.2210  178.0250  148.9440 O   0  0  0  0  0  1  0  0  0  0  0  0
  186.3530  178.7010  139.0760 N   0  0  0  0  0  2  0  0  0  0  0  0
  189.9490  177.6960  139.4850 C   0  0  0  0  0  3  0  0  0  0  0  0
  187.7550  177.1110  137.8740 C   0  0  0  0  0  3  0  0  0  0  0  0
  191.8230  175.0080  137.7120 C   0  0  0  0  0  0  0  0  0  0  0  0
  190.9370  174.0370  137.0340 C   0  0  0  0  0  0  0  0  0  0  0  0
  191.4250  176.1270  138.3360 C   0  0  0  0  0  3  0  0  0  0  0  0
  191.4550  173.0650  136.4240 O   0  0  0  0  0  0  0  0  0  0  0  0
  190.0810  176.7330  138.4790 C   0  0  0  0  0  0  0  0  0  0  0  0
  193.1850  174.7350  137.7210 O   0  0  0  0  0  1  0  0  0  0  0  0
  189.0240  175.4770  136.5320 C   0  0  0  0  0  2  0  0  0  0  0  0
  188.9670  176.4470  137.6570 C   0  0  0  0  0  0  0  0  0  0  0  0
  189.4510  174.1290  137.0580 C   0  0  0  0  0  2  0  0  0  0  0  0
  187.6260  178.0630  138.8880 C   0  0  0  0  0  0  0  0  0  0  0  0
  188.7340  178.3500  139.6950 C   0  0  0  0  0  3  0  0  0  0  0  0
  1 17  1  0  0  0  0
  2 12  2  0  0  0  0
  3 15  2  0  0  0  0
  4  5  2  0  0  0  0
  5  1  1  0  0  0  0
  6  7  1  0  0  0  0
  6 10  1  0  0  0  0
  7 11  2  0  0  0  0
  8  4  1  0  0  0  0
  8  6  1  0  0  0  0
  9  3  1  0  0  0  0
 10  1  2  0  0  0  0
 10  9  1  0  0  0  0
 11  9  1  0  0  0  0
 13 12  1  0  0  0  0
 13 18  1  0  0  0  0
 14 13  2  0  0  0  0
 15  2  1  0  0  0  0
 16 14  1  0  0  0  0
 17 16  2  0  0  0  0
 17 15  1  0  0  0  0
 18 20  1  0  0  0  0
 19 18  2  0  0  0  0
 21  4  1  0  0  0  0
 22 34  1  0  0  0  0
 23 33  1  0  0  0  0
 24 29  1  0  0  0  0
 24 26  2  0  0  0  0
 25 32  1  0  0  0  0
 25 24  1  0  0  0  0
 26 28  1  0  0  0  0
 27 25  2  0  0  0  0
 28 22  2  0  0  0  0
 30 32  1  0  0  0  0
 30 31  1  0  0  0  0
 31 23  2  0  0  0  0
 31 28  1  0  0  0  0
 33 21  1  0  0  0  0
 33 34  2  0  0  0  0
M  END
>  <MODEL>
4

>  <REMARK>
 VINA RESULT:     -11.3      1.789      2.916
  Name = 
  3 active torsions:
  status: ('A' for Active; 'I' for Inactive)
    1  A    between atoms: C_3  and  C_25
    2  A    between atoms: C_8  and  N_18
    3  A    between atoms: N_18  and  C_30
                            x       y       z     vdW  Elec       q    Type
                         _______ _______ _______ _____ _____    ______ ____

>  <TORSDO>
F 3

$$$$
=
 OpenBabel10272415293D

 34 39  0  0  0  0  0  0  0  0999 V2000
  184.3360  178.8840  141.8800 C   0  0  0  0  0  0  0  0  0  0  0  0
  185.2150  177.9900  138.1270 C   0  0  0  0  0  3  0  0  0  0  0  0
  183.2030  178.4660  139.2780 C   0  0  0  0  0  3  0  0  0  0  0  0
  183.9450  178.8360  144.3240 C   0  0  0  0  0  0  0  0  0  0  0  0
  184.8070  178.8620  143.2840 C   0  0  0  0  0  3  0  0  0  0  0  0
  182.0920  179.0440  142.7170 N   0  0  0  0  0  0  0  0  0  0  0  0
  180.8660  178.7330  142.0460 C   0  0  0  0  0  3  0  0  0  0  0  0
  182.4470  178.7110  144.0960 C   0  0  0  0  0  2  0  0  0  0  0  0
  182.4440  178.8510  140.4250 N   0  0  0  0  0  0  0  0  0  0  0  0
  183.0390  179.0360  141.6780 C   0  0  0  0  0  0  0  0  0  0  0  0
  181.0660  178.6270  140.7200 C   0  0  0  0  0  3  0  0  0  0  0  0
  186.5100  177.8830  137.8530 C   0  0  0  0  0  3  0  0  0  0  0  0
  187.6850  178.1320  138.6990 C   0  0  0  0  0  0  0  0  0  0  0  0
  187.6550  178.4520  139.9930 C   0  0  0  0  0  3  0  0  0  0  0  0
  184.5440  178.3880  139.3660 C   0  0  0  0  0  0  0  0  0  0  0  0
  186.5260  178.6540  140.9070 C   0  0  0  0  0  3  0  0  0  0  0  0
  185.2090  178.6390  140.6950 C   0  0  0  0  0  0  0  0  0  0  0  0
  189.0050  177.9930  138.0530 C   0  0  0  0  0  0  0  0  0  0  0  0
  189.2660  178.6390  136.8490 O   0  0  0  0  0  0  0  0  0  0  0  0
  189.9110  177.2910  138.5780 O   0  0  0  0  0  1  0  0  0  0  0  0
  184.4130  178.8060  145.6820 N   0  0  0  0  0  2  0  0  0  0  0  0
  187.2990  178.0370  147.9600 C   0  0  0  0  0  3  0  0  0  0  0  0
  186.7590  178.3170  145.2430 C   0  0  0  0  0  3  0  0  0  0  0  0
  190.7660  177.0220  147.0500 C   0  0  0  0  0  0  0  0  0  0  0  0
  190.8820  176.5530  145.6520 C   0  0  0  0  0  0  0  0  0  0  0  0
  189.6640  177.5410  147.6110 C   0  0  0  0  0  3  0  0  0  0  0  0
  192.0030  176.1560  145.2360 O   0  0  0  0  0  0  0  0  0  0  0  0
  188.3330  177.8450  147.0380 C   0  0  0  0  0  0  0  0  0  0  0  0
  191.8870  176.9030  147.8610 O   0  0  0  0  0  1  0  0  0  0  0  0
  189.0980  177.8630  144.6080 C   0  0  0  0  0  2  0  0  0  0  0  0
  188.0560  177.9980  145.6600 C   0  0  0  0  0  0  0  0  0  0  0  0
  189.7320  176.4970  144.7090 C   0  0  0  0  0  2  0  0  0  0  0  0
  185.7290  178.4960  146.1690 C   0  0  0  0  0  0  0  0  0  0  0  0
  186.0080  178.3530  147.5330 C   0  0  0  0  0  3  0  0  0  0  0  0
  1  5  1  0  0  0  0
  2 15  1  0  0  0  0
  3 15  2  0  0  0  0
  3  9  1  0  0  0  0
  4 21  1  0  0  0  0
  5  4  2  0  0  0  0
  6  8  1  0  0  0  0
  7  6  1  0  0  0  0
  8  4  1  0  0  0  0
  9 11  1  0  0  0  0
  9 10  1  0  0  0  0
 10  1  2  0  0  0  0
 10  6  1  0  0  0  0
 11  7  2  0  0  0  0
 12  2  2  0  0  0  0
 12 13  1  0  0  0  0
 13 14  2  0  0  0  0
 14 16  1  0  0  0  0
 15 17  1  0  0  0  0
 17 16  2  0  0  0  0
 17  1  1  0  0  0  0
 18 20  1  0  0  0  0
 18 13  1  0  0  0  0
 19 18  2  0  0  0  0
 21 33  1  0  0  0  0
 23 31  2  0  0  0  0
 23 33  1  0  0  0  0
 24 26  2  0  0  0  0
 24 29  1  0  0  0  0
 25 24  1  0  0  0  0
 27 25  2  0  0  0  0
 28 26  1  0  0  0  0
 28 22  2  0  0  0  0
 30 32  1  0  0  0  0
 30 31  1  0  0  0  0
 31 28  1  0  0  0  0
 32 25  1  0  0  0  0
 33 34  2  0  0  0  0
 34 22  1  0  0  0  0
M  END
>  <MODEL>
5

>  <REMARK>
 VINA RESULT:     -11.1      2.267      7.237
  Name = 
  3 active torsions:
  status: ('A' for Active; 'I' for Inactive)
    1  A    between atoms: C_3  and  C_25
    2  A    between atoms: C_8  and  N_18
    3  A    between atoms: N_18  and  C_30
                            x       y       z     vdW  Elec       q    Type
                         _______ _______ _______ _____ _____    ______ ____

>  <TORSDO>
F 3

$$$$
=
 OpenBabel10272415293D

 34 39  0  0  0  0  0  0  0  0999 V2000
  187.8690  177.7350  143.5760 C   0  0  0  0  0  0  0  0  0  0  0  0
  188.4710  177.6080  147.4840 C   0  0  0  0  0  3  0  0  0  0  0  0
  186.5690  177.9650  146.1220 C   0  0  0  0  0  3  0  0  0  0  0  0
  187.8210  178.3550  141.1790 C   0  0  0  0  0  0  0  0  0  0  0  0
  188.5030  177.8830  142.2450 C   0  0  0  0  0  3  0  0  0  0  0  0
  185.7920  178.3970  142.5720 N   0  0  0  0  0  0  0  0  0  0  0  0
  184.6200  178.9190  143.2090 C   0  0  0  0  0  3  0  0  0  0  0  0
  186.3960  178.8660  141.3270 C   0  0  0  0  0  2  0  0  0  0  0  0
  185.8870  178.0430  144.8700 N   0  0  0  0  0  0  0  0  0  0  0  0
  186.5640  177.9320  143.6500 C   0  0  0  0  0  0  0  0  0  0  0  0
  184.6710  178.7100  144.5370 C   0  0  0  0  0  3  0  0  0  0  0  0
  189.7000  177.2790  147.8630 C   0  0  0  0  0  3  0  0  0  0  0  0
  190.8620  176.8630  147.0650 C   0  0  0  0  0  0  0  0  0  0  0  0
  190.9120  176.8160  145.7340 C   0  0  0  0  0  3  0  0  0  0  0  0
  187.8810  177.6650  146.1450 C   0  0  0  0  0  0  0  0  0  0  0  0
  189.8970  177.1280  144.7230 C   0  0  0  0  0  3  0  0  0  0  0  0
  188.6170  177.4860  144.8430 C   0  0  0  0  0  0  0  0  0  0  0  0
  192.0770  176.4860  147.8150 C   0  0  0  0  0  0  0  0  0  0  0  0
  192.5460  177.2980  148.8420 O   0  0  0  0  0  1  0  0  0  0  0  0
  192.7040  175.4270  147.5380 O   0  0  0  0  0  0  0  0  0  0  0  0
  188.4490  178.5030  139.8950 N   0  0  0  0  0  2  0  0  0  0  0  0
  190.1960  175.8450  137.8990 C   0  0  0  0  0  3  0  0  0  0  0  0
  187.7360  177.1450  138.0030 C   0  0  0  0  0  3  0  0  0  0  0  0
  188.8050  173.6710  135.2120 C   0  0  0  0  0  0  0  0  0  0  0  0
  187.3260  173.6470  135.1960 C   0  0  0  0  0  0  0  0  0  0  0  0
  189.5660  174.4440  136.0010 C   0  0  0  0  0  3  0  0  0  0  0  0
  186.7400  172.9230  134.3490 O   0  0  0  0  0  0  0  0  0  0  0  0
  189.1970  175.4840  136.9880 C   0  0  0  0  0  0  0  0  0  0  0  0
  189.4690  172.8100  134.3480 O   0  0  0  0  0  1  0  0  0  0  0  0
  186.8490  175.8770  136.0830 C   0  0  0  0  0  2  0  0  0  0  0  0
  187.9540  176.1550  137.0380 C   0  0  0  0  0  0  0  0  0  0  0  0
  186.4850  174.4140  136.1550 C   0  0  0  0  0  2  0  0  0  0  0  0
  188.7330  177.4910  138.9170 C   0  0  0  0  0  0  0  0  0  0  0  0
  189.9670  176.8320  138.8580 C   0  0  0  0  0  3  0  0  0  0  0  0
  1 10  2  0  0  0  0
  1 17  1  0  0  0  0
  2 12  2  0  0  0  0
  3 15  2  0  0  0  0
  4  8  1  0  0  0  0
  4  5  2  0  0  0  0
  5  1  1  0  0  0  0
  6  7  1  0  0  0  0
  6 10  1  0  0  0  0
  7 11  2  0  0  0  0
  8  6  1  0  0  0  0
  9  3  1  0  0  0  0
 10  9  1  0  0  0  0
 11  9  1  0  0  0  0
 13 18  1  0  0  0  0
 13 12  1  0  0  0  0
 14 13  2  0  0  0  0
 15  2  1  0  0  0  0
 16 17  2  0  0  0  0
 16 14  1  0  0  0  0
 17 15  1  0  0  0  0
 18 19  1  0  0  0  0
 20 18  2  0  0  0  0
 21  4  1  0  0  0  0
 22 34  1  0  0  0  0
 23 33  1  0  0  0  0
 24 26  2  0  0  0  0
 25 24  1  0  0  0  0
 25 32  1  0  0  0  0
 26 28  1  0  0  0  0
 27 25  2  0  0  0  0
 28 31  1  0  0  0  0
 28 22  2  0  0  0  0
 29 24  1  0  0  0  0
 30 32  1  0  0  0  0
 30 31  1  0  0  0  0
 31 23  2  0  0  0  0
 33 21  1  0  0  0  0
 34 33  2  0  0  0  0
M  END
>  <MODEL>
6

>  <REMARK>
 VINA RESULT:     -11.0      2.627      3.607
  Name = 
  3 active torsions:
  status: ('A' for Active; 'I' for Inactive)
    1  A    between atoms: C_3  and  C_25
    2  A    between atoms: C_8  and  N_18
    3  A    between atoms: N_18  and  C_30
                            x       y       z     vdW  Elec       q    Type
                         _______ _______ _______ _____ _____    ______ ____

>  <TORSDO>
F 3

$$$$
=
 OpenBabel10272415293D

 34 39  0  0  0  0  0  0  0  0999 V2000
  188.6350  177.4420  143.2140 C   0  0  0  0  0  0  0  0  0  0  0  0
  188.8050  177.5270  147.1660 C   0  0  0  0  0  3  0  0  0  0  0  0
  187.0640  177.7980  145.5870 C   0  0  0  0  0  3  0  0  0  0  0  0
  188.8500  177.9340  140.7970 C   0  0  0  0  0  0  0  0  0  0  0  0
  189.4110  177.5240  141.9550 C   0  0  0  0  0  3  0  0  0  0  0  0
  186.6800  178.0360  141.9550 N   0  0  0  0  0  0  0  0  0  0  0  0
  185.4450  178.5830  142.4320 C   0  0  0  0  0  3  0  0  0  0  0  0
  187.4170  178.4420  140.7600 C   0  0  0  0  0  2  0  0  0  0  0  0
  186.5230  177.8040  144.2660 N   0  0  0  0  0  0  0  0  0  0  0  0
  187.3300  177.6340  143.1350 C   0  0  0  0  0  0  0  0  0  0  0  0
  185.3500  178.4450  143.7660 C   0  0  0  0  0  3  0  0  0  0  0  0
  189.9860  177.2280  147.6940 C   0  0  0  0  0  3  0  0  0  0  0  0
  191.2280  176.7780  147.0520 C   0  0  0  0  0  0  0  0  0  0  0  0
  191.4240  176.6610  145.7380 C   0  0  0  0  0  3  0  0  0  0  0  0
  188.3650  177.5090  145.7700 C   0  0  0  0  0  0  0  0  0  0  0  0
  190.5260  176.9110  144.6080 C   0  0  0  0  0  3  0  0  0  0  0  0
  189.2400  177.2670  144.5670 C   0  0  0  0  0  0  0  0  0  0  0  0
  192.3540  176.4500  147.9500 C   0  0  0  0  0  0  0  0  0  0  0  0
  192.6810  177.2980  149.0020 O   0  0  0  0  0  1  0  0  0  0  0  0
  193.0330  175.4010  147.7770 O   0  0  0  0  0  0  0  0  0  0  0  0
  189.6140  178.0190  139.5840 N   0  0  0  0  0  2  0  0  0  0  0  0
  189.7480  175.0900  137.2360 C   0  0  0  0  0  3  0  0  0  0  0  0
  191.4750  176.7560  138.6480 C   0  0  0  0  0  3  0  0  0  0  0  0
  192.7370  173.4900  135.6920 C   0  0  0  0  0  0  0  0  0  0  0  0
  193.9480  174.3370  135.7640 C   0  0  0  0  0  0  0  0  0  0  0  0
  191.5520  173.7700  136.2550 C   0  0  0  0  0  3  0  0  0  0  0  0
  195.0170  173.9140  135.2490 O   0  0  0  0  0  0  0  0  0  0  0  0
  191.1290  174.8980  137.1150 C   0  0  0  0  0  0  0  0  0  0  0  0
  192.8230  172.3090  134.9650 O   0  0  0  0  0  1  0  0  0  0  0  0
  193.4790  175.5830  137.8170 C   0  0  0  0  0  2  0  0  0  0  0  0
  192.0010  175.7400  137.8420 C   0  0  0  0  0  0  0  0  0  0  0  0
  193.9660  175.6860  136.3920 C   0  0  0  0  0  2  0  0  0  0  0  0
  190.0960  176.9500  138.7550 C   0  0  0  0  0  0  0  0  0  0  0  0
  189.2350  176.1080  138.0410 C   0  0  0  0  0  3  0  0  0  0  0  0
  1 17  1  0  0  0  0
  2 12  2  0  0  0  0
  3 15  2  0  0  0  0
  4  5  2  0  0  0  0
  5  1  1  0  0  0  0
  6  7  1  0  0  0  0
  6 10  1  0  0  0  0
  7 11  2  0  0  0  0
  8  4  1  0  0  0  0
  8  6  1  0  0  0  0
  9  3  1  0  0  0  0
 10  1  2  0  0  0  0
 10  9  1  0  0  0  0
 11  9  1  0  0  0  0
 13 12  1  0  0  0  0
 13 18  1  0  0  0  0
 14 13  2  0  0  0  0
 15  2  1  0  0  0  0
 16 14  1  0  0  0  0
 17 16  2  0  0  0  0
 17 15  1  0  0  0  0
 18 19  1  0  0  0  0
 20 18  2  0  0  0  0
 21  4  1  0  0  0  0
 22 34  1  0  0  0  0
 23 33  1  0  0  0  0
 24 25  1  0  0  0  0
 24 26  2  0  0  0  0
 25 32  1  0  0  0  0
 26 28  1  0  0  0  0
 27 25  2  0  0  0  0
 28 22  2  0  0  0  0
 28 31  1  0  0  0  0
 29 24  1  0  0  0  0
 30 31  1  0  0  0  0
 31 23  2  0  0  0  0
 32 30  1  0  0  0  0
 33 21  1  0  0  0  0
 34 33  2  0  0  0  0
M  END
>  <MODEL>
7

>  <REMARK>
 VINA RESULT:     -10.9      1.956      2.872
  Name = 
  3 active torsions:
  status: ('A' for Active; 'I' for Inactive)
    1  A    between atoms: C_3  and  C_25
    2  A    between atoms: C_8  and  N_18
    3  A    between atoms: N_18  and  C_30
                            x       y       z     vdW  Elec       q    Type
                         _______ _______ _______ _____ _____    ______ ____

>  <TORSDO>
F 3

$$$$
=
 OpenBabel10272415293D

 34 39  0  0  0  0  0  0  0  0999 V2000
  187.4430  177.9990  144.3060 C   0  0  0  0  0  0  0  0  0  0  0  0
  183.7080  178.6180  145.4550 C   0  0  0  0  0  3  0  0  0  0  0  0
  185.7660  178.3830  146.6010 C   0  0  0  0  0  3  0  0  0  0  0  0
  189.5540  177.0370  143.4400 C   0  0  0  0  0  0  0  0  0  0  0  0
  188.3240  177.5440  143.2050 C   0  0  0  0  0  3  0  0  0  0  0  0
  189.2450  177.5510  145.8280 N   0  0  0  0  0  0  0  0  0  0  0  0
  189.1840  177.3380  147.2430 C   0  0  0  0  0  3  0  0  0  0  0  0
  190.0450  176.8020  144.8600 C   0  0  0  0  0  2  0  0  0  0  0  0
  187.1840  178.2310  146.6670 N   0  0  0  0  0  0  0  0  0  0  0  0
  187.9620  178.0380  145.5210 C   0  0  0  0  0  0  0  0  0  0  0  0
  187.9960  177.7350  147.7310 C   0  0  0  0  0  3  0  0  0  0  0  0
  182.8290  178.7880  144.4750 C   0  0  0  0  0  3  0  0  0  0  0  0
  183.0300  178.8760  143.0230 C   0  0  0  0  0  0  0  0  0  0  0  0
  184.1910  178.7100  142.3890 C   0  0  0  0  0  3  0  0  0  0  0  0
  185.1620  178.4580  145.4000 C   0  0  0  0  0  0  0  0  0  0  0  0
  185.5330  178.4230  142.9030 C   0  0  0  0  0  3  0  0  0  0  0  0
  185.9910  178.3080  144.1500 C   0  0  0  0  0  0  0  0  0  0  0  0
  181.8310  179.1530  142.2060 C   0  0  0  0  0  0  0  0  0  0  0  0
  180.7830  179.9010  142.7320 O   0  0  0  0  0  1  0  0  0  0  0  0
  181.7380  178.7170  141.0260 O   0  0  0  0  0  0  0  0  0  0  0  0
  190.3960  176.5910  142.3660 N   0  0  0  0  0  2  0  0  0  0  0  0
  191.0510  176.7490  138.6710 C   0  0  0  0  0  3  0  0  0  0  0  0
  189.0080  177.2820  140.4860 C   0  0  0  0  0  3  0  0  0  0  0  0
  188.6680  177.5640  135.9250 C   0  0  0  0  0  0  0  0  0  0  0  0
  187.2520  177.4750  136.3440 C   0  0  0  0  0  0  0  0  0  0  0  0
  189.7320  177.4240  136.7300 C   0  0  0  0  0  3  0  0  0  0  0  0
  186.3520  177.7010  135.4920 O   0  0  0  0  0  0  0  0  0  0  0  0
  189.8210  177.2150  138.1930 C   0  0  0  0  0  0  0  0  0  0  0  0
  188.9250  177.7970  134.5800 O   0  0  0  0  0  1  0  0  0  0  0  0
  187.4680  178.0380  138.7150 C   0  0  0  0  0  2  0  0  0  0  0  0
  188.7910  177.4940  139.1200 C   0  0  0  0  0  0  0  0  0  0  0  0
  186.8280  177.1010  137.7210 C   0  0  0  0  0  2  0  0  0  0  0  0
  190.2350  176.8050  140.9540 C   0  0  0  0  0  0  0  0  0  0  0  0
  191.2560  176.5390  140.0350 C   0  0  0  0  0  3  0  0  0  0  0  0
  1 10  2  0  0  0  0
  3  9  1  0  0  0  0
  4  8  1  0  0  0  0
  5  4  2  0  0  0  0
  5  1  1  0  0  0  0
  6  7  1  0  0  0  0
  7 11  2  0  0  0  0
  8  6  1  0  0  0  0
  9 11  1  0  0  0  0
 10  6  1  0  0  0  0
 10  9  1  0  0  0  0
 12  2  2  0  0  0  0
 13 12  1  0  0  0  0
 14 16  1  0  0  0  0
 14 13  2  0  0  0  0
 15  2  1  0  0  0  0
 15  3  2  0  0  0  0
 16 17  2  0  0  0  0
 17  1  1  0  0  0  0
 17 15  1  0  0  0  0
 18 19  1  0  0  0  0
 18 13  1  0  0  0  0
 20 18  2  0  0  0  0
 21  4  1  0  0  0  0
 22 34  1  0  0  0  0
 23 33  1  0  0  0  0
 24 25  1  0  0  0  0
 24 26  2  0  0  0  0
 25 32  1  0  0  0  0
 26 28  1  0  0  0  0
 27 25  2  0  0  0  0
 28 22  2  0  0  0  0
 28 31  1  0  0  0  0
 29 24  1  0  0  0  0
 30 31  1  0  0  0  0
 31 23  2  0  0  0  0
 32 30  1  0  0  0  0
 33 21  1  0  0  0  0
 34 33  2  0  0  0  0
M  END
>  <MODEL>
8

>  <REMARK>
 VINA RESULT:     -10.7      3.820      5.837
  Name = 
  3 active torsions:
  status: ('A' for Active; 'I' for Inactive)
    1  A    between atoms: C_3  and  C_25
    2  A    between atoms: C_8  and  N_18
    3  A    between atoms: N_18  and  C_30
                            x       y       z     vdW  Elec       q    Type
                         _______ _______ _______ _____ _____    ______ ____

>  <TORSDO>
F 3

$$$$
=
 OpenBabel10272415293D

 34 39  0  0  0  0  0  0  0  0999 V2000
  184.8130  178.3440  142.4760 C   0  0  0  0  0  0  0  0  0  0  0  0
  184.7200  178.6110  146.4230 C   0  0  0  0  0  3  0  0  0  0  0  0
  183.0780  178.7500  144.7240 C   0  0  0  0  0  3  0  0  0  0  0  0
  185.1700  178.7360  140.0580 C   0  0  0  0  0  0  0  0  0  0  0  0
  185.6670  178.3970  141.2670 C   0  0  0  0  0  3  0  0  0  0  0  0
  182.9260  178.8130  141.0680 N   0  0  0  0  0  0  0  0  0  0  0  0
  181.6460  179.3370  141.4380 C   0  0  0  0  0  3  0  0  0  0  0  0
  183.7270  179.1910  139.9050 C   0  0  0  0  0  2  0  0  0  0  0  0
  182.6260  178.6790  143.3720 N   0  0  0  0  0  0  0  0  0  0  0  0
  183.5100  178.4870  142.3050 C   0  0  0  0  0  0  0  0  0  0  0  0
  181.4680  179.2550  142.7690 C   0  0  0  0  0  3  0  0  0  0  0  0
  185.8720  178.3760  147.0390 C   0  0  0  0  0  3  0  0  0  0  0  0
  187.1680  177.9420  146.4990 C   0  0  0  0  0  0  0  0  0  0  0  0
  187.4530  177.7730  145.2080 C   0  0  0  0  0  3  0  0  0  0  0  0
  184.3730  178.5150  145.0030 C   0  0  0  0  0  0  0  0  0  0  0  0
  186.6230  177.9420  144.0110 C   0  0  0  0  0  3  0  0  0  0  0  0
  185.3330  178.2500  143.8720 C   0  0  0  0  0  0  0  0  0  0  0  0
  188.2420  177.6930  147.4820 C   0  0  0  0  0  0  0  0  0  0  0  0
  188.0610  178.0330  148.8180 O   0  0  0  0  0  1  0  0  0  0  0  0
  189.3350  177.1730  147.1260 O   0  0  0  0  0  0  0  0  0  0  0  0
  186.0090  178.7930  138.8930 N   0  0  0  0  0  2  0  0  0  0  0  0
  187.0540  175.8810  136.7630 C   0  0  0  0  0  3  0  0  0  0  0  0
  188.1140  177.5820  138.6960 C   0  0  0  0  0  3  0  0  0  0  0  0
  190.4390  174.3650  136.4050 C   0  0  0  0  0  0  0  0  0  0  0  0
  191.5200  175.2420  136.9060 C   0  0  0  0  0  0  0  0  0  0  0  0
  189.1240  174.6120  136.5020 C   0  0  0  0  0  3  0  0  0  0  0  0
  192.7130  174.8490  136.8120 O   0  0  0  0  0  0  0  0  0  0  0  0
  188.3910  175.7250  137.1480 C   0  0  0  0  0  0  0  0  0  0  0  0
  190.8110  173.1910  135.7630 O   0  0  0  0  0  1  0  0  0  0  0  0
  190.3120  176.4640  138.6480 C   0  0  0  0  0  2  0  0  0  0  0  0
  188.9200  176.5840  138.1370 C   0  0  0  0  0  0  0  0  0  0  0  0
  191.2770  176.5870  137.4930 C   0  0  0  0  0  2  0  0  0  0  0  0
  186.7850  177.7410  138.2980 C   0  0  0  0  0  0  0  0  0  0  0  0
  186.2600  176.8820  137.3250 C   0  0  0  0  0  3  0  0  0  0  0  0
  1 17  1  0  0  0  0
  2 12  2  0  0  0  0
  3 15  2  0  0  0  0
  4  5  2  0  0  0  0
  5  1  1  0  0  0  0
  6  7  1  0  0  0  0
  6 10  1  0  0  0  0
  7 11  2  0  0  0  0
  8  4  1  0  0  0  0
  8  6  1  0  0  0  0
  9  3  1  0  0  0  0
 10  1  2  0  0  0  0
 10  9  1  0  0  0  0
 11  9  1  0  0  0  0
 13 12  1  0  0  0  0
 13 18  1  0  0  0  0
 14 13  2  0  0  0  0
 15  2  1  0  0  0  0
 16 14  1  0  0  0  0
 17 16  2  0  0  0  0
 17 15  1  0  0  0  0
 18 19  1  0  0  0  0
 20 18  2  0  0  0  0
 21  4  1  0  0  0  0
 22 28  2  0  0  0  0
 22 34  1  0  0  0  0
 24 26  2  0  0  0  0
 24 25  1  0  0  0  0
 25 32  1  0  0  0  0
 26 28  1  0  0  0  0
 27 25  2  0  0  0  0
 28 31  1  0  0  0  0
 29 24  1  0  0  0  0
 31 30  1  0  0  0  0
 31 23  2  0  0  0  0
 32 30  1  0  0  0  0
 33 23  1  0  0  0  0
 33 21  1  0  0  0  0
 34 33  2  0  0  0  0
M  END
>  <MODEL>
9

>  <REMARK>
 VINA RESULT:     -10.6      1.999      3.012
  Name = 
  3 active torsions:
  status: ('A' for Active; 'I' for Inactive)
    1  A    between atoms: C_3  and  C_25
    2  A    between atoms: C_8  and  N_18
    3  A    between atoms: N_18  and  C_30
                            x       y       z     vdW  Elec       q    Type
                         _______ _______ _______ _____ _____    ______ ____

>  <TORSDO>
F 3

$$$$
