=
 OpenBabel10272415133D

 34 39  0  0  1  0  0  0  0  0999 V2000
  187.1290  177.7130  144.2350 C   0  0  1  0  0  3  0  0  0  0  0  0
  183.7760  178.9620  145.1870 C   0  0  0  0  0  3  0  0  0  0  0  0
  185.5910  178.3440  146.5660 C   0  0  0  0  0  3  0  0  0  0  0  0
  189.0540  177.2360  145.8230 C   0  0  0  0  0  3  0  0  0  0  0  0
  188.6610  177.4180  148.2380 C   0  0  0  0  0  3  0  0  0  0  0  0
  189.4590  176.9850  147.0730 C   0  0  0  0  0  3  0  0  0  0  0  0
  186.8820  178.0860  146.7280 C   0  0  0  0  0  0  0  0  0  0  0  0
  187.8170  178.0600  145.5420 C   0  0  2  0  0  3  0  0  0  0  0  0
  187.4360  177.9270  148.0800 C   0  0  0  0  0  3  0  0  0  0  0  0
  182.8770  179.2220  144.0590 C   0  0  0  0  0  3  0  0  0  0  0  0
  182.9890  178.8700  142.7830 C   0  0  0  0  0  0  0  0  0  0  0  0
  184.0620  178.0620  142.2010 C   0  0  0  0  0  3  0  0  0  0  0  0
  185.0060  178.4520  145.2220 C   0  0  1  0  0  3  0  0  0  0  0  0
  185.2270  177.7040  142.7250 C   0  0  0  0  0  3  0  0  0  0  0  0
  185.8100  177.9890  144.0520 C   0  0  0  0  0  0  0  0  0  0  0  0
  181.8760  179.2560  141.8730 C   0  0  0  0  0  2  0  0  0  0  0  0
  180.8940  179.9390  142.5910 O   0  0  0  0  0  1  0  0  0  0  0  0
  187.9990  177.2580  143.0910 C   0  0  0  0  0  2  0  0  0  0  0  0
  192.5150  177.6160  140.9260 C   0  0  0  0  0  2  0  0  0  0  0  0
  189.6660  177.0490  140.8590 N   0  0  0  0  0  0  0  0  0  0  0  0
  191.9290  175.8420  137.5470 C   0  0  2  0  0  0  0  0  0  0  0  0
  189.4460  177.6760  143.3250 C   0  0  2  0  0  3  0  0  0  0  0  0
  191.9270  174.4620  137.7770 O   0  0  0  0  0  1  0  0  0  0  0  0
  192.5520  176.5340  138.7310 C   0  0  0  0  0  3  0  0  0  0  0  0
  191.8370  176.9000  139.7970 C   0  0  0  0  0  0  0  0  0  0  0  0
  189.7520  178.9280  142.5010 C   0  0  0  0  0  2  0  0  0  0  0  0
  189.6600  176.1350  138.6220 C   0  0  0  0  0  2  0  0  0  0  0  0
  190.3580  176.7440  139.8030 C   0  0  0  0  0  0  0  0  0  0  0  0
  190.4850  176.3190  137.3470 C   0  0  0  0  0  2  0  0  0  0  0  0
  190.2940  177.5910  142.0660 C   0  0  2  0  0  0  0  0  0  0  0  0
  191.7910  177.3700  142.2480 C   0  0  0  0  0  2  0  0  0  0  0  0
  192.7340  176.1550  136.3200 C   0  0  0  0  0  0  0  0  0  0  0  0
  194.0610  176.5530  136.4420 O   0  0  0  0  0  1  0  0  0  0  0  0
  192.2310  176.0290  135.1710 O   0  0  0  0  0  0  0  0  0  0  0  0
  1 18  1  6  0  0  0
  1  8  1  0  0  0  0
  3  7  2  0  0  0  0
  4  6  2  0  0  0  0
  6  5  1  0  0  0  0
  7  9  1  0  0  0  0
  8  4  1  1  0  0  0
  8  7  1  0  0  0  0
  9  5  2  0  0  0  0
 10  2  2  0  0  0  0
 11 10  1  0  0  0  0
 12 14  1  0  0  0  0
 12 11  2  0  0  0  0
 13  2  1  1  0  0  0
 13  3  1  0  0  0  0
 14 15  2  0  0  0  0
 15  1  1  0  0  0  0
 15 13  1  0  0  0  0
 16 17  1  0  0  0  0
 16 11  1  0  0  0  0
 19 31  1  0  0  0  0
 20 30  1  0  0  0  0
 21 23  1  1  0  0  0
 21 24  1  0  0  0  0
 22 18  1  6  0  0  0
 24 25  2  0  0  0  0
 25 28  1  0  0  0  0
 25 19  1  0  0  0  0
 26 22  1  0  0  0  0
 27 28  1  0  0  0  0
 28 20  2  0  0  0  0
 29 21  1  0  0  0  0
 29 27  1  0  0  0  0
 30 31  1  1  0  0  0
 30 26  1  0  0  0  0
 30 22  1  0  0  0  0
 32 33  1  0  0  0  0
 32 21  1  0  0  0  0
 34 32  2  0  0  0  0
M  END
>  <MODEL>
1

>  <REMARK>
 VINA RESULT:     -11.1      0.000      0.000
  Name = 
  4 active torsions:
  status: ('A' for Active; 'I' for Inactive)
    1  A    between atoms: C_1  and  C_9
    2  A    between atoms: C_3  and  C_25
    3  A    between atoms: C_7  and  C_11
    4  A    between atoms: C_8  and  C_9
                            x       y       z     vdW  Elec       q    Type
                         _______ _______ _______ _____ _____    ______ ____

>  <TORSDO>
F 4

$$$$
=
 OpenBabel10272415133D

 34 39  0  0  1  0  0  0  0  0999 V2000
  187.1520  177.6270  143.8200 C   0  0  1  0  0  3  0  0  0  0  0  0
  187.8490  177.8080  147.4520 C   0  0  0  0  0  3  0  0  0  0  0  0
  185.9180  178.4660  146.2630 C   0  0  0  0  0  3  0  0  0  0  0  0
  184.9590  178.2240  142.6870 C   0  0  0  0  0  3  0  0  0  0  0  0
  183.1590  179.1970  144.0410 C   0  0  0  0  0  3  0  0  0  0  0  0
  183.7890  178.8710  142.7460 C   0  0  0  0  0  3  0  0  0  0  0  0
  185.1650  178.4290  145.1720 C   0  0  0  0  0  0  0  0  0  0  0  0
  185.6410  177.7070  143.9320 C   0  0  2  0  0  3  0  0  0  0  0  0
  183.8120  179.0010  145.1900 C   0  0  0  0  0  3  0  0  0  0  0  0
  189.1780  177.3320  147.8450 C   0  0  0  0  0  2  0  0  0  0  0  0
  190.2410  177.0650  147.0950 C   0  0  0  0  0  0  0  0  0  0  0  0
  190.3440  177.2420  145.6450 C   0  0  0  0  0  3  0  0  0  0  0  0
  187.2930  177.9500  146.2500 C   0  0  0  0  0  0  0  0  0  0  0  0
  189.3880  177.4780  144.7560 C   0  0  0  0  0  3  0  0  0  0  0  0
  187.9320  177.6470  144.9350 C   0  0  0  0  0  0  0  0  0  0  0  0
  191.4760  176.6280  147.8020 C   0  0  0  0  0  2  0  0  0  0  0  0
  192.3700  176.0670  146.8890 O   0  0  0  0  0  1  0  0  0  0  0  0
  187.7320  177.3100  142.4650 C   0  0  0  0  0  2  0  0  0  0  0  0
  191.7860  177.4470  139.5070 C   0  0  0  0  0  2  0  0  0  0  0  0
  188.9680  176.9260  139.9900 N   0  0  0  0  0  0  0  0  0  0  0  0
  190.5920  175.4630  136.4160 C   0  0  2  0  0  0  0  0  0  0  0  0
  189.1990  177.7180  142.4070 C   0  0  2  0  0  3  0  0  0  0  0  0
  190.6240  174.1020  136.7360 O   0  0  0  0  0  1  0  0  0  0  0  0
  191.4210  176.2220  137.4190 C   0  0  0  0  0  3  0  0  0  0  0  0
  190.9110  176.6690  138.5690 C   0  0  0  0  0  0  0  0  0  0  0  0
  189.3580  178.9070  141.4590 C   0  0  0  0  0  2  0  0  0  0  0  0
  188.5550  175.8660  137.8580 C   0  0  0  0  0  2  0  0  0  0  0  0
  189.4570  176.5400  138.8500 C   0  0  0  0  0  0  0  0  0  0  0  0
  189.1380  175.9520  136.4460 C   0  0  0  0  0  2  0  0  0  0  0  0
  189.8060  177.5350  141.0250 C   0  0  2  0  0  0  0  0  0  0  0  0
  191.3110  177.3010  140.9510 C   0  0  0  0  0  2  0  0  0  0  0  0
  191.1640  175.6810  135.0460 C   0  0  0  0  0  0  0  0  0  0  0  0
  192.0760  174.7710  134.5210 O   0  0  0  0  0  1  0  0  0  0  0  0
  190.8020  176.6640  134.3460 O   0  0  0  0  0  0  0  0  0  0  0  0
  1 18  1  1  0  0  0
  1  8  1  0  0  0  0
  1 15  1  0  0  0  0
  2 10  1  0  0  0  0
  4  6  2  0  0  0  0
  5  9  2  0  0  0  0
  6  5  1  0  0  0  0
  7  9  1  0  0  0  0
  7  3  2  0  0  0  0
  8  4  1  6  0  0  0
  8  7  1  0  0  0  0
 11 16  1  0  0  0  0
 11 10  1  0  0  0  0
 12 11  2  0  0  0  0
 13  3  1  0  0  0  0
 13  2  2  0  0  0  0
 14 15  2  0  0  0  0
 14 12  1  0  0  0  0
 15 13  1  0  0  0  0
 17 16  1  0  0  0  0
 19 31  1  0  0  0  0
 20 30  1  0  0  0  0
 21 29  1  0  0  0  0
 21 23  1  1  0  0  0
 21 24  1  0  0  0  0
 22 18  1  6  0  0  0
 24 25  2  0  0  0  0
 25 28  1  0  0  0  0
 25 19  1  0  0  0  0
 26 22  1  0  0  0  0
 27 28  1  0  0  0  0
 28 20  2  0  0  0  0
 29 27  1  0  0  0  0
 30 31  1  6  0  0  0
 30 26  1  0  0  0  0
 30 22  1  0  0  0  0
 32 21  1  0  0  0  0
 33 32  1  0  0  0  0
 34 32  2  0  0  0  0
M  END
>  <MODEL>
2

>  <REMARK>
 VINA RESULT:     -10.5      2.469      4.712
  Name = 
  4 active torsions:
  status: ('A' for Active; 'I' for Inactive)
    1  A    between atoms: C_1  and  C_9
    2  A    between atoms: C_3  and  C_25
    3  A    between atoms: C_7  and  C_11
    4  A    between atoms: C_8  and  C_9
                            x       y       z     vdW  Elec       q    Type
                         _______ _______ _______ _____ _____    ______ ____

>  <TORSDO>
F 4

$$$$
=
 OpenBabel10272415133D

 34 39  0  0  1  0  0  0  0  0999 V2000
  186.8710  177.6360  143.6390 C   0  0  1  0  0  3  0  0  0  0  0  0
  190.5470  177.4150  143.2570 C   0  0  0  0  0  3  0  0  0  0  0  0
  189.2680  177.8890  145.1840 C   0  0  0  0  0  3  0  0  0  0  0  0
  185.6130  177.9960  145.8160 C   0  0  0  0  0  3  0  0  0  0  0  0
  186.8980  178.4350  147.8600 C   0  0  0  0  0  3  0  0  0  0  0  0
  185.6390  178.4130  147.0880 C   0  0  0  0  0  3  0  0  0  0  0  0
  188.1120  177.8760  145.8350 C   0  0  0  0  0  0  0  0  0  0  0  0
  186.8440  177.4330  145.1430 C   0  0  2  0  0  3  0  0  0  0  0  0
  188.0700  178.1950  147.2690 C   0  0  0  0  0  3  0  0  0  0  0  0
  191.0050  177.1270  141.8950 C   0  0  0  0  0  3  0  0  0  0  0  0
  190.3350  177.1600  140.7480 C   0  0  0  0  0  0  0  0  0  0  0  0
  188.9360  177.5580  140.5740 C   0  0  0  0  0  3  0  0  0  0  0  0
  189.3240  177.6280  143.7390 C   0  0  1  0  0  3  0  0  0  0  0  0
  187.9940  177.7480  141.4890 C   0  0  0  0  0  3  0  0  0  0  0  0
  188.0500  177.6330  142.9610 C   0  0  0  0  0  0  0  0  0  0  0  0
  191.0980  176.8490  139.5080 C   0  0  0  0  0  2  0  0  0  0  0  0
  190.4760  175.8080  138.8180 O   0  0  0  0  0  1  0  0  0  0  0  0
  185.5500  177.6220  142.9130 C   0  0  0  0  0  2  0  0  0  0  0  0
  183.2820  179.6640  138.9260 C   0  0  0  0  0  2  0  0  0  0  0  0
  183.8110  177.4510  140.7340 N   0  0  0  0  0  0  0  0  0  0  0  0
  181.8050  176.5600  137.1660 C   0  0  2  0  0  0  0  0  0  0  0  0
  185.3560  178.9200  142.1380 C   0  0  2  0  0  3  0  0  0  0  0  0
  182.8440  175.9080  136.4930 O   0  0  0  0  0  1  0  0  0  0  0  0
  182.2450  177.9600  137.5070 C   0  0  0  0  0  3  0  0  0  0  0  0
  182.9040  178.2420  138.6330 C   0  0  0  0  0  0  0  0  0  0  0  0
  183.9110  179.3950  142.2970 C   0  0  0  0  0  2  0  0  0  0  0  0
  182.6400  175.7910  139.4250 C   0  0  0  0  0  2  0  0  0  0  0  0
  183.1230  177.1920  139.6620 C   0  0  0  0  0  0  0  0  0  0  0  0
  181.4670  175.7790  138.4430 C   0  0  0  0  0  2  0  0  0  0  0  0
  184.3620  178.7820  140.9960 C   0  0  2  0  0  0  0  0  0  0  0  0
  184.5220  179.7310  139.8150 C   0  0  0  0  0  2  0  0  0  0  0  0
  180.5910  176.6310  136.2870 C   0  0  0  0  0  0  0  0  0  0  0  0
  179.9820  175.4600  135.8470 O   0  0  0  0  0  0  0  0  0  0  0  0
  180.0920  177.7430  135.9670 O   0  0  0  0  0  1  0  0  0  0  0  0
  1 18  1  6  0  0  0
  1  8  1  0  0  0  0
  3  7  2  0  0  0  0
  4  6  2  0  0  0  0
  6  5  1  0  0  0  0
  7  9  1  0  0  0  0
  8  4  1  1  0  0  0
  8  7  1  0  0  0  0
  9  5  2  0  0  0  0
 10  2  2  0  0  0  0
 11 10  1  0  0  0  0
 12 11  2  0  0  0  0
 12 14  1  0  0  0  0
 13  2  1  6  0  0  0
 13  3  1  0  0  0  0
 14 15  2  0  0  0  0
 15  1  1  0  0  0  0
 15 13  1  0  0  0  0
 16 11  1  0  0  0  0
 17 16  1  0  0  0  0
 19 31  1  0  0  0  0
 20 30  1  0  0  0  0
 21 23  1  6  0  0  0
 21 24  1  0  0  0  0
 21 29  1  0  0  0  0
 22 26  1  0  0  0  0
 22 18  1  1  0  0  0
 24 25  2  0  0  0  0
 25 19  1  0  0  0  0
 25 28  1  0  0  0  0
 27 28  1  0  0  0  0
 28 20  2  0  0  0  0
 29 27  1  0  0  0  0
 30 31  1  6  0  0  0
 30 22  1  0  0  0  0
 30 26  1  0  0  0  0
 32 21  1  0  0  0  0
 33 32  2  0  0  0  0
 34 32  1  0  0  0  0
M  END
>  <MODEL>
3

>  <REMARK>
 VINA RESULT:      -9.8      3.440      7.440
  Name = 
  4 active torsions:
  status: ('A' for Active; 'I' for Inactive)
    1  A    between atoms: C_1  and  C_9
    2  A    between atoms: C_3  and  C_25
    3  A    between atoms: C_7  and  C_11
    4  A    between atoms: C_8  and  C_9
                            x       y       z     vdW  Elec       q    Type
                         _______ _______ _______ _____ _____    ______ ____

>  <TORSDO>
F 4

$$$$
=
 OpenBabel10272415133D

 34 39  0  0  1  0  0  0  0  0999 V2000
  188.3420  177.4900  144.1400 C   0  0  1  0  0  3  0  0  0  0  0  0
  185.5160  178.6270  146.2450 C   0  0  0  0  0  3  0  0  0  0  0  0
  187.6650  177.8940  146.8930 C   0  0  0  0  0  3  0  0  0  0  0  0
  190.6670  176.8790  144.9610 C   0  0  0  0  0  3  0  0  0  0  0  0
  191.0880  176.8330  147.3780 C   0  0  0  0  0  3  0  0  0  0  0  0
  191.4510  176.5140  145.9820 C   0  0  0  0  0  3  0  0  0  0  0  0
  188.9320  177.6290  146.6000 C   0  0  0  0  0  0  0  0  0  0  0  0
  189.4280  177.7180  145.1750 C   0  0  2  0  0  3  0  0  0  0  0  0
  189.8930  177.3480  147.6760 C   0  0  0  0  0  3  0  0  0  0  0  0
  184.3050  178.9860  145.5020 C   0  0  0  0  0  3  0  0  0  0  0  0
  183.9860  178.7540  144.2330 C   0  0  0  0  0  0  0  0  0  0  0  0
  184.7890  178.0100  143.2610 C   0  0  0  0  0  3  0  0  0  0  0  0
  186.6760  178.1230  145.8300 C   0  0  1  0  0  3  0  0  0  0  0  0
  186.0520  177.6110  143.3410 C   0  0  0  0  0  3  0  0  0  0  0  0
  187.0430  177.7740  144.4250 C   0  0  0  0  0  0  0  0  0  0  0  0
  182.6470  179.2160  143.7760 C   0  0  0  0  0  2  0  0  0  0  0  0
  182.4190  178.7880  142.4680 O   0  0  0  0  0  1  0  0  0  0  0  0
  188.7790  177.1480  142.7390 C   0  0  0  0  0  2  0  0  0  0  0  0
  189.1020  178.6730  137.9660 C   0  0  0  0  0  2  0  0  0  0  0  0
  189.5300  176.7270  140.0810 N   0  0  0  0  0  0  0  0  0  0  0  0
  191.5100  176.0620  136.4500 C   0  0  2  0  0  0  0  0  0  0  0  0
  188.3930  178.2640  141.7740 C   0  0  2  0  0  3  0  0  0  0  0  0
  192.8100  176.3880  136.8520 O   0  0  0  0  0  1  0  0  0  0  0  0
  190.6180  177.2570  136.6670 C   0  0  0  0  0  3  0  0  0  0  0  0
  190.0040  177.4820  137.8300 C   0  0  0  0  0  0  0  0  0  0  0  0
  187.3570  177.7390  140.7800 C   0  0  0  0  0  2  0  0  0  0  0  0
  190.8890  175.2320  138.7550 C   0  0  0  0  0  2  0  0  0  0  0  0
  190.0820  176.4850  138.9300 C   0  0  0  0  0  0  0  0  0  0  0  0
  191.0150  174.8670  137.2750 C   0  0  0  0  0  2  0  0  0  0  0  0
  188.7810  177.9580  140.3360 C   0  0  2  0  0  0  0  0  0  0  0  0
  189.0320  179.1470  139.4160 C   0  0  0  0  0  2  0  0  0  0  0  0
  191.5000  175.7030  134.9930 C   0  0  0  0  0  0  0  0  0  0  0  0
  192.6870  175.3660  134.3520 O   0  0  0  0  0  1  0  0  0  0  0  0
  190.4190  175.6710  134.3460 O   0  0  0  0  0  0  0  0  0  0  0  0
  1 18  1  6  0  0  0
  1 15  1  0  0  0  0
  1  8  1  0  0  0  0
  4  6  2  0  0  0  0
  5  9  2  0  0  0  0
  6  5  1  0  0  0  0
  7  3  2  0  0  0  0
  7  9  1  0  0  0  0
  8  4  1  1  0  0  0
  8  7  1  0  0  0  0
 10  2  2  0  0  0  0
 11 10  1  0  0  0  0
 12 14  1  0  0  0  0
 12 11  2  0  0  0  0
 13  2  1  1  0  0  0
 13  3  1  0  0  0  0
 14 15  2  0  0  0  0
 15 13  1  0  0  0  0
 16 11  1  0  0  0  0
 17 16  1  0  0  0  0
 19 31  1  0  0  0  0
 20 30  1  0  0  0  0
 21 24  1  0  0  0  0
 21 23  1  1  0  0  0
 21 29  1  0  0  0  0
 22 18  1  1  0  0  0
 24 25  2  0  0  0  0
 25 19  1  0  0  0  0
 25 28  1  0  0  0  0
 26 22  1  0  0  0  0
 27 28  1  0  0  0  0
 28 20  2  0  0  0  0
 29 27  1  0  0  0  0
 30 31  1  6  0  0  0
 30 26  1  0  0  0  0
 30 22  1  0  0  0  0
 32 21  1  0  0  0  0
 33 32  1  0  0  0  0
 34 32  2  0  0  0  0
M  END
>  <MODEL>
4

>  <REMARK>
 VINA RESULT:      -9.8      1.461      2.222
  Name = 
  4 active torsions:
  status: ('A' for Active; 'I' for Inactive)
    1  A    between atoms: C_1  and  C_9
    2  A    between atoms: C_3  and  C_25
    3  A    between atoms: C_7  and  C_11
    4  A    between atoms: C_8  and  C_9
                            x       y       z     vdW  Elec       q    Type
                         _______ _______ _______ _____ _____    ______ ____

>  <TORSDO>
F 4

$$$$
=
 OpenBabel10272415133D

 34 39  0  0  1  0  0  0  0  0999 V2000
  188.3070  178.4060  142.0420 C   0  0  1  0  0  3  0  0  0  0  0  0
  186.0510  177.6520  144.8800 C   0  0  0  0  0  3  0  0  0  0  0  0
  188.2970  177.0070  144.5400 C   0  0  0  0  0  3  0  0  0  0  0  0
  190.7630  177.7810  141.8770 C   0  0  0  0  0  3  0  0  0  0  0  0
  191.7440  176.3840  143.6400 C   0  0  0  0  0  3  0  0  0  0  0  0
  191.7690  177.0070  142.3010 C   0  0  0  0  0  3  0  0  0  0  0  0
  189.4600  177.1560  143.9200 C   0  0  0  0  0  0  0  0  0  0  0  0
  189.6050  178.1380  142.7800 C   0  0  2  0  0  3  0  0  0  0  0  0
  190.6500  176.4410  144.4030 C   0  0  0  0  0  3  0  0  0  0  0  0
  184.6970  178.1950  144.7470 C   0  0  0  0  0  2  0  0  0  0  0  0
  184.0880  178.7110  143.6840 C   0  0  0  0  0  0  0  0  0  0  0  0
  184.6440  178.8100  142.3330 C   0  0  0  0  0  3  0  0  0  0  0  0
  187.0840  177.6680  144.0390 C   0  0  0  0  0  0  0  0  0  0  0  0
  185.8920  178.6330  141.9200 C   0  0  0  0  0  3  0  0  0  0  0  0
  187.1100  178.2720  142.6740 C   0  0  0  0  0  0  0  0  0  0  0  0
  182.6760  179.1490  143.8580 C   0  0  0  0  0  2  0  0  0  0  0  0
  181.9680  178.9460  142.6730 O   0  0  0  0  0  1  0  0  0  0  0  0
  188.4020  179.0240  140.6710 C   0  0  0  0  0  2  0  0  0  0  0  0
  186.8650  176.2080  136.8090 C   0  0  0  0  0  2  0  0  0  0  0  0
  186.4500  178.2580  138.8260 N   0  0  0  0  0  0  0  0  0  0  0  0
  183.0570  176.8460  136.8160 C   0  0  2  0  0  0  0  0  0  0  0  0
  188.8510  177.9860  139.6490 C   0  0  2  0  0  3  0  0  0  0  0  0
  182.4930  176.0910  137.8500 O   0  0  0  0  0  1  0  0  0  0  0  0
  184.4370  176.3190  136.5220 C   0  0  0  0  0  3  0  0  0  0  0  0
  185.5160  176.7520  137.1770 C   0  0  0  0  0  0  0  0  0  0  0  0
  188.8540  178.6140  138.2550 C   0  0  0  0  0  2  0  0  0  0  0  0
  184.0780  178.5000  138.4320 C   0  0  0  0  0  2  0  0  0  0  0  0
  185.4100  177.8720  138.1490 C   0  0  0  0  0  0  0  0  0  0  0  0
  183.1260  178.3160  137.2490 C   0  0  0  0  0  2  0  0  0  0  0  0
  187.7660  177.6450  138.6410 C   0  0  2  0  0  0  0  0  0  0  0  0
  187.8230  176.2650  137.9970 C   0  0  0  0  0  2  0  0  0  0  0  0
  182.2150  176.7280  135.5790 C   0  0  0  0  0  0  0  0  0  0  0  0
  182.7350  177.1060  134.3460 O   0  0  0  0  0  0  0  0  0  0  0  0
  181.0480  176.2570  135.6380 O   0  0  0  0  0  1  0  0  0  0  0  0
  1 18  1  1  0  0  0
  1 15  1  0  0  0  0
  1  8  1  0  0  0  0
  4  6  2  0  0  0  0
  5  9  2  0  0  0  0
  6  5  1  0  0  0  0
  7  9  1  0  0  0  0
  7  3  2  0  0  0  0
  8  4  1  6  0  0  0
  8  7  1  0  0  0  0
 10  2  1  0  0  0  0
 11 16  1  0  0  0  0
 11 10  1  0  0  0  0
 12 11  2  0  0  0  0
 13  3  1  0  0  0  0
 13  2  2  0  0  0  0
 14 12  1  0  0  0  0
 14 15  2  0  0  0  0
 15 13  1  0  0  0  0
 17 16  1  0  0  0  0
 19 25  1  0  0  0  0
 19 31  1  0  0  0  0
 21 29  1  0  0  0  0
 21 23  1  1  0  0  0
 22 18  1  1  0  0  0
 24 21  1  0  0  0  0
 24 25  2  0  0  0  0
 25 28  1  0  0  0  0
 26 30  1  0  0  0  0
 26 22  1  0  0  0  0
 28 27  1  0  0  0  0
 28 20  2  0  0  0  0
 29 27  1  0  0  0  0
 30 31  1  6  0  0  0
 30 20  1  0  0  0  0
 30 22  1  0  0  0  0
 32 34  1  0  0  0  0
 32 21  1  0  0  0  0
 33 32  2  0  0  0  0
M  END
>  <MODEL>
5

>  <REMARK>
 VINA RESULT:      -9.4      3.742      5.763
  Name = 
  4 active torsions:
  status: ('A' for Active; 'I' for Inactive)
    1  A    between atoms: C_1  and  C_9
    2  A    between atoms: C_3  and  C_25
    3  A    between atoms: C_7  and  C_11
    4  A    between atoms: C_8  and  C_9
                            x       y       z     vdW  Elec       q    Type
                         _______ _______ _______ _____ _____    ______ ____

>  <TORSDO>
F 4

$$$$
=
 OpenBabel10272415133D

 34 39  0  0  1  0  0  0  0  0999 V2000
  187.1370  177.7700  142.4580 C   0  0  1  0  0  3  0  0  0  0  0  0
  189.8000  177.8070  145.0300 C   0  0  0  0  0  3  0  0  0  0  0  0
  189.9900  177.6890  142.6800 C   0  0  0  0  0  3  0  0  0  0  0  0
  187.4870  177.8030  139.9430 C   0  0  0  0  0  3  0  0  0  0  0  0
  189.7750  177.6530  139.0700 C   0  0  0  0  0  3  0  0  0  0  0  0
  188.3080  177.5920  138.9070 C   0  0  0  0  0  3  0  0  0  0  0  0
  189.4680  177.8420  141.4700 C   0  0  0  0  0  0  0  0  0  0  0  0
  188.0120  178.2100  141.3000 C   0  0  2  0  0  3  0  0  0  0  0  0
  190.3280  177.7570  140.2810 C   0  0  0  0  0  3  0  0  0  0  0  0
  189.3160  177.8590  146.4130 C   0  0  0  0  0  2  0  0  0  0  0  0
  188.0920  177.6660  146.8920 C   0  0  0  0  0  0  0  0  0  0  0  0
  186.9080  177.2910  146.1170 C   0  0  0  0  0  3  0  0  0  0  0  0
  189.1390  177.7140  143.8780 C   0  0  0  0  0  0  0  0  0  0  0  0
  186.7300  177.2810  144.8020 C   0  0  0  0  0  3  0  0  0  0  0  0
  187.6590  177.6270  143.7060 C   0  0  0  0  0  0  0  0  0  0  0  0
  187.9220  177.7510  148.3690 C   0  0  0  0  0  2  0  0  0  0  0  0
  189.0290  178.3830  148.9370 O   0  0  0  0  0  1  0  0  0  0  0  0
  185.6490  177.7110  142.2210 C   0  0  0  0  0  2  0  0  0  0  0  0
  182.7820  179.6180  138.5660 C   0  0  0  0  0  2  0  0  0  0  0  0
  183.8430  177.3980  140.1130 N   0  0  0  0  0  0  0  0  0  0  0  0
  181.8300  176.4580  136.5610 C   0  0  2  0  0  0  0  0  0  0  0  0
  185.1580  179.0100  141.5930 C   0  0  2  0  0  3  0  0  0  0  0  0
  182.9310  176.0920  135.7800 O   0  0  0  0  0  1  0  0  0  0  0  0
  182.0100  177.8800  137.0260 C   0  0  0  0  0  3  0  0  0  0  0  0
  182.6700  178.1820  138.1460 C   0  0  0  0  0  0  0  0  0  0  0  0
  183.6620  179.1700  141.8620 C   0  0  0  0  0  2  0  0  0  0  0  0
  182.9380  175.6660  138.6910 C   0  0  0  0  0  2  0  0  0  0  0  0
  183.1540  177.1070  139.0510 C   0  0  0  0  0  0  0  0  0  0  0  0
  181.7310  175.5110  137.7640 C   0  0  0  0  0  2  0  0  0  0  0  0
  184.1410  178.7810  140.4870 C   0  0  2  0  0  0  0  0  0  0  0  0
  184.0390  179.8490  139.4030 C   0  0  0  0  0  2  0  0  0  0  0  0
  180.5720  176.3660  135.7480 C   0  0  0  0  0  0  0  0  0  0  0  0
  179.9820  175.1280  135.5180 O   0  0  0  0  0  1  0  0  0  0  0  0
  180.0220  177.4050  135.2940 O   0  0  0  0  0  0  0  0  0  0  0  0
  1 18  1  1  0  0  0
  1 15  1  0  0  0  0
  2 10  1  0  0  0  0
  3 13  1  0  0  0  0
  5  9  2  0  0  0  0
  6  5  1  0  0  0  0
  6  4  2  0  0  0  0
  7  3  2  0  0  0  0
  8  4  1  6  0  0  0
  8  7  1  0  0  0  0
  8  1  1  0  0  0  0
  9  7  1  0  0  0  0
 10 11  1  0  0  0  0
 11 16  1  0  0  0  0
 12 11  2  0  0  0  0
 13  2  2  0  0  0  0
 14 12  1  0  0  0  0
 15 13  1  0  0  0  0
 15 14  2  0  0  0  0
 16 17  1  0  0  0  0
 19 31  1  0  0  0  0
 20 30  1  0  0  0  0
 21 23  1  6  0  0  0
 21 24  1  0  0  0  0
 21 29  1  0  0  0  0
 22 26  1  0  0  0  0
 22 18  1  1  0  0  0
 24 25  2  0  0  0  0
 25 19  1  0  0  0  0
 25 28  1  0  0  0  0
 27 28  1  0  0  0  0
 28 20  2  0  0  0  0
 29 27  1  0  0  0  0
 30 31  1  6  0  0  0
 30 22  1  0  0  0  0
 30 26  1  0  0  0  0
 32 21  1  0  0  0  0
 33 32  1  0  0  0  0
 34 32  2  0  0  0  0
M  END
>  <MODEL>
6

>  <REMARK>
 VINA RESULT:      -9.1      4.169      7.894
  Name = 
  4 active torsions:
  status: ('A' for Active; 'I' for Inactive)
    1  A    between atoms: C_1  and  C_9
    2  A    between atoms: C_3  and  C_25
    3  A    between atoms: C_7  and  C_11
    4  A    between atoms: C_8  and  C_9
                            x       y       z     vdW  Elec       q    Type
                         _______ _______ _______ _____ _____    ______ ____

>  <TORSDO>
F 4

$$$$
=
 OpenBabel10272415133D

 34 39  0  0  1  0  0  0  0  0999 V2000
  187.8440  177.9110  138.7990 C   0  0  1  0  0  3  0  0  0  0  0  0
  189.8570  175.7690  136.5460 C   0  0  0  0  0  3  0  0  0  0  0  0
  187.5310  176.1750  136.5430 C   0  0  0  0  0  3  0  0  0  0  0  0
  185.3590  178.3880  138.5820 C   0  0  0  0  0  3  0  0  0  0  0  0
  184.0770  177.2010  136.8590 C   0  0  0  0  0  3  0  0  0  0  0  0
  184.1720  178.0250  138.0810 C   0  0  0  0  0  3  0  0  0  0  0  0
  186.4850  176.9030  136.9130 C   0  0  0  0  0  0  0  0  0  0  0  0
  186.6520  178.0590  137.8720 C   0  0  2  0  0  3  0  0  0  0  0  0
  185.1670  176.6570  136.3120 C   0  0  0  0  0  3  0  0  0  0  0  0
  191.2880  175.7270  136.8590 C   0  0  0  0  0  3  0  0  0  0  0  0
  191.9350  176.1450  137.9420 C   0  0  0  0  0  0  0  0  0  0  0  0
  191.3270  176.7210  139.1430 C   0  0  0  0  0  3  0  0  0  0  0  0
  188.8450  176.3670  137.1720 C   0  0  1  0  0  3  0  0  0  0  0  0
  190.0880  177.1530  139.3360 C   0  0  0  0  0  3  0  0  0  0  0  0
  188.9290  177.1810  138.4210 C   0  0  0  0  0  0  0  0  0  0  0  0
  193.4070  175.9260  137.9790 C   0  0  0  0  0  2  0  0  0  0  0  0
  194.0080  176.5750  136.9000 O   0  0  0  0  0  1  0  0  0  0  0  0
  187.8710  178.7670  140.0390 C   0  0  0  0  0  2  0  0  0  0  0  0
  187.4980  177.0120  144.7280 C   0  0  0  0  0  2  0  0  0  0  0  0
  188.9940  178.1830  142.5290 N   0  0  0  0  0  0  0  0  0  0  0  0
  191.2040  176.7230  145.7740 C   0  0  2  0  0  0  0  0  0  0  0  0
  186.8940  178.2290  141.0780 C   0  0  2  0  0  3  0  0  0  0  0  0
  191.7360  175.5770  145.1740 O   0  0  0  0  0  1  0  0  0  0  0  0
  189.7010  176.6460  145.7320 C   0  0  0  0  0  3  0  0  0  0  0  0
  188.9960  177.0900  144.6890 C   0  0  0  0  0  0  0  0  0  0  0  0
  186.7550  179.2410  142.2150 C   0  0  0  0  0  2  0  0  0  0  0  0
  191.1590  177.9830  143.5830 C   0  0  0  0  0  2  0  0  0  0  0  0
  189.6710  177.7980  143.5690 C   0  0  0  0  0  0  0  0  0  0  0  0
  191.6980  177.9620  145.0150 C   0  0  0  0  0  2  0  0  0  0  0  0
  187.5480  177.9770  142.4260 C   0  0  2  0  0  0  0  0  0  0  0  0
  186.9160  176.9170  143.3200 C   0  0  0  0  0  2  0  0  0  0  0  0
  191.6490  176.8050  147.2050 C   0  0  0  0  0  0  0  0  0  0  0  0
  190.9290  177.5730  148.1140 O   0  0  0  0  0  1  0  0  0  0  0  0
  192.6530  176.1560  147.6050 O   0  0  0  0  0  0  0  0  0  0  0  0
  1 18  1  6  0  0  0
  2 10  2  0  0  0  0
  2 13  1  0  0  0  0
  3  7  2  0  0  0  0
  5  6  1  0  0  0  0
  6  4  2  0  0  0  0
  7  8  1  0  0  0  0
  8  4  1  1  0  0  0
  8  1  1  0  0  0  0
  9  5  2  0  0  0  0
  9  7  1  0  0  0  0
 10 11  1  0  0  0  0
 11 16  1  0  0  0  0
 11 12  2  0  0  0  0
 12 14  1  0  0  0  0
 13  3  1  1  0  0  0
 13 15  1  0  0  0  0
 15  1  1  0  0  0  0
 15 14  2  0  0  0  0
 17 16  1  0  0  0  0
 20 28  2  0  0  0  0
 21 23  1  6  0  0  0
 21 32  1  0  0  0  0
 22 18  1  6  0  0  0
 22 26  1  0  0  0  0
 22 30  1  0  0  0  0
 24 21  1  0  0  0  0
 25 19  1  0  0  0  0
 25 24  2  0  0  0  0
 27 29  1  0  0  0  0
 28 27  1  0  0  0  0
 28 25  1  0  0  0  0
 29 21  1  0  0  0  0
 30 26  1  1  0  0  0
 30 20  1  0  0  0  0
 30 31  1  0  0  0  0
 31 19  1  0  0  0  0
 32 34  2  0  0  0  0
 32 33  1  0  0  0  0
M  END
>  <MODEL>
7

>  <REMARK>
 VINA RESULT:      -9.1      3.691      8.733
  Name = 
  4 active torsions:
  status: ('A' for Active; 'I' for Inactive)
    1  A    between atoms: C_1  and  C_9
    2  A    between atoms: C_3  and  C_25
    3  A    between atoms: C_7  and  C_11
    4  A    between atoms: C_8  and  C_9
                            x       y       z     vdW  Elec       q    Type
                         _______ _______ _______ _____ _____    ______ ____

>  <TORSDO>
F 4

$$$$
=
 OpenBabel10272415133D

 34 39  0  0  1  0  0  0  0  0999 V2000
  188.8870  178.0690  144.3410 C   0  0  1  0  0  3  0  0  0  0  0  0
  185.8410  177.8080  146.4300 C   0  0  0  0  0  3  0  0  0  0  0  0
  188.0210  177.0080  146.8560 C   0  0  0  0  0  3  0  0  0  0  0  0
  191.2190  177.3020  144.9940 C   0  0  0  0  0  3  0  0  0  0  0  0
  191.5120  176.0960  147.1110 C   0  0  0  0  0  3  0  0  0  0  0  0
  191.9840  176.5370  145.7830 C   0  0  0  0  0  3  0  0  0  0  0  0
  189.3240  177.0150  146.6030 C   0  0  0  0  0  0  0  0  0  0  0  0
  189.8830  177.8320  145.4610 C   0  0  2  0  0  3  0  0  0  0  0  0
  190.2510  176.3080  147.4970 C   0  0  0  0  0  3  0  0  0  0  0  0
  184.6390  178.4000  145.8360 C   0  0  0  0  0  3  0  0  0  0  0  0
  184.4170  178.8040  144.5900 C   0  0  0  0  0  0  0  0  0  0  0  0
  185.3510  178.6980  143.4670 C   0  0  0  0  0  3  0  0  0  0  0  0
  187.0720  177.6610  145.9440 C   0  0  1  0  0  3  0  0  0  0  0  0
  186.6450  178.4050  143.4720 C   0  0  0  0  0  3  0  0  0  0  0  0
  187.5500  178.0810  144.5930 C   0  0  0  0  0  0  0  0  0  0  0  0
  183.0610  179.3340  144.2820 C   0  0  0  0  0  2  0  0  0  0  0  0
  182.6020  178.7900  143.0810 O   0  0  0  0  0  1  0  0  0  0  0  0
  189.4350  178.4990  143.0040 C   0  0  0  0  0  2  0  0  0  0  0  0
  190.4590  175.8540  138.8610 C   0  0  0  0  0  2  0  0  0  0  0  0
  189.0350  177.9420  140.2970 N   0  0  0  0  0  0  0  0  0  0  0  0
  187.5760  176.8950  136.5120 C   0  0  2  0  0  0  0  0  0  0  0  0
  190.3400  177.4170  142.4270 C   0  0  2  0  0  3  0  0  0  0  0  0
  186.4240  176.2070  136.9080 O   0  0  0  0  0  1  0  0  0  0  0  0
  188.7800  176.2230  137.1180 C   0  0  0  0  0  3  0  0  0  0  0  0
  189.2330  176.5400  138.3330 C   0  0  0  0  0  0  0  0  0  0  0  0
  191.2770  178.0380  141.3910 C   0  0  0  0  0  2  0  0  0  0  0  0
  187.4790  178.4340  138.5150 C   0  0  0  0  0  2  0  0  0  0  0  0
  188.6310  177.6670  139.0930 C   0  0  0  0  0  0  0  0  0  0  0  0
  187.4800  178.3510  136.9870 C   0  0  0  0  0  2  0  0  0  0  0  0
  190.1140  177.1910  140.9410 C   0  0  2  0  0  0  0  0  0  0  0  0
  190.4490  175.8110  140.3880 C   0  0  0  0  0  2  0  0  0  0  0  0
  187.7010  176.8650  135.0170 C   0  0  0  0  0  0  0  0  0  0  0  0
  187.8040  175.6470  134.3520 O   0  0  0  0  0  1  0  0  0  0  0  0
  187.6820  177.9330  134.3480 O   0  0  0  0  0  0  0  0  0  0  0  0
  1 18  1  1  0  0  0
  1 15  1  0  0  0  0
  1  8  1  0  0  0  0
  4  6  2  0  0  0  0
  5  9  2  0  0  0  0
  6  5  1  0  0  0  0
  7  3  2  0  0  0  0
  7  9  1  0  0  0  0
  8  4  1  6  0  0  0
  8  7  1  0  0  0  0
 10  2  2  0  0  0  0
 11 10  1  0  0  0  0
 12 14  1  0  0  0  0
 12 11  2  0  0  0  0
 13  2  1  6  0  0  0
 13  3  1  0  0  0  0
 14 15  2  0  0  0  0
 15 13  1  0  0  0  0
 16 11  1  0  0  0  0
 17 16  1  0  0  0  0
 19 31  1  0  0  0  0
 20 30  1  0  0  0  0
 21 23  1  1  0  0  0
 21 29  1  0  0  0  0
 21 24  1  0  0  0  0
 22 18  1  6  0  0  0
 24 25  2  0  0  0  0
 25 19  1  0  0  0  0
 25 28  1  0  0  0  0
 26 22  1  0  0  0  0
 27 28  1  0  0  0  0
 28 20  2  0  0  0  0
 29 27  1  0  0  0  0
 30 31  1  6  0  0  0
 30 26  1  0  0  0  0
 30 22  1  0  0  0  0
 32 21  1  0  0  0  0
 33 32  1  0  0  0  0
 34 32  2  0  0  0  0
M  END
>  <MODEL>
8

>  <REMARK>
 VINA RESULT:      -9.1      2.259      3.173
  Name = 
  4 active torsions:
  status: ('A' for Active; 'I' for Inactive)
    1  A    between atoms: C_1  and  C_9
    2  A    between atoms: C_3  and  C_25
    3  A    between atoms: C_7  and  C_11
    4  A    between atoms: C_8  and  C_9
                            x       y       z     vdW  Elec       q    Type
                         _______ _______ _______ _____ _____    ______ ____

>  <TORSDO>
F 4

$$$$
=
 OpenBabel10272415133D

 34 39  0  0  1  0  0  0  0  0999 V2000
  188.8140  177.9340  143.1440 C   0  0  1  0  0  3  0  0  0  0  0  0
  188.7000  176.9840  146.7210 C   0  0  0  0  0  3  0  0  0  0  0  0
  186.9960  177.8810  145.3560 C   0  0  0  0  0  3  0  0  0  0  0  0
  186.8510  178.7420  141.7490 C   0  0  0  0  0  3  0  0  0  0  0  0
  184.6980  179.1320  142.8580 C   0  0  0  0  0  3  0  0  0  0  0  0
  185.6230  179.2720  141.7150 C   0  0  0  0  0  3  0  0  0  0  0  0
  186.5010  178.1540  144.1550 C   0  0  0  0  0  0  0  0  0  0  0  0
  187.3150  177.8920  142.9090 C   0  0  2  0  0  3  0  0  0  0  0  0
  185.1130  178.6160  144.0180 C   0  0  0  0  0  3  0  0  0  0  0  0
  189.9650  176.4800  147.2610 C   0  0  0  0  0  2  0  0  0  0  0  0
  191.1890  176.5240  146.7440 C   0  0  0  0  0  0  0  0  0  0  0  0
  191.5710  177.1610  145.4820 C   0  0  0  0  0  3  0  0  0  0  0  0
  188.3970  177.4720  145.5200 C   0  0  0  0  0  0  0  0  0  0  0  0
  190.8030  177.6160  144.5010 C   0  0  0  0  0  3  0  0  0  0  0  0
  189.3320  177.6400  144.3670 C   0  0  0  0  0  0  0  0  0  0  0  0
  192.2920  175.9520  147.5630 C   0  0  0  0  0  2  0  0  0  0  0  0
  192.6530  176.8530  148.5650 O   0  0  0  0  0  1  0  0  0  0  0  0
  189.7020  178.0990  141.9380 C   0  0  0  0  0  2  0  0  0  0  0  0
  189.9750  176.6130  137.1490 C   0  0  0  0  0  2  0  0  0  0  0  0
  191.1100  176.9840  139.7980 N   0  0  0  0  0  0  0  0  0  0  0  0
  193.7680  176.0530  136.6980 C   0  0  2  0  0  0  0  0  0  0  0  0
  188.8960  177.9220  140.6560 C   0  0  2  0  0  3  0  0  0  0  0  0
  194.3770  177.3040  136.5530 O   0  0  0  0  0  1  0  0  0  0  0  0
  192.2880  176.1990  136.4640 C   0  0  0  0  0  3  0  0  0  0  0  0
  191.4420  176.5170  137.4460 C   0  0  0  0  0  0  0  0  0  0  0  0
  188.7410  176.4310  140.3560 C   0  0  0  0  0  2  0  0  0  0  0  0
  193.3710  176.4090  139.1690 C   0  0  0  0  0  2  0  0  0  0  0  0
  191.9210  176.6220  138.8500 C   0  0  0  0  0  0  0  0  0  0  0  0
  194.0370  175.5240  138.1130 C   0  0  0  0  0  2  0  0  0  0  0  0
  189.6970  177.2660  139.5430 C   0  0  2  0  0  0  0  0  0  0  0  0
  189.2810  177.5770  138.1100 C   0  0  0  0  0  2  0  0  0  0  0  0
  194.3290  175.0920  135.6900 C   0  0  0  0  0  0  0  0  0  0  0  0
  193.4940  174.5150  134.7400 O   0  0  0  0  0  0  0  0  0  0  0  0
  195.5600  174.8230  135.6730 O   0  0  0  0  0  1  0  0  0  0  0  0
  1 18  1  6  0  0  0
  1 15  1  0  0  0  0
  2 10  1  0  0  0  0
  3 13  1  0  0  0  0
  5  9  2  0  0  0  0
  6  4  2  0  0  0  0
  6  5  1  0  0  0  0
  7  3  2  0  0  0  0
  8  4  1  6  0  0  0
  8  1  1  0  0  0  0
  8  7  1  0  0  0  0
  9  7  1  0  0  0  0
 11 10  1  0  0  0  0
 11 16  1  0  0  0  0
 12 11  2  0  0  0  0
 13  2  2  0  0  0  0
 14 12  1  0  0  0  0
 15 14  2  0  0  0  0
 15 13  1  0  0  0  0
 16 17  1  0  0  0  0
 19 25  1  0  0  0  0
 19 31  1  0  0  0  0
 21 23  1  6  0  0  0
 21 29  1  0  0  0  0
 22 18  1  1  0  0  0
 24 21  1  0  0  0  0
 24 25  2  0  0  0  0
 25 28  1  0  0  0  0
 26 22  1  0  0  0  0
 28 27  1  0  0  0  0
 28 20  2  0  0  0  0
 29 27  1  0  0  0  0
 30 31  1  6  0  0  0
 30 20  1  0  0  0  0
 30 26  1  0  0  0  0
 30 22  1  0  0  0  0
 32 21  1  0  0  0  0
 33 32  2  0  0  0  0
 34 32  1  0  0  0  0
M  END
>  <MODEL>
9

>  <REMARK>
 VINA RESULT:      -9.0      2.782      5.368
  Name = 
  4 active torsions:
  status: ('A' for Active; 'I' for Inactive)
    1  A    between atoms: C_1  and  C_9
    2  A    between atoms: C_3  and  C_25
    3  A    between atoms: C_7  and  C_11
    4  A    between atoms: C_8  and  C_9
                            x       y       z     vdW  Elec       q    Type
                         _______ _______ _______ _____ _____    ______ ____

>  <TORSDO>
F 4

$$$$
