=
 OpenBabel10272400103D

 34 36  0  0  1  0  0  0  0  0999 V2000
  189.4370  177.3570  142.4550 C   0  0  1  0  0  3  0  0  0  0  0  0
  190.4070  177.8680  143.5100 C   0  0  2  0  0  3  0  0  0  0  0  0
  189.8800  177.6080  145.6360 N   0  0  0  0  0  0  0  0  0  0  0  0
  188.7730  178.1480  147.5950 O   0  0  0  0  0  0  0  0  0  0  0  0
  190.6620  176.8790  147.8630 O   0  0  0  0  0  0  0  0  0  0  0  0
  192.7380  176.0160  148.2880 O   0  0  0  0  0  0  0  0  0  0  0  0
  190.5570  176.8470  144.5850 C   0  0  2  0  0  3  0  0  0  0  0  0
  189.7290  177.5370  147.0500 C   0  0  0  0  0  0  0  0  0  0  0  0
  191.9820  175.5730  146.0940 C   0  0  0  0  0  2  0  0  0  0  0  0
  191.8170  176.1930  147.4480 C   0  0  0  0  0  0  0  0  0  0  0  0
  191.9950  176.6060  144.9850 C   0  0  0  0  0  2  0  0  0  0  0  0
  189.6570  178.6010  144.5750 C   0  0  0  0  0  2  0  0  0  0  0  0
  190.1380  176.5250  141.4880 N   0  0  0  0  0  2  0  0  0  0  0  0
  190.0890  176.7850  140.0830 C   0  0  0  0  0  0  0  0  0  0  0  0
  190.6600  175.9960  139.2870 O   0  0  0  0  0  0  0  0  0  0  0  0
  189.4170  178.0060  139.5510 C   0  0  0  0  0  2  0  0  0  0  0  0
  188.1080  177.6130  138.8890 C   0  0  0  0  0  2  0  0  0  0  0  0
  185.4610  177.6730  137.5650 C   0  0  0  0  0  1  0  0  0  0  0  0
  187.9040  178.3860  137.5860 C   0  0  2  0  0  3  0  0  0  0  0  0
  186.7380  177.8220  136.7550 C   0  0  1  0  0  3  0  0  0  0  0  0
  188.2480  176.6850  135.2740 O   0  0  0  0  0  0  0  0  0  0  0  0
  189.3510  176.9710  136.0990 C   0  0  0  0  0  2  0  0  0  0  0  0
  189.1850  178.3520  136.7440 C   0  0  0  0  0  2  0  0  0  0  0  0
  187.1410  176.4890  136.1190 C   0  0  0  0  0  2  0  0  0  0  0  0
  188.1060  176.3870  143.2310 S   0  0  0  0  0  0  0  0  0  0  0  0
  186.9020  177.7430  143.0840 C   0  0  0  0  0  2  0  0  0  0  0  0
  186.0060  177.8020  144.3180 C   0  0  0  0  0  2  0  0  0  0  0  0
  184.9080  178.8720  144.2300 C   0  0  1  0  0  3  0  0  0  0  0  0
  183.9260  179.0310  142.0230 O   0  0  0  0  0  1  0  0  0  0  0  0
  182.4210  178.9530  143.8740 C   0  0  0  0  0  1  0  0  0  0  0  0
  183.7500  178.4970  143.3020 C   0  0  2  0  0  3  0  0  0  0  0  0
  184.4300  179.2300  145.4940 O   0  0  0  0  0  0  0  0  0  0  0  0
  185.3040  178.6220  146.3980 C   0  0  0  0  0  2  0  0  0  0  0  0
  185.7190  179.5610  147.3420 O   0  0  0  0  0  1  0  0  0  0  0  0
  1 13  1  6  0  0  0
  1 25  1  0  0  0  0
  2  1  1  6  0  0  0
  2 12  1  0  0  0  0
  2  7  1  0  0  0  0
  3  8  1  0  0  0  0
  7 11  1  1  0  0  0
  7  3  1  0  0  0  0
  8  4  2  0  0  0  0
  8  5  1  0  0  0  0
  9 10  1  0  0  0  0
 10  5  1  0  0  0  0
 10  6  2  0  0  0  0
 11  9  1  0  0  0  0
 12  3  1  0  0  0  0
 14 13  1  0  0  0  0
 15 14  2  0  0  0  0
 16 14  1  0  0  0  0
 17 16  1  0  0  0  0
 19 17  1  1  0  0  0
 20 18  1  1  0  0  0
 20 19  1  0  0  0  0
 21 22  1  0  0  0  0
 21 24  1  0  0  0  0
 22 23  1  0  0  0  0
 23 19  1  0  0  0  0
 24 20  1  0  0  0  0
 26 25  1  0  0  0  0
 26 27  1  0  0  0  0
 28 27  1  1  0  0  0
 28 32  1  0  0  0  0
 29 31  1  0  0  0  0
 31 30  1  1  0  0  0
 31 28  1  0  0  0  0
 32 33  1  0  0  0  0
 33 34  1  0  0  0  0
M  END
>  <MODEL>
1

>  <REMARK>
 VINA RESULT:      -7.8      0.000      0.000
  Name = 
  12 active torsions:
  status: ('A' for Active; 'I' for Inactive)
    1  A    between atoms: O_1  and  C_15
    2  A    between atoms: O_1  and  C_24
    3  A    between atoms: C_2  and  C_15
    4  A    between atoms: C_2  and  C_25
    5  A    between atoms: C_3  and  C_13
    6  A    between atoms: C_3  and  C_17
    7  A    between atoms: C_4  and  C_31
    8  A    between atoms: N_5  and  C_31
    9  A    between atoms: S_10  and  C_25
   10  A    between atoms: S_10  and  C_31
   11  A    between atoms: C_15  and  C_19
   12  A    between atoms: C_17  and  C_18
                            x       y       z     vdW  Elec       q    Type
                         _______ _______ _______ _____ _____    ______ ____

>  <TORSDO>
F 12

$$$$
=
 OpenBabel10272400103D

 34 36  0  0  1  0  0  0  0  0999 V2000
  189.7660  176.9630  141.6510 C   0  0  1  0  0  3  0  0  0  0  0  0
  188.9950  178.1880  142.1210 C   0  0  2  0  0  3  0  0  0  0  0  0
  186.9510  178.5000  141.3550 N   0  0  0  0  0  0  0  0  0  0  0  0
  185.3880  179.1550  139.7800 O   0  0  0  0  0  0  0  0  0  0  0  0
  184.6100  179.0390  141.9320 O   0  0  0  0  0  0  0  0  0  0  0  0
  183.8500  179.3940  144.0600 O   0  0  0  0  0  0  0  0  0  0  0  0
  187.5990  177.7970  142.4620 C   0  0  2  0  0  3  0  0  0  0  0  0
  185.6290  178.8800  140.9830 C   0  0  0  0  0  0  0  0  0  0  0  0
  185.6890  177.9140  143.9690 C   0  0  0  0  0  2  0  0  0  0  0  0
  184.7000  178.8350  143.3200 C   0  0  0  0  0  0  0  0  0  0  0  0
  187.1200  178.3750  143.7740 C   0  0  0  0  0  2  0  0  0  0  0  0
  188.3240  178.8420  140.9550 C   0  0  0  0  0  2  0  0  0  0  0  0
  191.0490  177.3610  141.0890 N   0  0  0  0  0  2  0  0  0  0  0  0
  191.4900  176.9130  139.8060 C   0  0  0  0  0  0  0  0  0  0  0  0
  192.6350  177.2340  139.3970 O   0  0  0  0  0  0  0  0  0  0  0  0
  190.5930  176.1130  138.9220 C   0  0  0  0  0  2  0  0  0  0  0  0
  189.9350  177.0310  137.9070 C   0  0  0  0  0  2  0  0  0  0  0  0
  190.0140  175.5980  135.3190 C   0  0  0  0  0  1  0  0  0  0  0  0
  188.6730  176.3900  137.3310 C   0  0  2  0  0  3  0  0  0  0  0  0
  188.7360  176.2640  135.7990 C   0  0  1  0  0  3  0  0  0  0  0  0
  187.3080  178.1740  135.5100 O   0  0  0  0  0  0  0  0  0  0  0  0
  187.3770  178.4930  136.8780 C   0  0  0  0  0  2  0  0  0  0  0  0
  187.4380  177.2110  137.7180 C   0  0  0  0  0  2  0  0  0  0  0  0
  188.5580  177.6390  135.1490 C   0  0  0  0  0  2  0  0  0  0  0  0
  190.0460  175.8170  143.0380 S   0  0  0  0  0  0  0  0  0  0  0  0
  191.3680  176.8470  143.7470 C   0  0  0  0  0  2  0  0  0  0  0  0
  190.8170  177.7390  144.8560 C   0  0  0  0  0  2  0  0  0  0  0  0
  191.0880  177.2030  146.2690 C   0  0  1  0  0  3  0  0  0  0  0  0
  188.7110  176.7400  146.2360 O   0  0  0  0  0  1  0  0  0  0  0  0
  189.5430  177.9990  148.0850 C   0  0  0  0  0  1  0  0  0  0  0  0
  189.8180  176.9040  147.0720 C   0  0  2  0  0  3  0  0  0  0  0  0
  191.9310  176.0880  146.2480 O   0  0  0  0  0  0  0  0  0  0  0  0
  191.9180  175.5970  147.5550 C   0  0  0  0  0  2  0  0  0  0  0  0
  193.0940  175.9750  148.2020 O   0  0  0  0  0  1  0  0  0  0  0  0
  1 13  1  1  0  0  0
  1 25  1  0  0  0  0
  2  1  1  6  0  0  0
  2  7  1  0  0  0  0
  3  7  1  0  0  0  0
  4  8  2  0  0  0  0
  5 10  1  0  0  0  0
  7 11  1  1  0  0  0
  8  3  1  0  0  0  0
  8  5  1  0  0  0  0
 10  9  1  0  0  0  0
 10  6  2  0  0  0  0
 11  9  1  0  0  0  0
 12  3  1  0  0  0  0
 12  2  1  0  0  0  0
 14 13  1  0  0  0  0
 15 14  2  0  0  0  0
 16 14  1  0  0  0  0
 17 16  1  0  0  0  0
 19 23  1  0  0  0  0
 19 17  1  6  0  0  0
 20 18  1  1  0  0  0
 20 19  1  0  0  0  0
 21 22  1  0  0  0  0
 22 23  1  0  0  0  0
 24 21  1  0  0  0  0
 24 20  1  0  0  0  0
 25 26  1  0  0  0  0
 26 27  1  0  0  0  0
 28 27  1  6  0  0  0
 28 31  1  0  0  0  0
 29 31  1  0  0  0  0
 31 30  1  1  0  0  0
 32 28  1  0  0  0  0
 32 33  1  0  0  0  0
 33 34  1  0  0  0  0
M  END
>  <MODEL>
2

>  <REMARK>
 VINA RESULT:      -7.7      1.792      5.585
  Name = 
  12 active torsions:
  status: ('A' for Active; 'I' for Inactive)
    1  A    between atoms: O_1  and  C_15
    2  A    between atoms: O_1  and  C_24
    3  A    between atoms: C_2  and  C_15
    4  A    between atoms: C_2  and  C_25
    5  A    between atoms: C_3  and  C_13
    6  A    between atoms: C_3  and  C_17
    7  A    between atoms: C_4  and  C_31
    8  A    between atoms: N_5  and  C_31
    9  A    between atoms: S_10  and  C_25
   10  A    between atoms: S_10  and  C_31
   11  A    between atoms: C_15  and  C_19
   12  A    between atoms: C_17  and  C_18
                            x       y       z     vdW  Elec       q    Type
                         _______ _______ _______ _____ _____    ______ ____

>  <TORSDO>
F 12

$$$$
=
 OpenBabel10272400103D

 34 36  0  0  1  0  0  0  0  0999 V2000
  188.2340  177.9380  142.5800 C   0  0  1  0  0  3  0  0  0  0  0  0
  186.9590  177.2880  143.0960 C   0  0  2  0  0  3  0  0  0  0  0  0
  185.8110  178.3290  144.6660 N   0  0  0  0  0  0  0  0  0  0  0  0
  185.3640  178.9820  146.8400 O   0  0  0  0  0  0  0  0  0  0  0  0
  183.5790  179.0860  145.4070 O   0  0  0  0  0  0  0  0  0  0  0  0
  181.6520  178.8040  144.2060 O   0  0  0  0  0  0  0  0  0  0  0  0
  185.8850  178.3160  143.2050 C   0  0  2  0  0  3  0  0  0  0  0  0
  184.9330  178.8330  145.6680 C   0  0  0  0  0  0  0  0  0  0  0  0
  183.5730  178.9900  142.8430 C   0  0  0  0  0  2  0  0  0  0  0  0
  182.9050  178.9270  144.1830 C   0  0  0  0  0  0  0  0  0  0  0  0
  184.5610  177.8580  142.6380 C   0  0  0  0  0  2  0  0  0  0  0  0
  186.9200  177.3660  144.5890 C   0  0  0  0  0  2  0  0  0  0  0  0
  189.2730  176.9350  142.3990 N   0  0  0  0  0  2  0  0  0  0  0  0
  190.6030  177.1200  142.8870 C   0  0  0  0  0  0  0  0  0  0  0  0
  191.4780  176.2480  142.6460 O   0  0  0  0  0  0  0  0  0  0  0  0
  190.9580  178.3040  143.7230 C   0  0  0  0  0  2  0  0  0  0  0  0
  191.5700  177.8330  145.0300 C   0  0  0  0  0  2  0  0  0  0  0  0
  189.2990  178.1130  146.9080 C   0  0  0  0  0  1  0  0  0  0  0  0
  190.8390  176.6000  145.5610 C   0  0  2  0  0  3  0  0  0  0  0  0
  190.1660  176.8660  146.9190 C   0  0  1  0  0  3  0  0  0  0  0  0
  191.9230  175.7250  148.0940 O   0  0  0  0  0  0  0  0  0  0  0  0
  192.7080  175.6340  146.9310 C   0  0  0  0  0  2  0  0  0  0  0  0
  191.8130  175.4250  145.7030 C   0  0  0  0  0  2  0  0  0  0  0  0
  191.2220  176.9430  148.0240 C   0  0  0  0  0  2  0  0  0  0  0  0
  187.9240  178.7770  140.9940 S   0  0  0  0  0  0  0  0  0  0  0  0
  188.6090  177.4000  140.0230 C   0  0  0  0  0  2  0  0  0  0  0  0
  189.7700  177.8790  139.1550 C   0  0  0  0  0  2  0  0  0  0  0  0
  189.6860  177.4030  137.6980 C   0  0  1  0  0  3  0  0  0  0  0  0
  188.9610  179.6890  137.3640 O   0  0  0  0  0  1  0  0  0  0  0  0
  187.8060  177.9980  136.1390 C   0  0  0  0  0  1  0  0  0  0  0  0
  189.1250  178.4530  136.7340 C   0  0  2  0  0  3  0  0  0  0  0  0
  190.9150  176.9200  137.2390 O   0  0  0  0  0  0  0  0  0  0  0  0
  190.6560  175.6150  136.8130 C   0  0  0  0  0  2  0  0  0  0  0  0
  190.6180  174.7670  137.9200 O   0  0  0  0  0  1  0  0  0  0  0  0
  1 25  1  6  0  0  0
  2  1  1  6  0  0  0
  2  7  1  0  0  0  0
  2 12  1  0  0  0  0
  3  8  1  0  0  0  0
  5  8  1  0  0  0  0
  7 11  1  6  0  0  0
  7  3  1  0  0  0  0
  8  4  2  0  0  0  0
  9 10  1  0  0  0  0
 10  6  2  0  0  0  0
 10  5  1  0  0  0  0
 11  9  1  0  0  0  0
 12  3  1  0  0  0  0
 13  1  1  0  0  0  0
 13 14  1  0  0  0  0
 14 16  1  0  0  0  0
 15 14  2  0  0  0  0
 16 17  1  0  0  0  0
 19 17  1  1  0  0  0
 19 23  1  0  0  0  0
 19 20  1  0  0  0  0
 20 18  1  6  0  0  0
 20 24  1  0  0  0  0
 22 21  1  0  0  0  0
 23 22  1  0  0  0  0
 24 21  1  0  0  0  0
 26 25  1  0  0  0  0
 27 26  1  0  0  0  0
 28 27  1  1  0  0  0
 31 30  1  1  0  0  0
 31 29  1  0  0  0  0
 31 28  1  0  0  0  0
 32 28  1  0  0  0  0
 33 32  1  0  0  0  0
 33 34  1  0  0  0  0
M  END
>  <MODEL>
3

>  <REMARK>
 VINA RESULT:      -7.4      1.729      8.114
  Name = 
  12 active torsions:
  status: ('A' for Active; 'I' for Inactive)
    1  A    between atoms: O_1  and  C_15
    2  A    between atoms: O_1  and  C_24
    3  A    between atoms: C_2  and  C_15
    4  A    between atoms: C_2  and  C_25
    5  A    between atoms: C_3  and  C_13
    6  A    between atoms: C_3  and  C_17
    7  A    between atoms: C_4  and  C_31
    8  A    between atoms: N_5  and  C_31
    9  A    between atoms: S_10  and  C_25
   10  A    between atoms: S_10  and  C_31
   11  A    between atoms: C_15  and  C_19
   12  A    between atoms: C_17  and  C_18
                            x       y       z     vdW  Elec       q    Type
                         _______ _______ _______ _____ _____    ______ ____

>  <TORSDO>
F 12

$$$$
=
 OpenBabel10272400103D

 34 36  0  0  1  0  0  0  0  0999 V2000
  190.2590  177.6490  142.0310 C   0  0  1  0  0  3  0  0  0  0  0  0
  190.3590  177.9600  140.5450 C   0  0  2  0  0  3  0  0  0  0  0  0
  190.4610  176.2770  139.1230 N   0  0  0  0  0  0  0  0  0  0  0  0
  191.5250  174.5690  137.9830 O   0  0  0  0  0  0  0  0  0  0  0  0
  189.5840  175.3190  137.0220 O   0  0  0  0  0  0  0  0  0  0  0  0
  187.9380  176.2720  135.7520 O   0  0  0  0  0  0  0  0  0  0  0  0
  189.4300  177.0750  139.7870 C   0  0  2  0  0  3  0  0  0  0  0  0
  190.5360  175.3430  138.0510 C   0  0  0  0  0  0  0  0  0  0  0  0
  187.7480  176.7850  138.0500 C   0  0  0  0  0  2  0  0  0  0  0  0
  188.4490  176.1370  136.8940 C   0  0  0  0  0  0  0  0  0  0  0  0
  188.6170  177.8130  138.7480 C   0  0  0  0  0  2  0  0  0  0  0  0
  191.3970  177.0900  139.9140 C   0  0  0  0  0  2  0  0  0  0  0  0
  189.4060  176.4890  142.2460 N   0  0  0  0  0  2  0  0  0  0  0  0
  188.2310  176.5480  143.0570 C   0  0  0  0  0  0  0  0  0  0  0  0
  187.5670  175.4990  143.2620 O   0  0  0  0  0  0  0  0  0  0  0  0
  187.7500  177.8420  143.6200 C   0  0  0  0  0  2  0  0  0  0  0  0
  186.2930  177.7060  144.0250 C   0  0  0  0  0  2  0  0  0  0  0  0
  184.9720  178.5240  146.5450 C   0  0  0  0  0  1  0  0  0  0  0  0
  185.6330  179.0790  144.1510 C   0  0  2  0  0  3  0  0  0  0  0  0
  184.5170  179.0900  145.2100 C   0  0  1  0  0  3  0  0  0  0  0  0
  182.8130  178.9680  143.5220 O   0  0  0  0  0  0  0  0  0  0  0  0
  183.7630  178.7300  142.5120 C   0  0  0  0  0  2  0  0  0  0  0  0
  185.0500  179.5130  142.8010 C   0  0  0  0  0  2  0  0  0  0  0  0
  183.2880  178.3420  144.6890 C   0  0  0  0  0  2  0  0  0  0  0  0
  191.9100  177.3200  142.7240 S   0  0  0  0  0  0  0  0  0  0  0  0
  191.4080  177.8120  144.4030 C   0  0  0  0  0  2  0  0  0  0  0  0
  191.2310  176.5840  145.2920 C   0  0  0  0  0  2  0  0  0  0  0  0
  191.0740  176.9220  146.7820 C   0  0  1  0  0  3  0  0  0  0  0  0
  189.8040  178.1740  148.4200 O   0  0  0  0  0  1  0  0  0  0  0  0
  188.5660  176.8050  146.9060 C   0  0  0  0  0  1  0  0  0  0  0  0
  189.7870  177.6820  147.1120 C   0  0  2  0  0  3  0  0  0  0  0  0
  191.1960  175.7850  147.5870 O   0  0  0  0  0  0  0  0  0  0  0  0
  192.5640  175.6580  147.8320 C   0  0  0  0  0  2  0  0  0  0  0  0
  192.9770  176.6780  148.6890 O   0  0  0  0  0  1  0  0  0  0  0  0
  1 13  1  6  0  0  0
  1 25  1  0  0  0  0
  2  1  1  1  0  0  0
  3  7  1  0  0  0  0
  3 12  1  0  0  0  0
  4  8  2  0  0  0  0
  5  8  1  0  0  0  0
  6 10  2  0  0  0  0
  7 11  1  6  0  0  0
  7  2  1  0  0  0  0
  8  3  1  0  0  0  0
  9 11  1  0  0  0  0
 10  5  1  0  0  0  0
 10  9  1  0  0  0  0
 12  2  1  0  0  0  0
 13 14  1  0  0  0  0
 14 15  2  0  0  0  0
 14 16  1  0  0  0  0
 16 17  1  0  0  0  0
 19 17  1  6  0  0  0
 19 20  1  0  0  0  0
 20 18  1  1  0  0  0
 21 24  1  0  0  0  0
 22 23  1  0  0  0  0
 22 21  1  0  0  0  0
 23 19  1  0  0  0  0
 24 20  1  0  0  0  0
 25 26  1  0  0  0  0
 26 27  1  0  0  0  0
 28 27  1  6  0  0  0
 28 31  1  0  0  0  0
 28 32  1  0  0  0  0
 31 30  1  1  0  0  0
 31 29  1  0  0  0  0
 32 33  1  0  0  0  0
 33 34  1  0  0  0  0
M  END
>  <MODEL>
4

>  <REMARK>
 VINA RESULT:      -7.4      1.778      7.612
  Name = 
  12 active torsions:
  status: ('A' for Active; 'I' for Inactive)
    1  A    between atoms: O_1  and  C_15
    2  A    between atoms: O_1  and  C_24
    3  A    between atoms: C_2  and  C_15
    4  A    between atoms: C_2  and  C_25
    5  A    between atoms: C_3  and  C_13
    6  A    between atoms: C_3  and  C_17
    7  A    between atoms: C_4  and  C_31
    8  A    between atoms: N_5  and  C_31
    9  A    between atoms: S_10  and  C_25
   10  A    between atoms: S_10  and  C_31
   11  A    between atoms: C_15  and  C_19
   12  A    between atoms: C_17  and  C_18
                            x       y       z     vdW  Elec       q    Type
                         _______ _______ _______ _____ _____    ______ ____

>  <TORSDO>
F 12

$$$$
=
 OpenBabel10272400103D

 34 36  0  0  1  0  0  0  0  0999 V2000
  187.0910  177.7220  142.6360 C   0  0  1  0  0  3  0  0  0  0  0  0
  187.6580  176.7090  143.6200 C   0  0  2  0  0  3  0  0  0  0  0  0
  189.8440  176.6290  143.9030 N   0  0  0  0  0  0  0  0  0  0  0  0
  192.0030  176.0280  143.3310 O   0  0  0  0  0  0  0  0  0  0  0  0
  191.6930  176.5520  145.5400 O   0  0  0  0  0  0  0  0  0  0  0  0
  191.4160  176.6090  147.8100 O   0  0  0  0  0  0  0  0  0  0  0  0
  188.7040  177.3610  144.4570 C   0  0  2  0  0  3  0  0  0  0  0  0
  191.2140  176.4190  144.2290 C   0  0  0  0  0  0  0  0  0  0  0  0
  189.7110  177.7510  146.6400 C   0  0  0  0  0  2  0  0  0  0  0  0
  190.9590  176.9220  146.6800 C   0  0  0  0  0  0  0  0  0  0  0  0
  188.5720  177.0460  145.9300 C   0  0  0  0  0  2  0  0  0  0  0  0
  188.8410  176.0230  143.0160 C   0  0  0  0  0  2  0  0  0  0  0  0
  186.3870  178.7770  143.3490 N   0  0  0  0  0  2  0  0  0  0  0  0
  184.9840  179.0000  143.1870 C   0  0  0  0  0  0  0  0  0  0  0  0
  184.4390  179.9680  143.7780 O   0  0  0  0  0  0  0  0  0  0  0  0
  184.1480  178.0730  142.3710 C   0  0  0  0  0  2  0  0  0  0  0  0
  183.9080  178.6830  141.0020 C   0  0  0  0  0  2  0  0  0  0  0  0
  184.3740  178.0580  138.1460 C   0  0  0  0  0  1  0  0  0  0  0  0
  182.8970  177.8570  140.2080 C   0  0  2  0  0  3  0  0  0  0  0  0
  182.9630  178.1540  138.6990 C   0  0  1  0  0  3  0  0  0  0  0  0
  181.0050  179.5410  138.8130 O   0  0  0  0  0  0  0  0  0  0  0  0
  181.0000  179.5030  140.2190 C   0  0  0  0  0  2  0  0  0  0  0  0
  181.4750  178.1310  140.7130 C   0  0  0  0  0  2  0  0  0  0  0  0
  182.3520  179.5260  138.4060 C   0  0  0  0  0  2  0  0  0  0  0  0
  188.4260  178.4550  141.6390 S   0  0  0  0  0  0  0  0  0  0  0  0
  187.5220  178.2160  140.0780 C   0  0  0  0  0  2  0  0  0  0  0  0
  188.4320  178.4870  138.8830 C   0  0  0  0  0  2  0  0  0  0  0  0
  188.9660  177.2110  138.2150 C   0  0  1  0  0  3  0  0  0  0  0  0
  187.6280  177.9500  136.3370 O   0  0  0  0  0  1  0  0  0  0  0  0
  187.1980  175.7580  137.1770 C   0  0  0  0  0  1  0  0  0  0  0  0
  188.2340  176.8360  136.9240 C   0  0  2  0  0  3  0  0  0  0  0  0
  190.3450  177.2780  137.9980 O   0  0  0  0  0  0  0  0  0  0  0  0
  190.8560  176.0980  138.5420 C   0  0  0  0  0  2  0  0  0  0  0  0
  190.6890  176.1170  139.9270 O   0  0  0  0  0  1  0  0  0  0  0  0
  1 25  1  1  0  0  0
  1 13  1  0  0  0  0
  2  1  1  6  0  0  0
  2  7  1  0  0  0  0
  3  8  1  0  0  0  0
  3  7  1  0  0  0  0
  4  8  2  0  0  0  0
  5 10  1  0  0  0  0
  7 11  1  1  0  0  0
  8  5  1  0  0  0  0
  9 10  1  0  0  0  0
 10  6  2  0  0  0  0
 11  9  1  0  0  0  0
 12  2  1  0  0  0  0
 12  3  1  0  0  0  0
 14 13  1  0  0  0  0
 14 15  2  0  0  0  0
 16 14  1  0  0  0  0
 17 16  1  0  0  0  0
 19 23  1  0  0  0  0
 19 17  1  1  0  0  0
 20 18  1  1  0  0  0
 20 19  1  0  0  0  0
 21 22  1  0  0  0  0
 22 23  1  0  0  0  0
 24 20  1  0  0  0  0
 24 21  1  0  0  0  0
 26 25  1  0  0  0  0
 27 26  1  0  0  0  0
 28 27  1  6  0  0  0
 29 31  1  0  0  0  0
 31 30  1  1  0  0  0
 31 28  1  0  0  0  0
 32 28  1  0  0  0  0
 32 33  1  0  0  0  0
 33 34  1  0  0  0  0
M  END
>  <MODEL>
5

>  <REMARK>
 VINA RESULT:      -7.0      2.285      5.990
  Name = 
  12 active torsions:
  status: ('A' for Active; 'I' for Inactive)
    1  A    between atoms: O_1  and  C_15
    2  A    between atoms: O_1  and  C_24
    3  A    between atoms: C_2  and  C_15
    4  A    between atoms: C_2  and  C_25
    5  A    between atoms: C_3  and  C_13
    6  A    between atoms: C_3  and  C_17
    7  A    between atoms: C_4  and  C_31
    8  A    between atoms: N_5  and  C_31
    9  A    between atoms: S_10  and  C_25
   10  A    between atoms: S_10  and  C_31
   11  A    between atoms: C_15  and  C_19
   12  A    between atoms: C_17  and  C_18
                            x       y       z     vdW  Elec       q    Type
                         _______ _______ _______ _____ _____    ______ ____

>  <TORSDO>
F 12

$$$$
=
 OpenBabel10272400103D

 34 36  0  0  1  0  0  0  0  0999 V2000
  188.8710  178.0150  142.5570 C   0  0  1  0  0  3  0  0  0  0  0  0
  189.6610  178.4500  143.7830 C   0  0  2  0  0  3  0  0  0  0  0  0
  189.3180  177.3850  145.6840 N   0  0  0  0  0  0  0  0  0  0  0  0
  188.1640  176.9060  147.6310 O   0  0  0  0  0  0  0  0  0  0  0  0
  190.3690  176.2830  147.6300 O   0  0  0  0  0  0  0  0  0  0  0  0
  192.6250  176.0330  147.9130 O   0  0  0  0  0  0  0  0  0  0  0  0
  190.1680  177.2460  144.5010 C   0  0  2  0  0  3  0  0  0  0  0  0
  189.2460  176.8310  146.9940 C   0  0  0  0  0  0  0  0  0  0  0  0
  191.9780  176.0840  145.6420 C   0  0  0  0  0  2  0  0  0  0  0  0
  191.6680  176.1630  147.1060 C   0  0  0  0  0  0  0  0  0  0  0  0
  191.6200  177.3600  144.9070 C   0  0  0  0  0  2  0  0  0  0  0  0
  188.7510  178.5360  144.9670 C   0  0  0  0  0  2  0  0  0  0  0  0
  189.6310  177.0390  141.7890 N   0  0  0  0  0  2  0  0  0  0  0  0
  189.6900  177.0720  140.3610 C   0  0  0  0  0  0  0  0  0  0  0  0
  190.3080  176.1650  139.7460 O   0  0  0  0  0  0  0  0  0  0  0  0
  189.0740  178.1930  139.5930 C   0  0  0  0  0  2  0  0  0  0  0  0
  187.9210  177.6610  138.7610 C   0  0  0  0  0  2  0  0  0  0  0  0
  185.6130  177.3050  136.9420 C   0  0  0  0  0  1  0  0  0  0  0  0
  187.9220  178.2870  137.3670 C   0  0  2  0  0  3  0  0  0  0  0  0
  187.0110  177.5240  136.3890 C   0  0  1  0  0  3  0  0  0  0  0  0
  188.8940  176.4360  135.3690 O   0  0  0  0  0  0  0  0  0  0  0  0
  189.7700  176.9160  136.3590 C   0  0  0  0  0  2  0  0  0  0  0  0
  189.3470  178.3220  136.8020 C   0  0  0  0  0  2  0  0  0  0  0  0
  187.6570  176.1940  135.9950 C   0  0  0  0  0  2  0  0  0  0  0  0
  187.2790  177.2850  143.0510 S   0  0  0  0  0  0  0  0  0  0  0  0
  186.3220  178.4320  142.0130 C   0  0  0  0  0  2  0  0  0  0  0  0
  184.8360  178.3510  142.3510 C   0  0  0  0  0  2  0  0  0  0  0  0
  183.9450  178.0400  141.1390 C   0  0  1  0  0  3  0  0  0  0  0  0
  182.2150  178.9040  142.5950 O   0  0  0  0  0  1  0  0  0  0  0  0
  181.5100  177.5410  140.7670 C   0  0  0  0  0  1  0  0  0  0  0  0
  182.5120  178.5610  141.2740 C   0  0  2  0  0  3  0  0  0  0  0  0
  184.5210  178.4840  139.9450 O   0  0  0  0  0  0  0  0  0  0  0  0
  183.7040  179.5320  139.5160 C   0  0  0  0  0  2  0  0  0  0  0  0
  184.4800  180.4820  138.8520 O   0  0  0  0  0  1  0  0  0  0  0  0
  1 13  1  1  0  0  0
  1 25  1  0  0  0  0
  2  1  1  6  0  0  0
  2  7  1  0  0  0  0
  2 12  1  0  0  0  0
  3  8  1  0  0  0  0
  7 11  1  1  0  0  0
  7  3  1  0  0  0  0
  8  5  1  0  0  0  0
  8  4  2  0  0  0  0
  9 10  1  0  0  0  0
 10  5  1  0  0  0  0
 10  6  2  0  0  0  0
 11  9  1  0  0  0  0
 12  3  1  0  0  0  0
 14 13  1  0  0  0  0
 15 14  2  0  0  0  0
 16 14  1  0  0  0  0
 17 16  1  0  0  0  0
 19 17  1  1  0  0  0
 20 18  1  1  0  0  0
 20 19  1  0  0  0  0
 21 24  1  0  0  0  0
 21 22  1  0  0  0  0
 22 23  1  0  0  0  0
 23 19  1  0  0  0  0
 24 20  1  0  0  0  0
 26 27  1  0  0  0  0
 26 25  1  0  0  0  0
 28 31  1  0  0  0  0
 28 27  1  1  0  0  0
 31 30  1  1  0  0  0
 31 29  1  0  0  0  0
 32 28  1  0  0  0  0
 33 32  1  0  0  0  0
 34 33  1  0  0  0  0
M  END
>  <MODEL>
6

>  <REMARK>
 VINA RESULT:      -7.0      1.503      2.484
  Name = 
  12 active torsions:
  status: ('A' for Active; 'I' for Inactive)
    1  A    between atoms: O_1  and  C_15
    2  A    between atoms: O_1  and  C_24
    3  A    between atoms: C_2  and  C_15
    4  A    between atoms: C_2  and  C_25
    5  A    between atoms: C_3  and  C_13
    6  A    between atoms: C_3  and  C_17
    7  A    between atoms: C_4  and  C_31
    8  A    between atoms: N_5  and  C_31
    9  A    between atoms: S_10  and  C_25
   10  A    between atoms: S_10  and  C_31
   11  A    between atoms: C_15  and  C_19
   12  A    between atoms: C_17  and  C_18
                            x       y       z     vdW  Elec       q    Type
                         _______ _______ _______ _____ _____    ______ ____

>  <TORSDO>
F 12

$$$$
=
 OpenBabel10272400103D

 34 36  0  0  1  0  0  0  0  0999 V2000
  189.1920  177.4530  140.6020 C   0  0  1  0  0  3  0  0  0  0  0  0
  189.3060  177.6440  139.0960 C   0  0  2  0  0  3  0  0  0  0  0  0
  188.5520  176.0470  137.7750 N   0  0  0  0  0  0  0  0  0  0  0  0
  188.6710  174.0100  136.6830 O   0  0  0  0  0  0  0  0  0  0  0  0
  187.1880  175.5100  135.7860 O   0  0  0  0  0  0  0  0  0  0  0  0
  186.0350  177.0530  134.5530 O   0  0  0  0  0  0  0  0  0  0  0  0
  188.0290  177.2370  138.4450 C   0  0  2  0  0  3  0  0  0  0  0  0
  188.1290  175.1430  136.7580 C   0  0  0  0  0  0  0  0  0  0  0  0
  186.2640  177.6660  136.8230 C   0  0  0  0  0  2  0  0  0  0  0  0
  186.5200  176.7410  135.6720 C   0  0  0  0  0  0  0  0  0  0  0  0
  187.5440  178.2260  137.4090 C   0  0  0  0  0  2  0  0  0  0  0  0
  189.8070  176.3860  138.4620 C   0  0  0  0  0  2  0  0  0  0  0  0
  190.4990  177.1610  141.1710 N   0  0  0  0  0  2  0  0  0  0  0  0
  190.6550  176.6510  142.4980 C   0  0  0  0  0  0  0  0  0  0  0  0
  191.8110  176.4780  142.9630 O   0  0  0  0  0  0  0  0  0  0  0  0
  189.4680  176.2720  143.3190 C   0  0  0  0  0  2  0  0  0  0  0  0
  189.8510  176.2730  144.7880 C   0  0  0  0  0  2  0  0  0  0  0  0
  191.0790  177.0200  147.3770 C   0  0  0  0  0  1  0  0  0  0  0  0
  189.5710  177.6360  145.4220 C   0  0  2  0  0  3  0  0  0  0  0  0
  189.7460  177.6110  146.9500 C   0  0  1  0  0  3  0  0  0  0  0  0
  187.3710  177.5080  147.2940 O   0  0  0  0  0  0  0  0  0  0  0  0
  187.1320  177.3040  145.9230 C   0  0  0  0  0  2  0  0  0  0  0  0
  188.1460  178.0930  145.0860 C   0  0  0  0  0  2  0  0  0  0  0  0
  188.5810  176.8600  147.6020 C   0  0  0  0  0  2  0  0  0  0  0  0
  188.5150  178.9510  141.3830 S   0  0  0  0  0  0  0  0  0  0  0  0
  186.9130  178.1610  141.7300 C   0  0  0  0  0  2  0  0  0  0  0  0
  185.7770  179.1730  141.6030 C   0  0  0  0  0  2  0  0  0  0  0  0
  184.3790  178.5390  141.6610 C   0  0  1  0  0  3  0  0  0  0  0  0
  182.4060  178.9510  143.0020 O   0  0  0  0  0  1  0  0  0  0  0  0
  184.5140  179.4800  143.9880 C   0  0  0  0  0  1  0  0  0  0  0  0
  183.7470  178.5620  143.0550 C   0  0  2  0  0  3  0  0  0  0  0  0
  183.5150  179.1020  140.7180 O   0  0  0  0  0  0  0  0  0  0  0  0
  184.2530  179.1540  139.5340 C   0  0  0  0  0  2  0  0  0  0  0  0
  184.1680  180.4370  138.9930 O   0  0  0  0  0  1  0  0  0  0  0  0
  1 13  1  1  0  0  0
  1 25  1  0  0  0  0
  2  1  1  1  0  0  0
  3  7  1  0  0  0  0
  3 12  1  0  0  0  0
  4  8  2  0  0  0  0
  5  8  1  0  0  0  0
  6 10  2  0  0  0  0
  7 11  1  6  0  0  0
  7  2  1  0  0  0  0
  8  3  1  0  0  0  0
  9 11  1  0  0  0  0
 10  5  1  0  0  0  0
 10  9  1  0  0  0  0
 12  2  1  0  0  0  0
 13 14  1  0  0  0  0
 14 15  2  0  0  0  0
 14 16  1  0  0  0  0
 16 17  1  0  0  0  0
 19 17  1  1  0  0  0
 19 20  1  0  0  0  0
 20 18  1  6  0  0  0
 20 24  1  0  0  0  0
 21 24  1  0  0  0  0
 22 21  1  0  0  0  0
 23 19  1  0  0  0  0
 23 22  1  0  0  0  0
 25 26  1  0  0  0  0
 27 26  1  0  0  0  0
 28 27  1  1  0  0  0
 28 31  1  0  0  0  0
 29 31  1  0  0  0  0
 31 30  1  1  0  0  0
 32 28  1  0  0  0  0
 33 32  1  0  0  0  0
 34 33  1  0  0  0  0
M  END
>  <MODEL>
7

>  <REMARK>
 VINA RESULT:      -6.9      2.146      8.062
  Name = 
  12 active torsions:
  status: ('A' for Active; 'I' for Inactive)
    1  A    between atoms: O_1  and  C_15
    2  A    between atoms: O_1  and  C_24
    3  A    between atoms: C_2  and  C_15
    4  A    between atoms: C_2  and  C_25
    5  A    between atoms: C_3  and  C_13
    6  A    between atoms: C_3  and  C_17
    7  A    between atoms: C_4  and  C_31
    8  A    between atoms: N_5  and  C_31
    9  A    between atoms: S_10  and  C_25
   10  A    between atoms: S_10  and  C_31
   11  A    between atoms: C_15  and  C_19
   12  A    between atoms: C_17  and  C_18
                            x       y       z     vdW  Elec       q    Type
                         _______ _______ _______ _____ _____    ______ ____

>  <TORSDO>
F 12

$$$$
=
 OpenBabel10272400103D

 34 36  0  0  1  0  0  0  0  0999 V2000
  186.9230  177.7480  142.5310 C   0  0  1  0  0  3  0  0  0  0  0  0
  187.5180  176.7740  143.5370 C   0  0  2  0  0  3  0  0  0  0  0  0
  189.6950  176.8270  143.8910 N   0  0  0  0  0  0  0  0  0  0  0  0
  191.9040  176.3580  143.3900 O   0  0  0  0  0  0  0  0  0  0  0  0
  191.4920  176.8660  145.5860 O   0  0  0  0  0  0  0  0  0  0  0  0
  191.1390  176.9100  147.8460 O   0  0  0  0  0  0  0  0  0  0  0  0
  188.4960  177.4890  144.4050 C   0  0  2  0  0  3  0  0  0  0  0  0
  191.0640  176.7020  144.2610 C   0  0  0  0  0  0  0  0  0  0  0  0
  189.4050  177.9440  146.6180 C   0  0  0  0  0  2  0  0  0  0  0  0
  190.7000  177.1930  146.7010 C   0  0  0  0  0  0  0  0  0  0  0  0
  188.3360  177.1700  145.8750 C   0  0  0  0  0  2  0  0  0  0  0  0
  188.7600  176.1590  142.9740 C   0  0  0  0  0  2  0  0  0  0  0  0
  185.9330  178.5970  143.1780 N   0  0  0  0  0  2  0  0  0  0  0  0
  184.6090  178.7500  142.6630 C   0  0  0  0  0  0  0  0  0  0  0  0
  183.8140  179.5470  143.2250 O   0  0  0  0  0  0  0  0  0  0  0  0
  184.1380  177.9410  141.5020 C   0  0  0  0  0  2  0  0  0  0  0  0
  183.0510  178.7020  140.7640 C   0  0  0  0  0  2  0  0  0  0  0  0
  181.4090  180.6190  139.2160 C   0  0  0  0  0  1  0  0  0  0  0  0
  183.6150  179.3860  139.5190 C   0  0  2  0  0  3  0  0  0  0  0  0
  182.5060  179.8130  138.5410 C   0  0  1  0  0  3  0  0  0  0  0  0
  182.9440  177.9350  137.1100 O   0  0  0  0  0  0  0  0  0  0  0  0
  183.8120  177.3570  138.0530 C   0  0  0  0  0  2  0  0  0  0  0  0
  184.5900  178.4500  138.7960 C   0  0  0  0  0  2  0  0  0  0  0  0
  181.9270  178.5870  137.8320 C   0  0  0  0  0  2  0  0  0  0  0  0
  188.2280  178.7900  141.8060 S   0  0  0  0  0  0  0  0  0  0  0  0
  187.9800  178.1060  140.1390 C   0  0  0  0  0  2  0  0  0  0  0  0
  189.1580  178.4570  139.2340 C   0  0  0  0  0  2  0  0  0  0  0  0
  189.5190  177.3470  138.2360 C   0  0  1  0  0  3  0  0  0  0  0  0
  190.8240  175.3210  138.4700 O   0  0  0  0  0  1  0  0  0  0  0  0
  191.4840  177.1920  139.7960 C   0  0  0  0  0  1  0  0  0  0  0  0
  190.8920  176.7160  138.4830 C   0  0  2  0  0  3  0  0  0  0  0  0
  188.5280  176.3630  138.1740 O   0  0  0  0  0  0  0  0  0  0  0  0
  188.0740  176.3870  136.8540 C   0  0  0  0  0  2  0  0  0  0  0  0
  186.8090  175.8020  136.7900 O   0  0  0  0  0  1  0  0  0  0  0  0
  1 25  1  1  0  0  0
  1 13  1  0  0  0  0
  2  1  1  6  0  0  0
  2  7  1  0  0  0  0
  3  8  1  0  0  0  0
  3  7  1  0  0  0  0
  4  8  2  0  0  0  0
  5 10  1  0  0  0  0
  7 11  1  1  0  0  0
  8  5  1  0  0  0  0
  9 10  1  0  0  0  0
 10  6  2  0  0  0  0
 11  9  1  0  0  0  0
 12  2  1  0  0  0  0
 12  3  1  0  0  0  0
 14 13  1  0  0  0  0
 14 15  2  0  0  0  0
 16 14  1  0  0  0  0
 17 16  1  0  0  0  0
 19 17  1  1  0  0  0
 20 18  1  1  0  0  0
 20 19  1  0  0  0  0
 21 24  1  0  0  0  0
 21 22  1  0  0  0  0
 22 23  1  0  0  0  0
 23 19  1  0  0  0  0
 24 20  1  0  0  0  0
 26 25  1  0  0  0  0
 27 26  1  0  0  0  0
 28 31  1  0  0  0  0
 28 27  1  1  0  0  0
 29 31  1  0  0  0  0
 31 30  1  1  0  0  0
 32 28  1  0  0  0  0
 33 32  1  0  0  0  0
 34 33  1  0  0  0  0
M  END
>  <MODEL>
8

>  <REMARK>
 VINA RESULT:      -6.8      2.446      5.930
  Name = 
  12 active torsions:
  status: ('A' for Active; 'I' for Inactive)
    1  A    between atoms: O_1  and  C_15
    2  A    between atoms: O_1  and  C_24
    3  A    between atoms: C_2  and  C_15
    4  A    between atoms: C_2  and  C_25
    5  A    between atoms: C_3  and  C_13
    6  A    between atoms: C_3  and  C_17
    7  A    between atoms: C_4  and  C_31
    8  A    between atoms: N_5  and  C_31
    9  A    between atoms: S_10  and  C_25
   10  A    between atoms: S_10  and  C_31
   11  A    between atoms: C_15  and  C_19
   12  A    between atoms: C_17  and  C_18
                            x       y       z     vdW  Elec       q    Type
                         _______ _______ _______ _____ _____    ______ ____

>  <TORSDO>
F 12

$$$$
=
 OpenBabel10272400103D

 34 36  0  0  1  0  0  0  0  0999 V2000
  189.0570  177.7650  141.1470 C   0  0  1  0  0  3  0  0  0  0  0  0
  189.3880  177.9460  139.6720 C   0  0  2  0  0  3  0  0  0  0  0  0
  189.8780  176.1580  138.4780 N   0  0  0  0  0  0  0  0  0  0  0  0
  191.2660  174.4680  137.7210 O   0  0  0  0  0  0  0  0  0  0  0  0
  189.4670  174.9250  136.3770 O   0  0  0  0  0  0  0  0  0  0  0  0
  187.9920  175.5840  134.7570 O   0  0  0  0  0  0  0  0  0  0  0  0
  188.6840  176.9050  138.8720 C   0  0  2  0  0  3  0  0  0  0  0  0
  190.2180  175.1410  137.5410 C   0  0  0  0  0  0  0  0  0  0  0  0
  187.3620  176.2860  136.9230 C   0  0  0  0  0  2  0  0  0  0  0  0
  188.3050  175.6080  135.9760 C   0  0  0  0  0  0  0  0  0  0  0  0
  188.0050  177.4560  137.6390 C   0  0  0  0  0  2  0  0  0  0  0  0
  190.5900  177.1310  139.3190 C   0  0  0  0  0  2  0  0  0  0  0  0
  190.2660  177.4720  141.9010 N   0  0  0  0  0  2  0  0  0  0  0  0
  190.2310  177.1010  143.2810 C   0  0  0  0  0  0  0  0  0  0  0  0
  191.3110  176.9230  143.9020 O   0  0  0  0  0  0  0  0  0  0  0  0
  188.9350  176.8700  143.9830 C   0  0  0  0  0  2  0  0  0  0  0  0
  188.8820  177.7240  145.2370 C   0  0  0  0  0  2  0  0  0  0  0  0
  186.0700  177.9050  146.1460 C   0  0  0  0  0  1  0  0  0  0  0  0
  188.3930  176.9050  146.4320 C   0  0  2  0  0  3  0  0  0  0  0  0
  187.1810  177.5550  147.1220 C   0  0  1  0  0  3  0  0  0  0  0  0
  188.5570  178.4100  148.8950 O   0  0  0  0  0  0  0  0  0  0  0  0
  189.7370  178.0430  148.2220 C   0  0  0  0  0  2  0  0  0  0  0  0
  189.5220  176.7330  147.4540 C   0  0  0  0  0  2  0  0  0  0  0  0
  187.6240  178.7880  147.9120 C   0  0  0  0  0  2  0  0  0  0  0  0
  188.2790  179.2690  141.8140 S   0  0  0  0  0  0  0  0  0  0  0  0
  186.6090  178.7380  141.3250 C   0  0  0  0  0  2  0  0  0  0  0  0
  185.8300  178.2340  142.5360 C   0  0  0  0  0  2  0  0  0  0  0  0
  184.3130  178.4500  142.4250 C   0  0  1  0  0  3  0  0  0  0  0  0
  184.7830  180.1840  144.0480 O   0  0  0  0  0  1  0  0  0  0  0  0
  182.8930  178.7890  144.4710 C   0  0  0  0  0  1  0  0  0  0  0  0
  183.7580  179.4680  143.4260 C   0  0  2  0  0  3  0  0  0  0  0  0
  183.9310  178.7810  141.1220 O   0  0  0  0  0  0  0  0  0  0  0  0
  183.0820  177.7490  140.7190 C   0  0  0  0  0  2  0  0  0  0  0  0
  183.4770  177.2890  139.4630 O   0  0  0  0  0  1  0  0  0  0  0  0
  1 25  1  1  0  0  0
  1 13  1  0  0  0  0
  2  1  1  1  0  0  0
  3  7  1  0  0  0  0
  3 12  1  0  0  0  0
  5  8  1  0  0  0  0
  6 10  2  0  0  0  0
  7 11  1  6  0  0  0
  7  2  1  0  0  0  0
  8  4  2  0  0  0  0
  8  3  1  0  0  0  0
  9 11  1  0  0  0  0
 10  5  1  0  0  0  0
 10  9  1  0  0  0  0
 12  2  1  0  0  0  0
 13 14  1  0  0  0  0
 14 15  2  0  0  0  0
 14 16  1  0  0  0  0
 16 17  1  0  0  0  0
 19 17  1  6  0  0  0
 19 20  1  0  0  0  0
 19 23  1  0  0  0  0
 20 18  1  6  0  0  0
 20 24  1  0  0  0  0
 22 21  1  0  0  0  0
 23 22  1  0  0  0  0
 24 21  1  0  0  0  0
 26 25  1  0  0  0  0
 26 27  1  0  0  0  0
 28 27  1  6  0  0  0
 28 31  1  0  0  0  0
 31 29  1  0  0  0  0
 31 30  1  1  0  0  0
 32 28  1  0  0  0  0
 33 32  1  0  0  0  0
 34 33  1  0  0  0  0
M  END
>  <MODEL>
9

>  <REMARK>
 VINA RESULT:      -6.8      1.995      7.919
  Name = 
  12 active torsions:
  status: ('A' for Active; 'I' for Inactive)
    1  A    between atoms: O_1  and  C_15
    2  A    between atoms: O_1  and  C_24
    3  A    between atoms: C_2  and  C_15
    4  A    between atoms: C_2  and  C_25
    5  A    between atoms: C_3  and  C_13
    6  A    between atoms: C_3  and  C_17
    7  A    between atoms: C_4  and  C_31
    8  A    between atoms: N_5  and  C_31
    9  A    between atoms: S_10  and  C_25
   10  A    between atoms: S_10  and  C_31
   11  A    between atoms: C_15  and  C_19
   12  A    between atoms: C_17  and  C_18
                            x       y       z     vdW  Elec       q    Type
                         _______ _______ _______ _____ _____    ______ ____

>  <TORSDO>
F 12

$$$$
