=
 OpenBabel10272413413D

 32 37  0  0  0  0  0  0  0  0999 V2000
  181.5390  178.5810  142.3190 C   0  0  0  0  0  0  0  0  0  0  0  0
  186.5770  178.4660  143.2230 N   0  0  0  0  0  0  0  0  0  0  0  0
  187.3040  178.2830  139.4800 C   0  0  0  0  0  2  0  0  0  0  0  0
  189.5690  177.2950  139.2330 C   0  0  0  0  0  2  0  0  0  0  0  0
  187.9530  177.7050  145.0970 N   0  0  0  0  0  0  0  0  0  0  0  0
  189.1090  177.2260  145.6240 C   0  0  0  0  0  0  0  0  0  0  0  0
  184.0940  178.7590  143.4740 C   0  0  0  0  0  0  0  0  0  0  0  0
  185.1270  179.0220  141.1840 C   0  0  0  0  0  2  0  0  0  0  0  0
  191.5080  176.2360  146.7910 C   0  0  0  0  0  3  0  0  0  0  0  0
  182.6750  178.7070  141.5070 C   0  0  0  0  0  3  0  0  0  0  0  0
  188.6340  178.3890  138.7460 C   0  0  0  0  0  2  0  0  0  0  0  0
  186.4280  178.5440  141.7850 C   0  0  0  0  0  0  0  0  0  0  0  0
  187.4720  178.2600  140.9820 C   0  0  0  0  0  0  0  0  0  0  0  0
  188.8850  177.6330  142.9020 C   0  0  0  0  0  0  0  0  0  0  0  0
  190.4410  176.5090  147.5460 C   0  0  0  0  0  3  0  0  0  0  0  0
  181.6850  178.5530  143.7090 C   0  0  0  0  0  3  0  0  0  0  0  0
  183.9500  178.7820  142.0770 C   0  0  0  0  0  0  0  0  0  0  0  0
  189.2020  177.0240  146.9400 C   0  0  0  0  0  3  0  0  0  0  0  0
  182.9550  178.6420  144.2850 C   0  0  0  0  0  3  0  0  0  0  0  0
  189.9590  177.5710  140.6800 C   0  0  0  0  0  2  0  0  0  0  0  0
  188.7600  177.7890  141.5720 C   0  0  0  0  0  0  0  0  0  0  0  0
  190.0480  177.1650  143.4370 N   0  0  0  0  0  0  0  0  0  0  0  0
  185.4470  178.8120  144.0580 C   0  0  0  0  0  0  0  0  0  0  0  0
  185.6580  179.4990  145.5400 S   0  0  0  0  0  0  0  0  0  0  0  0
  191.5070  176.4360  145.2980 C   0  0  0  0  0  2  0  0  0  0  0  0
  187.8110  177.9350  143.7620 C   0  0  0  0  0  0  0  0  0  0  0  0
  190.1940  176.9580  144.7700 C   0  0  0  0  0  0  0  0  0  0  0  0
  180.2300  178.4930  141.7540 N   0  0  0  0  0  2  0  0  0  0  0  0
  179.9850  178.0370  140.3930 C   0  0  0  0  0  2  0  0  0  0  0  0
  179.9820  176.5190  140.3400 C   0  0  0  0  0  2  0  0  0  0  0  0
  180.8310  176.0100  139.1860 C   0  0  0  0  0  2  0  0  0  0  0  0
  182.1400  175.7850  139.6130 O   0  0  0  0  0  1  0  0  0  0  0  0
  1 16  1  0  0  0  0
  2 26  1  0  0  0  0
  2 23  1  0  0  0  0
  3 13  1  0  0  0  0
  4 20  1  0  0  0  0
  5  6  1  0  0  0  0
  6 18  2  0  0  0  0
  7 23  1  0  0  0  0
  7 19  1  0  0  0  0
  8 12  1  0  0  0  0
  8 17  1  0  0  0  0
  9 15  2  0  0  0  0
 10 17  1  0  0  0  0
 10  1  2  0  0  0  0
 11  4  1  0  0  0  0
 11  3  1  0  0  0  0
 12  2  1  0  0  0  0
 13 21  1  0  0  0  0
 13 12  2  0  0  0  0
 14 22  1  0  0  0  0
 14 26  1  0  0  0  0
 16 19  2  0  0  0  0
 17  7  2  0  0  0  0
 18 15  1  0  0  0  0
 20 21  1  0  0  0  0
 21 14  2  0  0  0  0
 22 27  2  0  0  0  0
 23 24  2  0  0  0  0
 25  9  1  0  0  0  0
 26  5  2  0  0  0  0
 27 25  1  0  0  0  0
 27  6  1  0  0  0  0
 28  1  1  0  0  0  0
 29 28  1  0  0  0  0
 30 29  1  0  0  0  0
 31 32  1  0  0  0  0
 31 30  1  0  0  0  0
M  END
>  <MODEL>
1

>  <REMARK>
 VINA RESULT:      -9.2      0.000      0.000
  Name = 
  4 active torsions:
  status: ('A' for Active; 'I' for Inactive)
    1  A    between atoms: C_1  and  C_20
    2  A    between atoms: C_2  and  N_24
    3  A    between atoms: C_10  and  C_20
    4  A    between atoms: C_10  and  N_24
                            x       y       z     vdW  Elec       q    Type
                         _______ _______ _______ _____ _____    ______ ____

>  <TORSDO>
F 4

$$$$
=
 OpenBabel10272413413D

 32 37  0  0  1  0  0  0  0  0999 V2000
  181.4920  178.3150  140.0140 C   0  0  0  0  0  0  0  0  0  0  0  0
  186.0310  178.5430  142.3720 N   0  0  0  0  0  0  0  0  0  0  0  0
  187.8480  178.0860  139.0460 C   0  0  0  0  0  2  0  0  0  0  0  0
  190.1070  177.2020  139.5760 C   0  0  0  0  0  2  0  0  0  0  0  0
  186.8030  178.0160  144.6330 N   0  0  0  0  0  0  0  0  0  0  0  0
  187.7600  177.6460  145.5220 C   0  0  0  0  0  0  0  0  0  0  0  0
  183.5790  178.7250  141.8490 C   0  0  0  0  0  0  0  0  0  0  0  0
  185.2430  178.8480  139.9530 C   0  0  0  0  0  2  0  0  0  0  0  0
  189.7250  176.8860  147.4350 C   0  0  0  0  0  3  0  0  0  0  0  0
  182.8160  178.4320  139.5650 C   0  0  0  0  0  3  0  0  0  0  0  0
  189.3340  178.2000  138.7310 C   0  0  0  0  0  2  0  0  0  0  0  0
  186.3160  178.4920  140.9540 C   0  0  0  0  0  0  0  0  0  0  0  0
  187.5600  178.1970  140.5260 C   0  0  0  0  0  0  0  0  0  0  0  0
  188.3490  177.8100  142.8290 C   0  0  0  0  0  0  0  0  0  0  0  0
  188.4740  177.1650  147.8100 C   0  0  0  0  0  3  0  0  0  0  0  0
  181.2170  178.4110  141.3810 C   0  0  0  0  0  3  0  0  0  0  0  0
  183.8590  178.6220  140.4760 C   0  0  0  0  0  0  0  0  0  0  0  0
  187.4600  177.5600  146.8190 C   0  0  0  0  0  3  0  0  0  0  0  0
  182.2540  178.6150  142.2950 C   0  0  0  0  0  3  0  0  0  0  0  0
  190.0400  177.6190  141.0400 C   0  0  0  0  0  2  0  0  0  0  0  0
  188.6240  177.8470  141.5130 C   0  0  0  0  0  0  0  0  0  0  0  0
  189.3110  177.4510  143.7250 N   0  0  0  0  0  0  0  0  0  0  0  0
  184.6940  178.8980  142.7990 C   0  0  0  0  0  0  0  0  0  0  0  0
  184.4350  179.7170  144.2040 S   0  0  0  0  0  0  0  0  0  0  0  0
  190.1650  176.9590  145.9960 C   0  0  0  0  0  3  0  0  0  0  0  0
  187.0600  178.1260  143.3000 C   0  0  1  0  0  3  0  0  0  0  0  0
  189.0570  177.3640  145.0560 C   0  0  0  0  0  0  0  0  0  0  0  0
  180.4150  178.1100  139.0980 N   0  0  0  0  0  2  0  0  0  0  0  0
  180.1590  178.9910  137.9680 C   0  0  0  0  0  2  0  0  0  0  0  0
  180.0130  180.4260  138.4420 C   0  0  0  0  0  2  0  0  0  0  0  0
  180.6710  181.3940  137.4710 C   0  0  0  0  0  2  0  0  0  0  0  0
  181.4310  182.3340  138.1680 O   0  0  0  0  0  1  0  0  0  0  0  0
  1 16  1  0  0  0  0
  2 23  1  0  0  0  0
  2 26  1  0  0  0  0
  3 13  1  0  0  0  0
  4 20  1  0  0  0  0
  5  6  2  0  0  0  0
  6 18  1  0  0  0  0
  7 19  1  0  0  0  0
  7 23  1  0  0  0  0
  8 17  1  0  0  0  0
  8 12  1  0  0  0  0
  9 15  1  0  0  0  0
 10  1  2  0  0  0  0
 10 17  1  0  0  0  0
 11  3  1  0  0  0  0
 11  4  1  0  0  0  0
 12  2  1  0  0  0  0
 13 12  2  0  0  0  0
 13 21  1  0  0  0  0
 14 22  1  0  0  0  0
 16 19  2  0  0  0  0
 17  7  2  0  0  0  0
 18 15  2  0  0  0  0
 20 21  1  0  0  0  0
 21 14  2  0  0  0  0
 22 27  2  0  0  0  0
 23 24  2  0  0  0  0
 25  9  2  0  0  0  0
 26 14  1  6  0  0  0
 26  5  1  0  0  0  0
 27  6  1  0  0  0  0
 27 25  1  0  0  0  0
 28  1  1  0  0  0  0
 29 30  1  0  0  0  0
 29 28  1  0  0  0  0
 31 32  1  0  0  0  0
 31 30  1  0  0  0  0
M  END
>  <MODEL>
2

>  <REMARK>
 VINA RESULT:      -8.8      1.947      2.286
  Name = 
  4 active torsions:
  status: ('A' for Active; 'I' for Inactive)
    1  A    between atoms: C_1  and  C_20
    2  A    between atoms: C_2  and  N_24
    3  A    between atoms: C_10  and  C_20
    4  A    between atoms: C_10  and  N_24
                            x       y       z     vdW  Elec       q    Type
                         _______ _______ _______ _____ _____    ______ ____

>  <TORSDO>
F 4

$$$$
=
 OpenBabel10272413413D

 32 37  0  0  1  0  0  0  0  0999 V2000
  190.9140  175.4070  137.5950 C   0  0  0  0  0  0  0  0  0  0  0  0
  188.4830  177.6930  141.4780 N   0  0  0  0  0  0  0  0  0  0  0  0
  191.3630  176.8680  143.8440 C   0  0  0  0  0  2  0  0  0  0  0  0
  190.4380  176.9150  146.1480 C   0  0  0  0  0  2  0  0  0  0  0  0
  186.1310  178.1100  142.0040 N   0  0  0  0  0  0  0  0  0  0  0  0
  185.1130  178.3270  142.8760 C   0  0  0  0  0  0  0  0  0  0  0  0
  189.1860  176.9530  139.1810 C   0  0  0  0  0  0  0  0  0  0  0  0
  190.9150  177.0230  141.0220 C   0  0  0  0  0  2  0  0  0  0  0  0
  182.9400  178.7980  144.6510 C   0  0  0  0  0  3  0  0  0  0  0  0
  191.2940  175.7890  138.8900 C   0  0  0  0  0  3  0  0  0  0  0  0
  191.6060  177.3360  145.2730 C   0  0  0  0  0  2  0  0  0  0  0  0
  189.7880  177.3210  141.9830 C   0  0  0  0  0  0  0  0  0  0  0  0
  190.0200  177.3120  143.3110 C   0  0  0  0  0  0  0  0  0  0  0  0
  187.6720  177.8720  143.8080 C   0  0  0  0  0  0  0  0  0  0  0  0
  182.7520  178.7760  143.3300 C   0  0  0  0  0  3  0  0  0  0  0  0
  189.6720  175.8070  137.0950 C   0  0  0  0  0  3  0  0  0  0  0  0
  190.4320  176.5460  139.6880 C   0  0  0  0  0  0  0  0  0  0  0  0
  183.8780  178.5340  142.4130 C   0  0  0  0  0  3  0  0  0  0  0  0
  188.8110  176.5760  137.8830 C   0  0  0  0  0  3  0  0  0  0  0  0
  189.1950  177.6980  145.7440 C   0  0  0  0  0  2  0  0  0  0  0  0
  188.9090  177.6070  144.2630 C   0  0  0  0  0  0  0  0  0  0  0  0
  186.6500  178.1040  144.6810 N   0  0  0  0  0  0  0  0  0  0  0  0
  188.2770  177.7290  140.0460 C   0  0  0  0  0  0  0  0  0  0  0  0
  187.2320  178.8000  139.3590 S   0  0  0  0  0  0  0  0  0  0  0  0
  184.2950  178.5810  145.2730 C   0  0  0  0  0  3  0  0  0  0  0  0
  187.4080  177.9000  142.4250 C   0  0  1  0  0  3  0  0  0  0  0  0
  185.3810  178.3340  144.2560 C   0  0  0  0  0  0  0  0  0  0  0  0
  191.7780  174.6240  136.7700 N   0  0  0  0  0  2  0  0  0  0  0  0
  193.2200  174.8250  136.7180 C   0  0  0  0  0  2  0  0  0  0  0  0
  193.9250  173.7980  137.5870 C   0  0  0  0  0  2  0  0  0  0  0  0
  195.1660  174.3880  138.2350 C   0  0  0  0  0  2  0  0  0  0  0  0
  195.6530  173.5270  139.2190 O   0  0  0  0  0  1  0  0  0  0  0  0
  1 10  1  0  0  0  0
  2 12  1  0  0  0  0
  2 26  1  0  0  0  0
  3 11  1  0  0  0  0
  5  6  2  0  0  0  0
  6 27  1  0  0  0  0
  7 17  1  0  0  0  0
  7 23  1  0  0  0  0
  8 12  1  0  0  0  0
  9 25  2  0  0  0  0
 10 17  2  0  0  0  0
 11  4  1  0  0  0  0
 12 13  2  0  0  0  0
 13  3  1  0  0  0  0
 13 21  1  0  0  0  0
 14 21  2  0  0  0  0
 14 22  1  0  0  0  0
 15  9  1  0  0  0  0
 16  1  2  0  0  0  0
 16 19  1  0  0  0  0
 17  8  1  0  0  0  0
 18  6  1  0  0  0  0
 18 15  2  0  0  0  0
 19  7  2  0  0  0  0
 20  4  1  0  0  0  0
 21 20  1  0  0  0  0
 23  2  1  0  0  0  0
 24 23  2  0  0  0  0
 26  5  1  1  0  0  0
 26 14  1  0  0  0  0
 27 22  2  0  0  0  0
 27 25  1  0  0  0  0
 28  1  1  0  0  0  0
 29 28  1  0  0  0  0
 29 30  1  0  0  0  0
 30 31  1  0  0  0  0
 31 32  1  0  0  0  0
M  END
>  <MODEL>
3

>  <REMARK>
 VINA RESULT:      -8.7      3.705      8.193
  Name = 
  4 active torsions:
  status: ('A' for Active; 'I' for Inactive)
    1  A    between atoms: C_1  and  C_20
    2  A    between atoms: C_2  and  N_24
    3  A    between atoms: C_10  and  C_20
    4  A    between atoms: C_10  and  N_24
                            x       y       z     vdW  Elec       q    Type
                         _______ _______ _______ _____ _____    ______ ____

>  <TORSDO>
F 4

$$$$
=
 OpenBabel10272413413D

 32 37  0  0  0  0  0  0  0  0999 V2000
  190.0690  177.0520  145.5890 C   0  0  0  0  0  0  0  0  0  0  0  0
  189.6860  177.5440  140.5080 N   0  0  0  0  0  0  0  0  0  0  0  0
  186.0360  178.6160  140.8270 C   0  0  0  0  0  2  0  0  0  0  0  0
  184.9560  178.1540  138.6400 C   0  0  0  0  0  2  0  0  0  0  0  0
  190.8250  176.5080  138.6060 N   0  0  0  0  0  0  0  0  0  0  0  0
  190.8790  176.1010  137.3120 C   0  0  0  0  0  0  0  0  0  0  0  0
  190.5900  177.3160  142.8410 C   0  0  0  0  0  0  0  0  0  0  0  0
  188.3450  178.4250  142.5060 C   0  0  0  0  0  2  0  0  0  0  0  0
  191.0580  175.2380  134.6070 C   0  0  0  0  0  3  0  0  0  0  0  0
  189.1050  177.6090  144.7360 C   0  0  0  0  0  3  0  0  0  0  0  0
  185.0920  179.1640  139.7660 C   0  0  0  0  0  2  0  0  0  0  0  0
  188.4330  178.0210  141.0530 C   0  0  0  0  0  0  0  0  0  0  0  0
  187.3620  178.1740  140.2500 C   0  0  0  0  0  0  0  0  0  0  0  0
  188.5800  177.2560  138.3130 C   0  0  0  0  0  0  0  0  0  0  0  0
  192.0860  175.0840  135.4450 C   0  0  0  0  0  3  0  0  0  0  0  0
  191.2950  176.6360  145.0640 C   0  0  0  0  0  3  0  0  0  0  0  0
  189.3550  177.7300  143.3660 C   0  0  0  0  0  0  0  0  0  0  0  0
  191.9920  175.5340  136.8430 C   0  0  0  0  0  3  0  0  0  0  0  0
  191.5560  176.7670  143.6970 C   0  0  0  0  0  3  0  0  0  0  0  0
  186.2790  178.0470  137.8920 C   0  0  0  0  0  2  0  0  0  0  0  0
  187.4450  177.7790  138.8130 C   0  0  0  0  0  0  0  0  0  0  0  0
  188.6420  176.8590  137.0110 N   0  0  0  0  0  0  0  0  0  0  0  0
  190.8270  177.4250  141.3900 C   0  0  0  0  0  0  0  0  0  0  0  0
  192.3610  177.6630  140.8400 S   0  0  0  0  0  0  0  0  0  0  0  0
  189.7610  175.8710  135.0370 C   0  0  0  0  0  2  0  0  0  0  0  0
  189.7150  177.0980  139.1310 C   0  0  0  0  0  0  0  0  0  0  0  0
  189.7570  176.2910  136.4860 C   0  0  0  0  0  0  0  0  0  0  0  0
  189.8270  176.9130  146.9900 N   0  0  0  0  0  2  0  0  0  0  0  0
  189.2220  177.9620  147.7980 C   0  0  0  0  0  2  0  0  0  0  0  0
  187.8110  177.5680  148.2000 C   0  0  0  0  0  2  0  0  0  0  0  0
  186.7780  178.4160  147.4760 C   0  0  0  0  0  2  0  0  0  0  0  0
  186.1430  177.6630  146.4880 O   0  0  0  0  0  1  0  0  0  0  0  0
  1 28  1  0  0  0  0
  2 12  1  0  0  0  0
  2 23  1  0  0  0  0
  4 11  1  0  0  0  0
  5 26  2  0  0  0  0
  6  5  1  0  0  0  0
  7 17  2  0  0  0  0
  7 19  1  0  0  0  0
  8 17  1  0  0  0  0
  9 25  1  0  0  0  0
  9 15  2  0  0  0  0
 10  1  2  0  0  0  0
 11  3  1  0  0  0  0
 12  8  1  0  0  0  0
 13  3  1  0  0  0  0
 13 12  2  0  0  0  0
 14 21  2  0  0  0  0
 14 26  1  0  0  0  0
 15 18  1  0  0  0  0
 16  1  1  0  0  0  0
 17 10  1  0  0  0  0
 18  6  2  0  0  0  0
 19 16  2  0  0  0  0
 20  4  1  0  0  0  0
 20 21  1  0  0  0  0
 21 13  1  0  0  0  0
 22 14  1  0  0  0  0
 23  7  1  0  0  0  0
 24 23  2  0  0  0  0
 25 27  1  0  0  0  0
 26  2  1  0  0  0  0
 27 22  2  0  0  0  0
 27  6  1  0  0  0  0
 28 29  1  0  0  0  0
 29 30  1  0  0  0  0
 31 30  1  0  0  0  0
 32 31  1  0  0  0  0
M  END
>  <MODEL>
4

>  <REMARK>
 VINA RESULT:      -8.3      3.823      7.858
  Name = 
  4 active torsions:
  status: ('A' for Active; 'I' for Inactive)
    1  A    between atoms: C_1  and  C_20
    2  A    between atoms: C_2  and  N_24
    3  A    between atoms: C_10  and  C_20
    4  A    between atoms: C_10  and  N_24
                            x       y       z     vdW  Elec       q    Type
                         _______ _______ _______ _____ _____    ______ ____

>  <TORSDO>
F 4

$$$$
=
 OpenBabel10272413413D

 32 37  0  0  0  0  0  0  0  0999 V2000
  187.9120  177.2770  144.1730 C   0  0  0  0  0  0  0  0  0  0  0  0
  190.2670  177.2580  139.6280 N   0  0  0  0  0  0  0  0  0  0  0  0
  186.9790  178.0420  137.8540 C   0  0  0  0  0  2  0  0  0  0  0  0
  187.2320  177.2880  135.5020 C   0  0  0  0  0  2  0  0  0  0  0  0
  192.2630  176.1490  138.7490 N   0  0  0  0  0  0  0  0  0  0  0  0
  193.0040  175.6290  137.7370 C   0  0  0  0  0  0  0  0  0  0  0  0
  189.8030  177.3260  142.0970 C   0  0  0  0  0  0  0  0  0  0  0  0
  188.0520  178.2050  140.5020 C   0  0  0  0  0  2  0  0  0  0  0  0
  194.6080  174.5360  135.6570 C   0  0  0  0  0  3  0  0  0  0  0  0
  187.5330  177.6680  142.8810 C   0  0  0  0  0  3  0  0  0  0  0  0
  186.7280  178.4070  136.3970 C   0  0  0  0  0  2  0  0  0  0  0  0
  188.9050  177.6760  139.3730 C   0  0  0  0  0  0  0  0  0  0  0  0
  188.4190  177.6630  138.1160 C   0  0  0  0  0  0  0  0  0  0  0  0
  190.4980  176.6740  137.2350 C   0  0  0  0  0  0  0  0  0  0  0  0
  195.0400  174.5490  136.9210 C   0  0  0  0  0  3  0  0  0  0  0  0
  189.2390  176.9190  144.4240 C   0  0  0  0  0  3  0  0  0  0  0  0
  188.4680  177.6810  141.8410 C   0  0  0  0  0  0  0  0  0  0  0  0
  194.2090  175.1170  137.9950 C   0  0  0  0  0  3  0  0  0  0  0  0
  190.1810  176.9430  143.3920 C   0  0  0  0  0  3  0  0  0  0  0  0
  188.7530  177.2250  135.5770 C   0  0  0  0  0  2  0  0  0  0  0  0
  189.2600  177.1430  136.9970 C   0  0  0  0  0  0  0  0  0  0  0  0
  191.2490  176.1640  136.2180 N   0  0  0  0  0  0  0  0  0  0  0  0
  190.7700  177.3190  140.9830 C   0  0  0  0  0  0  0  0  0  0  0  0
  192.3570  177.6340  141.2930 S   0  0  0  0  0  0  0  0  0  0  0  0
  193.2660  175.0940  135.2630 C   0  0  0  0  0  2  0  0  0  0  0  0
  191.0310  176.6900  138.5380 C   0  0  0  0  0  0  0  0  0  0  0  0
  192.4860  175.6460  136.4300 C   0  0  0  0  0  0  0  0  0  0  0  0
  186.9670  177.2480  145.2450 N   0  0  0  0  0  2  0  0  0  0  0  0
  187.1520  177.9910  146.4830 C   0  0  0  0  0  2  0  0  0  0  0  0
  185.9020  178.7910  146.8080 C   0  0  0  0  0  2  0  0  0  0  0  0
  185.1460  179.1630  145.5430 C   0  0  0  0  0  2  0  0  0  0  0  0
  183.7710  179.1390  145.7780 O   0  0  0  0  0  1  0  0  0  0  0  0
  1 16  1  0  0  0  0
  1 28  1  0  0  0  0
  2 23  1  0  0  0  0
  3 13  1  0  0  0  0
  4 20  1  0  0  0  0
  4 11  1  0  0  0  0
  6 18  2  0  0  0  0
  6  5  1  0  0  0  0
  7 19  1  0  0  0  0
  8 17  1  0  0  0  0
  9 15  2  0  0  0  0
 10  1  2  0  0  0  0
 11  3  1  0  0  0  0
 12  2  1  0  0  0  0
 12  8  1  0  0  0  0
 13 12  2  0  0  0  0
 14 26  1  0  0  0  0
 15 18  1  0  0  0  0
 17  7  2  0  0  0  0
 17 10  1  0  0  0  0
 19 16  2  0  0  0  0
 20 21  1  0  0  0  0
 21 14  2  0  0  0  0
 21 13  1  0  0  0  0
 22 27  2  0  0  0  0
 22 14  1  0  0  0  0
 23 24  2  0  0  0  0
 23  7  1  0  0  0  0
 25  9  1  0  0  0  0
 25 27  1  0  0  0  0
 26  5  2  0  0  0  0
 26  2  1  0  0  0  0
 27  6  1  0  0  0  0
 28 29  1  0  0  0  0
 29 30  1  0  0  0  0
 31 32  1  0  0  0  0
 31 30  1  0  0  0  0
M  END
>  <MODEL>
5

>  <REMARK>
 VINA RESULT:      -8.3      3.948      7.245
  Name = 
  4 active torsions:
  status: ('A' for Active; 'I' for Inactive)
    1  A    between atoms: C_1  and  C_20
    2  A    between atoms: C_2  and  N_24
    3  A    between atoms: C_10  and  C_20
    4  A    between atoms: C_10  and  N_24
                            x       y       z     vdW  Elec       q    Type
                         _______ _______ _______ _____ _____    ______ ____

>  <TORSDO>
F 4

$$$$
=
 OpenBabel10272413413D

 32 37  0  0  1  0  0  0  0  0999 V2000
  188.9040  178.3930  137.8490 C   0  0  0  0  0  0  0  0  0  0  0  0
  187.3440  177.6370  142.6660 N   0  0  0  0  0  0  0  0  0  0  0  0
  183.8230  178.8110  141.7740 C   0  0  0  0  0  2  0  0  0  0  0  0
  182.7520  179.5490  143.8890 C   0  0  0  0  0  2  0  0  0  0  0  0
  188.4650  177.6490  144.8410 N   0  0  0  0  0  0  0  0  0  0  0  0
  188.4750  177.8120  146.1890 C   0  0  0  0  0  0  0  0  0  0  0  0
  188.6630  177.5820  140.5280 C   0  0  0  0  0  0  0  0  0  0  0  0
  186.1570  177.8750  140.4080 C   0  0  0  0  0  2  0  0  0  0  0  0
  188.5560  178.1240  149.0160 C   0  0  0  0  0  3  0  0  0  0  0  0
  187.6470  178.3740  138.4730 C   0  0  0  0  0  3  0  0  0  0  0  0
  182.5470  178.7640  142.6040 C   0  0  0  0  0  2  0  0  0  0  0  0
  186.1620  177.9980  141.9130 C   0  0  0  0  0  0  0  0  0  0  0  0
  185.0400  178.3760  142.5580 C   0  0  0  0  0  0  0  0  0  0  0  0
  186.1570  178.2440  144.7510 C   0  0  0  0  0  0  0  0  0  0  0  0
  189.6490  177.7740  148.3330 C   0  0  0  0  0  3  0  0  0  0  0  0
  190.0350  177.9990  138.5680 C   0  0  0  0  0  3  0  0  0  0  0  0
  187.5250  177.9840  139.8100 C   0  0  0  0  0  0  0  0  0  0  0  0
  189.6040  177.6100  146.8710 C   0  0  0  0  0  3  0  0  0  0  0  0
  189.9170  177.5950  139.9010 C   0  0  0  0  0  3  0  0  0  0  0  0
  183.7560  178.8200  144.7730 C   0  0  0  0  0  2  0  0  0  0  0  0
  185.0400  178.4970  144.0460 C   0  0  0  0  0  0  0  0  0  0  0  0
  186.1670  178.3930  146.1060 N   0  0  0  0  0  0  0  0  0  0  0  0
  188.5200  177.2000  141.9460 C   0  0  0  0  0  0  0  0  0  0  0  0
  189.5550  176.0920  142.5890 S   0  0  0  0  0  0  0  0  0  0  0  0
  187.2320  178.3690  148.3390 C   0  0  0  0  0  3  0  0  0  0  0  0
  187.3380  177.8360  144.1000 C   0  0  1  0  0  3  0  0  0  0  0  0
  187.2870  178.1850  146.8440 C   0  0  0  0  0  0  0  0  0  0  0  0
  189.0480  178.7980  136.4870 N   0  0  0  0  0  2  0  0  0  0  0  0
  189.0520  177.8560  135.3770 C   0  0  0  0  0  2  0  0  0  0  0  0
  187.6380  177.6410  134.8660 C   0  0  0  0  0  2  0  0  0  0  0  0
  187.1390  176.2460  135.2070 C   0  0  0  0  0  2  0  0  0  0  0  0
  188.1240  175.5360  135.8950 O   0  0  0  0  0  1  0  0  0  0  0  0
  1 10  2  0  0  0  0
  1 16  1  0  0  0  0
  2 26  1  0  0  0  0
  3 13  1  0  0  0  0
  3 11  1  0  0  0  0
  4 20  1  0  0  0  0
  5  6  2  0  0  0  0
  6 27  1  0  0  0  0
  6 18  1  0  0  0  0
  7 23  1  0  0  0  0
  8 12  1  0  0  0  0
 10 17  1  0  0  0  0
 11  4  1  0  0  0  0
 12 13  2  0  0  0  0
 12  2  1  0  0  0  0
 13 21  1  0  0  0  0
 14 22  1  0  0  0  0
 15  9  1  0  0  0  0
 16 19  2  0  0  0  0
 17  8  1  0  0  0  0
 17  7  2  0  0  0  0
 18 15  2  0  0  0  0
 19  7  1  0  0  0  0
 21 14  2  0  0  0  0
 21 20  1  0  0  0  0
 22 27  2  0  0  0  0
 23 24  2  0  0  0  0
 23  2  1  0  0  0  0
 25  9  2  0  0  0  0
 26 14  1  6  0  0  0
 26  5  1  0  0  0  0
 27 25  1  0  0  0  0
 28  1  1  0  0  0  0
 29 28  1  0  0  0  0
 30 31  1  0  0  0  0
 30 29  1  0  0  0  0
 31 32  1  0  0  0  0
M  END
>  <MODEL>
6

>  <REMARK>
 VINA RESULT:      -8.2      2.695      5.915
  Name = 
  4 active torsions:
  status: ('A' for Active; 'I' for Inactive)
    1  A    between atoms: C_1  and  C_20
    2  A    between atoms: C_2  and  N_24
    3  A    between atoms: C_10  and  C_20
    4  A    between atoms: C_10  and  N_24
                            x       y       z     vdW  Elec       q    Type
                         _______ _______ _______ _____ _____    ______ ____

>  <TORSDO>
F 4

$$$$
=
 OpenBabel10272413413D

 32 37  0  0  1  0  0  0  0  0999 V2000
  192.9390  175.7580  137.1990 C   0  0  0  0  0  0  0  0  0  0  0  0
  189.4900  177.9310  140.2960 N   0  0  0  0  0  0  0  0  0  0  0  0
  191.6030  177.0640  143.3550 C   0  0  0  0  0  2  0  0  0  0  0  0
  190.0700  177.0470  145.3080 C   0  0  0  0  0  2  0  0  0  0  0  0
  187.0790  178.3200  140.1520 N   0  0  0  0  0  0  0  0  0  0  0  0
  185.8550  178.5090  140.7090 C   0  0  0  0  0  0  0  0  0  0  0  0
  190.8160  177.2530  138.2720 C   0  0  0  0  0  0  0  0  0  0  0  0
  191.9600  177.2880  140.5250 C   0  0  0  0  0  2  0  0  0  0  0  0
  183.2660  178.9220  141.8150 C   0  0  0  0  0  3  0  0  0  0  0  0
  192.9370  176.1100  138.5570 C   0  0  0  0  0  3  0  0  0  0  0  0
  191.4310  177.4970  144.8050 C   0  0  0  0  0  2  0  0  0  0  0  0
  190.6050  177.5550  141.1380 C   0  0  0  0  0  0  0  0  0  0  0  0
  190.4570  177.5130  142.4770 C   0  0  0  0  0  0  0  0  0  0  0  0
  188.0560  178.0470  142.3100 C   0  0  0  0  0  0  0  0  0  0  0  0
  183.4560  178.9320  140.4940 C   0  0  0  0  0  3  0  0  0  0  0  0
  191.8810  176.1630  136.3810 C   0  0  0  0  0  3  0  0  0  0  0  0
  191.8760  176.8420  139.0980 C   0  0  0  0  0  0  0  0  0  0  0  0
  184.7960  178.7200  139.9240 C   0  0  0  0  0  3  0  0  0  0  0  0
  190.8250  176.9070  136.9130 C   0  0  0  0  0  3  0  0  0  0  0  0
  188.9790  177.8320  144.5900 C   0  0  0  0  0  2  0  0  0  0  0  0
  189.1200  177.7780  143.0870 C   0  0  0  0  0  0  0  0  0  0  0  0
  186.8290  178.2500  142.8660 N   0  0  0  0  0  0  0  0  0  0  0  0
  189.6920  178.0010  138.8650 C   0  0  0  0  0  0  0  0  0  0  0  0
  188.8670  179.0830  137.9380 S   0  0  0  0  0  0  0  0  0  0  0  0
  184.3960  178.6970  142.7860 C   0  0  0  0  0  3  0  0  0  0  0  0
  188.1900  178.1080  140.9090 C   0  0  1  0  0  3  0  0  0  0  0  0
  185.7270  178.4830  142.1090 C   0  0  0  0  0  0  0  0  0  0  0  0
  194.0100  175.0020  136.6310 N   0  0  0  0  0  2  0  0  0  0  0  0
  194.7730  175.4540  135.4770 C   0  0  0  0  0  2  0  0  0  0  0  0
  196.0800  174.6860  135.3780 C   0  0  0  0  0  2  0  0  0  0  0  0
  197.2740  175.6110  135.5500 C   0  0  0  0  0  2  0  0  0  0  0  0
  197.6670  175.6470  136.8880 O   0  0  0  0  0  1  0  0  0  0  0  0
  1 10  1  0  0  0  0
  2 26  1  0  0  0  0
  2 12  1  0  0  0  0
  3 11  1  0  0  0  0
  5  6  2  0  0  0  0
  6 27  1  0  0  0  0
  7 23  1  0  0  0  0
  7 17  1  0  0  0  0
  8 12  1  0  0  0  0
  9 25  2  0  0  0  0
 10 17  2  0  0  0  0
 11  4  1  0  0  0  0
 12 13  2  0  0  0  0
 13 21  1  0  0  0  0
 13  3  1  0  0  0  0
 14 22  1  0  0  0  0
 14 21  2  0  0  0  0
 15  9  1  0  0  0  0
 16 19  1  0  0  0  0
 16  1  2  0  0  0  0
 17  8  1  0  0  0  0
 18 15  2  0  0  0  0
 18  6  1  0  0  0  0
 19  7  2  0  0  0  0
 20  4  1  0  0  0  0
 21 20  1  0  0  0  0
 23  2  1  0  0  0  0
 24 23  2  0  0  0  0
 26  5  1  6  0  0  0
 26 14  1  0  0  0  0
 27 25  1  0  0  0  0
 27 22  2  0  0  0  0
 28  1  1  0  0  0  0
 29 28  1  0  0  0  0
 30 29  1  0  0  0  0
 30 31  1  0  0  0  0
 31 32  1  0  0  0  0
M  END
>  <MODEL>
7

>  <REMARK>
 VINA RESULT:      -8.1      4.585      9.377
  Name = 
  4 active torsions:
  status: ('A' for Active; 'I' for Inactive)
    1  A    between atoms: C_1  and  C_20
    2  A    between atoms: C_2  and  N_24
    3  A    between atoms: C_10  and  C_20
    4  A    between atoms: C_10  and  N_24
                            x       y       z     vdW  Elec       q    Type
                         _______ _______ _______ _____ _____    ______ ____

>  <TORSDO>
F 4

$$$$
=
 OpenBabel10272413413D

 32 37  0  0  0  0  0  0  0  0999 V2000
  188.4490  177.1430  145.8480 C   0  0  0  0  0  0  0  0  0  0  0  0
  185.4250  178.3750  141.9050 N   0  0  0  0  0  0  0  0  0  0  0  0
  182.4390  178.7880  144.2480 C   0  0  0  0  0  2  0  0  0  0  0  0
  180.3950  178.5160  142.8640 C   0  0  0  0  0  2  0  0  0  0  0  0
  185.4450  177.8500  139.5160 N   0  0  0  0  0  0  0  0  0  0  0  0
  184.8310  177.6700  138.3180 C   0  0  0  0  0  0  0  0  0  0  0  0
  187.4320  177.9230  143.3480 C   0  0  0  0  0  0  0  0  0  0  0  0
  185.2930  178.7000  144.4440 C   0  0  0  0  0  2  0  0  0  0  0  0
  183.6050  177.2900  135.7790 C   0  0  0  0  0  3  0  0  0  0  0  0
  187.1530  177.6690  145.7440 C   0  0  0  0  0  3  0  0  0  0  0  0
  181.0510  179.3430  143.9580 C   0  0  0  0  0  2  0  0  0  0  0  0
  184.6240  178.5530  143.0970 C   0  0  0  0  0  0  0  0  0  0  0  0
  183.2840  178.6610  143.0000 C   0  0  0  0  0  0  0  0  0  0  0  0
  183.3460  178.2700  140.5670 C   0  0  0  0  0  0  0  0  0  0  0  0
  184.9260  177.1700  135.9260 C   0  0  0  0  0  3  0  0  0  0  0  0
  189.2350  177.0160  144.7000 C   0  0  0  0  0  3  0  0  0  0  0  0
  186.6380  178.0460  144.5010 C   0  0  0  0  0  0  0  0  0  0  0  0
  185.5590  177.3690  137.2410 C   0  0  0  0  0  3  0  0  0  0  0  0
  188.7310  177.4040  143.4560 C   0  0  0  0  0  3  0  0  0  0  0  0
  181.1310  178.7430  141.5490 C   0  0  0  0  0  2  0  0  0  0  0  0
  182.6190  178.5190  141.6710 C   0  0  0  0  0  0  0  0  0  0  0  0
  182.7340  178.1020  139.3610 N   0  0  0  0  0  0  0  0  0  0  0  0
  186.8640  178.2990  142.0400 C   0  0  0  0  0  0  0  0  0  0  0  0
  187.8640  178.8630  140.8600 S   0  0  0  0  0  0  0  0  0  0  0  0
  182.6970  177.6320  136.9320 C   0  0  0  0  0  2  0  0  0  0  0  0
  184.7490  178.1650  140.6430 C   0  0  0  0  0  0  0  0  0  0  0  0
  183.4340  177.8090  138.2350 C   0  0  0  0  0  0  0  0  0  0  0  0
  188.9880  176.7440  147.1100 N   0  0  0  0  0  2  0  0  0  0  0  0
  190.3870  176.9300  147.4680 C   0  0  0  0  0  2  0  0  0  0  0  0
  191.1110  175.5950  147.4720 C   0  0  0  0  0  2  0  0  0  0  0  0
  192.6180  175.7890  147.4480 C   0  0  0  0  0  2  0  0  0  0  0  0
  193.0570  176.3070  148.6670 O   0  0  0  0  0  1  0  0  0  0  0  0
  1 28  1  0  0  0  0
  2 23  1  0  0  0  0
  2 12  1  0  0  0  0
  4 11  1  0  0  0  0
  5 26  2  0  0  0  0
  6  5  1  0  0  0  0
  7 19  2  0  0  0  0
  7 17  1  0  0  0  0
  8 17  1  0  0  0  0
  9 15  2  0  0  0  0
  9 25  1  0  0  0  0
 10  1  1  0  0  0  0
 11  3  1  0  0  0  0
 12  8  1  0  0  0  0
 13 12  2  0  0  0  0
 13  3  1  0  0  0  0
 14 26  1  0  0  0  0
 14 21  2  0  0  0  0
 15 18  1  0  0  0  0
 16  1  2  0  0  0  0
 17 10  2  0  0  0  0
 18  6  2  0  0  0  0
 19 16  1  0  0  0  0
 20 21  1  0  0  0  0
 20  4  1  0  0  0  0
 21 13  1  0  0  0  0
 22 14  1  0  0  0  0
 23  7  1  0  0  0  0
 24 23  2  0  0  0  0
 25 27  1  0  0  0  0
 26  2  1  0  0  0  0
 27  6  1  0  0  0  0
 27 22  2  0  0  0  0
 28 29  1  0  0  0  0
 29 30  1  0  0  0  0
 31 30  1  0  0  0  0
 31 32  1  0  0  0  0
M  END
>  <MODEL>
8

>  <REMARK>
 VINA RESULT:      -8.1      3.373      8.716
  Name = 
  4 active torsions:
  status: ('A' for Active; 'I' for Inactive)
    1  A    between atoms: C_1  and  C_20
    2  A    between atoms: C_2  and  N_24
    3  A    between atoms: C_10  and  C_20
    4  A    between atoms: C_10  and  N_24
                            x       y       z     vdW  Elec       q    Type
                         _______ _______ _______ _____ _____    ______ ____

>  <TORSDO>
F 4

$$$$
=
 OpenBabel10272413413D

 32 37  0  0  1  0  0  0  0  0999 V2000
  182.6370  178.0970  138.5740 C   0  0  0  0  0  0  0  0  0  0  0  0
  187.1880  178.2520  140.9130 N   0  0  0  0  0  0  0  0  0  0  0  0
  188.9580  177.3190  137.6620 C   0  0  0  0  0  2  0  0  0  0  0  0
  191.1510  176.3390  138.2910 C   0  0  0  0  0  2  0  0  0  0  0  0
  187.9290  177.9130  143.2200 N   0  0  0  0  0  0  0  0  0  0  0  0
  188.8600  177.5720  144.1470 C   0  0  0  0  0  0  0  0  0  0  0  0
  184.7540  178.5500  140.3640 C   0  0  0  0  0  0  0  0  0  0  0  0
  186.4160  178.3550  138.4720 C   0  0  0  0  0  2  0  0  0  0  0  0
  190.7720  176.8820  146.1380 C   0  0  0  0  0  3  0  0  0  0  0  0
  183.9640  178.0720  138.1210 C   0  0  0  0  0  3  0  0  0  0  0  0
  190.4470  177.2940  137.3430 C   0  0  0  0  0  2  0  0  0  0  0  0
  187.4650  178.0310  139.5100 C   0  0  0  0  0  0  0  0  0  0  0  0
  188.6830  177.6060  139.1210 C   0  0  0  0  0  0  0  0  0  0  0  0
  189.4500  177.4090  141.4550 C   0  0  0  0  0  0  0  0  0  0  0  0
  189.5460  177.2860  146.4770 C   0  0  0  0  0  3  0  0  0  0  0  0
  182.3740  178.3560  139.9210 C   0  0  0  0  0  3  0  0  0  0  0  0
  185.0210  178.2840  139.0110 C   0  0  0  0  0  0  0  0  0  0  0  0
  188.5590  177.6450  145.4450 C   0  0  0  0  0  3  0  0  0  0  0  0
  183.4250  178.5820  140.8130 C   0  0  0  0  0  3  0  0  0  0  0  0
  191.1180  176.9120  139.7030 C   0  0  0  0  0  2  0  0  0  0  0  0
  189.7230  177.2880  140.1430 C   0  0  0  0  0  0  0  0  0  0  0  0
  190.3880  177.0800  142.3880 N   0  0  0  0  0  0  0  0  0  0  0  0
  185.8820  178.7440  141.2950 C   0  0  0  0  0  0  0  0  0  0  0  0
  185.6850  179.7220  142.6040 S   0  0  0  0  0  0  0  0  0  0  0  0
  191.2120  176.7720  144.7010 C   0  0  0  0  0  3  0  0  0  0  0  0
  188.1880  177.8630  141.8850 C   0  0  1  0  0  3  0  0  0  0  0  0
  190.1320  177.1520  143.7190 C   0  0  0  0  0  0  0  0  0  0  0  0
  181.5450  177.8740  137.6800 N   0  0  0  0  0  2  0  0  0  0  0  0
  181.3800  176.6400  136.9240 C   0  0  0  0  0  2  0  0  0  0  0  0
  181.2030  175.4640  137.8690 C   0  0  0  0  0  2  0  0  0  0  0  0
  179.9820  175.6510  138.7540 C   0  0  0  0  0  2  0  0  0  0  0  0
  180.3370  175.5360  140.0980 O   0  0  0  0  0  1  0  0  0  0  0  0
  1 16  1  0  0  0  0
  2 23  1  0  0  0  0
  2 26  1  0  0  0  0
  3 13  1  0  0  0  0
  4 20  1  0  0  0  0
  5  6  2  0  0  0  0
  6 18  1  0  0  0  0
  7 19  1  0  0  0  0
  7 23  1  0  0  0  0
  8 17  1  0  0  0  0
  8 12  1  0  0  0  0
  9 15  1  0  0  0  0
 10  1  2  0  0  0  0
 10 17  1  0  0  0  0
 11  3  1  0  0  0  0
 11  4  1  0  0  0  0
 12  2  1  0  0  0  0
 13 12  2  0  0  0  0
 13 21  1  0  0  0  0
 14 22  1  0  0  0  0
 16 19  2  0  0  0  0
 17  7  2  0  0  0  0
 18 15  2  0  0  0  0
 20 21  1  0  0  0  0
 21 14  2  0  0  0  0
 22 27  2  0  0  0  0
 23 24  2  0  0  0  0
 25  9  2  0  0  0  0
 26 14  1  6  0  0  0
 26  5  1  0  0  0  0
 27  6  1  0  0  0  0
 27 25  1  0  0  0  0
 28  1  1  0  0  0  0
 29 28  1  0  0  0  0
 29 30  1  0  0  0  0
 30 31  1  0  0  0  0
 31 32  1  0  0  0  0
M  END
>  <MODEL>
9

>  <REMARK>
 VINA RESULT:      -7.5      1.858      2.587
  Name = 
  4 active torsions:
  status: ('A' for Active; 'I' for Inactive)
    1  A    between atoms: C_1  and  C_20
    2  A    between atoms: C_2  and  N_24
    3  A    between atoms: C_10  and  C_20
    4  A    between atoms: C_10  and  N_24
                            x       y       z     vdW  Elec       q    Type
                         _______ _______ _______ _____ _____    ______ ____

>  <TORSDO>
F 4

$$$$
