=
 OpenBabel10272401503D

 28 31  0  0  1  0  0  0  0  0999 V2000
  185.5150  177.9680  145.0300 C   0  0  2  0  0  3  0  0  0  0  0  0
  188.8530  178.1270  147.7150 C   0  0  0  0  0  1  0  0  0  0  0  0
  188.5070  177.1880  142.6350 C   0  0  2  0  0  3  0  0  0  0  0  0
  188.0130  177.9540  145.3910 N   0  0  2  0  0  0  0  0  0  0  0  0
  187.2020  177.8540  143.0730 C   0  0  0  0  0  2  0  0  0  0  0  0
  186.4660  178.5350  147.2580 C   0  0  0  0  0  2  0  0  0  0  0  0
  189.1910  177.1540  145.0350 C   0  0  0  0  0  2  0  0  0  0  0  0
  187.6940  177.7250  146.8120 C   0  0  2  0  0  3  0  0  0  0  0  0
  189.6400  177.4930  143.6160 C   0  0  0  0  0  2  0  0  0  0  0  0
  185.6250  179.0490  146.0940 C   0  0  0  0  0  2  0  0  0  0  0  0
  186.9030  177.4870  144.5320 C   0  0  2  0  0  3  0  0  0  0  0  0
  187.9730  178.2220  140.4760 C   0  0  0  0  0  3  0  0  0  0  0  0
  190.0810  176.4310  139.4300 C   0  0  0  0  0  2  0  0  0  0  0  0
  189.1820  178.3220  138.1540 C   0  0  0  0  0  0  0  0  0  0  0  0
  188.8720  177.5720  141.2300 C   0  0  0  0  0  0  0  0  0  0  0  0
  190.9370  176.4600  141.6310 F   0  0  0  0  0  0  0  0  0  0  0  0
  190.0290  177.3480  138.3040 N   0  0  0  0  0  0  0  0  0  0  0  0
  190.2310  177.2160  140.7120 C   0  0  1  0  0  3  0  0  0  0  0  0
  189.2450  179.1260  136.9070 C   0  0  0  0  0  1  0  0  0  0  0  0
  188.1540  178.6380  139.1120 N   0  0  0  0  0  2  0  0  0  0  0  0
  184.5020  178.2890  143.9630 C   0  0  0  0  0  0  0  0  0  0  0  0
  184.8000  178.0810  142.6070 C   0  0  0  0  0  3  0  0  0  0  0  0
  182.2740  179.0300  143.3390 C   0  0  0  0  0  0  0  0  0  0  0  0
  183.8450  178.3520  141.6250 C   0  0  0  0  0  3  0  0  0  0  0  0
  182.9190  178.9520  145.6340 F   0  0  0  0  0  0  0  0  0  0  0  0
  183.2300  178.7600  144.3270 C   0  0  0  0  0  0  0  0  0  0  0  0
  181.0150  179.5000  143.6920 O   0  0  0  0  0  1  0  0  0  0  0  0
  182.5840  178.8270  141.9910 C   0  0  0  0  0  3  0  0  0  0  0  0
  1 21  1  6  0  0  0
  1 10  1  0  0  0  0
  3 15  1  6  0  0  0
  3  5  1  0  0  0  0
  3  9  1  0  0  0  0
  4  7  1  6  0  0  0
  4  8  1  0  0  0  0
  8  6  1  0  0  0  0
  8  2  1  1  0  0  0
  9  7  1  0  0  0  0
 10  6  1  0  0  0  0
 11  5  1  6  0  0  0
 11  1  1  0  0  0  0
 11  4  1  0  0  0  0
 12 15  2  0  0  0  0
 13 18  1  0  0  0  0
 14 17  2  0  0  0  0
 14 20  1  0  0  0  0
 17 13  1  0  0  0  0
 18 15  1  0  0  0  0
 18 16  1  1  0  0  0
 19 14  1  0  0  0  0
 20 12  1  0  0  0  0
 21 26  1  0  0  0  0
 22 21  2  0  0  0  0
 23 27  1  0  0  0  0
 23 26  2  0  0  0  0
 24 28  2  0  0  0  0
 24 22  1  0  0  0  0
 26 25  1  0  0  0  0
 28 23  1  0  0  0  0
M  END
>  <MODEL>
1

>  <REMARK>
 VINA RESULT:     -10.9      0.000      0.000
  Name = 
  2 active torsions:
  status: ('A' for Active; 'I' for Inactive)
    1  A    between atoms: C_1  and  C_2
    2  A    between atoms: C_10  and  C_13
                            x       y       z     vdW  Elec       q    Type
                         _______ _______ _______ _____ _____    ______ ____

>  <TORSDO>
F 2

$$$$
=
 OpenBabel10272401503D

 28 31  0  0  1  0  0  0  0  0999 V2000
  185.9330  178.1090  145.4620 C   0  0  2  0  0  3  0  0  0  0  0  0
  188.3440  178.3240  149.0010 C   0  0  0  0  0  1  0  0  0  0  0  0
  189.3470  176.6850  144.1930 C   0  0  2  0  0  3  0  0  0  0  0  0
  188.1940  177.8960  146.5650 N   0  0  2  0  0  0  0  0  0  0  0  0
  188.0790  177.5360  144.1370 C   0  0  0  0  0  2  0  0  0  0  0  0
  186.2710  178.9000  147.7970 C   0  0  0  0  0  2  0  0  0  0  0  0
  189.2990  176.9370  146.6750 C   0  0  0  0  0  2  0  0  0  0  0  0
  187.4490  177.9120  147.8380 C   0  0  2  0  0  3  0  0  0  0  0  0
  190.1810  177.0150  145.4320 C   0  0  0  0  0  2  0  0  0  0  0  0
  185.8830  179.3190  146.3820 C   0  0  0  0  0  2  0  0  0  0  0  0
  187.3240  177.4210  145.4660 C   0  0  2  0  0  3  0  0  0  0  0  0
  191.4410  177.1760  143.0150 C   0  0  0  0  0  3  0  0  0  0  0  0
  189.6710  177.7410  140.7140 C   0  0  0  0  0  2  0  0  0  0  0  0
  192.0950  177.4410  140.4920 C   0  0  0  0  0  0  0  0  0  0  0  0
  190.1520  176.8180  142.9320 C   0  0  0  0  0  0  0  0  0  0  0  0
  188.1360  176.2960  141.7790 F   0  0  0  0  0  0  0  0  0  0  0  0
  190.9140  177.6030  139.9740 N   0  0  0  0  0  0  0  0  0  0  0  0
  189.4880  176.5440  141.6180 C   0  0  1  0  0  3  0  0  0  0  0  0
  193.2630  177.3720  139.5770 C   0  0  0  0  0  1  0  0  0  0  0  0
  192.3390  177.3700  141.9090 N   0  0  0  0  0  2  0  0  0  0  0  0
  185.3270  178.3700  144.1080 C   0  0  0  0  0  0  0  0  0  0  0  0
  186.1250  178.3680  142.9540 C   0  0  0  0  0  3  0  0  0  0  0  0
  183.3700  178.7860  142.7300 C   0  0  0  0  0  0  0  0  0  0  0  0
  185.5510  178.5800  141.6990 C   0  0  0  0  0  3  0  0  0  0  0  0
  183.1520  178.5630  145.0960 F   0  0  0  0  0  0  0  0  0  0  0  0
  183.9420  178.5730  143.9910 C   0  0  0  0  0  0  0  0  0  0  0  0
  182.0010  178.9920  142.6080 O   0  0  0  0  0  1  0  0  0  0  0  0
  184.1750  178.7900  141.5870 C   0  0  0  0  0  3  0  0  0  0  0  0
  1 21  1  6  0  0  0
  1 11  1  0  0  0  0
  1 10  1  0  0  0  0
  3 15  1  6  0  0  0
  3  9  1  0  0  0  0
  4  7  1  1  0  0  0
  4  8  1  0  0  0  0
  5  3  1  0  0  0  0
  6  8  1  0  0  0  0
  8  2  1  1  0  0  0
  9  7  1  0  0  0  0
 10  6  1  0  0  0  0
 11  5  1  6  0  0  0
 11  4  1  0  0  0  0
 13 18  1  0  0  0  0
 14 20  1  0  0  0  0
 15 12  2  0  0  0  0
 17 14  2  0  0  0  0
 17 13  1  0  0  0  0
 18 16  1  1  0  0  0
 18 15  1  0  0  0  0
 19 14  1  0  0  0  0
 20 12  1  0  0  0  0
 22 21  2  0  0  0  0
 23 26  2  0  0  0  0
 24 22  1  0  0  0  0
 26 21  1  0  0  0  0
 26 25  1  0  0  0  0
 27 23  1  0  0  0  0
 28 24  2  0  0  0  0
 28 23  1  0  0  0  0
M  END
>  <MODEL>
2

>  <REMARK>
 VINA RESULT:     -10.3      1.627      2.249
  Name = 
  2 active torsions:
  status: ('A' for Active; 'I' for Inactive)
    1  A    between atoms: C_1  and  C_2
    2  A    between atoms: C_10  and  C_13
                            x       y       z     vdW  Elec       q    Type
                         _______ _______ _______ _____ _____    ______ ____

>  <TORSDO>
F 2

$$$$
=
 OpenBabel10272401503D

 28 31  0  0  1  0  0  0  0  0999 V2000
  187.8770  178.0240  145.4130 C   0  0  2  0  0  3  0  0  0  0  0  0
  183.7290  178.7120  144.5720 C   0  0  0  0  0  1  0  0  0  0  0  0
  187.9000  178.4010  141.5210 C   0  0  2  0  0  3  0  0  0  0  0  0
  186.0170  178.2780  143.7250 N   0  0  2  0  0  0  0  0  0  0  0  0
  188.2650  177.7770  142.8680 C   0  0  0  0  0  2  0  0  0  0  0  0
  185.5020  178.0600  146.1560 C   0  0  0  0  0  2  0  0  0  0  0  0
  185.7030  179.0430  142.5130 C   0  0  0  0  0  2  0  0  0  0  0  0
  185.2250  178.8160  144.8460 C   0  0  2  0  0  3  0  0  0  0  0  0
  186.3860  178.4070  141.3050 C   0  0  0  0  0  2  0  0  0  0  0  0
  186.7840  177.2330  146.1160 C   0  0  0  0  0  2  0  0  0  0  0  0
  187.4620  178.4590  143.9830 C   0  0  2  0  0  3  0  0  0  0  0  0
  189.7370  177.0280  140.6500 C   0  0  0  0  0  3  0  0  0  0  0  0
  189.1310  178.3670  138.0840 C   0  0  0  0  0  2  0  0  0  0  0  0
  190.5360  176.3640  138.2460 C   0  0  0  0  0  0  0  0  0  0  0  0
  188.6180  177.7190  140.3900 C   0  0  0  0  0  0  0  0  0  0  0  0
  186.9650  178.6790  138.9720 F   0  0  0  0  0  0  0  0  0  0  0  0
  189.9050  177.2600  137.5480 N   0  0  0  0  0  0  0  0  0  0  0  0
  188.0600  177.8330  139.0060 C   0  0  1  0  0  3  0  0  0  0  0  0
  191.3220  175.3320  137.5220 C   0  0  0  0  0  1  0  0  0  0  0  0
  190.5520  176.3410  139.6850 N   0  0  0  0  0  2  0  0  0  0  0  0
  189.2390  177.3970  145.5470 C   0  0  0  0  0  0  0  0  0  0  0  0
  189.8600  176.7920  144.4430 C   0  0  0  0  0  3  0  0  0  0  0  0
  191.1980  176.9020  146.8950 C   0  0  0  0  0  0  0  0  0  0  0  0
  191.1370  176.2410  144.5670 C   0  0  0  0  0  3  0  0  0  0  0  0
  189.3380  178.0510  147.8490 F   0  0  0  0  0  0  0  0  0  0  0  0
  189.9170  177.4560  146.7750 C   0  0  0  0  0  0  0  0  0  0  0  0
  191.8730  176.9530  148.1090 O   0  0  0  0  0  1  0  0  0  0  0  0
  191.8050  176.2940  145.7920 C   0  0  0  0  0  3  0  0  0  0  0  0
  1 21  1  6  0  0  0
  1 10  1  0  0  0  0
  3 15  1  6  0  0  0
  3  5  1  0  0  0  0
  4  7  1  6  0  0  0
  4 11  1  0  0  0  0
  4  8  1  0  0  0  0
  8  2  1  6  0  0  0
  8  6  1  0  0  0  0
  9  3  1  0  0  0  0
  9  7  1  0  0  0  0
 10  6  1  0  0  0  0
 11  5  1  6  0  0  0
 11  1  1  0  0  0  0
 13 18  1  0  0  0  0
 14 20  1  0  0  0  0
 15 12  2  0  0  0  0
 17 13  1  0  0  0  0
 17 14  2  0  0  0  0
 18 16  1  1  0  0  0
 18 15  1  0  0  0  0
 19 14  1  0  0  0  0
 20 12  1  0  0  0  0
 21 26  1  0  0  0  0
 22 24  1  0  0  0  0
 22 21  2  0  0  0  0
 23 27  1  0  0  0  0
 24 28  2  0  0  0  0
 26 23  2  0  0  0  0
 26 25  1  0  0  0  0
 28 23  1  0  0  0  0
M  END
>  <MODEL>
3

>  <REMARK>
 VINA RESULT:     -10.3      3.134      5.226
  Name = 
  2 active torsions:
  status: ('A' for Active; 'I' for Inactive)
    1  A    between atoms: C_1  and  C_2
    2  A    between atoms: C_10  and  C_13
                            x       y       z     vdW  Elec       q    Type
                         _______ _______ _______ _____ _____    ______ ____

>  <TORSDO>
F 2

$$$$
=
 OpenBabel10272401503D

 28 31  0  0  1  0  0  0  0  0999 V2000
  187.6310  177.3370  145.6560 C   0  0  2  0  0  3  0  0  0  0  0  0
  191.5760  176.9760  147.2930 C   0  0  0  0  0  1  0  0  0  0  0  0
  189.7850  176.7810  142.4400 C   0  0  2  0  0  3  0  0  0  0  0  0
  190.1240  177.1690  145.2960 N   0  0  2  0  0  0  0  0  0  0  0  0
  188.7060  177.4310  143.3060 C   0  0  0  0  0  2  0  0  0  0  0  0
  189.1940  177.5430  147.5800 C   0  0  0  0  0  2  0  0  0  0  0  0
  191.0920  176.3800  144.5270 C   0  0  0  0  0  2  0  0  0  0  0  0
  190.1860  176.7540  146.7090 C   0  0  2  0  0  3  0  0  0  0  0  0
  191.1630  176.8970  143.0930 C   0  0  0  0  0  2  0  0  0  0  0  0
  188.1120  178.2510  146.7720 C   0  0  0  0  0  2  0  0  0  0  0  0
  188.7880  176.8740  144.7320 C   0  0  2  0  0  3  0  0  0  0  0  0
  188.6500  177.8730  140.5590 C   0  0  0  0  0  3  0  0  0  0  0  0
  190.7720  176.6120  138.9300 C   0  0  0  0  0  2  0  0  0  0  0  0
  189.3200  178.3970  138.0820 C   0  0  0  0  0  0  0  0  0  0  0  0
  189.7820  177.3450  141.0470 C   0  0  0  0  0  0  0  0  0  0  0  0
  192.0450  176.6170  140.9190 F   0  0  0  0  0  0  0  0  0  0  0  0
  190.3330  177.5930  137.9520 N   0  0  0  0  0  0  0  0  0  0  0  0
  191.0460  177.3000  140.2460 C   0  0  1  0  0  3  0  0  0  0  0  0
  188.9880  179.3010  136.9510 C   0  0  0  0  0  1  0  0  0  0  0  0
  188.4740  178.4290  139.2450 N   0  0  0  0  0  2  0  0  0  0  0  0
  186.3940  177.8480  144.9640 C   0  0  0  0  0  0  0  0  0  0  0  0
  186.2990  177.8320  143.5640 C   0  0  0  0  0  3  0  0  0  0  0  0
  184.1420  178.7500  145.0880 C   0  0  0  0  0  0  0  0  0  0  0  0
  185.1370  178.2780  142.9320 C   0  0  0  0  0  3  0  0  0  0  0  0
  185.3750  178.3110  147.0830 F   0  0  0  0  0  0  0  0  0  0  0  0
  185.3060  178.3030  145.7270 C   0  0  0  0  0  0  0  0  0  0  0  0
  183.0640  179.2050  145.8370 O   0  0  0  0  0  1  0  0  0  0  0  0
  184.0600  178.7380  143.6930 C   0  0  0  0  0  3  0  0  0  0  0  0
  1 21  1  6  0  0  0
  1 10  1  0  0  0  0
  3 15  1  6  0  0  0
  3  9  1  0  0  0  0
  3  5  1  0  0  0  0
  4  7  1  6  0  0  0
  4  8  1  0  0  0  0
  8  2  1  1  0  0  0
  8  6  1  0  0  0  0
  9  7  1  0  0  0  0
 10  6  1  0  0  0  0
 11  5  1  6  0  0  0
 11  4  1  0  0  0  0
 11  1  1  0  0  0  0
 12 15  2  0  0  0  0
 13 18  1  0  0  0  0
 14 20  1  0  0  0  0
 17 14  2  0  0  0  0
 17 13  1  0  0  0  0
 18 16  1  1  0  0  0
 18 15  1  0  0  0  0
 19 14  1  0  0  0  0
 20 12  1  0  0  0  0
 21 26  1  0  0  0  0
 22 21  2  0  0  0  0
 23 26  2  0  0  0  0
 23 27  1  0  0  0  0
 24 22  1  0  0  0  0
 24 28  2  0  0  0  0
 26 25  1  0  0  0  0
 28 23  1  0  0  0  0
M  END
>  <MODEL>
4

>  <REMARK>
 VINA RESULT:     -10.2      1.426      1.986
  Name = 
  2 active torsions:
  status: ('A' for Active; 'I' for Inactive)
    1  A    between atoms: C_1  and  C_2
    2  A    between atoms: C_10  and  C_13
                            x       y       z     vdW  Elec       q    Type
                         _______ _______ _______ _____ _____    ______ ____

>  <TORSDO>
F 2

$$$$
=
 OpenBabel10272401503D

 28 31  0  0  1  0  0  0  0  0999 V2000
  187.8360  177.8810  144.2230 C   0  0  2  0  0  3  0  0  0  0  0  0
  183.7280  178.7890  143.3960 C   0  0  0  0  0  1  0  0  0  0  0  0
  187.8970  178.4130  140.3490 C   0  0  2  0  0  3  0  0  0  0  0  0
  185.9980  178.2870  142.5400 N   0  0  2  0  0  0  0  0  0  0  0  0
  188.2250  177.7200  141.6710 C   0  0  0  0  0  2  0  0  0  0  0  0
  185.4610  177.9940  144.9580 C   0  0  0  0  0  2  0  0  0  0  0  0
  185.7250  179.1140  141.3590 C   0  0  0  0  0  2  0  0  0  0  0  0
  185.2250  178.8150  143.6800 C   0  0  2  0  0  3  0  0  0  0  0  0
  186.3850  178.4970  140.1290 C   0  0  0  0  0  2  0  0  0  0  0  0
  186.7040  177.1130  144.8900 C   0  0  0  0  0  2  0  0  0  0  0  0
  187.4490  178.3920  142.8100 C   0  0  2  0  0  3  0  0  0  0  0  0
  187.8550  177.2880  138.1700 C   0  0  0  0  0  3  0  0  0  0  0  0
  190.4510  176.1630  139.0320 C   0  0  0  0  0  2  0  0  0  0  0  0
  189.6590  176.0700  136.7130 C   0  0  0  0  0  0  0  0  0  0  0  0
  188.5890  177.7470  139.1940 C   0  0  0  0  0  0  0  0  0  0  0  0
  190.6020  178.0650  140.4240 F   0  0  0  0  0  0  0  0  0  0  0  0
  190.5770  175.8780  137.6120 N   0  0  0  0  0  0  0  0  0  0  0  0
  190.0800  177.6150  139.2230 C   0  0  1  0  0  3  0  0  0  0  0  0
  189.9490  175.6690  135.3120 C   0  0  0  0  0  1  0  0  0  0  0  0
  188.3570  176.6090  137.0060 N   0  0  0  0  0  2  0  0  0  0  0  0
  189.1680  177.1870  144.3350 C   0  0  0  0  0  0  0  0  0  0  0  0
  189.6580  176.4020  143.2800 C   0  0  0  0  0  3  0  0  0  0  0  0
  191.2050  176.7450  145.5840 C   0  0  0  0  0  0  0  0  0  0  0  0
  190.9080  175.7890  143.3790 C   0  0  0  0  0  3  0  0  0  0  0  0
  189.4990  178.1320  146.5120 F   0  0  0  0  0  0  0  0  0  0  0  0
  189.9510  177.3630  145.4880 C   0  0  0  0  0  0  0  0  0  0  0  0
  191.9820  176.9120  146.7230 O   0  0  0  0  0  1  0  0  0  0  0  0
  191.6800  175.9590  144.5300 C   0  0  0  0  0  3  0  0  0  0  0  0
  1 21  1  6  0  0  0
  1 10  1  0  0  0  0
  3 15  1  6  0  0  0
  3  5  1  0  0  0  0
  4  7  1  6  0  0  0
  4 11  1  0  0  0  0
  4  8  1  0  0  0  0
  8  2  1  6  0  0  0
  8  6  1  0  0  0  0
  9  3  1  0  0  0  0
  9  7  1  0  0  0  0
 10  6  1  0  0  0  0
 11  5  1  6  0  0  0
 11  1  1  0  0  0  0
 12 15  2  0  0  0  0
 13 18  1  0  0  0  0
 14 20  1  0  0  0  0
 14 17  2  0  0  0  0
 15 18  1  0  0  0  0
 17 13  1  0  0  0  0
 18 16  1  1  0  0  0
 19 14  1  0  0  0  0
 20 12  1  0  0  0  0
 21 26  1  0  0  0  0
 22 24  1  0  0  0  0
 22 21  2  0  0  0  0
 23 27  1  0  0  0  0
 24 28  2  0  0  0  0
 26 23  2  0  0  0  0
 26 25  1  0  0  0  0
 28 23  1  0  0  0  0
M  END
>  <MODEL>
5

>  <REMARK>
 VINA RESULT:     -10.2      3.035      5.136
  Name = 
  2 active torsions:
  status: ('A' for Active; 'I' for Inactive)
    1  A    between atoms: C_1  and  C_2
    2  A    between atoms: C_10  and  C_13
                            x       y       z     vdW  Elec       q    Type
                         _______ _______ _______ _____ _____    ______ ____

>  <TORSDO>
F 2

$$$$
=
 OpenBabel10272401503D

 28 31  0  0  1  0  0  0  0  0999 V2000
  189.2330  177.8460  144.8170 C   0  0  2  0  0  3  0  0  0  0  0  0
  187.9530  177.4570  148.8900 C   0  0  0  0  0  1  0  0  0  0  0  0
  185.4400  178.7600  144.5550 C   0  0  2  0  0  3  0  0  0  0  0  0
  187.3610  177.8050  146.5100 N   0  0  2  0  0  0  0  0  0  0  0  0
  186.7460  178.0800  144.1460 C   0  0  0  0  0  2  0  0  0  0  0  0
  189.6680  177.1110  147.1540 C   0  0  0  0  0  2  0  0  0  0  0  0
  186.2090  178.6140  146.9240 C   0  0  0  0  0  2  0  0  0  0  0  0
  188.4240  177.9360  147.5220 C   0  0  2  0  0  3  0  0  0  0  0  0
  185.0360  178.3730  145.9790 C   0  0  0  0  0  2  0  0  0  0  0  0
  189.7020  176.6900  145.6880 C   0  0  0  0  0  2  0  0  0  0  0  0
  187.8180  178.3450  145.2110 C   0  0  2  0  0  3  0  0  0  0  0  0
  184.6650  178.1300  142.3140 C   0  0  0  0  0  3  0  0  0  0  0  0
  182.1780  179.5220  143.1050 C   0  0  0  0  0  2  0  0  0  0  0  0
  182.3180  178.0400  141.1560 C   0  0  0  0  0  0  0  0  0  0  0  0
  184.3420  178.4730  143.5700 C   0  0  0  0  0  0  0  0  0  0  0  0
  182.8360  179.0470  145.3220 F   0  0  0  0  0  0  0  0  0  0  0  0
  181.6360  178.7790  141.9800 N   0  0  0  0  0  0  0  0  0  0  0  0
  182.9190  178.5780  144.0220 C   0  0  1  0  0  3  0  0  0  0  0  0
  181.5990  177.3940  140.0280 C   0  0  0  0  0  1  0  0  0  0  0  0
  183.7410  177.8480  141.2500 N   0  0  0  0  0  2  0  0  0  0  0  0
  189.4690  177.6130  143.3480 C   0  0  0  0  0  0  0  0  0  0  0  0
  188.3920  177.3910  142.4760 C   0  0  0  0  0  3  0  0  0  0  0  0
  190.9970  177.4780  141.4640 C   0  0  0  0  0  0  0  0  0  0  0  0
  188.6170  177.2070  141.1110 C   0  0  0  0  0  3  0  0  0  0  0  0
  191.8280  177.8930  143.6610 F   0  0  0  0  0  0  0  0  0  0  0  0
  190.7760  177.6630  142.8350 C   0  0  0  0  0  0  0  0  0  0  0  0
  192.2870  177.5230  140.9510 O   0  0  0  0  0  1  0  0  0  0  0  0
  189.9180  177.2500  140.6050 C   0  0  0  0  0  3  0  0  0  0  0  0
  1 21  1  6  0  0  0
  1 11  1  0  0  0  0
  1 10  1  0  0  0  0
  3 15  1  6  0  0  0
  3  9  1  0  0  0  0
  4  7  1  1  0  0  0
  4  8  1  0  0  0  0
  5  3  1  0  0  0  0
  6  8  1  0  0  0  0
  8  2  1  1  0  0  0
  9  7  1  0  0  0  0
 10  6  1  0  0  0  0
 11  5  1  6  0  0  0
 11  4  1  0  0  0  0
 12 15  2  0  0  0  0
 13 18  1  0  0  0  0
 14 20  1  0  0  0  0
 14 17  2  0  0  0  0
 15 18  1  0  0  0  0
 17 13  1  0  0  0  0
 18 16  1  1  0  0  0
 19 14  1  0  0  0  0
 20 12  1  0  0  0  0
 22 21  2  0  0  0  0
 23 26  2  0  0  0  0
 24 22  1  0  0  0  0
 26 21  1  0  0  0  0
 26 25  1  0  0  0  0
 27 23  1  0  0  0  0
 28 24  2  0  0  0  0
 28 23  1  0  0  0  0
M  END
>  <MODEL>
6

>  <REMARK>
 VINA RESULT:      -9.9      3.043      6.321
  Name = 
  2 active torsions:
  status: ('A' for Active; 'I' for Inactive)
    1  A    between atoms: C_1  and  C_2
    2  A    between atoms: C_10  and  C_13
                            x       y       z     vdW  Elec       q    Type
                         _______ _______ _______ _____ _____    ______ ____

>  <TORSDO>
F 2

$$$$
=
 OpenBabel10272401503D

 28 31  0  0  1  0  0  0  0  0999 V2000
  189.3160  177.8950  143.6780 C   0  0  2  0  0  3  0  0  0  0  0  0
  188.7090  176.9660  147.8190 C   0  0  0  0  0  1  0  0  0  0  0  0
  185.5060  178.6550  144.1190 C   0  0  2  0  0  3  0  0  0  0  0  0
  187.7380  177.5660  145.6210 N   0  0  2  0  0  0  0  0  0  0  0  0
  186.7490  178.0900  143.4330 C   0  0  0  0  0  2  0  0  0  0  0  0
  190.1360  176.9080  145.8100 C   0  0  0  0  0  2  0  0  0  0  0  0
  186.6450  178.2660  146.3050 C   0  0  0  0  0  2  0  0  0  0  0  0
  188.9450  177.6260  146.4660 C   0  0  2  0  0  3  0  0  0  0  0  0
  185.3440  178.0840  145.5290 C   0  0  0  0  0  2  0  0  0  0  0  0
  189.9490  176.6660  144.3160 C   0  0  0  0  0  2  0  0  0  0  0  0
  187.9680  178.2770  144.3440 C   0  0  2  0  0  3  0  0  0  0  0  0
  184.4100  178.1420  141.9860 C   0  0  0  0  0  3  0  0  0  0  0  0
  182.0970  179.5530  143.1730 C   0  0  0  0  0  2  0  0  0  0  0  0
  181.9220  178.1550  141.1650 C   0  0  0  0  0  0  0  0  0  0  0  0
  184.2750  178.4360  143.2870 C   0  0  0  0  0  0  0  0  0  0  0  0
  183.0440  178.9660  145.2550 F   0  0  0  0  0  0  0  0  0  0  0  0
  181.3830  178.8720  142.1060 N   0  0  0  0  0  0  0  0  0  0  0  0
  182.9310  178.5530  143.9380 C   0  0  1  0  0  3  0  0  0  0  0  0
  181.0350  177.5750  140.1240 C   0  0  0  0  0  1  0  0  0  0  0  0
  183.3390  177.9280  141.0510 N   0  0  0  0  0  2  0  0  0  0  0  0
  189.3230  177.8480  142.1730 C   0  0  0  0  0  0  0  0  0  0  0  0
  188.2370  178.3450  141.4370 C   0  0  0  0  0  3  0  0  0  0  0  0
  190.4690  177.3300  140.0940 C   0  0  0  0  0  0  0  0  0  0  0  0
  188.2640  178.3280  140.0410 C   0  0  0  0  0  3  0  0  0  0  0  0
  191.5130  176.8760  142.1910 F   0  0  0  0  0  0  0  0  0  0  0  0
  190.4460  177.3460  141.4950 C   0  0  0  0  0  0  0  0  0  0  0  0
  191.5750  176.8300  139.4180 O   0  0  0  0  0  1  0  0  0  0  0  0
  189.3780  177.8200  139.3700 C   0  0  0  0  0  3  0  0  0  0  0  0
  1 21  1  6  0  0  0
  1 10  1  0  0  0  0
  1 11  1  0  0  0  0
  3 15  1  6  0  0  0
  3  9  1  0  0  0  0
  4  7  1  1  0  0  0
  4  8  1  0  0  0  0
  5  3  1  0  0  0  0
  6  8  1  0  0  0  0
  8  2  1  1  0  0  0
  9  7  1  0  0  0  0
 10  6  1  0  0  0  0
 11  5  1  6  0  0  0
 11  4  1  0  0  0  0
 12 15  2  0  0  0  0
 13 18  1  0  0  0  0
 14 17  2  0  0  0  0
 15 18  1  0  0  0  0
 17 13  1  0  0  0  0
 18 16  1  1  0  0  0
 19 14  1  0  0  0  0
 20 14  1  0  0  0  0
 20 12  1  0  0  0  0
 22 21  2  0  0  0  0
 23 26  2  0  0  0  0
 24 22  1  0  0  0  0
 26 21  1  0  0  0  0
 26 25  1  0  0  0  0
 27 23  1  0  0  0  0
 28 24  2  0  0  0  0
 28 23  1  0  0  0  0
M  END
>  <MODEL>
7

>  <REMARK>
 VINA RESULT:      -9.6      2.972      6.367
  Name = 
  2 active torsions:
  status: ('A' for Active; 'I' for Inactive)
    1  A    between atoms: C_1  and  C_2
    2  A    between atoms: C_10  and  C_13
                            x       y       z     vdW  Elec       q    Type
                         _______ _______ _______ _____ _____    ______ ____

>  <TORSDO>
F 2

$$$$
=
 OpenBabel10272401503D

 28 31  0  0  1  0  0  0  0  0999 V2000
  189.1240  177.7910  144.9030 C   0  0  2  0  0  3  0  0  0  0  0  0
  187.8570  177.3170  148.9710 C   0  0  0  0  0  1  0  0  0  0  0  0
  185.4640  179.1630  144.7670 C   0  0  2  0  0  3  0  0  0  0  0  0
  187.2810  177.8720  146.6260 N   0  0  2  0  0  0  0  0  0  0  0  0
  186.6750  178.3580  144.2950 C   0  0  0  0  0  2  0  0  0  0  0  0
  189.4970  176.8730  147.1850 C   0  0  0  0  0  2  0  0  0  0  0  0
  186.2400  178.7870  147.1090 C   0  0  0  0  0  2  0  0  0  0  0  0
  188.3660  177.8170  147.6240 C   0  0  2  0  0  3  0  0  0  0  0  0
  185.0350  178.7430  146.1740 C   0  0  0  0  0  2  0  0  0  0  0  0
  189.4620  176.5380  145.6970 C   0  0  0  0  0  2  0  0  0  0  0  0
  187.7840  178.4310  145.3520 C   0  0  2  0  0  3  0  0  0  0  0  0
  183.0980  178.7880  144.2420 C   0  0  0  0  0  3  0  0  0  0  0  0
  184.1080  178.0950  141.5510 C   0  0  0  0  0  2  0  0  0  0  0  0
  181.7410  178.5390  142.0150 C   0  0  0  0  0  0  0  0  0  0  0  0
  184.3280  179.0670  143.7890 C   0  0  0  0  0  0  0  0  0  0  0  0
  185.9600  179.4540  142.0990 F   0  0  0  0  0  0  0  0  0  0  0  0
  182.7160  178.3010  141.1890 N   0  0  0  0  0  0  0  0  0  0  0  0
  184.6060  179.2870  142.3340 C   0  0  1  0  0  3  0  0  0  0  0  0
  180.3670  178.6700  141.4670 C   0  0  0  0  0  1  0  0  0  0  0  0
  181.9130  178.6390  143.4410 N   0  0  0  0  0  2  0  0  0  0  0  0
  189.3130  177.6190  143.4180 C   0  0  0  0  0  0  0  0  0  0  0  0
  188.2090  177.4150  142.5760 C   0  0  0  0  0  3  0  0  0  0  0  0
  190.7760  177.5800  141.4800 C   0  0  0  0  0  0  0  0  0  0  0  0
  188.3890  177.2880  141.1970 C   0  0  0  0  0  3  0  0  0  0  0  0
  191.6770  177.9210  143.6620 F   0  0  0  0  0  0  0  0  0  0  0  0
  190.6000  177.7080  142.8640 C   0  0  0  0  0  0  0  0  0  0  0  0
  192.0470  177.6630  140.9250 O   0  0  0  0  0  1  0  0  0  0  0  0
  189.6710  177.3690  140.6490 C   0  0  0  0  0  3  0  0  0  0  0  0
  1 21  1  6  0  0  0
  1 11  1  0  0  0  0
  1 10  1  0  0  0  0
  3 15  1  6  0  0  0
  3  9  1  0  0  0  0
  4  7  1  1  0  0  0
  4  8  1  0  0  0  0
  5  3  1  0  0  0  0
  6  8  1  0  0  0  0
  8  2  1  1  0  0  0
  9  7  1  0  0  0  0
 10  6  1  0  0  0  0
 11  5  1  6  0  0  0
 11  4  1  0  0  0  0
 13 18  1  0  0  0  0
 14 20  1  0  0  0  0
 15 12  2  0  0  0  0
 17 13  1  0  0  0  0
 17 14  2  0  0  0  0
 18 16  1  1  0  0  0
 18 15  1  0  0  0  0
 19 14  1  0  0  0  0
 20 12  1  0  0  0  0
 22 21  2  0  0  0  0
 23 26  2  0  0  0  0
 24 22  1  0  0  0  0
 26 21  1  0  0  0  0
 26 25  1  0  0  0  0
 27 23  1  0  0  0  0
 28 24  2  0  0  0  0
 28 23  1  0  0  0  0
M  END
>  <MODEL>
8

>  <REMARK>
 VINA RESULT:      -9.6      3.279      6.139
  Name = 
  2 active torsions:
  status: ('A' for Active; 'I' for Inactive)
    1  A    between atoms: C_1  and  C_2
    2  A    between atoms: C_10  and  C_13
                            x       y       z     vdW  Elec       q    Type
                         _______ _______ _______ _____ _____    ______ ____

>  <TORSDO>
F 2

$$$$
=
 OpenBabel10272401503D

 28 31  0  0  1  0  0  0  0  0999 V2000
  187.5570  178.3570  143.2330 C   0  0  2  0  0  3  0  0  0  0  0  0
  183.3030  178.7540  142.8750 C   0  0  0  0  0  1  0  0  0  0  0  0
  187.0850  178.4520  139.3520 C   0  0  2  0  0  3  0  0  0  0  0  0
  185.4940  178.3860  141.7790 N   0  0  2  0  0  0  0  0  0  0  0  0
  187.6490  177.9480  140.6810 C   0  0  0  0  0  2  0  0  0  0  0  0
  185.2920  178.3170  144.2640 C   0  0  0  0  0  2  0  0  0  0  0  0
  184.9880  179.0430  140.5680 C   0  0  0  0  0  2  0  0  0  0  0  0
  184.8110  178.9600  142.9530 C   0  0  2  0  0  3  0  0  0  0  0  0
  185.5580  178.3600  139.3290 C   0  0  0  0  0  2  0  0  0  0  0  0
  186.6090  177.5610  144.1180 C   0  0  0  0  0  2  0  0  0  0  0  0
  186.9450  178.6640  141.8410 C   0  0  2  0  0  3  0  0  0  0  0  0
  187.1340  176.6000  137.7450 C   0  0  0  0  0  3  0  0  0  0  0  0
  190.0140  177.2410  137.5420 C   0  0  0  0  0  2  0  0  0  0  0  0
  188.8480  175.8050  135.9310 C   0  0  0  0  0  0  0  0  0  0  0  0
  187.7020  177.7310  138.1880 C   0  0  0  0  0  0  0  0  0  0  0  0
  189.3920  179.4060  138.2510 F   0  0  0  0  0  0  0  0  0  0  0  0
  189.9040  176.4530  136.3250 N   0  0  0  0  0  0  0  0  0  0  0  0
  188.9360  178.2980  137.5570 C   0  0  1  0  0  3  0  0  0  0  0  0
  188.9370  175.0080  134.6810 C   0  0  0  0  0  1  0  0  0  0  0  0
  187.6100  175.7810  136.6630 N   0  0  0  0  0  2  0  0  0  0  0  0
  188.9630  177.8170  143.2360 C   0  0  0  0  0  0  0  0  0  0  0  0
  190.0630  178.6850  143.3110 C   0  0  0  0  0  3  0  0  0  0  0  0
  190.4820  175.9210  143.2440 C   0  0  0  0  0  0  0  0  0  0  0  0
  191.3620  178.1750  143.3460 C   0  0  0  0  0  3  0  0  0  0  0  0
  188.1230  175.5740  143.1520 F   0  0  0  0  0  0  0  0  0  0  0  0
  189.1770  176.4290  143.2090 C   0  0  0  0  0  0  0  0  0  0  0  0
  190.7010  174.5500  143.2130 O   0  0  0  0  0  1  0  0  0  0  0  0
  191.5720  176.7950  143.3110 C   0  0  0  0  0  3  0  0  0  0  0  0
  1 21  1  6  0  0  0
  1 10  1  0  0  0  0
  3 15  1  6  0  0  0
  3  5  1  0  0  0  0
  4  7  1  6  0  0  0
  4 11  1  0  0  0  0
  4  8  1  0  0  0  0
  8  2  1  6  0  0  0
  8  6  1  0  0  0  0
  9  3  1  0  0  0  0
  9  7  1  0  0  0  0
 10  6  1  0  0  0  0
 11  5  1  6  0  0  0
 11  1  1  0  0  0  0
 12 15  2  0  0  0  0
 13 18  1  0  0  0  0
 14 17  2  0  0  0  0
 14 20  1  0  0  0  0
 17 13  1  0  0  0  0
 18 15  1  0  0  0  0
 18 16  1  1  0  0  0
 19 14  1  0  0  0  0
 20 12  1  0  0  0  0
 21 22  1  0  0  0  0
 22 24  2  0  0  0  0
 23 28  2  0  0  0  0
 25 26  1  0  0  0  0
 26 21  2  0  0  0  0
 26 23  1  0  0  0  0
 27 23  1  0  0  0  0
 28 24  1  0  0  0  0
M  END
>  <MODEL>
9

>  <REMARK>
 VINA RESULT:      -9.6      3.187      5.415
  Name = 
  2 active torsions:
  status: ('A' for Active; 'I' for Inactive)
    1  A    between atoms: C_1  and  C_2
    2  A    between atoms: C_10  and  C_13
                            x       y       z     vdW  Elec       q    Type
                         _______ _______ _______ _____ _____    ______ ____

>  <TORSDO>
F 2

$$$$
