=
 OpenBabel10272415243D

 34 37  0  0  1  0  0  0  0  0999 V2000
  188.6490  176.9380  144.9520 C   0  0  1  0  0  3  0  0  0  0  0  0
  186.4520  178.3780  146.3770 C   0  0  0  0  0  2  0  0  0  0  0  0
  189.8200  177.0780  147.2820 C   0  0  0  0  0  2  0  0  0  0  0  0
  189.4700  177.8570  148.5490 C   0  0  0  0  0  2  0  0  0  0  0  0
  187.9050  178.4200  146.8190 C   0  0  2  0  0  3  0  0  0  0  0  0
  188.5490  177.1100  146.4700 C   0  0  1  0  0  3  0  0  0  0  0  0
  188.1170  178.5270  148.3070 C   0  0  0  0  0  2  0  0  0  0  0  0
  186.4060  178.2010  144.8480 C   0  0  1  0  0  3  0  0  0  0  0  0
  187.2220  176.8600  143.0020 O   0  0  0  0  0  1  0  0  0  0  0  0
  187.2090  176.9590  144.3960 C   0  0  1  0  0  3  0  0  0  0  0  0
  184.9600  178.0830  144.3870 C   0  0  0  0  0  2  0  0  0  0  0  0
  184.5760  179.2460  143.4780 C   0  0  2  0  0  3  0  0  0  0  0  0
  183.5080  179.9520  144.0410 O   0  0  0  0  0  1  0  0  0  0  0  0
  184.2070  178.7530  142.0780 C   0  0  2  0  0  0  0  0  0  0  0  0
  184.9010  179.4910  141.1170 O   0  0  0  0  0  1  0  0  0  0  0  0
  182.7180  178.9330  141.8430 C   0  0  0  0  0  1  0  0  0  0  0  0
  184.5260  177.4130  141.9420 F   0  0  0  0  0  0  0  0  0  0  0  0
  189.5130  178.0170  144.2850 C   0  0  0  0  0  2  0  0  0  0  0  0
  190.3930  177.4350  143.2300 C   0  0  0  0  0  0  0  0  0  0  0  0
  191.3730  176.5220  143.5990 O   0  0  0  0  0  1  0  0  0  0  0  0
  190.2190  177.8070  141.9570 C   0  0  0  0  0  3  0  0  0  0  0  0
  193.1370  177.2210  139.6570 C   0  0  0  0  0  3  0  0  0  0  0  0
  190.4050  176.6060  139.7420 C   0  0  0  0  0  3  0  0  0  0  0  0
  192.7450  175.3470  136.4840 C   0  0  0  0  0  0  0  0  0  0  0  0
  193.3300  176.0740  137.5300 C   0  0  0  0  0  3  0  0  0  0  0  0
  192.5560  176.4950  138.6150 C   0  0  0  0  0  0  0  0  0  0  0  0
  190.5960  175.4610  137.6150 C   0  0  0  0  0  3  0  0  0  0  0  0
  191.1790  176.1850  138.6570 C   0  0  0  0  0  0  0  0  0  0  0  0
  191.3770  175.0440  136.5340 C   0  0  0  0  0  3  0  0  0  0  0  0
  190.9890  177.3350  140.7900 C   0  0  0  0  0  0  0  0  0  0  0  0
  192.3560  177.6380  140.7380 C   0  0  0  0  0  3  0  0  0  0  0  0
  193.5570  174.9010  135.3400 C   0  0  0  0  0  0  0  0  0  0  0  0
  193.5520  173.5660  134.9540 O   0  0  0  0  0  1  0  0  0  0  0  0
  194.2630  175.7250  134.6980 O   0  0  0  0  0  0  0  0  0  0  0  0
  1 18  1  6  0  0  0
  1  6  1  0  0  0  0
  3  4  1  0  0  0  0
  5  2  1  1  0  0  0
  5  7  1  0  0  0  0
  6  5  1  0  0  0  0
  6  3  1  1  0  0  0
  7  4  1  0  0  0  0
  8 11  1  1  0  0  0
  8  2  1  0  0  0  0
 10  9  1  6  0  0  0
 10  8  1  0  0  0  0
 10  1  1  0  0  0  0
 12 13  1  1  0  0  0
 12 11  1  0  0  0  0
 14 16  1  6  0  0  0
 14 12  1  0  0  0  0
 15 14  1  0  0  0  0
 17 14  1  0  0  0  0
 19 20  1  0  0  0  0
 19 18  1  0  0  0  0
 21 19  2  0  0  0  0
 22 31  1  0  0  0  0
 23 30  1  0  0  0  0
 24 29  1  0  0  0  0
 24 25  2  0  0  0  0
 25 26  1  0  0  0  0
 26 28  1  0  0  0  0
 26 22  2  0  0  0  0
 27 28  1  0  0  0  0
 28 23  2  0  0  0  0
 29 27  2  0  0  0  0
 30 21  1  0  0  0  0
 31 30  2  0  0  0  0
 32 24  1  0  0  0  0
 33 32  1  0  0  0  0
 34 32  2  0  0  0  0
M  END
>  <MODEL>
1

>  <REMARK>
 VINA RESULT:      -8.9      0.000      0.000
  Name = 
  7 active torsions:
  status: ('A' for Active; 'I' for Inactive)
    1  A    between atoms: C_1  and  C_9
    2  A    between atoms: C_2  and  C_23
    3  A    between atoms: C_2  and  C_32
    4  A    between atoms: C_3  and  C_23
    5  A    between atoms: C_7  and  C_11
    6  A    between atoms: C_8  and  C_9
    7  A    between atoms: C_18  and  C_30
                            x       y       z     vdW  Elec       q    Type
                         _______ _______ _______ _____ _____    ______ ____

>  <TORSDO>
F 7

$$$$
=
 OpenBabel10272415243D

 34 37  0  0  1  0  0  0  0  0999 V2000
  182.1100  178.5080  139.5350 C   0  0  1  0  0  3  0  0  0  0  0  0
  180.7010  178.2440  136.9140 C   0  0  0  0  0  2  0  0  0  0  0  0
  181.6100  181.0470  139.1880 C   0  0  0  0  0  2  0  0  0  0  0  0
  181.0950  181.8240  137.9770 C   0  0  0  0  0  2  0  0  0  0  0  0
  181.3870  179.5200  137.3710 C   0  0  2  0  0  3  0  0  0  0  0  0
  181.2850  179.6090  138.8650 C   0  0  1  0  0  3  0  0  0  0  0  0
  180.7400  180.7970  136.9000 C   0  0  0  0  0  2  0  0  0  0  0  0
  181.4370  177.0400  137.5280 C   0  0  1  0  0  3  0  0  0  0  0  0
  182.2690  176.0960  139.5990 O   0  0  0  0  0  1  0  0  0  0  0  0
  181.5290  177.1560  139.0670 C   0  0  1  0  0  3  0  0  0  0  0  0
  180.7250  175.7510  137.1440 C   0  0  0  0  0  2  0  0  0  0  0  0
  181.6700  174.7930  136.4250 C   0  0  2  0  0  3  0  0  0  0  0  0
  181.5600  174.9710  135.0430 O   0  0  0  0  0  1  0  0  0  0  0  0
  181.3720  173.3400  136.7990 C   0  0  2  0  0  0  0  0  0  0  0  0
  180.8610  172.6610  135.6910 O   0  0  0  0  0  1  0  0  0  0  0  0
  180.3400  173.2950  137.9110 C   0  0  0  0  0  1  0  0  0  0  0  0
  182.5260  172.7090  137.2290 F   0  0  0  0  0  0  0  0  0  0  0  0
  183.6080  178.6050  139.2150 C   0  0  0  0  0  2  0  0  0  0  0  0
  184.4220  178.7610  140.4550 C   0  0  0  0  0  0  0  0  0  0  0  0
  185.5600  179.5580  140.4180 O   0  0  0  0  0  1  0  0  0  0  0  0
  184.0380  178.1310  141.5720 C   0  0  0  0  0  3  0  0  0  0  0  0
  184.6090  178.8090  145.2270 C   0  0  0  0  0  3  0  0  0  0  0  0
  186.0140  177.6820  143.0810 C   0  0  0  0  0  3  0  0  0  0  0  0
  187.7950  177.8960  146.8830 C   0  0  0  0  0  0  0  0  0  0  0  0
  186.4970  178.3870  146.6860 C   0  0  0  0  0  3  0  0  0  0  0  0
  185.9010  178.3190  145.4240 C   0  0  0  0  0  0  0  0  0  0  0  0
  187.9030  177.2610  144.5390 C   0  0  0  0  0  3  0  0  0  0  0  0
  186.6100  177.7510  144.3430 C   0  0  0  0  0  0  0  0  0  0  0  0
  188.4910  177.3330  145.8030 C   0  0  0  0  0  3  0  0  0  0  0  0
  184.7140  178.1740  142.8820 C   0  0  0  0  0  0  0  0  0  0  0  0
  184.0200  178.7370  143.9610 C   0  0  0  0  0  3  0  0  0  0  0  0
  188.4260  177.9650  148.2110 C   0  0  0  0  0  0  0  0  0  0  0  0
  189.8100  178.0040  148.3290 O   0  0  0  0  0  0  0  0  0  0  0  0
  187.7190  177.9930  149.2540 O   0  0  0  0  0  1  0  0  0  0  0  0
  1 18  1  6  0  0  0
  2  5  1  0  0  0  0
  2  8  1  0  0  0  0
  4  3  1  0  0  0  0
  5  7  1  6  0  0  0
  5  6  1  0  0  0  0
  6  3  1  1  0  0  0
  6  1  1  0  0  0  0
  7  4  1  0  0  0  0
  8 11  1  1  0  0  0
  8 10  1  0  0  0  0
 10  1  1  0  0  0  0
 10  9  1  6  0  0  0
 12 13  1  6  0  0  0
 12 14  1  0  0  0  0
 12 11  1  0  0  0  0
 14 17  1  0  0  0  0
 14 16  1  1  0  0  0
 15 14  1  0  0  0  0
 18 19  1  0  0  0  0
 19 21  2  0  0  0  0
 20 19  1  0  0  0  0
 21 30  1  0  0  0  0
 22 26  1  0  0  0  0
 23 28  1  0  0  0  0
 24 32  1  0  0  0  0
 25 24  1  0  0  0  0
 26 25  2  0  0  0  0
 27 29  1  0  0  0  0
 28 27  2  0  0  0  0
 28 26  1  0  0  0  0
 29 24  2  0  0  0  0
 30 23  2  0  0  0  0
 30 31  1  0  0  0  0
 31 22  2  0  0  0  0
 32 33  2  0  0  0  0
 32 34  1  0  0  0  0
M  END
>  <MODEL>
2

>  <REMARK>
 VINA RESULT:      -8.6      5.611     10.000
  Name = 
  7 active torsions:
  status: ('A' for Active; 'I' for Inactive)
    1  A    between atoms: C_1  and  C_9
    2  A    between atoms: C_2  and  C_23
    3  A    between atoms: C_2  and  C_32
    4  A    between atoms: C_3  and  C_23
    5  A    between atoms: C_7  and  C_11
    6  A    between atoms: C_8  and  C_9
    7  A    between atoms: C_18  and  C_30
                            x       y       z     vdW  Elec       q    Type
                         _______ _______ _______ _____ _____    ______ ____

>  <TORSDO>
F 7

$$$$
=
 OpenBabel10272415243D

 34 37  0  0  1  0  0  0  0  0999 V2000
  191.5010  175.5520  137.9740 C   0  0  1  0  0  3  0  0  0  0  0  0
  192.6350  175.0130  135.2630 C   0  0  0  0  0  2  0  0  0  0  0  0
  189.4790  174.1820  137.0510 C   0  0  0  0  0  2  0  0  0  0  0  0
  189.1390  173.6980  135.6420 C   0  0  0  0  0  2  0  0  0  0  0  0
  191.1460  175.0100  135.5620 C   0  0  2  0  0  3  0  0  0  0  0  0
  190.9430  174.5380  136.9720 C   0  0  1  0  0  3  0  0  0  0  0  0
  190.3320  174.0390  134.7480 C   0  0  0  0  0  2  0  0  0  0  0  0
  193.3300  176.0010  136.2160 C   0  0  1  0  0  3  0  0  0  0  0  0
  193.5860  176.6340  138.5420 O   0  0  0  0  0  1  0  0  0  0  0  0
  193.0140  175.6800  137.6960 C   0  0  1  0  0  3  0  0  0  0  0  0
  194.8340  175.9690  135.9860 C   0  0  0  0  0  2  0  0  0  0  0  0
  195.4540  174.7050  136.5730 C   0  0  2  0  0  3  0  0  0  0  0  0
  196.3020  175.0440  137.6320 O   0  0  0  0  0  1  0  0  0  0  0  0
  196.2230  173.9210  135.5080 C   0  0  2  0  0  0  0  0  0  0  0  0
  196.5090  172.6380  135.9780 O   0  0  0  0  0  1  0  0  0  0  0  0
  197.5310  174.6240  135.1940 C   0  0  0  0  0  1  0  0  0  0  0  0
  195.4730  173.8260  134.3490 F   0  0  0  0  0  0  0  0  0  0  0  0
  190.8070  176.9180  137.8900 C   0  0  0  0  0  2  0  0  0  0  0  0
  190.2740  177.3410  139.2170 C   0  0  0  0  0  0  0  0  0  0  0  0
  189.3910  178.4130  139.2780 O   0  0  0  0  0  1  0  0  0  0  0  0
  190.6580  176.6820  140.3160 C   0  0  0  0  0  3  0  0  0  0  0  0
  190.8840  177.4960  143.9810 C   0  0  0  0  0  3  0  0  0  0  0  0
  188.8850  176.9500  142.0950 C   0  0  0  0  0  3  0  0  0  0  0  0
  187.8490  177.7460  146.0920 C   0  0  0  0  0  0  0  0  0  0  0  0
  189.1950  177.7540  145.6990 C   0  0  0  0  0  3  0  0  0  0  0  0
  189.5440  177.4900  144.3720 C   0  0  0  0  0  0  0  0  0  0  0  0
  187.1950  177.2060  143.8130 C   0  0  0  0  0  3  0  0  0  0  0  0
  188.5360  177.2140  143.4220 C   0  0  0  0  0  0  0  0  0  0  0  0
  186.8540  177.4710  145.1410 C   0  0  0  0  0  3  0  0  0  0  0  0
  190.2330  176.9570  141.7010 C   0  0  0  0  0  0  0  0  0  0  0  0
  191.2250  177.2310  142.6510 C   0  0  0  0  0  3  0  0  0  0  0  0
  187.4770  178.0240  147.4880 C   0  0  0  0  0  0  0  0  0  0  0  0
  188.3800  177.7820  148.5160 O   0  0  0  0  0  1  0  0  0  0  0  0
  186.3380  178.4880  147.7660 O   0  0  0  0  0  0  0  0  0  0  0  0
  1 18  1  6  0  0  0
  2  5  1  0  0  0  0
  2  8  1  0  0  0  0
  4  3  1  0  0  0  0
  5  7  1  6  0  0  0
  5  6  1  0  0  0  0
  6  3  1  1  0  0  0
  6  1  1  0  0  0  0
  7  4  1  0  0  0  0
  8 11  1  1  0  0  0
  8 10  1  0  0  0  0
 10  1  1  0  0  0  0
 10  9  1  1  0  0  0
 11 12  1  0  0  0  0
 12 13  1  1  0  0  0
 14 16  1  6  0  0  0
 14 15  1  0  0  0  0
 14 12  1  0  0  0  0
 17 14  1  0  0  0  0
 18 19  1  0  0  0  0
 19 20  1  0  0  0  0
 19 21  2  0  0  0  0
 21 30  1  0  0  0  0
 22 26  1  0  0  0  0
 23 28  1  0  0  0  0
 24 32  1  0  0  0  0
 25 24  1  0  0  0  0
 26 25  2  0  0  0  0
 27 29  1  0  0  0  0
 28 27  2  0  0  0  0
 28 26  1  0  0  0  0
 29 24  2  0  0  0  0
 30 23  2  0  0  0  0
 30 31  1  0  0  0  0
 31 22  2  0  0  0  0
 32 34  2  0  0  0  0
 32 33  1  0  0  0  0
M  END
>  <MODEL>
3

>  <REMARK>
 VINA RESULT:      -8.5      3.444     10.800
  Name = 
  7 active torsions:
  status: ('A' for Active; 'I' for Inactive)
    1  A    between atoms: C_1  and  C_9
    2  A    between atoms: C_2  and  C_23
    3  A    between atoms: C_2  and  C_32
    4  A    between atoms: C_3  and  C_23
    5  A    between atoms: C_7  and  C_11
    6  A    between atoms: C_8  and  C_9
    7  A    between atoms: C_18  and  C_30
                            x       y       z     vdW  Elec       q    Type
                         _______ _______ _______ _____ _____    ______ ____

>  <TORSDO>
F 7

$$$$
=
 OpenBabel10272415243D

 34 37  0  0  1  0  0  0  0  0999 V2000
  183.0850  177.9110  141.0390 C   0  0  1  0  0  3  0  0  0  0  0  0
  180.6470  178.6860  139.4960 C   0  0  0  0  0  2  0  0  0  0  0  0
  181.8140  179.0590  143.0100 C   0  0  0  0  0  2  0  0  0  0  0  0
  180.5550  179.9250  143.0390 C   0  0  0  0  0  2  0  0  0  0  0  0
  181.0960  179.3950  140.7620 C   0  0  2  0  0  3  0  0  0  0  0  0
  181.7710  178.3960  141.6560 C   0  0  1  0  0  3  0  0  0  0  0  0
  179.9820  179.9350  141.6210 C   0  0  0  0  0  2  0  0  0  0  0  0
  181.8880  178.1370  138.7690 C   0  0  1  0  0  3  0  0  0  0  0  0
  183.8980  176.8120  139.0460 O   0  0  0  0  0  1  0  0  0  0  0  0
  182.7360  177.2350  139.6960 C   0  0  1  0  0  3  0  0  0  0  0  0
  181.4600  177.3590  137.5330 C   0  0  0  0  0  2  0  0  0  0  0  0
  182.3380  177.7020  136.3350 C   0  0  2  0  0  3  0  0  0  0  0  0
  181.5890  178.4050  135.3870 O   0  0  0  0  0  1  0  0  0  0  0  0
  182.9360  176.4410  135.7090 C   0  0  2  0  0  0  0  0  0  0  0  0
  184.2650  176.6730  135.3500 O   0  0  0  0  0  1  0  0  0  0  0  0
  182.1570  176.0640  134.4620 C   0  0  0  0  0  1  0  0  0  0  0  0
  182.8830  175.3890  136.6080 F   0  0  0  0  0  0  0  0  0  0  0  0
  184.1030  179.0430  140.8390 C   0  0  0  0  0  2  0  0  0  0  0  0
  185.3030  178.8550  141.7040 C   0  0  0  0  0  0  0  0  0  0  0  0
  186.5070  179.4350  141.3200 O   0  0  0  0  0  1  0  0  0  0  0  0
  185.1940  178.1340  142.8260 C   0  0  0  0  0  3  0  0  0  0  0  0
  186.9310  177.6660  146.1290 C   0  0  0  0  0  3  0  0  0  0  0  0
  187.5750  177.5210  143.4060 C   0  0  0  0  0  3  0  0  0  0  0  0
  190.5180  176.7520  146.3090 C   0  0  0  0  0  0  0  0  0  0  0  0
  189.2120  177.0810  146.7010 C   0  0  0  0  0  3  0  0  0  0  0  0
  188.2310  177.3380  145.7390 C   0  0  0  0  0  0  0  0  0  0  0  0
  189.8560  176.9370  143.9760 C   0  0  0  0  0  3  0  0  0  0  0  0
  188.5560  177.2640  144.3670 C   0  0  0  0  0  0  0  0  0  0  0  0
  190.8320  176.6820  144.9430 C   0  0  0  0  0  3  0  0  0  0  0  0
  186.2670  177.8500  143.7960 C   0  0  0  0  0  0  0  0  0  0  0  0
  185.9550  177.9210  145.1610 C   0  0  0  0  0  3  0  0  0  0  0  0
  191.5540  176.4810  147.3180 C   0  0  0  0  0  0  0  0  0  0  0  0
  191.8830  177.4460  148.2620 O   0  0  0  0  0  1  0  0  0  0  0  0
  192.1510  175.3710  147.3380 O   0  0  0  0  0  0  0  0  0  0  0  0
  1 18  1  6  0  0  0
  1  6  1  0  0  0  0
  3  4  1  0  0  0  0
  5  2  1  6  0  0  0
  5  7  1  0  0  0  0
  5  6  1  0  0  0  0
  6  3  1  1  0  0  0
  7  4  1  0  0  0  0
  8 11  1  6  0  0  0
  8  2  1  0  0  0  0
  8 10  1  0  0  0  0
 10  9  1  6  0  0  0
 10  1  1  0  0  0  0
 12 13  1  6  0  0  0
 12 11  1  0  0  0  0
 14 16  1  6  0  0  0
 14 12  1  0  0  0  0
 14 17  1  0  0  0  0
 15 14  1  0  0  0  0
 18 19  1  0  0  0  0
 19 21  2  0  0  0  0
 20 19  1  0  0  0  0
 21 30  1  0  0  0  0
 23 30  2  0  0  0  0
 23 28  1  0  0  0  0
 24 25  1  0  0  0  0
 24 32  1  0  0  0  0
 26 22  1  0  0  0  0
 26 25  2  0  0  0  0
 27 28  2  0  0  0  0
 27 29  1  0  0  0  0
 28 26  1  0  0  0  0
 29 24  2  0  0  0  0
 30 31  1  0  0  0  0
 31 22  2  0  0  0  0
 32 34  2  0  0  0  0
 32 33  1  0  0  0  0
M  END
>  <MODEL>
4

>  <REMARK>
 VINA RESULT:      -8.4      4.757      8.371
  Name = 
  7 active torsions:
  status: ('A' for Active; 'I' for Inactive)
    1  A    between atoms: C_1  and  C_9
    2  A    between atoms: C_2  and  C_23
    3  A    between atoms: C_2  and  C_32
    4  A    between atoms: C_3  and  C_23
    5  A    between atoms: C_7  and  C_11
    6  A    between atoms: C_8  and  C_9
    7  A    between atoms: C_18  and  C_30
                            x       y       z     vdW  Elec       q    Type
                         _______ _______ _______ _____ _____    ______ ____

>  <TORSDO>
F 7

$$$$
=
 OpenBabel10272415243D

 34 37  0  0  1  0  0  0  0  0999 V2000
  190.4810  175.9170  137.6730 C   0  0  1  0  0  3  0  0  0  0  0  0
  191.1590  175.3760  134.8140 C   0  0  0  0  0  2  0  0  0  0  0  0
  188.0400  175.5080  136.8410 C   0  0  0  0  0  2  0  0  0  0  0  0
  187.4560  175.3740  135.4350 C   0  0  0  0  0  2  0  0  0  0  0  0
  189.7980  175.8710  135.2720 C   0  0  2  0  0  3  0  0  0  0  0  0
  189.5230  175.3180  136.6400 C   0  0  1  0  0  3  0  0  0  0  0  0
  188.6310  175.3780  134.4560 C   0  0  0  0  0  2  0  0  0  0  0  0
  192.2310  175.9080  135.7830 C   0  0  1  0  0  3  0  0  0  0  0  0
  192.8510  176.0860  138.1190 O   0  0  0  0  0  1  0  0  0  0  0  0
  191.9120  175.5270  137.2470 C   0  0  1  0  0  3  0  0  0  0  0  0
  193.5970  175.3660  135.3880 C   0  0  0  0  0  2  0  0  0  0  0  0
  194.6720  176.4410  135.5120 C   0  0  2  0  0  3  0  0  0  0  0  0
  194.6220  177.2890  134.4010 O   0  0  0  0  0  1  0  0  0  0  0  0
  196.0630  175.8170  135.6420 C   0  0  2  0  0  0  0  0  0  0  0  0
  197.0320  176.8220  135.6830 O   0  0  0  0  0  1  0  0  0  0  0  0
  196.3420  174.9260  134.4450 C   0  0  0  0  0  1  0  0  0  0  0  0
  196.1420  175.0590  136.7970 F   0  0  0  0  0  0  0  0  0  0  0  0
  190.3400  177.4400  137.8050 C   0  0  0  0  0  2  0  0  0  0  0  0
  189.6780  177.8170  139.0870 C   0  0  0  0  0  0  0  0  0  0  0  0
  188.9380  178.9930  139.1420 O   0  0  0  0  0  1  0  0  0  0  0  0
  189.8120  177.0180  140.1520 C   0  0  0  0  0  3  0  0  0  0  0  0
  187.2560  177.7730  142.8060 C   0  0  0  0  0  3  0  0  0  0  0  0
  189.9780  177.1210  142.6700 C   0  0  0  0  0  3  0  0  0  0  0  0
  188.1520  177.7690  146.4020 C   0  0  0  0  0  0  0  0  0  0  0  0
  187.4010  177.8780  145.2230 C   0  0  0  0  0  3  0  0  0  0  0  0
  188.0030  177.6640  143.9810 C   0  0  0  0  0  0  0  0  0  0  0  0
  190.1240  177.2270  145.0860 C   0  0  0  0  0  3  0  0  0  0  0  0
  189.3750  177.3360  143.9130 C   0  0  0  0  0  0  0  0  0  0  0  0
  189.5140  177.4430  146.3250 C   0  0  0  0  0  3  0  0  0  0  0  0
  189.2270  177.2300  141.4890 C   0  0  0  0  0  0  0  0  0  0  0  0
  187.8670  177.5570  141.5670 C   0  0  0  0  0  3  0  0  0  0  0  0
  187.5210  177.9940  147.7130 C   0  0  0  0  0  0  0  0  0  0  0  0
  188.1880  177.6450  148.8810 O   0  0  0  0  0  1  0  0  0  0  0  0
  186.3730  178.5060  147.7890 O   0  0  0  0  0  0  0  0  0  0  0  0
  1 18  1  6  0  0  0
  2  5  1  0  0  0  0
  2  8  1  0  0  0  0
  4  3  1  0  0  0  0
  5  7  1  6  0  0  0
  5  6  1  0  0  0  0
  6  3  1  1  0  0  0
  6  1  1  0  0  0  0
  7  4  1  0  0  0  0
  8 11  1  6  0  0  0
  8 10  1  0  0  0  0
 10  1  1  0  0  0  0
 10  9  1  1  0  0  0
 11 12  1  0  0  0  0
 12 13  1  6  0  0  0
 12 14  1  0  0  0  0
 14 16  1  6  0  0  0
 14 15  1  0  0  0  0
 14 17  1  0  0  0  0
 18 19  1  0  0  0  0
 19 20  1  0  0  0  0
 19 21  2  0  0  0  0
 21 30  1  0  0  0  0
 22 26  1  0  0  0  0
 23 28  1  0  0  0  0
 24 32  1  0  0  0  0
 25 24  2  0  0  0  0
 26 25  1  0  0  0  0
 27 29  2  0  0  0  0
 28 26  2  0  0  0  0
 28 27  1  0  0  0  0
 29 24  1  0  0  0  0
 30 31  1  0  0  0  0
 30 23  2  0  0  0  0
 31 22  2  0  0  0  0
 32 34  2  0  0  0  0
 32 33  1  0  0  0  0
M  END
>  <MODEL>
5

>  <REMARK>
 VINA RESULT:      -8.0      3.347     10.711
  Name = 
  7 active torsions:
  status: ('A' for Active; 'I' for Inactive)
    1  A    between atoms: C_1  and  C_9
    2  A    between atoms: C_2  and  C_23
    3  A    between atoms: C_2  and  C_32
    4  A    between atoms: C_3  and  C_23
    5  A    between atoms: C_7  and  C_11
    6  A    between atoms: C_8  and  C_9
    7  A    between atoms: C_18  and  C_30
                            x       y       z     vdW  Elec       q    Type
                         _______ _______ _______ _____ _____    ______ ____

>  <TORSDO>
F 7

$$$$
=
 OpenBabel10272415243D

 34 37  0  0  1  0  0  0  0  0999 V2000
  191.0400  175.9810  138.0380 C   0  0  1  0  0  3  0  0  0  0  0  0
  192.4710  174.8730  135.6610 C   0  0  0  0  0  2  0  0  0  0  0  0
  189.0060  174.7060  137.0110 C   0  0  0  0  0  2  0  0  0  0  0  0
  188.8110  174.0320  135.6530 C   0  0  0  0  0  2  0  0  0  0  0  0
  190.9670  175.0850  135.7090 C   0  0  2  0  0  3  0  0  0  0  0  0
  190.5010  174.8810  137.1210 C   0  0  1  0  0  3  0  0  0  0  0  0
  190.1560  174.0850  134.9260 C   0  0  0  0  0  2  0  0  0  0  0  0
  193.1470  175.9250  136.5580 C   0  0  1  0  0  3  0  0  0  0  0  0
  193.1480  176.9080  138.7740 O   0  0  0  0  0  1  0  0  0  0  0  0
  192.5800  175.8940  137.9970 C   0  0  1  0  0  3  0  0  0  0  0  0
  194.6510  175.6890  136.5850 C   0  0  0  0  0  2  0  0  0  0  0  0
  195.0080  174.5180  137.4950 C   0  0  2  0  0  3  0  0  0  0  0  0
  195.7510  174.9790  138.5860 O   0  0  0  0  0  1  0  0  0  0  0  0
  195.7910  173.4480  136.7340 C   0  0  2  0  0  0  0  0  0  0  0  0
  195.8060  172.2590  137.4670 O   0  0  0  0  0  1  0  0  0  0  0  0
  197.2240  173.9050  136.5270 C   0  0  0  0  0  1  0  0  0  0  0  0
  195.2100  173.2150  135.5000 F   0  0  0  0  0  0  0  0  0  0  0  0
  190.5550  177.3820  137.6390 C   0  0  0  0  0  2  0  0  0  0  0  0
  189.5800  177.9250  138.6280 C   0  0  0  0  0  0  0  0  0  0  0  0
  188.9700  179.1470  138.3720 O   0  0  0  0  0  1  0  0  0  0  0  0
  189.3170  177.2240  139.7380 C   0  0  0  0  0  3  0  0  0  0  0  0
  186.3580  178.7850  141.4570 C   0  0  0  0  0  3  0  0  0  0  0  0
  188.5670  177.2060  142.1500 C   0  0  0  0  0  3  0  0  0  0  0  0
  185.8120  178.3830  145.1000 C   0  0  0  0  0  0  0  0  0  0  0  0
  185.6280  178.7790  143.7680 C   0  0  0  0  0  3  0  0  0  0  0  0
  186.5410  178.3900  142.7840 C   0  0  0  0  0  0  0  0  0  0  0  0
  187.8380  177.2000  144.4610 C   0  0  0  0  0  3  0  0  0  0  0  0
  187.6540  177.5940  143.1340 C   0  0  0  0  0  0  0  0  0  0  0  0
  186.9210  177.5920  145.4380 C   0  0  0  0  0  3  0  0  0  0  0  0
  188.3840  177.6020  140.8150 C   0  0  0  0  0  0  0  0  0  0  0  0
  187.2760  178.3920  140.4790 C   0  0  0  0  0  3  0  0  0  0  0  0
  184.8530  178.7900  146.1400 C   0  0  0  0  0  0  0  0  0  0  0  0
  185.2380  178.8270  147.4740 O   0  0  0  0  0  1  0  0  0  0  0  0
  183.6740  179.1100  145.8300 O   0  0  0  0  0  0  0  0  0  0  0  0
  1 18  1  6  0  0  0
  2  5  1  0  0  0  0
  2  8  1  0  0  0  0
  4  3  1  0  0  0  0
  5  7  1  6  0  0  0
  5  6  1  0  0  0  0
  6  3  1  6  0  0  0
  6  1  1  0  0  0  0
  7  4  1  0  0  0  0
  8 11  1  1  0  0  0
  8 10  1  0  0  0  0
 10  1  1  0  0  0  0
 10  9  1  1  0  0  0
 11 12  1  0  0  0  0
 12 13  1  1  0  0  0
 14 16  1  6  0  0  0
 14 15  1  0  0  0  0
 14 12  1  0  0  0  0
 17 14  1  0  0  0  0
 18 19  1  0  0  0  0
 19 21  2  0  0  0  0
 20 19  1  0  0  0  0
 21 30  1  0  0  0  0
 22 26  1  0  0  0  0
 23 28  1  0  0  0  0
 24 29  1  0  0  0  0
 24 32  1  0  0  0  0
 25 24  2  0  0  0  0
 26 28  2  0  0  0  0
 26 25  1  0  0  0  0
 27 29  2  0  0  0  0
 28 27  1  0  0  0  0
 30 23  2  0  0  0  0
 31 30  1  0  0  0  0
 31 22  2  0  0  0  0
 32 33  1  0  0  0  0
 34 32  2  0  0  0  0
M  END
>  <MODEL>
6

>  <REMARK>
 VINA RESULT:      -8.0      3.391     10.779
  Name = 
  7 active torsions:
  status: ('A' for Active; 'I' for Inactive)
    1  A    between atoms: C_1  and  C_9
    2  A    between atoms: C_2  and  C_23
    3  A    between atoms: C_2  and  C_32
    4  A    between atoms: C_3  and  C_23
    5  A    between atoms: C_7  and  C_11
    6  A    between atoms: C_8  and  C_9
    7  A    between atoms: C_18  and  C_30
                            x       y       z     vdW  Elec       q    Type
                         _______ _______ _______ _____ _____    ______ ____

>  <TORSDO>
F 7

$$$$
=
 OpenBabel10272415243D

 34 37  0  0  1  0  0  0  0  0999 V2000
  185.6630  177.7780  143.0720 C   0  0  1  0  0  3  0  0  0  0  0  0
  183.6690  178.8090  145.0430 C   0  0  0  0  0  2  0  0  0  0  0  0
  187.1760  177.5700  145.1900 C   0  0  0  0  0  2  0  0  0  0  0  0
  187.0010  178.0890  146.6160 C   0  0  0  0  0  2  0  0  0  0  0  0
  185.1700  178.8570  145.2680 C   0  0  2  0  0  3  0  0  0  0  0  0
  185.7940  177.6710  144.5920 C   0  0  1  0  0  3  0  0  0  0  0  0
  185.6060  178.7100  146.7030 C   0  0  0  0  0  2  0  0  0  0  0  0
  183.3920  178.9040  143.5320 C   0  0  1  0  0  3  0  0  0  0  0  0
  183.9560  177.9640  141.3700 O   0  0  0  0  0  1  0  0  0  0  0  0
  184.1550  177.8130  142.7450 C   0  0  1  0  0  3  0  0  0  0  0  0
  181.8970  178.7860  143.2730 C   0  0  0  0  0  2  0  0  0  0  0  0
  181.4050  179.9070  142.3640 C   0  0  2  0  0  3  0  0  0  0  0  0
  180.3580  180.5930  142.9860 O   0  0  0  0  0  1  0  0  0  0  0  0
  180.9500  179.3590  141.0100 C   0  0  2  0  0  0  0  0  0  0  0  0
  179.9880  180.2050  140.4550 O   0  0  0  0  0  1  0  0  0  0  0  0
  180.3370  177.9820  141.1900 C   0  0  0  0  0  1  0  0  0  0  0  0
  182.0270  179.2630  140.1450 F   0  0  0  0  0  0  0  0  0  0  0  0
  186.3800  179.0080  142.4960 C   0  0  0  0  0  2  0  0  0  0  0  0
  187.3590  178.6230  141.4380 C   0  0  0  0  0  0  0  0  0  0  0  0
  187.0080  178.7890  140.1040 O   0  0  0  0  0  1  0  0  0  0  0  0
  188.5480  178.1270  141.7980 C   0  0  0  0  0  3  0  0  0  0  0  0
  192.0100  177.2880  140.5910 C   0  0  0  0  0  3  0  0  0  0  0  0
  189.4040  177.3230  139.5620 C   0  0  0  0  0  3  0  0  0  0  0  0
  192.6170  176.1430  137.1190 C   0  0  0  0  0  0  0  0  0  0  0  0
  192.8460  176.5190  138.4500 C   0  0  0  0  0  3  0  0  0  0  0  0
  191.7820  176.9120  139.2660 C   0  0  0  0  0  0  0  0  0  0  0  0
  190.2390  176.5550  137.4210 C   0  0  0  0  0  3  0  0  0  0  0  0
  190.4690  176.9300  138.7460 C   0  0  0  0  0  0  0  0  0  0  0  0
  191.3090  176.1630  136.6120 C   0  0  0  0  0  3  0  0  0  0  0  0
  189.6330  177.7000  140.8950 C   0  0  0  0  0  0  0  0  0  0  0  0
  190.9390  177.6800  141.4000 C   0  0  0  0  0  3  0  0  0  0  0  0
  193.7350  175.7280  136.2570 C   0  0  0  0  0  0  0  0  0  0  0  0
  193.5350  174.7880  135.2530 O   0  0  0  0  0  0  0  0  0  0  0  0
  194.8830  176.2210  136.4190 O   0  0  0  0  0  1  0  0  0  0  0  0
  1 18  1  1  0  0  0
  1  6  1  0  0  0  0
  3  4  1  0  0  0  0
  4  7  1  0  0  0  0
  5  2  1  1  0  0  0
  5  7  1  0  0  0  0
  6  3  1  6  0  0  0
  6  5  1  0  0  0  0
  8 11  1  1  0  0  0
  8  2  1  0  0  0  0
 10  9  1  6  0  0  0
 10  1  1  0  0  0  0
 10  8  1  0  0  0  0
 12 13  1  1  0  0  0
 12 11  1  0  0  0  0
 14 16  1  1  0  0  0
 14 12  1  0  0  0  0
 15 14  1  0  0  0  0
 17 14  1  0  0  0  0
 19 21  2  0  0  0  0
 19 18  1  0  0  0  0
 20 19  1  0  0  0  0
 22 31  1  0  0  0  0
 23 30  1  0  0  0  0
 24 25  2  0  0  0  0
 25 26  1  0  0  0  0
 26 22  2  0  0  0  0
 27 28  1  0  0  0  0
 28 26  1  0  0  0  0
 28 23  2  0  0  0  0
 29 24  1  0  0  0  0
 29 27  2  0  0  0  0
 30 31  2  0  0  0  0
 30 21  1  0  0  0  0
 32 34  1  0  0  0  0
 32 24  1  0  0  0  0
 33 32  2  0  0  0  0
M  END
>  <MODEL>
7

>  <REMARK>
 VINA RESULT:      -7.9      2.034      2.941
  Name = 
  7 active torsions:
  status: ('A' for Active; 'I' for Inactive)
    1  A    between atoms: C_1  and  C_9
    2  A    between atoms: C_2  and  C_23
    3  A    between atoms: C_2  and  C_32
    4  A    between atoms: C_3  and  C_23
    5  A    between atoms: C_7  and  C_11
    6  A    between atoms: C_8  and  C_9
    7  A    between atoms: C_18  and  C_30
                            x       y       z     vdW  Elec       q    Type
                         _______ _______ _______ _____ _____    ______ ____

>  <TORSDO>
F 7

$$$$
=
 OpenBabel10272415243D

 34 37  0  0  1  0  0  0  0  0999 V2000
  189.9330  177.5390  137.5650 C   0  0  1  0  0  3  0  0  0  0  0  0
  187.5570  177.0770  135.8150 C   0  0  0  0  0  2  0  0  0  0  0  0
  191.2030  176.3590  135.6140 C   0  0  0  0  0  2  0  0  0  0  0  0
  190.6990  175.5970  134.3880 C   0  0  0  0  0  2  0  0  0  0  0  0
  188.8250  176.2450  135.7410 C   0  0  2  0  0  3  0  0  0  0  0  0
  189.9920  177.1190  136.0950 C   0  0  1  0  0  3  0  0  0  0  0  0
  189.1760  175.7350  134.3670 C   0  0  0  0  0  2  0  0  0  0  0  0
  187.3750  177.5750  137.2600 C   0  0  1  0  0  3  0  0  0  0  0  0
  188.4740  178.7110  139.0970 O   0  0  0  0  0  1  0  0  0  0  0  0
  188.6250  178.3360  137.7590 C   0  0  1  0  0  3  0  0  0  0  0  0
  186.1490  178.4720  137.3450 C   0  0  0  0  0  2  0  0  0  0  0  0
  184.9760  177.7400  137.9910 C   0  0  2  0  0  3  0  0  0  0  0  0
  184.1890  177.1450  137.0000 O   0  0  0  0  0  1  0  0  0  0  0  0
  184.1310  178.6930  138.8380 C   0  0  2  0  0  0  0  0  0  0  0  0
  184.8480  179.8650  139.0930 O   0  0  0  0  0  1  0  0  0  0  0  0
  183.7880  178.0390  140.1640 C   0  0  0  0  0  1  0  0  0  0  0  0
  182.9580  179.0120  138.1760 F   0  0  0  0  0  0  0  0  0  0  0  0
  190.0000  176.3470  138.5310 C   0  0  0  0  0  2  0  0  0  0  0  0
  190.1660  176.7980  139.9430 C   0  0  0  0  0  0  0  0  0  0  0  0
  191.0830  177.8030  140.2250 O   0  0  0  0  0  1  0  0  0  0  0  0
  189.4320  176.2230  140.9020 C   0  0  0  0  0  3  0  0  0  0  0  0
  190.7840  176.7540  144.3720 C   0  0  0  0  0  3  0  0  0  0  0  0
  188.3130  176.9110  143.0600 C   0  0  0  0  0  3  0  0  0  0  0  0
  188.5760  177.7770  147.1660 C   0  0  0  0  0  0  0  0  0  0  0  0
  189.7240  177.4100  146.4500 C   0  0  0  0  0  3  0  0  0  0  0  0
  189.6410  177.1210  145.0850 C   0  0  0  0  0  0  0  0  0  0  0  0
  187.2520  177.5660  145.1370 C   0  0  0  0  0  3  0  0  0  0  0  0
  188.3960  177.2000  144.4250 C   0  0  0  0  0  0  0  0  0  0  0  0
  187.3430  177.8540  146.5020 C   0  0  0  0  0  3  0  0  0  0  0  0
  189.4620  176.5420  142.3420 C   0  0  0  0  0  0  0  0  0  0  0  0
  190.6930  176.4660  143.0070 C   0  0  0  0  0  3  0  0  0  0  0  0
  188.6590  178.0830  148.6030 C   0  0  0  0  0  0  0  0  0  0  0  0
  189.8520  178.5300  149.1570 O   0  0  0  0  0  0  0  0  0  0  0  0
  187.6490  177.9460  149.3450 O   0  0  0  0  0  1  0  0  0  0  0  0
  1 10  1  0  0  0  0
  1 18  1  1  0  0  0
  2  8  1  0  0  0  0
  4  3  1  0  0  0  0
  5  7  1  6  0  0  0
  5  2  1  0  0  0  0
  5  6  1  0  0  0  0
  6  3  1  1  0  0  0
  6  1  1  0  0  0  0
  7  4  1  0  0  0  0
  8 11  1  6  0  0  0
  8 10  1  0  0  0  0
 10  9  1  1  0  0  0
 11 12  1  0  0  0  0
 12 13  1  6  0  0  0
 12 14  1  0  0  0  0
 14 15  1  0  0  0  0
 14 16  1  1  0  0  0
 17 14  1  0  0  0  0
 18 19  1  0  0  0  0
 19 20  1  0  0  0  0
 19 21  2  0  0  0  0
 21 30  1  0  0  0  0
 22 26  1  0  0  0  0
 23 28  1  0  0  0  0
 24 32  1  0  0  0  0
 25 24  2  0  0  0  0
 26 25  1  0  0  0  0
 27 29  2  0  0  0  0
 28 26  2  0  0  0  0
 28 27  1  0  0  0  0
 29 24  1  0  0  0  0
 30 31  1  0  0  0  0
 30 23  2  0  0  0  0
 31 22  2  0  0  0  0
 32 33  2  0  0  0  0
 32 34  1  0  0  0  0
M  END
>  <MODEL>
8

>  <REMARK>
 VINA RESULT:      -7.4      3.012      8.781
  Name = 
  7 active torsions:
  status: ('A' for Active; 'I' for Inactive)
    1  A    between atoms: C_1  and  C_9
    2  A    between atoms: C_2  and  C_23
    3  A    between atoms: C_2  and  C_32
    4  A    between atoms: C_3  and  C_23
    5  A    between atoms: C_7  and  C_11
    6  A    between atoms: C_8  and  C_9
    7  A    between atoms: C_18  and  C_30
                            x       y       z     vdW  Elec       q    Type
                         _______ _______ _______ _____ _____    ______ ____

>  <TORSDO>
F 7

$$$$
=
 OpenBabel10272415243D

 34 37  0  0  1  0  0  0  0  0999 V2000
  190.2990  177.3850  138.6650 C   0  0  1  0  0  3  0  0  0  0  0  0
  187.7930  178.2410  140.0480 C   0  0  0  0  0  2  0  0  0  0  0  0
  188.9540  178.0180  136.5180 C   0  0  0  0  0  2  0  0  0  0  0  0
  187.4780  178.3550  136.3080 C   0  0  0  0  0  2  0  0  0  0  0  0
  187.8320  177.7630  138.6070 C   0  0  2  0  0  3  0  0  0  0  0  0
  189.1510  178.1550  138.0080 C   0  0  1  0  0  3  0  0  0  0  0  0
  186.8270  178.4120  137.6900 C   0  0  0  0  0  2  0  0  0  0  0  0
  188.9150  177.5400  140.8320 C   0  0  1  0  0  3  0  0  0  0  0  0
  191.2870  177.0430  140.8440 O   0  0  0  0  0  1  0  0  0  0  0  0
  190.2940  177.7520  140.1640 C   0  0  1  0  0  3  0  0  0  0  0  0
  188.9440  178.0560  142.2640 C   0  0  0  0  0  2  0  0  0  0  0  0
  189.0870  176.9100  143.2600 C   0  0  2  0  0  3  0  0  0  0  0  0
  187.8660  176.2400  143.3850 O   0  0  0  0  0  1  0  0  0  0  0  0
  189.5550  177.4200  144.6240 C   0  0  2  0  0  0  0  0  0  0  0  0
  190.6070  176.6290  145.0910 O   0  0  0  0  0  1  0  0  0  0  0  0
  188.4140  177.3440  145.6220 C   0  0  0  0  0  1  0  0  0  0  0  0
  189.9810  178.7330  144.5240 F   0  0  0  0  0  0  0  0  0  0  0  0
  190.1890  175.8670  138.4680 C   0  0  0  0  0  2  0  0  0  0  0  0
  191.4190  175.3090  137.8340 C   0  0  0  0  0  0  0  0  0  0  0  0
  191.4050  173.9950  137.3810 O   0  0  0  0  0  1  0  0  0  0  0  0
  192.5030  176.0840  137.7180 C   0  0  0  0  0  3  0  0  0  0  0  0
  195.3410  175.9280  135.2550 C   0  0  0  0  0  3  0  0  0  0  0  0
  194.6880  174.8160  137.7420 C   0  0  0  0  0  3  0  0  0  0  0  0
  198.3290  173.8300  135.8860 C   0  0  0  0  0  0  0  0  0  0  0  0
  197.4400  174.7160  135.2630 C   0  0  0  0  0  3  0  0  0  0  0  0
  196.2280  175.0460  135.8760 C   0  0  0  0  0  0  0  0  0  0  0  0
  196.7850  173.6030  137.7510 C   0  0  0  0  0  3  0  0  0  0  0  0
  195.8990  174.4860  137.1290 C   0  0  0  0  0  0  0  0  0  0  0  0
  197.9940  173.2770  137.1320 C   0  0  0  0  0  3  0  0  0  0  0  0
  193.7960  175.7030  137.1190 C   0  0  0  0  0  0  0  0  0  0  0  0
  194.1310  176.2540  135.8750 C   0  0  0  0  0  3  0  0  0  0  0  0
  199.6070  173.4800  135.2440 C   0  0  0  0  0  0  0  0  0  0  0  0
  200.2270  174.3760  134.3820 O   0  0  0  0  0  0  0  0  0  0  0  0
  200.1520  172.3670  135.4710 O   0  0  0  0  0  1  0  0  0  0  0  0
  1 18  1  1  0  0  0
  1 10  1  0  0  0  0
  2  8  1  0  0  0  0
  4  3  1  0  0  0  0
  4  7  1  0  0  0  0
  5  7  1  6  0  0  0
  5  2  1  0  0  0  0
  6  3  1  6  0  0  0
  6  5  1  0  0  0  0
  6  1  1  0  0  0  0
  8 11  1  1  0  0  0
 10  8  1  0  0  0  0
 10  9  1  1  0  0  0
 11 12  1  0  0  0  0
 12 13  1  1  0  0  0
 12 14  1  0  0  0  0
 14 15  1  0  0  0  0
 14 16  1  1  0  0  0
 17 14  1  0  0  0  0
 19 18  1  0  0  0  0
 20 19  1  0  0  0  0
 21 19  2  0  0  0  0
 22 31  2  0  0  0  0
 22 26  1  0  0  0  0
 24 29  1  0  0  0  0
 25 26  1  0  0  0  0
 25 24  2  0  0  0  0
 26 28  2  0  0  0  0
 28 23  1  0  0  0  0
 28 27  1  0  0  0  0
 29 27  2  0  0  0  0
 30 21  1  0  0  0  0
 30 23  2  0  0  0  0
 31 30  1  0  0  0  0
 32 34  1  0  0  0  0
 32 24  1  0  0  0  0
 33 32  2  0  0  0  0
M  END
>  <MODEL>
9

>  <REMARK>
 VINA RESULT:      -7.3      3.349      6.688
  Name = 
  7 active torsions:
  status: ('A' for Active; 'I' for Inactive)
    1  A    between atoms: C_1  and  C_9
    2  A    between atoms: C_2  and  C_23
    3  A    between atoms: C_2  and  C_32
    4  A    between atoms: C_3  and  C_23
    5  A    between atoms: C_7  and  C_11
    6  A    between atoms: C_8  and  C_9
    7  A    between atoms: C_18  and  C_30
                            x       y       z     vdW  Elec       q    Type
                         _______ _______ _______ _____ _____    ______ ____

>  <TORSDO>
F 7

$$$$
