=
 OpenBabel10272414533D

 37 42  0  0  1  0  0  0  0  0999 V2000
  182.2650  178.0900  139.9620 C   0  0  0  0  0  2  0  0  0  0  0  0
  186.4120  178.7370  141.5810 C   0  0  1  0  0  3  0  0  0  0  0  0
  189.6840  177.7990  139.8010 C   0  0  0  0  0  2  0  0  0  0  0  0
  184.5610  178.8430  140.1280 C   0  0  2  0  0  0  0  0  0  0  0  0
  187.1910  177.8860  140.5540 C   0  0  2  0  0  3  0  0  0  0  0  0
  185.3900  179.5580  141.0280 O   0  0  0  0  0  0  0  0  0  0  0  0
  188.6850  177.8940  140.9560 C   0  0  1  0  0  3  0  0  0  0  0  0
  185.2970  178.1320  138.9930 C   0  0  1  0  0  3  0  0  0  0  0  0
  183.8310  179.8040  139.2140 C   0  0  1  0  0  3  0  0  0  0  0  0
  187.1430  177.4530  143.6240 C   0  0  0  0  0  2  0  0  0  0  0  0
  184.5810  179.1700  137.6800 S   0  0  0  0  0  0  0  0  0  0  0  0
  189.5980  176.4760  139.0350 C   0  0  0  0  0  2  0  0  0  0  0  0
  185.9480  177.9400  142.8090 C   0  0  1  0  0  3  0  0  0  0  0  0
  186.8120  178.3000  139.1070 C   0  0  2  0  0  3  0  0  0  0  0  0
  183.5130  177.9780  140.8110 C   0  0  0  0  0  2  0  0  0  0  0  0
  189.0360  176.8440  142.0330 C   0  0  2  0  0  3  0  0  0  0  0  0
  182.3560  179.4390  139.2760 C   0  0  0  0  0  2  0  0  0  0  0  0
  188.1950  176.2230  138.4740 C   0  0  1  0  0  3  0  0  0  0  0  0
  187.4680  177.4850  137.9680 C   0  0  2  0  0  3  0  0  0  0  0  0
  187.8790  176.3330  142.9050 C   0  0  0  0  0  2  0  0  0  0  0  0
  191.2010  176.2030  143.3130 C   0  0  0  0  0  2  0  0  0  0  0  0
  190.2290  177.2500  142.8500 C   0  0  0  0  0  0  0  0  0  0  0  0
  190.4330  178.5250  143.2130 C   0  0  0  0  0  3  0  0  0  0  0  0
  191.4650  180.5060  144.7130 Cl  0  0  0  0  0  0  0  0  0  0  0  0
  191.8230  177.8530  145.1910 C   0  0  0  0  0  2  0  0  0  0  0  0
  191.6330  178.8660  144.0500 C   0  0  1  0  0  3  0  0  0  0  0  0
  191.5000  176.3930  144.8050 C   0  0  0  0  0  2  0  0  0  0  0  0
  185.4620  178.6200  145.1610 C   0  0  0  0  0  1  0  0  0  0  0  0
  185.0730  178.8050  143.7070 C   0  0  0  0  0  2  0  0  0  0  0  0
  186.9550  175.0680  136.5970 C   0  0  0  0  0  1  0  0  0  0  0  0
  188.1540  175.0160  137.5310 C   0  0  1  0  0  3  0  0  0  0  0  0
  190.1010  173.6050  137.2800 O   0  0  0  0  0  1  0  0  0  0  0  0
  189.4610  174.7440  136.7850 C   0  0  0  0  0  2  0  0  0  0  0  0
  188.3730  178.3660  137.0970 C   0  0  0  0  0  2  0  0  0  0  0  0
  188.1700  178.1180  135.6430 C   0  0  0  0  0  0  0  0  0  0  0  0
  189.2320  177.6870  134.8600 O   0  0  0  0  0  0  0  0  0  0  0  0
  187.0420  178.3110  135.1200 O   0  0  0  0  0  1  0  0  0  0  0  0
  1 15  1  0  0  0  0
  2  6  1  6  0  0  0
  2 13  1  0  0  0  0
  3  7  1  0  0  0  0
  4 15  1  1  0  0  0
  4  6  1  0  0  0  0
  5  7  1  0  0  0  0
  5  2  1  0  0  0  0
  7 16  1  0  0  0  0
  8 14  1  0  0  0  0
  8  4  1  0  0  0  0
  9 17  1  0  0  0  0
  9  4  1  0  0  0  0
 11  8  1  0  0  0  0
 11  9  1  0  0  0  0
 12  3  1  0  0  0  0
 13 10  1  0  0  0  0
 13 29  1  0  0  0  0
 14  5  1  0  0  0  0
 16 22  1  0  0  0  0
 16 20  1  0  0  0  0
 17  1  1  0  0  0  0
 18 12  1  0  0  0  0
 19 18  1  0  0  0  0
 19 14  1  0  0  0  0
 20 10  1  0  0  0  0
 21 27  1  0  0  0  0
 22 23  2  0  0  0  0
 22 21  1  0  0  0  0
 23 26  1  0  0  0  0
 26 24  1  0  0  0  0
 26 25  1  0  0  0  0
 27 25  1  0  0  0  0
 29 28  1  0  0  0  0
 30 31  1  0  0  0  0
 31 18  1  0  0  0  0
 33 32  1  0  0  0  0
 33 31  1  0  0  0  0
 34 19  1  0  0  0  0
 35 34  1  0  0  0  0
 36 35  2  0  0  0  0
 37 35  1  0  0  0  0
M  END
>  <MODEL>
1

>  <REMARK>
 VINA RESULT:      -6.3      0.000      0.000
  Name = 
  6 active torsions:
  status: ('A' for Active; 'I' for Inactive)
    1  A    between atoms: C_1  and  C_5
    2  A    between atoms: C_1  and  C_36
    3  A    between atoms: C_6  and  C_31
    4  A    between atoms: C_24  and  C_28
    5  A    between atoms: C_26  and  C_33
    6  A    between atoms: C_26  and  C_34
                            x       y       z     vdW  Elec       q    Type
                         _______ _______ _______ _____ _____    ______ ____

>  <TORSDO>
F 6

$$$$
=
 OpenBabel10272414533D

 37 42  0  0  1  0  0  0  0  0999 V2000
  182.0980  177.8280  139.6170 C   0  0  0  0  0  2  0  0  0  0  0  0
  185.8890  178.8070  141.8340 C   0  0  1  0  0  3  0  0  0  0  0  0
  189.4570  178.1790  140.5590 C   0  0  0  0  0  2  0  0  0  0  0  0
  184.2700  178.7740  140.1230 C   0  0  2  0  0  0  0  0  0  0  0  0
  186.8820  178.0410  140.9330 C   0  0  2  0  0  3  0  0  0  0  0  0
  184.8920  179.5450  141.1370 O   0  0  0  0  0  0  0  0  0  0  0  0
  188.2930  178.1710  141.5530 C   0  0  1  0  0  3  0  0  0  0  0  0
  185.2250  178.1450  139.1090 C   0  0  1  0  0  3  0  0  0  0  0  0
  183.6020  179.6820  139.1120 C   0  0  1  0  0  3  0  0  0  0  0  0
  186.4180  177.5620  143.9620 C   0  0  0  0  0  2  0  0  0  0  0  0
  184.6240  179.1360  137.7050 S   0  0  0  0  0  0  0  0  0  0  0  0
  189.6010  176.8650  139.7860 C   0  0  0  0  0  2  0  0  0  0  0  0
  185.3200  177.9550  142.9790 C   0  0  1  0  0  3  0  0  0  0  0  0
  186.6860  178.4410  139.4460 C   0  0  2  0  0  3  0  0  0  0  0  0
  183.2120  177.8120  140.6420 C   0  0  0  0  0  2  0  0  0  0  0  0
  188.5720  177.1410  142.6690 C   0  0  2  0  0  3  0  0  0  0  0  0
  182.1720  179.1900  138.9530 C   0  0  0  0  0  2  0  0  0  0  0  0
  188.3230  176.5000  139.0230 C   0  0  1  0  0  3  0  0  0  0  0  0
  187.5720  177.7020  138.4160 C   0  0  2  0  0  3  0  0  0  0  0  0
  187.3480  176.5190  143.3580 C   0  0  0  0  0  2  0  0  0  0  0  0
  190.0160  179.0760  143.6220 C   0  0  0  0  0  2  0  0  0  0  0  0
  189.5910  177.6360  143.6540 C   0  0  0  0  0  0  0  0  0  0  0  0
  190.1670  176.8140  144.5440 C   0  0  0  0  0  3  0  0  0  0  0  0
  192.0730  176.0310  146.2740 Cl  0  0  0  0  0  0  0  0  0  0  0  0
  192.1870  178.2870  144.7600 C   0  0  0  0  0  2  0  0  0  0  0  0
  191.1980  177.3630  145.4890 C   0  0  1  0  0  3  0  0  0  0  0  0
  191.5450  179.1700  143.6670 C   0  0  0  0  0  2  0  0  0  0  0  0
  184.6140  178.8350  145.2060 C   0  0  0  0  0  1  0  0  0  0  0  0
  184.2490  178.7290  143.7380 C   0  0  0  0  0  2  0  0  0  0  0  0
  187.4090  175.1970  137.0590 C   0  0  0  0  0  1  0  0  0  0  0  0
  188.5280  175.3080  138.0830 C   0  0  1  0  0  3  0  0  0  0  0  0
  190.5030  173.9820  137.6530 O   0  0  0  0  0  1  0  0  0  0  0  0
  189.9140  175.2300  137.4410 C   0  0  0  0  0  2  0  0  0  0  0  0
  188.5150  178.6700  137.6910 C   0  0  0  0  0  2  0  0  0  0  0  0
  188.5200  178.4530  136.2170 C   0  0  0  0  0  0  0  0  0  0  0  0
  187.3330  178.5400  135.5020 O   0  0  0  0  0  0  0  0  0  0  0  0
  189.5940  178.1780  135.6230 O   0  0  0  0  0  1  0  0  0  0  0  0
  1 15  1  0  0  0  0
  2  6  1  6  0  0  0
  2 13  1  0  0  0  0
  3  7  1  0  0  0  0
  4 15  1  1  0  0  0
  4  6  1  0  0  0  0
  5  7  1  0  0  0  0
  5  2  1  0  0  0  0
  7 16  1  0  0  0  0
  8 14  1  0  0  0  0
  8  4  1  0  0  0  0
  9  4  1  0  0  0  0
 11  8  1  0  0  0  0
 11  9  1  0  0  0  0
 12  3  1  0  0  0  0
 13 29  1  0  0  0  0
 13 10  1  0  0  0  0
 14  5  1  0  0  0  0
 16 20  1  0  0  0  0
 16 22  1  0  0  0  0
 17  9  1  0  0  0  0
 17  1  1  0  0  0  0
 18 12  1  0  0  0  0
 19 18  1  0  0  0  0
 19 14  1  0  0  0  0
 20 10  1  0  0  0  0
 21 22  1  0  0  0  0
 21 27  1  0  0  0  0
 22 23  2  0  0  0  0
 23 26  1  0  0  0  0
 25 26  1  0  0  0  0
 26 24  1  0  0  0  0
 27 25  1  0  0  0  0
 29 28  1  0  0  0  0
 30 31  1  0  0  0  0
 31 18  1  0  0  0  0
 33 32  1  0  0  0  0
 33 31  1  0  0  0  0
 34 19  1  0  0  0  0
 35 34  1  0  0  0  0
 36 35  2  0  0  0  0
 37 35  1  0  0  0  0
M  END
>  <MODEL>
2

>  <REMARK>
 VINA RESULT:      -6.3      1.074      1.430
  Name = 
  6 active torsions:
  status: ('A' for Active; 'I' for Inactive)
    1  A    between atoms: C_1  and  C_5
    2  A    between atoms: C_1  and  C_36
    3  A    between atoms: C_6  and  C_31
    4  A    between atoms: C_24  and  C_28
    5  A    between atoms: C_26  and  C_33
    6  A    between atoms: C_26  and  C_34
                            x       y       z     vdW  Elec       q    Type
                         _______ _______ _______ _____ _____    ______ ____

>  <TORSDO>
F 6

$$$$
=
 OpenBabel10272414533D

 37 42  0  0  1  0  0  0  0  0999 V2000
  187.1100  178.4220  134.8360 C   0  0  0  0  0  2  0  0  0  0  0  0
  186.2620  177.3470  139.1210 C   0  0  1  0  0  3  0  0  0  0  0  0
  182.8730  177.7060  140.8920 C   0  0  0  0  0  2  0  0  0  0  0  0
  186.0910  177.3830  136.7710 C   0  0  2  0  0  0  0  0  0  0  0  0
  184.8720  178.0090  139.2480 C   0  0  2  0  0  3  0  0  0  0  0  0
  186.4760  176.6310  137.9100 O   0  0  0  0  0  0  0  0  0  0  0  0
  184.3870  177.8310  140.7070 C   0  0  1  0  0  3  0  0  0  0  0  0
  184.6550  177.9050  136.7940 C   0  0  1  0  0  3  0  0  0  0  0  0
  185.8660  176.4640  135.5900 C   0  0  1  0  0  3  0  0  0  0  0  0
  187.3740  178.6680  140.9570 C   0  0  0  0  0  2  0  0  0  0  0  0
  184.1030  176.8780  135.3950 S   0  0  0  0  0  0  0  0  0  0  0  0
  182.1080  178.9690  140.4850 C   0  0  0  0  0  2  0  0  0  0  0  0
  187.4220  178.2860  139.4810 C   0  0  1  0  0  3  0  0  0  0  0  0
  183.9410  177.5440  138.0970 C   0  0  2  0  0  3  0  0  0  0  0  0
  187.1120  178.4280  136.3490 C   0  0  0  0  0  2  0  0  0  0  0  0
  184.9410  178.9000  141.6730 C   0  0  2  0  0  3  0  0  0  0  0  0
  186.6760  177.0270  134.4320 C   0  0  0  0  0  2  0  0  0  0  0  0
  182.3800  179.3660  139.0300 C   0  0  1  0  0  3  0  0  0  0  0  0
  182.5310  178.1780  138.0580 C   0  0  2  0  0  3  0  0  0  0  0  0
  186.2250  179.6240  141.2420 C   0  0  0  0  0  2  0  0  0  0  0  0
  183.7970  178.4620  143.9620 C   0  0  0  0  0  2  0  0  0  0  0  0
  185.0160  178.3990  143.0870 C   0  0  0  0  0  0  0  0  0  0  0  0
  186.1600  177.9290  143.6080 C   0  0  0  0  0  3  0  0  0  0  0  0
  187.8560  177.2690  145.5890 Cl  0  0  0  0  0  0  0  0  0  0  0  0
  185.4320  178.4470  145.9520 C   0  0  0  0  0  2  0  0  0  0  0  0
  186.1790  177.4640  145.0360 C   0  0  1  0  0  3  0  0  0  0  0  0
  184.1630  179.0640  145.3240 C   0  0  0  0  0  2  0  0  0  0  0  0
  189.5110  177.3700  140.4940 C   0  0  0  0  0  1  0  0  0  0  0  0
  188.7590  177.6140  139.2000 C   0  0  0  0  0  2  0  0  0  0  0  0
  180.1870  180.5750  139.3820 C   0  0  0  0  0  1  0  0  0  0  0  0
  181.4610  180.4940  138.5540 C   0  0  1  0  0  3  0  0  0  0  0  0
  181.3260  182.7620  137.7250 O   0  0  0  0  0  1  0  0  0  0  0  0
  182.1430  181.8550  138.4040 C   0  0  0  0  0  2  0  0  0  0  0  0
  181.4360  177.1230  138.2560 C   0  0  0  0  0  2  0  0  0  0  0  0
  180.6070  176.9350  137.0330 C   0  0  0  0  0  0  0  0  0  0  0  0
  180.3810  178.0050  136.1790 O   0  0  0  0  0  0  0  0  0  0  0  0
  180.0990  175.8120  136.7820 O   0  0  0  0  0  1  0  0  0  0  0  0
  1 15  1  0  0  0  0
  2  6  1  6  0  0  0
  2  5  1  0  0  0  0
  2 13  1  0  0  0  0
  4 15  1  6  0  0  0
  4  8  1  0  0  0  0
  4  6  1  0  0  0  0
  5  7  1  0  0  0  0
  7  3  1  0  0  0  0
  7 16  1  0  0  0  0
  8 14  1  0  0  0  0
  9  4  1  0  0  0  0
 10 20  1  0  0  0  0
 11  9  1  0  0  0  0
 11  8  1  0  0  0  0
 12  3  1  0  0  0  0
 13 10  1  0  0  0  0
 14  5  1  0  0  0  0
 16 22  1  0  0  0  0
 17  1  1  0  0  0  0
 17  9  1  0  0  0  0
 18 12  1  0  0  0  0
 19 14  1  0  0  0  0
 19 34  1  0  0  0  0
 19 18  1  0  0  0  0
 20 16  1  0  0  0  0
 21 27  1  0  0  0  0
 22 23  2  0  0  0  0
 22 21  1  0  0  0  0
 23 26  1  0  0  0  0
 26 24  1  0  0  0  0
 26 25  1  0  0  0  0
 27 25  1  0  0  0  0
 29 13  1  0  0  0  0
 29 28  1  0  0  0  0
 31 18  1  0  0  0  0
 31 30  1  0  0  0  0
 32 33  1  0  0  0  0
 33 31  1  0  0  0  0
 35 34  1  0  0  0  0
 36 35  2  0  0  0  0
 37 35  1  0  0  0  0
M  END
>  <MODEL>
3

>  <REMARK>
 VINA RESULT:      -5.1      2.682      6.396
  Name = 
  6 active torsions:
  status: ('A' for Active; 'I' for Inactive)
    1  A    between atoms: C_1  and  C_5
    2  A    between atoms: C_1  and  C_36
    3  A    between atoms: C_6  and  C_31
    4  A    between atoms: C_24  and  C_28
    5  A    between atoms: C_26  and  C_33
    6  A    between atoms: C_26  and  C_34
                            x       y       z     vdW  Elec       q    Type
                         _______ _______ _______ _____ _____    ______ ____

>  <TORSDO>
F 6

$$$$
=
 OpenBabel10272414533D

 37 42  0  0  1  0  0  0  0  0999 V2000
  189.7150  174.9810  136.8870 C   0  0  0  0  0  2  0  0  0  0  0  0
  186.5660  177.9910  138.0110 C   0  0  1  0  0  3  0  0  0  0  0  0
  185.9670  179.3970  141.5350 C   0  0  0  0  0  2  0  0  0  0  0  0
  188.6850  176.9930  137.7560 C   0  0  2  0  0  0  0  0  0  0  0  0
  186.6740  177.8680  139.5470 C   0  0  2  0  0  3  0  0  0  0  0  0
  187.8110  178.0210  137.3230 O   0  0  0  0  0  0  0  0  0  0  0  0
  185.6020  178.7860  140.1800 C   0  0  1  0  0  3  0  0  0  0  0  0
  188.9490  176.9580  139.2610 C   0  0  1  0  0  3  0  0  0  0  0  0
  190.1140  177.3340  137.3920 C   0  0  1  0  0  3  0  0  0  0  0  0
  184.1360  177.3390  137.8460 C   0  0  0  0  0  2  0  0  0  0  0  0
  190.7120  177.3890  139.1120 S   0  0  0  0  0  0  0  0  0  0  0  0
  186.1420  178.3530  142.6410 C   0  0  0  0  0  2  0  0  0  0  0  0
  185.5560  177.0150  137.3900 C   0  0  1  0  0  3  0  0  0  0  0  0
  188.1490  178.0290  140.0030 C   0  0  2  0  0  3  0  0  0  0  0  0
  188.3750  175.6290  137.1600 C   0  0  0  0  0  2  0  0  0  0  0  0
  184.2060  178.1310  140.2650 C   0  0  2  0  0  3  0  0  0  0  0  0
  190.6860  176.1240  136.6680 C   0  0  0  0  0  2  0  0  0  0  0  0
  187.2060  177.3080  142.2870 C   0  0  1  0  0  3  0  0  0  0  0  0
  188.4210  177.8640  141.5160 C   0  0  2  0  0  3  0  0  0  0  0  0
  183.9290  176.9640  139.3050 C   0  0  0  0  0  2  0  0  0  0  0  0
  182.1670  179.2380  141.4300 C   0  0  0  0  0  2  0  0  0  0  0  0
  183.1020  179.1500  140.2580 C   0  0  0  0  0  0  0  0  0  0  0  0
  182.9030  179.9640  139.2110 C   0  0  0  0  0  3  0  0  0  0  0  0
  181.4790  181.6110  137.6300 Cl  0  0  0  0  0  0  0  0  0  0  0  0
  180.4840  180.2940  139.7910 C   0  0  0  0  0  2  0  0  0  0  0  0
  181.7670  180.9470  139.2530 C   0  0  1  0  0  3  0  0  0  0  0  0
  180.7160  179.2840  140.9360 C   0  0  0  0  0  2  0  0  0  0  0  0
  184.2140  176.9230  135.2870 C   0  0  0  0  0  1  0  0  0  0  0  0
  185.6030  177.0960  135.8690 C   0  0  0  0  0  2  0  0  0  0  0  0
  188.9260  175.7830  143.3390 C   0  0  0  0  0  1  0  0  0  0  0  0
  187.5380  176.3920  143.4680 C   0  0  1  0  0  3  0  0  0  0  0  0
  188.5090  177.3050  145.4860 O   0  0  0  0  0  1  0  0  0  0  0  0
  187.3020  177.0140  144.8460 C   0  0  0  0  0  2  0  0  0  0  0  0
  188.9560  179.1610  142.1350 C   0  0  0  0  0  2  0  0  0  0  0  0
  190.2350  178.9490  142.8690 C   0  0  0  0  0  0  0  0  0  0  0  0
  191.1710  178.0480  142.3810 O   0  0  0  0  0  0  0  0  0  0  0  0
  190.4600  179.5740  143.9370 O   0  0  0  0  0  1  0  0  0  0  0  0
  1 15  1  0  0  0  0
  2  6  1  6  0  0  0
  2  5  1  0  0  0  0
  3 12  1  0  0  0  0
  4 15  1  6  0  0  0
  4  8  1  0  0  0  0
  5 14  1  0  0  0  0
  5  7  1  0  0  0  0
  6  4  1  0  0  0  0
  7 16  1  0  0  0  0
  7  3  1  0  0  0  0
  8 14  1  0  0  0  0
  9  4  1  0  0  0  0
  9 11  1  0  0  0  0
 10 20  1  0  0  0  0
 11  8  1  0  0  0  0
 13 10  1  0  0  0  0
 13  2  1  0  0  0  0
 14 19  1  0  0  0  0
 17  1  1  0  0  0  0
 17  9  1  0  0  0  0
 18 12  1  0  0  0  0
 18 31  1  0  0  0  0
 19 34  1  0  0  0  0
 19 18  1  0  0  0  0
 20 16  1  0  0  0  0
 22 16  1  0  0  0  0
 22 21  1  0  0  0  0
 23 26  1  0  0  0  0
 23 22  2  0  0  0  0
 24 26  1  0  0  0  0
 25 27  1  0  0  0  0
 26 25  1  0  0  0  0
 27 21  1  0  0  0  0
 28 29  1  0  0  0  0
 29 13  1  0  0  0  0
 30 31  1  0  0  0  0
 31 33  1  0  0  0  0
 33 32  1  0  0  0  0
 34 35  1  0  0  0  0
 35 37  1  0  0  0  0
 36 35  2  0  0  0  0
M  END
>  <MODEL>
4

>  <REMARK>
 VINA RESULT:      -4.9      3.194      7.447
  Name = 
  6 active torsions:
  status: ('A' for Active; 'I' for Inactive)
    1  A    between atoms: C_1  and  C_5
    2  A    between atoms: C_1  and  C_36
    3  A    between atoms: C_6  and  C_31
    4  A    between atoms: C_24  and  C_28
    5  A    between atoms: C_26  and  C_33
    6  A    between atoms: C_26  and  C_34
                            x       y       z     vdW  Elec       q    Type
                         _______ _______ _______ _____ _____    ______ ____

>  <TORSDO>
F 6

$$$$
=
 OpenBabel10272414533D

 37 42  0  0  1  0  0  0  0  0999 V2000
  188.0680  177.3520  141.8340 C   0  0  0  0  0  2  0  0  0  0  0  0
  190.8890  177.3480  138.3300 C   0  0  1  0  0  3  0  0  0  0  0  0
  190.1430  175.8940  134.8540 C   0  0  0  0  0  2  0  0  0  0  0  0
  188.9510  177.7350  139.6120 C   0  0  2  0  0  0  0  0  0  0  0  0
  190.1100  176.3780  137.4140 C   0  0  2  0  0  3  0  0  0  0  0  0
  190.0880  178.3160  138.9970 O   0  0  0  0  0  0  0  0  0  0  0  0
  190.9450  176.1530  136.1310 C   0  0  1  0  0  3  0  0  0  0  0  0
  188.0620  176.9090  138.6820 C   0  0  1  0  0  3  0  0  0  0  0  0
  187.9000  178.7930  139.8730 C   0  0  1  0  0  3  0  0  0  0  0  0
  193.0020  175.9790  138.4610 C   0  0  0  0  0  2  0  0  0  0  0  0
  186.6390  178.0380  138.7960 S   0  0  0  0  0  0  0  0  0  0  0  0
  189.3320  174.5970  134.9020 C   0  0  0  0  0  2  0  0  0  0  0  0
  191.8850  176.6420  139.2620 C   0  0  1  0  0  3  0  0  0  0  0  0
  188.6350  176.8370  137.2660 C   0  0  2  0  0  3  0  0  0  0  0  0
  189.2480  177.0510  140.9360 C   0  0  0  0  0  2  0  0  0  0  0  0
  192.0330  175.0690  136.2890 C   0  0  2  0  0  3  0  0  0  0  0  0
  187.4980  178.6650  141.3340 C   0  0  0  0  0  2  0  0  0  0  0  0
  188.3630  174.5640  136.0890 C   0  0  1  0  0  3  0  0  0  0  0  0
  187.7140  175.9220  136.4260 C   0  0  2  0  0  3  0  0  0  0  0  0
  192.4920  174.7520  137.7200 C   0  0  0  0  0  2  0  0  0  0  0  0
  193.6770  174.1510  134.5020 C   0  0  0  0  0  2  0  0  0  0  0  0
  193.1880  175.2860  135.3540 C   0  0  0  0  0  0  0  0  0  0  0  0
  193.8260  176.4640  135.2860 C   0  0  0  0  0  3  0  0  0  0  0  0
  195.8860  178.1020  134.7260 Cl  0  0  0  0  0  0  0  0  0  0  0  0
  195.9280  175.4000  134.4250 C   0  0  0  0  0  2  0  0  0  0  0  0
  194.9900  176.6150  134.3480 C   0  0  1  0  0  3  0  0  0  0  0  0
  195.2040  174.0470  134.5970 C   0  0  0  0  0  2  0  0  0  0  0  0
  192.1500  177.2920  141.6570 C   0  0  0  0  0  1  0  0  0  0  0  0
  192.5120  177.6400  140.2260 C   0  0  0  0  0  2  0  0  0  0  0  0
  188.1400  172.0630  135.7880 C   0  0  0  0  0  1  0  0  0  0  0  0
  187.4020  173.3720  136.0230 C   0  0  1  0  0  3  0  0  0  0  0  0
  185.4230  172.3310  136.9410 O   0  0  0  0  0  1  0  0  0  0  0  0
  186.4150  173.2830  137.1880 C   0  0  0  0  0  2  0  0  0  0  0  0
  187.1950  176.6430  135.1760 C   0  0  0  0  0  2  0  0  0  0  0  0
  185.7230  176.8630  135.2240 C   0  0  0  0  0  0  0  0  0  0  0  0
  184.9560  176.2100  136.1780 O   0  0  0  0  0  1  0  0  0  0  0  0
  185.1720  177.6290  134.3910 O   0  0  0  0  0  0  0  0  0  0  0  0
  2  6  1  1  0  0  0
  2 13  1  0  0  0  0
  3 12  1  0  0  0  0
  3  7  1  0  0  0  0
  4  9  1  0  0  0  0
  4 15  1  1  0  0  0
  5  2  1  0  0  0  0
  6  4  1  0  0  0  0
  7 16  1  0  0  0  0
  7  5  1  0  0  0  0
  8 11  1  0  0  0  0
  8  4  1  0  0  0  0
  9 17  1  0  0  0  0
 10 13  1  0  0  0  0
 11  9  1  0  0  0  0
 12 18  1  0  0  0  0
 13 29  1  0  0  0  0
 14  5  1  0  0  0  0
 14  8  1  0  0  0  0
 15  1  1  0  0  0  0
 16 20  1  0  0  0  0
 17  1  1  0  0  0  0
 18 19  1  0  0  0  0
 19 14  1  0  0  0  0
 20 10  1  0  0  0  0
 21 27  1  0  0  0  0
 21 22  1  0  0  0  0
 22 16  1  0  0  0  0
 23 22  2  0  0  0  0
 25 27  1  0  0  0  0
 26 25  1  0  0  0  0
 26 24  1  0  0  0  0
 26 23  1  0  0  0  0
 29 28  1  0  0  0  0
 30 31  1  0  0  0  0
 31 18  1  0  0  0  0
 31 33  1  0  0  0  0
 32 33  1  0  0  0  0
 34 35  1  0  0  0  0
 34 19  1  0  0  0  0
 35 36  1  0  0  0  0
 37 35  2  0  0  0  0
M  END
>  <MODEL>
5

>  <REMARK>
 VINA RESULT:      -4.5      3.615      6.377
  Name = 
  6 active torsions:
  status: ('A' for Active; 'I' for Inactive)
    1  A    between atoms: C_1  and  C_5
    2  A    between atoms: C_1  and  C_36
    3  A    between atoms: C_6  and  C_31
    4  A    between atoms: C_24  and  C_28
    5  A    between atoms: C_26  and  C_33
    6  A    between atoms: C_26  and  C_34
                            x       y       z     vdW  Elec       q    Type
                         _______ _______ _______ _____ _____    ______ ____

>  <TORSDO>
F 6

$$$$
=
 OpenBabel10272414533D

 37 42  0  0  1  0  0  0  0  0999 V2000
  180.7980  173.3800  135.1310 C   0  0  0  0  0  2  0  0  0  0  0  0
  184.5570  175.0100  136.9900 C   0  0  1  0  0  3  0  0  0  0  0  0
  184.7820  178.1250  139.2250 C   0  0  0  0  0  2  0  0  0  0  0  0
  182.3690  174.1560  136.8030 C   0  0  2  0  0  0  0  0  0  0  0  0
  184.0030  176.3720  137.4620 C   0  0  2  0  0  3  0  0  0  0  0  0
  183.6980  173.9000  137.2230 O   0  0  0  0  0  0  0  0  0  0  0  0
  185.1670  177.1730  138.0900 C   0  0  1  0  0  3  0  0  0  0  0  0
  181.7320  175.4120  137.3960 C   0  0  1  0  0  3  0  0  0  0  0  0
  181.4120  173.2020  137.4850 C   0  0  1  0  0  3  0  0  0  0  0  0
  186.3590  175.9410  135.4920 C   0  0  0  0  0  2  0  0  0  0  0  0
  180.4770  174.5030  138.3520 S   0  0  0  0  0  0  0  0  0  0  0  0
  183.8600  179.2610  138.7750 C   0  0  0  0  0  2  0  0  0  0  0  0
  185.1270  175.0430  135.5640 C   0  0  1  0  0  3  0  0  0  0  0  0
  182.7080  176.1730  138.2930 C   0  0  2  0  0  3  0  0  0  0  0  0
  182.1600  174.0180  135.3030 C   0  0  0  0  0  2  0  0  0  0  0  0
  186.0260  177.9270  137.0510 C   0  0  2  0  0  3  0  0  0  0  0  0
  180.5600  172.5740  136.3920 C   0  0  0  0  0  2  0  0  0  0  0  0
  182.5710  178.7390  138.1320 C   0  0  1  0  0  3  0  0  0  0  0  0
  182.0020  177.4600  138.7800 C   0  0  2  0  0  3  0  0  0  0  0  0
  185.9760  177.4090  135.6060 C   0  0  0  0  0  2  0  0  0  0  0  0
  188.5150  178.4540  136.5370 C   0  0  0  0  0  2  0  0  0  0  0  0
  187.4320  178.1450  137.5300 C   0  0  0  0  0  0  0  0  0  0  0  0
  187.7590  178.0340  138.8260 C   0  0  0  0  0  3  0  0  0  0  0  0
  189.4260  177.6610  140.9050 Cl  0  0  0  0  0  0  0  0  0  0  0  0
  190.1560  177.5220  138.2890 C   0  0  0  0  0  2  0  0  0  0  0  0
  189.1870  178.2400  139.2420 C   0  0  1  0  0  3  0  0  0  0  0  0
  189.7360  177.5660  136.8040 C   0  0  0  0  0  2  0  0  0  0  0  0
  186.7410  173.1670  135.8880 C   0  0  0  0  0  1  0  0  0  0  0  0
  185.5250  173.6420  135.1170 C   0  0  0  0  0  2  0  0  0  0  0  0
  182.0080  181.1800  138.4710 C   0  0  0  0  0  1  0  0  0  0  0  0
  181.5550  179.8560  137.8750 C   0  0  1  0  0  3  0  0  0  0  0  0
  181.4450  178.8600  135.6750 O   0  0  0  0  0  1  0  0  0  0  0  0
  181.1120  179.9950  136.4180 C   0  0  0  0  0  2  0  0  0  0  0  0
  181.9830  177.5450  140.3110 C   0  0  0  0  0  2  0  0  0  0  0  0
  180.7000  178.0960  140.8290 C   0  0  0  0  0  0  0  0  0  0  0  0
  179.9820  179.0100  140.0690 O   0  0  0  0  0  0  0  0  0  0  0  0
  180.2730  177.7470  141.9600 O   0  0  0  0  0  1  0  0  0  0  0  0
  1 15  1  0  0  0  0
  1 17  1  0  0  0  0
  2  6  1  6  0  0  0
  2  5  1  0  0  0  0
  4 15  1  6  0  0  0
  4  6  1  0  0  0  0
  4  8  1  0  0  0  0
  4  9  1  0  0  0  0
  5  7  1  0  0  0  0
  5 14  1  0  0  0  0
  7  3  1  0  0  0  0
  8 14  1  0  0  0  0
  8 11  1  0  0  0  0
  9 11  1  0  0  0  0
 10 13  1  0  0  0  0
 10 20  1  0  0  0  0
 12  3  1  0  0  0  0
 13  2  1  0  0  0  0
 14 19  1  0  0  0  0
 16 22  1  0  0  0  0
 16  7  1  0  0  0  0
 17  9  1  0  0  0  0
 18 12  1  0  0  0  0
 18 19  1  0  0  0  0
 19 34  1  0  0  0  0
 20 16  1  0  0  0  0
 21 27  1  0  0  0  0
 21 22  1  0  0  0  0
 22 23  2  0  0  0  0
 23 26  1  0  0  0  0
 25 26  1  0  0  0  0
 26 24  1  0  0  0  0
 27 25  1  0  0  0  0
 29 13  1  0  0  0  0
 29 28  1  0  0  0  0
 31 18  1  0  0  0  0
 31 30  1  0  0  0  0
 32 33  1  0  0  0  0
 33 31  1  0  0  0  0
 34 35  1  0  0  0  0
 35 37  1  0  0  0  0
 36 35  2  0  0  0  0
M  END
>  <MODEL>
6

>  <REMARK>
 VINA RESULT:      -4.5      3.898      7.368
  Name = 
  6 active torsions:
  status: ('A' for Active; 'I' for Inactive)
    1  A    between atoms: C_1  and  C_5
    2  A    between atoms: C_1  and  C_36
    3  A    between atoms: C_6  and  C_31
    4  A    between atoms: C_24  and  C_28
    5  A    between atoms: C_26  and  C_33
    6  A    between atoms: C_26  and  C_34
                            x       y       z     vdW  Elec       q    Type
                         _______ _______ _______ _____ _____    ______ ____

>  <TORSDO>
F 6

$$$$
=
 OpenBabel10272414533D

 37 42  0  0  1  0  0  0  0  0999 V2000
  187.7820  179.1160  148.9250 C   0  0  0  0  0  2  0  0  0  0  0  0
  186.0530  177.8210  144.9790 C   0  0  1  0  0  3  0  0  0  0  0  0
  188.0720  176.8650  141.8540 C   0  0  0  0  0  2  0  0  0  0  0  0
  187.3280  177.7760  146.9590 C   0  0  2  0  0  0  0  0  0  0  0  0
  187.3420  177.9010  144.1310 C   0  0  2  0  0  3  0  0  0  0  0  0
  186.2170  177.2360  146.2650 O   0  0  0  0  0  0  0  0  0  0  0  0
  186.9770  177.5590  142.6670 C   0  0  1  0  0  3  0  0  0  0  0  0
  188.6580  177.7080  146.2080 C   0  0  1  0  0  3  0  0  0  0  0  0
  187.7650  176.8340  148.0610 C   0  0  1  0  0  3  0  0  0  0  0  0
  184.7200  179.4780  143.6240 C   0  0  0  0  0  2  0  0  0  0  0  0
  189.4270  176.5410  147.3740 S   0  0  0  0  0  0  0  0  0  0  0  0
  189.3130  177.7370  141.6460 C   0  0  0  0  0  2  0  0  0  0  0  0
  185.2600  179.1350  145.0100 C   0  0  1  0  0  3  0  0  0  0  0  0
  188.4900  177.1090  144.8110 C   0  0  2  0  0  3  0  0  0  0  0  0
  187.0580  179.1300  147.5960 C   0  0  0  0  0  2  0  0  0  0  0  0
  186.4260  178.7640  141.8730 C   0  0  2  0  0  3  0  0  0  0  0  0
  187.8540  177.6580  149.3360 C   0  0  0  0  0  2  0  0  0  0  0  0
  189.9250  178.1990  142.9720 C   0  0  1  0  0  3  0  0  0  0  0  0
  189.8650  177.1550  144.1060 C   0  0  2  0  0  3  0  0  0  0  0  0
  185.8380  179.9230  142.6930 C   0  0  0  0  0  2  0  0  0  0  0  0
  186.0050  178.4130  139.3360 C   0  0  0  0  0  2  0  0  0  0  0  0
  185.5190  178.3390  140.7550 C   0  0  0  0  0  0  0  0  0  0  0  0
  184.2640  177.9270  140.9850 C   0  0  0  0  0  3  0  0  0  0  0  0
  181.7010  177.4140  140.3450 Cl  0  0  0  0  0  0  0  0  0  0  0  0
  183.5210  178.5440  138.6700 C   0  0  0  0  0  2  0  0  0  0  0  0
  183.3960  177.5360  139.8240 C   0  0  1  0  0  3  0  0  0  0  0  0
  184.9480  179.0940  138.4580 C   0  0  0  0  0  2  0  0  0  0  0  0
  182.7950  178.7880  145.2050 C   0  0  0  0  0  1  0  0  0  0  0  0
  184.0830  179.0250  145.9710 C   0  0  0  0  0  2  0  0  0  0  0  0
  191.7710  179.5370  144.0650 C   0  0  0  0  0  1  0  0  0  0  0  0
  191.2790  178.8870  142.7810 C   0  0  1  0  0  3  0  0  0  0  0  0
  191.9900  177.6660  140.8190 O   0  0  0  0  0  1  0  0  0  0  0  0
  192.3510  178.0170  142.1220 C   0  0  0  0  0  2  0  0  0  0  0  0
  190.3000  175.7620  143.6340 C   0  0  0  0  0  2  0  0  0  0  0  0
  191.4940  175.2640  144.3730 C   0  0  0  0  0  0  0  0  0  0  0  0
  192.0760  176.0510  145.3570 O   0  0  0  0  0  1  0  0  0  0  0  0
  191.9830  174.1380  144.0960 O   0  0  0  0  0  0  0  0  0  0  0  0
  1 17  1  0  0  0  0
  2 13  1  0  0  0  0
  2  6  1  1  0  0  0
  3  7  1  0  0  0  0
  4 15  1  1  0  0  0
  4  9  1  0  0  0  0
  5 14  1  0  0  0  0
  5  2  1  0  0  0  0
  6  4  1  0  0  0  0
  7  5  1  0  0  0  0
  8  4  1  0  0  0  0
  8 11  1  0  0  0  0
  9 17  1  0  0  0  0
 10 13  1  0  0  0  0
 11  9  1  0  0  0  0
 12  3  1  0  0  0  0
 12 18  1  0  0  0  0
 13 29  1  0  0  0  0
 14  8  1  0  0  0  0
 15  1  1  0  0  0  0
 16  7  1  0  0  0  0
 16 20  1  0  0  0  0
 18 19  1  0  0  0  0
 19 14  1  0  0  0  0
 20 10  1  0  0  0  0
 21 22  1  0  0  0  0
 22 23  2  0  0  0  0
 22 16  1  0  0  0  0
 25 26  1  0  0  0  0
 26 24  1  0  0  0  0
 26 23  1  0  0  0  0
 27 25  1  0  0  0  0
 27 21  1  0  0  0  0
 28 29  1  0  0  0  0
 31 18  1  0  0  0  0
 31 30  1  0  0  0  0
 32 33  1  0  0  0  0
 33 31  1  0  0  0  0
 34 19  1  0  0  0  0
 34 35  1  0  0  0  0
 35 36  1  0  0  0  0
 37 35  2  0  0  0  0
M  END
>  <MODEL>
7

>  <REMARK>
 VINA RESULT:      -4.5      3.923      7.451
  Name = 
  6 active torsions:
  status: ('A' for Active; 'I' for Inactive)
    1  A    between atoms: C_1  and  C_5
    2  A    between atoms: C_1  and  C_36
    3  A    between atoms: C_6  and  C_31
    4  A    between atoms: C_24  and  C_28
    5  A    between atoms: C_26  and  C_33
    6  A    between atoms: C_26  and  C_34
                            x       y       z     vdW  Elec       q    Type
                         _______ _______ _______ _____ _____    ______ ____

>  <TORSDO>
F 6

$$$$
=
 OpenBabel10272414533D

 37 42  0  0  1  0  0  0  0  0999 V2000
  181.8180  179.4830  137.6910 C   0  0  0  0  0  2  0  0  0  0  0  0
  182.8480  175.1290  137.2130 C   0  0  1  0  0  3  0  0  0  0  0  0
  186.2800  173.7370  136.1970 C   0  0  0  0  0  2  0  0  0  0  0  0
  182.9370  177.3540  137.9820 C   0  0  2  0  0  0  0  0  0  0  0  0
  184.2170  175.2960  136.5190 C   0  0  2  0  0  3  0  0  0  0  0  0
  182.6170  176.0120  138.3050 O   0  0  0  0  0  0  0  0  0  0  0  0
  184.7580  173.8880  136.1750 C   0  0  1  0  0  3  0  0  0  0  0  0
  184.3550  177.5740  137.4540 C   0  0  1  0  0  3  0  0  0  0  0  0
  183.1540  178.1590  139.2460 C   0  0  1  0  0  3  0  0  0  0  0  0
  181.7530  173.8090  135.3650 C   0  0  0  0  0  2  0  0  0  0  0  0
  184.8940  178.5600  138.8870 S   0  0  0  0  0  0  0  0  0  0  0  0
  186.9870  174.5850  135.1350 C   0  0  0  0  0  2  0  0  0  0  0  0
  181.6690  175.0620  136.2310 C   0  0  1  0  0  3  0  0  0  0  0  0
  185.1240  176.2590  137.3300 C   0  0  2  0  0  3  0  0  0  0  0  0
  181.8670  178.0640  137.1670 C   0  0  0  0  0  2  0  0  0  0  0  0
  184.1990  173.3220  134.8510 C   0  0  2  0  0  3  0  0  0  0  0  0
  182.2860  179.4030  139.1310 C   0  0  0  0  0  2  0  0  0  0  0  0
  186.6530  176.0740  135.2670 C   0  0  1  0  0  3  0  0  0  0  0  0
  186.5100  176.5740  136.7190 C   0  0  2  0  0  3  0  0  0  0  0  0
  182.8770  173.9190  134.3460 C   0  0  0  0  0  2  0  0  0  0  0  0
  182.9230  171.0840  135.1670 C   0  0  0  0  0  2  0  0  0  0  0  0
  184.1900  171.8200  134.8370 C   0  0  0  0  0  0  0  0  0  0  0  0
  185.2980  171.1120  134.5750 C   0  0  0  0  0  3  0  0  0  0  0  0
  186.8720  168.9310  134.6130 Cl  0  0  0  0  0  0  0  0  0  0  0  0
  184.4410  169.1080  135.8170 C   0  0  0  0  0  2  0  0  0  0  0  0
  185.2310  169.6110  134.5990 C   0  0  1  0  0  3  0  0  0  0  0  0
  183.2150  169.9730  136.1830 C   0  0  0  0  0  2  0  0  0  0  0  0
  180.1510  173.6970  137.6670 C   0  0  0  0  0  1  0  0  0  0  0  0
  180.3470  175.0380  136.9870 C   0  0  0  0  0  2  0  0  0  0  0  0
  187.2750  178.4300  134.5920 C   0  0  0  0  0  1  0  0  0  0  0  0
  187.5150  176.9480  134.3520 C   0  0  1  0  0  3  0  0  0  0  0  0
  189.7350  177.4610  135.1610 O   0  0  0  0  0  1  0  0  0  0  0  0
  189.0040  176.5930  134.3470 C   0  0  0  0  0  2  0  0  0  0  0  0
  187.6470  176.0750  137.6190 C   0  0  0  0  0  2  0  0  0  0  0  0
  188.3180  177.1870  138.3480 C   0  0  0  0  0  0  0  0  0  0  0  0
  189.0760  176.9150  139.4790 O   0  0  0  0  0  1  0  0  0  0  0  0
  188.1870  178.3730  137.9490 O   0  0  0  0  0  0  0  0  0  0  0  0
  1 17  1  0  0  0  0
  2  6  1  1  0  0  0
  4 15  1  6  0  0  0
  4  6  1  0  0  0  0
  4  9  1  0  0  0  0
  5  2  1  0  0  0  0
  5 14  1  0  0  0  0
  7  3  1  0  0  0  0
  7  5  1  0  0  0  0
  8  4  1  0  0  0  0
  8 11  1  0  0  0  0
 10 13  1  0  0  0  0
 11  9  1  0  0  0  0
 12 18  1  0  0  0  0
 12  3  1  0  0  0  0
 13 29  1  0  0  0  0
 13  2  1  0  0  0  0
 14  8  1  0  0  0  0
 15  1  1  0  0  0  0
 16  7  1  0  0  0  0
 17  9  1  0  0  0  0
 18 19  1  0  0  0  0
 19 14  1  0  0  0  0
 19 34  1  0  0  0  0
 20 16  1  0  0  0  0
 20 10  1  0  0  0  0
 21 27  1  0  0  0  0
 22 16  1  0  0  0  0
 22 21  1  0  0  0  0
 23 26  1  0  0  0  0
 23 22  2  0  0  0  0
 25 27  1  0  0  0  0
 26 24  1  0  0  0  0
 26 25  1  0  0  0  0
 29 28  1  0  0  0  0
 31 30  1  0  0  0  0
 31 18  1  0  0  0  0
 33 31  1  0  0  0  0
 33 32  1  0  0  0  0
 34 35  1  0  0  0  0
 35 36  1  0  0  0  0
 37 35  2  0  0  0  0
M  END
>  <MODEL>
8

>  <REMARK>
 VINA RESULT:      -4.0      4.564      7.854
  Name = 
  6 active torsions:
  status: ('A' for Active; 'I' for Inactive)
    1  A    between atoms: C_1  and  C_5
    2  A    between atoms: C_1  and  C_36
    3  A    between atoms: C_6  and  C_31
    4  A    between atoms: C_24  and  C_28
    5  A    between atoms: C_26  and  C_33
    6  A    between atoms: C_26  and  C_34
                            x       y       z     vdW  Elec       q    Type
                         _______ _______ _______ _____ _____    ______ ____

>  <TORSDO>
F 6

$$$$
=
 OpenBabel10272414533D

 37 42  0  0  1  0  0  0  0  0999 V2000
  185.4330  177.8340  145.2170 C   0  0  0  0  0  2  0  0  0  0  0  0
  186.9730  178.7760  141.0960 C   0  0  1  0  0  3  0  0  0  0  0  0
  184.9910  178.4160  137.8260 C   0  0  0  0  0  2  0  0  0  0  0  0
  185.6050  178.8240  143.0130 C   0  0  2  0  0  0  0  0  0  0  0  0
  185.8320  178.1350  140.2770 C   0  0  2  0  0  3  0  0  0  0  0  0
  186.5500  179.5290  142.2270 O   0  0  0  0  0  0  0  0  0  0  0  0
  186.1820  178.2710  138.7760 C   0  0  1  0  0  3  0  0  0  0  0  0
  184.3730  178.3270  142.2560 C   0  0  1  0  0  3  0  0  0  0  0  0
  184.8290  179.7880  143.8860 C   0  0  1  0  0  3  0  0  0  0  0  0
  188.8340  177.3730  140.1350 C   0  0  0  0  0  2  0  0  0  0  0  0
  183.2090  179.4120  143.1410 S   0  0  0  0  0  0  0  0  0  0  0  0
  184.0850  177.1820  137.8010 C   0  0  0  0  0  2  0  0  0  0  0  0
  188.1190  177.8040  141.4120 C   0  0  1  0  0  3  0  0  0  0  0  0
  184.4540  178.6550  140.7650 C   0  0  2  0  0  3  0  0  0  0  0  0
  186.2220  177.7760  143.9260 C   0  0  0  0  0  2  0  0  0  0  0  0
  187.1230  177.1600  138.2610 C   0  0  2  0  0  3  0  0  0  0  0  0
  184.8990  179.2500  145.3070 C   0  0  0  0  0  2  0  0  0  0  0  0
  183.5470  176.8310  139.1920 C   0  0  1  0  0  3  0  0  0  0  0  0
  183.2090  178.0490  140.0760 C   0  0  2  0  0  3  0  0  0  0  0  0
  187.9700  176.4280  139.3130 C   0  0  0  0  0  2  0  0  0  0  0  0
  187.4650  178.7670  136.2510 C   0  0  0  0  0  2  0  0  0  0  0  0
  187.9390  177.6100  137.0840 C   0  0  0  0  0  0  0  0  0  0  0  0
  189.0680  176.9800  136.7280 C   0  0  0  0  0  3  0  0  0  0  0  0
  191.0350  176.2490  135.0440 Cl  0  0  0  0  0  0  0  0  0  0  0  0
  188.8850  177.7630  134.3510 C   0  0  0  0  0  2  0  0  0  0  0  0
  189.8290  177.4620  135.5260 C   0  0  1  0  0  3  0  0  0  0  0  0
  187.5420  178.4040  134.7640 C   0  0  0  0  0  2  0  0  0  0  0  0
  189.8410  177.4160  143.1770 C   0  0  0  0  0  1  0  0  0  0  0  0
  189.1370  178.4620  142.3350 C   0  0  0  0  0  2  0  0  0  0  0  0
  181.5500  175.7950  140.3470 C   0  0  0  0  0  1  0  0  0  0  0  0
  182.4770  175.7360  139.1420 C   0  0  1  0  0  3  0  0  0  0  0  0
  181.4290  174.3250  137.4810 O   0  0  0  0  0  1  0  0  0  0  0  0
  181.7100  175.6510  137.8220 C   0  0  0  0  0  2  0  0  0  0  0  0
  182.4130  179.1160  139.3150 C   0  0  0  0  0  2  0  0  0  0  0  0
  181.1770  179.5210  140.0420 C   0  0  0  0  0  0  0  0  0  0  0  0
  180.6240  180.7740  139.8200 O   0  0  0  0  0  0  0  0  0  0  0  0
  180.6430  178.7350  140.8660 O   0  0  0  0  0  1  0  0  0  0  0  0
  1 17  1  0  0  0  0
  2 13  1  0  0  0  0
  2  6  1  1  0  0  0
  3  7  1  0  0  0  0
  4  9  1  0  0  0  0
  4 15  1  1  0  0  0
  5 14  1  0  0  0  0
  5  2  1  0  0  0  0
  6  4  1  0  0  0  0
  7  5  1  0  0  0  0
  8  4  1  0  0  0  0
  8 11  1  0  0  0  0
  9 17  1  0  0  0  0
 10 13  1  0  0  0  0
 11  9  1  0  0  0  0
 12  3  1  0  0  0  0
 12 18  1  0  0  0  0
 13 29  1  0  0  0  0
 14  8  1  0  0  0  0
 15  1  1  0  0  0  0
 16  7  1  0  0  0  0
 16 20  1  0  0  0  0
 18 19  1  0  0  0  0
 19 14  1  0  0  0  0
 20 10  1  0  0  0  0
 21 22  1  0  0  0  0
 22 16  1  0  0  0  0
 23 22  2  0  0  0  0
 24 26  1  0  0  0  0
 25 27  1  0  0  0  0
 25 26  1  0  0  0  0
 26 23  1  0  0  0  0
 27 21  1  0  0  0  0
 29 28  1  0  0  0  0
 31 18  1  0  0  0  0
 31 30  1  0  0  0  0
 32 33  1  0  0  0  0
 33 31  1  0  0  0  0
 34 35  1  0  0  0  0
 34 19  1  0  0  0  0
 35 37  1  0  0  0  0
 36 35  2  0  0  0  0
M  END
>  <MODEL>
9

>  <REMARK>
 VINA RESULT:      -3.6      3.304      6.368
  Name = 
  6 active torsions:
  status: ('A' for Active; 'I' for Inactive)
    1  A    between atoms: C_1  and  C_5
    2  A    between atoms: C_1  and  C_36
    3  A    between atoms: C_6  and  C_31
    4  A    between atoms: C_24  and  C_28
    5  A    between atoms: C_26  and  C_33
    6  A    between atoms: C_26  and  C_34
                            x       y       z     vdW  Elec       q    Type
                         _______ _______ _______ _____ _____    ______ ____

>  <TORSDO>
F 6

$$$$
