=
 OpenBabel10272401583D

 28 32  0  0  1  0  0  0  0  0999 V2000
  187.0770  178.3210  140.7860 N   0  0  0  0  0  0  0  0  0  0  0  0
  189.6060  176.9740  145.3150 S   0  0  0  0  0  0  0  0  0  0  0  0
  183.5110  179.1530  144.1700 C   0  0  0  0  0  1  0  0  0  0  0  0
  187.4920  177.5120  146.8370 C   0  0  0  0  0  0  0  0  0  0  0  0
  187.0660  177.9240  144.5130 C   0  0  2  0  0  3  0  0  0  0  0  0
  187.9260  177.5160  145.5330 C   0  0  0  0  0  0  0  0  0  0  0  0
  185.3620  178.3070  146.1950 C   0  0  0  0  0  3  0  0  0  0  0  0
  188.3800  177.1090  147.7250 C   0  0  0  0  0  2  0  0  0  0  0  0
  185.3700  178.7160  142.4400 C   0  0  0  0  0  0  0  0  0  0  0  0
  187.4920  177.9370  143.1820 O   0  0  0  0  0  0  0  0  0  0  0  0
  186.2330  177.9020  147.1610 N   0  0  0  0  0  0  0  0  0  0  0  0
  184.8620  179.1100  140.0770 C   0  0  0  0  0  3  0  0  0  0  0  0
  184.9110  178.7180  143.8570 C   0  0  0  0  0  0  0  0  0  0  0  0
  184.4580  179.1240  141.3480 C   0  0  0  0  0  3  0  0  0  0  0  0
  189.7010  176.7220  147.1350 C   0  0  2  0  0  3  0  0  0  0  0  0
  185.7530  178.3270  144.8390 C   0  0  0  0  0  0  0  0  0  0  0  0
  186.1940  178.6980  139.7600 N   0  0  0  0  0  2  0  0  0  0  0  0
  186.6290  178.3310  142.1510 C   0  0  0  0  0  0  0  0  0  0  0  0
  190.7960  177.5880  147.7290 C   0  0  0  0  0  2  0  0  0  0  0  0
  192.0240  176.8210  147.8500 N   0  0  0  0  0  1  0  0  0  0  0  0
  188.4180  177.8650  140.4440 C   0  0  0  0  0  2  0  0  0  0  0  0
  188.5690  177.7730  138.9640 C   0  0  0  0  0  0  0  0  0  0  0  0
  188.9040  177.5880  136.1920 C   0  0  0  0  0  0  0  0  0  0  0  0
  188.2660  176.5790  138.2990 C   0  0  0  0  0  3  0  0  0  0  0  0
  189.0470  178.8710  138.2410 C   0  0  0  0  0  3  0  0  0  0  0  0
  189.2130  178.7800  136.8560 C   0  0  0  0  0  3  0  0  0  0  0  0
  189.0810  177.4910  134.7200 C   0  0  0  0  0  1  0  0  0  0  0  0
  188.4330  176.4880  136.9130 C   0  0  0  0  0  3  0  0  0  0  0  0
  1 18  1  0  0  0  0
  2  6  1  0  0  0  0
  2 15  1  0  0  0  0
  4 11  1  0  0  0  0
  4  8  1  0  0  0  0
  5 10  1  1  0  0  0
  5 16  1  0  0  0  0
  5  6  1  0  0  0  0
  6  4  2  0  0  0  0
  7 11  2  0  0  0  0
  9 13  1  0  0  0  0
 12 14  2  0  0  0  0
 13  3  1  0  0  0  0
 13 16  2  0  0  0  0
 14  9  1  0  0  0  0
 15  8  1  0  0  0  0
 15 19  1  1  0  0  0
 16  7  1  0  0  0  0
 17 12  1  0  0  0  0
 17  1  1  0  0  0  0
 18  9  2  0  0  0  0
 18 10  1  0  0  0  0
 19 20  1  0  0  0  0
 21  1  1  0  0  0  0
 22 21  1  0  0  0  0
 23 26  2  0  0  0  0
 23 28  1  0  0  0  0
 24 22  1  0  0  0  0
 25 22  2  0  0  0  0
 26 25  1  0  0  0  0
 27 23  1  0  0  0  0
 28 24  2  0  0  0  0
M  END
>  <MODEL>
1

>  <REMARK>
 VINA RESULT:      -9.4      0.000      0.000
  Name = 
  3 active torsions:
  status: ('A' for Active; 'I' for Inactive)
    1  A    between atoms: N_1  and  C_2
    2  A    between atoms: C_2  and  C_3
    3  A    between atoms: C_12  and  C_24
                            x       y       z     vdW  Elec       q    Type
                         _______ _______ _______ _____ _____    ______ ____

>  <TORSDO>
F 3

$$$$
=
 OpenBabel10272401583D

 28 32  0  0  1  0  0  0  0  0999 V2000
  183.8930  178.6600  141.8340 N   0  0  0  0  0  0  0  0  0  0  0  0
  189.0120  177.0760  141.7310 S   0  0  0  0  0  0  0  0  0  0  0  0
  184.9110  178.3560  146.7060 C   0  0  0  0  0  1  0  0  0  0  0  0
  189.2060  177.0140  144.3820 C   0  0  0  0  0  0  0  0  0  0  0  0
  187.0290  177.7000  143.6490 C   0  0  2  0  0  3  0  0  0  0  0  0
  188.3300  177.2900  143.3600 C   0  0  0  0  0  0  0  0  0  0  0  0
  187.5690  177.5310  146.0060 C   0  0  0  0  0  3  0  0  0  0  0  0
  190.4120  176.6330  144.0060 C   0  0  0  0  0  2  0  0  0  0  0  0
  184.4090  178.5060  144.1830 C   0  0  0  0  0  0  0  0  0  0  0  0
  186.1270  177.9880  142.6210 O   0  0  0  0  0  0  0  0  0  0  0  0
  188.8320  177.1330  145.6820 N   0  0  0  0  0  0  0  0  0  0  0  0
  182.1540  179.1670  143.4930 C   0  0  0  0  0  3  0  0  0  0  0  0
  185.3670  178.2150  145.2850 C   0  0  0  0  0  0  0  0  0  0  0  0
  183.0180  178.9180  144.4780 C   0  0  0  0  0  3  0  0  0  0  0  0
  190.5940  176.5670  142.5200 C   0  0  2  0  0  3  0  0  0  0  0  0
  186.6280  177.8240  144.9970 C   0  0  0  0  0  0  0  0  0  0  0  0
  182.5730  179.0370  142.1320 N   0  0  0  0  0  2  0  0  0  0  0  0
  184.8130  178.3850  142.9030 C   0  0  0  0  0  0  0  0  0  0  0  0
  191.7130  177.5020  142.1040 C   0  0  0  0  0  2  0  0  0  0  0  0
  191.8420  177.5090  140.6570 N   0  0  0  0  0  1  0  0  0  0  0  0
  184.2920  178.4920  140.4440 C   0  0  0  0  0  2  0  0  0  0  0  0
  183.1880  177.8670  139.6620 C   0  0  0  0  0  0  0  0  0  0  0  0
  181.1510  176.6770  138.1580 C   0  0  0  0  0  0  0  0  0  0  0  0
  182.7600  176.5690  139.9640 C   0  0  0  0  0  3  0  0  0  0  0  0
  182.6010  178.5650  138.6010 C   0  0  0  0  0  3  0  0  0  0  0  0
  181.5820  177.9720  137.8500 C   0  0  0  0  0  3  0  0  0  0  0  0
  180.0670  176.0460  137.3590 C   0  0  0  0  0  1  0  0  0  0  0  0
  181.7400  175.9760  139.2130 C   0  0  0  0  0  3  0  0  0  0  0  0
  1 17  1  0  0  0  0
  1 18  1  0  0  0  0
  2 15  1  0  0  0  0
  2  6  1  0  0  0  0
  4 11  1  0  0  0  0
  5 10  1  1  0  0  0
  5 16  1  0  0  0  0
  6  5  1  0  0  0  0
  6  4  2  0  0  0  0
  8  4  1  0  0  0  0
  9 14  1  0  0  0  0
  9 13  1  0  0  0  0
 10 18  1  0  0  0  0
 11  7  2  0  0  0  0
 12 14  2  0  0  0  0
 13  3  1  0  0  0  0
 15 19  1  6  0  0  0
 15  8  1  0  0  0  0
 16 13  2  0  0  0  0
 16  7  1  0  0  0  0
 17 12  1  0  0  0  0
 18  9  2  0  0  0  0
 20 19  1  0  0  0  0
 21  1  1  0  0  0  0
 22 24  1  0  0  0  0
 22 21  1  0  0  0  0
 23 28  1  0  0  0  0
 25 22  2  0  0  0  0
 26 23  2  0  0  0  0
 26 25  1  0  0  0  0
 27 23  1  0  0  0  0
 28 24  2  0  0  0  0
M  END
>  <MODEL>
2

>  <REMARK>
 VINA RESULT:      -9.3      3.450      4.777
  Name = 
  3 active torsions:
  status: ('A' for Active; 'I' for Inactive)
    1  A    between atoms: N_1  and  C_2
    2  A    between atoms: C_2  and  C_3
    3  A    between atoms: C_12  and  C_24
                            x       y       z     vdW  Elec       q    Type
                         _______ _______ _______ _____ _____    ______ ____

>  <TORSDO>
F 3

$$$$
=
 OpenBabel10272401583D

 28 32  0  0  1  0  0  0  0  0999 V2000
  189.8350  177.3090  142.6550 N   0  0  0  0  0  0  0  0  0  0  0  0
  184.7340  178.9510  142.7100 S   0  0  0  0  0  0  0  0  0  0  0  0
  188.8150  177.1400  147.5340 C   0  0  0  0  0  1  0  0  0  0  0  0
  184.5370  178.7520  145.3540 C   0  0  0  0  0  0  0  0  0  0  0  0
  186.7070  178.1180  144.5560 C   0  0  1  0  0  3  0  0  0  0  0  0
  185.4110  178.5700  144.3100 C   0  0  0  0  0  0  0  0  0  0  0  0
  186.1670  178.0590  146.9190 C   0  0  0  0  0  3  0  0  0  0  0  0
  183.3360  179.1820  145.0170 C   0  0  0  0  0  2  0  0  0  0  0  0
  189.3180  177.2350  145.0080 C   0  0  0  0  0  0  0  0  0  0  0  0
  187.6080  177.9240  143.5040 O   0  0  0  0  0  0  0  0  0  0  0  0
  184.9080  178.5010  146.6360 N   0  0  0  0  0  0  0  0  0  0  0  0
  191.5660  176.6210  144.2560 C   0  0  0  0  0  3  0  0  0  0  0  0
  188.3620  177.4260  146.1330 C   0  0  0  0  0  0  0  0  0  0  0  0
  190.7040  176.7800  145.2610 C   0  0  0  0  0  3  0  0  0  0  0  0
  183.1570  179.3970  143.5450 C   0  0  2  0  0  3  0  0  0  0  0  0
  187.1050  177.8580  145.8850 C   0  0  0  0  0  0  0  0  0  0  0  0
  191.1510  176.8890  142.9150 N   0  0  0  0  0  2  0  0  0  0  0  0
  188.9160  177.4860  143.7460 C   0  0  0  0  0  0  0  0  0  0  0  0
  182.0270  178.5190  143.0390 C   0  0  0  0  0  2  0  0  0  0  0  0
  180.8340  178.7350  143.8380 N   0  0  0  0  0  1  0  0  0  0  0  0
  189.4390  177.6170  141.2880 C   0  0  0  0  0  2  0  0  0  0  0  0
  190.4990  177.1840  140.3340 C   0  0  0  0  0  0  0  0  0  0  0  0
  192.4770  176.4140  138.5120 C   0  0  0  0  0  0  0  0  0  0  0  0
  191.8260  177.5830  140.5290 C   0  0  0  0  0  3  0  0  0  0  0  0
  190.1620  176.4060  139.2220 C   0  0  0  0  0  3  0  0  0  0  0  0
  191.1510  176.0190  138.3110 C   0  0  0  0  0  3  0  0  0  0  0  0
  193.5280  176.0030  137.5440 C   0  0  0  0  0  1  0  0  0  0  0  0
  192.8150  177.1970  139.6190 C   0  0  0  0  0  3  0  0  0  0  0  0
  1 17  1  0  0  0  0
  1 18  1  0  0  0  0
  2 15  1  0  0  0  0
  2  6  1  0  0  0  0
  4 11  1  0  0  0  0
  5 10  1  1  0  0  0
  5 16  1  0  0  0  0
  6  5  1  0  0  0  0
  6  4  2  0  0  0  0
  8  4  1  0  0  0  0
  9 14  1  0  0  0  0
  9 13  1  0  0  0  0
 10 18  1  0  0  0  0
 11  7  2  0  0  0  0
 12 14  2  0  0  0  0
 13  3  1  0  0  0  0
 15 19  1  6  0  0  0
 15  8  1  0  0  0  0
 16 13  2  0  0  0  0
 16  7  1  0  0  0  0
 17 12  1  0  0  0  0
 18  9  2  0  0  0  0
 19 20  1  0  0  0  0
 21  1  1  0  0  0  0
 22 24  1  0  0  0  0
 22 21  1  0  0  0  0
 23 28  1  0  0  0  0
 25 22  2  0  0  0  0
 26 23  2  0  0  0  0
 26 25  1  0  0  0  0
 27 23  1  0  0  0  0
 28 24  2  0  0  0  0
M  END
>  <MODEL>
3

>  <REMARK>
 VINA RESULT:      -9.2      2.925      5.364
  Name = 
  3 active torsions:
  status: ('A' for Active; 'I' for Inactive)
    1  A    between atoms: N_1  and  C_2
    2  A    between atoms: C_2  and  C_3
    3  A    between atoms: C_12  and  C_24
                            x       y       z     vdW  Elec       q    Type
                         _______ _______ _______ _____ _____    ______ ____

>  <TORSDO>
F 3

$$$$
=
 OpenBabel10272401583D

 28 32  0  0  1  0  0  0  0  0999 V2000
  184.1540  178.3970  142.2220 N   0  0  0  0  0  0  0  0  0  0  0  0
  189.2770  176.8220  142.1730 S   0  0  0  0  0  0  0  0  0  0  0  0
  185.2580  178.5430  147.0820 C   0  0  0  0  0  1  0  0  0  0  0  0
  189.5180  177.0040  144.8150 C   0  0  0  0  0  0  0  0  0  0  0  0
  187.3250  177.6150  144.0600 C   0  0  1  0  0  3  0  0  0  0  0  0
  188.6230  177.1830  143.7880 C   0  0  0  0  0  0  0  0  0  0  0  0
  187.9070  177.6630  146.4130 C   0  0  0  0  0  3  0  0  0  0  0  0
  190.7170  176.5930  144.4530 C   0  0  0  0  0  2  0  0  0  0  0  0
  184.7110  178.4590  144.5650 C   0  0  0  0  0  0  0  0  0  0  0  0
  186.4030  177.8050  143.0260 O   0  0  0  0  0  0  0  0  0  0  0  0
  189.1660  177.2410  146.1050 N   0  0  0  0  0  0  0  0  0  0  0  0
  182.4420  179.0490  143.8580 C   0  0  0  0  0  3  0  0  0  0  0  0
  185.6900  178.2730  145.6720 C   0  0  0  0  0  0  0  0  0  0  0  0
  183.3240  178.8940  144.8460 C   0  0  0  0  0  3  0  0  0  0  0  0
  190.8740  176.3920  142.9770 C   0  0  2  0  0  3  0  0  0  0  0  0
  186.9470  177.8600  145.3980 C   0  0  0  0  0  0  0  0  0  0  0  0
  182.8370  178.7970  142.5070 N   0  0  0  0  0  2  0  0  0  0  0  0
  185.0940  178.2230  143.2950 C   0  0  0  0  0  0  0  0  0  0  0  0
  191.9820  177.2880  142.4570 C   0  0  0  0  0  2  0  0  0  0  0  0
  191.7240  177.6440  141.0730 N   0  0  0  0  0  1  0  0  0  0  0  0
  184.5290  178.1040  140.8450 C   0  0  0  0  0  2  0  0  0  0  0  0
  183.3880  178.3840  139.9290 C   0  0  0  0  0  0  0  0  0  0  0  0
  181.2780  178.9010  138.1660 C   0  0  0  0  0  0  0  0  0  0  0  0
  182.4660  177.3770  139.6240 C   0  0  0  0  0  3  0  0  0  0  0  0
  183.2570  179.6480  139.3430 C   0  0  0  0  0  3  0  0  0  0  0  0
  182.2020  179.9070  138.4630 C   0  0  0  0  0  3  0  0  0  0  0  0
  180.1560  179.1760  137.2300 C   0  0  0  0  0  1  0  0  0  0  0  0
  181.4110  177.6360  138.7440 C   0  0  0  0  0  3  0  0  0  0  0  0
  1 17  1  0  0  0  0
  1 18  1  0  0  0  0
  2 15  1  0  0  0  0
  2  6  1  0  0  0  0
  4 11  1  0  0  0  0
  5 10  1  1  0  0  0
  5 16  1  0  0  0  0
  6  5  1  0  0  0  0
  6  4  2  0  0  0  0
  8  4  1  0  0  0  0
  9 14  1  0  0  0  0
  9 13  1  0  0  0  0
 10 18  1  0  0  0  0
 11  7  2  0  0  0  0
 12 14  2  0  0  0  0
 13  3  1  0  0  0  0
 15 19  1  6  0  0  0
 15  8  1  0  0  0  0
 16 13  2  0  0  0  0
 16  7  1  0  0  0  0
 17 12  1  0  0  0  0
 18  9  2  0  0  0  0
 20 19  1  0  0  0  0
 21  1  1  0  0  0  0
 22 21  1  0  0  0  0
 23 26  2  0  0  0  0
 23 28  1  0  0  0  0
 24 22  1  0  0  0  0
 25 22  2  0  0  0  0
 26 25  1  0  0  0  0
 27 23  1  0  0  0  0
 28 24  2  0  0  0  0
M  END
>  <MODEL>
4

>  <REMARK>
 VINA RESULT:      -9.1      3.462      4.691
  Name = 
  3 active torsions:
  status: ('A' for Active; 'I' for Inactive)
    1  A    between atoms: N_1  and  C_2
    2  A    between atoms: C_2  and  C_3
    3  A    between atoms: C_12  and  C_24
                            x       y       z     vdW  Elec       q    Type
                         _______ _______ _______ _____ _____    ______ ____

>  <TORSDO>
F 3

$$$$
=
 OpenBabel10272401583D

 28 32  0  0  1  0  0  0  0  0999 V2000
  187.7230  178.0170  144.8400 N   0  0  0  0  0  0  0  0  0  0  0  0
  187.2290  178.2050  139.5070 S   0  0  0  0  0  0  0  0  0  0  0  0
  182.8210  178.7880  144.3490 C   0  0  0  0  0  1  0  0  0  0  0  0
  184.6040  178.6180  139.6110 C   0  0  0  0  0  0  0  0  0  0  0  0
  185.5750  178.4080  141.7930 C   0  0  0  0  0  0  0  0  0  0  0  0
  185.7080  178.4230  140.4050 C   0  0  0  0  0  0  0  0  0  0  0  0
  183.1990  178.7900  141.5040 C   0  0  0  0  0  2  0  0  0  0  0  0
  184.8340  178.6170  138.3130 C   0  0  0  0  0  2  0  0  0  0  0  0
  185.3560  178.3900  144.5770 C   0  0  0  0  0  0  0  0  0  0  0  0
  186.6890  178.2080  142.6150 O   0  0  0  0  0  0  0  0  0  0  0  0
  183.3710  178.7980  140.1520 N   0  0  0  0  0  0  0  0  0  0  0  0
  186.3000  178.2300  146.8320 C   0  0  0  0  0  3  0  0  0  0  0  0
  184.1630  178.5900  143.7100 C   0  0  0  0  0  0  0  0  0  0  0  0
  185.2310  178.3960  146.0520 C   0  0  0  0  0  3  0  0  0  0  0  0
  186.2720  178.4070  137.9490 C   0  0  2  0  0  3  0  0  0  0  0  0
  184.2990  178.5970  142.3660 C   0  0  0  0  0  0  0  0  0  0  0  0
  187.5870  178.0400  146.2390 N   0  0  0  0  0  2  0  0  0  0  0  0
  186.5650  178.2070  144.0100 C   0  0  0  0  0  0  0  0  0  0  0  0
  186.4020  177.1650  137.0880 C   0  0  0  0  0  2  0  0  0  0  0  0
  187.5700  176.4000  137.4930 N   0  0  0  0  0  1  0  0  0  0  0  0
  189.0460  177.8630  144.2530 C   0  0  0  0  0  2  0  0  0  0  0  0
  189.9830  177.2600  145.2420 C   0  0  0  0  0  0  0  0  0  0  0  0
  191.7750  176.1690  147.0950 C   0  0  0  0  0  0  0  0  0  0  0  0
  189.7830  177.4590  146.6130 C   0  0  0  0  0  3  0  0  0  0  0  0
  191.0860  176.5210  144.8000 C   0  0  0  0  0  3  0  0  0  0  0  0
  191.9800  175.9740  145.7250 C   0  0  0  0  0  3  0  0  0  0  0  0
  192.7250  175.5890  148.0780 C   0  0  0  0  0  1  0  0  0  0  0  0
  190.6770  176.9130  147.5380 C   0  0  0  0  0  3  0  0  0  0  0  0
  1 17  1  0  0  0  0
  2  6  1  0  0  0  0
  4 11  2  0  0  0  0
  4  6  1  0  0  0  0
  5 16  1  0  0  0  0
  5 10  1  0  0  0  0
  6  5  2  0  0  0  0
  7 16  1  0  0  0  0
  8  4  1  0  0  0  0
  9 14  1  0  0  0  0
 10 18  1  0  0  0  0
 11  7  1  0  0  0  0
 13  3  1  0  0  0  0
 13  9  1  0  0  0  0
 14 12  2  0  0  0  0
 15 19  1  6  0  0  0
 15  8  1  0  0  0  0
 15  2  1  0  0  0  0
 16 13  2  0  0  0  0
 17 12  1  0  0  0  0
 18  9  2  0  0  0  0
 18  1  1  0  0  0  0
 19 20  1  0  0  0  0
 21  1  1  0  0  0  0
 21 22  1  0  0  0  0
 22 24  1  0  0  0  0
 23 28  1  0  0  0  0
 23 27  1  0  0  0  0
 24 28  2  0  0  0  0
 25 22  2  0  0  0  0
 25 26  1  0  0  0  0
 26 23  2  0  0  0  0
M  END
>  <MODEL>
5

>  <REMARK>
 VINA RESULT:      -8.6      2.454      7.469
  Name = 
  3 active torsions:
  status: ('A' for Active; 'I' for Inactive)
    1  A    between atoms: N_1  and  C_2
    2  A    between atoms: C_2  and  C_3
    3  A    between atoms: C_12  and  C_24
                            x       y       z     vdW  Elec       q    Type
                         _______ _______ _______ _____ _____    ______ ____

>  <TORSDO>
F 3

$$$$
=
 OpenBabel10272401583D

 28 32  0  0  1  0  0  0  0  0999 V2000
  189.1690  177.8990  140.6290 N   0  0  0  0  0  0  0  0  0  0  0  0
  184.4150  179.1400  142.7690 S   0  0  0  0  0  0  0  0  0  0  0  0
  189.9690  176.8520  145.4380 C   0  0  0  0  0  1  0  0  0  0  0  0
  185.1820  178.4920  145.2310 C   0  0  0  0  0  0  0  0  0  0  0  0
  186.9260  178.1560  143.6210 C   0  0  1  0  0  3  0  0  0  0  0  0
  185.6240  178.5480  143.9320 C   0  0  0  0  0  0  0  0  0  0  0  0
  187.2690  177.6680  145.9710 C   0  0  0  0  0  3  0  0  0  0  0  0
  183.9370  178.8850  145.4210 C   0  0  0  0  0  2  0  0  0  0  0  0
  189.5320  177.4000  142.9590 C   0  0  0  0  0  0  0  0  0  0  0  0
  187.3910  178.2040  142.3030 O   0  0  0  0  0  0  0  0  0  0  0  0
  185.9900  178.0590  146.2330 N   0  0  0  0  0  0  0  0  0  0  0  0
  191.3650  177.0810  141.3670 C   0  0  0  0  0  3  0  0  0  0  0  0
  189.0410  177.3330  144.3630 C   0  0  0  0  0  0  0  0  0  0  0  0
  190.9190  177.0100  142.6220 C   0  0  0  0  0  3  0  0  0  0  0  0
  183.2390  179.3270  144.1720 C   0  0  2  0  0  3  0  0  0  0  0  0
  187.7760  177.7080  144.6550 C   0  0  0  0  0  0  0  0  0  0  0  0
  190.4940  177.5380  140.3290 N   0  0  0  0  0  2  0  0  0  0  0  0
  188.7020  177.8270  141.9860 C   0  0  0  0  0  0  0  0  0  0  0  0
  182.0100  178.4670  143.9450 C   0  0  0  0  0  2  0  0  0  0  0  0
  181.2590  178.9650  142.8050 N   0  0  0  0  0  1  0  0  0  0  0  0
  188.3070  178.4010  139.5680 C   0  0  0  0  0  2  0  0  0  0  0  0
  188.6310  177.7270  138.2790 C   0  0  0  0  0  0  0  0  0  0  0  0
  189.1870  176.4670  135.8430 C   0  0  0  0  0  0  0  0  0  0  0  0
  189.1390  178.4680  137.2060 C   0  0  0  0  0  3  0  0  0  0  0  0
  188.3930  176.3560  138.1280 C   0  0  0  0  0  3  0  0  0  0  0  0
  188.6730  175.7260  136.9110 C   0  0  0  0  0  3  0  0  0  0  0  0
  189.4840  175.7970  134.5500 C   0  0  0  0  0  1  0  0  0  0  0  0
  189.4190  177.8380  135.9900 C   0  0  0  0  0  3  0  0  0  0  0  0
  1 18  1  0  0  0  0
  2  6  1  0  0  0  0
  2 15  1  0  0  0  0
  4  8  1  0  0  0  0
  4 11  1  0  0  0  0
  5 10  1  1  0  0  0
  5  6  1  0  0  0  0
  5 16  1  0  0  0  0
  6  4  2  0  0  0  0
  7 11  2  0  0  0  0
  9 13  1  0  0  0  0
 12 14  2  0  0  0  0
 13 16  2  0  0  0  0
 13  3  1  0  0  0  0
 14  9  1  0  0  0  0
 15 19  1  6  0  0  0
 15  8  1  0  0  0  0
 16  7  1  0  0  0  0
 17  1  1  0  0  0  0
 17 12  1  0  0  0  0
 18 10  1  0  0  0  0
 18  9  2  0  0  0  0
 20 19  1  0  0  0  0
 21  1  1  0  0  0  0
 22 21  1  0  0  0  0
 23 28  2  0  0  0  0
 23 26  1  0  0  0  0
 24 22  2  0  0  0  0
 25 22  1  0  0  0  0
 26 25  2  0  0  0  0
 27 23  1  0  0  0  0
 28 24  1  0  0  0  0
M  END
>  <MODEL>
6

>  <REMARK>
 VINA RESULT:      -8.5      2.276      4.762
  Name = 
  3 active torsions:
  status: ('A' for Active; 'I' for Inactive)
    1  A    between atoms: N_1  and  C_2
    2  A    between atoms: C_2  and  C_3
    3  A    between atoms: C_12  and  C_24
                            x       y       z     vdW  Elec       q    Type
                         _______ _______ _______ _____ _____    ______ ____

>  <TORSDO>
F 3

$$$$
=
 OpenBabel10272401583D

 28 32  0  0  1  0  0  0  0  0999 V2000
  190.1140  177.7280  140.6310 N   0  0  0  0  0  0  0  0  0  0  0  0
  184.8590  178.7720  140.5090 S   0  0  0  0  0  0  0  0  0  0  0  0
  188.9140  177.2200  145.4440 C   0  0  0  0  0  1  0  0  0  0  0  0
  184.5740  178.4310  143.1310 C   0  0  0  0  0  0  0  0  0  0  0  0
  186.8350  178.0870  142.4120 C   0  0  2  0  0  3  0  0  0  0  0  0
  185.5070  178.3980  142.1230 C   0  0  0  0  0  0  0  0  0  0  0  0
  186.2050  177.8580  144.7420 C   0  0  0  0  0  3  0  0  0  0  0  0
  183.3470  178.7360  142.7550 C   0  0  0  0  0  2  0  0  0  0  0  0
  189.5090  177.4880  142.9510 C   0  0  0  0  0  0  0  0  0  0  0  0
  187.7960  178.0450  141.3970 O   0  0  0  0  0  0  0  0  0  0  0  0
  184.9180  178.1650  144.4170 N   0  0  0  0  0  0  0  0  0  0  0  0
  191.8440  177.1690  142.2830 C   0  0  0  0  0  3  0  0  0  0  0  0
  188.4910  177.5170  144.0370 C   0  0  0  0  0  0  0  0  0  0  0  0
  190.9270  177.1830  143.2510 C   0  0  0  0  0  3  0  0  0  0  0  0
  183.2070  178.9960  141.2860 C   0  0  2  0  0  3  0  0  0  0  0  0
  187.2040  177.8120  143.7470 C   0  0  0  0  0  0  0  0  0  0  0  0
  191.4570  177.4500  140.9350 N   0  0  0  0  0  2  0  0  0  0  0  0
  189.1360  177.7490  141.6830 C   0  0  0  0  0  0  0  0  0  0  0  0
  182.2100  178.0200  140.6910 C   0  0  0  0  0  2  0  0  0  0  0  0
  182.9000  177.0520  139.8560 N   0  0  0  0  0  1  0  0  0  0  0  0
  189.7430  178.0510  139.2600 C   0  0  0  0  0  2  0  0  0  0  0  0
  189.5580  176.8030  138.4670 C   0  0  0  0  0  0  0  0  0  0  0  0
  189.2130  174.4880  136.9340 C   0  0  0  0  0  0  0  0  0  0  0  0
  190.6540  175.9830  138.1800 C   0  0  0  0  0  3  0  0  0  0  0  0
  188.2900  176.4680  137.9790 C   0  0  0  0  0  3  0  0  0  0  0  0
  188.1170  175.3100  137.2140 C   0  0  0  0  0  3  0  0  0  0  0  0
  189.0290  173.2570  136.1210 C   0  0  0  0  0  1  0  0  0  0  0  0
  190.4810  174.8250  137.4150 C   0  0  0  0  0  3  0  0  0  0  0  0
  1 17  1  0  0  0  0
  1 18  1  0  0  0  0
  2 15  1  0  0  0  0
  2  6  1  0  0  0  0
  4 11  1  0  0  0  0
  5 10  1  6  0  0  0
  5 16  1  0  0  0  0
  6  5  1  0  0  0  0
  6  4  2  0  0  0  0
  8  4  1  0  0  0  0
  9 14  1  0  0  0  0
  9 13  1  0  0  0  0
 10 18  1  0  0  0  0
 11  7  2  0  0  0  0
 12 14  2  0  0  0  0
 13  3  1  0  0  0  0
 15 19  1  6  0  0  0
 15  8  1  0  0  0  0
 16 13  2  0  0  0  0
 16  7  1  0  0  0  0
 17 12  1  0  0  0  0
 18  9  2  0  0  0  0
 20 19  1  0  0  0  0
 21  1  1  0  0  0  0
 22 21  1  0  0  0  0
 23 26  2  0  0  0  0
 23 28  1  0  0  0  0
 24 22  1  0  0  0  0
 25 22  2  0  0  0  0
 26 25  1  0  0  0  0
 27 23  1  0  0  0  0
 28 24  2  0  0  0  0
M  END
>  <MODEL>
7

>  <REMARK>
 VINA RESULT:      -8.4      2.673      5.375
  Name = 
  3 active torsions:
  status: ('A' for Active; 'I' for Inactive)
    1  A    between atoms: N_1  and  C_2
    2  A    between atoms: C_2  and  C_3
    3  A    between atoms: C_12  and  C_24
                            x       y       z     vdW  Elec       q    Type
                         _______ _______ _______ _____ _____    ______ ____

>  <TORSDO>
F 3

$$$$
=
 OpenBabel10272401583D

 28 32  0  0  1  0  0  0  0  0999 V2000
  188.7880  177.9960  138.9750 N   0  0  0  0  0  0  0  0  0  0  0  0
  184.9380  179.3650  142.4430 S   0  0  0  0  0  0  0  0  0  0  0  0
  190.5100  175.9570  143.1880 C   0  0  0  0  0  1  0  0  0  0  0  0
  186.1430  178.1700  144.4900 C   0  0  0  0  0  0  0  0  0  0  0  0
  187.3820  177.9420  142.4500 C   0  0  2  0  0  3  0  0  0  0  0  0
  186.2720  178.4200  143.1450 C   0  0  0  0  0  0  0  0  0  0  0  0
  188.1820  176.9740  144.5240 C   0  0  0  0  0  3  0  0  0  0  0  0
  185.0600  178.6650  145.0550 C   0  0  0  0  0  2  0  0  0  0  0  0
  189.5990  177.0190  141.0240 C   0  0  0  0  0  0  0  0  0  0  0  0
  187.5270  178.1850  141.0800 O   0  0  0  0  0  0  0  0  0  0  0  0
  187.0820  177.4590  145.1670 N   0  0  0  0  0  0  0  0  0  0  0  0
  190.9310  176.7940  138.9810 C   0  0  0  0  0  3  0  0  0  0  0  0
  189.4480  176.7430  142.4790 C   0  0  0  0  0  0  0  0  0  0  0  0
  190.7860  176.5370  140.2810 C   0  0  0  0  0  3  0  0  0  0  0  0
  184.1710  179.4190  144.1140 C   0  0  2  0  0  3  0  0  0  0  0  0
  188.3660  177.2050  143.1440 C   0  0  0  0  0  0  0  0  0  0  0  0
  189.9280  177.5420  138.2890 N   0  0  0  0  0  2  0  0  0  0  0  0
  188.6470  177.7210  140.3790 C   0  0  0  0  0  0  0  0  0  0  0  0
  182.7990  178.7730  144.0830 C   0  0  0  0  0  2  0  0  0  0  0  0
  182.1670  179.0110  142.7970 N   0  0  0  0  0  1  0  0  0  0  0  0
  187.7960  178.7910  138.2660 C   0  0  0  0  0  2  0  0  0  0  0  0
  186.5930  177.9650  137.9620 C   0  0  0  0  0  0  0  0  0  0  0  0
  184.3250  176.4460  137.3510 C   0  0  0  0  0  0  0  0  0  0  0  0
  186.7110  176.8160  137.1730 C   0  0  0  0  0  3  0  0  0  0  0  0
  185.3380  178.3570  138.4390 C   0  0  0  0  0  3  0  0  0  0  0  0
  184.2040  177.5970  138.1350 C   0  0  0  0  0  3  0  0  0  0  0  0
  183.1200  175.6380  137.0270 C   0  0  0  0  0  1  0  0  0  0  0  0
  185.5770  176.0560  136.8680 C   0  0  0  0  0  3  0  0  0  0  0  0
  1 18  1  0  0  0  0
  2  6  1  0  0  0  0
  2 15  1  0  0  0  0
  4  8  1  0  0  0  0
  4 11  1  0  0  0  0
  5 10  1  6  0  0  0
  5 16  1  0  0  0  0
  5  6  1  0  0  0  0
  6  4  2  0  0  0  0
  7 11  2  0  0  0  0
  9 13  1  0  0  0  0
 12 14  2  0  0  0  0
 13 16  2  0  0  0  0
 13  3  1  0  0  0  0
 14  9  1  0  0  0  0
 15 19  1  6  0  0  0
 15  8  1  0  0  0  0
 16  7  1  0  0  0  0
 17  1  1  0  0  0  0
 17 12  1  0  0  0  0
 18  9  2  0  0  0  0
 18 10  1  0  0  0  0
 20 19  1  0  0  0  0
 21  1  1  0  0  0  0
 22 21  1  0  0  0  0
 22 25  1  0  0  0  0
 23 26  1  0  0  0  0
 24 22  2  0  0  0  0
 26 25  2  0  0  0  0
 27 23  1  0  0  0  0
 28 24  1  0  0  0  0
 28 23  2  0  0  0  0
M  END
>  <MODEL>
8

>  <REMARK>
 VINA RESULT:      -8.2      2.713      5.101
  Name = 
  3 active torsions:
  status: ('A' for Active; 'I' for Inactive)
    1  A    between atoms: N_1  and  C_2
    2  A    between atoms: C_2  and  C_3
    3  A    between atoms: C_12  and  C_24
                            x       y       z     vdW  Elec       q    Type
                         _______ _______ _______ _____ _____    ______ ____

>  <TORSDO>
F 3

$$$$
=
 OpenBabel10272401583D

 28 32  0  0  1  0  0  0  0  0999 V2000
  188.5350  177.6510  143.9870 N   0  0  0  0  0  0  0  0  0  0  0  0
  189.2860  178.0630  138.6970 S   0  0  0  0  0  0  0  0  0  0  0  0
  183.9040  178.6410  142.4270 C   0  0  0  0  0  1  0  0  0  0  0  0
  186.7220  178.5790  138.2180 C   0  0  0  0  0  0  0  0  0  0  0  0
  187.1590  178.2460  140.5520 C   0  0  0  0  0  0  0  0  0  0  0  0
  187.6080  178.3090  139.2330 C   0  0  0  0  0  0  0  0  0  0  0  0
  184.9260  178.7360  139.7460 C   0  0  0  0  0  2  0  0  0  0  0  0
  187.2440  178.6170  137.0080 C   0  0  0  0  0  2  0  0  0  0  0  0
  186.3060  178.1300  143.2090 C   0  0  0  0  0  0  0  0  0  0  0  0
  188.0470  177.9680  141.5960 O   0  0  0  0  0  0  0  0  0  0  0  0
  185.4040  178.7880  138.4710 N   0  0  0  0  0  0  0  0  0  0  0  0
  186.7000  177.8450  145.6090 C   0  0  0  0  0  3  0  0  0  0  0  0
  185.3500  178.4130  142.1020 C   0  0  0  0  0  0  0  0  0  0  0  0
  185.8450  178.0860  144.6150 C   0  0  0  0  0  3  0  0  0  0  0  0
  188.7200  178.3630  136.9730 C   0  0  2  0  0  3  0  0  0  0  0  0
  185.7920  178.4660  140.8270 C   0  0  0  0  0  0  0  0  0  0  0  0
  188.0830  177.6250  145.3180 N   0  0  0  0  0  2  0  0  0  0  0  0
  187.6060  177.9190  142.9250 C   0  0  0  0  0  0  0  0  0  0  0  0
  189.0060  177.1500  136.1080 C   0  0  0  0  0  2  0  0  0  0  0  0
  189.3950  176.0260  136.9410 N   0  0  0  0  0  1  0  0  0  0  0  0
  189.9530  177.4650  143.7110 C   0  0  0  0  0  2  0  0  0  0  0  0
  190.6460  176.9230  144.9130 C   0  0  0  0  0  0  0  0  0  0  0  0
  191.9890  175.9380  147.1620 C   0  0  0  0  0  0  0  0  0  0  0  0
  190.3650  177.4420  146.1820 C   0  0  0  0  0  3  0  0  0  0  0  0
  191.6070  175.9150  144.7710 C   0  0  0  0  0  3  0  0  0  0  0  0
  192.2770  175.4220  145.8950 C   0  0  0  0  0  3  0  0  0  0  0  0
  192.7020  175.4130  148.3560 C   0  0  0  0  0  1  0  0  0  0  0  0
  191.0350  176.9490  147.3060 C   0  0  0  0  0  3  0  0  0  0  0  0
  1 17  1  0  0  0  0
  2  6  1  0  0  0  0
  4 11  2  0  0  0  0
  4  6  1  0  0  0  0
  5 16  1  0  0  0  0
  5 10  1  0  0  0  0
  6  5  2  0  0  0  0
  7 16  1  0  0  0  0
  8  4  1  0  0  0  0
  9 14  1  0  0  0  0
 10 18  1  0  0  0  0
 11  7  1  0  0  0  0
 13  3  1  0  0  0  0
 13  9  1  0  0  0  0
 14 12  2  0  0  0  0
 15 19  1  6  0  0  0
 15  8  1  0  0  0  0
 15  2  1  0  0  0  0
 16 13  2  0  0  0  0
 17 12  1  0  0  0  0
 18  9  2  0  0  0  0
 18  1  1  0  0  0  0
 19 20  1  0  0  0  0
 21  1  1  0  0  0  0
 21 22  1  0  0  0  0
 22 24  1  0  0  0  0
 23 28  1  0  0  0  0
 23 27  1  0  0  0  0
 24 28  2  0  0  0  0
 25 22  2  0  0  0  0
 25 26  1  0  0  0  0
 26 23  2  0  0  0  0
M  END
>  <MODEL>
9

>  <REMARK>
 VINA RESULT:      -8.1      2.425      7.667
  Name = 
  3 active torsions:
  status: ('A' for Active; 'I' for Inactive)
    1  A    between atoms: N_1  and  C_2
    2  A    between atoms: C_2  and  C_3
    3  A    between atoms: C_12  and  C_24
                            x       y       z     vdW  Elec       q    Type
                         _______ _______ _______ _____ _____    ______ ____

>  <TORSDO>
F 3

$$$$
