=
 OpenBabel10272401043D

 27 31  0  0  1  0  0  0  0  0999 V2000
  189.2550  176.7740  140.8300 C   0  0  0  0  0  3  0  0  0  0  0  0
  187.6260  178.1680  142.0140 C   0  0  0  0  0  0  0  0  0  0  0  0
  187.5330  178.9840  139.6990 N   0  0  0  0  0  0  0  0  0  0  0  0
  183.0980  177.9450  141.8360 S   0  0  0  0  0  0  0  0  0  0  0  0
  183.6260  176.9990  139.3210 C   0  0  0  0  0  1  0  0  0  0  0  0
  186.9350  177.9450  143.3450 C   0  0  0  0  0  2  0  0  0  0  0  0
  184.6560  179.1360  140.0000 C   0  0  0  0  0  0  0  0  0  0  0  0
  188.5090  177.4230  136.7430 C   0  0  0  0  0  2  0  0  0  0  0  0
  184.9120  179.7870  138.9980 O   0  0  0  0  0  0  0  0  0  0  0  0
  189.4410  176.2880  137.1710 C   0  0  2  0  0  3  0  0  0  0  0  0
  185.5100  179.2120  141.2280 C   0  0  1  0  0  3  0  0  0  0  0  0
  189.0920  177.8440  141.8610 C   0  0  1  0  0  3  0  0  0  0  0  0
  183.4200  178.2970  140.0780 C   0  0  2  0  0  3  0  0  0  0  0  0
  184.8020  178.3250  142.2070 C   0  0  0  0  0  0  0  0  0  0  0  0
  188.9670  176.9890  139.5490 C   0  0  0  0  0  0  0  0  0  0  0  0
  186.9370  178.7310  140.9890 C   0  0  0  0  0  0  0  0  0  0  0  0
  188.7240  178.6410  137.6390 C   0  0  0  0  0  2  0  0  0  0  0  0
  185.4700  177.6760  143.1630 C   0  0  0  0  0  3  0  0  0  0  0  0
  189.1720  175.1040  136.3770 N   0  0  0  0  0  1  0  0  0  0  0  0
  189.2800  175.9750  138.5910 N   0  0  0  0  0  2  0  0  0  0  0  0
  188.4190  178.2760  139.0550 C   0  0  0  0  0  0  0  0  0  0  0  0
  191.6090  177.0790  145.2860 C   0  0  0  0  0  2  0  0  0  0  0  0
  189.8130  177.4920  143.1760 C   0  0  2  0  0  3  0  0  0  0  0  0
  190.7230  178.6170  143.5990 C   0  0  0  0  0  3  0  0  0  0  0  0
  191.5810  178.4160  144.6040 C   0  0  0  0  0  3  0  0  0  0  0  0
  191.5740  175.9380  144.2570 C   0  0  0  0  0  2  0  0  0  0  0  0
  190.6460  176.2010  143.0520 C   0  0  0  0  0  2  0  0  0  0  0  0
  2  6  1  0  0  0  0
  3 16  1  0  0  0  0
  4 14  1  0  0  0  0
  7 13  1  0  0  0  0
  8 10  1  0  0  0  0
  8 17  1  0  0  0  0
  9  7  2  0  0  0  0
 10 19  1  6  0  0  0
 10 20  1  0  0  0  0
 11  7  1  6  0  0  0
 11 14  1  0  0  0  0
 12  1  1  6  0  0  0
 12  2  1  0  0  0  0
 12 23  1  0  0  0  0
 13  5  1  6  0  0  0
 13  4  1  0  0  0  0
 14 18  2  0  0  0  0
 15  1  2  0  0  0  0
 16 11  1  0  0  0  0
 16  2  2  0  0  0  0
 17 21  1  0  0  0  0
 18  6  1  0  0  0  0
 20 15  1  0  0  0  0
 21 15  1  0  0  0  0
 21  3  2  0  0  0  0
 23 27  1  6  0  0  0
 23 24  1  0  0  0  0
 24 25  2  0  0  0  0
 25 22  1  0  0  0  0
 26 22  1  0  0  0  0
 27 26  1  0  0  0  0
M  END
>  <MODEL>
1

>  <REMARK>
 VINA RESULT:      -7.9      0.000      0.000
  Name = 
  1 active torsions:
  status: ('A' for Active; 'I' for Inactive)
    1  A    between atoms: C_9  and  C_15
                            x       y       z     vdW  Elec       q    Type
                         _______ _______ _______ _____ _____    ______ ____

>  <TORSDO>
F 1

$$$$
=
 OpenBabel10272401043D

 27 31  0  0  1  0  0  0  0  0999 V2000
  189.0640  177.0750  141.6260 C   0  0  0  0  0  3  0  0  0  0  0  0
  187.0340  178.4180  141.8960 C   0  0  0  0  0  0  0  0  0  0  0  0
  187.7080  178.8240  139.5690 N   0  0  0  0  0  0  0  0  0  0  0  0
  182.8840  177.5770  140.2670 S   0  0  0  0  0  0  0  0  0  0  0  0
  184.3250  176.3090  138.3140 C   0  0  0  0  0  1  0  0  0  0  0  0
  185.9350  178.3280  142.9370 C   0  0  0  0  0  2  0  0  0  0  0  0
  184.9060  178.6450  138.8570 C   0  0  0  0  0  0  0  0  0  0  0  0
  189.7640  176.9410  137.4820 C   0  0  0  0  0  2  0  0  0  0  0  0
  185.4550  179.1500  137.8890 O   0  0  0  0  0  0  0  0  0  0  0  0
  190.5580  176.0240  138.4130 C   0  0  2  0  0  3  0  0  0  0  0  0
  185.2670  179.0330  140.2580 C   0  0  1  0  0  3  0  0  0  0  0  0
  188.4780  178.2690  142.3080 C   0  0  1  0  0  3  0  0  0  0  0  0
  183.7800  177.6750  138.6830 C   0  0  2  0  0  3  0  0  0  0  0  0
  184.3200  178.2340  141.1010 C   0  0  0  0  0  0  0  0  0  0  0  0
  189.2320  177.0380  140.3070 C   0  0  0  0  0  0  0  0  0  0  0  0
  186.7140  178.7110  140.6100 C   0  0  0  0  0  0  0  0  0  0  0  0
  189.5680  178.3070  138.1370 C   0  0  0  0  0  2  0  0  0  0  0  0
  184.6490  177.8430  142.3340 C   0  0  0  0  0  3  0  0  0  0  0  0
  190.6650  174.7010  137.8280 N   0  0  0  0  0  1  0  0  0  0  0  0
  189.9290  175.9300  139.7310 N   0  0  0  0  0  2  0  0  0  0  0  0
  188.8090  178.1430  139.4130 C   0  0  0  0  0  0  0  0  0  0  0  0
  189.5000  177.7090  146.4670 C   0  0  0  0  0  2  0  0  0  0  0  0
  188.7110  178.2350  143.8300 C   0  0  2  0  0  3  0  0  0  0  0  0
  190.1750  178.0520  144.1390 C   0  0  0  0  0  3  0  0  0  0  0  0
  190.5490  177.7980  145.3960 C   0  0  0  0  0  3  0  0  0  0  0  0
  188.3000  176.8760  145.9910 C   0  0  0  0  0  2  0  0  0  0  0  0
  187.9160  177.1050  144.5130 C   0  0  0  0  0  2  0  0  0  0  0  0
  2 12  1  0  0  0  0
  2  6  1  0  0  0  0
  3 16  1  0  0  0  0
  4 14  1  0  0  0  0
  8 17  1  0  0  0  0
  8 10  1  0  0  0  0
  9  7  2  0  0  0  0
 10 19  1  6  0  0  0
 10 20  1  0  0  0  0
 11  7  1  6  0  0  0
 11 16  1  0  0  0  0
 11 14  1  0  0  0  0
 12  1  1  6  0  0  0
 12 23  1  0  0  0  0
 13  5  1  1  0  0  0
 13  7  1  0  0  0  0
 13  4  1  0  0  0  0
 14 18  2  0  0  0  0
 15  1  2  0  0  0  0
 16  2  2  0  0  0  0
 17 21  1  0  0  0  0
 18  6  1  0  0  0  0
 20 15  1  0  0  0  0
 21  3  2  0  0  0  0
 21 15  1  0  0  0  0
 23 24  1  6  0  0  0
 23 27  1  0  0  0  0
 24 25  2  0  0  0  0
 25 22  1  0  0  0  0
 26 22  1  0  0  0  0
 27 26  1  0  0  0  0
M  END
>  <MODEL>
2

>  <REMARK>
 VINA RESULT:      -7.3      1.349      1.586
  Name = 
  1 active torsions:
  status: ('A' for Active; 'I' for Inactive)
    1  A    between atoms: C_9  and  C_15
                            x       y       z     vdW  Elec       q    Type
                         _______ _______ _______ _____ _____    ______ ____

>  <TORSDO>
F 1

$$$$
=
 OpenBabel10272401043D

 27 31  0  0  1  0  0  0  0  0999 V2000
  188.2600  176.9430  142.3160 C   0  0  0  0  0  3  0  0  0  0  0  0
  186.1990  178.2570  142.4810 C   0  0  0  0  0  0  0  0  0  0  0  0
  187.2680  179.0860  140.4300 N   0  0  0  0  0  0  0  0  0  0  0  0
  182.4100  177.8400  140.0200 S   0  0  0  0  0  0  0  0  0  0  0  0
  184.1870  176.9370  138.1410 C   0  0  0  0  0  1  0  0  0  0  0  0
  184.9350  177.9940  143.2760 C   0  0  0  0  0  2  0  0  0  0  0  0
  184.6370  179.1110  139.2180 C   0  0  0  0  0  0  0  0  0  0  0  0
  189.6800  177.5910  138.4120 C   0  0  0  0  0  2  0  0  0  0  0  0
  185.3420  179.7800  138.4780 O   0  0  0  0  0  0  0  0  0  0  0  0
  190.3080  176.4940  139.2730 C   0  0  2  0  0  3  0  0  0  0  0  0
  184.7410  179.2140  140.7090 C   0  0  1  0  0  3  0  0  0  0  0  0
  187.5490  177.9970  143.1020 C   0  0  1  0  0  3  0  0  0  0  0  0
  183.5700  178.2200  138.6670 C   0  0  2  0  0  3  0  0  0  0  0  0
  183.6690  178.2910  141.2030 C   0  0  0  0  0  0  0  0  0  0  0  0
  188.6580  177.1560  141.0650 C   0  0  0  0  0  0  0  0  0  0  0  0
  186.1070  178.7980  141.2390 C   0  0  0  0  0  0  0  0  0  0  0  0
  189.3570  178.8100  139.2730 C   0  0  0  0  0  2  0  0  0  0  0  0
  183.7810  177.6630  142.3750 C   0  0  0  0  0  3  0  0  0  0  0  0
  190.5310  175.3060  138.4710 N   0  0  0  0  0  1  0  0  0  0  0  0
  189.4570  176.1630  140.4160 N   0  0  0  0  0  2  0  0  0  0  0  0
  188.3870  178.4220  140.3400 C   0  0  0  0  0  0  0  0  0  0  0  0
  187.4820  177.6650  147.4080 C   0  0  0  0  0  2  0  0  0  0  0  0
  187.5120  177.6670  144.6060 C   0  0  2  0  0  3  0  0  0  0  0  0
  186.5870  178.6090  145.3340 C   0  0  0  0  0  3  0  0  0  0  0  0
  186.5770  178.6090  146.6700 C   0  0  0  0  0  3  0  0  0  0  0  0
  188.8900  177.6630  146.7940 C   0  0  0  0  0  2  0  0  0  0  0  0
  188.9090  177.7470  145.2520 C   0  0  0  0  0  2  0  0  0  0  0  0
  2 12  1  0  0  0  0
  2  6  1  0  0  0  0
  3 16  1  0  0  0  0
  4 14  1  0  0  0  0
  8 10  1  0  0  0  0
  8 17  1  0  0  0  0
  9  7  2  0  0  0  0
 10 19  1  6  0  0  0
 10 20  1  0  0  0  0
 11  7  1  6  0  0  0
 11 14  1  0  0  0  0
 11 16  1  0  0  0  0
 12  1  1  6  0  0  0
 12 23  1  0  0  0  0
 13  5  1  1  0  0  0
 13  7  1  0  0  0  0
 13  4  1  0  0  0  0
 14 18  2  0  0  0  0
 15  1  2  0  0  0  0
 16  2  2  0  0  0  0
 17 21  1  0  0  0  0
 18  6  1  0  0  0  0
 20 15  1  0  0  0  0
 21  3  2  0  0  0  0
 21 15  1  0  0  0  0
 23 27  1  1  0  0  0
 23 24  1  0  0  0  0
 24 25  2  0  0  0  0
 25 22  1  0  0  0  0
 26 22  1  0  0  0  0
 27 26  1  0  0  0  0
M  END
>  <MODEL>
3

>  <REMARK>
 VINA RESULT:      -7.0      1.729      2.449
  Name = 
  1 active torsions:
  status: ('A' for Active; 'I' for Inactive)
    1  A    between atoms: C_9  and  C_15
                            x       y       z     vdW  Elec       q    Type
                         _______ _______ _______ _____ _____    ______ ____

>  <TORSDO>
F 1

$$$$
=
 OpenBabel10272401043D

 27 31  0  0  1  0  0  0  0  0999 V2000
  186.6390  177.7340  142.5090 C   0  0  0  0  0  3  0  0  0  0  0  0
  185.6340  178.6280  140.4630 C   0  0  0  0  0  0  0  0  0  0  0  0
  188.0420  178.6020  139.9770 N   0  0  0  0  0  0  0  0  0  0  0  0
  185.0760  176.5390  136.4740 S   0  0  0  0  0  0  0  0  0  0  0  0
  187.3070  175.1840  137.3050 C   0  0  0  0  0  1  0  0  0  0  0  0
  184.2030  178.5520  139.9640 C   0  0  0  0  0  2  0  0  0  0  0  0
  187.3690  177.6520  137.3240 C   0  0  0  0  0  0  0  0  0  0  0  0
  190.5970  176.7670  141.4700 C   0  0  0  0  0  2  0  0  0  0  0  0
  188.5330  178.0170  137.2520 O   0  0  0  0  0  0  0  0  0  0  0  0
  190.0300  176.2950  142.8090 C   0  0  2  0  0  3  0  0  0  0  0  0
  186.3440  178.4320  138.0870 C   0  0  1  0  0  3  0  0  0  0  0  0
  185.9120  178.8990  141.9200 C   0  0  1  0  0  3  0  0  0  0  0  0
  186.8940  176.4480  136.5740 C   0  0  2  0  0  3  0  0  0  0  0  0
  185.0740  177.6720  137.8530 C   0  0  0  0  0  0  0  0  0  0  0  0
  187.8750  177.4190  142.1290 C   0  0  0  0  0  0  0  0  0  0  0  0
  186.6570  178.5270  139.5760 C   0  0  0  0  0  0  0  0  0  0  0  0
  190.0930  178.1740  141.1550 C   0  0  0  0  0  2  0  0  0  0  0  0
  184.0910  177.6690  138.7560 C   0  0  0  0  0  3  0  0  0  0  0  0
  190.4390  174.9260  143.0620 N   0  0  0  0  0  1  0  0  0  0  0  0
  188.5700  176.3840  142.8300 N   0  0  0  0  0  2  0  0  0  0  0  0
  188.6010  178.1590  141.0680 C   0  0  0  0  0  0  0  0  0  0  0  0
  182.5110  179.4450  144.5260 C   0  0  0  0  0  2  0  0  0  0  0  0
  184.6720  179.2830  142.7500 C   0  0  2  0  0  3  0  0  0  0  0  0
  184.8910  178.9680  144.2080 C   0  0  0  0  0  3  0  0  0  0  0  0
  183.8580  179.0430  145.0530 C   0  0  0  0  0  3  0  0  0  0  0  0
  182.1930  178.7110  143.2150 C   0  0  0  0  0  2  0  0  0  0  0  0
  183.4040  178.5480  142.2700 C   0  0  0  0  0  2  0  0  0  0  0  0
  2 12  1  0  0  0  0
  3 21  2  0  0  0  0
  4 13  1  0  0  0  0
  4 14  1  0  0  0  0
  6  2  1  0  0  0  0
  8 10  1  0  0  0  0
  9  7  2  0  0  0  0
 10 20  1  0  0  0  0
 10 19  1  6  0  0  0
 11  7  1  6  0  0  0
 11 16  1  0  0  0  0
 12  1  1  1  0  0  0
 12 23  1  0  0  0  0
 13  5  1  1  0  0  0
 13  7  1  0  0  0  0
 14 11  1  0  0  0  0
 14 18  2  0  0  0  0
 15  1  2  0  0  0  0
 15 20  1  0  0  0  0
 16  3  1  0  0  0  0
 16  2  2  0  0  0  0
 17  8  1  0  0  0  0
 18  6  1  0  0  0  0
 21 17  1  0  0  0  0
 21 15  1  0  0  0  0
 22 25  1  0  0  0  0
 23 27  1  6  0  0  0
 23 24  1  0  0  0  0
 24 25  2  0  0  0  0
 26 22  1  0  0  0  0
 27 26  1  0  0  0  0
M  END
>  <MODEL>
4

>  <REMARK>
 VINA RESULT:      -6.4      2.448      5.240
  Name = 
  1 active torsions:
  status: ('A' for Active; 'I' for Inactive)
    1  A    between atoms: C_9  and  C_15
                            x       y       z     vdW  Elec       q    Type
                         _______ _______ _______ _____ _____    ______ ____

>  <TORSDO>
F 1

$$$$
=
 OpenBabel10272401043D

 27 31  0  0  1  0  0  0  0  0999 V2000
  187.1940  178.0130  141.1790 C   0  0  0  0  0  3  0  0  0  0  0  0
  184.9620  178.3020  140.2140 C   0  0  0  0  0  0  0  0  0  0  0  0
  186.4770  178.6260  138.3080 N   0  0  0  0  0  0  0  0  0  0  0  0
  182.6660  175.4260  137.5600 S   0  0  0  0  0  0  0  0  0  0  0  0
  185.1990  174.6870  136.8230 C   0  0  0  0  0  1  0  0  0  0  0  0
  183.6070  177.8720  140.7430 C   0  0  0  0  0  2  0  0  0  0  0  0
  184.6090  177.0810  136.7220 C   0  0  0  0  0  0  0  0  0  0  0  0
  189.7810  177.6090  137.8900 C   0  0  0  0  0  2  0  0  0  0  0  0
  185.3420  177.6340  135.9140 O   0  0  0  0  0  0  0  0  0  0  0  0
  190.2950  177.3050  139.2970 C   0  0  2  0  0  3  0  0  0  0  0  0
  184.1000  177.7920  137.9380 C   0  0  1  0  0  3  0  0  0  0  0  0
  185.9850  178.8920  141.1530 C   0  0  1  0  0  3  0  0  0  0  0  0
  184.1130  175.6900  136.4830 C   0  0  2  0  0  3  0  0  0  0  0  0
  183.2060  176.7810  138.5890 C   0  0  0  0  0  0  0  0  0  0  0  0
  187.9710  177.8640  140.1100 C   0  0  0  0  0  0  0  0  0  0  0  0
  185.2150  178.2230  138.8830 C   0  0  0  0  0  0  0  0  0  0  0  0
  188.8430  178.8130  137.9250 C   0  0  0  0  0  2  0  0  0  0  0  0
  183.0190  176.7700  139.9110 C   0  0  0  0  0  3  0  0  0  0  0  0
  191.1140  176.1070  139.2750 N   0  0  0  0  0  1  0  0  0  0  0  0
  189.1900  177.1270  140.2400 N   0  0  0  0  0  2  0  0  0  0  0  0
  187.6760  178.5090  138.8070 C   0  0  0  0  0  0  0  0  0  0  0  0
  184.4330  179.1390  145.1760 C   0  0  0  0  0  2  0  0  0  0  0  0
  185.4600  179.1920  142.5690 C   0  0  2  0  0  3  0  0  0  0  0  0
  186.0250  178.2100  143.5640 C   0  0  0  0  0  3  0  0  0  0  0  0
  185.5310  178.1840  144.8060 C   0  0  0  0  0  3  0  0  0  0  0  0
  183.3600  179.1930  144.0780 C   0  0  0  0  0  2  0  0  0  0  0  0
  183.9210  179.1390  142.6400 C   0  0  0  0  0  2  0  0  0  0  0  0
  2  6  1  0  0  0  0
  2 12  1  0  0  0  0
  3 21  2  0  0  0  0
  3 16  1  0  0  0  0
  4 14  1  0  0  0  0
  8 17  1  0  0  0  0
  8 10  1  0  0  0  0
  9  7  2  0  0  0  0
 10 19  1  6  0  0  0
 10 20  1  0  0  0  0
 11  7  1  6  0  0  0
 11 14  1  0  0  0  0
 11 16  1  0  0  0  0
 12  1  1  1  0  0  0
 12 23  1  0  0  0  0
 13  7  1  0  0  0  0
 13  5  1  1  0  0  0
 13  4  1  0  0  0  0
 14 18  2  0  0  0  0
 15 20  1  0  0  0  0
 15  1  2  0  0  0  0
 16  2  2  0  0  0  0
 17 21  1  0  0  0  0
 18  6  1  0  0  0  0
 21 15  1  0  0  0  0
 23 27  1  6  0  0  0
 23 24  1  0  0  0  0
 24 25  2  0  0  0  0
 25 22  1  0  0  0  0
 26 22  1  0  0  0  0
 27 26  1  0  0  0  0
M  END
>  <MODEL>
5

>  <REMARK>
 VINA RESULT:      -6.3      2.866      4.274
  Name = 
  1 active torsions:
  status: ('A' for Active; 'I' for Inactive)
    1  A    between atoms: C_9  and  C_15
                            x       y       z     vdW  Elec       q    Type
                         _______ _______ _______ _____ _____    ______ ____

>  <TORSDO>
F 1

$$$$
=
 OpenBabel10272401043D

 27 31  0  0  1  0  0  0  0  0999 V2000
  187.3540  178.4130  141.8110 C   0  0  0  0  0  3  0  0  0  0  0  0
  185.8220  178.2150  143.7110 C   0  0  0  0  0  0  0  0  0  0  0  0
  187.5060  176.4750  144.1230 N   0  0  0  0  0  0  0  0  0  0  0  0
  186.5030  179.5180  148.0030 S   0  0  0  0  0  0  0  0  0  0  0  0
  189.1120  179.0100  147.3400 C   0  0  0  0  0  1  0  0  0  0  0  0
  184.8110  179.2050  144.2570 C   0  0  0  0  0  2  0  0  0  0  0  0
  187.4380  177.2460  146.9150 C   0  0  0  0  0  0  0  0  0  0  0  0
  190.7420  176.1640  142.8780 C   0  0  0  0  0  2  0  0  0  0  0  0
  188.0030  176.1630  146.8910 O   0  0  0  0  0  0  0  0  0  0  0  0
  190.7960  177.0750  141.6510 C   0  0  2  0  0  3  0  0  0  0  0  0
  186.2370  177.5270  146.0640 C   0  0  1  0  0  3  0  0  0  0  0  0
  185.9690  178.0300  142.2210 C   0  0  1  0  0  3  0  0  0  0  0  0
  187.8680  178.3180  147.8660 C   0  0  2  0  0  3  0  0  0  0  0  0
  185.8430  178.9180  146.4570 C   0  0  0  0  0  0  0  0  0  0  0  0
  188.4160  177.7120  142.2000 C   0  0  0  0  0  0  0  0  0  0  0  0
  186.5350  177.4450  144.5720 C   0  0  0  0  0  0  0  0  0  0  0  0
  189.3730  175.4930  142.9710 C   0  0  0  0  0  2  0  0  0  0  0  0
  185.2320  179.7350  145.5960 C   0  0  0  0  0  3  0  0  0  0  0  0
  192.0640  177.7780  141.6150 N   0  0  0  0  0  1  0  0  0  0  0  0
  189.6980  178.0420  141.6590 N   0  0  0  0  0  2  0  0  0  0  0  0
  188.3160  176.5400  143.1040 C   0  0  0  0  0  0  0  0  0  0  0  0
  182.8050  179.4920  139.6690 C   0  0  0  0  0  2  0  0  0  0  0  0
  184.8990  178.7480  141.3760 C   0  0  2  0  0  3  0  0  0  0  0  0
  183.5740  178.0380  141.4830 C   0  0  0  0  0  3  0  0  0  0  0  0
  182.5770  178.3930  140.6660 C   0  0  0  0  0  3  0  0  0  0  0  0
  184.1600  179.3220  138.9650 C   0  0  0  0  0  2  0  0  0  0  0  0
  185.2970  178.8330  139.8880 C   0  0  0  0  0  2  0  0  0  0  0  0
  1 15  2  0  0  0  0
  2  6  1  0  0  0  0
  2 16  2  0  0  0  0
  3 16  1  0  0  0  0
  6 18  1  0  0  0  0
  7 13  1  0  0  0  0
  8 17  1  0  0  0  0
  9  7  2  0  0  0  0
 10 19  1  1  0  0  0
 10 20  1  0  0  0  0
 10  8  1  0  0  0  0
 11 16  1  6  0  0  0
 11 14  1  0  0  0  0
 11  7  1  0  0  0  0
 12  1  1  6  0  0  0
 12  2  1  0  0  0  0
 13  5  1  6  0  0  0
 13  4  1  0  0  0  0
 14  4  1  0  0  0  0
 15 21  1  0  0  0  0
 17 21  1  0  0  0  0
 18 14  2  0  0  0  0
 20 15  1  0  0  0  0
 21  3  2  0  0  0  0
 22 25  1  0  0  0  0
 23 27  1  6  0  0  0
 23 24  1  0  0  0  0
 23 12  1  0  0  0  0
 25 24  2  0  0  0  0
 26 22  1  0  0  0  0
 26 27  1  0  0  0  0
M  END
>  <MODEL>
6

>  <REMARK>
 VINA RESULT:      -6.1      3.431      6.464
  Name = 
  1 active torsions:
  status: ('A' for Active; 'I' for Inactive)
    1  A    between atoms: C_9  and  C_15
                            x       y       z     vdW  Elec       q    Type
                         _______ _______ _______ _____ _____    ______ ____

>  <TORSDO>
F 1

$$$$
=
 OpenBabel10272401043D

 27 31  0  0  1  0  0  0  0  0999 V2000
  186.6150  178.5600  141.6160 C   0  0  0  0  0  3  0  0  0  0  0  0
  187.1420  177.4080  143.7120 C   0  0  0  0  0  0  0  0  0  0  0  0
  188.7100  176.4340  142.0920 N   0  0  0  0  0  0  0  0  0  0  0  0
  190.7330  178.0210  146.4170 S   0  0  0  0  0  0  0  0  0  0  0  0
  191.9140  178.7270  144.0480 C   0  0  0  0  0  1  0  0  0  0  0  0
  186.8190  177.7900  145.1440 C   0  0  0  0  0  2  0  0  0  0  0  0
  190.7340  176.5630  144.1600 C   0  0  0  0  0  0  0  0  0  0  0  0
  189.8130  177.6790  139.0320 C   0  0  0  0  0  2  0  0  0  0  0  0
  191.1900  175.8190  143.3050 O   0  0  0  0  0  0  0  0  0  0  0  0
  188.7990  178.7540  138.6410 C   0  0  2  0  0  3  0  0  0  0  0  0
  189.2940  176.5020  144.5690 C   0  0  1  0  0  3  0  0  0  0  0  0
  186.1050  177.5870  142.6310 C   0  0  1  0  0  3  0  0  0  0  0  0
  191.6170  177.5120  144.9060 C   0  0  2  0  0  3  0  0  0  0  0  0
  189.1940  177.5180  145.6650 C   0  0  0  0  0  0  0  0  0  0  0  0
  187.6590  178.2760  140.8420 C   0  0  0  0  0  0  0  0  0  0  0  0
  188.3390  176.8340  143.4280 C   0  0  0  0  0  0  0  0  0  0  0  0
  189.1020  176.5160  139.7210 C   0  0  0  0  0  2  0  0  0  0  0  0
  188.0560  178.1750  145.9010 C   0  0  0  0  0  3  0  0  0  0  0  0
  189.4880  179.8950  138.0680 N   0  0  0  0  0  1  0  0  0  0  0  0
  188.0090  179.1850  139.7940 N   0  0  0  0  0  2  0  0  0  0  0  0
  188.4240  177.0100  140.9570 C   0  0  0  0  0  0  0  0  0  0  0  0
  182.1680  179.0650  143.6160 C   0  0  0  0  0  2  0  0  0  0  0  0
  184.7040  177.9700  143.1410 C   0  0  2  0  0  3  0  0  0  0  0  0
  183.7470  178.1410  141.9890 C   0  0  0  0  0  3  0  0  0  0  0  0
  182.5400  178.6670  142.2170 C   0  0  0  0  0  3  0  0  0  0  0  0
  183.3190  179.8250  144.2930 C   0  0  0  0  0  2  0  0  0  0  0  0
  184.7230  179.2730  143.9660 C   0  0  0  0  0  2  0  0  0  0  0  0
  2  6  1  0  0  0  0
  3 16  1  0  0  0  0
  6 18  1  0  0  0  0
  7 11  1  0  0  0  0
  7 13  1  0  0  0  0
  8 17  1  0  0  0  0
  9  7  2  0  0  0  0
 10 19  1  1  0  0  0
 10  8  1  0  0  0  0
 10 20  1  0  0  0  0
 11 16  1  6  0  0  0
 11 14  1  0  0  0  0
 12  1  1  6  0  0  0
 12 23  1  0  0  0  0
 12  2  1  0  0  0  0
 13  5  1  6  0  0  0
 13  4  1  0  0  0  0
 14 18  2  0  0  0  0
 14  4  1  0  0  0  0
 15 21  1  0  0  0  0
 15  1  2  0  0  0  0
 16  2  2  0  0  0  0
 17 21  1  0  0  0  0
 20 15  1  0  0  0  0
 21  3  2  0  0  0  0
 22 26  1  0  0  0  0
 23 24  1  6  0  0  0
 23 27  1  0  0  0  0
 24 25  2  0  0  0  0
 25 22  1  0  0  0  0
 27 26  1  0  0  0  0
M  END
>  <MODEL>
7

>  <REMARK>
 VINA RESULT:      -6.1      2.975      6.069
  Name = 
  1 active torsions:
  status: ('A' for Active; 'I' for Inactive)
    1  A    between atoms: C_9  and  C_15
                            x       y       z     vdW  Elec       q    Type
                         _______ _______ _______ _____ _____    ______ ____

>  <TORSDO>
F 1

$$$$
=
 OpenBabel10272401043D

 27 31  0  0  1  0  0  0  0  0999 V2000
  188.2940  176.7920  139.1450 C   0  0  0  0  0  3  0  0  0  0  0  0
  187.1150  178.4070  140.5610 C   0  0  0  0  0  0  0  0  0  0  0  0
  186.1790  178.7880  138.3220 N   0  0  0  0  0  0  0  0  0  0  0  0
  182.8270  178.2320  142.0330 S   0  0  0  0  0  0  0  0  0  0  0  0
  182.4880  176.8340  139.7030 C   0  0  0  0  0  1  0  0  0  0  0  0
  186.9450  178.4420  142.0670 C   0  0  0  0  0  2  0  0  0  0  0  0
  183.5850  179.0410  139.5860 C   0  0  0  0  0  0  0  0  0  0  0  0
  186.1360  176.6980  135.5380 C   0  0  0  0  0  2  0  0  0  0  0  0
  183.4430  179.4940  138.4600 O   0  0  0  0  0  0  0  0  0  0  0  0
  187.2120  175.6440  135.8030 C   0  0  2  0  0  3  0  0  0  0  0  0
  184.8100  179.3250  140.4000 C   0  0  1  0  0  3  0  0  0  0  0  0
  188.4490  178.0360  139.9610 C   0  0  1  0  0  3  0  0  0  0  0  0
  182.4960  178.2520  140.2410 C   0  0  2  0  0  3  0  0  0  0  0  0
  184.5330  178.6450  141.7060 C   0  0  0  0  0  0  0  0  0  0  0  0
  187.5660  176.7760  138.0320 C   0  0  0  0  0  0  0  0  0  0  0  0
  186.0850  178.7850  139.7630 C   0  0  0  0  0  0  0  0  0  0  0  0
  186.5900  178.0550  136.0700 C   0  0  0  0  0  2  0  0  0  0  0  0
  185.5230  178.1690  142.4640 C   0  0  0  0  0  3  0  0  0  0  0  0
  186.7400  174.3400  135.3770 N   0  0  0  0  0  1  0  0  0  0  0  0
  187.5730  175.5980  137.2200 N   0  0  0  0  0  2  0  0  0  0  0  0
  186.8180  177.9600  137.5430 C   0  0  0  0  0  0  0  0  0  0  0  0
  191.8610  177.2310  142.4840 C   0  0  0  0  0  2  0  0  0  0  0  0
  189.6000  177.9170  140.9770 C   0  0  2  0  0  3  0  0  0  0  0  0
  190.9080  177.6640  140.2710 C   0  0  0  0  0  3  0  0  0  0  0  0
  191.9840  177.3340  140.9910 C   0  0  0  0  0  3  0  0  0  0  0  0
  190.5870  176.4680  142.8780 C   0  0  0  0  0  2  0  0  0  0  0  0
  189.3600  176.7850  141.9950 C   0  0  0  0  0  2  0  0  0  0  0  0
  2  6  1  0  0  0  0
  3 16  1  0  0  0  0
  6 18  1  0  0  0  0
  7 13  1  0  0  0  0
  8 10  1  0  0  0  0
  8 17  1  0  0  0  0
  9  7  2  0  0  0  0
 10 19  1  1  0  0  0
 10 20  1  0  0  0  0
 11  7  1  6  0  0  0
 11 14  1  0  0  0  0
 12  1  1  1  0  0  0
 12  2  1  0  0  0  0
 12 23  1  0  0  0  0
 13  5  1  6  0  0  0
 13  4  1  0  0  0  0
 14  4  1  0  0  0  0
 14 18  2  0  0  0  0
 15  1  2  0  0  0  0
 16 11  1  0  0  0  0
 16  2  2  0  0  0  0
 17 21  1  0  0  0  0
 20 15  1  0  0  0  0
 21 15  1  0  0  0  0
 21  3  2  0  0  0  0
 22 26  1  0  0  0  0
 23 24  1  6  0  0  0
 23 27  1  0  0  0  0
 24 25  2  0  0  0  0
 25 22  1  0  0  0  0
 27 26  1  0  0  0  0
M  END
>  <MODEL>
8

>  <REMARK>
 VINA RESULT:      -5.8      1.582      2.077
  Name = 
  1 active torsions:
  status: ('A' for Active; 'I' for Inactive)
    1  A    between atoms: C_9  and  C_15
                            x       y       z     vdW  Elec       q    Type
                         _______ _______ _______ _____ _____    ______ ____

>  <TORSDO>
F 1

$$$$
=
 OpenBabel10272401043D

 27 31  0  0  1  0  0  0  0  0999 V2000
  190.3100  176.1140  139.2250 C   0  0  0  0  0  3  0  0  0  0  0  0
  188.6430  177.8890  138.9710 C   0  0  0  0  0  0  0  0  0  0  0  0
  189.5640  177.6140  136.7110 N   0  0  0  0  0  0  0  0  0  0  0  0
  184.5440  177.6240  137.0440 S   0  0  0  0  0  0  0  0  0  0  0  0
  185.7830  175.6730  135.5740 C   0  0  0  0  0  1  0  0  0  0  0  0
  187.4790  178.2710  139.8650 C   0  0  0  0  0  2  0  0  0  0  0  0
  186.8600  177.8900  135.7090 C   0  0  0  0  0  0  0  0  0  0  0  0
  191.2630  174.9160  135.3090 C   0  0  0  0  0  2  0  0  0  0  0  0
  187.5830  178.0370  134.7360 O   0  0  0  0  0  0  0  0  0  0  0  0
  191.7460  174.0800  136.4940 C   0  0  2  0  0  3  0  0  0  0  0  0
  187.1980  178.4920  137.0390 C   0  0  1  0  0  3  0  0  0  0  0  0
  189.9750  177.5270  139.5790 C   0  0  1  0  0  3  0  0  0  0  0  0
  185.5520  177.1730  135.5950 C   0  0  2  0  0  3  0  0  0  0  0  0
  186.0280  178.1230  137.9010 C   0  0  0  0  0  0  0  0  0  0  0  0
  190.5620  175.7490  137.9710 C   0  0  0  0  0  0  0  0  0  0  0  0
  188.4970  177.9510  137.6230 C   0  0  0  0  0  0  0  0  0  0  0  0
  191.3490  176.4030  135.6490 C   0  0  0  0  0  2  0  0  0  0  0  0
  186.1640  177.9540  139.2180 C   0  0  0  0  0  3  0  0  0  0  0  0
  191.5790  172.6680  136.2010 N   0  0  0  0  0  1  0  0  0  0  0  0
  191.0170  174.4180  137.7160 N   0  0  0  0  0  2  0  0  0  0  0  0
  190.4810  176.6930  136.8290 C   0  0  0  0  0  0  0  0  0  0  0  0
  190.6170  177.7490  143.8440 C   0  0  0  0  0  2  0  0  0  0  0  0
  190.0810  177.7820  141.0940 C   0  0  2  0  0  3  0  0  0  0  0  0
  191.5010  177.5980  141.5660 C   0  0  0  0  0  3  0  0  0  0  0  0
  191.7540  177.5790  142.8780 C   0  0  0  0  0  3  0  0  0  0  0  0
  189.4110  176.8930  143.4280 C   0  0  0  0  0  2  0  0  0  0  0  0
  189.1640  176.8440  141.9050 C   0  0  0  0  0  2  0  0  0  0  0  0
  2 12  1  0  0  0  0
  2  6  1  0  0  0  0
  3 21  2  0  0  0  0
  3 16  1  0  0  0  0
  4 14  1  0  0  0  0
  8 17  1  0  0  0  0
  8 10  1  0  0  0  0
  9  7  2  0  0  0  0
 10 19  1  6  0  0  0
 10 20  1  0  0  0  0
 11  7  1  6  0  0  0
 11 16  1  0  0  0  0
 11 14  1  0  0  0  0
 12  1  1  1  0  0  0
 12 23  1  0  0  0  0
 13  5  1  1  0  0  0
 13  7  1  0  0  0  0
 13  4  1  0  0  0  0
 14 18  2  0  0  0  0
 15  1  2  0  0  0  0
 16  2  2  0  0  0  0
 17 21  1  0  0  0  0
 18  6  1  0  0  0  0
 20 15  1  0  0  0  0
 21 15  1  0  0  0  0
 23 24  1  1  0  0  0
 23 27  1  0  0  0  0
 24 25  2  0  0  0  0
 25 22  1  0  0  0  0
 26 22  1  0  0  0  0
 27 26  1  0  0  0  0
M  END
>  <MODEL>
9

>  <REMARK>
 VINA RESULT:      -5.8      2.477      3.604
  Name = 
  1 active torsions:
  status: ('A' for Active; 'I' for Inactive)
    1  A    between atoms: C_9  and  C_15
                            x       y       z     vdW  Elec       q    Type
                         _______ _______ _______ _____ _____    ______ ____

>  <TORSDO>
F 1

$$$$
