=
 OpenBabel10272414543D

 37 40  0  0  1  0  0  0  0  0999 V2000
  190.5220  176.6660  136.3500 C   0  0  0  0  0  3  0  0  0  0  0  0
  194.1080  175.1060  137.9270 C   0  0  0  0  0  2  0  0  0  0  0  0
  190.0570  172.6320  134.8050 C   0  0  0  0  0  3  0  0  0  0  0  0
  191.6130  176.1160  136.8850 C   0  0  0  0  0  0  0  0  0  0  0  0
  190.5720  173.8920  135.1310 C   0  0  0  0  0  0  0  0  0  0  0  0
  192.0140  176.4650  138.2330 N   0  0  0  0  0  0  0  0  0  0  0  0
  189.7500  174.9160  134.8630 C   0  0  0  0  0  2  0  0  0  0  0  0
  191.9280  174.0120  135.5990 C   0  0  0  0  0  0  0  0  0  0  0  0
  192.1780  171.5930  135.2530 C   0  0  0  0  0  3  0  0  0  0  0  0
  190.1000  176.3580  134.9640 C   0  0  1  0  0  3  0  0  0  0  0  0
  192.7000  172.8340  135.6110 C   0  0  0  0  0  3  0  0  0  0  0  0
  193.3410  176.1340  138.7710 C   0  0  0  0  0  2  0  0  0  0  0  0
  192.4680  175.1640  136.1210 C   0  0  2  0  0  3  0  0  0  0  0  0
  190.8440  171.4870  134.8810 C   0  0  0  0  0  0  0  0  0  0  0  0
  193.9530  175.3860  136.4330 C   0  0  1  0  0  0  0  0  0  0  0  0
  190.2790  170.1650  134.4970 C   0  0  0  0  0  2  0  0  0  0  0  0
  191.2760  169.1270  134.6940 N   0  0  0  0  0  1  0  0  0  0  0  0
  188.0090  177.8130  134.3460 N   0  0  0  0  0  0  0  0  0  0  0  0
  188.9320  177.1710  134.6190 C   0  0  0  0  0  0  0  0  0  0  0  0
  194.2890  176.7580  136.1850 O   0  0  0  0  0  0  0  0  0  0  0  0
  195.0350  177.1550  135.0760 C   0  0  0  0  0  3  0  0  0  0  0  0
  196.5600  179.1800  135.2360 O   0  0  0  0  0  0  0  0  0  0  0  0
  195.8170  178.1930  135.1580 C   0  0  0  0  0  0  0  0  0  0  0  0
  194.9250  174.5040  135.6270 C   0  0  0  0  0  2  0  0  0  0  0  0
  195.9940  173.8650  136.5020 C   0  0  0  0  0  2  0  0  0  0  0  0
  197.3340  174.4970  136.1990 C   0  0  0  0  0  2  0  0  0  0  0  0
  198.2560  174.6910  138.3290 C   0  0  0  0  0  1  0  0  0  0  0  0
  197.6640  175.4510  137.2430 N   0  0  0  0  0  2  0  0  0  0  0  0
  191.1550  177.2770  139.0880 C   0  0  0  0  0  2  0  0  0  0  0  0
  190.4330  176.3920  140.0990 C   0  0  0  0  0  2  0  0  0  0  0  0
  191.7090  177.4980  141.9870 C   0  0  0  0  0  2  0  0  0  0  0  0
  190.3360  177.0490  141.4720 C   0  0  2  0  0  3  0  0  0  0  0  0
  189.5970  176.1590  142.4750 C   0  0  0  0  0  2  0  0  0  0  0  0
  188.2310  176.9690  144.3300 N   0  0  0  0  0  1  0  0  0  0  0  0
  190.3460  178.0060  143.9810 N   0  0  0  0  0  2  0  0  0  0  0  0
  189.5980  176.7500  143.8950 C   0  0  2  0  0  3  0  0  0  0  0  0
  191.7030  177.7680  143.4970 C   0  0  0  0  0  2  0  0  0  0  0  0
  1  4  2  0  0  0  0
  2 12  1  0  0  0  0
  3 14  2  0  0  0  0
  3  5  1  0  0  0  0
  4  6  1  0  0  0  0
  5  8  2  0  0  0  0
  6 12  1  0  0  0  0
  6 29  1  0  0  0  0
  7 10  1  0  0  0  0
  7  5  1  0  0  0  0
  8 11  1  0  0  0  0
  9 11  2  0  0  0  0
 10 19  1  1  0  0  0
 10  1  1  0  0  0  0
 13  8  1  1  0  0  0
 13 15  1  0  0  0  0
 13  4  1  0  0  0  0
 14  9  1  0  0  0  0
 15 24  1  6  0  0  0
 15  2  1  0  0  0  0
 16 17  1  0  0  0  0
 16 14  1  0  0  0  0
 18 19  3  0  0  0  0
 20 15  1  0  0  0  0
 21 23  2  0  0  0  0
 21 20  1  0  0  0  0
 23 22  2  0  0  0  0
 24 25  1  0  0  0  0
 26 25  1  0  0  0  0
 26 28  1  0  0  0  0
 28 27  1  0  0  0  0
 29 30  1  0  0  0  0
 31 37  1  0  0  0  0
 32 30  1  6  0  0  0
 32 31  1  0  0  0  0
 32 33  1  0  0  0  0
 33 36  1  0  0  0  0
 36 35  1  0  0  0  0
 36 34  1  6  0  0  0
 37 35  1  0  0  0  0
M  END
>  <MODEL>
1

>  <REMARK>
 VINA RESULT:      -5.4      0.000      0.000
  Name = 
  11 active torsions:
  status: ('A' for Active; 'I' for Inactive)
    1  A    between atoms: O_1  and  C_5
    2  A    between atoms: O_1  and  C_36
    3  A    between atoms: C_3  and  C_32
    4  A    between atoms: C_6  and  C_31
    5  A    between atoms: N_14  and  C_37
    6  A    between atoms: C_17  and  C_26
    7  A    between atoms: C_17  and  C_33
    8  A    between atoms: C_24  and  C_28
    9  A    between atoms: C_26  and  N_34
   10  A    between atoms: C_31  and  C_37
   11  A    between atoms: C_33  and  C_36
                            x       y       z     vdW  Elec       q    Type
                         _______ _______ _______ _____ _____    ______ ____

>  <TORSDO>
F 11

$$$$
=
 OpenBabel10272414543D

 37 40  0  0  1  0  0  0  0  0999 V2000
  188.5850  177.1410  139.0050 C   0  0  0  0  0  3  0  0  0  0  0  0
  187.5390  175.1000  135.4670 C   0  0  0  0  0  2  0  0  0  0  0  0
  192.6350  176.3390  137.6520 C   0  0  0  0  0  3  0  0  0  0  0  0
  188.2980  176.5480  137.8450 C   0  0  0  0  0  0  0  0  0  0  0  0
  191.2910  176.2000  138.0180 C   0  0  0  0  0  0  0  0  0  0  0  0
  187.2150  177.0490  137.0230 N   0  0  0  0  0  0  0  0  0  0  0  0
  190.9710  176.7660  139.1890 C   0  0  0  0  0  2  0  0  0  0  0  0
  190.4090  175.3970  137.2110 C   0  0  0  0  0  0  0  0  0  0  0  0
  192.3380  174.8360  135.7990 C   0  0  0  0  0  3  0  0  0  0  0  0
  189.6630  176.6380  139.8860 C   0  0  1  0  0  3  0  0  0  0  0  0
  190.9910  174.7090  136.1290 C   0  0  0  0  0  3  0  0  0  0  0  0
  186.6600  176.2830  135.8990 C   0  0  0  0  0  2  0  0  0  0  0  0
  189.0450  175.3480  137.3710 C   0  0  2  0  0  3  0  0  0  0  0  0
  193.1550  175.6790  136.5420 C   0  0  0  0  0  0  0  0  0  0  0  0
  188.1050  174.3560  136.6760 C   0  0  1  0  0  0  0  0  0  0  0  0
  194.5960  175.8200  136.1960 C   0  0  0  0  0  2  0  0  0  0  0  0
  194.8900  177.2050  135.8710 N   0  0  0  0  0  1  0  0  0  0  0  0
  189.7080  178.0430  142.0980 N   0  0  0  0  0  0  0  0  0  0  0  0
  189.6890  177.4230  141.1220 C   0  0  0  0  0  0  0  0  0  0  0  0
  187.0240  174.0280  137.5590 O   0  0  0  0  0  0  0  0  0  0  0  0
  186.3750  172.7940  137.5180 C   0  0  0  0  0  3  0  0  0  0  0  0
  183.8570  172.6990  137.1910 O   0  0  0  0  0  0  0  0  0  0  0  0
  185.0840  172.7460  137.3500 C   0  0  0  0  0  0  0  0  0  0  0  0
  188.7670  173.0410  136.2230 C   0  0  0  0  0  2  0  0  0  0  0  0
  188.4820  172.7170  134.7640 C   0  0  0  0  0  2  0  0  0  0  0  0
  188.8530  171.2760  134.4900 C   0  0  0  0  0  2  0  0  0  0  0  0
  186.8380  170.1490  134.7950 C   0  0  0  0  0  1  0  0  0  0  0  0
  188.1300  170.4090  135.4030 N   0  0  0  0  0  2  0  0  0  0  0  0
  186.5360  178.2980  137.3510 C   0  0  0  0  0  2  0  0  0  0  0  0
  185.0380  178.0580  137.5030 C   0  0  0  0  0  2  0  0  0  0  0  0
  183.1120  178.2820  139.1330 C   0  0  0  0  0  2  0  0  0  0  0  0
  184.6100  177.9980  138.9650 C   0  0  2  0  0  3  0  0  0  0  0  0
  185.4790  178.8980  139.8470 C   0  0  0  0  0  2  0  0  0  0  0  0
  186.0290  178.4620  142.1860 N   0  0  0  0  0  1  0  0  0  0  0  0
  183.7670  178.1600  141.5090 N   0  0  0  0  0  2  0  0  0  0  0  0
  184.9840  178.9470  141.3020 C   0  0  2  0  0  3  0  0  0  0  0  0
  182.7470  178.6380  140.5790 C   0  0  0  0  0  2  0  0  0  0  0  0
  1 10  1  0  0  0  0
  2 12  1  0  0  0  0
  2 15  1  0  0  0  0
  3  5  1  0  0  0  0
  4  1  2  0  0  0  0
  5  7  1  0  0  0  0
  6 29  1  0  0  0  0
  6  4  1  0  0  0  0
  7 10  1  0  0  0  0
  8  5  2  0  0  0  0
  9 11  2  0  0  0  0
  9 14  1  0  0  0  0
 10 19  1  1  0  0  0
 11  8  1  0  0  0  0
 12  6  1  0  0  0  0
 13  8  1  6  0  0  0
 13  4  1  0  0  0  0
 14  3  2  0  0  0  0
 15 24  1  6  0  0  0
 15 13  1  0  0  0  0
 15 20  1  0  0  0  0
 16 14  1  0  0  0  0
 17 16  1  0  0  0  0
 19 18  3  0  0  0  0
 21 20  1  0  0  0  0
 22 23  2  0  0  0  0
 23 21  2  0  0  0  0
 25 24  1  0  0  0  0
 26 25  1  0  0  0  0
 26 28  1  0  0  0  0
 27 28  1  0  0  0  0
 29 30  1  0  0  0  0
 31 37  1  0  0  0  0
 32 30  1  6  0  0  0
 32 31  1  0  0  0  0
 32 33  1  0  0  0  0
 33 36  1  0  0  0  0
 36 35  1  0  0  0  0
 36 34  1  1  0  0  0
 37 35  1  0  0  0  0
M  END
>  <MODEL>
2

>  <REMARK>
 VINA RESULT:      -5.3      4.144      7.295
  Name = 
  11 active torsions:
  status: ('A' for Active; 'I' for Inactive)
    1  A    between atoms: O_1  and  C_5
    2  A    between atoms: O_1  and  C_36
    3  A    between atoms: C_3  and  C_32
    4  A    between atoms: C_6  and  C_31
    5  A    between atoms: N_14  and  C_37
    6  A    between atoms: C_17  and  C_26
    7  A    between atoms: C_17  and  C_33
    8  A    between atoms: C_24  and  C_28
    9  A    between atoms: C_26  and  N_34
   10  A    between atoms: C_31  and  C_37
   11  A    between atoms: C_33  and  C_36
                            x       y       z     vdW  Elec       q    Type
                         _______ _______ _______ _____ _____    ______ ____

>  <TORSDO>
F 11

$$$$
=
 OpenBabel10272414543D

 37 40  0  0  1  0  0  0  0  0999 V2000
  183.5770  179.5000  139.4270 C   0  0  0  0  0  3  0  0  0  0  0  0
  186.9710  177.0990  138.7220 C   0  0  0  0  0  2  0  0  0  0  0  0
  181.4470  175.9990  137.9830 C   0  0  0  0  0  3  0  0  0  0  0  0
  184.6190  178.6850  139.2520 C   0  0  0  0  0  0  0  0  0  0  0  0
  182.3440  177.0670  138.1060 C   0  0  0  0  0  0  0  0  0  0  0  0
  185.7030  178.6790  140.2130 N   0  0  0  0  0  0  0  0  0  0  0  0
  181.7730  178.2400  138.4110 C   0  0  0  0  0  2  0  0  0  0  0  0
  183.7360  176.8710  137.7990 C   0  0  0  0  0  0  0  0  0  0  0  0
  183.1870  174.5680  137.1450 C   0  0  0  0  0  3  0  0  0  0  0  0
  182.4660  179.5570  138.4500 C   0  0  1  0  0  3  0  0  0  0  0  0
  184.1010  175.6090  137.2900 C   0  0  0  0  0  3  0  0  0  0  0  0
  186.9970  178.0380  139.9370 C   0  0  0  0  0  2  0  0  0  0  0  0
  184.7240  177.7890  138.0660 C   0  0  2  0  0  3  0  0  0  0  0  0
  181.8640  174.7530  137.5230 C   0  0  0  0  0  0  0  0  0  0  0  0
  186.1720  177.7040  137.5680 C   0  0  1  0  0  0  0  0  0  0  0  0
  180.8810  173.6460  137.3700 C   0  0  0  0  0  2  0  0  0  0  0  0
  181.4950  172.5380  136.6590 N   0  0  0  0  0  1  0  0  0  0  0  0
  180.7660  181.4180  139.1660 N   0  0  0  0  0  0  0  0  0  0  0  0
  181.5170  180.5970  138.8500 C   0  0  0  0  0  0  0  0  0  0  0  0
  186.6640  179.0270  137.3130 O   0  0  0  0  0  0  0  0  0  0  0  0
  187.8650  179.2610  136.6440 C   0  0  0  0  0  3  0  0  0  0  0  0
  190.0430  178.3770  137.6080 O   0  0  0  0  0  0  0  0  0  0  0  0
  188.9820  178.8070  137.1380 C   0  0  0  0  0  0  0  0  0  0  0  0
  186.3730  176.8670  136.2920 C   0  0  0  0  0  2  0  0  0  0  0  0
  187.3780  175.7410  136.4850 C   0  0  0  0  0  2  0  0  0  0  0  0
  188.3130  175.6940  135.2960 C   0  0  0  0  0  2  0  0  0  0  0  0
  189.5920  174.8890  137.0680 C   0  0  0  0  0  1  0  0  0  0  0  0
  189.4690  174.8780  135.6220 N   0  0  0  0  0  2  0  0  0  0  0  0
  185.6040  179.4210  141.4650 C   0  0  0  0  0  2  0  0  0  0  0  0
  185.0240  178.5310  142.5590 C   0  0  0  0  0  2  0  0  0  0  0  0
  186.9910  177.4670  143.7500 C   0  0  0  0  0  2  0  0  0  0  0  0
  185.8860  178.5290  143.8170 C   0  0  2  0  0  3  0  0  0  0  0  0
  185.0380  178.4130  145.0860 C   0  0  0  0  0  2  0  0  0  0  0  0
  185.6070  179.3900  147.2500 N   0  0  0  0  0  1  0  0  0  0  0  0
  187.3310  178.2560  146.0640 N   0  0  0  0  0  2  0  0  0  0  0  0
  185.8960  178.2850  146.3550 C   0  0  2  0  0  3  0  0  0  0  0  0
  187.5880  177.1630  145.1290 C   0  0  0  0  0  2  0  0  0  0  0  0
  2 12  1  0  0  0  0
  3  5  1  0  0  0  0
  4  1  2  0  0  0  0
  4  6  1  0  0  0  0
  5  7  1  0  0  0  0
  6 29  1  0  0  0  0
  7 10  1  0  0  0  0
  8  5  2  0  0  0  0
  9 11  2  0  0  0  0
  9 14  1  0  0  0  0
 10 19  1  1  0  0  0
 10  1  1  0  0  0  0
 11  8  1  0  0  0  0
 12  6  1  0  0  0  0
 13  8  1  1  0  0  0
 13  4  1  0  0  0  0
 14  3  2  0  0  0  0
 15 24  1  6  0  0  0
 15 13  1  0  0  0  0
 15  2  1  0  0  0  0
 16 14  1  0  0  0  0
 17 16  1  0  0  0  0
 19 18  3  0  0  0  0
 20 15  1  0  0  0  0
 21 23  2  0  0  0  0
 21 20  1  0  0  0  0
 23 22  2  0  0  0  0
 24 25  1  0  0  0  0
 26 28  1  0  0  0  0
 26 25  1  0  0  0  0
 28 27  1  0  0  0  0
 29 30  1  0  0  0  0
 31 32  1  0  0  0  0
 31 37  1  0  0  0  0
 32 30  1  6  0  0  0
 32 33  1  0  0  0  0
 33 36  1  0  0  0  0
 35 36  1  0  0  0  0
 36 34  1  1  0  0  0
 37 35  1  0  0  0  0
M  END
>  <MODEL>
3

>  <REMARK>
 VINA RESULT:      -5.1      5.844      7.998
  Name = 
  11 active torsions:
  status: ('A' for Active; 'I' for Inactive)
    1  A    between atoms: O_1  and  C_5
    2  A    between atoms: O_1  and  C_36
    3  A    between atoms: C_3  and  C_32
    4  A    between atoms: C_6  and  C_31
    5  A    between atoms: N_14  and  C_37
    6  A    between atoms: C_17  and  C_26
    7  A    between atoms: C_17  and  C_33
    8  A    between atoms: C_24  and  C_28
    9  A    between atoms: C_26  and  N_34
   10  A    between atoms: C_31  and  C_37
   11  A    between atoms: C_33  and  C_36
                            x       y       z     vdW  Elec       q    Type
                         _______ _______ _______ _____ _____    ______ ____

>  <TORSDO>
F 11

$$$$
=
 OpenBabel10272414543D

 37 40  0  0  1  0  0  0  0  0999 V2000
  190.1250  177.2990  137.4710 C   0  0  0  0  0  3  0  0  0  0  0  0
  193.4050  174.6510  137.4570 C   0  0  0  0  0  2  0  0  0  0  0  0
  188.0360  173.8940  135.7640 C   0  0  0  0  0  3  0  0  0  0  0  0
  191.1190  176.4110  137.5100 C   0  0  0  0  0  0  0  0  0  0  0  0
  188.9720  174.9030  136.0170 C   0  0  0  0  0  0  0  0  0  0  0  0
  192.0110  176.3710  138.6510 N   0  0  0  0  0  0  0  0  0  0  0  0
  188.4440  176.1240  136.1820 C   0  0  0  0  0  2  0  0  0  0  0  0
  190.3790  174.6020  135.9730 C   0  0  0  0  0  0  0  0  0  0  0  0
  189.7880  172.3170  135.2930 C   0  0  0  0  0  3  0  0  0  0  0  0
  189.2130  177.3910  136.3080 C   0  0  1  0  0  3  0  0  0  0  0  0
  190.7350  173.2990  135.5730 C   0  0  0  0  0  3  0  0  0  0  0  0
  193.2830  175.6340  138.6310 C   0  0  0  0  0  2  0  0  0  0  0  0
  191.3680  175.4620  136.3870 C   0  0  2  0  0  3  0  0  0  0  0  0
  188.4350  172.6060  135.4210 C   0  0  0  0  0  0  0  0  0  0  0  0
  192.8710  175.2600  136.1620 C   0  0  1  0  0  0  0  0  0  0  0  0
  187.4170  171.5610  135.1240 C   0  0  0  0  0  2  0  0  0  0  0  0
  186.1130  172.1790  134.9580 N   0  0  0  0  0  1  0  0  0  0  0  0
  187.5540  179.3900  136.6550 N   0  0  0  0  0  0  0  0  0  0  0  0
  188.2860  178.5080  136.5020 C   0  0  0  0  0  0  0  0  0  0  0  0
  193.4960  176.5360  135.9630 O   0  0  0  0  0  0  0  0  0  0  0  0
  194.3640  176.7850  134.9000 C   0  0  0  0  0  3  0  0  0  0  0  0
  196.3230  178.3720  135.2100 O   0  0  0  0  0  0  0  0  0  0  0  0
  195.3690  177.5980  135.0590 C   0  0  0  0  0  0  0  0  0  0  0  0
  193.2340  174.3610  134.9660 C   0  0  0  0  0  2  0  0  0  0  0  0
  194.1040  173.1790  135.3690 C   0  0  0  0  0  2  0  0  0  0  0  0
  195.4990  173.3720  134.8150 C   0  0  0  0  0  2  0  0  0  0  0  0
  197.2440  174.5270  135.8360 C   0  0  0  0  0  1  0  0  0  0  0  0
  196.4620  173.3060  135.9000 N   0  0  0  0  0  2  0  0  0  0  0  0
  191.7460  177.1670  139.8430 C   0  0  0  0  0  2  0  0  0  0  0  0
  190.5000  176.6500  140.5550 C   0  0  0  0  0  2  0  0  0  0  0  0
  191.6840  177.5650  142.5980 C   0  0  0  0  0  2  0  0  0  0  0  0
  190.3320  177.2640  141.9400 C   0  0  2  0  0  3  0  0  0  0  0  0
  189.4240  176.4120  142.8320 C   0  0  0  0  0  2  0  0  0  0  0  0
  187.9670  177.2800  144.5880 N   0  0  0  0  0  1  0  0  0  0  0  0
  190.1890  178.1270  144.4790 N   0  0  0  0  0  2  0  0  0  0  0  0
  189.3440  176.9490  144.2700 C   0  0  2  0  0  3  0  0  0  0  0  0
  191.5590  177.7810  144.1110 C   0  0  0  0  0  2  0  0  0  0  0  0
  1  4  2  0  0  0  0
  2 12  1  0  0  0  0
  3  5  1  0  0  0  0
  4  6  1  0  0  0  0
  5  7  1  0  0  0  0
  6 29  1  0  0  0  0
  7 10  1  0  0  0  0
  8  5  2  0  0  0  0
  9 14  1  0  0  0  0
  9 11  2  0  0  0  0
 10 19  1  1  0  0  0
 10  1  1  0  0  0  0
 11  8  1  0  0  0  0
 12  6  1  0  0  0  0
 13  8  1  1  0  0  0
 13  4  1  0  0  0  0
 14  3  2  0  0  0  0
 15 24  1  6  0  0  0
 15 13  1  0  0  0  0
 15  2  1  0  0  0  0
 16 14  1  0  0  0  0
 17 16  1  0  0  0  0
 19 18  3  0  0  0  0
 20 15  1  0  0  0  0
 21 23  2  0  0  0  0
 21 20  1  0  0  0  0
 23 22  2  0  0  0  0
 24 25  1  0  0  0  0
 26 25  1  0  0  0  0
 26 28  1  0  0  0  0
 27 28  1  0  0  0  0
 29 30  1  0  0  0  0
 31 37  1  0  0  0  0
 32 30  1  6  0  0  0
 32 31  1  0  0  0  0
 32 33  1  0  0  0  0
 33 36  1  0  0  0  0
 36 35  1  0  0  0  0
 36 34  1  6  0  0  0
 37 35  1  0  0  0  0
M  END
>  <MODEL>
4

>  <REMARK>
 VINA RESULT:      -5.0      1.651      1.967
  Name = 
  11 active torsions:
  status: ('A' for Active; 'I' for Inactive)
    1  A    between atoms: O_1  and  C_5
    2  A    between atoms: O_1  and  C_36
    3  A    between atoms: C_3  and  C_32
    4  A    between atoms: C_6  and  C_31
    5  A    between atoms: N_14  and  C_37
    6  A    between atoms: C_17  and  C_26
    7  A    between atoms: C_17  and  C_33
    8  A    between atoms: C_24  and  C_28
    9  A    between atoms: C_26  and  N_34
   10  A    between atoms: C_31  and  C_37
   11  A    between atoms: C_33  and  C_36
                            x       y       z     vdW  Elec       q    Type
                         _______ _______ _______ _____ _____    ______ ____

>  <TORSDO>
F 11

$$$$
=
 OpenBabel10272414543D

 37 40  0  0  1  0  0  0  0  0999 V2000
  185.5970  174.4810  136.3610 C   0  0  0  0  0  3  0  0  0  0  0  0
  182.4660  177.3050  136.3400 C   0  0  0  0  0  2  0  0  0  0  0  0
  182.3270  171.6320  136.6120 C   0  0  0  0  0  3  0  0  0  0  0  0
  184.5760  175.3370  136.2910 C   0  0  0  0  0  0  0  0  0  0  0  0
  183.1790  172.7190  136.8410 C   0  0  0  0  0  0  0  0  0  0  0  0
  184.6420  176.4720  135.3930 N   0  0  0  0  0  0  0  0  0  0  0  0
  184.4800  172.4020  136.9060 C   0  0  0  0  0  2  0  0  0  0  0  0
  182.6250  174.0230  137.0940 C   0  0  0  0  0  0  0  0  0  0  0  0
  180.3910  173.0060  136.9920 C   0  0  0  0  0  3  0  0  0  0  0  0
  185.5790  173.3280  137.2890 C   0  0  1  0  0  3  0  0  0  0  0  0
  181.2220  174.1060  137.1920 C   0  0  0  0  0  3  0  0  0  0  0  0
  183.7020  177.5980  135.4760 C   0  0  0  0  0  2  0  0  0  0  0  0
  183.3620  175.1820  137.1420 C   0  0  2  0  0  3  0  0  0  0  0  0
  180.9430  171.7730  136.6690 C   0  0  0  0  0  0  0  0  0  0  0  0
  182.8430  176.5460  137.6110 C   0  0  1  0  0  0  0  0  0  0  0  0
  180.0620  170.5930  136.4550 C   0  0  0  0  0  2  0  0  0  0  0  0
  180.5850  169.7790  135.3710 N   0  0  0  0  0  1  0  0  0  0  0  0
  187.8720  172.0650  137.1600 N   0  0  0  0  0  0  0  0  0  0  0  0
  186.8600  172.6230  137.2160 C   0  0  0  0  0  0  0  0  0  0  0  0
  183.9010  177.2540  138.2720 O   0  0  0  0  0  0  0  0  0  0  0  0
  183.7780  178.5880  138.6590 C   0  0  0  0  0  3  0  0  0  0  0  0
  185.2640  179.5140  140.5000 O   0  0  0  0  0  0  0  0  0  0  0  0
  184.5400  179.0630  139.6020 C   0  0  0  0  0  0  0  0  0  0  0  0
  181.6370  176.4880  138.5680 C   0  0  0  0  0  2  0  0  0  0  0  0
  180.5640  177.5070  138.2150 C   0  0  0  0  0  2  0  0  0  0  0  0
  180.0050  178.1070  139.4870 C   0  0  0  0  0  2  0  0  0  0  0  0
  180.8050  179.0180  141.4750 C   0  0  0  0  0  1  0  0  0  0  0  0
  180.9400  177.8870  140.5760 N   0  0  0  0  0  2  0  0  0  0  0  0
  185.7300  176.6100  134.4320 C   0  0  0  0  0  2  0  0  0  0  0  0
  186.4480  177.9400  134.6360 C   0  0  0  0  0  2  0  0  0  0  0  0
  188.4130  176.4830  135.2930 C   0  0  0  0  0  2  0  0  0  0  0  0
  187.6700  177.8030  135.5370 C   0  0  2  0  0  3  0  0  0  0  0  0
  187.3140  178.0110  137.0110 C   0  0  0  0  0  2  0  0  0  0  0  0
  188.8050  178.9590  138.6960 N   0  0  0  0  0  1  0  0  0  0  0  0
  189.7060  177.3220  137.2200 N   0  0  0  0  0  2  0  0  0  0  0  0
  188.5080  177.7530  137.9450 C   0  0  2  0  0  3  0  0  0  0  0  0
  189.3680  176.1340  136.4400 C   0  0  0  0  0  2  0  0  0  0  0  0
  1 10  1  0  0  0  0
  2 15  1  0  0  0  0
  3 14  2  0  0  0  0
  3  5  1  0  0  0  0
  4  1  2  0  0  0  0
  5  7  1  0  0  0  0
  5  8  2  0  0  0  0
  6 12  1  0  0  0  0
  6  4  1  0  0  0  0
  7 10  1  0  0  0  0
  8 13  1  0  0  0  0
  8 11  1  0  0  0  0
  9 11  2  0  0  0  0
 10 19  1  6  0  0  0
 12  2  1  0  0  0  0
 13  4  1  6  0  0  0
 13 15  1  0  0  0  0
 14  9  1  0  0  0  0
 15 20  1  0  0  0  0
 15 24  1  1  0  0  0
 16 14  1  0  0  0  0
 17 16  1  0  0  0  0
 18 19  3  0  0  0  0
 20 21  1  0  0  0  0
 21 23  2  0  0  0  0
 23 22  2  0  0  0  0
 25 24  1  0  0  0  0
 25 26  1  0  0  0  0
 26 28  1  0  0  0  0
 28 27  1  0  0  0  0
 29 30  1  0  0  0  0
 29  6  1  0  0  0  0
 31 32  1  0  0  0  0
 31 37  1  0  0  0  0
 32 30  1  6  0  0  0
 32 33  1  0  0  0  0
 33 36  1  0  0  0  0
 35 36  1  0  0  0  0
 36 34  1  6  0  0  0
 37 35  1  0  0  0  0
M  END
>  <MODEL>
5

>  <REMARK>
 VINA RESULT:      -5.0      6.890     10.311
  Name = 
  11 active torsions:
  status: ('A' for Active; 'I' for Inactive)
    1  A    between atoms: O_1  and  C_5
    2  A    between atoms: O_1  and  C_36
    3  A    between atoms: C_3  and  C_32
    4  A    between atoms: C_6  and  C_31
    5  A    between atoms: N_14  and  C_37
    6  A    between atoms: C_17  and  C_26
    7  A    between atoms: C_17  and  C_33
    8  A    between atoms: C_24  and  C_28
    9  A    between atoms: C_26  and  N_34
   10  A    between atoms: C_31  and  C_37
   11  A    between atoms: C_33  and  C_36
                            x       y       z     vdW  Elec       q    Type
                         _______ _______ _______ _____ _____    ______ ____

>  <TORSDO>
F 11

$$$$
=
 OpenBabel10272414543D

 37 40  0  0  1  0  0  0  0  0999 V2000
  189.4680  177.6190  137.5410 C   0  0  0  0  0  3  0  0  0  0  0  0
  192.3530  174.5500  137.7140 C   0  0  0  0  0  2  0  0  0  0  0  0
  186.7640  174.3180  136.7230 C   0  0  0  0  0  3  0  0  0  0  0  0
  190.3360  176.6130  137.6510 C   0  0  0  0  0  0  0  0  0  0  0  0
  187.8460  175.2050  136.6880 C   0  0  0  0  0  0  0  0  0  0  0  0
  191.3490  176.6400  138.6870 N   0  0  0  0  0  0  0  0  0  0  0  0
  187.5040  176.5000  136.6670 C   0  0  0  0  0  2  0  0  0  0  0  0
  189.1870  174.6940  136.5650 C   0  0  0  0  0  0  0  0  0  0  0  0
  188.2280  172.4390  136.3940 C   0  0  0  0  0  3  0  0  0  0  0  0
  188.4390  177.6410  136.4760 C   0  0  1  0  0  3  0  0  0  0  0  0
  189.3210  173.3030  136.3880 C   0  0  0  0  0  3  0  0  0  0  0  0
  192.5030  175.7300  138.6850 C   0  0  0  0  0  2  0  0  0  0  0  0
  190.3220  175.4560  136.7110 C   0  0  2  0  0  3  0  0  0  0  0  0
  186.9490  172.9440  136.5950 C   0  0  0  0  0  0  0  0  0  0  0  0
  191.7470  174.9960  136.3840 C   0  0  1  0  0  0  0  0  0  0  0  0
  185.7770  172.0280  136.6020 C   0  0  0  0  0  2  0  0  0  0  0  0
  184.7020  172.6100  137.3870 N   0  0  0  0  0  1  0  0  0  0  0  0
  187.1070  179.8950  136.5960 N   0  0  0  0  0  0  0  0  0  0  0  0
  187.6950  178.9000  136.5420 C   0  0  0  0  0  0  0  0  0  0  0  0
  192.5020  176.1100  135.8870 O   0  0  0  0  0  0  0  0  0  0  0  0
  193.7570  175.9580  135.2980 C   0  0  0  0  0  3  0  0  0  0  0  0
  195.4720  177.8240  135.4710 O   0  0  0  0  0  0  0  0  0  0  0  0
  194.6360  176.9150  135.3870 C   0  0  0  0  0  0  0  0  0  0  0  0
  191.8420  173.8570  135.3520 C   0  0  0  0  0  2  0  0  0  0  0  0
  192.7520  172.7270  135.8130 C   0  0  0  0  0  2  0  0  0  0  0  0
  192.5220  171.5120  134.9400 C   0  0  0  0  0  2  0  0  0  0  0  0
  194.1400  170.8320  136.4700 C   0  0  0  0  0  1  0  0  0  0  0  0
  193.1080  170.3450  135.5740 N   0  0  0  0  0  2  0  0  0  0  0  0
  191.3360  177.6630  139.7270 C   0  0  0  0  0  2  0  0  0  0  0  0
  191.4760  177.0180  141.1020 C   0  0  0  0  0  2  0  0  0  0  0  0
  189.0280  177.6680  141.0700 C   0  0  0  0  0  2  0  0  0  0  0  0
  190.1580  177.0040  141.8670 C   0  0  2  0  0  3  0  0  0  0  0  0
  190.3100  177.5940  143.2710 C   0  0  0  0  0  2  0  0  0  0  0  0
  189.0200  176.9140  145.2290 N   0  0  0  0  0  1  0  0  0  0  0  0
  187.8360  177.2590  143.1920 N   0  0  0  0  0  2  0  0  0  0  0  0
  188.9670  177.7020  144.0110 C   0  0  2  0  0  3  0  0  0  0  0  0
  187.8320  178.0370  141.9560 C   0  0  0  0  0  2  0  0  0  0  0  0
  1  4  2  0  0  0  0
  2 12  1  0  0  0  0
  4  6  1  0  0  0  0
  5  3  1  0  0  0  0
  6 29  1  0  0  0  0
  7  5  1  0  0  0  0
  8  5  2  0  0  0  0
  9 14  1  0  0  0  0
 10 19  1  1  0  0  0
 10  7  1  0  0  0  0
 10  1  1  0  0  0  0
 11  9  2  0  0  0  0
 11  8  1  0  0  0  0
 12  6  1  0  0  0  0
 13  8  1  1  0  0  0
 13  4  1  0  0  0  0
 14 16  1  0  0  0  0
 14  3  2  0  0  0  0
 15 24  1  6  0  0  0
 15 13  1  0  0  0  0
 15  2  1  0  0  0  0
 16 17  1  0  0  0  0
 19 18  3  0  0  0  0
 20 15  1  0  0  0  0
 21 23  2  0  0  0  0
 21 20  1  0  0  0  0
 23 22  2  0  0  0  0
 24 25  1  0  0  0  0
 26 28  1  0  0  0  0
 26 25  1  0  0  0  0
 28 27  1  0  0  0  0
 29 30  1  0  0  0  0
 31 32  1  0  0  0  0
 31 37  1  0  0  0  0
 32 30  1  6  0  0  0
 32 33  1  0  0  0  0
 33 36  1  0  0  0  0
 35 36  1  0  0  0  0
 36 34  1  1  0  0  0
 37 35  1  0  0  0  0
M  END
>  <MODEL>
6

>  <REMARK>
 VINA RESULT:      -5.0      2.284      3.415
  Name = 
  11 active torsions:
  status: ('A' for Active; 'I' for Inactive)
    1  A    between atoms: O_1  and  C_5
    2  A    between atoms: O_1  and  C_36
    3  A    between atoms: C_3  and  C_32
    4  A    between atoms: C_6  and  C_31
    5  A    between atoms: N_14  and  C_37
    6  A    between atoms: C_17  and  C_26
    7  A    between atoms: C_17  and  C_33
    8  A    between atoms: C_24  and  C_28
    9  A    between atoms: C_26  and  N_34
   10  A    between atoms: C_31  and  C_37
   11  A    between atoms: C_33  and  C_36
                            x       y       z     vdW  Elec       q    Type
                         _______ _______ _______ _____ _____    ______ ____

>  <TORSDO>
F 11

$$$$
=
 OpenBabel10272414543D

 37 40  0  0  1  0  0  0  0  0999 V2000
  186.7740  177.7550  138.4730 C   0  0  0  0  0  3  0  0  0  0  0  0
  189.8090  175.1720  137.0960 C   0  0  0  0  0  2  0  0  0  0  0  0
  184.2270  174.3180  137.7130 C   0  0  0  0  0  3  0  0  0  0  0  0
  187.7120  176.8860  138.0940 C   0  0  0  0  0  0  0  0  0  0  0  0
  185.1690  175.3440  137.5790 C   0  0  0  0  0  0  0  0  0  0  0  0
  188.9900  176.8580  138.7750 N   0  0  0  0  0  0  0  0  0  0  0  0
  184.7330  176.5530  137.9590 C   0  0  0  0  0  2  0  0  0  0  0  0
  186.4420  175.0720  136.9640 C   0  0  0  0  0  0  0  0  0  0  0  0
  185.6630  172.7790  136.5520 C   0  0  0  0  0  3  0  0  0  0  0  0
  185.4670  177.8350  137.7800 C   0  0  1  0  0  3  0  0  0  0  0  0
  186.6260  173.7790  136.4370 C   0  0  0  0  0  3  0  0  0  0  0  0
  190.1570  176.1460  138.2320 C   0  0  0  0  0  2  0  0  0  0  0  0
  187.5000  175.9490  136.9540 C   0  0  2  0  0  3  0  0  0  0  0  0
  184.4740  173.0400  137.2210 C   0  0  0  0  0  0  0  0  0  0  0  0
  188.7860  175.7790  136.1370 C   0  0  1  0  0  0  0  0  0  0  0  0
  183.4390  171.9770  137.3480 C   0  0  0  0  0  2  0  0  0  0  0  0
  183.6290  170.9790  136.3100 N   0  0  0  0  0  1  0  0  0  0  0  0
  184.0590  179.7980  138.7960 N   0  0  0  0  0  0  0  0  0  0  0  0
  184.6810  178.9320  138.3480 C   0  0  0  0  0  0  0  0  0  0  0  0
  189.2560  177.0680  135.7190 O   0  0  0  0  0  0  0  0  0  0  0  0
  188.8040  177.6850  134.5530 C   0  0  0  0  0  3  0  0  0  0  0  0
  186.3700  178.3890  134.3560 O   0  0  0  0  0  0  0  0  0  0  0  0
  187.5560  178.0460  134.4530 C   0  0  0  0  0  0  0  0  0  0  0  0
  188.6480  174.8930  134.8850 C   0  0  0  0  0  2  0  0  0  0  0  0
  189.9640  174.2420  134.4820 C   0  0  0  0  0  2  0  0  0  0  0  0
  189.8600  172.7440  134.6720 C   0  0  0  0  0  2  0  0  0  0  0  0
  191.6530  171.2930  134.3550 C   0  0  0  0  0  1  0  0  0  0  0  0
  191.0800  172.2500  135.2840 N   0  0  0  0  0  2  0  0  0  0  0  0
  189.2180  177.6420  139.9830 C   0  0  0  0  0  2  0  0  0  0  0  0
  190.3010  176.9900  140.8370 C   0  0  0  0  0  2  0  0  0  0  0  0
  191.4240  177.0070  143.1080 C   0  0  0  0  0  2  0  0  0  0  0  0
  190.1520  177.3320  142.3150 C   0  0  2  0  0  3  0  0  0  0  0  0
  188.9030  176.6890  142.9230 C   0  0  0  0  0  2  0  0  0  0  0  0
  187.5780  177.6390  144.7410 N   0  0  0  0  0  1  0  0  0  0  0  0
  189.9470  177.6640  144.9720 N   0  0  0  0  0  2  0  0  0  0  0  0
  188.8030  176.9210  144.4400 C   0  0  2  0  0  3  0  0  0  0  0  0
  191.1680  176.9440  144.6180 C   0  0  0  0  0  2  0  0  0  0  0  0
  2 12  1  0  0  0  0
  4  1  2  0  0  0  0
  4  6  1  0  0  0  0
  5  3  1  0  0  0  0
  5  7  1  0  0  0  0
  6 29  1  0  0  0  0
  8  5  2  0  0  0  0
  9 14  1  0  0  0  0
 10  7  1  0  0  0  0
 10 19  1  1  0  0  0
 10  1  1  0  0  0  0
 11  9  2  0  0  0  0
 11  8  1  0  0  0  0
 12  6  1  0  0  0  0
 13  8  1  1  0  0  0
 13  4  1  0  0  0  0
 14 16  1  0  0  0  0
 14  3  2  0  0  0  0
 15 24  1  6  0  0  0
 15 13  1  0  0  0  0
 15  2  1  0  0  0  0
 17 16  1  0  0  0  0
 19 18  3  0  0  0  0
 20 15  1  0  0  0  0
 21 20  1  0  0  0  0
 22 23  2  0  0  0  0
 23 21  2  0  0  0  0
 25 26  1  0  0  0  0
 25 24  1  0  0  0  0
 26 28  1  0  0  0  0
 27 28  1  0  0  0  0
 29 30  1  0  0  0  0
 31 37  1  0  0  0  0
 32 30  1  6  0  0  0
 32 33  1  0  0  0  0
 32 31  1  0  0  0  0
 33 36  1  0  0  0  0
 36 34  1  6  0  0  0
 36 35  1  0  0  0  0
 37 35  1  0  0  0  0
M  END
>  <MODEL>
7

>  <REMARK>
 VINA RESULT:      -4.9      3.937      5.617
  Name = 
  11 active torsions:
  status: ('A' for Active; 'I' for Inactive)
    1  A    between atoms: O_1  and  C_5
    2  A    between atoms: O_1  and  C_36
    3  A    between atoms: C_3  and  C_32
    4  A    between atoms: C_6  and  C_31
    5  A    between atoms: N_14  and  C_37
    6  A    between atoms: C_17  and  C_26
    7  A    between atoms: C_17  and  C_33
    8  A    between atoms: C_24  and  C_28
    9  A    between atoms: C_26  and  N_34
   10  A    between atoms: C_31  and  C_37
   11  A    between atoms: C_33  and  C_36
                            x       y       z     vdW  Elec       q    Type
                         _______ _______ _______ _____ _____    ______ ____

>  <TORSDO>
F 11

$$$$
=
 OpenBabel10272414543D

 37 40  0  0  1  0  0  0  0  0999 V2000
  190.8480  175.5530  137.5750 C   0  0  0  0  0  3  0  0  0  0  0  0
  186.6620  176.0520  137.6700 C   0  0  0  0  0  2  0  0  0  0  0  0
  190.6240  177.3060  141.5440 C   0  0  0  0  0  3  0  0  0  0  0  0
  189.5220  175.6680  137.6720 C   0  0  0  0  0  0  0  0  0  0  0  0
  190.4700  177.0650  140.1740 C   0  0  0  0  0  0  0  0  0  0  0  0
  188.6650  174.6180  137.1610 N   0  0  0  0  0  0  0  0  0  0  0  0
  191.6060  176.7670  139.5300 C   0  0  0  0  0  2  0  0  0  0  0  0
  189.1850  177.2580  139.5530 C   0  0  0  0  0  0  0  0  0  0  0  0
  188.3430  178.0440  141.7220 C   0  0  0  0  0  3  0  0  0  0  0  0
  191.7550  176.6190  138.0570 C   0  0  1  0  0  3  0  0  0  0  0  0
  188.1610  177.7810  140.3660 C   0  0  0  0  0  3  0  0  0  0  0  0
  187.2200  174.8040  136.9690 C   0  0  0  0  0  2  0  0  0  0  0  0
  188.8800  176.8730  138.2690 C   0  0  2  0  0  3  0  0  0  0  0  0
  189.5670  177.7740  142.3200 C   0  0  0  0  0  0  0  0  0  0  0  0
  187.6010  177.2470  137.5100 C   0  0  1  0  0  0  0  0  0  0  0  0
  189.7700  178.0530  143.7680 C   0  0  0  0  0  2  0  0  0  0  0  0
  190.8520  179.0070  143.9390 N   0  0  0  0  0  1  0  0  0  0  0  0
  194.2320  175.9830  137.4870 N   0  0  0  0  0  0  0  0  0  0  0  0
  193.1390  176.2630  137.7380 C   0  0  0  0  0  0  0  0  0  0  0  0
  187.9060  177.4090  136.1180 O   0  0  0  0  0  0  0  0  0  0  0  0
  187.0680  178.1030  135.2470 C   0  0  0  0  0  3  0  0  0  0  0  0
  184.9690  176.9880  134.3500 O   0  0  0  0  0  0  0  0  0  0  0  0
  185.9910  177.5310  134.7880 C   0  0  0  0  0  0  0  0  0  0  0  0
  186.9080  178.5320  137.9990 C   0  0  0  0  0  2  0  0  0  0  0  0
  185.4080  178.3520  138.1820 C   0  0  0  0  0  2  0  0  0  0  0  0
  185.0110  178.8250  139.5640 C   0  0  0  0  0  2  0  0  0  0  0  0
  182.7420  179.0870  139.1100 C   0  0  0  0  0  1  0  0  0  0  0  0
  183.6920  178.3140  139.8890 N   0  0  0  0  0  2  0  0  0  0  0  0
  189.2190  173.3520  136.6950 C   0  0  0  0  0  2  0  0  0  0  0  0
  189.4970  173.4190  135.1970 C   0  0  0  0  0  2  0  0  0  0  0  0
  190.5310  171.2650  134.3550 C   0  0  0  0  0  2  0  0  0  0  0  0
  190.7890  172.7040  134.8190 C   0  0  2  0  0  3  0  0  0  0  0  0
  191.8280  172.7810  135.9400 C   0  0  0  0  0  2  0  0  0  0  0  0
  194.2470  172.8370  135.6110 N   0  0  0  0  0  1  0  0  0  0  0  0
  192.9990  171.2530  134.3480 N   0  0  0  0  0  2  0  0  0  0  0  0
  193.0910  171.9600  135.6270 C   0  0  2  0  0  3  0  0  0  0  0  0
  191.8040  170.4110  134.3730 C   0  0  0  0  0  2  0  0  0  0  0  0
  1  4  2  0  0  0  0
  1 10  1  0  0  0  0
  3 14  1  0  0  0  0
  5  3  2  0  0  0  0
  6  4  1  0  0  0  0
  7  5  1  0  0  0  0
  8  5  1  0  0  0  0
  8 11  2  0  0  0  0
  9 14  2  0  0  0  0
 10 19  1  1  0  0  0
 10  7  1  0  0  0  0
 11  9  1  0  0  0  0
 12  6  1  0  0  0  0
 12  2  1  0  0  0  0
 13  4  1  1  0  0  0
 13  8  1  0  0  0  0
 14 16  1  0  0  0  0
 15  2  1  0  0  0  0
 15 24  1  1  0  0  0
 15 13  1  0  0  0  0
 16 17  1  0  0  0  0
 18 19  3  0  0  0  0
 20 15  1  0  0  0  0
 21 20  1  0  0  0  0
 22 23  2  0  0  0  0
 23 21  2  0  0  0  0
 24 25  1  0  0  0  0
 25 26  1  0  0  0  0
 26 28  1  0  0  0  0
 27 28  1  0  0  0  0
 29  6  1  0  0  0  0
 30 29  1  0  0  0  0
 31 37  1  0  0  0  0
 31 32  1  0  0  0  0
 32 30  1  1  0  0  0
 32 33  1  0  0  0  0
 35 37  1  0  0  0  0
 35 36  1  0  0  0  0
 36 34  1  6  0  0  0
 36 33  1  0  0  0  0
M  END
>  <MODEL>
8

>  <REMARK>
 VINA RESULT:      -4.9      3.526      9.082
  Name = 
  11 active torsions:
  status: ('A' for Active; 'I' for Inactive)
    1  A    between atoms: O_1  and  C_5
    2  A    between atoms: O_1  and  C_36
    3  A    between atoms: C_3  and  C_32
    4  A    between atoms: C_6  and  C_31
    5  A    between atoms: N_14  and  C_37
    6  A    between atoms: C_17  and  C_26
    7  A    between atoms: C_17  and  C_33
    8  A    between atoms: C_24  and  C_28
    9  A    between atoms: C_26  and  N_34
   10  A    between atoms: C_31  and  C_37
   11  A    between atoms: C_33  and  C_36
                            x       y       z     vdW  Elec       q    Type
                         _______ _______ _______ _____ _____    ______ ____

>  <TORSDO>
F 11

$$$$
=
 OpenBabel10272414543D

 37 40  0  0  1  0  0  0  0  0999 V2000
  185.2270  177.3920  137.7950 C   0  0  0  0  0  3  0  0  0  0  0  0
  181.0950  177.1240  138.5900 C   0  0  0  0  0  2  0  0  0  0  0  0
  185.4350  178.4850  141.9950 C   0  0  0  0  0  3  0  0  0  0  0  0
  183.9370  177.2560  138.1040 C   0  0  0  0  0  0  0  0  0  0  0  0
  185.0830  178.4220  140.6410 C   0  0  0  0  0  0  0  0  0  0  0  0
  183.1720  176.1560  137.5530 N   0  0  0  0  0  0  0  0  0  0  0  0
  186.1220  178.4260  139.7950 C   0  0  0  0  0  2  0  0  0  0  0  0
  183.6960  178.4720  140.2590 C   0  0  0  0  0  0  0  0  0  0  0  0
  183.1340  178.7740  142.6310 C   0  0  0  0  0  3  0  0  0  0  0  0
  186.0330  178.5210  138.3130 C   0  0  1  0  0  3  0  0  0  0  0  0
  182.7620  178.6820  141.2920 C   0  0  0  0  0  3  0  0  0  0  0  0
  181.7040  176.1100  137.6100 C   0  0  0  0  0  2  0  0  0  0  0  0
  183.2340  178.2290  138.9870 C   0  0  2  0  0  3  0  0  0  0  0  0
  184.4710  178.6420  142.9860 C   0  0  0  0  0  0  0  0  0  0  0  0
  181.8010  178.4760  138.5010 C   0  0  1  0  0  0  0  0  0  0  0  0
  184.8770  178.7390  144.4150 C   0  0  0  0  0  2  0  0  0  0  0  0
  183.7440  179.1570  145.2210 N   0  0  0  0  0  1  0  0  0  0  0  0
  188.4400  178.4210  137.2820 N   0  0  0  0  0  0  0  0  0  0  0  0
  187.3780  178.4660  137.7380 C   0  0  0  0  0  0  0  0  0  0  0  0
  181.8310  178.8900  137.1280 O   0  0  0  0  0  0  0  0  0  0  0  0
  180.6700  179.0700  136.3770 C   0  0  0  0  0  3  0  0  0  0  0  0
  180.5340  180.9650  134.6910 O   0  0  0  0  0  0  0  0  0  0  0  0
  180.6000  180.0410  135.5120 C   0  0  0  0  0  0  0  0  0  0  0  0
  181.0170  179.5340  139.3000 C   0  0  0  0  0  2  0  0  0  0  0  0
  181.3410  180.9550  138.8620 C   0  0  0  0  0  2  0  0  0  0  0  0
  180.1120  181.8220  139.0240 C   0  0  0  0  0  2  0  0  0  0  0  0
  181.3690  183.1720  137.6030 C   0  0  0  0  0  1  0  0  0  0  0  0
  180.0170  182.7400  137.9030 N   0  0  0  0  0  2  0  0  0  0  0  0
  183.8220  175.0890  136.8000 C   0  0  0  0  0  2  0  0  0  0  0  0
  184.1710  173.9280  137.7260 C   0  0  0  0  0  2  0  0  0  0  0  0
  184.9240  171.9660  136.3120 C   0  0  0  0  0  2  0  0  0  0  0  0
  183.7810  172.5800  137.1300 C   0  0  2  0  0  3  0  0  0  0  0  0
  182.4740  172.6660  136.3380 C   0  0  0  0  0  2  0  0  0  0  0  0
  180.8510  170.8580  136.1060 N   0  0  0  0  0  1  0  0  0  0  0  0
  183.1520  170.3170  135.8290 N   0  0  0  0  0  2  0  0  0  0  0  0
  182.1310  171.3470  135.6280 C   0  0  2  0  0  3  0  0  0  0  0  0
  184.4370  170.8500  135.3800 C   0  0  0  0  0  2  0  0  0  0  0  0
  1  4  2  0  0  0  0
  1 10  1  0  0  0  0
  3 14  1  0  0  0  0
  5  3  2  0  0  0  0
  6 12  1  0  0  0  0
  6  4  1  0  0  0  0
  7  5  1  0  0  0  0
  8  5  1  0  0  0  0
  8 11  2  0  0  0  0
  9 14  2  0  0  0  0
 10 19  1  6  0  0  0
 10  7  1  0  0  0  0
 11  9  1  0  0  0  0
 12  2  1  0  0  0  0
 13  4  1  1  0  0  0
 13  8  1  0  0  0  0
 14 16  1  0  0  0  0
 15  2  1  0  0  0  0
 15 13  1  0  0  0  0
 15 24  1  1  0  0  0
 16 17  1  0  0  0  0
 18 19  3  0  0  0  0
 20 15  1  0  0  0  0
 21 20  1  0  0  0  0
 22 23  2  0  0  0  0
 23 21  2  0  0  0  0
 25 26  1  0  0  0  0
 25 24  1  0  0  0  0
 27 28  1  0  0  0  0
 28 26  1  0  0  0  0
 29  6  1  0  0  0  0
 29 30  1  0  0  0  0
 31 32  1  0  0  0  0
 32 30  1  6  0  0  0
 33 32  1  0  0  0  0
 36 35  1  0  0  0  0
 36 34  1  1  0  0  0
 36 33  1  0  0  0  0
 37 35  1  0  0  0  0
 37 31  1  0  0  0  0
M  END
>  <MODEL>
9

>  <REMARK>
 VINA RESULT:      -4.9      7.736     12.349
  Name = 
  11 active torsions:
  status: ('A' for Active; 'I' for Inactive)
    1  A    between atoms: O_1  and  C_5
    2  A    between atoms: O_1  and  C_36
    3  A    between atoms: C_3  and  C_32
    4  A    between atoms: C_6  and  C_31
    5  A    between atoms: N_14  and  C_37
    6  A    between atoms: C_17  and  C_26
    7  A    between atoms: C_17  and  C_33
    8  A    between atoms: C_24  and  C_28
    9  A    between atoms: C_26  and  N_34
   10  A    between atoms: C_31  and  C_37
   11  A    between atoms: C_33  and  C_36
                            x       y       z     vdW  Elec       q    Type
                         _______ _______ _______ _____ _____    ______ ____

>  <TORSDO>
F 11

$$$$
