=
 OpenBabel10272401413D

 55 60  0  0  1  0  0  0  0  0999 V2000
  186.3050  178.0040  139.4360 C   0  0  0  0  0  2  0  0  0  0  0  0
  188.7570  177.0730  138.4360 C   0  0  2  0  0  3  0  0  0  0  0  0
  187.5390  176.9670  137.5020 C   0  0  0  0  0  2  0  0  0  0  0  0
  187.6480  178.3920  140.0820 C   0  0  0  0  0  2  0  0  0  0  0  0
  186.4120  177.9180  137.9170 C   0  0  1  0  0  3  0  0  0  0  0  0
  188.7660  178.3560  139.1330 N   0  0  0  0  0  2  0  0  0  0  0  0
  190.8680  175.9220  137.9260 C   0  0  0  0  0  3  0  0  0  0  0  0
  190.0230  176.9160  137.6680 C   0  0  0  0  0  3  0  0  0  0  0  0
  193.6480  175.5710  134.3460 O   0  0  0  0  0  1  0  0  0  0  0  0
  193.2210  176.6640  137.4060 C   0  0  1  0  0  3  0  0  0  0  0  0
  193.7490  175.0390  135.6400 C   0  0  1  0  0  0  0  0  0  0  0  0
  194.3590  176.0850  136.5870 C   0  0  1  0  0  3  0  0  0  0  0  0
  192.0980  175.7650  137.2050 N   0  0  0  0  0  0  0  0  0  0  0  0
  195.0300  177.1020  135.9020 O   0  0  0  0  0  1  0  0  0  0  0  0
  193.6340  176.6850  138.8680 C   0  0  0  0  0  1  0  0  0  0  0  0
  192.3460  174.7380  136.2020 C   0  0  1  0  0  3  0  0  0  0  0  0
  194.6450  171.5180  135.5520 C   0  0  0  0  0  0  0  0  0  0  0  0
  194.6360  173.7770  135.5850 C   0  0  1  0  0  3  0  0  0  0  0  0
  194.6560  173.4590  138.1160 C   0  0  0  0  0  1  0  0  0  0  0  0
  195.4460  173.3880  136.8170 C   0  0  1  0  0  3  0  0  0  0  0  0
  195.1750  170.7430  134.3510 C   0  0  0  0  0  1  0  0  0  0  0  0
  195.7520  171.9500  136.5280 C   0  0  2  0  0  3  0  0  0  0  0  0
  193.6750  170.6180  136.2950 C   0  0  0  0  0  1  0  0  0  0  0  0
  197.0270  171.8620  135.9570 O   0  0  0  0  0  1  0  0  0  0  0  0
  193.9450  172.6550  135.0970 O   0  0  0  0  0  0  0  0  0  0  0  0
  191.3610  174.7910  135.2040 O   0  0  0  0  0  0  0  0  0  0  0  0
  190.7950  173.5120  135.1670 C   0  0  0  0  0  2  0  0  0  0  0  0
  189.2840  173.6090  135.0800 C   0  0  0  0  0  2  0  0  0  0  0  0
  188.8850  174.9290  135.1810 F   0  0  0  0  0  0  0  0  0  0  0  0
  185.1970  177.4890  137.3800 O   0  0  0  0  0  0  0  0  0  0  0  0
  184.6620  176.6220  138.3380 C   0  0  0  0  0  2  0  0  0  0  0  0
  182.4820  172.5840  136.3360 C   0  0  0  0  0  2  0  0  0  0  0  0
  182.8020  178.9110  138.2970 C   0  0  0  0  0  2  0  0  0  0  0  0
  180.4830  172.0110  137.3780 C   0  0  0  0  0  2  0  0  0  0  0  0
  181.1730  174.3910  137.4980 N   0  0  0  0  0  0  0  0  0  0  0  0
  180.1720  173.4050  137.9110 C   0  0  0  0  0  2  0  0  0  0  0  0
  181.9170  171.7830  137.4130 N   0  0  0  0  0  2  0  0  0  0  0  0
  182.3070  174.0880  136.6080 C   0  0  1  0  0  3  0  0  0  0  0  0
  182.0970  176.4700  138.1160 C   0  0  0  0  0  0  0  0  0  0  0  0
  180.8460  178.1390  139.3670 O   0  0  0  0  0  0  0  0  0  0  0  0
  181.0620  175.6900  138.0170 N   0  0  0  0  0  0  0  0  0  0  0  0
  181.3140  179.2430  140.1000 C   0  0  1  0  0  3  0  0  0  0  0  0
  183.5670  174.7700  137.0960 C   0  0  0  0  0  0  0  0  0  0  0  0
  182.3310  179.9790  139.2370 C   0  0  0  0  0  2  0  0  0  0  0  0
  183.4520  175.9370  137.7780 C   0  0  0  0  0  0  0  0  0  0  0  0
  181.8980  177.8180  138.5750 N   0  0  0  0  0  0  0  0  0  0  0  0
  184.8940  174.2000  136.6400 C   0  0  2  0  0  3  0  0  0  0  0  0
  185.8060  173.6180  137.7250 C   0  0  0  0  0  2  0  0  0  0  0  0
  186.6980  172.4910  137.2340 C   0  0  0  0  0  1  0  0  0  0  0  0
  185.1070  174.7900  134.3460 O   0  0  0  0  0  0  0  0  0  0  0  0
  185.5510  174.8950  135.4810 C   0  0  0  0  0  3  0  0  0  0  0  0
  180.1540  180.1580  140.4580 C   0  0  0  0  0  2  0  0  0  0  0  0
  180.2130  180.5140  141.8680 N   0  0  0  0  0  2  0  0  0  0  0  0
  180.1370  179.2820  142.6370 C   0  0  0  0  0  2  0  0  0  0  0  0
  181.1380  179.2710  143.6110 O   0  0  0  0  0  1  0  0  0  0  0  0
  1  4  1  0  0  0  0
  2  8  1  6  0  0  0
  2  6  1  0  0  0  0
  3  5  1  0  0  0  0
  3  2  1  0  0  0  0
  5 30  1  6  0  0  0
  5  1  1  0  0  0  0
  6  4  1  0  0  0  0
  8  7  2  0  0  0  0
 10 15  1  1  0  0  0
 11  9  1  6  0  0  0
 11 16  1  0  0  0  0
 11 12  1  0  0  0  0
 12 14  1  6  0  0  0
 12 10  1  0  0  0  0
 13 10  1  0  0  0  0
 13  7  1  0  0  0  0
 16 26  1  6  0  0  0
 16 13  1  0  0  0  0
 17 23  1  0  0  0  0
 17 22  1  0  0  0  0
 18 25  1  1  0  0  0
 18 11  1  0  0  0  0
 18 20  1  0  0  0  0
 20 19  1  1  0  0  0
 21 17  1  0  0  0  0
 22 24  1  6  0  0  0
 22 20  1  0  0  0  0
 25 17  1  0  0  0  0
 27 26  1  0  0  0  0
 28 27  1  0  0  0  0
 28 29  1  0  0  0  0
 30 31  1  0  0  0  0
 32 37  1  0  0  0  0
 33 46  1  0  0  0  0
 33 44  1  0  0  0  0
 34 37  1  0  0  0  0
 34 36  1  0  0  0  0
 35 36  1  0  0  0  0
 35 41  1  0  0  0  0
 38 32  1  1  0  0  0
 38 43  1  0  0  0  0
 38 35  1  0  0  0  0
 39 46  1  0  0  0  0
 40 42  1  0  0  0  0
 41 39  2  0  0  0  0
 42 52  1  6  0  0  0
 43 45  2  0  0  0  0
 44 42  1  0  0  0  0
 45 39  1  0  0  0  0
 45 31  1  0  0  0  0
 46 40  1  0  0  0  0
 47 51  1  1  0  0  0
 47 43  1  0  0  0  0
 47 48  1  0  0  0  0
 49 48  1  0  0  0  0
 50 51  2  0  0  0  0
 52 53  1  0  0  0  0
 53 54  1  0  0  0  0
 54 55  1  0  0  0  0
M  END
>  <MODEL>
1

>  <REMARK>
 VINA RESULT:      -4.6      0.000      0.000
  Name = 
  15 active torsions:
  status: ('A' for Active; 'I' for Inactive)
    1  A    between atoms: O_2  and  C_28
    2  A    between atoms: O_2  and  C_44
    3  A    between atoms: O_3  and  C_38
    4  A    between atoms: O_3  and  C_46
    5  A    between atoms: C_4  and  C_19
    6  A    between atoms: C_6  and  C_20
    7  A    between atoms: C_10  and  N_18
    8  A    between atoms: C_11  and  C_38
    9  A    between atoms: N_18  and  C_32
   10  A    between atoms: C_19  and  C_40
   11  A    between atoms: C_19  and  C_45
   12  A    between atoms: C_27  and  C_54
   13  A    between atoms: C_28  and  C_49
   14  A    between atoms: C_32  and  C_39
   15  A    between atoms: N_35  and  C_51
                            x       y       z     vdW  Elec       q    Type
                         _______ _______ _______ _____ _____    ______ ____

>  <TORSDO>
F 15

$$$$
=
 OpenBabel10272401413D

 55 60  0  0  1  0  0  0  0  0999 V2000
  185.0750  178.4910  145.4390 C   0  0  0  0  0  2  0  0  0  0  0  0
  184.4400  178.8570  142.7300 C   0  0  2  0  0  3  0  0  0  0  0  0
  185.6580  177.9720  143.0450 C   0  0  0  0  0  2  0  0  0  0  0  0
  183.6970  179.0090  144.9890 C   0  0  0  0  0  2  0  0  0  0  0  0
  185.6240  177.4390  144.4810 C   0  0  1  0  0  3  0  0  0  0  0  0
  183.3360  178.5630  143.6390 N   0  0  0  0  0  2  0  0  0  0  0  0
  182.7030  178.6580  141.0020 C   0  0  0  0  0  3  0  0  0  0  0  0
  183.9930  178.6540  141.3240 C   0  0  0  0  0  3  0  0  0  0  0  0
  179.9820  177.3160  137.6160 O   0  0  0  0  0  1  0  0  0  0  0  0
  182.1100  179.5510  138.7200 C   0  0  1  0  0  3  0  0  0  0  0  0
  181.3770  177.4540  137.6710 C   0  0  1  0  0  0  0  0  0  0  0  0
  181.7680  178.9130  137.3870 C   0  0  1  0  0  3  0  0  0  0  0  0
  182.2560  178.4500  139.6550 N   0  0  0  0  0  0  0  0  0  0  0  0
  180.7490  179.6280  136.7530 O   0  0  0  0  0  1  0  0  0  0  0  0
  183.4190  180.3080  138.5760 C   0  0  0  0  0  1  0  0  0  0  0  0
  181.8840  177.1570  139.0950 C   0  0  1  0  0  3  0  0  0  0  0  0
  182.5260  174.3670  136.1330 C   0  0  0  0  0  0  0  0  0  0  0  0
  182.0050  176.5110  136.6220 C   0  0  1  0  0  3  0  0  0  0  0  0
  184.3060  176.5220  137.7240 C   0  0  0  0  0  1  0  0  0  0  0  0
  183.5160  176.5290  136.4220 C   0  0  1  0  0  3  0  0  0  0  0  0
  181.8830  173.6430  134.9560 C   0  0  0  0  0  1  0  0  0  0  0  0
  183.7390  175.2210  135.7280 C   0  0  2  0  0  3  0  0  0  0  0  0
  182.9880  173.3190  137.1280 C   0  0  0  0  0  1  0  0  0  0  0  0
  183.7950  175.4430  134.3460 O   0  0  0  0  0  1  0  0  0  0  0  0
  181.5600  175.1850  136.7570 O   0  0  0  0  0  0  0  0  0  0  0  0
  180.8950  176.5550  139.8880 O   0  0  0  0  0  0  0  0  0  0  0  0
  181.2380  175.2010  139.9520 C   0  0  0  0  0  2  0  0  0  0  0  0
  179.9870  174.3460  140.0420 C   0  0  0  0  0  2  0  0  0  0  0  0
  180.2080  173.1160  139.4520 F   0  0  0  0  0  0  0  0  0  0  0  0
  186.9050  177.0560  144.8820 O   0  0  0  0  0  0  0  0  0  0  0  0
  187.7460  178.0870  144.4530 C   0  0  0  0  0  2  0  0  0  0  0  0
  191.4010  176.4380  147.4520 C   0  0  0  0  0  2  0  0  0  0  0  0
  188.8530  178.8730  141.8340 C   0  0  0  0  0  2  0  0  0  0  0  0
  192.6150  174.6790  146.5340 C   0  0  0  0  0  2  0  0  0  0  0  0
  191.5110  176.2350  144.9460 N   0  0  0  0  0  0  0  0  0  0  0  0
  192.3150  175.0170  145.0780 C   0  0  0  0  0  2  0  0  0  0  0  0
  191.4570  174.9870  147.3550 N   0  0  0  0  0  2  0  0  0  0  0  0
  191.1040  177.0770  146.0840 C   0  0  1  0  0  3  0  0  0  0  0  0
  190.0120  177.3210  143.4880 C   0  0  0  0  0  0  0  0  0  0  0  0
  190.0560  176.9900  141.0790 O   0  0  0  0  0  0  0  0  0  0  0  0
  191.0730  176.5920  143.6620 N   0  0  0  0  0  0  0  0  0  0  0  0
  189.0650  177.2620  140.1210 C   0  0  1  0  0  3  0  0  0  0  0  0
  189.6720  177.5380  145.9230 C   0  0  0  0  0  0  0  0  0  0  0  0
  188.5350  178.6650  140.3840 C   0  0  0  0  0  2  0  0  0  0  0  0
  189.1760  177.6950  144.6700 C   0  0  0  0  0  0  0  0  0  0  0  0
  189.6690  177.7230  142.1510 N   0  0  0  0  0  0  0  0  0  0  0  0
  188.9280  177.9660  147.1710 C   0  0  2  0  0  3  0  0  0  0  0  0
  189.5910  179.0440  148.0350 C   0  0  0  0  0  2  0  0  0  0  0  0
  190.0180  178.5500  149.4070 C   0  0  0  0  0  1  0  0  0  0  0  0
  187.4720  177.1500  148.8650 O   0  0  0  0  0  0  0  0  0  0  0  0
  188.1450  176.8950  147.8760 C   0  0  0  0  0  3  0  0  0  0  0  0
  189.6530  177.1650  138.7230 C   0  0  0  0  0  2  0  0  0  0  0  0
  191.0860  176.9230  138.7960 N   0  0  0  0  0  2  0  0  0  0  0  0
  191.4650  176.1660  137.6130 C   0  0  0  0  0  2  0  0  0  0  0  0
  192.8550  176.0390  137.5580 O   0  0  0  0  0  1  0  0  0  0  0  0
  2  8  1  6  0  0  0
  2  3  1  0  0  0  0
  2  6  1  0  0  0  0
  3  5  1  0  0  0  0
  4  1  1  0  0  0  0
  5 30  1  1  0  0  0
  5  1  1  0  0  0  0
  6  4  1  0  0  0  0
  7  8  2  0  0  0  0
 10 15  1  6  0  0  0
 10 13  1  0  0  0  0
 11  9  1  6  0  0  0
 11 16  1  0  0  0  0
 12 14  1  1  0  0  0
 12 11  1  0  0  0  0
 12 10  1  0  0  0  0
 13  7  1  0  0  0  0
 16 13  1  0  0  0  0
 16 26  1  1  0  0  0
 17 25  1  0  0  0  0
 17 23  1  0  0  0  0
 18 25  1  1  0  0  0
 18 11  1  0  0  0  0
 20 18  1  0  0  0  0
 20 19  1  1  0  0  0
 21 17  1  0  0  0  0
 22 24  1  6  0  0  0
 22 17  1  0  0  0  0
 22 20  1  0  0  0  0
 26 27  1  0  0  0  0
 27 28  1  0  0  0  0
 29 28  1  0  0  0  0
 31 45  1  0  0  0  0
 31 30  1  0  0  0  0
 33 46  1  0  0  0  0
 34 37  1  0  0  0  0
 35 36  1  0  0  0  0
 35 38  1  0  0  0  0
 36 34  1  0  0  0  0
 37 32  1  0  0  0  0
 38 32  1  1  0  0  0
 39 41  2  0  0  0  0
 39 45  1  0  0  0  0
 40 46  1  0  0  0  0
 41 35  1  0  0  0  0
 42 52  1  6  0  0  0
 42 44  1  0  0  0  0
 42 40  1  0  0  0  0
 43 38  1  0  0  0  0
 43 47  1  0  0  0  0
 44 33  1  0  0  0  0
 45 43  2  0  0  0  0
 46 39  1  0  0  0  0
 47 51  1  1  0  0  0
 47 48  1  0  0  0  0
 48 49  1  0  0  0  0
 51 50  2  0  0  0  0
 52 53  1  0  0  0  0
 54 53  1  0  0  0  0
 55 54  1  0  0  0  0
M  END
>  <MODEL>
2

>  <REMARK>
 VINA RESULT:      -4.5      4.757     11.281
  Name = 
  15 active torsions:
  status: ('A' for Active; 'I' for Inactive)
    1  A    between atoms: O_2  and  C_28
    2  A    between atoms: O_2  and  C_44
    3  A    between atoms: O_3  and  C_38
    4  A    between atoms: O_3  and  C_46
    5  A    between atoms: C_4  and  C_19
    6  A    between atoms: C_6  and  C_20
    7  A    between atoms: C_10  and  N_18
    8  A    between atoms: C_11  and  C_38
    9  A    between atoms: N_18  and  C_32
   10  A    between atoms: C_19  and  C_40
   11  A    between atoms: C_19  and  C_45
   12  A    between atoms: C_27  and  C_54
   13  A    between atoms: C_28  and  C_49
   14  A    between atoms: C_32  and  C_39
   15  A    between atoms: N_35  and  C_51
                            x       y       z     vdW  Elec       q    Type
                         _______ _______ _______ _____ _____    ______ ____

>  <TORSDO>
F 15

$$$$
=
 OpenBabel10272401413D

 55 60  0  0  1  0  0  0  0  0999 V2000
  188.5310  177.8450  140.6290 C   0  0  0  0  0  2  0  0  0  0  0  0
  190.3400  176.3710  139.0690 C   0  0  2  0  0  3  0  0  0  0  0  0
  189.2360  177.1340  138.3180 C   0  0  0  0  0  2  0  0  0  0  0  0
  189.8830  177.3640  141.1860 C   0  0  0  0  0  2  0  0  0  0  0  0
  188.6390  178.2620  139.1650 C   0  0  1  0  0  3  0  0  0  0  0  0
  190.8980  177.1890  140.1410 N   0  0  0  0  0  2  0  0  0  0  0  0
  192.1400  174.8640  138.3400 C   0  0  0  0  0  3  0  0  0  0  0  0
  191.4280  175.9670  138.1350 C   0  0  0  0  0  3  0  0  0  0  0  0
  194.2380  173.9230  134.4180 O   0  0  0  0  0  1  0  0  0  0  0  0
  194.4790  175.1560  137.4450 C   0  0  1  0  0  3  0  0  0  0  0  0
  194.4410  173.4170  135.7100 C   0  0  1  0  0  0  0  0  0  0  0  0
  195.3610  174.3610  136.5020 C   0  0  1  0  0  3  0  0  0  0  0  0
  193.2000  174.4690  137.4570 N   0  0  0  0  0  0  0  0  0  0  0  0
  196.0860  175.2210  135.6730 O   0  0  0  0  0  1  0  0  0  0  0  0
  195.1070  175.1410  138.8280 C   0  0  0  0  0  1  0  0  0  0  0  0
  193.1100  173.3880  136.4850 C   0  0  1  0  0  3  0  0  0  0  0  0
  194.6710  169.7910  135.5810 C   0  0  0  0  0  0  0  0  0  0  0  0
  195.0760  172.0140  135.5940 C   0  0  1  0  0  3  0  0  0  0  0  0
  195.2440  171.6820  138.1180 C   0  0  0  0  0  1  0  0  0  0  0  0
  195.8990  171.4760  136.7590 C   0  0  1  0  0  3  0  0  0  0  0  0
  194.9510  168.9410  134.3470 C   0  0  0  0  0  1  0  0  0  0  0  0
  195.9140  170.0080  136.4600 C   0  0  2  0  0  3  0  0  0  0  0  0
  193.6170  169.0790  136.4080 C   0  0  0  0  0  1  0  0  0  0  0  0
  197.1010  169.6930  135.7880 O   0  0  0  0  0  1  0  0  0  0  0  0
  194.1540  171.0400  135.1740 O   0  0  0  0  0  0  0  0  0  0  0  0
  192.0080  173.5900  135.6400 O   0  0  0  0  0  0  0  0  0  0  0  0
  190.9970  172.7600  136.1350 C   0  0  0  0  0  2  0  0  0  0  0  0
  190.3670  171.9680  135.0050 C   0  0  0  0  0  2  0  0  0  0  0  0
  191.0920  170.8140  134.7720 F   0  0  0  0  0  0  0  0  0  0  0  0
  187.3790  178.6150  138.6800 O   0  0  0  0  0  0  0  0  0  0  0  0
  186.5910  177.4720  138.8460 C   0  0  0  0  0  2  0  0  0  0  0  0
  183.3120  176.8280  135.1170 C   0  0  0  0  0  2  0  0  0  0  0  0
  185.5090  179.3560  140.8420 C   0  0  0  0  0  2  0  0  0  0  0  0
  181.2230  176.1100  135.8480 C   0  0  0  0  0  2  0  0  0  0  0  0
  182.6000  177.3980  137.4620 N   0  0  0  0  0  0  0  0  0  0  0  0
  181.3430  176.6720  137.2600 C   0  0  0  0  0  2  0  0  0  0  0  0
  182.5220  175.6380  135.3980 N   0  0  0  0  0  2  0  0  0  0  0  0
  183.5970  177.6250  136.4020 C   0  0  1  0  0  3  0  0  0  0  0  0
  184.1020  178.0770  139.1470 C   0  0  0  0  0  0  0  0  0  0  0  0
  183.4010  178.4820  141.4410 O   0  0  0  0  0  0  0  0  0  0  0  0
  182.8810  177.8680  138.7540 N   0  0  0  0  0  0  0  0  0  0  0  0
  184.1740  178.5470  142.6130 C   0  0  1  0  0  3  0  0  0  0  0  0
  185.0000  177.4370  136.9390 C   0  0  0  0  0  0  0  0  0  0  0  0
  185.3740  179.4420  142.3310 C   0  0  0  0  0  2  0  0  0  0  0  0
  185.2360  177.7020  138.2470 C   0  0  0  0  0  0  0  0  0  0  0  0
  184.3140  178.6410  140.4520 N   0  0  0  0  0  0  0  0  0  0  0  0
  186.0970  177.1310  135.9410 C   0  0  2  0  0  3  0  0  0  0  0  0
  186.7100  175.7280  135.9950 C   0  0  0  0  0  2  0  0  0  0  0  0
  186.6220  174.9700  134.6820 C   0  0  0  0  0  1  0  0  0  0  0  0
  187.8680  178.1520  134.7260 O   0  0  0  0  0  0  0  0  0  0  0  0
  187.0060  178.2720  135.5850 C   0  0  0  0  0  3  0  0  0  0  0  0
  183.3420  179.1100  143.7530 C   0  0  0  0  0  2  0  0  0  0  0  0
  184.1810  179.3500  144.9170 N   0  0  0  0  0  2  0  0  0  0  0  0
  184.4260  178.0660  145.5550 C   0  0  0  0  0  2  0  0  0  0  0  0
  185.6920  178.0660  146.1480 O   0  0  0  0  0  1  0  0  0  0  0  0
  1  4  1  0  0  0  0
  2  8  1  6  0  0  0
  2  6  1  0  0  0  0
  3  2  1  0  0  0  0
  3  5  1  0  0  0  0
  5 30  1  6  0  0  0
  5  1  1  0  0  0  0
  6  4  1  0  0  0  0
  8  7  2  0  0  0  0
 10 13  1  0  0  0  0
 10 15  1  1  0  0  0
 11  9  1  6  0  0  0
 11 16  1  0  0  0  0
 11 12  1  0  0  0  0
 12 14  1  6  0  0  0
 12 10  1  0  0  0  0
 13  7  1  0  0  0  0
 16 26  1  6  0  0  0
 16 13  1  0  0  0  0
 17 23  1  0  0  0  0
 17 22  1  0  0  0  0
 18 25  1  1  0  0  0
 18 11  1  0  0  0  0
 18 20  1  0  0  0  0
 20 19  1  1  0  0  0
 21 17  1  0  0  0  0
 22 24  1  6  0  0  0
 22 20  1  0  0  0  0
 25 17  1  0  0  0  0
 26 27  1  0  0  0  0
 28 27  1  0  0  0  0
 29 28  1  0  0  0  0
 30 31  1  0  0  0  0
 32 37  1  0  0  0  0
 33 44  1  0  0  0  0
 34 36  1  0  0  0  0
 35 41  1  0  0  0  0
 36 35  1  0  0  0  0
 37 34  1  0  0  0  0
 38 32  1  6  0  0  0
 38 43  1  0  0  0  0
 38 35  1  0  0  0  0
 39 46  1  0  0  0  0
 40 42  1  0  0  0  0
 41 39  2  0  0  0  0
 42 52  1  1  0  0  0
 43 45  2  0  0  0  0
 44 42  1  0  0  0  0
 45 31  1  0  0  0  0
 45 39  1  0  0  0  0
 46 33  1  0  0  0  0
 46 40  1  0  0  0  0
 47 51  1  1  0  0  0
 47 48  1  0  0  0  0
 47 43  1  0  0  0  0
 49 48  1  0  0  0  0
 50 51  2  0  0  0  0
 52 53  1  0  0  0  0
 53 54  1  0  0  0  0
 54 55  1  0  0  0  0
M  END
>  <MODEL>
3

>  <REMARK>
 VINA RESULT:      -4.4      2.490      3.042
  Name = 
  15 active torsions:
  status: ('A' for Active; 'I' for Inactive)
    1  A    between atoms: O_2  and  C_28
    2  A    between atoms: O_2  and  C_44
    3  A    between atoms: O_3  and  C_38
    4  A    between atoms: O_3  and  C_46
    5  A    between atoms: C_4  and  C_19
    6  A    between atoms: C_6  and  C_20
    7  A    between atoms: C_10  and  N_18
    8  A    between atoms: C_11  and  C_38
    9  A    between atoms: N_18  and  C_32
   10  A    between atoms: C_19  and  C_40
   11  A    between atoms: C_19  and  C_45
   12  A    between atoms: C_27  and  C_54
   13  A    between atoms: C_28  and  C_49
   14  A    between atoms: C_32  and  C_39
   15  A    between atoms: N_35  and  C_51
                            x       y       z     vdW  Elec       q    Type
                         _______ _______ _______ _____ _____    ______ ____

>  <TORSDO>
F 15

$$$$
=
 OpenBabel10272401413D

 55 60  0  0  1  0  0  0  0  0999 V2000
  187.1580  178.1250  140.9130 C   0  0  0  0  0  2  0  0  0  0  0  0
  189.3340  177.0990  139.4660 C   0  0  2  0  0  3  0  0  0  0  0  0
  187.9930  177.2090  138.7210 C   0  0  0  0  0  2  0  0  0  0  0  0
  188.6120  178.3160  141.3840 C   0  0  0  0  0  2  0  0  0  0  0  0
  187.0410  178.2020  139.3940 C   0  0  1  0  0  3  0  0  0  0  0  0
  189.5750  178.2890  140.2770 N   0  0  0  0  0  2  0  0  0  0  0  0
  191.0080  175.7260  138.3030 C   0  0  0  0  0  3  0  0  0  0  0  0
  190.4560  176.9180  138.5040 C   0  0  0  0  0  3  0  0  0  0  0  0
  193.1240  174.9950  134.3470 O   0  0  0  0  0  1  0  0  0  0  0  0
  193.1500  176.5290  137.2430 C   0  0  1  0  0  3  0  0  0  0  0  0
  193.5040  174.6830  135.6600 C   0  0  1  0  0  0  0  0  0  0  0  0
  194.1720  175.9040  136.3130 C   0  0  1  0  0  3  0  0  0  0  0  0
  192.0990  175.5380  137.3910 N   0  0  0  0  0  0  0  0  0  0  0  0
  194.6120  176.8410  135.3740 O   0  0  0  0  0  1  0  0  0  0  0  0
  193.8140  176.8090  138.5800 C   0  0  0  0  0  1  0  0  0  0  0  0
  192.2590  174.3830  136.5170 C   0  0  1  0  0  3  0  0  0  0  0  0
  194.6690  171.2410  135.7530 C   0  0  0  0  0  0  0  0  0  0  0  0
  194.4810  173.4890  135.6180 C   0  0  1  0  0  3  0  0  0  0  0  0
  194.7440  173.3810  138.1540 C   0  0  0  0  0  1  0  0  0  0  0  0
  195.4230  173.2620  136.7960 C   0  0  1  0  0  3  0  0  0  0  0  0
  195.1550  170.4120  134.5700 C   0  0  0  0  0  1  0  0  0  0  0  0
  195.8180  171.8320  136.5890 C   0  0  2  0  0  3  0  0  0  0  0  0
  193.8420  170.3360  136.6480 C   0  0  0  0  0  1  0  0  0  0  0  0
  197.0420  171.7910  135.9120 O   0  0  0  0  0  1  0  0  0  0  0  0
  193.8430  172.2830  135.2810 O   0  0  0  0  0  0  0  0  0  0  0  0
  191.1110  174.2120  135.7280 O   0  0  0  0  0  0  0  0  0  0  0  0
  190.6920  172.8970  135.9560 C   0  0  0  0  0  2  0  0  0  0  0  0
  190.1240  172.2990  134.6820 C   0  0  0  0  0  2  0  0  0  0  0  0
  188.7450  172.2500  134.7530 F   0  0  0  0  0  0  0  0  0  0  0  0
  185.7240  177.9460  139.0080 O   0  0  0  0  0  0  0  0  0  0  0  0
  185.7570  177.8950  137.6110 C   0  0  0  0  0  2  0  0  0  0  0  0
  185.4390  173.5970  135.0630 C   0  0  0  0  0  2  0  0  0  0  0  0
  183.0830  178.7320  138.5360 C   0  0  0  0  0  2  0  0  0  0  0  0
  184.4380  171.8840  136.2770 C   0  0  0  0  0  2  0  0  0  0  0  0
  183.8220  174.2080  136.8920 N   0  0  0  0  0  0  0  0  0  0  0  0
  183.6430  172.7900  137.2110 C   0  0  0  0  0  2  0  0  0  0  0  0
  185.7200  172.4980  135.9750 N   0  0  0  0  0  2  0  0  0  0  0  0
  184.6180  174.7000  135.7530 C   0  0  1  0  0  3  0  0  0  0  0  0
  183.7000  176.3570  137.8510 C   0  0  0  0  0  0  0  0  0  0  0  0
  182.2260  176.8770  139.7160 O   0  0  0  0  0  0  0  0  0  0  0  0
  183.2320  175.1490  137.7480 N   0  0  0  0  0  0  0  0  0  0  0  0
  182.2670  177.9590  140.6120 C   0  0  1  0  0  3  0  0  0  0  0  0
  185.4350  175.9090  136.1540 C   0  0  0  0  0  0  0  0  0  0  0  0
  182.4490  179.2330  139.7980 C   0  0  0  0  0  2  0  0  0  0  0  0
  184.9590  176.7200  137.1310 C   0  0  0  0  0  0  0  0  0  0  0  0
  182.9950  177.2960  138.6810 N   0  0  0  0  0  0  0  0  0  0  0  0
  186.6540  176.2390  135.3190 C   0  0  2  0  0  3  0  0  0  0  0  0
  188.0210  176.0560  135.9870 C   0  0  0  0  0  2  0  0  0  0  0  0
  189.1940  176.2520  135.0420 C   0  0  0  0  0  1  0  0  0  0  0  0
  186.9490  178.4860  134.5970 O   0  0  0  0  0  0  0  0  0  0  0  0
  186.5030  177.3750  134.3470 C   0  0  0  0  0  3  0  0  0  0  0  0
  180.9780  178.0160  141.4150 C   0  0  0  0  0  2  0  0  0  0  0  0
  180.5620  179.3990  141.6000 N   0  0  0  0  0  2  0  0  0  0  0  0
  180.0350  179.5230  142.9500 C   0  0  0  0  0  2  0  0  0  0  0  0
  180.8470  178.8150  143.8410 O   0  0  0  0  0  1  0  0  0  0  0  0
  1  4  1  0  0  0  0
  2  8  1  6  0  0  0
  2  6  1  0  0  0  0
  3  5  1  0  0  0  0
  3  2  1  0  0  0  0
  5 30  1  1  0  0  0
  5  1  1  0  0  0  0
  6  4  1  0  0  0  0
  7  8  2  0  0  0  0
 10 13  1  0  0  0  0
 10 15  1  1  0  0  0
 11  9  1  6  0  0  0
 11 12  1  0  0  0  0
 11 16  1  0  0  0  0
 12 14  1  6  0  0  0
 12 10  1  0  0  0  0
 13  7  1  0  0  0  0
 16 26  1  6  0  0  0
 16 13  1  0  0  0  0
 17 22  1  0  0  0  0
 17 23  1  0  0  0  0
 18 25  1  1  0  0  0
 18 11  1  0  0  0  0
 18 20  1  0  0  0  0
 20 19  1  1  0  0  0
 21 17  1  0  0  0  0
 22 24  1  6  0  0  0
 22 20  1  0  0  0  0
 25 17  1  0  0  0  0
 26 27  1  0  0  0  0
 28 29  1  0  0  0  0
 28 27  1  0  0  0  0
 31 30  1  0  0  0  0
 32 37  1  0  0  0  0
 33 46  1  0  0  0  0
 33 44  1  0  0  0  0
 34 36  1  0  0  0  0
 35 36  1  0  0  0  0
 35 41  1  0  0  0  0
 37 34  1  0  0  0  0
 38 32  1  1  0  0  0
 38 43  1  0  0  0  0
 38 35  1  0  0  0  0
 39 46  1  0  0  0  0
 40 42  1  0  0  0  0
 41 39  2  0  0  0  0
 42 52  1  6  0  0  0
 43 45  2  0  0  0  0
 44 42  1  0  0  0  0
 45 31  1  0  0  0  0
 45 39  1  0  0  0  0
 46 40  1  0  0  0  0
 47 51  1  1  0  0  0
 47 48  1  0  0  0  0
 47 43  1  0  0  0  0
 49 48  1  0  0  0  0
 51 50  2  0  0  0  0
 52 53  1  0  0  0  0
 53 54  1  0  0  0  0
 54 55  1  0  0  0  0
M  END
>  <MODEL>
4

>  <REMARK>
 VINA RESULT:      -4.0      1.527      1.976
  Name = 
  15 active torsions:
  status: ('A' for Active; 'I' for Inactive)
    1  A    between atoms: O_2  and  C_28
    2  A    between atoms: O_2  and  C_44
    3  A    between atoms: O_3  and  C_38
    4  A    between atoms: O_3  and  C_46
    5  A    between atoms: C_4  and  C_19
    6  A    between atoms: C_6  and  C_20
    7  A    between atoms: C_10  and  N_18
    8  A    between atoms: C_11  and  C_38
    9  A    between atoms: N_18  and  C_32
   10  A    between atoms: C_19  and  C_40
   11  A    between atoms: C_19  and  C_45
   12  A    between atoms: C_27  and  C_54
   13  A    between atoms: C_28  and  C_49
   14  A    between atoms: C_32  and  C_39
   15  A    between atoms: N_35  and  C_51
                            x       y       z     vdW  Elec       q    Type
                         _______ _______ _______ _____ _____    ______ ____

>  <TORSDO>
F 15

$$$$
=
 OpenBabel10272401413D

 55 60  0  0  1  0  0  0  0  0999 V2000
  183.0270  178.8330  138.5270 C   0  0  0  0  0  2  0  0  0  0  0  0
  184.5040  178.5400  140.8960 C   0  0  2  0  0  3  0  0  0  0  0  0
  185.1770  178.0730  139.5940 C   0  0  0  0  0  2  0  0  0  0  0  0
  182.6590  179.5930  139.8160 C   0  0  0  0  0  2  0  0  0  0  0  0
  184.5380  178.7090  138.3560 C   0  0  1  0  0  3  0  0  0  0  0  0
  183.8130  179.8100  140.6950 N   0  0  0  0  0  2  0  0  0  0  0  0
  185.9090  177.6440  142.7030 C   0  0  0  0  0  3  0  0  0  0  0  0
  185.5110  178.6890  141.9840 C   0  0  0  0  0  3  0  0  0  0  0  0
  189.5800  179.1630  144.9140 O   0  0  0  0  0  1  0  0  0  0  0  0
  186.4700  178.1460  145.1090 C   0  0  1  0  0  3  0  0  0  0  0  0
  188.9150  177.9300  144.9810 C   0  0  1  0  0  0  0  0  0  0  0  0
  187.7270  178.0310  145.9520 C   0  0  1  0  0  3  0  0  0  0  0  0
  186.8670  177.7740  143.7630 N   0  0  0  0  0  0  0  0  0  0  0  0
  187.8330  179.1230  146.8170 O   0  0  0  0  0  1  0  0  0  0  0  0
  185.4320  177.1770  145.6480 C   0  0  0  0  0  1  0  0  0  0  0  0
  188.3030  177.5810  143.6110 C   0  0  1  0  0  3  0  0  0  0  0  0
  191.2300  176.1820  147.1700 C   0  0  0  0  0  0  0  0  0  0  0  0
  189.9160  176.8580  145.4610 C   0  0  1  0  0  3  0  0  0  0  0  0
  191.9700  178.2140  144.7900 C   0  0  0  0  0  1  0  0  0  0  0  0
  191.3210  176.8390  144.8690 C   0  0  1  0  0  3  0  0  0  0  0  0
  190.9830  174.8600  147.8880 C   0  0  0  0  0  1  0  0  0  0  0  0
  192.0610  176.0250  145.8850 C   0  0  2  0  0  3  0  0  0  0  0  0
  191.9850  177.0930  148.1200 C   0  0  0  0  0  1  0  0  0  0  0  0
  192.1190  174.6960  145.4490 O   0  0  0  0  0  1  0  0  0  0  0  0
  189.9910  176.7810  146.8620 O   0  0  0  0  0  0  0  0  0  0  0  0
  188.7960  178.4100  142.5920 O   0  0  0  0  0  0  0  0  0  0  0  0
  189.0770  177.5580  141.5180 C   0  0  0  0  0  2  0  0  0  0  0  0
  190.5660  177.2710  141.4510 C   0  0  0  0  0  2  0  0  0  0  0  0
  190.8080  175.9430  141.7480 F   0  0  0  0  0  0  0  0  0  0  0  0
  184.8230  177.9480  137.2210 O   0  0  0  0  0  0  0  0  0  0  0  0
  184.7910  176.6190  137.6550 C   0  0  0  0  0  2  0  0  0  0  0  0
  188.8830  174.4820  135.7170 C   0  0  0  0  0  2  0  0  0  0  0  0
  182.4570  176.1140  135.9210 C   0  0  0  0  0  2  0  0  0  0  0  0
  188.6360  172.1980  135.3500 C   0  0  0  0  0  2  0  0  0  0  0  0
  186.5690  173.5700  135.3330 N   0  0  0  0  0  0  0  0  0  0  0  0
  187.1170  172.2160  135.2280 C   0  0  0  0  0  2  0  0  0  0  0  0
  189.0590  173.1770  136.3370 N   0  0  0  0  0  2  0  0  0  0  0  0
  187.3950  174.7830  135.4640 C   0  0  1  0  0  3  0  0  0  0  0  0
  184.6020  174.7390  135.8990 C   0  0  0  0  0  0  0  0  0  0  0  0
  182.3850  173.7710  135.6470 O   0  0  0  0  0  0  0  0  0  0  0  0
  185.1730  173.7100  135.3480 N   0  0  0  0  0  0  0  0  0  0  0  0
  181.1690  174.1600  136.2330 C   0  0  1  0  0  3  0  0  0  0  0  0
  186.7860  175.7390  136.4660 C   0  0  0  0  0  0  0  0  0  0  0  0
  181.0350  175.6690  136.0730 C   0  0  0  0  0  2  0  0  0  0  0  0
  185.4400  175.7380  136.6300 C   0  0  0  0  0  0  0  0  0  0  0  0
  183.1730  174.8630  135.8030 N   0  0  0  0  0  0  0  0  0  0  0  0
  187.7010  176.7650  137.1010 C   0  0  2  0  0  3  0  0  0  0  0  0
  188.1830  177.9110  136.2060 C   0  0  0  0  0  2  0  0  0  0  0  0
  188.5490  179.1720  136.9700 C   0  0  0  0  0  1  0  0  0  0  0  0
  189.8320  176.5820  138.1420 O   0  0  0  0  0  0  0  0  0  0  0  0
  188.6550  176.2490  138.1410 C   0  0  0  0  0  3  0  0  0  0  0  0
  180.0120  173.4450  135.5540 C   0  0  0  0  0  2  0  0  0  0  0  0
  180.5160  172.4130  134.6590 N   0  0  0  0  0  2  0  0  0  0  0  0
  180.1580  171.1240  135.2290 C   0  0  0  0  0  2  0  0  0  0  0  0
  181.2750  170.5510  135.8430 O   0  0  0  0  0  1  0  0  0  0  0  0
  1  4  1  0  0  0  0
  2  8  1  1  0  0  0
  3  2  1  0  0  0  0
  4  6  1  0  0  0  0
  5 30  1  6  0  0  0
  5  1  1  0  0  0  0
  5  3  1  0  0  0  0
  6  2  1  0  0  0  0
  7 13  1  0  0  0  0
  8  7  2  0  0  0  0
 10 15  1  1  0  0  0
 10 12  1  0  0  0  0
 11  9  1  6  0  0  0
 11 18  1  0  0  0  0
 11 12  1  0  0  0  0
 12 14  1  1  0  0  0
 13 10  1  0  0  0  0
 16 26  1  6  0  0  0
 16 13  1  0  0  0  0
 16 11  1  0  0  0  0
 17 21  1  0  0  0  0
 17 23  1  0  0  0  0
 18 25  1  1  0  0  0
 20 19  1  1  0  0  0
 20 18  1  0  0  0  0
 20 22  1  0  0  0  0
 22 24  1  6  0  0  0
 22 17  1  0  0  0  0
 25 17  1  0  0  0  0
 27 26  1  0  0  0  0
 28 27  1  0  0  0  0
 28 29  1  0  0  0  0
 30 31  1  0  0  0  0
 32 37  1  0  0  0  0
 33 44  1  0  0  0  0
 34 37  1  0  0  0  0
 35 41  1  0  0  0  0
 35 38  1  0  0  0  0
 36 35  1  0  0  0  0
 36 34  1  0  0  0  0
 38 32  1  1  0  0  0
 38 43  1  0  0  0  0
 39 45  1  0  0  0  0
 40 46  1  0  0  0  0
 40 42  1  0  0  0  0
 41 39  2  0  0  0  0
 42 52  1  6  0  0  0
 43 45  2  0  0  0  0
 43 47  1  0  0  0  0
 44 42  1  0  0  0  0
 45 31  1  0  0  0  0
 46 39  1  0  0  0  0
 46 33  1  0  0  0  0
 47 48  1  6  0  0  0
 47 51  1  0  0  0  0
 48 49  1  0  0  0  0
 51 50  2  0  0  0  0
 53 54  1  0  0  0  0
 53 52  1  0  0  0  0
 54 55  1  0  0  0  0
M  END
>  <MODEL>
5

>  <REMARK>
 VINA RESULT:      -3.6      4.737      8.249
  Name = 
  15 active torsions:
  status: ('A' for Active; 'I' for Inactive)
    1  A    between atoms: O_2  and  C_28
    2  A    between atoms: O_2  and  C_44
    3  A    between atoms: O_3  and  C_38
    4  A    between atoms: O_3  and  C_46
    5  A    between atoms: C_4  and  C_19
    6  A    between atoms: C_6  and  C_20
    7  A    between atoms: C_10  and  N_18
    8  A    between atoms: C_11  and  C_38
    9  A    between atoms: N_18  and  C_32
   10  A    between atoms: C_19  and  C_40
   11  A    between atoms: C_19  and  C_45
   12  A    between atoms: C_27  and  C_54
   13  A    between atoms: C_28  and  C_49
   14  A    between atoms: C_32  and  C_39
   15  A    between atoms: N_35  and  C_51
                            x       y       z     vdW  Elec       q    Type
                         _______ _______ _______ _____ _____    ______ ____

>  <TORSDO>
F 15

$$$$
=
 OpenBabel10272401413D

 55 60  0  0  1  0  0  0  0  0999 V2000
  188.5170  177.4080  143.1240 C   0  0  0  0  0  2  0  0  0  0  0  0
  190.5160  176.5390  141.3550 C   0  0  2  0  0  3  0  0  0  0  0  0
  189.1610  176.9240  140.7380 C   0  0  0  0  0  2  0  0  0  0  0  0
  190.0020  177.3650  143.5300 C   0  0  0  0  0  2  0  0  0  0  0  0
  188.3420  177.8260  141.6670 C   0  0  1  0  0  3  0  0  0  0  0  0
  190.9090  177.4970  142.3840 N   0  0  0  0  0  2  0  0  0  0  0  0
  191.3070  176.0210  139.0860 C   0  0  0  0  0  3  0  0  0  0  0  0
  191.5720  176.4750  140.3070 C   0  0  0  0  0  3  0  0  0  0  0  0
  193.0840  175.8240  134.9060 O   0  0  0  0  0  1  0  0  0  0  0  0
  193.3910  176.9130  137.9830 C   0  0  1  0  0  3  0  0  0  0  0  0
  193.5510  175.3120  136.1260 C   0  0  1  0  0  0  0  0  0  0  0  0
  194.3150  176.4040  136.8920 C   0  0  1  0  0  3  0  0  0  0  0  0
  192.3170  175.9400  138.0700 N   0  0  0  0  0  0  0  0  0  0  0  0
  194.7170  177.4570  136.0660 O   0  0  0  0  0  1  0  0  0  0  0  0
  194.1660  176.9740  139.2880 C   0  0  0  0  0  1  0  0  0  0  0  0
  192.3650  174.9230  137.0280 C   0  0  1  0  0  3  0  0  0  0  0  0
  194.5960  171.8610  135.6690 C   0  0  0  0  0  0  0  0  0  0  0  0
  194.4760  174.1110  135.8320 C   0  0  1  0  0  3  0  0  0  0  0  0
  194.9980  173.6780  138.2910 C   0  0  0  0  0  1  0  0  0  0  0  0
  195.5260  173.7160  136.8640 C   0  0  1  0  0  3  0  0  0  0  0  0
  194.9250  171.1760  134.3470 C   0  0  0  0  0  1  0  0  0  0  0  0
  195.8460  172.3150  136.4410 C   0  0  2  0  0  3  0  0  0  0  0  0
  193.8350  170.8690  136.5290 C   0  0  0  0  0  1  0  0  0  0  0  0
  196.9900  172.3320  135.6360 O   0  0  0  0  0  1  0  0  0  0  0  0
  193.7630  172.9720  135.4200 O   0  0  0  0  0  0  0  0  0  0  0  0
  191.1540  174.9020  136.3190 O   0  0  0  0  0  0  0  0  0  0  0  0
  190.6000  173.6400  136.5610 C   0  0  0  0  0  2  0  0  0  0  0  0
  190.6910  172.7800  135.3140 C   0  0  0  0  0  2  0  0  0  0  0  0
  189.4380  172.3120  134.9670 F   0  0  0  0  0  0  0  0  0  0  0  0
  186.9910  177.7750  141.3200 O   0  0  0  0  0  0  0  0  0  0  0  0
  186.8770  178.5770  140.1790 C   0  0  0  0  0  2  0  0  0  0  0  0
  184.6240  176.5720  136.1830 C   0  0  0  0  0  2  0  0  0  0  0  0
  184.8870  179.8750  141.9280 C   0  0  0  0  0  2  0  0  0  0  0  0
  182.9430  175.0650  136.7390 C   0  0  0  0  0  2  0  0  0  0  0  0
  183.4650  176.8330  138.4000 N   0  0  0  0  0  0  0  0  0  0  0  0
  182.6510  175.6480  138.1170 C   0  0  0  0  0  2  0  0  0  0  0  0
  184.3640  175.1670  136.4570 N   0  0  0  0  0  2  0  0  0  0  0  0
  184.4010  177.4360  137.4360 C   0  0  1  0  0  3  0  0  0  0  0  0
  184.3420  178.1000  140.1830 C   0  0  0  0  0  0  0  0  0  0  0  0
  183.2670  178.2150  142.3620 O   0  0  0  0  0  0  0  0  0  0  0  0
  183.3710  177.3980  139.6810 N   0  0  0  0  0  0  0  0  0  0  0  0
  183.7980  178.6130  143.6010 C   0  0  1  0  0  3  0  0  0  0  0  0
  185.6820  177.8550  138.1250 C   0  0  0  0  0  0  0  0  0  0  0  0
  184.5500  179.9200  143.3880 C   0  0  0  0  0  2  0  0  0  0  0  0
  185.6300  178.2150  139.4310 C   0  0  0  0  0  0  0  0  0  0  0  0
  184.1460  178.7230  141.4640 N   0  0  0  0  0  0  0  0  0  0  0  0
  186.9200  178.0160  137.2670 C   0  0  2  0  0  3  0  0  0  0  0  0
  187.8340  176.7930  137.1350 C   0  0  0  0  0  2  0  0  0  0  0  0
  188.2860  176.5190  135.7110 C   0  0  0  0  0  1  0  0  0  0  0  0
  188.7800  179.4940  137.1600 O   0  0  0  0  0  0  0  0  0  0  0  0
  187.5700  179.3700  137.2890 C   0  0  0  0  0  3  0  0  0  0  0  0
  182.6780  178.7980  144.6110 C   0  0  0  0  0  2  0  0  0  0  0  0
  181.4280  178.2770  144.0770 N   0  0  0  0  0  2  0  0  0  0  0  0
  180.4670  179.3680  144.0610 C   0  0  0  0  0  2  0  0  0  0  0  0
  180.6940  180.1820  142.9480 O   0  0  0  0  0  1  0  0  0  0  0  0
  1  4  1  0  0  0  0
  2  8  1  6  0  0  0
  2  6  1  0  0  0  0
  3  2  1  0  0  0  0
  3  5  1  0  0  0  0
  5 30  1  6  0  0  0
  5  1  1  0  0  0  0
  6  4  1  0  0  0  0
  7  8  2  0  0  0  0
 10 13  1  0  0  0  0
 10 15  1  1  0  0  0
 11  9  1  6  0  0  0
 11 12  1  0  0  0  0
 11 16  1  0  0  0  0
 12 14  1  6  0  0  0
 12 10  1  0  0  0  0
 13  7  1  0  0  0  0
 16 26  1  6  0  0  0
 16 13  1  0  0  0  0
 17 22  1  0  0  0  0
 17 23  1  0  0  0  0
 18 25  1  1  0  0  0
 18 11  1  0  0  0  0
 18 20  1  0  0  0  0
 20 19  1  1  0  0  0
 21 17  1  0  0  0  0
 22 24  1  6  0  0  0
 22 20  1  0  0  0  0
 25 17  1  0  0  0  0
 26 27  1  0  0  0  0
 28 27  1  0  0  0  0
 29 28  1  0  0  0  0
 31 30  1  0  0  0  0
 32 37  1  0  0  0  0
 33 44  1  0  0  0  0
 34 36  1  0  0  0  0
 35 41  1  0  0  0  0
 36 35  1  0  0  0  0
 37 34  1  0  0  0  0
 38 32  1  6  0  0  0
 38 43  1  0  0  0  0
 38 35  1  0  0  0  0
 39 46  1  0  0  0  0
 40 42  1  0  0  0  0
 41 39  2  0  0  0  0
 42 52  1  1  0  0  0
 43 45  2  0  0  0  0
 44 42  1  0  0  0  0
 45 31  1  0  0  0  0
 45 39  1  0  0  0  0
 46 33  1  0  0  0  0
 46 40  1  0  0  0  0
 47 48  1  1  0  0  0
 47 51  1  0  0  0  0
 47 43  1  0  0  0  0
 49 48  1  0  0  0  0
 50 51  2  0  0  0  0
 53 52  1  0  0  0  0
 54 53  1  0  0  0  0
 55 54  1  0  0  0  0
M  END
>  <MODEL>
6

>  <REMARK>
 VINA RESULT:      -3.1      2.281      3.181
  Name = 
  15 active torsions:
  status: ('A' for Active; 'I' for Inactive)
    1  A    between atoms: O_2  and  C_28
    2  A    between atoms: O_2  and  C_44
    3  A    between atoms: O_3  and  C_38
    4  A    between atoms: O_3  and  C_46
    5  A    between atoms: C_4  and  C_19
    6  A    between atoms: C_6  and  C_20
    7  A    between atoms: C_10  and  N_18
    8  A    between atoms: C_11  and  C_38
    9  A    between atoms: N_18  and  C_32
   10  A    between atoms: C_19  and  C_40
   11  A    between atoms: C_19  and  C_45
   12  A    between atoms: C_27  and  C_54
   13  A    between atoms: C_28  and  C_49
   14  A    between atoms: C_32  and  C_39
   15  A    between atoms: N_35  and  C_51
                            x       y       z     vdW  Elec       q    Type
                         _______ _______ _______ _____ _____    ______ ____

>  <TORSDO>
F 15

$$$$
=
 OpenBabel10272401413D

 55 60  0  0  1  0  0  0  0  0999 V2000
  187.4940  177.6670  144.4310 C   0  0  0  0  0  2  0  0  0  0  0  0
  189.4890  176.5610  142.7960 C   0  0  2  0  0  3  0  0  0  0  0  0
  188.1390  176.8750  142.1290 C   0  0  0  0  0  2  0  0  0  0  0  0
  188.9770  177.6640  144.8440 C   0  0  0  0  0  2  0  0  0  0  0  0
  187.3250  177.8950  142.9320 C   0  0  1  0  0  3  0  0  0  0  0  0
  189.8870  177.6400  143.6940 N   0  0  0  0  0  2  0  0  0  0  0  0
  190.3010  176.5450  140.4760 C   0  0  0  0  0  3  0  0  0  0  0  0
  190.5470  176.3540  141.7680 C   0  0  0  0  0  3  0  0  0  0  0  0
  192.0800  176.0450  136.3220 O   0  0  0  0  0  1  0  0  0  0  0  0
  192.4670  177.2010  139.3640 C   0  0  1  0  0  3  0  0  0  0  0  0
  192.4880  175.5320  137.5620 C   0  0  1  0  0  0  0  0  0  0  0  0
  193.3460  176.5720  138.3000 C   0  0  1  0  0  3  0  0  0  0  0  0
  191.3050  176.3370  139.4730 N   0  0  0  0  0  0  0  0  0  0  0  0
  193.8520  177.5540  137.4440 O   0  0  0  0  0  1  0  0  0  0  0  0
  193.2350  177.2320  140.6750 C   0  0  0  0  0  1  0  0  0  0  0  0
  191.2640  175.2860  138.4640 C   0  0  1  0  0  3  0  0  0  0  0  0
  195.2760  173.3950  136.6260 C   0  0  0  0  0  0  0  0  0  0  0  0
  193.2970  174.2400  137.3150 C   0  0  1  0  0  3  0  0  0  0  0  0
  192.7070  174.1270  134.8350 C   0  0  0  0  0  1  0  0  0  0  0  0
  192.9340  173.3550  136.1280 C   0  0  1  0  0  3  0  0  0  0  0  0
  196.1740  172.6050  137.5710 C   0  0  0  0  0  1  0  0  0  0  0  0
  194.1790  172.5360  135.9760 C   0  0  2  0  0  3  0  0  0  0  0  0
  196.1490  173.9700  135.5260 C   0  0  0  0  0  1  0  0  0  0  0  0
  194.0020  171.3130  136.6350 O   0  0  0  0  0  1  0  0  0  0  0  0
  194.6840  174.4630  137.3340 O   0  0  0  0  0  0  0  0  0  0  0  0
  190.0610  175.3550  137.7450 O   0  0  0  0  0  0  0  0  0  0  0  0
  189.8020  174.0480  137.3190 C   0  0  0  0  0  2  0  0  0  0  0  0
  188.3500  173.9100  136.9010 C   0  0  0  0  0  2  0  0  0  0  0  0
  187.6290  175.0150  137.3150 F   0  0  0  0  0  0  0  0  0  0  0  0
  185.9750  177.8110  142.5890 O   0  0  0  0  0  0  0  0  0  0  0  0
  185.7120  178.9720  141.8550 C   0  0  0  0  0  2  0  0  0  0  0  0
  180.7270  179.2540  141.4730 C   0  0  0  0  0  2  0  0  0  0  0  0
  186.8460  177.6620  139.4670 C   0  0  0  0  0  2  0  0  0  0  0  0
  180.0170  180.3460  139.5460 C   0  0  0  0  0  2  0  0  0  0  0  0
  182.2410  179.2480  139.4620 N   0  0  0  0  0  0  0  0  0  0  0  0
  181.2720  180.0650  138.7280 C   0  0  0  0  0  2  0  0  0  0  0  0
  180.3800  180.5610  140.9370 N   0  0  0  0  0  2  0  0  0  0  0  0
  181.9990  178.6980  140.8080 C   0  0  1  0  0  3  0  0  0  0  0  0
  184.5400  178.7410  139.5690 C   0  0  0  0  0  0  0  0  0  0  0  0
  186.0040  178.8840  137.6320 O   0  0  0  0  0  0  0  0  0  0  0  0
  183.4860  179.0120  138.8600 N   0  0  0  0  0  0  0  0  0  0  0  0
  187.4060  178.9600  137.5760 C   0  0  1  0  0  3  0  0  0  0  0  0
  183.2400  178.8200  141.6660 C   0  0  0  0  0  0  0  0  0  0  0  0
  187.9690  177.8900  138.5020 C   0  0  0  0  0  2  0  0  0  0  0  0
  184.4530  178.7920  141.0610 C   0  0  0  0  0  0  0  0  0  0  0  0
  185.7630  178.4240  138.8850 N   0  0  0  0  0  0  0  0  0  0  0  0
  183.0580  178.7880  143.1690 C   0  0  2  0  0  3  0  0  0  0  0  0
  181.6640  179.1310  143.7050 C   0  0  0  0  0  2  0  0  0  0  0  0
  180.8420  177.9140  144.0930 C   0  0  0  0  0  1  0  0  0  0  0  0
  184.1170  179.5380  145.1620 O   0  0  0  0  0  0  0  0  0  0  0  0
  184.2420  179.2190  143.9880 C   0  0  0  0  0  3  0  0  0  0  0  0
  187.8810  178.7370  136.1490 C   0  0  0  0  0  2  0  0  0  0  0  0
  186.8610  178.0370  135.3830 N   0  0  0  0  0  2  0  0  0  0  0  0
  187.5370  177.2730  134.3460 C   0  0  0  0  0  2  0  0  0  0  0  0
  188.7140  176.7200  134.8570 O   0  0  0  0  0  1  0  0  0  0  0  0
  1  4  1  0  0  0  0
  2  8  1  6  0  0  0
  2  6  1  0  0  0  0
  3  2  1  0  0  0  0
  3  5  1  0  0  0  0
  5 30  1  6  0  0  0
  5  1  1  0  0  0  0
  6  4  1  0  0  0  0
  7  8  2  0  0  0  0
 10 13  1  0  0  0  0
 10 15  1  1  0  0  0
 11  9  1  6  0  0  0
 11 12  1  0  0  0  0
 11 16  1  0  0  0  0
 12 14  1  6  0  0  0
 12 10  1  0  0  0  0
 13  7  1  0  0  0  0
 16 26  1  6  0  0  0
 16 13  1  0  0  0  0
 17 25  1  0  0  0  0
 17 21  1  0  0  0  0
 18 25  1  6  0  0  0
 18 11  1  0  0  0  0
 20 19  1  6  0  0  0
 20 18  1  0  0  0  0
 22 20  1  0  0  0  0
 22 17  1  0  0  0  0
 22 24  1  1  0  0  0
 23 17  1  0  0  0  0
 27 26  1  0  0  0  0
 28 29  1  0  0  0  0
 28 27  1  0  0  0  0
 31 30  1  0  0  0  0
 34 37  1  0  0  0  0
 35 38  1  0  0  0  0
 36 35  1  0  0  0  0
 36 34  1  0  0  0  0
 37 32  1  0  0  0  0
 38 32  1  1  0  0  0
 38 43  1  0  0  0  0
 39 45  1  0  0  0  0
 40 46  1  0  0  0  0
 41 35  1  0  0  0  0
 41 39  2  0  0  0  0
 42 52  1  6  0  0  0
 42 40  1  0  0  0  0
 42 44  1  0  0  0  0
 43 47  1  0  0  0  0
 44 33  1  0  0  0  0
 45 43  2  0  0  0  0
 45 31  1  0  0  0  0
 46 33  1  0  0  0  0
 46 39  1  0  0  0  0
 47 48  1  6  0  0  0
 47 51  1  0  0  0  0
 48 49  1  0  0  0  0
 51 50  2  0  0  0  0
 53 52  1  0  0  0  0
 54 55  1  0  0  0  0
 54 53  1  0  0  0  0
M  END
>  <MODEL>
7

>  <REMARK>
 VINA RESULT:      -3.0      3.116      5.859
  Name = 
  15 active torsions:
  status: ('A' for Active; 'I' for Inactive)
    1  A    between atoms: O_2  and  C_28
    2  A    between atoms: O_2  and  C_44
    3  A    between atoms: O_3  and  C_38
    4  A    between atoms: O_3  and  C_46
    5  A    between atoms: C_4  and  C_19
    6  A    between atoms: C_6  and  C_20
    7  A    between atoms: C_10  and  N_18
    8  A    between atoms: C_11  and  C_38
    9  A    between atoms: N_18  and  C_32
   10  A    between atoms: C_19  and  C_40
   11  A    between atoms: C_19  and  C_45
   12  A    between atoms: C_27  and  C_54
   13  A    between atoms: C_28  and  C_49
   14  A    between atoms: C_32  and  C_39
   15  A    between atoms: N_35  and  C_51
                            x       y       z     vdW  Elec       q    Type
                         _______ _______ _______ _____ _____    ______ ____

>  <TORSDO>
F 15

$$$$
=
 OpenBabel10272401413D

 55 60  0  0  1  0  0  0  0  0999 V2000
  187.9270  179.0320  140.7500 C   0  0  0  0  0  2  0  0  0  0  0  0
  185.5580  178.6490  139.2960 C   0  0  2  0  0  3  0  0  0  0  0  0
  186.8460  178.0650  138.6920 C   0  0  0  0  0  2  0  0  0  0  0  0
  186.5390  179.2080  141.3940 C   0  0  0  0  0  2  0  0  0  0  0  0
  187.9440  177.8840  139.7450 C   0  0  1  0  0  3  0  0  0  0  0  0
  185.5020  178.4070  140.7340 N   0  0  0  0  0  2  0  0  0  0  0  0
  184.3670  177.7080  137.3620 C   0  0  0  0  0  3  0  0  0  0  0  0
  184.3570  178.0560  138.6450 C   0  0  0  0  0  3  0  0  0  0  0  0
  180.0030  176.5940  136.7400 O   0  0  0  0  0  1  0  0  0  0  0  0
  182.8300  177.5320  135.3710 C   0  0  1  0  0  3  0  0  0  0  0  0
  181.1800  175.9680  136.3040 C   0  0  1  0  0  0  0  0  0  0  0  0
  181.6700  176.6260  135.0040 C   0  0  1  0  0  3  0  0  0  0  0  0
  183.2130  177.1490  136.7180 N   0  0  0  0  0  0  0  0  0  0  0  0
  180.6660  177.3570  134.3620 O   0  0  0  0  0  1  0  0  0  0  0  0
  183.9700  177.2820  134.3990 C   0  0  0  0  0  1  0  0  0  0  0  0
  182.3090  176.1840  137.3300 C   0  0  1  0  0  3  0  0  0  0  0  0
  181.2030  172.3760  136.8580 C   0  0  0  0  0  0  0  0  0  0  0  0
  180.8830  174.4710  136.0740 C   0  0  1  0  0  3  0  0  0  0  0  0
  183.0730  174.0390  134.8390 C   0  0  0  0  0  1  0  0  0  0  0  0
  181.5820  173.7450  134.9300 C   0  0  1  0  0  3  0  0  0  0  0  0
  180.0360  171.5210  137.3410 C   0  0  0  0  0  1  0  0  0  0  0  0
  181.4070  172.3130  135.3350 C   0  0  2  0  0  3  0  0  0  0  0  0
  182.4630  171.8650  137.5320 C   0  0  0  0  0  1  0  0  0  0  0  0
  180.2930  171.7850  134.6710 O   0  0  0  0  0  1  0  0  0  0  0  0
  180.9920  173.7140  137.2530 O   0  0  0  0  0  0  0  0  0  0  0  0
  181.8210  176.6850  138.5460 O   0  0  0  0  0  0  0  0  0  0  0  0
  181.9570  175.6390  139.4650 C   0  0  0  0  0  2  0  0  0  0  0  0
  180.6390  175.3890  140.1750 C   0  0  0  0  0  2  0  0  0  0  0  0
  180.4530  174.0330  140.3680 F   0  0  0  0  0  0  0  0  0  0  0  0
  189.1950  177.8120  139.1310 O   0  0  0  0  0  0  0  0  0  0  0  0
  189.1760  176.6160  138.4050 C   0  0  0  0  0  2  0  0  0  0  0  0
  192.6530  175.4370  135.0010 C   0  0  0  0  0  2  0  0  0  0  0  0
  190.2260  176.1830  141.1280 C   0  0  0  0  0  2  0  0  0  0  0  0
  194.6460  176.6020  135.2870 C   0  0  0  0  0  2  0  0  0  0  0  0
  193.2400  176.2670  137.3030 N   0  0  0  0  0  0  0  0  0  0  0  0
  194.4640  176.8730  136.7750 C   0  0  0  0  0  2  0  0  0  0  0  0
  193.3560  176.6540  134.6200 N   0  0  0  0  0  2  0  0  0  0  0  0
  192.3280  175.4290  136.5050 C   0  0  1  0  0  3  0  0  0  0  0  0
  191.6690  176.4710  139.0490 C   0  0  0  0  0  0  0  0  0  0  0  0
  192.2380  177.4120  141.2190 O   0  0  0  0  0  0  0  0  0  0  0  0
  192.9000  176.5370  138.6370 N   0  0  0  0  0  0  0  0  0  0  0  0
  191.3950  177.9190  142.2220 C   0  0  1  0  0  3  0  0  0  0  0  0
  190.8850  175.7590  136.8200 C   0  0  0  0  0  0  0  0  0  0  0  0
  190.2670  176.9170  142.4340 C   0  0  0  0  0  2  0  0  0  0  0  0
  190.5780  176.2140  138.0590 C   0  0  0  0  0  0  0  0  0  0  0  0
  191.4020  176.6750  140.4460 N   0  0  0  0  0  0  0  0  0  0  0  0
  189.8410  175.3940  135.7850 C   0  0  2  0  0  3  0  0  0  0  0  0
  189.6490  173.9020  135.4920 C   0  0  0  0  0  2  0  0  0  0  0  0
  188.4190  173.5970  134.6540 C   0  0  0  0  0  1  0  0  0  0  0  0
  188.7050  177.0870  134.5610 O   0  0  0  0  0  0  0  0  0  0  0  0
  189.6800  176.3530  134.6400 C   0  0  0  0  0  3  0  0  0  0  0  0
  192.1800  178.1210  143.5070 C   0  0  0  0  0  2  0  0  0  0  0  0
  192.0510  176.9520  144.3640 N   0  0  0  0  0  2  0  0  0  0  0  0
  191.5550  177.4040  145.6540 C   0  0  0  0  0  2  0  0  0  0  0  0
  191.8490  176.4530  146.6340 O   0  0  0  0  0  1  0  0  0  0  0  0
  1  4  1  0  0  0  0
  2  8  1  6  0  0  0
  2  6  1  0  0  0  0
  3  2  1  0  0  0  0
  3  5  1  0  0  0  0
  5 30  1  6  0  0  0
  5  1  1  0  0  0  0
  6  4  1  0  0  0  0
  7  8  2  0  0  0  0
 10 15  1  6  0  0  0
 10 13  1  0  0  0  0
 11  9  1  1  0  0  0
 11 16  1  0  0  0  0
 12 14  1  1  0  0  0
 12 10  1  0  0  0  0
 12 11  1  0  0  0  0
 13 16  1  0  0  0  0
 13  7  1  0  0  0  0
 16 26  1  1  0  0  0
 17 25  1  0  0  0  0
 17 21  1  0  0  0  0
 17 23  1  0  0  0  0
 18 11  1  0  0  0  0
 18 25  1  1  0  0  0
 20 19  1  1  0  0  0
 20 22  1  0  0  0  0
 20 18  1  0  0  0  0
 22 24  1  6  0  0  0
 22 17  1  0  0  0  0
 26 27  1  0  0  0  0
 27 28  1  0  0  0  0
 28 29  1  0  0  0  0
 31 30  1  0  0  0  0
 33 44  1  0  0  0  0
 34 36  1  0  0  0  0
 35 41  1  0  0  0  0
 36 35  1  0  0  0  0
 37 32  1  0  0  0  0
 37 34  1  0  0  0  0
 38 32  1  6  0  0  0
 38 43  1  0  0  0  0
 38 35  1  0  0  0  0
 39 46  1  0  0  0  0
 40 42  1  0  0  0  0
 41 39  2  0  0  0  0
 42 44  1  0  0  0  0
 42 52  1  1  0  0  0
 43 45  2  0  0  0  0
 45 31  1  0  0  0  0
 45 39  1  0  0  0  0
 46 33  1  0  0  0  0
 46 40  1  0  0  0  0
 47 51  1  6  0  0  0
 47 43  1  0  0  0  0
 48 47  1  0  0  0  0
 49 48  1  0  0  0  0
 50 51  2  0  0  0  0
 52 53  1  0  0  0  0
 53 54  1  0  0  0  0
 54 55  1  0  0  0  0
M  END
>  <MODEL>
8

>  <REMARK>
 VINA RESULT:      -2.9      3.684     10.394
  Name = 
  15 active torsions:
  status: ('A' for Active; 'I' for Inactive)
    1  A    between atoms: O_2  and  C_28
    2  A    between atoms: O_2  and  C_44
    3  A    between atoms: O_3  and  C_38
    4  A    between atoms: O_3  and  C_46
    5  A    between atoms: C_4  and  C_19
    6  A    between atoms: C_6  and  C_20
    7  A    between atoms: C_10  and  N_18
    8  A    between atoms: C_11  and  C_38
    9  A    between atoms: N_18  and  C_32
   10  A    between atoms: C_19  and  C_40
   11  A    between atoms: C_19  and  C_45
   12  A    between atoms: C_27  and  C_54
   13  A    between atoms: C_28  and  C_49
   14  A    between atoms: C_32  and  C_39
   15  A    between atoms: N_35  and  C_51
                            x       y       z     vdW  Elec       q    Type
                         _______ _______ _______ _____ _____    ______ ____

>  <TORSDO>
F 15

$$$$
=
 OpenBabel10272401413D

 55 60  0  0  1  0  0  0  0  0999 V2000
  188.8840  177.3410  140.2830 C   0  0  0  0  0  2  0  0  0  0  0  0
  191.0660  176.1170  139.0110 C   0  0  2  0  0  3  0  0  0  0  0  0
  189.6860  175.9250  138.3610 C   0  0  0  0  0  2  0  0  0  0  0  0
  190.3370  177.7550  140.5810 C   0  0  0  0  0  2  0  0  0  0  0  0
  188.6850  176.9950  138.8110 C   0  0  1  0  0  3  0  0  0  0  0  0
  191.2430  177.4960  139.4560 N   0  0  0  0  0  2  0  0  0  0  0  0
  193.0150  174.7870  138.3220 C   0  0  0  0  0  3  0  0  0  0  0  0
  192.1510  175.7610  138.0550 C   0  0  0  0  0  3  0  0  0  0  0  0
  195.1580  174.2140  134.3540 O   0  0  0  0  0  1  0  0  0  0  0  0
  195.3890  175.0490  137.5150 C   0  0  1  0  0  3  0  0  0  0  0  0
  195.2990  173.5410  135.5770 C   0  0  1  0  0  0  0  0  0  0  0  0
  196.2490  174.3250  136.4960 C   0  0  1  0  0  3  0  0  0  0  0  0
  194.0740  174.4420  137.4170 N   0  0  0  0  0  0  0  0  0  0  0  0
  197.0440  175.2360  135.7950 O   0  0  0  0  0  1  0  0  0  0  0  0
  195.9800  174.8270  138.8970 C   0  0  0  0  0  1  0  0  0  0  0  0
  193.9490  173.4960  136.3160 C   0  0  1  0  0  3  0  0  0  0  0  0
  195.6640  169.9310  135.7850 C   0  0  0  0  0  0  0  0  0  0  0  0
  195.8570  172.1290  135.2990 C   0  0  1  0  0  3  0  0  0  0  0  0
  197.4150  172.1500  137.3190 C   0  0  0  0  0  1  0  0  0  0  0  0
  197.2220  171.7490  135.8630 C   0  0  1  0  0  3  0  0  0  0  0  0
  195.2720  168.9130  134.7200 C   0  0  0  0  0  1  0  0  0  0  0  0
  197.1670  170.2530  135.7890 C   0  0  2  0  0  3  0  0  0  0  0  0
  195.2950  169.3530  137.1390 C   0  0  0  0  0  1  0  0  0  0  0  0
  197.8030  169.8330  134.6140 O   0  0  0  0  0  1  0  0  0  0  0  0
  194.9260  171.1170  135.5870 O   0  0  0  0  0  0  0  0  0  0  0  0
  192.8820  173.8660  135.4820 O   0  0  0  0  0  0  0  0  0  0  0  0
  192.6670  172.7700  134.6400 C   0  0  0  0  0  2  0  0  0  0  0  0
  191.2840  172.1910  134.8740 C   0  0  0  0  0  2  0  0  0  0  0  0
  190.9480  172.2890  136.2110 F   0  0  0  0  0  0  0  0  0  0  0  0
  187.3780  176.5510  138.6020 O   0  0  0  0  0  0  0  0  0  0  0  0
  186.8950  177.3260  137.5430 C   0  0  0  0  0  2  0  0  0  0  0  0
  185.1320  173.8950  134.3510 C   0  0  0  0  0  2  0  0  0  0  0  0
  184.6820  178.9610  138.6070 C   0  0  0  0  0  2  0  0  0  0  0  0
  183.5020  172.5250  135.2880 C   0  0  0  0  0  2  0  0  0  0  0  0
  183.7660  174.7900  136.2650 N   0  0  0  0  0  0  0  0  0  0  0  0
  183.0540  173.5130  136.3580 C   0  0  0  0  0  2  0  0  0  0  0  0
  184.9340  172.6490  135.0770 N   0  0  0  0  0  2  0  0  0  0  0  0
  184.7470  175.1090  135.2130 C   0  0  1  0  0  3  0  0  0  0  0  0
  184.4030  176.6590  137.5520 C   0  0  0  0  0  0  0  0  0  0  0  0
  183.1330  177.4120  139.4860 O   0  0  0  0  0  0  0  0  0  0  0  0
  183.5250  175.7460  137.2630 N   0  0  0  0  0  0  0  0  0  0  0  0
  183.5270  178.2520  140.5410 C   0  0  1  0  0  3  0  0  0  0  0  0
  185.9330  175.8480  135.7940 C   0  0  0  0  0  0  0  0  0  0  0  0
  184.2140  179.4700  139.9370 C   0  0  0  0  0  2  0  0  0  0  0  0
  185.7430  176.6240  136.8890 C   0  0  0  0  0  0  0  0  0  0  0  0
  184.0570  177.6600  138.5240 N   0  0  0  0  0  0  0  0  0  0  0  0
  187.2300  175.8150  135.0120 C   0  0  2  0  0  3  0  0  0  0  0  0
  188.3440  174.9170  135.5590 C   0  0  0  0  0  2  0  0  0  0  0  0
  187.8570  173.8710  136.5470 C   0  0  0  0  0  1  0  0  0  0  0  0
  188.6930  177.6510  134.6290 O   0  0  0  0  0  0  0  0  0  0  0  0
  187.6370  177.1010  134.3500 C   0  0  0  0  0  3  0  0  0  0  0  0
  182.3120  178.6710  141.3520 C   0  0  0  0  0  2  0  0  0  0  0  0
  181.0940  178.4310  140.5930 N   0  0  0  0  0  2  0  0  0  0  0  0
  180.0130  179.1400  141.2600 C   0  0  0  0  0  2  0  0  0  0  0  0
  180.2880  179.2430  142.6260 O   0  0  0  0  0  1  0  0  0  0  0  0
  1  4  1  0  0  0  0
  2  8  1  6  0  0  0
  2  6  1  0  0  0  0
  3  5  1  0  0  0  0
  3  2  1  0  0  0  0
  5 30  1  1  0  0  0
  5  1  1  0  0  0  0
  6  4  1  0  0  0  0
  8  7  2  0  0  0  0
 10 15  1  1  0  0  0
 11  9  1  6  0  0  0
 11 16  1  0  0  0  0
 11 12  1  0  0  0  0
 12 14  1  6  0  0  0
 12 10  1  0  0  0  0
 13 10  1  0  0  0  0
 13  7  1  0  0  0  0
 16 26  1  6  0  0  0
 16 13  1  0  0  0  0
 17 22  1  0  0  0  0
 17 23  1  0  0  0  0
 18 11  1  0  0  0  0
 18 25  1  1  0  0  0
 18 20  1  0  0  0  0
 20 19  1  1  0  0  0
 21 17  1  0  0  0  0
 22 24  1  6  0  0  0
 22 20  1  0  0  0  0
 25 17  1  0  0  0  0
 27 28  1  0  0  0  0
 27 26  1  0  0  0  0
 28 29  1  0  0  0  0
 31 30  1  0  0  0  0
 32 37  1  0  0  0  0
 33 44  1  0  0  0  0
 34 36  1  0  0  0  0
 35 36  1  0  0  0  0
 35 41  1  0  0  0  0
 37 34  1  0  0  0  0
 38 32  1  1  0  0  0
 38 43  1  0  0  0  0
 38 35  1  0  0  0  0
 39 46  1  0  0  0  0
 40 42  1  0  0  0  0
 41 39  2  0  0  0  0
 42 52  1  6  0  0  0
 43 45  2  0  0  0  0
 44 42  1  0  0  0  0
 45 31  1  0  0  0  0
 45 39  1  0  0  0  0
 46 33  1  0  0  0  0
 46 40  1  0  0  0  0
 47 51  1  1  0  0  0
 47 48  1  0  0  0  0
 47 43  1  0  0  0  0
 48 49  1  0  0  0  0
 51 50  2  0  0  0  0
 53 54  1  0  0  0  0
 53 52  1  0  0  0  0
 54 55  1  0  0  0  0
M  END
>  <MODEL>
9

>  <REMARK>
 VINA RESULT:      -2.9      2.054      2.662
  Name = 
  15 active torsions:
  status: ('A' for Active; 'I' for Inactive)
    1  A    between atoms: O_2  and  C_28
    2  A    between atoms: O_2  and  C_44
    3  A    between atoms: O_3  and  C_38
    4  A    between atoms: O_3  and  C_46
    5  A    between atoms: C_4  and  C_19
    6  A    between atoms: C_6  and  C_20
    7  A    between atoms: C_10  and  N_18
    8  A    between atoms: C_11  and  C_38
    9  A    between atoms: N_18  and  C_32
   10  A    between atoms: C_19  and  C_40
   11  A    between atoms: C_19  and  C_45
   12  A    between atoms: C_27  and  C_54
   13  A    between atoms: C_28  and  C_49
   14  A    between atoms: C_32  and  C_39
   15  A    between atoms: N_35  and  C_51
                            x       y       z     vdW  Elec       q    Type
                         _______ _______ _______ _____ _____    ______ ____

>  <TORSDO>
F 15

$$$$
