=
 OpenBabel10272413263D

 32 37  0  0  1  0  0  0  0  0999 V2000
  190.7390  176.4890  138.8710 C   0  0  0  0  0  3  0  0  0  0  0  0
  188.4900  177.6710  143.2700 C   0  0  0  0  0  0  0  0  0  0  0  0
  191.9790  176.0240  146.4890 C   0  0  0  0  0  2  0  0  0  0  0  0
  191.1990  176.7400  147.5790 C   0  0  0  0  0  2  0  0  0  0  0  0
  186.2500  178.2270  144.0490 C   0  0  0  0  0  0  0  0  0  0  0  0
  185.8480  178.3320  142.6990 C   0  0  0  0  0  0  0  0  0  0  0  0
  188.9640  177.5130  140.8440 C   0  0  0  0  0  0  0  0  0  0  0  0
  190.6790  176.8560  142.4010 N   0  0  0  0  0  0  0  0  0  0  0  0
  183.8790  178.8540  144.6970 C   0  0  0  0  0  0  0  0  0  0  0  0
  191.0640  176.3520  140.1220 N   0  0  0  0  0  0  0  0  0  0  0  0
  191.7050  176.6930  145.1500 C   0  0  0  0  0  2  0  0  0  0  0  0
  189.9670  177.4580  143.5390 C   0  0  2  0  0  3  0  0  0  0  0  0
  190.2120  176.6410  144.8100 C   0  0  2  0  0  3  0  0  0  0  0  0
  188.1310  177.7640  145.7180 C   0  0  0  0  0  0  0  0  0  0  0  0
  183.5470  178.9320  143.2710 C   0  0  0  0  0  3  0  0  0  0  0  0
  190.2820  176.9400  141.1670 C   0  0  0  0  0  0  0  0  0  0  0  0
  184.4650  178.6830  142.3420 C   0  0  0  0  0  3  0  0  0  0  0  0
  188.6030  177.6380  139.5650 C   0  0  0  0  0  3  0  0  0  0  0  0
  189.5670  177.3390  138.4440 C   0  0  2  0  0  3  0  0  0  0  0  0
  189.7080  176.6440  147.2840 C   0  0  0  0  0  2  0  0  0  0  0  0
  189.4130  177.1490  145.9410 N   0  0  0  0  0  0  0  0  0  0  0  0
  187.4730  178.1940  146.7050 O   0  0  0  0  0  0  0  0  0  0  0  0
  188.0340  177.7890  141.9490 C   0  0  0  0  0  0  0  0  0  0  0  0
  186.7390  178.1120  141.7010 N   0  0  0  0  0  0  0  0  0  0  0  0
  183.0020  179.1420  145.5510 O   0  0  0  0  0  0  0  0  0  0  0  0
  187.6010  177.9020  144.3350 C   0  0  0  0  0  0  0  0  0  0  0  0
  185.2370  178.4110  145.1600 C   0  0  0  0  0  2  0  0  0  0  0  0
  188.8530  176.7480  137.2350 C   0  0  0  0  0  2  0  0  0  0  0  0
  188.7950  177.7150  136.1380 N   0  0  0  0  0  2  0  0  0  0  0  0
  187.4690  178.3310  136.0700 C   0  0  1  0  0  3  0  0  0  0  0  0
  186.3780  177.3500  136.4670 C   0  0  0  0  0  1  0  0  0  0  0  0
  187.4090  179.4810  136.8620 O   0  0  0  0  0  1  0  0  0  0  0  0
  1 10  2  0  0  0  0
  2 12  1  0  0  0  0
  2 26  1  0  0  0  0
  3  4  1  0  0  0  0
  5 26  2  0  0  0  0
  5 27  1  0  0  0  0
  6  5  1  0  0  0  0
  7 16  1  0  0  0  0
  7 23  1  0  0  0  0
  9 27  1  0  0  0  0
  9 25  2  0  0  0  0
 10 16  1  0  0  0  0
 11  3  1  0  0  0  0
 12  8  1  6  0  0  0
 12 13  1  0  0  0  0
 13 11  1  1  0  0  0
 13 21  1  0  0  0  0
 14 21  1  0  0  0  0
 14 22  2  0  0  0  0
 15  9  1  0  0  0  0
 16  8  2  0  0  0  0
 17  6  1  0  0  0  0
 17 15  2  0  0  0  0
 18  7  2  0  0  0  0
 19 28  1  6  0  0  0
 19  1  1  0  0  0  0
 19 18  1  0  0  0  0
 20  4  1  0  0  0  0
 21 20  1  0  0  0  0
 23  2  2  0  0  0  0
 24 23  1  0  0  0  0
 24  6  2  0  0  0  0
 26 14  1  0  0  0  0
 29 28  1  0  0  0  0
 30 29  1  0  0  0  0
 30 31  1  1  0  0  0
 30 32  1  0  0  0  0
M  END
>  <MODEL>
1

>  <REMARK>
 VINA RESULT:     -11.1      0.000      0.000
  Name = 
  3 active torsions:
  status: ('A' for Active; 'I' for Inactive)
    1  A    between atoms: C_1  and  N_10
    2  A    between atoms: N_10  and  C_19
    3  A    between atoms: C_19  and  C_24
                            x       y       z     vdW  Elec       q    Type
                         _______ _______ _______ _____ _____    ______ ____

>  <TORSDO>
F 3

$$$$
=
 OpenBabel10272413263D

 32 37  0  0  1  0  0  0  0  0999 V2000
  190.6490  177.1680  139.8930 C   0  0  0  0  0  3  0  0  0  0  0  0
  187.0980  178.2300  143.3670 C   0  0  0  0  0  0  0  0  0  0  0  0
  189.6560  177.1790  147.5610 C   0  0  0  0  0  2  0  0  0  0  0  0
  188.5170  177.8330  148.3260 C   0  0  0  0  0  2  0  0  0  0  0  0
  184.6800  178.5240  143.4320 C   0  0  0  0  0  0  0  0  0  0  0  0
  184.6800  178.5200  142.0190 C   0  0  0  0  0  0  0  0  0  0  0  0
  188.2730  178.0350  141.1960 C   0  0  0  0  0  0  0  0  0  0  0  0
  189.5210  177.6690  143.2220 N   0  0  0  0  0  0  0  0  0  0  0  0
  182.1690  178.8660  143.3290 C   0  0  0  0  0  0  0  0  0  0  0  0
  190.6080  177.1260  141.1920 N   0  0  0  0  0  0  0  0  0  0  0  0
  189.7120  177.7520  146.1530 C   0  0  0  0  0  2  0  0  0  0  0  0
  188.4460  178.2200  144.0600 C   0  0  2  0  0  3  0  0  0  0  0  0
  188.3990  177.4940  145.4080 C   0  0  2  0  0  3  0  0  0  0  0  0
  186.0320  178.3750  145.5970 C   0  0  0  0  0  0  0  0  0  0  0  0
  182.2610  178.8420  141.8650 C   0  0  0  0  0  3  0  0  0  0  0  0
  189.4940  177.6510  141.9230 C   0  0  0  0  0  0  0  0  0  0  0  0
  183.4320  178.6760  141.2580 C   0  0  0  0  0  3  0  0  0  0  0  0
  188.2890  178.0600  139.8600 C   0  0  0  0  0  3  0  0  0  0  0  0
  189.5650  177.8420  139.0860 C   0  0  2  0  0  3  0  0  0  0  0  0
  187.1980  177.5340  147.6270 C   0  0  0  0  0  2  0  0  0  0  0  0
  187.2540  177.9410  146.2210 N   0  0  0  0  0  0  0  0  0  0  0  0
  185.0710  178.7570  146.3200 O   0  0  0  0  0  0  0  0  0  0  0  0
  187.0370  178.2340  141.9660 C   0  0  0  0  0  0  0  0  0  0  0  0
  185.8430  178.3760  141.3350 N   0  0  0  0  0  0  0  0  0  0  0  0
  181.0540  179.0730  143.8730 O   0  0  0  0  0  0  0  0  0  0  0  0
  185.9160  178.3870  144.1140 C   0  0  0  0  0  0  0  0  0  0  0  0
  183.3730  178.6210  144.1910 C   0  0  0  0  0  2  0  0  0  0  0  0
  189.3050  177.1150  137.7740 C   0  0  0  0  0  2  0  0  0  0  0  0
  189.2670  178.0560  136.6540 N   0  0  0  0  0  2  0  0  0  0  0  0
  187.8890  178.2550  136.2010 C   0  0  1  0  0  3  0  0  0  0  0  0
  187.0340  177.0250  136.4610 C   0  0  0  0  0  1  0  0  0  0  0  0
  187.3220  179.3830  136.8000 O   0  0  0  0  0  1  0  0  0  0  0  0
  1 10  2  0  0  0  0
  2 12  1  0  0  0  0
  2 26  1  0  0  0  0
  3  4  1  0  0  0  0
  5 26  2  0  0  0  0
  5 27  1  0  0  0  0
  6  5  1  0  0  0  0
  7 16  1  0  0  0  0
  7 23  1  0  0  0  0
  9 25  2  0  0  0  0
  9 27  1  0  0  0  0
 10 16  1  0  0  0  0
 11  3  1  0  0  0  0
 12  8  1  6  0  0  0
 12 13  1  0  0  0  0
 13 11  1  1  0  0  0
 13 21  1  0  0  0  0
 14 21  1  0  0  0  0
 14 22  2  0  0  0  0
 15  9  1  0  0  0  0
 16  8  2  0  0  0  0
 17 15  2  0  0  0  0
 17  6  1  0  0  0  0
 18  7  2  0  0  0  0
 19 28  1  6  0  0  0
 19 18  1  0  0  0  0
 19  1  1  0  0  0  0
 20  4  1  0  0  0  0
 21 20  1  0  0  0  0
 23  2  2  0  0  0  0
 24 23  1  0  0  0  0
 24  6  2  0  0  0  0
 26 14  1  0  0  0  0
 29 28  1  0  0  0  0
 30 31  1  1  0  0  0
 30 29  1  0  0  0  0
 30 32  1  0  0  0  0
M  END
>  <MODEL>
2

>  <REMARK>
 VINA RESULT:     -10.5      1.352      1.767
  Name = 
  3 active torsions:
  status: ('A' for Active; 'I' for Inactive)
    1  A    between atoms: C_1  and  N_10
    2  A    between atoms: N_10  and  C_19
    3  A    between atoms: C_19  and  C_24
                            x       y       z     vdW  Elec       q    Type
                         _______ _______ _______ _____ _____    ______ ____

>  <TORSDO>
F 3

$$$$
=
 OpenBabel10272413263D

 32 37  0  0  1  0  0  0  0  0999 V2000
  190.7170  176.8530  140.2690 C   0  0  0  0  0  3  0  0  0  0  0  0
  187.0660  178.1780  143.5440 C   0  0  0  0  0  0  0  0  0  0  0  0
  189.4520  177.3230  147.8820 C   0  0  0  0  0  2  0  0  0  0  0  0
  188.3000  178.0400  148.5660 C   0  0  0  0  0  2  0  0  0  0  0  0
  184.6550  178.5210  143.5030 C   0  0  0  0  0  0  0  0  0  0  0  0
  184.7050  178.4360  142.0940 C   0  0  0  0  0  0  0  0  0  0  0  0
  188.3150  177.8380  141.4320 C   0  0  0  0  0  0  0  0  0  0  0  0
  189.4820  177.5650  143.5200 N   0  0  0  0  0  0  0  0  0  0  0  0
  182.1570  178.9030  143.2880 C   0  0  0  0  0  0  0  0  0  0  0  0
  190.6290  176.8870  141.5650 N   0  0  0  0  0  0  0  0  0  0  0  0
  189.5690  177.8130  146.4470 C   0  0  0  0  0  2  0  0  0  0  0  0
  188.3890  178.1830  144.2860 C   0  0  2  0  0  3  0  0  0  0  0  0
  188.2780  177.5380  145.6690 C   0  0  2  0  0  3  0  0  0  0  0  0
  185.9250  178.4720  145.7210 C   0  0  0  0  0  0  0  0  0  0  0  0
  182.3000  178.7940  141.8330 C   0  0  0  0  0  3  0  0  0  0  0  0
  189.5010  177.4730  142.2240 C   0  0  0  0  0  0  0  0  0  0  0  0
  183.4880  178.5710  141.2790 C   0  0  0  0  0  3  0  0  0  0  0  0
  188.3790  177.7850  140.0990 C   0  0  0  0  0  3  0  0  0  0  0  0
  189.6770  177.5000  139.3860 C   0  0  2  0  0  3  0  0  0  0  0  0
  187.0000  177.7260  147.8370 C   0  0  0  0  0  2  0  0  0  0  0  0
  187.1140  178.0510  146.4140 N   0  0  0  0  0  0  0  0  0  0  0  0
  184.9470  178.9120  146.3860 O   0  0  0  0  0  0  0  0  0  0  0  0
  187.0560  178.1030  142.1430 C   0  0  0  0  0  0  0  0  0  0  0  0
  185.8880  178.2320  141.4620 N   0  0  0  0  0  0  0  0  0  0  0  0
  181.0280  179.1620  143.7780 O   0  0  0  0  0  0  0  0  0  0  0  0
  185.8630  178.4010  144.2370 C   0  0  0  0  0  0  0  0  0  0  0  0
  183.3240  178.6860  144.2060 C   0  0  0  0  0  2  0  0  0  0  0  0
  189.4490  176.7040  138.1080 C   0  0  0  0  0  2  0  0  0  0  0  0
  190.2080  175.4530  138.1300 N   0  0  0  0  0  2  0  0  0  0  0  0
  189.7170  174.5410  137.0960 C   0  0  1  0  0  3  0  0  0  0  0  0
  189.3990  175.2790  135.8050 C   0  0  0  0  0  1  0  0  0  0  0  0
  190.6310  173.5100  136.8600 O   0  0  0  0  0  1  0  0  0  0  0  0
  1 10  2  0  0  0  0
  2 26  1  0  0  0  0
  2 12  1  0  0  0  0
  3  4  1  0  0  0  0
  5 27  1  0  0  0  0
  5 26  2  0  0  0  0
  6  5  1  0  0  0  0
  7 23  1  0  0  0  0
  7 16  1  0  0  0  0
  9 25  2  0  0  0  0
  9 27  1  0  0  0  0
 10 16  1  0  0  0  0
 11  3  1  0  0  0  0
 12  8  1  6  0  0  0
 12 13  1  0  0  0  0
 13 21  1  0  0  0  0
 13 11  1  1  0  0  0
 14 22  2  0  0  0  0
 14 21  1  0  0  0  0
 15  9  1  0  0  0  0
 16  8  2  0  0  0  0
 17 15  2  0  0  0  0
 17  6  1  0  0  0  0
 18  7  2  0  0  0  0
 19 28  1  6  0  0  0
 19 18  1  0  0  0  0
 19  1  1  0  0  0  0
 20  4  1  0  0  0  0
 21 20  1  0  0  0  0
 23  2  2  0  0  0  0
 24  6  2  0  0  0  0
 24 23  1  0  0  0  0
 26 14  1  0  0  0  0
 28 29  1  0  0  0  0
 30 31  1  6  0  0  0
 30 29  1  0  0  0  0
 32 30  1  0  0  0  0
M  END
>  <MODEL>
3

>  <REMARK>
 VINA RESULT:     -10.2      2.107      2.525
  Name = 
  3 active torsions:
  status: ('A' for Active; 'I' for Inactive)
    1  A    between atoms: C_1  and  N_10
    2  A    between atoms: N_10  and  C_19
    3  A    between atoms: C_19  and  C_24
                            x       y       z     vdW  Elec       q    Type
                         _______ _______ _______ _____ _____    ______ ____

>  <TORSDO>
F 3

$$$$
=
 OpenBabel10272413263D

 32 37  0  0  1  0  0  0  0  0999 V2000
  186.8580  177.4820  147.2710 C   0  0  0  0  0  3  0  0  0  0  0  0
  186.5070  178.3340  142.2750 C   0  0  0  0  0  0  0  0  0  0  0  0
  181.5250  178.8120  141.8320 C   0  0  0  0  0  2  0  0  0  0  0  0
  181.7780  179.3110  140.4190 C   0  0  0  0  0  2  0  0  0  0  0  0
  187.9040  178.0400  140.3010 C   0  0  0  0  0  0  0  0  0  0  0  0
  188.9880  177.7490  141.1580 C   0  0  0  0  0  0  0  0  0  0  0  0
  187.4560  177.9930  144.5370 C   0  0  0  0  0  0  0  0  0  0  0  0
  185.0870  178.3610  144.3220 N   0  0  0  0  0  0  0  0  0  0  0  0
  189.4970  177.7340  138.3510 C   0  0  0  0  0  0  0  0  0  0  0  0
  185.8700  177.6970  146.4530 N   0  0  0  0  0  0  0  0  0  0  0  0
  182.7530  179.0830  142.6890 C   0  0  0  0  0  2  0  0  0  0  0  0
  185.2150  178.7930  142.9220 C   0  0  2  0  0  3  0  0  0  0  0  0
  183.9830  178.3680  142.1200 C   0  0  2  0  0  3  0  0  0  0  0  0
  185.4360  178.6680  140.0670 C   0  0  0  0  0  0  0  0  0  0  0  0
  190.5620  177.4360  139.3130 C   0  0  0  0  0  3  0  0  0  0  0  0
  186.0950  178.0730  145.0900 C   0  0  0  0  0  0  0  0  0  0  0  0
  190.3220  177.4390  140.6200 C   0  0  0  0  0  3  0  0  0  0  0  0
  188.4810  177.7490  145.3580 C   0  0  0  0  0  3  0  0  0  0  0  0
  188.2940  177.6940  146.8530 C   0  0  2  0  0  3  0  0  0  0  0  0
  182.9630  178.5650  139.8200 C   0  0  0  0  0  2  0  0  0  0  0  0
  184.1370  178.6790  140.6880 N   0  0  0  0  0  0  0  0  0  0  0  0
  185.5370  178.9440  138.8410 O   0  0  0  0  0  0  0  0  0  0  0  0
  187.6200  178.0380  143.0770 C   0  0  0  0  0  0  0  0  0  0  0  0
  188.8170  177.7550  142.5030 N   0  0  0  0  0  0  0  0  0  0  0  0
  189.7670  177.7710  137.1230 O   0  0  0  0  0  0  0  0  0  0  0  0
  186.6440  178.3490  140.8750 C   0  0  0  0  0  0  0  0  0  0  0  0
  188.0830  177.9700  138.7990 C   0  0  0  0  0  2  0  0  0  0  0  0
  189.2240  176.6750  147.4970 C   0  0  0  0  0  2  0  0  0  0  0  0
  190.5610  177.2360  147.6900 N   0  0  0  0  0  2  0  0  0  0  0  0
  191.5830  176.2180  147.4430 C   0  0  1  0  0  3  0  0  0  0  0  0
  191.9280  176.1210  145.9660 C   0  0  0  0  0  1  0  0  0  0  0  0
  192.7310  176.4640  148.2010 O   0  0  0  0  0  1  0  0  0  0  0  0
  2 23  1  0  0  0  0
  3 11  1  0  0  0  0
  4  3  1  0  0  0  0
  5 26  1  0  0  0  0
  5  6  2  0  0  0  0
  6 24  1  0  0  0  0
  7 16  1  0  0  0  0
  7 18  2  0  0  0  0
  8 16  2  0  0  0  0
  9 27  1  0  0  0  0
  9 15  1  0  0  0  0
 10  1  2  0  0  0  0
 12  2  1  6  0  0  0
 12  8  1  0  0  0  0
 13 11  1  1  0  0  0
 13 12  1  0  0  0  0
 14 21  1  0  0  0  0
 14 26  1  0  0  0  0
 15 17  2  0  0  0  0
 16 10  1  0  0  0  0
 17  6  1  0  0  0  0
 18 19  1  0  0  0  0
 19  1  1  0  0  0  0
 19 28  1  6  0  0  0
 20  4  1  0  0  0  0
 20 21  1  0  0  0  0
 21 13  1  0  0  0  0
 22 14  2  0  0  0  0
 23  7  1  0  0  0  0
 24 23  2  0  0  0  0
 25  9  2  0  0  0  0
 26  2  2  0  0  0  0
 27  5  1  0  0  0  0
 28 29  1  0  0  0  0
 30 31  1  6  0  0  0
 30 29  1  0  0  0  0
 30 32  1  0  0  0  0
M  END
>  <MODEL>
4

>  <REMARK>
 VINA RESULT:     -10.0      2.532      8.199
  Name = 
  3 active torsions:
  status: ('A' for Active; 'I' for Inactive)
    1  A    between atoms: C_1  and  N_10
    2  A    between atoms: N_10  and  C_19
    3  A    between atoms: C_19  and  C_24
                            x       y       z     vdW  Elec       q    Type
                         _______ _______ _______ _____ _____    ______ ____

>  <TORSDO>
F 3

$$$$
=
 OpenBabel10272413263D

 32 37  0  0  1  0  0  0  0  0999 V2000
  188.0610  178.1000  138.1270 C   0  0  0  0  0  3  0  0  0  0  0  0
  187.7790  177.5360  143.1680 C   0  0  0  0  0  0  0  0  0  0  0  0
  183.2970  179.6410  144.0190 C   0  0  0  0  0  2  0  0  0  0  0  0
  183.3900  179.0810  145.4290 C   0  0  0  0  0  2  0  0  0  0  0  0
  189.3050  177.0820  145.0120 C   0  0  0  0  0  0  0  0  0  0  0  0
  190.3060  176.7860  144.0610 C   0  0  0  0  0  0  0  0  0  0  0  0
  188.5640  177.3530  140.8260 C   0  0  0  0  0  0  0  0  0  0  0  0
  186.3610  178.2330  141.2410 N   0  0  0  0  0  0  0  0  0  0  0  0
  191.0030  176.5380  146.8160 C   0  0  0  0  0  0  0  0  0  0  0  0
  187.1780  178.4130  139.0280 N   0  0  0  0  0  0  0  0  0  0  0  0
  184.1390  178.7880  143.0820 C   0  0  0  0  0  2  0  0  0  0  0  0
  186.3800  177.7940  142.6440 C   0  0  2  0  0  3  0  0  0  0  0  0
  185.6070  178.7830  143.5210 C   0  0  2  0  0  3  0  0  0  0  0  0
  186.8890  177.7870  145.4650 C   0  0  0  0  0  0  0  0  0  0  0  0
  191.9820  176.2580  145.7620 C   0  0  0  0  0  3  0  0  0  0  0  0
  187.3040  177.9740  140.3840 C   0  0  0  0  0  0  0  0  0  0  0  0
  191.6560  176.3790  144.4780 C   0  0  0  0  0  3  0  0  0  0  0  0
  189.4940  177.0470  139.9170 C   0  0  0  0  0  3  0  0  0  0  0  0
  189.2260  177.1910  138.4400 C   0  0  2  0  0  3  0  0  0  0  0  0
  184.8380  179.1250  145.9000 C   0  0  0  0  0  2  0  0  0  0  0  0
  185.7120  178.4350  144.9490 N   0  0  0  0  0  0  0  0  0  0  0  0
  186.9470  177.4970  146.6910 O   0  0  0  0  0  0  0  0  0  0  0  0
  188.8120  177.2300  142.2690 C   0  0  0  0  0  0  0  0  0  0  0  0
  190.0350  176.8680  142.7340 N   0  0  0  0  0  0  0  0  0  0  0  0
  191.3270  176.3680  148.0190 O   0  0  0  0  0  0  0  0  0  0  0  0
  188.0150  177.4520  144.5520 C   0  0  0  0  0  0  0  0  0  0  0  0
  189.6290  177.0500  146.4910 C   0  0  0  0  0  2  0  0  0  0  0  0
  190.4800  177.6010  137.6810 C   0  0  0  0  0  2  0  0  0  0  0  0
  190.9010  176.5470  136.7580 N   0  0  0  0  0  2  0  0  0  0  0  0
  191.9380  175.7160  137.3720 C   0  0  1  0  0  3  0  0  0  0  0  0
  192.8610  176.5380  138.2560 C   0  0  0  0  0  1  0  0  0  0  0  0
  191.3740  174.6620  138.0960 O   0  0  0  0  0  1  0  0  0  0  0  0
  1 19  1  0  0  0  0
  1 10  2  0  0  0  0
  2 26  1  0  0  0  0
  3  4  1  0  0  0  0
  4 20  1  0  0  0  0
  5 27  1  0  0  0  0
  6 17  1  0  0  0  0
  6  5  1  0  0  0  0
  7 23  1  0  0  0  0
  9 25  2  0  0  0  0
 10 16  1  0  0  0  0
 11  3  1  0  0  0  0
 12  8  1  6  0  0  0
 12  2  1  0  0  0  0
 12 13  1  0  0  0  0
 13 11  1  6  0  0  0
 13 21  1  0  0  0  0
 14 22  2  0  0  0  0
 15  9  1  0  0  0  0
 16  7  1  0  0  0  0
 16  8  2  0  0  0  0
 17 15  2  0  0  0  0
 18  7  2  0  0  0  0
 19 28  1  6  0  0  0
 19 18  1  0  0  0  0
 21 14  1  0  0  0  0
 21 20  1  0  0  0  0
 23 24  1  0  0  0  0
 23  2  2  0  0  0  0
 24  6  2  0  0  0  0
 26  5  2  0  0  0  0
 26 14  1  0  0  0  0
 27  9  1  0  0  0  0
 29 30  1  0  0  0  0
 29 28  1  0  0  0  0
 30 32  1  0  0  0  0
 30 31  1  1  0  0  0
M  END
>  <MODEL>
5

>  <REMARK>
 VINA RESULT:      -9.7      1.920      5.234
  Name = 
  3 active torsions:
  status: ('A' for Active; 'I' for Inactive)
    1  A    between atoms: C_1  and  N_10
    2  A    between atoms: N_10  and  C_19
    3  A    between atoms: C_19  and  C_24
                            x       y       z     vdW  Elec       q    Type
                         _______ _______ _______ _____ _____    ______ ____

>  <TORSDO>
F 3

$$$$
=
 OpenBabel10272413263D

 32 37  0  0  1  0  0  0  0  0999 V2000
  183.4950  178.7660  138.8550 C   0  0  0  0  0  3  0  0  0  0  0  0
  187.2900  178.2770  142.1970 C   0  0  0  0  0  0  0  0  0  0  0  0
  191.0400  177.0900  139.0710 C   0  0  0  0  0  2  0  0  0  0  0  0
  191.9800  177.2970  140.2470 C   0  0  0  0  0  2  0  0  0  0  0  0
  187.5360  177.9710  144.6010 C   0  0  0  0  0  0  0  0  0  0  0  0
  186.1560  178.2350  144.7380 C   0  0  0  0  0  0  0  0  0  0  0  0
  185.0680  178.7820  141.2250 C   0  0  0  0  0  0  0  0  0  0  0  0
  186.9080  178.3460  139.7350 N   0  0  0  0  0  0  0  0  0  0  0  0
  187.6340  177.7190  147.1230 C   0  0  0  0  0  0  0  0  0  0  0  0
  184.7570  178.4710  138.7580 N   0  0  0  0  0  0  0  0  0  0  0  0
  189.7800  177.9160  139.2820 C   0  0  0  0  0  2  0  0  0  0  0  0
  187.8960  178.4570  140.8190 C   0  0  2  0  0  3  0  0  0  0  0  0
  189.0650  177.4990  140.5720 C   0  0  2  0  0  3  0  0  0  0  0  0
  189.5530  177.7400  143.0450 C   0  0  0  0  0  0  0  0  0  0  0  0
  186.1950  177.9960  147.1710 C   0  0  0  0  0  3  0  0  0  0  0  0
  185.6360  178.5680  139.8840 C   0  0  0  0  0  0  0  0  0  0  0  0
  185.5070  178.2300  146.0580 C   0  0  0  0  0  3  0  0  0  0  0  0
  183.7680  179.0620  141.3450 C   0  0  0  0  0  3  0  0  0  0  0  0
  182.9010  179.3040  140.1350 C   0  0  2  0  0  3  0  0  0  0  0  0
  191.3030  176.8310  141.5290 C   0  0  0  0  0  2  0  0  0  0  0  0
  190.0110  177.4980  141.7020 N   0  0  0  0  0  0  0  0  0  0  0  0
  190.3870  177.7390  143.9920 O   0  0  0  0  0  0  0  0  0  0  0  0
  185.9240  178.5320  142.3930 C   0  0  0  0  0  0  0  0  0  0  0  0
  185.3990  178.5030  143.6450 N   0  0  0  0  0  0  0  0  0  0  0  0
  188.2650  177.5490  148.1970 O   0  0  0  0  0  0  0  0  0  0  0  0
  188.1120  178.0050  143.3050 C   0  0  0  0  0  0  0  0  0  0  0  0
  188.3650  177.6090  145.8160 C   0  0  0  0  0  2  0  0  0  0  0  0
  181.4820  178.7980  140.3530 C   0  0  0  0  0  2  0  0  0  0  0  0
  181.3140  178.2830  141.7120 N   0  0  0  0  0  2  0  0  0  0  0  0
  180.1910  178.9490  142.3750 C   0  0  1  0  0  3  0  0  0  0  0  0
  179.9900  178.4280  143.7890 C   0  0  0  0  0  1  0  0  0  0  0  0
  180.3630  180.3360  142.3820 O   0  0  0  0  0  1  0  0  0  0  0  0
  1 19  1  0  0  0  0
  2 23  2  0  0  0  0
  2 26  1  0  0  0  0
  3 11  1  0  0  0  0
  3  4  1  0  0  0  0
  4 20  1  0  0  0  0
  5  6  1  0  0  0  0
  5 27  1  0  0  0  0
  6 17  1  0  0  0  0
  7 18  2  0  0  0  0
  7 23  1  0  0  0  0
  8 16  2  0  0  0  0
  9 15  1  0  0  0  0
  9 25  2  0  0  0  0
 10  1  2  0  0  0  0
 10 16  1  0  0  0  0
 12  8  1  6  0  0  0
 12  2  1  0  0  0  0
 13 11  1  6  0  0  0
 13 12  1  0  0  0  0
 13 21  1  0  0  0  0
 14 26  1  0  0  0  0
 14 22  2  0  0  0  0
 16  7  1  0  0  0  0
 17 15  2  0  0  0  0
 19 28  1  1  0  0  0
 19 18  1  0  0  0  0
 20 21  1  0  0  0  0
 21 14  1  0  0  0  0
 23 24  1  0  0  0  0
 24  6  2  0  0  0  0
 26  5  2  0  0  0  0
 27  9  1  0  0  0  0
 28 29  1  0  0  0  0
 29 30  1  0  0  0  0
 30 32  1  0  0  0  0
 30 31  1  1  0  0  0
M  END
>  <MODEL>
6

>  <REMARK>
 VINA RESULT:      -9.6      2.689      5.776
  Name = 
  3 active torsions:
  status: ('A' for Active; 'I' for Inactive)
    1  A    between atoms: C_1  and  N_10
    2  A    between atoms: N_10  and  C_19
    3  A    between atoms: C_19  and  C_24
                            x       y       z     vdW  Elec       q    Type
                         _______ _______ _______ _____ _____    ______ ____

>  <TORSDO>
F 3

$$$$
=
 OpenBabel10272413263D

 32 37  0  0  1  0  0  0  0  0999 V2000
  188.0270  177.3690  146.9780 C   0  0  0  0  0  3  0  0  0  0  0  0
  186.0000  178.4940  142.4580 C   0  0  0  0  0  0  0  0  0  0  0  0
  181.1390  178.6680  143.7160 C   0  0  0  0  0  2  0  0  0  0  0  0
  180.8860  179.2660  142.3420 C   0  0  0  0  0  2  0  0  0  0  0  0
  186.6720  178.4110  140.1180 C   0  0  0  0  0  0  0  0  0  0  0  0
  187.9910  178.1410  140.5460 C   0  0  0  0  0  0  0  0  0  0  0  0
  187.6610  178.0810  144.2480 C   0  0  0  0  0  0  0  0  0  0  0  0
  185.3410  178.3040  144.8540 N   0  0  0  0  0  0  0  0  0  0  0  0
  187.5370  178.3280  137.7350 C   0  0  0  0  0  0  0  0  0  0  0  0
  186.8160  177.5660  146.5500 N   0  0  0  0  0  0  0  0  0  0  0  0
  182.5690  178.9670  144.1400 C   0  0  0  0  0  2  0  0  0  0  0  0
  184.9780  178.8270  143.5280 C   0  0  2  0  0  3  0  0  0  0  0  0
  183.5690  178.3700  143.1450 C   0  0  2  0  0  3  0  0  0  0  0  0
  184.2430  178.8870  140.7580 C   0  0  0  0  0  0  0  0  0  0  0  0
  188.8740  178.0440  138.2670 C   0  0  0  0  0  3  0  0  0  0  0  0
  186.5580  178.0370  145.2230 C   0  0  0  0  0  0  0  0  0  0  0  0
  189.0810  177.9520  139.5770 C   0  0  0  0  0  3  0  0  0  0  0  0
  188.9100  177.8560  144.6650 C   0  0  0  0  0  3  0  0  0  0  0  0
  189.2320  177.7000  146.1300 C   0  0  2  0  0  3  0  0  0  0  0  0
  181.8350  178.6370  141.3300 C   0  0  0  0  0  2  0  0  0  0  0  0
  183.2250  178.7760  141.7700 N   0  0  0  0  0  0  0  0  0  0  0  0
  183.9180  179.2420  139.5920 O   0  0  0  0  0  0  0  0  0  0  0  0
  187.3270  178.2240  142.8240 C   0  0  0  0  0  0  0  0  0  0  0  0
  188.2770  178.0560  141.8690 N   0  0  0  0  0  0  0  0  0  0  0  0
  187.3830  178.4560  136.4940 O   0  0  0  0  0  0  0  0  0  0  0  0
  185.6630  178.6010  141.0970 C   0  0  0  0  0  0  0  0  0  0  0  0
  186.3450  178.4430  138.6400 C   0  0  0  0  0  2  0  0  0  0  0  0
  190.3660  176.7070  146.3500 C   0  0  0  0  0  2  0  0  0  0  0  0
  191.4860  176.9850  145.4510 N   0  0  0  0  0  2  0  0  0  0  0  0
  191.4010  176.1450  144.2550 C   0  0  1  0  0  3  0  0  0  0  0  0
  191.7650  176.9220  143.0000 C   0  0  0  0  0  1  0  0  0  0  0  0
  192.2060  175.0100  144.3820 O   0  0  0  0  0  1  0  0  0  0  0  0
  2 23  1  0  0  0  0
  3 11  1  0  0  0  0
  4  3  1  0  0  0  0
  5  6  2  0  0  0  0
  5 26  1  0  0  0  0
  6 24  1  0  0  0  0
  7 18  2  0  0  0  0
  7 16  1  0  0  0  0
  8 16  2  0  0  0  0
  9 15  1  0  0  0  0
  9 27  1  0  0  0  0
 10  1  2  0  0  0  0
 12  2  1  6  0  0  0
 12  8  1  0  0  0  0
 13 12  1  0  0  0  0
 13 11  1  1  0  0  0
 14 26  1  0  0  0  0
 14 21  1  0  0  0  0
 15 17  2  0  0  0  0
 16 10  1  0  0  0  0
 17  6  1  0  0  0  0
 18 19  1  0  0  0  0
 19 28  1  6  0  0  0
 19  1  1  0  0  0  0
 20 21  1  0  0  0  0
 20  4  1  0  0  0  0
 21 13  1  0  0  0  0
 22 14  2  0  0  0  0
 23  7  1  0  0  0  0
 24 23  2  0  0  0  0
 25  9  2  0  0  0  0
 26  2  2  0  0  0  0
 27  5  1  0  0  0  0
 29 28  1  0  0  0  0
 30 31  1  6  0  0  0
 30 32  1  0  0  0  0
 30 29  1  0  0  0  0
M  END
>  <MODEL>
7

>  <REMARK>
 VINA RESULT:      -9.5      2.397      7.472
  Name = 
  3 active torsions:
  status: ('A' for Active; 'I' for Inactive)
    1  A    between atoms: C_1  and  N_10
    2  A    between atoms: N_10  and  C_19
    3  A    between atoms: C_19  and  C_24
                            x       y       z     vdW  Elec       q    Type
                         _______ _______ _______ _____ _____    ______ ____

>  <TORSDO>
F 3

$$$$
=
 OpenBabel10272413263D

 32 37  0  0  1  0  0  0  0  0999 V2000
  189.2200  177.9020  138.9850 C   0  0  0  0  0  3  0  0  0  0  0  0
  186.8490  177.9020  143.4780 C   0  0  0  0  0  0  0  0  0  0  0  0
  182.2770  179.4050  142.0380 C   0  0  0  0  0  2  0  0  0  0  0  0
  181.8020  179.0360  143.4330 C   0  0  0  0  0  2  0  0  0  0  0  0
  187.4680  177.9010  145.8340 C   0  0  0  0  0  0  0  0  0  0  0  0
  188.8010  177.6460  145.4450 C   0  0  0  0  0  0  0  0  0  0  0  0
  188.5760  177.5620  141.7350 C   0  0  0  0  0  0  0  0  0  0  0  0
  186.3430  178.1490  141.0500 N   0  0  0  0  0  0  0  0  0  0  0  0
  188.2660  177.8330  148.2410 C   0  0  0  0  0  0  0  0  0  0  0  0
  188.0120  178.1850  139.3740 N   0  0  0  0  0  0  0  0  0  0  0  0
  183.5080  178.5820  141.6900 C   0  0  0  0  0  2  0  0  0  0  0  0
  185.7940  177.8860  142.3890 C   0  0  2  0  0  3  0  0  0  0  0  0
  184.6400  178.8460  142.6880 C   0  0  2  0  0  3  0  0  0  0  0  0
  185.0420  178.2890  145.1260 C   0  0  0  0  0  0  0  0  0  0  0  0
  189.6230  177.5780  147.7470 C   0  0  0  0  0  3  0  0  0  0  0  0
  187.5800  177.9320  140.7150 C   0  0  0  0  0  0  0  0  0  0  0  0
  189.8710  177.4960  146.4440 C   0  0  0  0  0  3  0  0  0  0  0  0
  189.8280  177.2920  141.3560 C   0  0  0  0  0  3  0  0  0  0  0  0
  190.2090  177.2180  139.8990 C   0  0  2  0  0  3  0  0  0  0  0  0
  182.8980  179.3500  144.4430 C   0  0  0  0  0  2  0  0  0  0  0  0
  184.1500  178.6890  144.0690 N   0  0  0  0  0  0  0  0  0  0  0  0
  184.5920  178.1570  146.2970 O   0  0  0  0  0  0  0  0  0  0  0  0
  188.1900  177.6490  143.1500 C   0  0  0  0  0  0  0  0  0  0  0  0
  189.1210  177.5300  144.1320 N   0  0  0  0  0  0  0  0  0  0  0  0
  188.0550  177.8560  149.4800 O   0  0  0  0  0  0  0  0  0  0  0  0
  186.4750  178.0190  144.8280 C   0  0  0  0  0  0  0  0  0  0  0  0
  187.1270  178.0930  147.2970 C   0  0  0  0  0  2  0  0  0  0  0  0
  191.6280  177.7180  139.6660 C   0  0  0  0  0  2  0  0  0  0  0  0
  192.5160  176.6150  139.2940 N   0  0  0  0  0  2  0  0  0  0  0  0
  192.1620  176.1000  137.9700 C   0  0  1  0  0  3  0  0  0  0  0  0
  193.3090  176.2610  136.9850 C   0  0  0  0  0  1  0  0  0  0  0  0
  191.7600  174.7640  138.0420 O   0  0  0  0  0  1  0  0  0  0  0  0
  1 10  2  0  0  0  0
  1 19  1  0  0  0  0
  2 26  1  0  0  0  0
  3  4  1  0  0  0  0
  4 20  1  0  0  0  0
  5 27  1  0  0  0  0
  6  5  1  0  0  0  0
  6 17  1  0  0  0  0
  7 23  1  0  0  0  0
  9 25  2  0  0  0  0
 10 16  1  0  0  0  0
 11  3  1  0  0  0  0
 12  8  1  6  0  0  0
 12 13  1  0  0  0  0
 12  2  1  0  0  0  0
 13 11  1  6  0  0  0
 13 21  1  0  0  0  0
 14 22  2  0  0  0  0
 15  9  1  0  0  0  0
 16  8  2  0  0  0  0
 16  7  1  0  0  0  0
 17 15  2  0  0  0  0
 18  7  2  0  0  0  0
 19 28  1  1  0  0  0
 19 18  1  0  0  0  0
 21 20  1  0  0  0  0
 21 14  1  0  0  0  0
 23  2  2  0  0  0  0
 23 24  1  0  0  0  0
 24  6  2  0  0  0  0
 26 14  1  0  0  0  0
 26  5  2  0  0  0  0
 27  9  1  0  0  0  0
 29 28  1  0  0  0  0
 30 31  1  6  0  0  0
 30 32  1  0  0  0  0
 30 29  1  0  0  0  0
M  END
>  <MODEL>
8

>  <REMARK>
 VINA RESULT:      -9.2      2.123      5.421
  Name = 
  3 active torsions:
  status: ('A' for Active; 'I' for Inactive)
    1  A    between atoms: C_1  and  N_10
    2  A    between atoms: N_10  and  C_19
    3  A    between atoms: C_19  and  C_24
                            x       y       z     vdW  Elec       q    Type
                         _______ _______ _______ _____ _____    ______ ____

>  <TORSDO>
F 3

$$$$
=
 OpenBabel10272413263D

 32 37  0  0  1  0  0  0  0  0999 V2000
  190.2920  177.4820  138.7570 C   0  0  0  0  0  3  0  0  0  0  0  0
  187.5900  177.6690  143.0550 C   0  0  0  0  0  0  0  0  0  0  0  0
  183.1940  179.2840  141.2370 C   0  0  0  0  0  2  0  0  0  0  0  0
  182.6020  178.9650  142.6000 C   0  0  0  0  0  2  0  0  0  0  0  0
  188.0280  177.7050  145.4510 C   0  0  0  0  0  0  0  0  0  0  0  0
  189.3780  177.3980  145.1700 C   0  0  0  0  0  0  0  0  0  0  0  0
  189.4310  177.2310  141.4570 C   0  0  0  0  0  0  0  0  0  0  0  0
  187.2780  177.8730  140.5910 N   0  0  0  0  0  0  0  0  0  0  0  0
  188.6390  177.6700  147.9130 C   0  0  0  0  0  0  0  0  0  0  0  0
  189.0690  177.8130  139.0470 N   0  0  0  0  0  0  0  0  0  0  0  0
  184.4190  178.4130  141.0020 C   0  0  0  0  0  2  0  0  0  0  0  0
  186.6200  177.6610  141.8890 C   0  0  2  0  0  3  0  0  0  0  0  0
  185.4800  178.6650  142.0780 C   0  0  2  0  0  3  0  0  0  0  0  0
  185.6780  178.1540  144.5510 C   0  0  0  0  0  0  0  0  0  0  0  0
  190.0200  177.3590  147.5300 C   0  0  0  0  0  3  0  0  0  0  0  0
  188.5280  177.6080  140.3560 C   0  0  0  0  0  0  0  0  0  0  0  0
  190.3630  177.2380  146.2510 C   0  0  0  0  0  3  0  0  0  0  0  0
  190.6980  176.9110  141.1810 C   0  0  0  0  0  3  0  0  0  0  0  0
  191.1850  176.7890  139.7590 C   0  0  2  0  0  3  0  0  0  0  0  0
  183.6290  179.2680  143.6840 C   0  0  0  0  0  2  0  0  0  0  0  0
  184.8820  178.5570  143.4210 N   0  0  0  0  0  0  0  0  0  0  0  0
  185.1360  178.0660  145.6870 O   0  0  0  0  0  0  0  0  0  0  0  0
  188.9420  177.3640  142.8370 C   0  0  0  0  0  0  0  0  0  0  0  0
  189.7910  177.2390  143.8880 N   0  0  0  0  0  0  0  0  0  0  0  0
  188.3360  177.7310  149.1320 O   0  0  0  0  0  0  0  0  0  0  0  0
  187.1180  177.8310  144.3700 C   0  0  0  0  0  0  0  0  0  0  0  0
  187.5850  177.9440  146.8790 C   0  0  0  0  0  2  0  0  0  0  0  0
  192.6350  177.2370  139.6250 C   0  0  0  0  0  2  0  0  0  0  0  0
  193.1810  176.8540  138.3220 N   0  0  0  0  0  2  0  0  0  0  0  0
  193.7000  175.4860  138.3690 C   0  0  1  0  0  3  0  0  0  0  0  0
  192.8200  174.5290  137.5810 C   0  0  0  0  0  1  0  0  0  0  0  0
  195.0180  175.4330  137.9090 O   0  0  0  0  0  1  0  0  0  0  0  0
  1 10  2  0  0  0  0
  1 19  1  0  0  0  0
  2 26  1  0  0  0  0
  3  4  1  0  0  0  0
  4 20  1  0  0  0  0
  5 27  1  0  0  0  0
  6  5  1  0  0  0  0
  6 17  1  0  0  0  0
  7 23  1  0  0  0  0
  9 25  2  0  0  0  0
 10 16  1  0  0  0  0
 11  3  1  0  0  0  0
 12  8  1  6  0  0  0
 12 13  1  0  0  0  0
 12  2  1  0  0  0  0
 13 11  1  6  0  0  0
 13 21  1  0  0  0  0
 14 22  2  0  0  0  0
 15  9  1  0  0  0  0
 16  8  2  0  0  0  0
 16  7  1  0  0  0  0
 17 15  2  0  0  0  0
 18  7  2  0  0  0  0
 19 28  1  1  0  0  0
 19 18  1  0  0  0  0
 21 20  1  0  0  0  0
 21 14  1  0  0  0  0
 23  2  2  0  0  0  0
 23 24  1  0  0  0  0
 24  6  2  0  0  0  0
 26 14  1  0  0  0  0
 26  5  2  0  0  0  0
 27  9  1  0  0  0  0
 29 30  1  0  0  0  0
 29 28  1  0  0  0  0
 30 31  1  6  0  0  0
 32 30  1  0  0  0  0
M  END
>  <MODEL>
9

>  <REMARK>
 VINA RESULT:      -8.9      2.344      5.443
  Name = 
  3 active torsions:
  status: ('A' for Active; 'I' for Inactive)
    1  A    between atoms: C_1  and  N_10
    2  A    between atoms: N_10  and  C_19
    3  A    between atoms: C_19  and  C_24
                            x       y       z     vdW  Elec       q    Type
                         _______ _______ _______ _____ _____    ______ ____

>  <TORSDO>
F 3

$$$$
