=
 OpenBabel10272415063D

 37 41  0  0  1  0  0  0  0  0999 V2000
  188.9510  178.5060  143.3960 C   0  0  1  0  0  3  0  0  0  0  0  0
  186.0620  177.6550  145.1720 C   0  0  2  0  0  3  0  0  0  0  0  0
  186.6570  177.5470  146.5170 C   0  0  0  0  0  2  0  0  0  0  0  0
  188.7350  177.4210  145.5930 C   0  0  0  0  0  2  0  0  0  0  0  0
  187.4600  178.2540  145.4120 C   0  0  2  0  0  0  0  0  0  0  0  0
  188.1450  177.5200  144.2470 C   0  0  1  0  0  3  0  0  0  0  0  0
  184.9850  178.7500  145.0730 C   0  0  2  0  0  3  0  0  0  0  0  0
  184.3540  179.0120  146.2960 O   0  0  0  0  0  1  0  0  0  0  0  0
  183.3100  179.4740  143.5590 O   0  0  0  0  0  0  0  0  0  0  0  0
  183.9430  178.3510  144.0460 C   0  0  0  0  0  3  0  0  0  0  0  0
  182.6950  178.7270  144.4870 O   0  0  0  0  0  0  0  0  0  0  0  0
  191.2870  179.4480  143.9110 C   0  0  0  0  0  1  0  0  0  0  0  0
  190.4540  178.2210  143.5300 C   0  0  1  0  0  3  0  0  0  0  0  0
  190.7310  177.0120  144.3280 N   0  0  0  0  0  0  0  0  0  0  0  0
  190.5380  175.7670  142.3540 O   0  0  0  0  0  0  0  0  0  0  0  0
  191.3490  175.9890  143.4840 C   0  0  2  0  0  3  0  0  0  0  0  0
  190.4660  174.8050  143.3770 C   0  0  0  0  0  2  0  0  0  0  0  0
  191.5010  177.2670  145.5610 C   0  0  0  0  0  2  0  0  0  0  0  0
  192.3780  176.0860  147.4100 O   0  0  0  0  0  0  0  0  0  0  0  0
  191.9700  176.0230  146.2610 C   0  0  0  0  0  3  0  0  0  0  0  0
  188.5070  178.5660  141.9200 C   0  0  1  0  0  3  0  0  0  0  0  0
  189.3980  177.9260  141.0480 O   0  0  0  0  0  0  0  0  0  0  0  0
  189.0020  179.1120  139.1370 O   0  0  0  0  0  1  0  0  0  0  0  0
  188.7510  177.9140  139.8090 C   0  0  1  0  0  3  0  0  0  0  0  0
  190.5900  176.9940  138.3040 C   0  0  1  0  0  3  0  0  0  0  0  0
  189.5280  176.4520  136.0590 C   0  0  0  0  0  2  0  0  0  0  0  0
  188.2060  176.2750  138.0700 O   0  0  0  0  0  0  0  0  0  0  0  0
  190.7490  176.2510  136.9680 C   0  0  2  0  0  3  0  0  0  0  0  0
  189.2170  176.7320  138.9590 C   0  0  2  0  0  3  0  0  0  0  0  0
  188.3120  176.9540  136.8410 C   0  0  0  0  0  2  0  0  0  0  0  0
  191.6270  176.6890  139.1880 O   0  0  0  0  0  1  0  0  0  0  0  0
  192.3160  174.3110  136.8570 O   0  0  0  0  0  0  0  0  0  0  0  0
  190.1500  173.9920  137.5310 O   0  0  0  0  0  1  0  0  0  0  0  0
  191.0430  174.7900  137.1380 C   0  0  0  0  0  0  0  0  0  0  0  0
  187.0810  178.0510  141.7330 C   0  0  0  0  0  2  0  0  0  0  0  0
  186.0790  179.1760  141.5480 C   0  0  0  0  0  2  0  0  0  0  0  0
  185.1450  178.8360  140.4080 C   0  0  0  0  0  1  0  0  0  0  0  0
  1 21  1  6  0  0  0
  1 13  1  0  0  0  0
  2  7  1  1  0  0  0
  2  5  1  0  0  0  0
  2  3  1  0  0  0  0
  5  4  1  1  0  0  0
  5  3  1  0  0  0  0
  6  1  1  6  0  0  0
  6  5  1  0  0  0  0
  6  4  1  0  0  0  0
  7  8  1  1  0  0  0
  9 10  1  0  0  0  0
  9 11  1  0  0  0  0
 10 11  1  0  0  0  0
 10  7  1  0  0  0  0
 13 12  1  1  0  0  0
 13 14  1  0  0  0  0
 14 18  1  0  0  0  0
 15 17  1  0  0  0  0
 15 16  1  0  0  0  0
 16 14  1  1  0  0  0
 17 16  1  0  0  0  0
 18 20  1  0  0  0  0
 20 19  2  0  0  0  0
 21 35  1  1  0  0  0
 22 21  1  0  0  0  0
 24 23  1  6  0  0  0
 24 22  1  0  0  0  0
 25 29  1  0  0  0  0
 25 31  1  1  0  0  0
 26 30  1  0  0  0  0
 26 28  1  0  0  0  0
 27 29  1  0  0  0  0
 28 34  1  1  0  0  0
 28 25  1  0  0  0  0
 29 24  1  6  0  0  0
 30 27  1  0  0  0  0
 32 34  2  0  0  0  0
 34 33  1  0  0  0  0
 36 35  1  0  0  0  0
 37 36  1  0  0  0  0
M  END
>  <MODEL>
1

>  <REMARK>
 VINA RESULT:      -7.3      0.000      0.000
  Name = 
  15 active torsions:
  status: ('A' for Active; 'I' for Inactive)
    1  A    between atoms: C_1  and  C_5
    2  A    between atoms: C_5  and  C_26
    3  A    between atoms: C_8  and  C_19
    4  A    between atoms: N_9  and  C_13
    5  A    between atoms: N_9  and  C_16
    6  A    between atoms: N_9  and  C_30
    7  A    between atoms: O_10  and  C_29
    8  A    between atoms: O_10  and  C_37
    9  A    between atoms: C_13  and  C_20
   10  A    between atoms: C_14  and  C_37
   11  A    between atoms: C_16  and  C_24
   12  A    between atoms: C_20  and  C_25
   13  A    between atoms: C_20  and  C_29
   14  A    between atoms: C_27  and  C_33
   15  A    between atoms: C_29  and  C_33
                            x       y       z     vdW  Elec       q    Type
                         _______ _______ _______ _____ _____    ______ ____

>  <TORSDO>
F 15

$$$$
=
 OpenBabel10272415063D

 37 41  0  0  1  0  0  0  0  0999 V2000
  188.7180  177.8410  143.2330 C   0  0  1  0  0  3  0  0  0  0  0  0
  186.0830  177.7770  145.5310 C   0  0  2  0  0  3  0  0  0  0  0  0
  186.8690  177.5380  146.7560 C   0  0  0  0  0  2  0  0  0  0  0  0
  188.6440  176.8750  145.4940 C   0  0  0  0  0  2  0  0  0  0  0  0
  187.6060  178.0030  145.4890 C   0  0  2  0  0  0  0  0  0  0  0  0
  187.8620  177.1040  144.2690 C   0  0  1  0  0  3  0  0  0  0  0  0
  185.3130  179.1090  145.5570 C   0  0  2  0  0  3  0  0  0  0  0  0
  185.4610  179.8070  146.7630 O   0  0  0  0  0  1  0  0  0  0  0  0
  183.6480  178.4790  143.9910 O   0  0  0  0  0  0  0  0  0  0  0  0
  183.8400  178.8530  145.3030 C   0  0  0  0  0  3  0  0  0  0  0  0
  183.3740  179.7390  144.3580 O   0  0  0  0  0  0  0  0  0  0  0  0
  189.8890  175.6730  142.5010 C   0  0  0  0  0  1  0  0  0  0  0  0
  190.0480  177.1040  143.0190 C   0  0  1  0  0  3  0  0  0  0  0  0
  191.0350  177.9220  142.2880 N   0  0  0  0  0  0  0  0  0  0  0  0
  191.7000  178.1070  144.5250 O   0  0  0  0  0  0  0  0  0  0  0  0
  192.1000  178.3480  143.1970 C   0  0  2  0  0  3  0  0  0  0  0  0
  191.6220  179.4380  144.0770 C   0  0  0  0  0  2  0  0  0  0  0  0
  191.5590  177.2820  141.0650 C   0  0  0  0  0  2  0  0  0  0  0  0
  193.4840  177.2610  139.6950 O   0  0  0  0  0  0  0  0  0  0  0  0
  192.9610  177.6930  140.7090 C   0  0  0  0  0  3  0  0  0  0  0  0
  187.9910  178.1130  141.9000 C   0  0  1  0  0  3  0  0  0  0  0  0
  188.4670  177.3290  140.8410 O   0  0  0  0  0  0  0  0  0  0  0  0
  188.9970  179.1420  139.5560 O   0  0  0  0  0  1  0  0  0  0  0  0
  188.1450  178.0440  139.6840 C   0  0  1  0  0  3  0  0  0  0  0  0
  189.3780  177.6140  137.4960 C   0  0  1  0  0  3  0  0  0  0  0  0
  187.6550  177.7040  135.6280 C   0  0  0  0  0  2  0  0  0  0  0  0
  186.9890  176.9470  137.8200 O   0  0  0  0  0  0  0  0  0  0  0  0
  189.0760  177.2780  136.0270 C   0  0  2  0  0  3  0  0  0  0  0  0
  188.2500  177.1550  138.4440 C   0  0  2  0  0  3  0  0  0  0  0  0
  186.7680  177.9460  136.8520 C   0  0  0  0  0  2  0  0  0  0  0  0
  190.6080  177.0920  137.9000 O   0  0  0  0  0  1  0  0  0  0  0  0
  188.2910  174.9120  135.9170 O   0  0  0  0  0  1  0  0  0  0  0  0
  190.4060  175.4460  135.2190 O   0  0  0  0  0  0  0  0  0  0  0  0
  189.3050  175.8330  135.6940 C   0  0  0  0  0  0  0  0  0  0  0  0
  186.4750  177.9910  142.0440 C   0  0  0  0  0  2  0  0  0  0  0  0
  185.7550  179.2820  141.6980 C   0  0  0  0  0  2  0  0  0  0  0  0
  184.7230  179.0110  140.6260 C   0  0  0  0  0  1  0  0  0  0  0  0
  1 21  1  6  0  0  0
  2  7  1  1  0  0  0
  2  3  1  0  0  0  0
  5  4  1  6  0  0  0
  5  2  1  0  0  0  0
  5  3  1  0  0  0  0
  6  1  1  6  0  0  0
  6  5  1  0  0  0  0
  6  4  1  0  0  0  0
  7  8  1  1  0  0  0
  9 11  1  0  0  0  0
  9 10  1  0  0  0  0
 10  7  1  0  0  0  0
 11 10  1  0  0  0  0
 13 12  1  6  0  0  0
 13  1  1  0  0  0  0
 14 13  1  0  0  0  0
 16 14  1  6  0  0  0
 16 17  1  0  0  0  0
 16 15  1  0  0  0  0
 17 15  1  0  0  0  0
 18 14  1  0  0  0  0
 19 20  2  0  0  0  0
 20 18  1  0  0  0  0
 21 35  1  1  0  0  0
 22 21  1  0  0  0  0
 24 23  1  6  0  0  0
 24 22  1  0  0  0  0
 25 31  1  1  0  0  0
 25 29  1  0  0  0  0
 26 28  1  0  0  0  0
 26 30  1  0  0  0  0
 27 29  1  0  0  0  0
 28 34  1  1  0  0  0
 28 25  1  0  0  0  0
 29 24  1  1  0  0  0
 30 27  1  0  0  0  0
 33 34  2  0  0  0  0
 34 32  1  0  0  0  0
 36 35  1  0  0  0  0
 37 36  1  0  0  0  0
M  END
>  <MODEL>
2

>  <REMARK>
 VINA RESULT:      -7.3      1.638      2.589
  Name = 
  15 active torsions:
  status: ('A' for Active; 'I' for Inactive)
    1  A    between atoms: C_1  and  C_5
    2  A    between atoms: C_5  and  C_26
    3  A    between atoms: C_8  and  C_19
    4  A    between atoms: N_9  and  C_13
    5  A    between atoms: N_9  and  C_16
    6  A    between atoms: N_9  and  C_30
    7  A    between atoms: O_10  and  C_29
    8  A    between atoms: O_10  and  C_37
    9  A    between atoms: C_13  and  C_20
   10  A    between atoms: C_14  and  C_37
   11  A    between atoms: C_16  and  C_24
   12  A    between atoms: C_20  and  C_25
   13  A    between atoms: C_20  and  C_29
   14  A    between atoms: C_27  and  C_33
   15  A    between atoms: C_29  and  C_33
                            x       y       z     vdW  Elec       q    Type
                         _______ _______ _______ _____ _____    ______ ____

>  <TORSDO>
F 15

$$$$
=
 OpenBabel10272415063D

 37 41  0  0  1  0  0  0  0  0999 V2000
  188.9480  177.3810  144.2350 C   0  0  1  0  0  3  0  0  0  0  0  0
  185.7890  177.8450  142.8110 C   0  0  2  0  0  3  0  0  0  0  0  0
  185.0300  178.1100  144.0470 C   0  0  0  0  0  2  0  0  0  0  0  0
  186.7280  177.2320  145.2840 C   0  0  0  0  0  2  0  0  0  0  0  0
  186.5650  178.1880  144.0960 C   0  0  2  0  0  0  0  0  0  0  0  0
  187.4870  176.9590  144.0530 C   0  0  1  0  0  3  0  0  0  0  0  0
  185.7730  179.0280  141.8260 C   0  0  2  0  0  3  0  0  0  0  0  0
  185.3900  180.2360  142.4240 O   0  0  0  0  0  1  0  0  0  0  0  0
  185.5080  178.8530  139.4760 O   0  0  0  0  0  0  0  0  0  0  0  0
  184.8370  178.7210  140.6730 C   0  0  0  0  0  3  0  0  0  0  0  0
  184.6970  179.8400  139.8830 O   0  0  0  0  0  0  0  0  0  0  0  0
  190.8510  175.6560  144.1010 C   0  0  0  0  0  1  0  0  0  0  0  0
  189.7370  176.2740  144.9510 C   0  0  1  0  0  3  0  0  0  0  0  0
  190.1420  176.6620  146.3160 N   0  0  0  0  0  0  0  0  0  0  0  0
  192.0690  175.3870  146.6890 O   0  0  0  0  0  0  0  0  0  0  0  0
  191.6010  176.6870  146.4150 C   0  0  2  0  0  3  0  0  0  0  0  0
  192.0320  176.2830  147.7730 C   0  0  0  0  0  2  0  0  0  0  0  0
  189.5220  177.9140  146.7940 C   0  0  0  0  0  2  0  0  0  0  0  0
  187.9540  178.5630  148.4380 O   0  0  0  0  0  0  0  0  0  0  0  0
  188.8510  177.7940  148.1340 C   0  0  0  0  0  3  0  0  0  0  0  0
  189.6380  177.8260  142.9300 C   0  0  1  0  0  3  0  0  0  0  0  0
  188.9320  177.4560  141.7770 O   0  0  0  0  0  0  0  0  0  0  0  0
  190.7260  176.1750  141.1820 O   0  0  0  0  0  1  0  0  0  0  0  0
  189.9100  177.2410  140.8020 C   0  0  1  0  0  3  0  0  0  0  0  0
  190.3310  176.6280  138.3660 C   0  0  1  0  0  3  0  0  0  0  0  0
  189.3200  178.4720  136.9360 C   0  0  0  0  0  2  0  0  0  0  0  0
  188.3240  177.9430  139.0700 O   0  0  0  0  0  0  0  0  0  0  0  0
  189.8730  177.0390  136.9570 C   0  0  2  0  0  3  0  0  0  0  0  0
  189.2740  176.9530  139.4420 C   0  0  2  0  0  3  0  0  0  0  0  0
  188.9630  178.9650  138.3410 C   0  0  0  0  0  2  0  0  0  0  0  0
  190.6900  175.2790  138.4150 O   0  0  0  0  0  1  0  0  0  0  0  0
  189.3360  175.0370  135.5660 O   0  0  0  0  0  0  0  0  0  0  0  0
  187.6470  176.2230  136.5610 O   0  0  0  0  0  1  0  0  0  0  0  0
  188.8830  176.0840  136.3570 C   0  0  0  0  0  0  0  0  0  0  0  0
  189.9520  179.3210  142.9330 C   0  0  0  0  0  2  0  0  0  0  0  0
  190.9550  179.6990  144.0070 C   0  0  0  0  0  2  0  0  0  0  0  0
  192.1980  178.8500  143.8560 C   0  0  0  0  0  1  0  0  0  0  0  0
  1 21  1  6  0  0  0
  1 13  1  0  0  0  0
  2  7  1  6  0  0  0
  2  3  1  0  0  0  0
  2  5  1  0  0  0  0
  5  3  1  6  0  0  0
  5  4  1  0  0  0  0
  6  5  1  0  0  0  0
  6  1  1  1  0  0  0
  6  4  1  0  0  0  0
  7  8  1  1  0  0  0
  9 11  1  0  0  0  0
  9 10  1  0  0  0  0
 10  7  1  0  0  0  0
 11 10  1  0  0  0  0
 13 12  1  6  0  0  0
 13 14  1  0  0  0  0
 14 18  1  0  0  0  0
 15 17  1  0  0  0  0
 16 14  1  1  0  0  0
 16 15  1  0  0  0  0
 16 17  1  0  0  0  0
 18 20  1  0  0  0  0
 20 19  2  0  0  0  0
 21 35  1  1  0  0  0
 22 21  1  0  0  0  0
 24 23  1  1  0  0  0
 24 22  1  0  0  0  0
 25 31  1  6  0  0  0
 25 29  1  0  0  0  0
 26 28  1  0  0  0  0
 26 30  1  0  0  0  0
 27 29  1  0  0  0  0
 28 34  1  1  0  0  0
 28 25  1  0  0  0  0
 29 24  1  1  0  0  0
 30 27  1  0  0  0  0
 32 34  2  0  0  0  0
 34 33  1  0  0  0  0
 35 36  1  0  0  0  0
 37 36  1  0  0  0  0
M  END
>  <MODEL>
3

>  <REMARK>
 VINA RESULT:      -7.1      1.744      3.364
  Name = 
  15 active torsions:
  status: ('A' for Active; 'I' for Inactive)
    1  A    between atoms: C_1  and  C_5
    2  A    between atoms: C_5  and  C_26
    3  A    between atoms: C_8  and  C_19
    4  A    between atoms: N_9  and  C_13
    5  A    between atoms: N_9  and  C_16
    6  A    between atoms: N_9  and  C_30
    7  A    between atoms: O_10  and  C_29
    8  A    between atoms: O_10  and  C_37
    9  A    between atoms: C_13  and  C_20
   10  A    between atoms: C_14  and  C_37
   11  A    between atoms: C_16  and  C_24
   12  A    between atoms: C_20  and  C_25
   13  A    between atoms: C_20  and  C_29
   14  A    between atoms: C_27  and  C_33
   15  A    between atoms: C_29  and  C_33
                            x       y       z     vdW  Elec       q    Type
                         _______ _______ _______ _____ _____    ______ ____

>  <TORSDO>
F 15

$$$$
=
 OpenBabel10272415063D

 37 41  0  0  1  0  0  0  0  0999 V2000
  185.5310  177.0900  137.0390 C   0  0  1  0  0  3  0  0  0  0  0  0
  186.8530  173.8600  136.8350 C   0  0  2  0  0  3  0  0  0  0  0  0
  185.8800  173.2860  135.8870 C   0  0  0  0  0  2  0  0  0  0  0  0
  184.4490  175.0060  136.3070 C   0  0  0  0  0  2  0  0  0  0  0  0
  185.9460  174.8150  136.0380 C   0  0  2  0  0  0  0  0  0  0  0  0
  185.4130  175.5790  137.2610 C   0  0  1  0  0  3  0  0  0  0  0  0
  188.2950  173.8640  136.2950 C   0  0  2  0  0  3  0  0  0  0  0  0
  188.7100  172.6110  135.8270 O   0  0  0  0  0  1  0  0  0  0  0  0
  190.3250  174.9760  136.8100 O   0  0  0  0  0  0  0  0  0  0  0  0
  189.2450  174.3350  137.3790 C   0  0  0  0  0  3  0  0  0  0  0  0
  190.4620  173.7100  137.2270 O   0  0  0  0  0  0  0  0  0  0  0  0
  183.0580  177.6480  136.6090 C   0  0  0  0  0  1  0  0  0  0  0  0
  184.2650  177.8030  137.5380 C   0  0  1  0  0  3  0  0  0  0  0  0
  183.9900  177.5330  138.9630 N   0  0  0  0  0  0  0  0  0  0  0  0
  184.8350  179.6760  139.3830 O   0  0  0  0  0  0  0  0  0  0  0  0
  183.7770  178.7920  139.6760 C   0  0  2  0  0  3  0  0  0  0  0  0
  184.8810  179.0350  140.6340 C   0  0  0  0  0  2  0  0  0  0  0  0
  182.9000  176.5640  139.1920 C   0  0  0  0  0  2  0  0  0  0  0  0
  180.6090  177.0850  139.4450 O   0  0  0  0  0  0  0  0  0  0  0  0
  181.7240  177.1280  139.9400 C   0  0  0  0  0  3  0  0  0  0  0  0
  186.8110  177.7120  137.6330 C   0  0  1  0  0  3  0  0  0  0  0  0
  187.4540  176.8760  138.5560 O   0  0  0  0  0  0  0  0  0  0  0  0
  188.1140  178.9170  139.3400 O   0  0  0  0  0  1  0  0  0  0  0  0
  188.5360  177.6230  139.0330 C   0  0  1  0  0  3  0  0  0  0  0  0
  189.1350  177.9090  141.4930 C   0  0  1  0  0  3  0  0  0  0  0  0
  191.6400  177.5310  141.7090 C   0  0  0  0  0  2  0  0  0  0  0  0
  190.4080  176.3640  139.9930 O   0  0  0  0  0  0  0  0  0  0  0  0
  190.3020  177.6330  142.4550 C   0  0  2  0  0  3  0  0  0  0  0  0
  189.1500  176.9670  140.2710 C   0  0  2  0  0  3  0  0  0  0  0  0
  191.4400  177.2980  140.2090 C   0  0  0  0  0  2  0  0  0  0  0  0
  187.9040  177.8510  142.1490 O   0  0  0  0  0  1  0  0  0  0  0  0
  189.5340  176.5690  144.5780 O   0  0  0  0  0  1  0  0  0  0  0  0
  190.3960  175.2720  142.8990 O   0  0  0  0  0  0  0  0  0  0  0  0
  190.0840  176.4210  143.3120 C   0  0  0  0  0  0  0  0  0  0  0  0
  187.7750  178.1800  136.5430 C   0  0  0  0  0  2  0  0  0  0  0  0
  187.2200  177.9590  135.1480 C   0  0  0  0  0  2  0  0  0  0  0  0
  188.1920  177.1200  134.3470 C   0  0  0  0  0  1  0  0  0  0  0  0
  1 13  1  1  0  0  0
  1 21  1  0  0  0  0
  2  7  1  6  0  0  0
  3  2  1  0  0  0  0
  4  6  1  0  0  0  0
  5  3  1  1  0  0  0
  5  4  1  0  0  0  0
  5  2  1  0  0  0  0
  5  6  1  0  0  0  0
  6  1  1  6  0  0  0
  7  8  1  1  0  0  0
  7 10  1  0  0  0  0
  9 11  1  0  0  0  0
  9 10  1  0  0  0  0
 11 10  1  0  0  0  0
 13 12  1  6  0  0  0
 13 14  1  0  0  0  0
 14 18  1  0  0  0  0
 15 16  1  0  0  0  0
 15 17  1  0  0  0  0
 16 14  1  6  0  0  0
 16 17  1  0  0  0  0
 18 20  1  0  0  0  0
 19 20  2  0  0  0  0
 21 35  1  6  0  0  0
 21 22  1  0  0  0  0
 22 24  1  0  0  0  0
 24 23  1  1  0  0  0
 25 31  1  1  0  0  0
 25 28  1  0  0  0  0
 26 28  1  0  0  0  0
 27 30  1  0  0  0  0
 27 29  1  0  0  0  0
 28 34  1  6  0  0  0
 29 24  1  6  0  0  0
 29 25  1  0  0  0  0
 30 26  1  0  0  0  0
 33 34  2  0  0  0  0
 34 32  1  0  0  0  0
 36 35  1  0  0  0  0
 37 36  1  0  0  0  0
M  END
>  <MODEL>
4

>  <REMARK>
 VINA RESULT:      -6.6      3.113      8.276
  Name = 
  15 active torsions:
  status: ('A' for Active; 'I' for Inactive)
    1  A    between atoms: C_1  and  C_5
    2  A    between atoms: C_5  and  C_26
    3  A    between atoms: C_8  and  C_19
    4  A    between atoms: N_9  and  C_13
    5  A    between atoms: N_9  and  C_16
    6  A    between atoms: N_9  and  C_30
    7  A    between atoms: O_10  and  C_29
    8  A    between atoms: O_10  and  C_37
    9  A    between atoms: C_13  and  C_20
   10  A    between atoms: C_14  and  C_37
   11  A    between atoms: C_16  and  C_24
   12  A    between atoms: C_20  and  C_25
   13  A    between atoms: C_20  and  C_29
   14  A    between atoms: C_27  and  C_33
   15  A    between atoms: C_29  and  C_33
                            x       y       z     vdW  Elec       q    Type
                         _______ _______ _______ _____ _____    ______ ____

>  <TORSDO>
F 15

$$$$
=
 OpenBabel10272415063D

 37 41  0  0  1  0  0  0  0  0999 V2000
  184.1630  178.2490  140.2180 C   0  0  1  0  0  3  0  0  0  0  0  0
  186.7850  178.3820  142.5270 C   0  0  2  0  0  3  0  0  0  0  0  0
  185.9860  178.3400  143.7660 C   0  0  0  0  0  2  0  0  0  0  0  0
  184.1210  178.9050  142.5890 C   0  0  0  0  0  2  0  0  0  0  0  0
  185.3100  177.9480  142.4420 C   0  0  2  0  0  0  0  0  0  0  0  0
  184.9150  178.9560  141.3500 C   0  0  1  0  0  3  0  0  0  0  0  0
  187.7380  177.1820  142.3800 C   0  0  2  0  0  3  0  0  0  0  0  0
  187.6550  176.2800  143.4490 O   0  0  0  0  0  1  0  0  0  0  0  0
  190.0370  176.6090  142.2870 O   0  0  0  0  0  0  0  0  0  0  0  0
  189.1660  177.6760  142.2510 C   0  0  0  0  0  3  0  0  0  0  0  0
  189.8700  177.3530  143.3890 O   0  0  0  0  0  0  0  0  0  0  0  0
  182.4660  179.5530  138.7910 C   0  0  0  0  0  1  0  0  0  0  0  0
  182.7350  178.8040  140.0990 C   0  0  1  0  0  3  0  0  0  0  0  0
  181.7100  177.8080  140.4650 N   0  0  0  0  0  0  0  0  0  0  0  0
  180.6160  179.5290  141.6140 O   0  0  0  0  0  0  0  0  0  0  0  0
  180.4290  178.4740  140.7000 C   0  0  2  0  0  3  0  0  0  0  0  0
  180.0380  178.3530  142.1230 C   0  0  0  0  0  2  0  0  0  0  0  0
  181.5960  176.6840  139.5140 C   0  0  0  0  0  2  0  0  0  0  0  0
  179.9830  175.6270  138.1490 O   0  0  0  0  0  0  0  0  0  0  0  0
  180.1870  176.3870  139.0820 C   0  0  0  0  0  3  0  0  0  0  0  0
  184.9020  178.2730  138.8650 C   0  0  1  0  0  3  0  0  0  0  0  0
  186.2850  178.4630  138.9940 O   0  0  0  0  0  0  0  0  0  0  0  0
  187.1860  179.2580  137.0520 O   0  0  0  0  0  1  0  0  0  0  0  0
  186.8200  178.1080  137.7520 C   0  0  1  0  0  3  0  0  0  0  0  0
  189.3620  177.9550  137.7610 C   0  0  1  0  0  3  0  0  0  0  0  0
  190.0240  176.2620  135.9820 C   0  0  0  0  0  2  0  0  0  0  0  0
  187.9230  176.0050  137.1420 O   0  0  0  0  0  0  0  0  0  0  0  0
  190.4850  177.0610  137.2100 C   0  0  2  0  0  3  0  0  0  0  0  0
  188.0320  177.1910  137.9200 C   0  0  2  0  0  3  0  0  0  0  0  0
  188.4970  176.2160  135.8740 C   0  0  0  0  0  2  0  0  0  0  0  0
  189.7330  178.5630  138.9630 O   0  0  0  0  0  1  0  0  0  0  0  0
  192.0310  176.6260  139.1210 O   0  0  0  0  0  1  0  0  0  0  0  0
  190.6960  174.9420  138.3270 O   0  0  0  0  0  0  0  0  0  0  0  0
  191.0680  176.1440  138.2450 C   0  0  0  0  0  0  0  0  0  0  0  0
  184.5880  177.0370  138.0230 C   0  0  0  0  0  2  0  0  0  0  0  0
  183.9640  177.3920  136.6860 C   0  0  0  0  0  2  0  0  0  0  0  0
  183.0670  176.2610  136.2330 C   0  0  0  0  0  1  0  0  0  0  0  0
  1 21  1  6  0  0  0
  2  7  1  1  0  0  0
  2  3  1  0  0  0  0
  5  2  1  0  0  0  0
  5  4  1  6  0  0  0
  5  3  1  0  0  0  0
  6  1  1  6  0  0  0
  6  5  1  0  0  0  0
  6  4  1  0  0  0  0
  7  8  1  1  0  0  0
  9 11  1  0  0  0  0
 10  9  1  0  0  0  0
 10  7  1  0  0  0  0
 10 11  1  0  0  0  0
 13 12  1  6  0  0  0
 13  1  1  0  0  0  0
 13 14  1  0  0  0  0
 15 17  1  0  0  0  0
 16 14  1  1  0  0  0
 16 15  1  0  0  0  0
 16 17  1  0  0  0  0
 18 14  1  0  0  0  0
 19 20  2  0  0  0  0
 20 18  1  0  0  0  0
 21 35  1  1  0  0  0
 21 22  1  0  0  0  0
 24 23  1  1  0  0  0
 24 22  1  0  0  0  0
 25 29  1  0  0  0  0
 25 31  1  1  0  0  0
 26 28  1  0  0  0  0
 27 29  1  0  0  0  0
 28 25  1  0  0  0  0
 28 34  1  1  0  0  0
 29 24  1  6  0  0  0
 30 26  1  0  0  0  0
 30 27  1  0  0  0  0
 34 33  2  0  0  0  0
 34 32  1  0  0  0  0
 36 35  1  0  0  0  0
 37 36  1  0  0  0  0
M  END
>  <MODEL>
5

>  <REMARK>
 VINA RESULT:      -6.5      3.240      6.724
  Name = 
  15 active torsions:
  status: ('A' for Active; 'I' for Inactive)
    1  A    between atoms: C_1  and  C_5
    2  A    between atoms: C_5  and  C_26
    3  A    between atoms: C_8  and  C_19
    4  A    between atoms: N_9  and  C_13
    5  A    between atoms: N_9  and  C_16
    6  A    between atoms: N_9  and  C_30
    7  A    between atoms: O_10  and  C_29
    8  A    between atoms: O_10  and  C_37
    9  A    between atoms: C_13  and  C_20
   10  A    between atoms: C_14  and  C_37
   11  A    between atoms: C_16  and  C_24
   12  A    between atoms: C_20  and  C_25
   13  A    between atoms: C_20  and  C_29
   14  A    between atoms: C_27  and  C_33
   15  A    between atoms: C_29  and  C_33
                            x       y       z     vdW  Elec       q    Type
                         _______ _______ _______ _____ _____    ______ ____

>  <TORSDO>
F 15

$$$$
=
 OpenBabel10272415063D

 37 41  0  0  1  0  0  0  0  0999 V2000
  188.6680  175.6880  137.3450 C   0  0  1  0  0  3  0  0  0  0  0  0
  189.6670  177.5020  140.1630 C   0  0  2  0  0  3  0  0  0  0  0  0
  189.0260  178.7880  139.8320 C   0  0  0  0  0  2  0  0  0  0  0  0
  188.7990  178.1230  137.6660 C   0  0  0  0  0  2  0  0  0  0  0  0
  188.5890  177.5290  139.0640 C   0  0  2  0  0  0  0  0  0  0  0  0
  189.4450  176.8410  137.9890 C   0  0  1  0  0  3  0  0  0  0  0  0
  189.1330  176.8770  141.4650 C   0  0  2  0  0  3  0  0  0  0  0  0
  188.2110  177.6960  142.1300 O   0  0  0  0  0  1  0  0  0  0  0  0
  190.2270  175.2500  142.7980 O   0  0  0  0  0  0  0  0  0  0  0  0
  190.2900  176.5660  142.3950 C   0  0  0  0  0  3  0  0  0  0  0  0
  189.8030  176.2110  143.6320 O   0  0  0  0  0  0  0  0  0  0  0  0
  188.3590  175.8570  134.7980 C   0  0  0  0  0  1  0  0  0  0  0  0
  187.8090  176.2070  136.1840 C   0  0  1  0  0  3  0  0  0  0  0  0
  186.3740  175.9220  136.3710 N   0  0  0  0  0  0  0  0  0  0  0  0
  185.5470  177.8080  137.4820 O   0  0  0  0  0  0  0  0  0  0  0  0
  185.5980  177.1540  136.2360 C   0  0  2  0  0  3  0  0  0  0  0  0
  184.3930  177.1030  137.0960 C   0  0  0  0  0  2  0  0  0  0  0  0
  185.8590  174.8350  135.5140 C   0  0  0  0  0  2  0  0  0  0  0  0
  185.2900  173.6790  137.4940 O   0  0  0  0  0  0  0  0  0  0  0  0
  185.3050  173.6630  136.2740 C   0  0  0  0  0  3  0  0  0  0  0  0
  189.5530  174.4990  136.9190 C   0  0  1  0  0  3  0  0  0  0  0  0
  190.7830  174.4570  137.5880 O   0  0  0  0  0  0  0  0  0  0  0  0
  191.8180  175.3960  135.7810 O   0  0  0  0  0  1  0  0  0  0  0  0
  191.7380  174.2580  136.5850 C   0  0  1  0  0  3  0  0  0  0  0  0
  194.0590  175.1620  137.1190 C   0  0  1  0  0  3  0  0  0  0  0  0
  195.7420  173.6690  135.9330 C   0  0  0  0  0  2  0  0  0  0  0  0
  193.6520  172.7310  136.6930 O   0  0  0  0  0  0  0  0  0  0  0  0
  195.5340  174.7400  137.0140 C   0  0  2  0  0  3  0  0  0  0  0  0
  193.1080  173.9480  137.1880 C   0  0  2  0  0  3  0  0  0  0  0  0
  194.4260  172.9890  135.5450 C   0  0  0  0  0  2  0  0  0  0  0  0
  193.8460  176.0200  138.2000 O   0  0  0  0  0  1  0  0  0  0  0  0
  195.7340  173.0580  138.8470 O   0  0  0  0  0  0  0  0  0  0  0  0
  196.9320  175.0080  138.9510 O   0  0  0  0  0  1  0  0  0  0  0  0
  196.1110  174.2870  138.3220 C   0  0  0  0  0  0  0  0  0  0  0  0
  188.8120  173.1680  137.0360 C   0  0  0  0  0  2  0  0  0  0  0  0
  188.8150  172.3880  135.7340 C   0  0  0  0  0  2  0  0  0  0  0  0
  187.8420  171.2330  135.8360 C   0  0  0  0  0  1  0  0  0  0  0  0
  1 13  1  6  0  0  0
  2  7  1  1  0  0  0
  3  2  1  0  0  0  0
  4  6  1  0  0  0  0
  5  4  1  1  0  0  0
  5  3  1  0  0  0  0
  5  2  1  0  0  0  0
  6  1  1  6  0  0  0
  6  5  1  0  0  0  0
  7  8  1  1  0  0  0
  7 10  1  0  0  0  0
  9 11  1  0  0  0  0
 10  9  1  0  0  0  0
 10 11  1  0  0  0  0
 13 12  1  6  0  0  0
 13 14  1  0  0  0  0
 16 14  1  1  0  0  0
 16 17  1  0  0  0  0
 16 15  1  0  0  0  0
 17 15  1  0  0  0  0
 18 20  1  0  0  0  0
 18 14  1  0  0  0  0
 20 19  2  0  0  0  0
 21 35  1  1  0  0  0
 21  1  1  0  0  0  0
 21 22  1  0  0  0  0
 24 23  1  1  0  0  0
 24 22  1  0  0  0  0
 25 29  1  0  0  0  0
 25 31  1  1  0  0  0
 26 28  1  0  0  0  0
 27 29  1  0  0  0  0
 28 25  1  0  0  0  0
 28 34  1  1  0  0  0
 29 24  1  6  0  0  0
 30 26  1  0  0  0  0
 30 27  1  0  0  0  0
 34 32  2  0  0  0  0
 34 33  1  0  0  0  0
 36 37  1  0  0  0  0
 36 35  1  0  0  0  0
M  END
>  <MODEL>
6

>  <REMARK>
 VINA RESULT:      -6.4      3.717      7.545
  Name = 
  15 active torsions:
  status: ('A' for Active; 'I' for Inactive)
    1  A    between atoms: C_1  and  C_5
    2  A    between atoms: C_5  and  C_26
    3  A    between atoms: C_8  and  C_19
    4  A    between atoms: N_9  and  C_13
    5  A    between atoms: N_9  and  C_16
    6  A    between atoms: N_9  and  C_30
    7  A    between atoms: O_10  and  C_29
    8  A    between atoms: O_10  and  C_37
    9  A    between atoms: C_13  and  C_20
   10  A    between atoms: C_14  and  C_37
   11  A    between atoms: C_16  and  C_24
   12  A    between atoms: C_20  and  C_25
   13  A    between atoms: C_20  and  C_29
   14  A    between atoms: C_27  and  C_33
   15  A    between atoms: C_29  and  C_33
                            x       y       z     vdW  Elec       q    Type
                         _______ _______ _______ _____ _____    ______ ____

>  <TORSDO>
F 15

$$$$
=
 OpenBabel10272415063D

 37 41  0  0  1  0  0  0  0  0999 V2000
  189.3500  176.4880  138.1980 C   0  0  1  0  0  3  0  0  0  0  0  0
  190.3530  177.4030  141.4200 C   0  0  2  0  0  3  0  0  0  0  0  0
  189.2110  178.2690  141.7660 C   0  0  0  0  0  2  0  0  0  0  0  0
  188.6430  178.4060  139.5650 C   0  0  0  0  0  2  0  0  0  0  0  0
  189.0790  177.3240  140.5600 C   0  0  2  0  0  0  0  0  0  0  0  0
  189.7860  177.5480  139.2130 C   0  0  1  0  0  3  0  0  0  0  0  0
  190.4880  176.1810  142.3460 C   0  0  2  0  0  3  0  0  0  0  0  0
  189.3050  175.8780  143.0320 O   0  0  0  0  0  1  0  0  0  0  0  0
  191.9110  175.2420  143.9940 O   0  0  0  0  0  0  0  0  0  0  0  0
  191.6020  176.4190  143.3480 C   0  0  0  0  0  3  0  0  0  0  0  0
  191.1450  176.1480  144.6170 O   0  0  0  0  0  0  0  0  0  0  0  0
  189.3470  177.2540  135.7430 C   0  0  0  0  0  1  0  0  0  0  0  0
  188.5610  177.1390  137.0520 C   0  0  1  0  0  3  0  0  0  0  0  0
  187.2030  176.5790  136.9120 N   0  0  0  0  0  0  0  0  0  0  0  0
  186.3320  178.6110  137.6810 O   0  0  0  0  0  0  0  0  0  0  0  0
  186.2450  177.6540  136.6520 C   0  0  2  0  0  3  0  0  0  0  0  0
  185.2410  177.7250  137.7380 C   0  0  0  0  0  2  0  0  0  0  0  0
  187.1020  175.4830  135.9280 C   0  0  0  0  0  2  0  0  0  0  0  0
  186.4360  173.7280  137.3630 O   0  0  0  0  0  0  0  0  0  0  0  0
  186.1940  174.3620  136.3490 C   0  0  0  0  0  3  0  0  0  0  0  0
  190.5050  175.6110  137.6740 C   0  0  1  0  0  3  0  0  0  0  0  0
  191.6210  175.6020  138.5210 O   0  0  0  0  0  0  0  0  0  0  0  0
  193.4590  176.9420  138.7320 O   0  0  0  0  0  1  0  0  0  0  0  0
  192.6140  176.2990  137.8260 C   0  0  1  0  0  3  0  0  0  0  0  0
  194.7650  174.9560  137.5860 C   0  0  1  0  0  3  0  0  0  0  0  0
  195.9320  175.7680  135.4770 C   0  0  0  0  0  2  0  0  0  0  0  0
  193.5220  175.8280  135.5980 O   0  0  0  0  0  0  0  0  0  0  0  0
  195.8540  174.6630  136.5410 C   0  0  2  0  0  3  0  0  0  0  0  0
  193.4240  175.3560  136.9360 C   0  0  2  0  0  3  0  0  0  0  0  0
  194.6680  176.6340  135.4620 C   0  0  0  0  0  2  0  0  0  0  0  0
  194.5920  173.8820  138.4620 O   0  0  0  0  0  1  0  0  0  0  0  0
  194.4900  172.9780  135.3040 O   0  0  0  0  0  0  0  0  0  0  0  0
  196.6540  172.4960  135.8770 O   0  0  0  0  0  1  0  0  0  0  0  0
  195.7000  173.3190  135.8920 C   0  0  0  0  0  0  0  0  0  0  0  0
  190.0410  174.1910  137.3520 C   0  0  0  0  0  2  0  0  0  0  0  0
  190.5290  173.7170  135.9960 C   0  0  0  0  0  2  0  0  0  0  0  0
  189.4960  172.7970  135.3820 C   0  0  0  0  0  1  0  0  0  0  0  0
  1 13  1  6  0  0  0
  2  3  1  0  0  0  0
  2  7  1  1  0  0  0
  5  4  1  1  0  0  0
  5  2  1  0  0  0  0
  5  3  1  0  0  0  0
  6  1  1  6  0  0  0
  6  4  1  0  0  0  0
  6  5  1  0  0  0  0
  7  8  1  1  0  0  0
  7 10  1  0  0  0  0
  9 11  1  0  0  0  0
 10  9  1  0  0  0  0
 10 11  1  0  0  0  0
 13 12  1  6  0  0  0
 14 13  1  0  0  0  0
 15 17  1  0  0  0  0
 16 14  1  1  0  0  0
 16 15  1  0  0  0  0
 16 17  1  0  0  0  0
 18 20  1  0  0  0  0
 18 14  1  0  0  0  0
 20 19  2  0  0  0  0
 21 35  1  1  0  0  0
 21  1  1  0  0  0  0
 21 22  1  0  0  0  0
 24 22  1  0  0  0  0
 24 23  1  1  0  0  0
 25 31  1  6  0  0  0
 26 28  1  0  0  0  0
 27 29  1  0  0  0  0
 28 34  1  6  0  0  0
 28 25  1  0  0  0  0
 29 25  1  0  0  0  0
 29 24  1  1  0  0  0
 30 26  1  0  0  0  0
 30 27  1  0  0  0  0
 32 34  2  0  0  0  0
 33 34  1  0  0  0  0
 36 35  1  0  0  0  0
 37 36  1  0  0  0  0
M  END
>  <MODEL>
7

>  <REMARK>
 VINA RESULT:      -6.4      3.594      7.109
  Name = 
  15 active torsions:
  status: ('A' for Active; 'I' for Inactive)
    1  A    between atoms: C_1  and  C_5
    2  A    between atoms: C_5  and  C_26
    3  A    between atoms: C_8  and  C_19
    4  A    between atoms: N_9  and  C_13
    5  A    between atoms: N_9  and  C_16
    6  A    between atoms: N_9  and  C_30
    7  A    between atoms: O_10  and  C_29
    8  A    between atoms: O_10  and  C_37
    9  A    between atoms: C_13  and  C_20
   10  A    between atoms: C_14  and  C_37
   11  A    between atoms: C_16  and  C_24
   12  A    between atoms: C_20  and  C_25
   13  A    between atoms: C_20  and  C_29
   14  A    between atoms: C_27  and  C_33
   15  A    between atoms: C_29  and  C_33
                            x       y       z     vdW  Elec       q    Type
                         _______ _______ _______ _____ _____    ______ ____

>  <TORSDO>
F 15

$$$$
=
 OpenBabel10272415063D

 37 41  0  0  1  0  0  0  0  0999 V2000
  189.3460  177.5050  142.1230 C   0  0  1  0  0  3  0  0  0  0  0  0
  189.5450  177.1490  138.6510 C   0  0  2  0  0  3  0  0  0  0  0  0
  190.9360  176.6670  138.5600 C   0  0  0  0  0  2  0  0  0  0  0  0
  191.3340  177.4050  140.6770 C   0  0  0  0  0  2  0  0  0  0  0  0
  190.2350  176.6410  139.9290 C   0  0  2  0  0  0  0  0  0  0  0  0
  189.9490  177.8950  140.7700 C   0  0  1  0  0  3  0  0  0  0  0  0
  188.5170  176.1340  138.1190 C   0  0  2  0  0  3  0  0  0  0  0  0
  189.0980  175.1120  137.3560 O   0  0  0  0  0  1  0  0  0  0  0  0
  186.2700  176.1860  137.3650 O   0  0  0  0  0  0  0  0  0  0  0  0
  187.4730  176.8520  137.2850 C   0  0  0  0  0  3  0  0  0  0  0  0
  187.0380  176.0210  136.2780 O   0  0  0  0  0  0  0  0  0  0  0  0
  190.2330  179.3300  143.7030 C   0  0  0  0  0  1  0  0  0  0  0  0
  190.3120  177.8660  143.2610 C   0  0  1  0  0  3  0  0  0  0  0  0
  190.2800  176.8840  144.3620 N   0  0  0  0  0  0  0  0  0  0  0  0
  192.1190  175.9160  143.2850 O   0  0  0  0  0  0  0  0  0  0  0  0
  191.6060  176.2930  144.5410 C   0  0  2  0  0  3  0  0  0  0  0  0
  191.6080  174.8820  144.0910 C   0  0  0  0  0  2  0  0  0  0  0  0
  189.7220  177.4120  145.6230 C   0  0  0  0  0  2  0  0  0  0  0  0
  189.9830  177.2010  147.9620 O   0  0  0  0  0  0  0  0  0  0  0  0
  190.4180  176.9130  146.8590 C   0  0  0  0  0  3  0  0  0  0  0  0
  187.9340  178.0750  142.3670 C   0  0  1  0  0  3  0  0  0  0  0  0
  187.1810  178.2070  141.1920 O   0  0  0  0  0  0  0  0  0  0  0  0
  185.7920  179.9170  141.7960 O   0  0  0  0  0  1  0  0  0  0  0  0
  185.8910  178.5350  141.6200 C   0  0  1  0  0  3  0  0  0  0  0  0
  184.4880  179.1590  139.5870 C   0  0  1  0  0  3  0  0  0  0  0  0
  182.0470  178.8530  140.2310 C   0  0  0  0  0  2  0  0  0  0  0  0
  183.7260  177.4470  141.2450 O   0  0  0  0  0  0  0  0  0  0  0  0
  183.0430  179.0330  139.0760 C   0  0  2  0  0  3  0  0  0  0  0  0
  184.8420  178.0620  140.6130 C   0  0  2  0  0  3  0  0  0  0  0  0
  182.7450  178.4180  141.5230 C   0  0  0  0  0  2  0  0  0  0  0  0
  185.4060  179.1680  138.5340 O   0  0  0  0  0  1  0  0  0  0  0  0
  183.1670  176.6320  138.4060 O   0  0  0  0  0  1  0  0  0  0  0  0
  182.4650  178.2040  136.8950 O   0  0  0  0  0  0  0  0  0  0  0  0
  182.8710  177.9430  138.0590 C   0  0  0  0  0  0  0  0  0  0  0  0
  187.1740  177.2780  143.4270 C   0  0  0  0  0  2  0  0  0  0  0  0
  186.6530  178.1580  144.5470 C   0  0  0  0  0  2  0  0  0  0  0  0
  186.2650  177.2940  145.7280 C   0  0  0  0  0  1  0  0  0  0  0  0
  1 21  1  1  0  0  0
  1 13  1  0  0  0  0
  2  7  1  6  0  0  0
  2  5  1  0  0  0  0
  3  2  1  0  0  0  0
  4  6  1  0  0  0  0
  5  3  1  6  0  0  0
  5  4  1  0  0  0  0
  5  6  1  0  0  0  0
  6  1  1  1  0  0  0
  7  8  1  6  0  0  0
 10  9  1  0  0  0  0
 10  7  1  0  0  0  0
 11 10  1  0  0  0  0
 11  9  1  0  0  0  0
 13 12  1  1  0  0  0
 13 14  1  0  0  0  0
 14 18  1  0  0  0  0
 15 17  1  0  0  0  0
 15 16  1  0  0  0  0
 16 14  1  6  0  0  0
 17 16  1  0  0  0  0
 18 20  1  0  0  0  0
 20 19  2  0  0  0  0
 21 35  1  1  0  0  0
 22 24  1  0  0  0  0
 22 21  1  0  0  0  0
 24 23  1  6  0  0  0
 25 31  1  6  0  0  0
 25 29  1  0  0  0  0
 26 30  1  0  0  0  0
 27 30  1  0  0  0  0
 28 34  1  6  0  0  0
 28 25  1  0  0  0  0
 28 26  1  0  0  0  0
 29 27  1  0  0  0  0
 29 24  1  1  0  0  0
 33 34  2  0  0  0  0
 34 32  1  0  0  0  0
 35 36  1  0  0  0  0
 36 37  1  0  0  0  0
M  END
>  <MODEL>
8

>  <REMARK>
 VINA RESULT:      -6.3      2.255      5.981
  Name = 
  15 active torsions:
  status: ('A' for Active; 'I' for Inactive)
    1  A    between atoms: C_1  and  C_5
    2  A    between atoms: C_5  and  C_26
    3  A    between atoms: C_8  and  C_19
    4  A    between atoms: N_9  and  C_13
    5  A    between atoms: N_9  and  C_16
    6  A    between atoms: N_9  and  C_30
    7  A    between atoms: O_10  and  C_29
    8  A    between atoms: O_10  and  C_37
    9  A    between atoms: C_13  and  C_20
   10  A    between atoms: C_14  and  C_37
   11  A    between atoms: C_16  and  C_24
   12  A    between atoms: C_20  and  C_25
   13  A    between atoms: C_20  and  C_29
   14  A    between atoms: C_27  and  C_33
   15  A    between atoms: C_29  and  C_33
                            x       y       z     vdW  Elec       q    Type
                         _______ _______ _______ _____ _____    ______ ____

>  <TORSDO>
F 15

$$$$
=
 OpenBabel10272415063D

 37 41  0  0  1  0  0  0  0  0999 V2000
  187.8150  177.7970  143.9390 C   0  0  1  0  0  3  0  0  0  0  0  0
  184.4060  178.0740  144.6670 C   0  0  2  0  0  3  0  0  0  0  0  0
  184.5160  178.4100  146.0990 C   0  0  0  0  0  2  0  0  0  0  0  0
  186.6700  177.6710  146.1120 C   0  0  0  0  0  2  0  0  0  0  0  0
  185.7700  178.5310  145.2160 C   0  0  2  0  0  0  0  0  0  0  0  0
  186.5630  177.3250  144.6850 C   0  0  1  0  0  3  0  0  0  0  0  0
  183.7310  179.1790  143.8350 C   0  0  2  0  0  3  0  0  0  0  0  0
  183.7480  180.4300  144.4670 O   0  0  0  0  0  1  0  0  0  0  0  0
  181.9880  179.1050  142.2290 O   0  0  0  0  0  0  0  0  0  0  0  0
  182.2970  178.7890  143.5350 C   0  0  0  0  0  3  0  0  0  0  0  0
  181.5710  179.9130  143.2150 O   0  0  0  0  0  0  0  0  0  0  0  0
  189.2990  175.9310  142.9760 C   0  0  0  0  0  1  0  0  0  0  0  0
  188.9770  176.8220  144.1790 C   0  0  1  0  0  3  0  0  0  0  0  0
  190.1470  177.4790  144.7940 N   0  0  0  0  0  0  0  0  0  0  0  0
  191.2520  178.4500  142.9740 O   0  0  0  0  0  0  0  0  0  0  0  0
  190.4440  178.7280  144.0940 C   0  0  2  0  0  3  0  0  0  0  0  0
  191.9020  178.9880  144.0990 C   0  0  0  0  0  2  0  0  0  0  0  0
  190.0330  177.6640  146.2550 C   0  0  0  0  0  2  0  0  0  0  0  0
  192.0430  176.5420  146.7860 O   0  0  0  0  0  0  0  0  0  0  0  0
  190.8660  176.7090  147.0620 C   0  0  0  0  0  3  0  0  0  0  0  0
  187.5860  178.0590  142.4360 C   0  0  1  0  0  3  0  0  0  0  0  0
  188.3990  177.2740  141.6080 O   0  0  0  0  0  0  0  0  0  0  0  0
  189.3350  178.9220  140.3330 O   0  0  0  0  0  1  0  0  0  0  0  0
  188.3750  177.9100  140.3630 C   0  0  1  0  0  3  0  0  0  0  0  0
  190.1290  176.8230  138.8700 C   0  0  1  0  0  3  0  0  0  0  0  0
  189.4870  177.3250  136.4610 C   0  0  0  0  0  2  0  0  0  0  0  0
  187.7570  177.1090  138.1300 O   0  0  0  0  0  0  0  0  0  0  0  0
  190.3490  176.4590  137.3920 C   0  0  2  0  0  3  0  0  0  0  0  0
  188.6320  176.9130  139.2330 C   0  0  2  0  0  3  0  0  0  0  0  0
  188.3420  178.0060  137.2150 C   0  0  0  0  0  2  0  0  0  0  0  0
  190.7950  175.9380  139.7210 O   0  0  0  0  0  1  0  0  0  0  0  0
  188.9240  174.5850  136.5640 O   0  0  0  0  0  0  0  0  0  0  0  0
  191.0310  174.1550  137.3550 O   0  0  0  0  0  1  0  0  0  0  0  0
  190.1320  175.0030  137.1070 C   0  0  0  0  0  0  0  0  0  0  0  0
  186.1130  177.9270  142.0540 C   0  0  0  0  0  2  0  0  0  0  0  0
  185.5820  179.1680  141.3600 C   0  0  0  0  0  2  0  0  0  0  0  0
  184.8070  178.7620  140.1250 C   0  0  0  0  0  1  0  0  0  0  0  0
  1 21  1  6  0  0  0
  1 13  1  0  0  0  0
  2  7  1  6  0  0  0
  2  5  1  0  0  0  0
  2  3  1  0  0  0  0
  5  3  1  1  0  0  0
  5  4  1  0  0  0  0
  6  1  1  6  0  0  0
  6  5  1  0  0  0  0
  6  4  1  0  0  0  0
  7  8  1  1  0  0  0
  9 11  1  0  0  0  0
  9 10  1  0  0  0  0
 10  7  1  0  0  0  0
 11 10  1  0  0  0  0
 13 12  1  6  0  0  0
 13 14  1  0  0  0  0
 14 18  1  0  0  0  0
 15 16  1  0  0  0  0
 15 17  1  0  0  0  0
 16 17  1  0  0  0  0
 16 14  1  1  0  0  0
 18 20  1  0  0  0  0
 19 20  2  0  0  0  0
 21 35  1  6  0  0  0
 22 21  1  0  0  0  0
 24 23  1  1  0  0  0
 24 22  1  0  0  0  0
 25 29  1  0  0  0  0
 25 31  1  1  0  0  0
 26 30  1  0  0  0  0
 26 28  1  0  0  0  0
 27 29  1  0  0  0  0
 28 34  1  1  0  0  0
 28 25  1  0  0  0  0
 29 24  1  1  0  0  0
 30 27  1  0  0  0  0
 32 34  2  0  0  0  0
 34 33  1  0  0  0  0
 36 35  1  0  0  0  0
 37 36  1  0  0  0  0
M  END
>  <MODEL>
9

>  <REMARK>
 VINA RESULT:      -6.1      1.249      1.892
  Name = 
  15 active torsions:
  status: ('A' for Active; 'I' for Inactive)
    1  A    between atoms: C_1  and  C_5
    2  A    between atoms: C_5  and  C_26
    3  A    between atoms: C_8  and  C_19
    4  A    between atoms: N_9  and  C_13
    5  A    between atoms: N_9  and  C_16
    6  A    between atoms: N_9  and  C_30
    7  A    between atoms: O_10  and  C_29
    8  A    between atoms: O_10  and  C_37
    9  A    between atoms: C_13  and  C_20
   10  A    between atoms: C_14  and  C_37
   11  A    between atoms: C_16  and  C_24
   12  A    between atoms: C_20  and  C_25
   13  A    between atoms: C_20  and  C_29
   14  A    between atoms: C_27  and  C_33
   15  A    between atoms: C_29  and  C_33
                            x       y       z     vdW  Elec       q    Type
                         _______ _______ _______ _____ _____    ______ ____

>  <TORSDO>
F 15

$$$$
