=
 OpenBabel10272400293D

 31 36  0  0  1  0  0  0  0  0999 V2000
  191.5020  177.1210  143.4960 C   0  0  2  0  0  3  0  0  0  0  0  0
  189.0320  177.4930  140.5950 N   0  0  0  0  0  0  0  0  0  0  0  0
  189.8560  177.6500  139.3870 C   0  0  1  0  0  3  0  0  0  0  0  0
  191.2160  176.1780  138.0230 C   0  0  0  0  0  0  0  0  0  0  0  0
  189.6220  176.9550  141.8300 C   0  0  1  0  0  3  0  0  0  0  0  0
  190.6220  176.1770  144.2040 N   0  0  0  0  0  2  0  0  0  0  0  0
  190.7770  176.5240  139.2010 N   0  0  0  0  0  0  0  0  0  0  0  0
  186.9580  178.0830  141.9330 C   0  0  2  0  0  3  0  0  0  0  0  0
  192.0090  178.1960  144.4400 C   0  0  0  0  0  1  0  0  0  0  0  0
  187.7880  178.2740  138.2280 N   0  0  0  0  0  0  0  0  0  0  0  0
  192.2150  175.0840  137.9040 C   0  0  0  0  0  1  0  0  0  0  0  0
  187.8590  178.1160  143.0120 O   0  0  0  0  0  0  0  0  0  0  0  0
  187.7140  178.0760  140.6280 C   0  0  0  0  0  0  0  0  0  0  0  0
  190.8460  177.7600  142.2630 C   0  0  0  0  0  2  0  0  0  0  0  0
  190.6830  176.7850  136.8300 N   0  0  0  0  0  0  0  0  0  0  0  0
  188.5920  176.9150  142.9830 C   0  0  2  0  0  3  0  0  0  0  0  0
  189.2720  176.7280  144.3470 C   0  0  0  0  0  2  0  0  0  0  0  0
  187.1180  178.4340  139.4850 C   0  0  0  0  0  3  0  0  0  0  0  0
  189.0170  177.8620  138.1540 C   0  0  0  0  0  0  0  0  0  0  0  0
  189.6410  177.5620  136.8640 C   0  0  0  0  0  3  0  0  0  0  0  0
  186.0740  179.2380  142.0110 N   0  0  0  0  0  2  0  0  0  0  0  0
  180.9640  178.3430  142.0910 C   0  0  0  0  0  0  0  0  0  0  0  0
  183.2410  178.5920  141.0450 C   0  0  0  0  0  2  0  0  0  0  0  0
  183.4660  179.2850  144.6510 N   0  0  0  0  0  0  0  0  0  0  0  0
  184.8790  179.4710  144.3190 C   0  0  0  0  0  2  0  0  0  0  0  0
  179.9830  177.6370  141.9260 O   0  0  0  0  0  0  0  0  0  0  0  0
  184.9090  179.2480  142.8380 C   0  0  0  0  0  0  0  0  0  0  0  0
  181.7350  178.8420  140.8920 C   0  0  0  0  0  2  0  0  0  0  0  0
  182.8250  179.0110  143.5650 C   0  0  0  0  0  0  0  0  0  0  0  0
  183.6890  179.0020  142.4120 C   0  0  0  0  0  0  0  0  0  0  0  0
  181.3490  178.7720  143.4850 C   0  0  0  0  0  2  0  0  0  0  0  0
  1  6  1  0  0  0  0
  1  9  1  1  0  0  0
  2 13  1  0  0  0  0
  2  5  1  0  0  0  0
  3 19  1  6  0  0  0
  3  2  1  0  0  0  0
  4  7  2  0  0  0  0
  5 14  1  1  0  0  0
  5 16  1  0  0  0  0
  6 17  1  0  0  0  0
  7  3  1  0  0  0  0
  8 21  1  6  0  0  0
  8 12  1  0  0  0  0
 10 18  1  0  0  0  0
 11  4  1  0  0  0  0
 13  8  1  0  0  0  0
 14  1  1  0  0  0  0
 15 20  2  0  0  0  0
 15  4  1  0  0  0  0
 16 12  1  0  0  0  0
 16 17  1  1  0  0  0
 18 13  2  0  0  0  0
 19 10  2  0  0  0  0
 20 19  1  0  0  0  0
 21 27  1  0  0  0  0
 22 31  1  0  0  0  0
 23 30  1  0  0  0  0
 25 24  1  0  0  0  0
 26 22  2  0  0  0  0
 27 25  1  0  0  0  0
 28 23  1  0  0  0  0
 28 22  1  0  0  0  0
 29 24  2  0  0  0  0
 30 27  2  0  0  0  0
 30 29  1  0  0  0  0
 31 29  1  0  0  0  0
M  END
>  <MODEL>
1

>  <REMARK>
 VINA RESULT:      -8.7      0.000      0.000
  Name = 
  2 active torsions:
  status: ('A' for Active; 'I' for Inactive)
    1  A    between atoms: C_9  and  N_23
    2  A    between atoms: C_15  and  N_23
                            x       y       z     vdW  Elec       q    Type
                         _______ _______ _______ _____ _____    ______ ____

>  <TORSDO>
F 2

$$$$
=
 OpenBabel10272400293D

 31 36  0  0  1  0  0  0  0  0999 V2000
  190.0300  176.3970  143.7650 C   0  0  2  0  0  3  0  0  0  0  0  0
  186.8950  178.2770  142.6260 N   0  0  0  0  0  0  0  0  0  0  0  0
  185.8670  177.9890  143.6370 C   0  0  1  0  0  3  0  0  0  0  0  0
  185.4450  178.6940  145.9180 C   0  0  0  0  0  0  0  0  0  0  0  0
  188.3160  178.0380  142.9230 C   0  0  1  0  0  3  0  0  0  0  0  0
  190.9210  177.4560  143.2650 N   0  0  0  0  0  2  0  0  0  0  0  0
  186.2990  178.3780  144.9840 N   0  0  0  0  0  0  0  0  0  0  0  0
  187.5480  178.6750  140.2060 C   0  0  2  0  0  3  0  0  0  0  0  0
  190.5160  175.0300  143.3230 C   0  0  0  0  0  1  0  0  0  0  0  0
  184.2590  178.9950  142.0860 N   0  0  0  0  0  0  0  0  0  0  0  0
  185.9350  178.9960  147.2880 C   0  0  0  0  0  1  0  0  0  0  0  0
  188.6410  177.8520  140.5330 O   0  0  0  0  0  0  0  0  0  0  0  0
  186.4900  178.5780  141.2760 C   0  0  0  0  0  0  0  0  0  0  0  0
  188.5600  176.5960  143.3660 C   0  0  0  0  0  2  0  0  0  0  0  0
  184.0430  178.8360  145.6180 N   0  0  0  0  0  0  0  0  0  0  0  0
  189.2160  178.3680  141.7090 C   0  0  2  0  0  3  0  0  0  0  0  0
  190.6210  177.7720  141.8650 C   0  0  0  0  0  2  0  0  0  0  0  0
  185.2250  178.9360  141.0280 C   0  0  0  0  0  3  0  0  0  0  0  0
  184.5450  178.6240  143.2960 C   0  0  0  0  0  0  0  0  0  0  0  0
  183.6000  178.8280  144.3960 C   0  0  0  0  0  3  0  0  0  0  0  0
  187.0130  178.2690  138.9130 N   0  0  0  0  0  2  0  0  0  0  0  0
  187.9610  174.6790  135.2890 C   0  0  0  0  0  0  0  0  0  0  0  0
  186.8370  175.6620  137.3170 C   0  0  0  0  0  2  0  0  0  0  0  0
  189.3900  178.0010  136.0750 N   0  0  0  0  0  0  0  0  0  0  0  0
  188.9020  178.8080  137.1950 C   0  0  0  0  0  2  0  0  0  0  0  0
  187.6360  173.9760  134.3470 O   0  0  0  0  0  0  0  0  0  0  0  0
  187.8610  177.9270  137.8160 C   0  0  0  0  0  0  0  0  0  0  0  0
  187.4000  174.3930  136.6620 C   0  0  0  0  0  2  0  0  0  0  0  0
  188.7490  176.8810  136.0700 C   0  0  0  0  0  0  0  0  0  0  0  0
  187.8030  176.7910  137.1540 C   0  0  0  0  0  0  0  0  0  0  0  0
  188.9770  175.7750  135.0870 C   0  0  0  0  0  2  0  0  0  0  0  0
  1  9  1  6  0  0  0
  2  5  1  0  0  0  0
  2  3  1  0  0  0  0
  3 19  1  6  0  0  0
  3  7  1  0  0  0  0
  4 11  1  0  0  0  0
  5 14  1  6  0  0  0
  6  1  1  0  0  0  0
  7  4  2  0  0  0  0
  8 21  1  6  0  0  0
  8 12  1  0  0  0  0
  8 13  1  0  0  0  0
 10 19  2  0  0  0  0
 12 16  1  0  0  0  0
 13  2  1  0  0  0  0
 14  1  1  0  0  0  0
 15  4  1  0  0  0  0
 16 17  1  1  0  0  0
 16  5  1  0  0  0  0
 17  6  1  0  0  0  0
 18 13  2  0  0  0  0
 18 10  1  0  0  0  0
 19 20  1  0  0  0  0
 20 15  2  0  0  0  0
 22 28  1  0  0  0  0
 24 25  1  0  0  0  0
 25 27  1  0  0  0  0
 26 22  2  0  0  0  0
 27 21  1  0  0  0  0
 28 23  1  0  0  0  0
 29 24  2  0  0  0  0
 29 30  1  0  0  0  0
 30 23  1  0  0  0  0
 30 27  2  0  0  0  0
 31 22  1  0  0  0  0
 31 29  1  0  0  0  0
M  END
>  <MODEL>
2

>  <REMARK>
 VINA RESULT:      -8.6      2.609      7.080
  Name = 
  2 active torsions:
  status: ('A' for Active; 'I' for Inactive)
    1  A    between atoms: C_9  and  N_23
    2  A    between atoms: C_15  and  N_23
                            x       y       z     vdW  Elec       q    Type
                         _______ _______ _______ _____ _____    ______ ____

>  <TORSDO>
F 2

$$$$
=
 OpenBabel10272400293D

 31 36  0  0  1  0  0  0  0  0999 V2000
  186.8110  175.8210  136.0260 C   0  0  2  0  0  3  0  0  0  0  0  0
  189.6300  177.0330  138.3160 N   0  0  0  0  0  0  0  0  0  0  0  0
  190.8000  176.2100  137.9790 C   0  0  1  0  0  3  0  0  0  0  0  0
  192.3640  176.1100  136.1290 C   0  0  0  0  0  0  0  0  0  0  0  0
  188.4860  177.1100  137.3940 C   0  0  1  0  0  3  0  0  0  0  0  0
  186.2510  177.1770  135.8960 N   0  0  0  0  0  2  0  0  0  0  0  0
  191.1480  176.3080  136.5570 N   0  0  0  0  0  0  0  0  0  0  0  0
  188.2220  178.2500  140.0420 C   0  0  2  0  0  3  0  0  0  0  0  0
  185.7190  174.8140  136.3340 C   0  0  0  0  0  1  0  0  0  0  0  0
  191.8570  177.1400  139.9850 N   0  0  0  0  0  0  0  0  0  0  0  0
  192.6410  176.1380  134.6690 C   0  0  0  0  0  1  0  0  0  0  0  0
  187.1480  177.6930  139.3230 O   0  0  0  0  0  0  0  0  0  0  0  0
  189.5120  177.5780  139.6450 C   0  0  0  0  0  0  0  0  0  0  0  0
  187.9380  175.7220  137.0650 C   0  0  0  0  0  2  0  0  0  0  0  0
  193.4550  175.9500  137.0560 N   0  0  0  0  0  0  0  0  0  0  0  0
  187.3520  177.9950  137.9640 C   0  0  2  0  0  3  0  0  0  0  0  0
  186.0310  177.7780  137.2150 C   0  0  0  0  0  2  0  0  0  0  0  0
  190.5910  177.6390  140.4350 C   0  0  0  0  0  3  0  0  0  0  0  0
  191.9890  176.5370  138.8430 C   0  0  0  0  0  0  0  0  0  0  0  0
  193.3080  176.1640  138.3300 C   0  0  0  0  0  3  0  0  0  0  0  0
  187.9750  178.0940  141.4690 N   0  0  0  0  0  2  0  0  0  0  0  0
  185.3860  178.3820  145.9560 C   0  0  0  0  0  0  0  0  0  0  0  0
  187.3320  177.8380  144.4520 C   0  0  0  0  0  2  0  0  0  0  0  0
  184.5720  179.2100  142.4420 N   0  0  0  0  0  0  0  0  0  0  0  0
  185.5370  179.0160  141.3580 C   0  0  0  0  0  3  0  0  0  0  0  0
  185.2310  178.7900  147.0950 O   0  0  0  0  0  0  0  0  0  0  0  0
  186.7160  178.4130  142.0610 C   0  0  0  0  0  0  0  0  0  0  0  0
  186.4930  177.3980  145.6590 C   0  0  0  0  0  2  0  0  0  0  0  0
  185.1050  178.7940  143.5410 C   0  0  2  0  0  3  0  0  0  0  0  0
  186.4320  178.2710  143.3380 C   0  0  0  0  0  0  0  0  0  0  0  0
  184.4240  178.8070  144.8740 C   0  0  0  0  0  2  0  0  0  0  0  0
  1  9  1  1  0  0  0
  1 14  1  0  0  0  0
  2 13  1  0  0  0  0
  3  7  1  6  0  0  0
  3  2  1  0  0  0  0
  3 19  1  0  0  0  0
  4  7  2  0  0  0  0
  4 15  1  0  0  0  0
  5 14  1  1  0  0  0
  5 16  1  0  0  0  0
  5  2  1  0  0  0  0
  6  1  1  0  0  0  0
  6 17  1  0  0  0  0
  8 21  1  1  0  0  0
 10 18  1  0  0  0  0
 11  4  1  0  0  0  0
 12  8  1  0  0  0  0
 13  8  1  0  0  0  0
 13 18  2  0  0  0  0
 15 20  2  0  0  0  0
 16 17  1  6  0  0  0
 16 12  1  0  0  0  0
 19 10  2  0  0  0  0
 20 19  1  0  0  0  0
 21 27  1  0  0  0  0
 22 26  2  0  0  0  0
 23 28  1  0  0  0  0
 24 29  1  0  0  0  0
 25 27  1  0  0  0  0
 25 24  2  0  0  0  0
 27 30  2  0  0  0  0
 28 22  1  0  0  0  0
 29 31  1  6  0  0  0
 30 29  1  0  0  0  0
 30 23  1  0  0  0  0
 31 22  1  0  0  0  0
M  END
>  <MODEL>
3

>  <REMARK>
 VINA RESULT:      -8.4      2.668      5.028
  Name = 
  2 active torsions:
  status: ('A' for Active; 'I' for Inactive)
    1  A    between atoms: C_9  and  N_23
    2  A    between atoms: C_15  and  N_23
                            x       y       z     vdW  Elec       q    Type
                         _______ _______ _______ _____ _____    ______ ____

>  <TORSDO>
F 2

$$$$
=
 OpenBabel10272400293D

 31 36  0  0  1  0  0  0  0  0999 V2000
  182.6930  177.6880  138.4200 C   0  0  2  0  0  3  0  0  0  0  0  0
  186.4310  178.1440  139.1090 N   0  0  0  0  0  0  0  0  0  0  0  0
  187.1260  177.4970  137.9860 C   0  0  1  0  0  3  0  0  0  0  0  0
  187.5050  178.0310  135.6520 C   0  0  0  0  0  0  0  0  0  0  0  0
  185.0070  178.4940  138.9970 C   0  0  1  0  0  3  0  0  0  0  0  0
  182.3640  179.0020  138.9980 N   0  0  0  0  0  2  0  0  0  0  0  0
  186.7200  178.0570  136.6930 N   0  0  0  0  0  0  0  0  0  0  0  0
  186.2970  178.7090  141.5800 C   0  0  2  0  0  3  0  0  0  0  0  0
  181.7640  176.6150  138.9570 C   0  0  0  0  0  1  0  0  0  0  0  0
  189.1810  177.7460  139.2980 N   0  0  0  0  0  0  0  0  0  0  0  0
  187.0080  178.5360  134.3460 C   0  0  0  0  0  1  0  0  0  0  0  0
  184.9360  178.3950  141.4130 O   0  0  0  0  0  0  0  0  0  0  0  0
  187.0880  178.2270  140.3900 C   0  0  0  0  0  0  0  0  0  0  0  0
  184.1590  177.2790  138.6280 C   0  0  0  0  0  2  0  0  0  0  0  0
  188.8740  177.5990  135.7720 N   0  0  0  0  0  0  0  0  0  0  0  0
  184.4710  179.1250  140.3040 C   0  0  2  0  0  3  0  0  0  0  0  0
  182.9360  179.1390  140.3400 C   0  0  0  0  0  2  0  0  0  0  0  0
  188.4110  178.0480  140.4690 C   0  0  0  0  0  3  0  0  0  0  0  0
  188.6230  177.5480  138.1430 C   0  0  0  0  0  0  0  0  0  0  0  0
  189.4260  177.3860  136.9300 C   0  0  0  0  0  3  0  0  0  0  0  0
  186.7840  178.0940  142.8070 N   0  0  0  0  0  2  0  0  0  0  0  0
  187.6360  178.0780  147.9250 C   0  0  0  0  0  0  0  0  0  0  0  0
  188.1640  177.6360  145.5020 C   0  0  0  0  0  2  0  0  0  0  0  0
  184.8190  179.1460  145.7750 N   0  0  0  0  0  0  0  0  0  0  0  0
  184.8700  179.0240  144.3170 C   0  0  0  0  0  3  0  0  0  0  0  0
  188.2560  178.4070  148.9230 O   0  0  0  0  0  0  0  0  0  0  0  0
  186.1990  178.3740  144.0790 C   0  0  0  0  0  0  0  0  0  0  0  0
  188.2600  177.1150  146.9420 C   0  0  0  0  0  2  0  0  0  0  0  0
  185.9090  178.6550  146.2630 C   0  0  2  0  0  3  0  0  0  0  0  0
  186.7820  178.1450  145.2360 C   0  0  0  0  0  0  0  0  0  0  0  0
  186.2270  178.5770  147.7230 C   0  0  0  0  0  2  0  0  0  0  0  0
  1 14  1  0  0  0  0
  1  9  1  1  0  0  0
  1  6  1  0  0  0  0
  2 13  1  0  0  0  0
  3  7  1  6  0  0  0
  3 19  1  0  0  0  0
  3  2  1  0  0  0  0
  4 15  1  0  0  0  0
  4  7  2  0  0  0  0
  5 14  1  1  0  0  0
  5  2  1  0  0  0  0
  5 16  1  0  0  0  0
  6 17  1  0  0  0  0
  8 21  1  1  0  0  0
 10 18  1  0  0  0  0
 11  4  1  0  0  0  0
 12  8  1  0  0  0  0
 13 18  2  0  0  0  0
 13  8  1  0  0  0  0
 15 20  2  0  0  0  0
 16 17  1  6  0  0  0
 16 12  1  0  0  0  0
 19 10  2  0  0  0  0
 20 19  1  0  0  0  0
 21 27  1  0  0  0  0
 22 26  2  0  0  0  0
 23 28  1  0  0  0  0
 24 29  1  0  0  0  0
 25 24  2  0  0  0  0
 27 25  1  0  0  0  0
 27 30  2  0  0  0  0
 28 22  1  0  0  0  0
 29 31  1  1  0  0  0
 30 23  1  0  0  0  0
 30 29  1  0  0  0  0
 31 22  1  0  0  0  0
M  END
>  <MODEL>
4

>  <REMARK>
 VINA RESULT:      -8.2      2.568      5.898
  Name = 
  2 active torsions:
  status: ('A' for Active; 'I' for Inactive)
    1  A    between atoms: C_9  and  N_23
    2  A    between atoms: C_15  and  N_23
                            x       y       z     vdW  Elec       q    Type
                         _______ _______ _______ _____ _____    ______ ____

>  <TORSDO>
F 2

$$$$
=
 OpenBabel10272400293D

 31 36  0  0  1  0  0  0  0  0999 V2000
  188.5690  177.2450  136.0880 C   0  0  2  0  0  3  0  0  0  0  0  0
  186.5810  178.0400  139.2630 N   0  0  0  0  0  0  0  0  0  0  0  0
  185.3540  178.7090  138.8080 C   0  0  1  0  0  3  0  0  0  0  0  0
  183.3060  178.0040  137.7190 C   0  0  0  0  0  0  0  0  0  0  0  0
  187.3970  177.2630  138.3160 C   0  0  1  0  0  3  0  0  0  0  0  0
  189.0800  175.9840  136.6510 N   0  0  0  0  0  2  0  0  0  0  0  0
  184.5960  177.8830  137.8620 N   0  0  0  0  0  0  0  0  0  0  0  0
  188.4560  177.7990  140.9570 C   0  0  2  0  0  3  0  0  0  0  0  0
  189.6910  178.0480  135.4590 C   0  0  0  0  0  1  0  0  0  0  0  0
  184.9580  179.2730  141.1600 N   0  0  0  0  0  0  0  0  0  0  0  0
  182.6040  177.2010  136.6840 C   0  0  0  0  0  1  0  0  0  0  0  0
  189.2580  177.6610  139.8090 O   0  0  0  0  0  0  0  0  0  0  0  0
  187.0990  178.3330  140.5760 C   0  0  0  0  0  0  0  0  0  0  0  0
  187.8040  178.1030  137.1070 C   0  0  0  0  0  2  0  0  0  0  0  0
  182.5410  178.8430  138.6060 N   0  0  0  0  0  0  0  0  0  0  0  0
  188.6590  176.6820  138.9950 C   0  0  2  0  0  3  0  0  0  0  0  0
  189.6930  176.2090  137.9630 C   0  0  0  0  0  2  0  0  0  0  0  0
  186.3070  178.9130  141.4860 C   0  0  0  0  0  3  0  0  0  0  0  0
  184.4830  179.1350  139.9600 C   0  0  0  0  0  0  0  0  0  0  0  0
  183.0660  179.3670  139.6740 C   0  0  0  0  0  3  0  0  0  0  0  0
  189.1170  178.6930  141.8980 N   0  0  0  0  0  2  0  0  0  0  0  0
  189.1230  177.0070  146.8050 C   0  0  0  0  0  0  0  0  0  0  0  0
  188.1310  177.9960  144.7120 C   0  0  0  0  0  2  0  0  0  0  0  0
  191.7100  177.3290  144.1770 N   0  0  0  0  0  0  0  0  0  0  0  0
  191.3990  177.8540  142.8460 C   0  0  0  0  0  3  0  0  0  0  0  0
  188.7530  176.2620  147.6970 O   0  0  0  0  0  0  0  0  0  0  0  0
  189.9460  178.2040  142.9540 C   0  0  0  0  0  0  0  0  0  0  0  0
  188.1670  178.0340  146.2460 C   0  0  0  0  0  2  0  0  0  0  0  0
  190.6380  177.3770  144.8950 C   0  0  2  0  0  3  0  0  0  0  0  0
  189.5240  177.9370  144.1710 C   0  0  0  0  0  0  0  0  0  0  0  0
  190.5530  176.9450  146.3260 C   0  0  0  0  0  2  0  0  0  0  0  0
  1  9  1  1  0  0  0
  1  6  1  0  0  0  0
  1 14  1  0  0  0  0
  2 13  1  0  0  0  0
  3  7  1  6  0  0  0
  3  2  1  0  0  0  0
  3 19  1  0  0  0  0
  4  7  2  0  0  0  0
  4 15  1  0  0  0  0
  5 14  1  6  0  0  0
  5 16  1  0  0  0  0
  5  2  1  0  0  0  0
  6 17  1  0  0  0  0
  8 21  1  1  0  0  0
 10 18  1  0  0  0  0
 11  4  1  0  0  0  0
 12  8  1  0  0  0  0
 13  8  1  0  0  0  0
 13 18  2  0  0  0  0
 15 20  2  0  0  0  0
 16 17  1  6  0  0  0
 16 12  1  0  0  0  0
 19 10  2  0  0  0  0
 20 19  1  0  0  0  0
 21 27  1  0  0  0  0
 22 26  2  0  0  0  0
 23 28  1  0  0  0  0
 24 29  1  0  0  0  0
 25 27  1  0  0  0  0
 25 24  2  0  0  0  0
 27 30  2  0  0  0  0
 28 22  1  0  0  0  0
 29 31  1  1  0  0  0
 30 23  1  0  0  0  0
 30 29  1  0  0  0  0
 31 22  1  0  0  0  0
M  END
>  <MODEL>
5

>  <REMARK>
 VINA RESULT:      -8.0      2.803      6.754
  Name = 
  2 active torsions:
  status: ('A' for Active; 'I' for Inactive)
    1  A    between atoms: C_9  and  N_23
    2  A    between atoms: C_15  and  N_23
                            x       y       z     vdW  Elec       q    Type
                         _______ _______ _______ _____ _____    ______ ____

>  <TORSDO>
F 2

$$$$
=
 OpenBabel10272400293D

 31 36  0  0  1  0  0  0  0  0999 V2000
  191.5960  177.3790  143.2470 C   0  0  2  0  0  3  0  0  0  0  0  0
  189.4600  177.3040  140.0720 N   0  0  0  0  0  0  0  0  0  0  0  0
  190.4100  177.3300  138.9500 C   0  0  1  0  0  3  0  0  0  0  0  0
  191.9370  175.7380  137.9450 C   0  0  0  0  0  0  0  0  0  0  0  0
  189.9160  176.9460  141.4230 C   0  0  1  0  0  3  0  0  0  0  0  0
  190.6580  176.5070  143.9730 N   0  0  0  0  0  2  0  0  0  0  0  0
  191.3640  176.2170  139.0140 N   0  0  0  0  0  0  0  0  0  0  0  0
  187.2400  177.9980  141.0890 C   0  0  2  0  0  3  0  0  0  0  0  0
  191.9780  178.5800  144.0920 C   0  0  0  0  0  1  0  0  0  0  0  0
  188.4750  177.7390  137.5030 N   0  0  0  0  0  0  0  0  0  0  0  0
  192.9590  174.6670  138.0790 C   0  0  0  0  0  1  0  0  0  0  0  0
  188.0150  178.1950  142.2460 O   0  0  0  0  0  0  0  0  0  0  0  0
  188.1370  177.8470  139.8860 C   0  0  0  0  0  0  0  0  0  0  0  0
  191.0720  177.8360  141.8780 C   0  0  0  0  0  2  0  0  0  0  0  0
  191.5300  176.1710  136.6320 N   0  0  0  0  0  0  0  0  0  0  0  0
  188.7650  177.0230  142.4530 C   0  0  2  0  0  3  0  0  0  0  0  0
  189.2920  177.0310  143.8950 C   0  0  0  0  0  2  0  0  0  0  0  0
  187.6660  178.0390  138.6480 C   0  0  0  0  0  3  0  0  0  0  0  0
  189.7110  177.3580  137.6170 C   0  0  0  0  0  0  0  0  0  0  0  0
  190.4780  176.9140  136.4520 C   0  0  0  0  0  3  0  0  0  0  0  0
  186.3350  179.1270  140.9200 N   0  0  0  0  0  2  0  0  0  0  0  0
  181.7410  178.8640  143.3160 C   0  0  0  0  0  0  0  0  0  0  0  0
  184.2500  179.0130  143.1590 C   0  0  0  0  0  2  0  0  0  0  0  0
  182.8200  178.7970  139.7760 N   0  0  0  0  0  0  0  0  0  0  0  0
  184.2300  178.8940  139.3960 C   0  0  0  0  0  3  0  0  0  0  0  0
  180.8680  179.3110  144.0410 O   0  0  0  0  0  0  0  0  0  0  0  0
  184.9330  178.9510  140.7180 C   0  0  0  0  0  0  0  0  0  0  0  0
  183.0540  178.4180  143.9150 C   0  0  0  0  0  2  0  0  0  0  0  0
  182.7440  178.7970  141.0650 C   0  0  2  0  0  3  0  0  0  0  0  0
  184.0440  178.8690  141.6850 C   0  0  0  0  0  0  0  0  0  0  0  0
  181.4690  178.6910  141.8420 C   0  0  0  0  0  2  0  0  0  0  0  0
  1  6  1  0  0  0  0
  1  9  1  1  0  0  0
  2  5  1  0  0  0  0
  3 19  1  6  0  0  0
  3  7  1  0  0  0  0
  3  2  1  0  0  0  0
  4 11  1  0  0  0  0
  4  7  2  0  0  0  0
  5 14  1  1  0  0  0
  5 16  1  0  0  0  0
  8 21  1  6  0  0  0
  8 12  1  0  0  0  0
 10 19  2  0  0  0  0
 10 18  1  0  0  0  0
 12 16  1  0  0  0  0
 13  2  1  0  0  0  0
 13  8  1  0  0  0  0
 14  1  1  0  0  0  0
 15  4  1  0  0  0  0
 16 17  1  1  0  0  0
 17  6  1  0  0  0  0
 18 13  2  0  0  0  0
 20 15  2  0  0  0  0
 20 19  1  0  0  0  0
 22 28  1  0  0  0  0
 22 26  2  0  0  0  0
 23 28  1  0  0  0  0
 24 29  1  0  0  0  0
 25 24  2  0  0  0  0
 25 27  1  0  0  0  0
 27 21  1  0  0  0  0
 27 30  2  0  0  0  0
 29 30  1  0  0  0  0
 29 31  1  1  0  0  0
 30 23  1  0  0  0  0
 31 22  1  0  0  0  0
M  END
>  <MODEL>
6

>  <REMARK>
 VINA RESULT:      -7.9      1.253      1.840
  Name = 
  2 active torsions:
  status: ('A' for Active; 'I' for Inactive)
    1  A    between atoms: C_9  and  N_23
    2  A    between atoms: C_15  and  N_23
                            x       y       z     vdW  Elec       q    Type
                         _______ _______ _______ _____ _____    ______ ____

>  <TORSDO>
F 2

$$$$
=
 OpenBabel10272400293D

 31 36  0  0  1  0  0  0  0  0999 V2000
  180.5290  176.2150  139.7250 C   0  0  2  0  0  3  0  0  0  0  0  0
  183.9570  177.7860  139.0580 N   0  0  0  0  0  0  0  0  0  0  0  0
  184.4630  177.1370  137.8400 C   0  0  1  0  0  3  0  0  0  0  0  0
  183.9550  177.2730  135.4740 C   0  0  0  0  0  0  0  0  0  0  0  0
  182.5280  177.7110  139.3990 C   0  0  1  0  0  3  0  0  0  0  0  0
  179.9820  177.4800  140.2420 N   0  0  0  0  0  2  0  0  0  0  0  0
  183.5410  177.2960  136.7100 N   0  0  0  0  0  0  0  0  0  0  0  0
  184.3750  178.7780  141.3570 C   0  0  2  0  0  3  0  0  0  0  0  0
  180.1900  175.0630  140.6520 C   0  0  0  0  0  1  0  0  0  0  0  0
  186.6190  178.1860  138.3460 N   0  0  0  0  0  0  0  0  0  0  0  0
  182.9650  177.3540  134.3680 C   0  0  0  0  0  1  0  0  0  0  0  0
  183.1980  178.0840  141.6940 O   0  0  0  0  0  0  0  0  0  0  0  0
  184.8950  178.2970  140.0260 C   0  0  0  0  0  0  0  0  0  0  0  0
  182.0430  176.2640  139.4660 C   0  0  0  0  0  2  0  0  0  0  0  0
  185.3630  177.2580  135.1670 N   0  0  0  0  0  0  0  0  0  0  0  0
  182.2230  178.4240  140.7380 C   0  0  2  0  0  3  0  0  0  0  0  0
  180.8450  178.0330  141.2900 C   0  0  0  0  0  2  0  0  0  0  0  0
  186.1690  178.5000  139.6710 C   0  0  0  0  0  3  0  0  0  0  0  0
  185.8420  177.6180  137.4750 C   0  0  0  0  0  0  0  0  0  0  0  0
  186.2650  177.4370  136.0850 C   0  0  0  0  0  3  0  0  0  0  0  0
  185.3670  178.5760  142.4040 N   0  0  0  0  0  2  0  0  0  0  0  0
  187.2350  178.0720  147.2180 C   0  0  0  0  0  0  0  0  0  0  0  0
  187.2820  177.9300  144.7030 C   0  0  0  0  0  2  0  0  0  0  0  0
  183.9940  179.1640  145.8010 N   0  0  0  0  0  0  0  0  0  0  0  0
  183.7550  179.2030  144.3580 C   0  0  0  0  0  3  0  0  0  0  0  0
  188.0270  178.3350  148.1070 O   0  0  0  0  0  0  0  0  0  0  0  0
  185.0380  178.6760  143.7890 C   0  0  0  0  0  0  0  0  0  0  0  0
  187.6920  177.2660  146.0250 C   0  0  0  0  0  2  0  0  0  0  0  0
  185.1820  178.7010  146.0050 C   0  0  2  0  0  3  0  0  0  0  0  0
  185.8530  178.3660  144.7750 C   0  0  0  0  0  0  0  0  0  0  0  0
  185.7920  178.4900  147.3560 C   0  0  0  0  0  2  0  0  0  0  0  0
  1  6  1  0  0  0  0
  1  9  1  1  0  0  0
  2  5  1  0  0  0  0
  2 13  1  0  0  0  0
  3  7  1  6  0  0  0
  3  2  1  0  0  0  0
  4  7  2  0  0  0  0
  5 14  1  1  0  0  0
  5 16  1  0  0  0  0
  6 17  1  0  0  0  0
  8 12  1  0  0  0  0
  8 21  1  1  0  0  0
 10 18  1  0  0  0  0
 11  4  1  0  0  0  0
 13  8  1  0  0  0  0
 14  1  1  0  0  0  0
 15  4  1  0  0  0  0
 15 20  2  0  0  0  0
 16 17  1  1  0  0  0
 16 12  1  0  0  0  0
 18 13  2  0  0  0  0
 19  3  1  0  0  0  0
 19 10  2  0  0  0  0
 20 19  1  0  0  0  0
 21 27  1  0  0  0  0
 22 31  1  0  0  0  0
 22 26  2  0  0  0  0
 23 30  1  0  0  0  0
 23 28  1  0  0  0  0
 24 29  1  0  0  0  0
 25 24  2  0  0  0  0
 27 25  1  0  0  0  0
 27 30  2  0  0  0  0
 28 22  1  0  0  0  0
 29 31  1  1  0  0  0
 30 29  1  0  0  0  0
M  END
>  <MODEL>
7

>  <REMARK>
 VINA RESULT:      -7.9      3.355      6.740
  Name = 
  2 active torsions:
  status: ('A' for Active; 'I' for Inactive)
    1  A    between atoms: C_9  and  N_23
    2  A    between atoms: C_15  and  N_23
                            x       y       z     vdW  Elec       q    Type
                         _______ _______ _______ _____ _____    ______ ____

>  <TORSDO>
F 2

$$$$
=
 OpenBabel10272400293D

 31 36  0  0  1  0  0  0  0  0999 V2000
  191.0350  176.9900  146.0940 C   0  0  2  0  0  3  0  0  0  0  0  0
  188.0540  177.9870  143.9080 N   0  0  0  0  0  0  0  0  0  0  0  0
  186.8620  177.7890  144.7440 C   0  0  1  0  0  3  0  0  0  0  0  0
  185.8580  178.9500  146.6210 C   0  0  0  0  0  0  0  0  0  0  0  0
  189.3870  178.0660  144.5240 C   0  0  1  0  0  3  0  0  0  0  0  0
  191.8950  178.0270  145.5000 N   0  0  0  0  0  2  0  0  0  0  0  0
  186.9300  178.5610  145.9900 N   0  0  0  0  0  0  0  0  0  0  0  0
  189.1910  177.8830  141.6410 C   0  0  2  0  0  3  0  0  0  0  0  0
  191.7560  175.6560  146.1440 C   0  0  0  0  0  1  0  0  0  0  0  0
  185.5470  178.1040  142.7000 N   0  0  0  0  0  0  0  0  0  0  0  0
  185.9870  179.6550  147.9220 C   0  0  0  0  0  1  0  0  0  0  0  0
  190.2650  177.3590  142.3830 O   0  0  0  0  0  0  0  0  0  0  0  0
  187.9350  177.8760  142.4750 C   0  0  0  0  0  0  0  0  0  0  0  0
  189.6810  176.8380  145.3830 C   0  0  0  0  0  2  0  0  0  0  0  0
  184.5530  178.7800  146.0320 N   0  0  0  0  0  0  0  0  0  0  0  0
  190.4980  178.2350  143.4600 C   0  0  2  0  0  3  0  0  0  0  0  0
  191.8880  177.9360  144.0370 C   0  0  0  0  0  2  0  0  0  0  0  0
  186.7280  177.9480  141.9030 C   0  0  0  0  0  3  0  0  0  0  0  0
  185.5900  178.0930  143.9980 C   0  0  0  0  0  0  0  0  0  0  0  0
  184.4030  178.3990  144.7990 C   0  0  0  0  0  3  0  0  0  0  0  0
  189.0130  177.0910  140.4320 N   0  0  0  0  0  2  0  0  0  0  0  0
  188.9810  176.0460  135.3500 C   0  0  0  0  0  0  0  0  0  0  0  0
  189.0460  175.5100  137.8100 C   0  0  0  0  0  2  0  0  0  0  0  0
  188.9800  179.1600  137.3510 N   0  0  0  0  0  0  0  0  0  0  0  0
  188.9890  179.1380  138.8150 C   0  0  0  0  0  2  0  0  0  0  0  0
  188.4930  175.5540  134.3460 O   0  0  0  0  0  0  0  0  0  0  0  0
  189.0550  177.6740  139.1300 C   0  0  0  0  0  0  0  0  0  0  0  0
  189.5680  175.1470  136.4130 C   0  0  0  0  0  2  0  0  0  0  0  0
  189.0320  177.9420  136.9250 C   0  0  0  0  0  0  0  0  0  0  0  0
  189.1030  176.9910  138.0060 C   0  0  0  0  0  0  0  0  0  0  0  0
  189.0620  177.5470  135.4820 C   0  0  0  0  0  2  0  0  0  0  0  0
  1  9  1  6  0  0  0
  2  5  1  0  0  0  0
  2  3  1  0  0  0  0
  3 19  1  6  0  0  0
  3  7  1  0  0  0  0
  4 11  1  0  0  0  0
  5 14  1  6  0  0  0
  6  1  1  0  0  0  0
  7  4  2  0  0  0  0
  8 21  1  6  0  0  0
  8 12  1  0  0  0  0
  8 13  1  0  0  0  0
 10 19  2  0  0  0  0
 12 16  1  0  0  0  0
 13  2  1  0  0  0  0
 14  1  1  0  0  0  0
 15  4  1  0  0  0  0
 16 17  1  1  0  0  0
 16  5  1  0  0  0  0
 17  6  1  0  0  0  0
 18 13  2  0  0  0  0
 18 10  1  0  0  0  0
 19 20  1  0  0  0  0
 20 15  2  0  0  0  0
 22 31  1  0  0  0  0
 22 28  1  0  0  0  0
 23 30  1  0  0  0  0
 24 25  1  0  0  0  0
 25 27  1  0  0  0  0
 26 22  2  0  0  0  0
 27 21  1  0  0  0  0
 28 23  1  0  0  0  0
 29 24  2  0  0  0  0
 29 30  1  0  0  0  0
 30 27  2  0  0  0  0
 31 29  1  0  0  0  0
M  END
>  <MODEL>
8

>  <REMARK>
 VINA RESULT:      -7.9      2.864      7.167
  Name = 
  2 active torsions:
  status: ('A' for Active; 'I' for Inactive)
    1  A    between atoms: C_9  and  N_23
    2  A    between atoms: C_15  and  N_23
                            x       y       z     vdW  Elec       q    Type
                         _______ _______ _______ _____ _____    ______ ____

>  <TORSDO>
F 2

$$$$
=
 OpenBabel10272400293D

 31 36  0  0  1  0  0  0  0  0999 V2000
  185.8830  174.0780  136.7020 C   0  0  2  0  0  3  0  0  0  0  0  0
  189.2630  175.7440  137.3800 N   0  0  0  0  0  0  0  0  0  0  0  0
  190.2410  174.6490  137.4520 C   0  0  1  0  0  3  0  0  0  0  0  0
  191.3040  173.1750  135.8480 C   0  0  0  0  0  0  0  0  0  0  0  0
  187.9440  175.5220  136.7670 C   0  0  1  0  0  3  0  0  0  0  0  0
  185.4320  175.1960  135.8570 N   0  0  0  0  0  2  0  0  0  0  0  0
  190.2480  173.8370  136.2310 N   0  0  0  0  0  0  0  0  0  0  0  0
  188.4220  177.9980  138.1900 C   0  0  2  0  0  3  0  0  0  0  0  0
  184.8100  173.6930  137.7030 C   0  0  0  0  0  1  0  0  0  0  0  0
  191.8240  176.3070  138.3190 N   0  0  0  0  0  0  0  0  0  0  0  0
  191.2270  172.3010  134.6480 C   0  0  0  0  0  1  0  0  0  0  0  0
  187.1620  177.3760  138.1100 O   0  0  0  0  0  0  0  0  0  0  0  0
  189.5150  176.9620  138.1080 C   0  0  0  0  0  0  0  0  0  0  0  0
  187.2120  174.3530  137.4230 C   0  0  0  0  0  2  0  0  0  0  0  0
  192.5660  173.3450  136.5230 N   0  0  0  0  0  0  0  0  0  0  0  0
  187.0630  176.7920  136.8340 C   0  0  2  0  0  3  0  0  0  0  0  0
  185.5870  176.4750  136.5580 C   0  0  0  0  0  2  0  0  0  0  0  0
  190.7510  177.2310  138.5430 C   0  0  0  0  0  3  0  0  0  0  0  0
  191.6260  175.1470  137.7700 C   0  0  0  0  0  0  0  0  0  0  0  0
  192.7460  174.2750  137.4120 C   0  0  0  0  0  3  0  0  0  0  0  0
  188.5090  178.7440  139.4370 N   0  0  0  0  0  2  0  0  0  0  0  0
  188.6820  176.8590  144.2680 C   0  0  0  0  0  0  0  0  0  0  0  0
  189.5990  177.4880  142.0080 C   0  0  0  0  0  2  0  0  0  0  0  0
  185.9970  178.2320  142.1210 N   0  0  0  0  0  0  0  0  0  0  0  0
  186.2600  178.7000  140.7600 C   0  0  0  0  0  3  0  0  0  0  0  0
  189.0810  176.8630  145.4210 O   0  0  0  0  0  0  0  0  0  0  0  0
  187.7190  178.4090  140.5790 C   0  0  0  0  0  0  0  0  0  0  0  0
  189.6230  176.4670  143.1540 C   0  0  0  0  0  2  0  0  0  0  0  0
  187.0970  177.7650  142.6110 C   0  0  2  0  0  3  0  0  0  0  0  0
  188.1860  177.8390  141.6690 C   0  0  0  0  0  0  0  0  0  0  0  0
  187.2350  177.1720  143.9780 C   0  0  0  0  0  2  0  0  0  0  0  0
  1 14  1  0  0  0  0
  1  9  1  1  0  0  0
  2  3  1  0  0  0  0
  2 13  1  0  0  0  0
  3  7  1  6  0  0  0
  3 19  1  0  0  0  0
  4  7  2  0  0  0  0
  4 15  1  0  0  0  0
  5 16  1  0  0  0  0
  5  2  1  0  0  0  0
  5 14  1  1  0  0  0
  6 17  1  0  0  0  0
  6  1  1  0  0  0  0
  8 21  1  1  0  0  0
 10 18  1  0  0  0  0
 11  4  1  0  0  0  0
 12  8  1  0  0  0  0
 13  8  1  0  0  0  0
 13 18  2  0  0  0  0
 15 20  2  0  0  0  0
 16 17  1  1  0  0  0
 16 12  1  0  0  0  0
 19 10  2  0  0  0  0
 20 19  1  0  0  0  0
 21 27  1  0  0  0  0
 22 26  2  0  0  0  0
 23 28  1  0  0  0  0
 24 29  1  0  0  0  0
 25 24  2  0  0  0  0
 27 25  1  0  0  0  0
 27 30  2  0  0  0  0
 28 22  1  0  0  0  0
 29 31  1  6  0  0  0
 30 23  1  0  0  0  0
 30 29  1  0  0  0  0
 31 22  1  0  0  0  0
M  END
>  <MODEL>
9

>  <REMARK>
 VINA RESULT:      -7.7      3.081      6.018
  Name = 
  2 active torsions:
  status: ('A' for Active; 'I' for Inactive)
    1  A    between atoms: C_9  and  N_23
    2  A    between atoms: C_15  and  N_23
                            x       y       z     vdW  Elec       q    Type
                         _______ _______ _______ _____ _____    ______ ____

>  <TORSDO>
F 2

$$$$
