=
 OpenBabel10272413503D

 30 34  0  0  1  0  0  0  0  0999 V2000
  189.0380  177.4500  143.6930 C   0  0  0  0  0  3  0  0  0  0  0  0
  191.1260  176.7800  144.9370 C   0  0  2  0  0  3  0  0  0  0  0  0
  186.7120  177.8710  147.0450 N   0  0  0  0  0  2  0  0  0  0  0  0
  187.6780  177.8010  143.6300 C   0  0  0  0  0  0  0  0  0  0  0  0
  185.5810  178.1780  146.3610 C   0  0  0  0  0  0  0  0  0  0  0  0
  191.7490  176.7190  146.3360 C   0  0  0  0  0  2  0  0  0  0  0  0
  191.9420  177.6480  144.1010 N   0  0  0  0  0  1  0  0  0  0  0  0
  187.5980  177.7080  146.0450 C   0  0  0  0  0  0  0  0  0  0  0  0
  190.7620  176.1660  147.3540 C   0  0  0  0  0  2  0  0  0  0  0  0
  189.6870  177.2450  144.9330 C   0  0  0  0  0  0  0  0  0  0  0  0
  186.9900  177.9140  144.8410 C   0  0  0  0  0  0  0  0  0  0  0  0
  184.4820  178.4140  146.9270 O   0  0  0  0  0  0  0  0  0  0  0  0
  185.7310  178.2050  145.0490 O   0  0  0  0  0  0  0  0  0  0  0  0
  189.5830  177.1200  147.4750 C   0  0  0  0  0  2  0  0  0  0  0  0
  188.9440  177.3500  146.1390 C   0  0  0  0  0  0  0  0  0  0  0  0
  187.0120  177.9520  142.2920 C   0  0  1  0  0  3  0  0  0  0  0  0
  185.9370  179.9140  141.4160 O   0  0  0  0  0  1  0  0  0  0  0  0
  185.7700  178.8740  142.3380 C   0  0  1  0  0  3  0  0  0  0  0  0
  183.2880  178.7860  142.6920 C   0  0  0  0  0  2  0  0  0  0  0  0
  184.1190  178.0650  140.5610 C   0  0  0  0  0  2  0  0  0  0  0  0
  184.4720  178.1040  142.0380 C   0  0  0  0  0  3  0  0  0  0  0  0
  182.0850  178.3720  141.8730 C   0  0  0  0  0  2  0  0  0  0  0  0
  182.6020  178.0540  140.4810 C   0  0  0  0  0  2  0  0  0  0  0  0
  188.0350  178.3880  141.2430 C   0  0  0  0  0  2  0  0  0  0  0  0
  189.3370  177.7100  139.2500 C   0  0  1  0  0  3  0  0  0  0  0  0
  187.9500  178.1230  138.7960 C   0  0  0  0  0  2  0  0  0  0  0  0
  188.1270  177.3890  140.1080 C   0  0  2  0  0  3  0  0  0  0  0  0
  190.8560  175.8810  139.1310 O   0  0  0  0  0  1  0  0  0  0  0  0
  189.7610  176.4650  138.4950 C   0  0  2  0  0  3  0  0  0  0  0  0
  190.1470  176.8320  137.0790 C   0  0  0  0  0  1  0  0  0  0  0  0
  1 10  1  0  0  0  0
  2  7  1  6  0  0  0
  2  6  1  0  0  0  0
  4  1  2  0  0  0  0
  4 11  1  0  0  0  0
  5 12  2  0  0  0  0
  5  3  1  0  0  0  0
  6  9  1  0  0  0  0
  8 15  1  0  0  0  0
  8  3  1  0  0  0  0
  9 14  1  0  0  0  0
 10  2  1  0  0  0  0
 10 15  2  0  0  0  0
 11 13  1  0  0  0  0
 11  8  2  0  0  0  0
 13  5  1  0  0  0  0
 15 14  1  0  0  0  0
 16 24  1  6  0  0  0
 16 18  1  0  0  0  0
 16  4  1  0  0  0  0
 18 17  1  6  0  0  0
 20 21  1  0  0  0  0
 21 18  1  0  0  0  0
 21 19  1  0  0  0  0
 22 19  1  0  0  0  0
 23 20  1  0  0  0  0
 23 22  1  0  0  0  0
 25 29  1  6  0  0  0
 25 27  1  0  0  0  0
 26 25  1  0  0  0  0
 26 27  1  0  0  0  0
 27 24  1  1  0  0  0
 29 30  1  6  0  0  0
 29 28  1  0  0  0  0
M  END
>  <MODEL>
1

>  <REMARK>
 VINA RESULT:      -9.2      0.000      0.000
  Name = 
  6 active torsions:
  status: ('A' for Active; 'I' for Inactive)
    1  A    between atoms: C_4  and  C_13
    2  A    between atoms: C_7  and  C_15
    3  A    between atoms: C_8  and  C_12
    4  A    between atoms: C_8  and  C_13
    5  A    between atoms: C_13  and  C_27
    6  A    between atoms: C_27  and  C_30
                            x       y       z     vdW  Elec       q    Type
                         _______ _______ _______ _____ _____    ______ ____

>  <TORSDO>
F 6

$$$$
=
 OpenBabel10272413503D

 30 34  0  0  1  0  0  0  0  0999 V2000
  185.0780  178.0820  141.9340 C   0  0  0  0  0  3  0  0  0  0  0  0
  182.7650  178.3610  140.9690 C   0  0  2  0  0  3  0  0  0  0  0  0
  184.0050  179.0230  145.7790 N   0  0  0  0  0  2  0  0  0  0  0  0
  186.0070  178.1290  142.9880 C   0  0  0  0  0  0  0  0  0  0  0  0
  185.2640  178.9220  146.2760 C   0  0  0  0  0  0  0  0  0  0  0  0
  181.2910  178.5210  141.3540 C   0  0  0  0  0  2  0  0  0  0  0  0
  182.9120  177.1480  140.1800 N   0  0  0  0  0  1  0  0  0  0  0  0
  184.2010  178.7230  144.4820 C   0  0  0  0  0  0  0  0  0  0  0  0
  181.1230  179.5250  142.4860 C   0  0  0  0  0  2  0  0  0  0  0  0
  183.7040  178.3370  142.1550 C   0  0  0  0  0  0  0  0  0  0  0  0
  185.5210  178.4630  144.2550 C   0  0  0  0  0  0  0  0  0  0  0  0
  185.5400  179.1290  147.4870 O   0  0  0  0  0  0  0  0  0  0  0  0
  186.1760  178.5910  145.3810 O   0  0  0  0  0  0  0  0  0  0  0  0
  181.8150  178.9920  143.7320 C   0  0  0  0  0  2  0  0  0  0  0  0
  183.2570  178.6920  143.4550 C   0  0  0  0  0  0  0  0  0  0  0  0
  187.4650  177.9110  142.7010 C   0  0  1  0  0  3  0  0  0  0  0  0
  188.6610  175.8970  143.2360 O   0  0  0  0  0  1  0  0  0  0  0  0
  188.1780  177.0840  143.7980 C   0  0  1  0  0  3  0  0  0  0  0  0
  190.2690  176.9270  145.1740 C   0  0  0  0  0  2  0  0  0  0  0  0
  190.2150  178.5900  143.4480 C   0  0  0  0  0  2  0  0  0  0  0  0
  189.3300  177.8690  144.4500 C   0  0  0  0  0  3  0  0  0  0  0  0
  191.6000  177.6460  145.2200 C   0  0  0  0  0  2  0  0  0  0  0  0
  191.6150  178.5960  144.0360 C   0  0  0  0  0  2  0  0  0  0  0  0
  187.6420  177.3160  141.3040 C   0  0  0  0  0  2  0  0  0  0  0  0
  188.5440  177.6240  139.0190 C   0  0  1  0  0  3  0  0  0  0  0  0
  189.7050  177.6290  139.9960 C   0  0  0  0  0  2  0  0  0  0  0  0
  188.3870  178.2640  140.3860 C   0  0  2  0  0  3  0  0  0  0  0  0
  187.5260  179.1470  137.4980 O   0  0  0  0  0  1  0  0  0  0  0  0
  188.7580  178.7080  137.9800 C   0  0  2  0  0  3  0  0  0  0  0  0
  189.5740  178.1600  136.8300 C   0  0  0  0  0  1  0  0  0  0  0  0
  1 10  2  0  0  0  0
  1  4  1  0  0  0  0
  2  7  1  1  0  0  0
  2  6  1  0  0  0  0
  2 10  1  0  0  0  0
  3  5  1  0  0  0  0
  4 11  2  0  0  0  0
  5 12  2  0  0  0  0
  6  9  1  0  0  0  0
  8  3  1  0  0  0  0
  9 14  1  0  0  0  0
 10 15  1  0  0  0  0
 11  8  1  0  0  0  0
 11 13  1  0  0  0  0
 13  5  1  0  0  0  0
 15 14  1  0  0  0  0
 15  8  2  0  0  0  0
 16 24  1  6  0  0  0
 16  4  1  0  0  0  0
 16 18  1  0  0  0  0
 18 17  1  6  0  0  0
 18 21  1  0  0  0  0
 19 22  1  0  0  0  0
 20 23  1  0  0  0  0
 20 21  1  0  0  0  0
 21 19  1  0  0  0  0
 23 22  1  0  0  0  0
 25 29  1  6  0  0  0
 25 26  1  0  0  0  0
 25 27  1  0  0  0  0
 26 27  1  0  0  0  0
 27 24  1  1  0  0  0
 28 29  1  0  0  0  0
 29 30  1  6  0  0  0
M  END
>  <MODEL>
2

>  <REMARK>
 VINA RESULT:      -9.2      2.324      5.992
  Name = 
  6 active torsions:
  status: ('A' for Active; 'I' for Inactive)
    1  A    between atoms: C_4  and  C_13
    2  A    between atoms: C_7  and  C_15
    3  A    between atoms: C_8  and  C_12
    4  A    between atoms: C_8  and  C_13
    5  A    between atoms: C_13  and  C_27
    6  A    between atoms: C_27  and  C_30
                            x       y       z     vdW  Elec       q    Type
                         _______ _______ _______ _____ _____    ______ ____

>  <TORSDO>
F 6

$$$$
=
 OpenBabel10272413503D

 30 34  0  0  1  0  0  0  0  0999 V2000
  186.9620  178.1820  144.6250 C   0  0  0  0  0  3  0  0  0  0  0  0
  186.6480  178.5210  147.1040 C   0  0  2  0  0  3  0  0  0  0  0  0
  190.6820  176.4840  144.9370 N   0  0  0  0  0  2  0  0  0  0  0  0
  187.7080  177.7850  143.5010 C   0  0  0  0  0  0  0  0  0  0  0  0
  190.8620  176.3560  143.5980 C   0  0  0  0  0  0  0  0  0  0  0  0
  187.2230  178.1400  148.4720 C   0  0  0  0  0  2  0  0  0  0  0  0
  185.2740  178.0490  147.0280 N   0  0  0  0  0  1  0  0  0  0  0  0
  189.4580  177.0380  144.9950 C   0  0  0  0  0  0  0  0  0  0  0  0
  188.7420  178.2440  148.4790 C   0  0  0  0  0  2  0  0  0  0  0  0
  187.4540  177.9920  145.9380 C   0  0  0  0  0  0  0  0  0  0  0  0
  188.9640  177.2180  143.7350 C   0  0  0  0  0  0  0  0  0  0  0  0
  191.9060  175.8680  143.0910 O   0  0  0  0  0  0  0  0  0  0  0  0
  189.8490  176.7900  142.8710 O   0  0  0  0  0  0  0  0  0  0  0  0
  189.3150  177.2300  147.4990 C   0  0  0  0  0  2  0  0  0  0  0  0
  188.7440  177.4300  146.1280 C   0  0  0  0  0  0  0  0  0  0  0  0
  187.1770  178.0580  142.1240 C   0  0  1  0  0  3  0  0  0  0  0  0
  185.8800  179.6350  140.8550 O   0  0  0  0  0  1  0  0  0  0  0  0
  185.9870  179.0490  142.1220 C   0  0  1  0  0  3  0  0  0  0  0  0
  183.9610  179.1260  143.5980 C   0  0  0  0  0  2  0  0  0  0  0  0
  183.6580  178.3160  141.3620 C   0  0  0  0  0  2  0  0  0  0  0  0
  184.6650  178.3580  142.4990 C   0  0  0  0  0  3  0  0  0  0  0  0
  182.4960  178.7750  143.4570 C   0  0  0  0  0  2  0  0  0  0  0  0
  182.2830  178.4010  142.0010 C   0  0  0  0  0  2  0  0  0  0  0  0
  188.3130  178.4970  141.2000 C   0  0  0  0  0  2  0  0  0  0  0  0
  189.7370  177.5920  139.3890 C   0  0  1  0  0  3  0  0  0  0  0  0
  188.7860  178.6070  138.7860 C   0  0  0  0  0  2  0  0  0  0  0  0
  188.3160  177.7060  139.9080 C   0  0  2  0  0  3  0  0  0  0  0  0
  190.8350  175.5290  138.9290 O   0  0  0  0  0  1  0  0  0  0  0  0
  189.8400  176.3910  138.4680 C   0  0  2  0  0  3  0  0  0  0  0  0
  190.1880  176.8480  137.0690 C   0  0  0  0  0  1  0  0  0  0  0  0
  1 10  1  0  0  0  0
  2  7  1  6  0  0  0
  2  6  1  0  0  0  0
  3  8  1  0  0  0  0
  4 11  1  0  0  0  0
  4  1  2  0  0  0  0
  5  3  1  0  0  0  0
  6  9  1  0  0  0  0
  8 15  1  0  0  0  0
 10 15  2  0  0  0  0
 10  2  1  0  0  0  0
 11  8  2  0  0  0  0
 12  5  2  0  0  0  0
 13  5  1  0  0  0  0
 13 11  1  0  0  0  0
 14  9  1  0  0  0  0
 15 14  1  0  0  0  0
 16 24  1  6  0  0  0
 16  4  1  0  0  0  0
 18 17  1  6  0  0  0
 18 16  1  0  0  0  0
 18 21  1  0  0  0  0
 20 23  1  0  0  0  0
 20 21  1  0  0  0  0
 21 19  1  0  0  0  0
 22 19  1  0  0  0  0
 23 22  1  0  0  0  0
 25 29  1  6  0  0  0
 25 27  1  0  0  0  0
 26 25  1  0  0  0  0
 26 27  1  0  0  0  0
 27 24  1  1  0  0  0
 29 30  1  6  0  0  0
 29 28  1  0  0  0  0
M  END
>  <MODEL>
3

>  <REMARK>
 VINA RESULT:      -9.0      1.704      3.224
  Name = 
  6 active torsions:
  status: ('A' for Active; 'I' for Inactive)
    1  A    between atoms: C_4  and  C_13
    2  A    between atoms: C_7  and  C_15
    3  A    between atoms: C_8  and  C_12
    4  A    between atoms: C_8  and  C_13
    5  A    between atoms: C_13  and  C_27
    6  A    between atoms: C_27  and  C_30
                            x       y       z     vdW  Elec       q    Type
                         _______ _______ _______ _____ _____    ______ ____

>  <TORSDO>
F 6

$$$$
=
 OpenBabel10272413503D

 30 34  0  0  1  0  0  0  0  0999 V2000
  185.8040  178.4720  143.6910 C   0  0  0  0  0  3  0  0  0  0  0  0
  185.3890  179.0570  146.1090 C   0  0  2  0  0  3  0  0  0  0  0  0
  189.2120  176.3010  144.4020 N   0  0  0  0  0  2  0  0  0  0  0  0
  186.5540  177.8810  142.6580 C   0  0  0  0  0  0  0  0  0  0  0  0
  189.4540  176.0380  143.0930 C   0  0  0  0  0  0  0  0  0  0  0  0
  185.8160  178.7150  147.5400 C   0  0  0  0  0  2  0  0  0  0  0  0
  183.9680  178.7770  145.9660 N   0  0  0  0  0  1  0  0  0  0  0  0
  188.0790  177.0250  144.3280 C   0  0  0  0  0  0  0  0  0  0  0  0
  187.3300  178.6050  147.6510 C   0  0  0  0  0  2  0  0  0  0  0  0
  186.1800  178.3250  145.0470 C   0  0  0  0  0  0  0  0  0  0  0  0
  187.6970  177.1660  143.0260 C   0  0  0  0  0  0  0  0  0  0  0  0
  190.4460  175.3690  142.7020 O   0  0  0  0  0  0  0  0  0  0  0  0
  188.5620  176.5480  142.2630 O   0  0  0  0  0  0  0  0  0  0  0  0
  187.8100  177.4430  146.7940 C   0  0  0  0  0  2  0  0  0  0  0  0
  187.3600  177.6060  145.3740 C   0  0  0  0  0  0  0  0  0  0  0  0
  186.1550  178.1100  141.2290 C   0  0  1  0  0  3  0  0  0  0  0  0
  184.8590  179.6100  139.8700 O   0  0  0  0  0  1  0  0  0  0  0  0
  184.8470  178.9260  141.0910 C   0  0  1  0  0  3  0  0  0  0  0  0
  182.3530  178.8720  141.3590 C   0  0  0  0  0  2  0  0  0  0  0  0
  183.3370  177.2250  139.9220 C   0  0  0  0  0  2  0  0  0  0  0  0
  183.5990  178.0300  141.1840 C   0  0  0  0  0  3  0  0  0  0  0  0
  181.2180  178.0250  140.8270 C   0  0  0  0  0  2  0  0  0  0  0  0
  181.8300  177.0790  139.8090 C   0  0  0  0  0  2  0  0  0  0  0  0
  187.3190  178.7240  140.4510 C   0  0  0  0  0  2  0  0  0  0  0  0
  189.3400  177.9010  139.2830 C   0  0  1  0  0  3  0  0  0  0  0  0
  188.4540  178.5980  138.2690 C   0  0  0  0  0  2  0  0  0  0  0  0
  187.8310  177.7810  139.3800 C   0  0  2  0  0  3  0  0  0  0  0  0
  190.7800  176.0260  139.5660 O   0  0  0  0  0  1  0  0  0  0  0  0
  189.9040  176.6340  138.6680 C   0  0  2  0  0  3  0  0  0  0  0  0
  190.6510  176.9710  137.3970 C   0  0  0  0  0  1  0  0  0  0  0  0
  1 10  1  0  0  0  0
  2  7  1  1  0  0  0
  2  6  1  0  0  0  0
  4 11  1  0  0  0  0
  4  1  2  0  0  0  0
  5  3  1  0  0  0  0
  6  9  1  0  0  0  0
  8  3  1  0  0  0  0
  8 15  1  0  0  0  0
 10 15  2  0  0  0  0
 10  2  1  0  0  0  0
 11  8  2  0  0  0  0
 12  5  2  0  0  0  0
 13 11  1  0  0  0  0
 13  5  1  0  0  0  0
 14  9  1  0  0  0  0
 15 14  1  0  0  0  0
 16 24  1  6  0  0  0
 16  4  1  0  0  0  0
 18 17  1  6  0  0  0
 18 21  1  0  0  0  0
 18 16  1  0  0  0  0
 20 21  1  0  0  0  0
 21 19  1  0  0  0  0
 22 19  1  0  0  0  0
 23 20  1  0  0  0  0
 23 22  1  0  0  0  0
 25 29  1  6  0  0  0
 25 27  1  0  0  0  0
 26 25  1  0  0  0  0
 26 27  1  0  0  0  0
 27 24  1  1  0  0  0
 29 30  1  6  0  0  0
 29 28  1  0  0  0  0
M  END
>  <MODEL>
4

>  <REMARK>
 VINA RESULT:      -8.8      2.171      3.449
  Name = 
  6 active torsions:
  status: ('A' for Active; 'I' for Inactive)
    1  A    between atoms: C_4  and  C_13
    2  A    between atoms: C_7  and  C_15
    3  A    between atoms: C_8  and  C_12
    4  A    between atoms: C_8  and  C_13
    5  A    between atoms: C_13  and  C_27
    6  A    between atoms: C_27  and  C_30
                            x       y       z     vdW  Elec       q    Type
                         _______ _______ _______ _____ _____    ______ ____

>  <TORSDO>
F 6

$$$$
=
 OpenBabel10272413503D

 30 34  0  0  1  0  0  0  0  0999 V2000
  185.0680  177.9430  141.8560 C   0  0  0  0  0  3  0  0  0  0  0  0
  182.7820  178.2710  140.8450 C   0  0  2  0  0  3  0  0  0  0  0  0
  183.9680  179.0300  145.6550 N   0  0  0  0  0  2  0  0  0  0  0  0
  185.9820  177.9890  142.9240 C   0  0  0  0  0  0  0  0  0  0  0  0
  185.2140  178.9010  146.1760 C   0  0  0  0  0  0  0  0  0  0  0  0
  181.3080  178.4900  141.2000 C   0  0  0  0  0  2  0  0  0  0  0  0
  182.9010  177.0310  140.0930 N   0  0  0  0  0  1  0  0  0  0  0  0
  184.1730  178.6860  144.3700 C   0  0  0  0  0  0  0  0  0  0  0  0
  181.1560  179.5320  142.3000 C   0  0  0  0  0  2  0  0  0  0  0  0
  183.7010  178.2500  142.0460 C   0  0  0  0  0  0  0  0  0  0  0  0
  185.4880  178.3750  144.1720 C   0  0  0  0  0  0  0  0  0  0  0  0
  185.4780  179.1340  147.3840 O   0  0  0  0  0  0  0  0  0  0  0  0
  186.1280  178.5150  145.3050 O   0  0  0  0  0  0  0  0  0  0  0  0
  181.8100  179.0130  143.5720 C   0  0  0  0  0  2  0  0  0  0  0  0
  183.2450  178.6560  143.3280 C   0  0  0  0  0  0  0  0  0  0  0  0
  187.4360  177.7140  142.6680 C   0  0  1  0  0  3  0  0  0  0  0  0
  188.5950  179.4060  141.4160 O   0  0  0  0  0  1  0  0  0  0  0  0
  187.9050  178.1970  141.2740 C   0  0  1  0  0  3  0  0  0  0  0  0
  188.7080  177.3030  139.0720 C   0  0  0  0  0  2  0  0  0  0  0  0
  190.2760  177.3230  140.8860 C   0  0  0  0  0  2  0  0  0  0  0  0
  188.7980  177.1560  140.5770 C   0  0  0  0  0  3  0  0  0  0  0  0
  190.0020  176.7300  138.5360 C   0  0  0  0  0  2  0  0  0  0  0  0
  191.0290  176.8780  139.6440 C   0  0  0  0  0  2  0  0  0  0  0  0
  188.2860  178.2790  143.8060 C   0  0  0  0  0  2  0  0  0  0  0  0
  189.6050  177.7780  145.8400 C   0  0  1  0  0  3  0  0  0  0  0  0
  190.4240  177.3770  144.6290 C   0  0  0  0  0  2  0  0  0  0  0  0
  188.9240  177.1750  144.6250 C   0  0  2  0  0  3  0  0  0  0  0  0
  188.8800  177.0000  147.9710 O   0  0  0  0  0  1  0  0  0  0  0  0
  189.7440  176.7160  146.9140 C   0  0  2  0  0  3  0  0  0  0  0  0
  191.1660  176.6910  147.4280 C   0  0  0  0  0  1  0  0  0  0  0  0
  1 10  2  0  0  0  0
  1  4  1  0  0  0  0
  2  7  1  1  0  0  0
  2  6  1  0  0  0  0
  2 10  1  0  0  0  0
  3  5  1  0  0  0  0
  4 11  2  0  0  0  0
  5 12  2  0  0  0  0
  6  9  1  0  0  0  0
  8  3  1  0  0  0  0
  9 14  1  0  0  0  0
 10 15  1  0  0  0  0
 11  8  1  0  0  0  0
 11 13  1  0  0  0  0
 13  5  1  0  0  0  0
 15 14  1  0  0  0  0
 15  8  2  0  0  0  0
 16  4  1  0  0  0  0
 16 24  1  1  0  0  0
 18 17  1  1  0  0  0
 18 16  1  0  0  0  0
 19 21  1  0  0  0  0
 21 20  1  0  0  0  0
 21 18  1  0  0  0  0
 22 19  1  0  0  0  0
 22 23  1  0  0  0  0
 23 20  1  0  0  0  0
 25 29  1  1  0  0  0
 26 25  1  0  0  0  0
 27 24  1  6  0  0  0
 27 26  1  0  0  0  0
 27 25  1  0  0  0  0
 29 30  1  1  0  0  0
 29 28  1  0  0  0  0
M  END
>  <MODEL>
5

>  <REMARK>
 VINA RESULT:      -8.6      2.125      6.629
  Name = 
  6 active torsions:
  status: ('A' for Active; 'I' for Inactive)
    1  A    between atoms: C_4  and  C_13
    2  A    between atoms: C_7  and  C_15
    3  A    between atoms: C_8  and  C_12
    4  A    between atoms: C_8  and  C_13
    5  A    between atoms: C_13  and  C_27
    6  A    between atoms: C_27  and  C_30
                            x       y       z     vdW  Elec       q    Type
                         _______ _______ _______ _____ _____    ______ ____

>  <TORSDO>
F 6

$$$$
=
 OpenBabel10272413503D

 30 34  0  0  1  0  0  0  0  0999 V2000
  187.2030  177.8960  141.5440 C   0  0  0  0  0  3  0  0  0  0  0  0
  185.4560  178.6410  143.2030 C   0  0  2  0  0  3  0  0  0  0  0  0
  189.7890  176.4010  144.3550 N   0  0  0  0  0  2  0  0  0  0  0  0
  188.4490  177.3390  141.2050 C   0  0  0  0  0  0  0  0  0  0  0  0
  190.7450  176.0540  143.4570 C   0  0  0  0  0  0  0  0  0  0  0  0
  185.0320  178.5170  144.6700 C   0  0  0  0  0  2  0  0  0  0  0  0
  184.3890  178.1170  142.3640 N   0  0  0  0  0  1  0  0  0  0  0  0
  188.8390  176.9160  143.5540 C   0  0  0  0  0  0  0  0  0  0  0  0
  186.2260  178.6710  145.6030 C   0  0  0  0  0  2  0  0  0  0  0  0
  186.7640  177.9480  142.8880 C   0  0  0  0  0  0  0  0  0  0  0  0
  189.2430  176.8630  142.2510 C   0  0  0  0  0  0  0  0  0  0  0  0
  191.8370  175.5230  143.7900 O   0  0  0  0  0  0  0  0  0  0  0  0
  190.4350  176.3240  142.2020 O   0  0  0  0  0  0  0  0  0  0  0  0
  187.1980  177.5260  145.3610 C   0  0  0  0  0  2  0  0  0  0  0  0
  187.6120  177.4710  143.9220 C   0  0  0  0  0  0  0  0  0  0  0  0
  188.9040  177.3570  139.7740 C   0  0  1  0  0  3  0  0  0  0  0  0
  189.0960  179.3310  138.4180 O   0  0  0  0  0  1  0  0  0  0  0  0
  188.1650  178.4140  138.9190 C   0  0  1  0  0  3  0  0  0  0  0  0
  187.8820  178.2870  136.4300 C   0  0  0  0  0  2  0  0  0  0  0  0
  187.5550  176.2650  137.6760 C   0  0  0  0  0  2  0  0  0  0  0  0
  187.3800  177.7710  137.7630 C   0  0  0  0  0  3  0  0  0  0  0  0
  187.5350  177.2080  135.4270 C   0  0  0  0  0  2  0  0  0  0  0  0
  187.4710  175.9050  136.2040 C   0  0  0  0  0  2  0  0  0  0  0  0
  190.4240  177.5010  139.7080 C   0  0  0  0  0  2  0  0  0  0  0  0
  192.3170  176.8560  138.2480 C   0  0  1  0  0  3  0  0  0  0  0  0
  191.0310  176.6980  137.4610 C   0  0  0  0  0  2  0  0  0  0  0  0
  191.0580  176.3610  138.9360 C   0  0  2  0  0  3  0  0  0  0  0  0
  194.3960  175.7940  138.7160 O   0  0  0  0  0  1  0  0  0  0  0  0
  193.2280  175.6780  137.9630 C   0  0  2  0  0  3  0  0  0  0  0  0
  193.5860  175.6510  136.4940 C   0  0  0  0  0  1  0  0  0  0  0  0
  1 10  1  0  0  0  0
  2  7  1  6  0  0  0
  2  6  1  0  0  0  0
  4  1  2  0  0  0  0
  4 11  1  0  0  0  0
  5 12  2  0  0  0  0
  5  3  1  0  0  0  0
  6  9  1  0  0  0  0
  8 15  1  0  0  0  0
  8  3  1  0  0  0  0
 10  2  1  0  0  0  0
 10 15  2  0  0  0  0
 11  8  2  0  0  0  0
 13 11  1  0  0  0  0
 13  5  1  0  0  0  0
 14  9  1  0  0  0  0
 15 14  1  0  0  0  0
 16 24  1  1  0  0  0
 16  4  1  0  0  0  0
 18 17  1  6  0  0  0
 18 16  1  0  0  0  0
 19 21  1  0  0  0  0
 20 21  1  0  0  0  0
 21 18  1  0  0  0  0
 22 23  1  0  0  0  0
 22 19  1  0  0  0  0
 23 20  1  0  0  0  0
 25 29  1  6  0  0  0
 25 27  1  0  0  0  0
 26 25  1  0  0  0  0
 26 27  1  0  0  0  0
 27 24  1  1  0  0  0
 29 30  1  6  0  0  0
 29 28  1  0  0  0  0
M  END
>  <MODEL>
6

>  <REMARK>
 VINA RESULT:      -8.4      2.887      5.070
  Name = 
  6 active torsions:
  status: ('A' for Active; 'I' for Inactive)
    1  A    between atoms: C_4  and  C_13
    2  A    between atoms: C_7  and  C_15
    3  A    between atoms: C_8  and  C_12
    4  A    between atoms: C_8  and  C_13
    5  A    between atoms: C_13  and  C_27
    6  A    between atoms: C_27  and  C_30
                            x       y       z     vdW  Elec       q    Type
                         _______ _______ _______ _____ _____    ______ ____

>  <TORSDO>
F 6

$$$$
=
 OpenBabel10272413503D

 30 34  0  0  1  0  0  0  0  0999 V2000
  186.4530  178.1000  143.7600 C   0  0  0  0  0  3  0  0  0  0  0  0
  184.4300  178.4740  145.2190 C   0  0  2  0  0  3  0  0  0  0  0  0
  184.5750  179.0700  140.2450 N   0  0  0  0  0  2  0  0  0  0  0  0
  187.1040  178.0450  142.5150 C   0  0  0  0  0  0  0  0  0  0  0  0
  185.6550  178.8130  139.4650 C   0  0  0  0  0  0  0  0  0  0  0  0
  183.0200  179.0730  145.2240 C   0  0  0  0  0  2  0  0  0  0  0  0
  185.2350  179.1670  146.2140 N   0  0  0  0  0  1  0  0  0  0  0  0
  185.0550  178.7960  141.4720 C   0  0  0  0  0  0  0  0  0  0  0  0
  182.2520  178.6840  143.9690 C   0  0  0  0  0  2  0  0  0  0  0  0
  185.1060  178.5210  143.8670 C   0  0  0  0  0  0  0  0  0  0  0  0
  186.3580  178.3990  141.3880 C   0  0  0  0  0  0  0  0  0  0  0  0
  185.6400  178.9430  138.2130 O   0  0  0  0  0  0  0  0  0  0  0  0
  186.7220  178.4120  140.1300 O   0  0  0  0  0  0  0  0  0  0  0  0
  182.9460  179.2820  142.7540 C   0  0  0  0  0  2  0  0  0  0  0  0
  184.3810  178.8520  142.6920 C   0  0  0  0  0  0  0  0  0  0  0  0
  188.5150  177.5360  142.4380 C   0  0  1  0  0  3  0  0  0  0  0  0
  189.4680  175.4260  143.0800 O   0  0  0  0  0  1  0  0  0  0  0  0
  188.8760  176.5820  143.6020 C   0  0  1  0  0  3  0  0  0  0  0  0
  189.2240  177.1900  146.0100 C   0  0  0  0  0  2  0  0  0  0  0  0
  191.1590  176.5450  144.7510 C   0  0  0  0  0  2  0  0  0  0  0  0
  189.8190  177.2480  144.6190 C   0  0  0  0  0  3  0  0  0  0  0  0
  190.4040  177.2700  146.9540 C   0  0  0  0  0  2  0  0  0  0  0  0
  191.5990  176.7240  146.1930 C   0  0  0  0  0  2  0  0  0  0  0  0
  188.7760  176.9190  141.0640 C   0  0  0  0  0  2  0  0  0  0  0  0
  190.8580  176.5760  139.7700 C   0  0  1  0  0  3  0  0  0  0  0  0
  191.2110  177.2870  141.0620 C   0  0  0  0  0  2  0  0  0  0  0  0
  189.9170  177.6150  140.3500 C   0  0  2  0  0  3  0  0  0  0  0  0
  191.2200  176.6450  137.4180 O   0  0  0  0  0  1  0  0  0  0  0  0
  191.6430  177.1930  138.6280 C   0  0  2  0  0  3  0  0  0  0  0  0
  193.1180  176.9120  138.8110 C   0  0  0  0  0  1  0  0  0  0  0  0
  1 10  1  0  0  0  0
  2  6  1  0  0  0  0
  2  7  1  1  0  0  0
  3  8  1  0  0  0  0
  4  1  2  0  0  0  0
  5 13  1  0  0  0  0
  5  3  1  0  0  0  0
  8 15  1  0  0  0  0
  9  6  1  0  0  0  0
 10  2  1  0  0  0  0
 11  8  2  0  0  0  0
 11  4  1  0  0  0  0
 12  5  2  0  0  0  0
 13 11  1  0  0  0  0
 14  9  1  0  0  0  0
 15 14  1  0  0  0  0
 15 10  2  0  0  0  0
 16 24  1  6  0  0  0
 16  4  1  0  0  0  0
 16 18  1  0  0  0  0
 18 17  1  6  0  0  0
 18 21  1  0  0  0  0
 19 22  1  0  0  0  0
 20 23  1  0  0  0  0
 21 20  1  0  0  0  0
 21 19  1  0  0  0  0
 23 22  1  0  0  0  0
 25 29  1  6  0  0  0
 25 27  1  0  0  0  0
 25 26  1  0  0  0  0
 27 26  1  0  0  0  0
 27 24  1  1  0  0  0
 28 29  1  0  0  0  0
 29 30  1  1  0  0  0
M  END
>  <MODEL>
7

>  <REMARK>
 VINA RESULT:      -8.3      2.477      6.114
  Name = 
  6 active torsions:
  status: ('A' for Active; 'I' for Inactive)
    1  A    between atoms: C_4  and  C_13
    2  A    between atoms: C_7  and  C_15
    3  A    between atoms: C_8  and  C_12
    4  A    between atoms: C_8  and  C_13
    5  A    between atoms: C_13  and  C_27
    6  A    between atoms: C_27  and  C_30
                            x       y       z     vdW  Elec       q    Type
                         _______ _______ _______ _____ _____    ______ ____

>  <TORSDO>
F 6

$$$$
=
 OpenBabel10272413503D

 30 34  0  0  1  0  0  0  0  0999 V2000
  188.0430  177.6020  140.2190 C   0  0  0  0  0  3  0  0  0  0  0  0
  186.8090  177.8290  138.0310 C   0  0  2  0  0  3  0  0  0  0  0  0
  191.7770  177.3980  138.5330 N   0  0  0  0  0  2  0  0  0  0  0  0
  189.2100  177.4310  140.9850 C   0  0  0  0  0  0  0  0  0  0  0  0
  192.4250  177.2220  139.7120 C   0  0  0  0  0  0  0  0  0  0  0  0
  187.0090  178.1010  136.5370 C   0  0  0  0  0  2  0  0  0  0  0  0
  185.9540  178.8690  138.5840 N   0  0  0  0  0  1  0  0  0  0  0  0
  190.4970  177.4930  138.9380 C   0  0  0  0  0  0  0  0  0  0  0  0
  188.1840  177.3050  135.9860 C   0  0  0  0  0  2  0  0  0  0  0  0
  188.1020  177.7380  138.8120 C   0  0  0  0  0  0  0  0  0  0  0  0
  190.4250  177.3750  140.2960 C   0  0  0  0  0  0  0  0  0  0  0  0
  193.6730  177.0840  139.7930 O   0  0  0  0  0  0  0  0  0  0  0  0
  191.6330  177.2050  140.7690 O   0  0  0  0  0  0  0  0  0  0  0  0
  189.4650  177.7720  136.6610 C   0  0  0  0  0  2  0  0  0  0  0  0
  189.3560  177.6560  138.1510 C   0  0  0  0  0  0  0  0  0  0  0  0
  189.1000  177.2310  142.4690 C   0  0  1  0  0  3  0  0  0  0  0  0
  187.6410  175.6590  143.5520 O   0  0  0  0  0  1  0  0  0  0  0  0
  187.6570  176.9120  142.9290 C   0  0  1  0  0  3  0  0  0  0  0  0
  185.7290  178.4310  143.4460 C   0  0  0  0  0  2  0  0  0  0  0  0
  186.9120  177.4880  145.3060 C   0  0  0  0  0  2  0  0  0  0  0  0
  187.1090  177.9860  143.8840 C   0  0  0  0  0  3  0  0  0  0  0  0
  185.0610  178.9550  144.6990 C   0  0  0  0  0  2  0  0  0  0  0  0
  185.7210  178.2440  145.8670 C   0  0  0  0  0  2  0  0  0  0  0  0
  190.1140  176.1860  142.9340 C   0  0  0  0  0  2  0  0  0  0  0  0
  190.5970  176.5080  145.3410 C   0  0  1  0  0  3  0  0  0  0  0  0
  190.4060  177.8710  144.7060 C   0  0  0  0  0  2  0  0  0  0  0  0
  191.0950  176.7680  143.9310 C   0  0  2  0  0  3  0  0  0  0  0  0
  192.3250  175.2910  146.4380 O   0  0  0  0  0  1  0  0  0  0  0  0
  191.7670  176.5620  146.3040 C   0  0  2  0  0  3  0  0  0  0  0  0
  191.2940  177.0430  147.6570 C   0  0  0  0  0  1  0  0  0  0  0  0
  1  4  1  0  0  0  0
  2  7  1  1  0  0  0
  2 10  1  0  0  0  0
  3  8  1  0  0  0  0
  3  5  1  0  0  0  0
  4 16  1  0  0  0  0
  5 12  2  0  0  0  0
  5 13  1  0  0  0  0
  6  2  1  0  0  0  0
  8 11  1  0  0  0  0
  9  6  1  0  0  0  0
  9 14  1  0  0  0  0
 10  1  2  0  0  0  0
 11 13  1  0  0  0  0
 11  4  2  0  0  0  0
 14 15  1  0  0  0  0
 15 10  1  0  0  0  0
 15  8  2  0  0  0  0
 16 18  1  0  0  0  0
 16 24  1  6  0  0  0
 18 17  1  1  0  0  0
 18 21  1  0  0  0  0
 19 21  1  0  0  0  0
 19 22  1  0  0  0  0
 20 23  1  0  0  0  0
 21 20  1  0  0  0  0
 22 23  1  0  0  0  0
 25 29  1  1  0  0  0
 26 25  1  0  0  0  0
 27 24  1  6  0  0  0
 27 26  1  0  0  0  0
 27 25  1  0  0  0  0
 29 28  1  0  0  0  0
 29 30  1  1  0  0  0
M  END
>  <MODEL>
8

>  <REMARK>
 VINA RESULT:      -8.3      2.916      7.311
  Name = 
  6 active torsions:
  status: ('A' for Active; 'I' for Inactive)
    1  A    between atoms: C_4  and  C_13
    2  A    between atoms: C_7  and  C_15
    3  A    between atoms: C_8  and  C_12
    4  A    between atoms: C_8  and  C_13
    5  A    between atoms: C_13  and  C_27
    6  A    between atoms: C_27  and  C_30
                            x       y       z     vdW  Elec       q    Type
                         _______ _______ _______ _____ _____    ______ ____

>  <TORSDO>
F 6

$$$$
=
 OpenBabel10272413503D

 30 34  0  0  1  0  0  0  0  0999 V2000
  187.1650  177.7490  143.6320 C   0  0  0  0  0  3  0  0  0  0  0  0
  185.7110  178.0550  145.6700 C   0  0  2  0  0  3  0  0  0  0  0  0
  184.4740  179.3680  140.9940 N   0  0  0  0  0  2  0  0  0  0  0  0
  187.4150  177.8290  142.2510 C   0  0  0  0  0  0  0  0  0  0  0  0
  185.2440  179.1490  139.8980 C   0  0  0  0  0  0  0  0  0  0  0  0
  184.4430  178.7530  146.1730 C   0  0  0  0  0  2  0  0  0  0  0  0
  186.8450  178.5310  146.4480 N   0  0  0  0  0  1  0  0  0  0  0  0
  185.2550  178.8800  141.9750 C   0  0  0  0  0  0  0  0  0  0  0  0
  183.3040  178.6130  145.1730 C   0  0  0  0  0  2  0  0  0  0  0  0
  185.9660  178.2510  144.1910 C   0  0  0  0  0  0  0  0  0  0  0  0
  186.4210  178.4020  141.4530 C   0  0  0  0  0  0  0  0  0  0  0  0
  184.8820  179.4640  138.7340 O   0  0  0  0  0  0  0  0  0  0  0  0
  186.4040  178.5740  140.1560 O   0  0  0  0  0  0  0  0  0  0  0  0
  183.6800  179.3300  143.8850 C   0  0  0  0  0  2  0  0  0  0  0  0
  184.9750  178.8070  143.3400 C   0  0  0  0  0  0  0  0  0  0  0  0
  188.6740  177.2320  141.6900 C   0  0  1  0  0  3  0  0  0  0  0  0
  189.4550  178.8380  140.0830 O   0  0  0  0  0  1  0  0  0  0  0  0
  188.8840  177.5650  140.1930 C   0  0  1  0  0  3  0  0  0  0  0  0
  189.3560  176.3580  138.0460 C   0  0  0  0  0  2  0  0  0  0  0  0
  191.2360  176.9260  139.4210 C   0  0  0  0  0  2  0  0  0  0  0  0
  189.7730  176.5230  139.4920 C   0  0  0  0  0  3  0  0  0  0  0  0
  190.5890  175.8510  137.3290 C   0  0  0  0  0  2  0  0  0  0  0  0
  191.7820  176.3390  138.1310 C   0  0  0  0  0  2  0  0  0  0  0  0
  189.8710  177.6210  142.5560 C   0  0  0  0  0  2  0  0  0  0  0  0
  190.9310  177.2740  144.7660 C   0  0  1  0  0  3  0  0  0  0  0  0
  191.5670  176.3180  143.7770 C   0  0  0  0  0  2  0  0  0  0  0  0
  190.0890  176.6290  143.6810 C   0  0  2  0  0  3  0  0  0  0  0  0
  190.0590  177.4100  146.9780 O   0  0  0  0  0  1  0  0  0  0  0  0
  190.6940  176.5530  146.0790 C   0  0  2  0  0  3  0  0  0  0  0  0
  192.0160  176.1110  146.6660 C   0  0  0  0  0  1  0  0  0  0  0  0
  1 10  1  0  0  0  0
  2  6  1  0  0  0  0
  2  7  1  1  0  0  0
  3  8  1  0  0  0  0
  4  1  2  0  0  0  0
  5 13  1  0  0  0  0
  5  3  1  0  0  0  0
  8 15  1  0  0  0  0
  9  6  1  0  0  0  0
 10  2  1  0  0  0  0
 11  8  2  0  0  0  0
 11  4  1  0  0  0  0
 12  5  2  0  0  0  0
 13 11  1  0  0  0  0
 14  9  1  0  0  0  0
 15 14  1  0  0  0  0
 15 10  2  0  0  0  0
 16  4  1  0  0  0  0
 16 24  1  1  0  0  0
 18 17  1  1  0  0  0
 18 16  1  0  0  0  0
 19 21  1  0  0  0  0
 20 21  1  0  0  0  0
 21 18  1  0  0  0  0
 22 19  1  0  0  0  0
 22 23  1  0  0  0  0
 23 20  1  0  0  0  0
 25 29  1  1  0  0  0
 26 25  1  0  0  0  0
 27 24  1  6  0  0  0
 27 26  1  0  0  0  0
 27 25  1  0  0  0  0
 29 30  1  1  0  0  0
 29 28  1  0  0  0  0
M  END
>  <MODEL>
9

>  <REMARK>
 VINA RESULT:      -8.2      2.262      6.324
  Name = 
  6 active torsions:
  status: ('A' for Active; 'I' for Inactive)
    1  A    between atoms: C_4  and  C_13
    2  A    between atoms: C_7  and  C_15
    3  A    between atoms: C_8  and  C_12
    4  A    between atoms: C_8  and  C_13
    5  A    between atoms: C_13  and  C_27
    6  A    between atoms: C_27  and  C_30
                            x       y       z     vdW  Elec       q    Type
                         _______ _______ _______ _____ _____    ______ ____

>  <TORSDO>
F 6

$$$$
