=
 OpenBabel10272400003D

 34 37  0  0  1  0  0  0  0  0999 V2000
  187.8520  177.5450  144.6420 N   0  0  0  0  0  0  0  0  0  0  0  0
  186.0280  178.2460  143.0150 C   0  0  1  0  0  3  0  0  0  0  0  0
  185.6850  178.0410  145.3950 O   0  0  0  0  0  0  0  0  0  0  0  0
  188.8010  177.5440  143.5250 C   0  0  1  0  0  3  0  0  0  0  0  0
  187.1040  178.6210  142.1880 O   0  0  0  0  0  0  0  0  0  0  0  0
  188.0190  177.5520  142.1960 C   0  0  1  0  0  3  0  0  0  0  0  0
  186.4960  177.9850  144.4310 C   0  0  0  0  0  0  0  0  0  0  0  0
  189.3570  178.4110  138.7540 C   0  0  0  0  0  0  0  0  0  0  0  0
  190.4650  177.5660  138.6570 C   0  0  0  0  0  3  0  0  0  0  0  0
  188.8890  177.5540  140.9750 C   0  0  0  0  0  0  0  0  0  0  0  0
  190.7860  176.7110  139.7160 C   0  0  0  0  0  3  0  0  0  0  0  0
  188.5680  178.4010  139.9100 C   0  0  0  0  0  3  0  0  0  0  0  0
  190.0000  176.7040  140.8720 C   0  0  0  0  0  3  0  0  0  0  0  0
  189.0460  179.2410  137.7270 F   0  0  0  0  0  0  0  0  0  0  0  0
  191.1300  178.2920  144.0050 C   0  0  0  0  0  1  0  0  0  0  0  0
  189.7280  178.7490  143.6510 C   0  0  0  0  0  2  0  0  0  0  0  0
  188.2590  176.9310  145.9020 C   0  0  0  0  0  2  0  0  0  0  0  0
  188.4100  177.9740  147.0040 C   0  0  0  0  0  2  0  0  0  0  0  0
  189.6340  177.7100  147.8650 C   0  0  0  0  0  2  0  0  0  0  0  0
  190.2900  176.4010  147.4690 C   0  0  0  0  0  2  0  0  0  0  0  0
  192.5670  175.7890  148.0550 N   0  0  0  0  0  2  0  0  0  0  0  0
  191.7550  176.6360  147.1690 C   0  0  1  0  0  3  0  0  0  0  0  0
  192.3560  175.4130  146.6510 C   0  0  0  0  0  2  0  0  0  0  0  0
  184.9610  179.3320  142.9500 C   0  0  0  0  0  2  0  0  0  0  0  0
  183.5790  178.7630  142.6460 C   0  0  0  0  0  2  0  0  0  0  0  0
  183.5370  177.9890  141.3290 C   0  0  0  0  0  2  0  0  0  0  0  0
  183.3040  178.9090  140.1380 C   0  0  0  0  0  2  0  0  0  0  0  0
  185.6060  179.0350  138.5120 O   0  0  0  0  0  0  0  0  0  0  0  0
  183.4580  178.1760  138.8880 N   0  0  0  0  0  0  0  0  0  0  0  0
  184.6960  178.2380  138.1570 C   0  0  0  0  0  0  0  0  0  0  0  0
  183.6580  176.8500  136.3570 C   0  0  0  0  0  2  0  0  0  0  0  0
  182.6610  176.3720  137.4040 C   0  0  0  0  0  2  0  0  0  0  0  0
  182.2750  177.5410  138.3020 C   0  0  0  0  0  2  0  0  0  0  0  0
  184.9570  177.2890  137.0260 C   0  0  0  0  0  2  0  0  0  0  0  0
  1 17  1  0  0  0  0
  2 24  1  1  0  0  0
  2  7  1  0  0  0  0
  4 16  1  1  0  0  0
  4  1  1  0  0  0  0
  5  6  1  0  0  0  0
  5  2  1  0  0  0  0
  6 10  1  6  0  0  0
  6  4  1  0  0  0  0
  7  1  1  0  0  0  0
  7  3  2  0  0  0  0
  8 12  1  0  0  0  0
  9  8  2  0  0  0  0
  9 11  1  0  0  0  0
 11 13  2  0  0  0  0
 12 10  2  0  0  0  0
 13 10  1  0  0  0  0
 14  8  1  0  0  0  0
 16 15  1  0  0  0  0
 17 18  1  0  0  0  0
 18 19  1  0  0  0  0
 20 19  1  0  0  0  0
 22 20  1  1  0  0  0
 22 21  1  0  0  0  0
 23 22  1  0  0  0  0
 23 21  1  0  0  0  0
 25 24  1  0  0  0  0
 26 25  1  0  0  0  0
 27 26  1  0  0  0  0
 29 27  1  0  0  0  0
 30 28  2  0  0  0  0
 30 29  1  0  0  0  0
 31 34  1  0  0  0  0
 31 32  1  0  0  0  0
 32 33  1  0  0  0  0
 33 29  1  0  0  0  0
 34 30  1  0  0  0  0
M  END
>  <MODEL>
1

>  <REMARK>
 VINA RESULT:      -7.3      0.000      0.000
  Name = 
  12 active torsions:
  status: ('A' for Active; 'I' for Inactive)
    1  A    between atoms: C_2  and  C_15
    2  A    between atoms: C_2  and  C_25
    3  A    between atoms: C_3  and  N_13
    4  A    between atoms: C_3  and  C_17
    5  A    between atoms: N_4  and  C_15
    6  A    between atoms: C_5  and  C_18
    7  A    between atoms: C_6  and  C_9
    8  A    between atoms: C_9  and  C_25
    9  A    between atoms: C_12  and  C_28
   10  A    between atoms: C_17  and  C_29
   11  A    between atoms: C_18  and  C_29
   12  A    between atoms: C_21  and  C_32
                            x       y       z     vdW  Elec       q    Type
                         _______ _______ _______ _____ _____    ______ ____

>  <TORSDO>
F 12

$$$$
=
 OpenBabel10272400003D

 34 37  0  0  1  0  0  0  0  0999 V2000
  182.1700  179.0830  140.8080 N   0  0  0  0  0  0  0  0  0  0  0  0
  183.4180  179.1680  143.0220 C   0  0  1  0  0  3  0  0  0  0  0  0
  181.0380  179.5080  142.8200 O   0  0  0  0  0  0  0  0  0  0  0  0
  183.4240  178.6950  140.1550 C   0  0  1  0  0  3  0  0  0  0  0  0
  184.3780  178.3850  142.3510 O   0  0  0  0  0  0  0  0  0  0  0  0
  184.6020  178.9950  141.1020 C   0  0  1  0  0  3  0  0  0  0  0  0
  182.1220  179.2260  142.2420 C   0  0  0  0  0  0  0  0  0  0  0  0
  188.3040  178.2010  140.9020 C   0  0  0  0  0  0  0  0  0  0  0  0
  188.4820  178.0000  139.5300 C   0  0  0  0  0  3  0  0  0  0  0  0
  185.9450  178.6350  140.5400 C   0  0  0  0  0  0  0  0  0  0  0  0
  187.3930  178.1210  138.6610 C   0  0  0  0  0  3  0  0  0  0  0  0
  187.0380  178.5220  141.4040 C   0  0  0  0  0  3  0  0  0  0  0  0
  186.1280  178.4370  139.1630 C   0  0  0  0  0  3  0  0  0  0  0  0
  189.3600  178.0830  141.7450 F   0  0  0  0  0  0  0  0  0  0  0  0
  183.0920  177.0770  138.2870 C   0  0  0  0  0  1  0  0  0  0  0  0
  183.3560  177.2190  139.7740 C   0  0  0  0  0  2  0  0  0  0  0  0
  181.0450  179.4880  139.9720 C   0  0  0  0  0  2  0  0  0  0  0  0
  181.5010  180.3780  138.8210 C   0  0  0  0  0  2  0  0  0  0  0  0
  180.5800  181.5710  138.6310 C   0  0  0  0  0  2  0  0  0  0  0  0
  180.9480  182.3320  137.3710 C   0  0  0  0  0  2  0  0  0  0  0  0
  182.0810  184.4800  137.4400 N   0  0  0  0  0  2  0  0  0  0  0  0
  180.7790  183.8170  137.6050 C   0  0  1  0  0  3  0  0  0  0  0  0
  181.0690  184.5480  136.3770 C   0  0  0  0  0  2  0  0  0  0  0  0
  183.2240  178.6030  144.4250 C   0  0  0  0  0  2  0  0  0  0  0  0
  184.3370  179.0320  145.3750 C   0  0  0  0  0  2  0  0  0  0  0  0
  185.5530  178.1090  145.3140 C   0  0  0  0  0  2  0  0  0  0  0  0
  186.3140  178.0840  146.6330 C   0  0  0  0  0  2  0  0  0  0  0  0
  188.2050  177.7630  148.7010 O   0  0  0  0  0  0  0  0  0  0  0  0
  187.7150  177.7510  146.4090 N   0  0  0  0  0  0  0  0  0  0  0  0
  188.5960  177.5310  147.5250 C   0  0  0  0  0  0  0  0  0  0  0  0
  190.4930  177.2580  145.9220 C   0  0  0  0  0  2  0  0  0  0  0  0
  189.4520  176.9280  144.8620 C   0  0  0  0  0  2  0  0  0  0  0  0
  188.2420  177.8360  145.0450 C   0  0  0  0  0  2  0  0  0  0  0  0
  189.9540  176.9330  147.3110 C   0  0  0  0  0  2  0  0  0  0  0  0
  1  7  1  0  0  0  0
  2 24  1  1  0  0  0
  4 16  1  1  0  0  0
  4  1  1  0  0  0  0
  4  6  1  0  0  0  0
  5  2  1  0  0  0  0
  6 10  1  6  0  0  0
  6  5  1  0  0  0  0
  7  3  2  0  0  0  0
  7  2  1  0  0  0  0
  8 12  1  0  0  0  0
  8 14  1  0  0  0  0
  9  8  2  0  0  0  0
 10 12  2  0  0  0  0
 11 13  2  0  0  0  0
 11  9  1  0  0  0  0
 13 10  1  0  0  0  0
 15 16  1  0  0  0  0
 17  1  1  0  0  0  0
 18 17  1  0  0  0  0
 19 18  1  0  0  0  0
 20 19  1  0  0  0  0
 21 22  1  0  0  0  0
 22 20  1  6  0  0  0
 23 21  1  0  0  0  0
 23 22  1  0  0  0  0
 24 25  1  0  0  0  0
 26 25  1  0  0  0  0
 26 27  1  0  0  0  0
 29 27  1  0  0  0  0
 29 30  1  0  0  0  0
 30 28  2  0  0  0  0
 31 34  1  0  0  0  0
 32 33  1  0  0  0  0
 32 31  1  0  0  0  0
 33 29  1  0  0  0  0
 34 30  1  0  0  0  0
M  END
>  <MODEL>
2

>  <REMARK>
 VINA RESULT:      -7.1      3.054      8.976
  Name = 
  12 active torsions:
  status: ('A' for Active; 'I' for Inactive)
    1  A    between atoms: C_2  and  C_15
    2  A    between atoms: C_2  and  C_25
    3  A    between atoms: C_3  and  N_13
    4  A    between atoms: C_3  and  C_17
    5  A    between atoms: N_4  and  C_15
    6  A    between atoms: C_5  and  C_18
    7  A    between atoms: C_6  and  C_9
    8  A    between atoms: C_9  and  C_25
    9  A    between atoms: C_12  and  C_28
   10  A    between atoms: C_17  and  C_29
   11  A    between atoms: C_18  and  C_29
   12  A    between atoms: C_21  and  C_32
                            x       y       z     vdW  Elec       q    Type
                         _______ _______ _______ _____ _____    ______ ____

>  <TORSDO>
F 12

$$$$
=
 OpenBabel10272400003D

 34 37  0  0  1  0  0  0  0  0999 V2000
  190.1580  177.7110  142.5230 N   0  0  0  0  0  0  0  0  0  0  0  0
  189.1020  178.0410  140.2330 C   0  0  1  0  0  3  0  0  0  0  0  0
  191.4630  177.6700  140.5720 O   0  0  0  0  0  0  0  0  0  0  0  0
  188.8160  177.7480  143.1100 C   0  0  1  0  0  3  0  0  0  0  0  0
  187.9210  177.6170  140.8720 O   0  0  0  0  0  0  0  0  0  0  0  0
  187.8290  178.3320  142.0800 C   0  0  1  0  0  3  0  0  0  0  0  0
  190.3170  177.7540  141.0910 C   0  0  0  0  0  0  0  0  0  0  0  0
  184.8560  178.4970  144.4280 C   0  0  0  0  0  0  0  0  0  0  0  0
  183.7840  178.5420  143.5330 C   0  0  0  0  0  3  0  0  0  0  0  0
  186.4140  178.4180  142.5700 C   0  0  0  0  0  0  0  0  0  0  0  0
  184.0240  178.5200  142.1550 C   0  0  0  0  0  3  0  0  0  0  0  0
  186.1680  178.4310  143.9460 C   0  0  0  0  0  3  0  0  0  0  0  0
  185.3350  178.4580  141.6740 C   0  0  0  0  0  3  0  0  0  0  0  0
  184.6240  178.5180  145.7630 F   0  0  0  0  0  0  0  0  0  0  0  0
  189.4440  175.3360  143.0620 C   0  0  0  0  0  1  0  0  0  0  0  0
  188.4200  176.3410  143.5490 C   0  0  0  0  0  2  0  0  0  0  0  0
  191.3110  177.8090  143.4130 C   0  0  0  0  0  2  0  0  0  0  0  0
  190.8800  178.0750  144.8510 C   0  0  0  0  0  2  0  0  0  0  0  0
  191.4420  177.0380  145.8090 C   0  0  0  0  0  2  0  0  0  0  0  0
  190.4600  176.7680  146.9330 C   0  0  0  0  0  2  0  0  0  0  0  0
  188.1250  177.1530  147.4880 N   0  0  0  0  0  2  0  0  0  0  0  0
  189.3100  177.7480  146.8520 C   0  0  1  0  0  3  0  0  0  0  0  0
  188.9200  178.1670  148.1930 C   0  0  0  0  0  2  0  0  0  0  0  0
  189.1870  177.3690  138.8680 C   0  0  0  0  0  2  0  0  0  0  0  0
  189.1840  178.3830  137.7280 C   0  0  0  0  0  2  0  0  0  0  0  0
  188.6420  177.8010  136.4230 C   0  0  0  0  0  2  0  0  0  0  0  0
  187.3090  178.4250  136.0350 C   0  0  0  0  0  2  0  0  0  0  0  0
  185.8480  178.9140  138.3980 O   0  0  0  0  0  0  0  0  0  0  0  0
  186.2030  177.5940  136.4930 N   0  0  0  0  0  0  0  0  0  0  0  0
  185.4620  177.9580  137.6720 C   0  0  0  0  0  0  0  0  0  0  0  0
  184.1440  175.8470  137.4470 C   0  0  0  0  0  2  0  0  0  0  0  0
  184.5430  175.8430  135.9770 C   0  0  0  0  0  2  0  0  0  0  0  0
  185.9920  176.2970  135.8480 C   0  0  0  0  0  2  0  0  0  0  0  0
  184.1710  177.2690  137.9970 C   0  0  0  0  0  2  0  0  0  0  0  0
  1  4  1  0  0  0  0
  1 17  1  0  0  0  0
  2 24  1  6  0  0  0
  2  5  1  0  0  0  0
  2  7  1  0  0  0  0
  3  7  2  0  0  0  0
  4 16  1  6  0  0  0
  5  6  1  0  0  0  0
  6 10  1  1  0  0  0
  6  4  1  0  0  0  0
  7  1  1  0  0  0  0
  8 14  1  0  0  0  0
  9  8  2  0  0  0  0
 10 12  2  0  0  0  0
 11  9  1  0  0  0  0
 12  8  1  0  0  0  0
 13 11  2  0  0  0  0
 13 10  1  0  0  0  0
 15 16  1  0  0  0  0
 17 18  1  0  0  0  0
 18 19  1  0  0  0  0
 19 20  1  0  0  0  0
 21 23  1  0  0  0  0
 22 20  1  1  0  0  0
 22 21  1  0  0  0  0
 22 23  1  0  0  0  0
 25 24  1  0  0  0  0
 26 25  1  0  0  0  0
 27 26  1  0  0  0  0
 27 29  1  0  0  0  0
 29 30  1  0  0  0  0
 30 34  1  0  0  0  0
 30 28  2  0  0  0  0
 31 34  1  0  0  0  0
 32 31  1  0  0  0  0
 33 32  1  0  0  0  0
 33 29  1  0  0  0  0
M  END
>  <MODEL>
3

>  <REMARK>
 VINA RESULT:      -7.0      2.428      4.734
  Name = 
  12 active torsions:
  status: ('A' for Active; 'I' for Inactive)
    1  A    between atoms: C_2  and  C_15
    2  A    between atoms: C_2  and  C_25
    3  A    between atoms: C_3  and  N_13
    4  A    between atoms: C_3  and  C_17
    5  A    between atoms: N_4  and  C_15
    6  A    between atoms: C_5  and  C_18
    7  A    between atoms: C_6  and  C_9
    8  A    between atoms: C_9  and  C_25
    9  A    between atoms: C_12  and  C_28
   10  A    between atoms: C_17  and  C_29
   11  A    between atoms: C_18  and  C_29
   12  A    between atoms: C_21  and  C_32
                            x       y       z     vdW  Elec       q    Type
                         _______ _______ _______ _____ _____    ______ ____

>  <TORSDO>
F 12

$$$$
=
 OpenBabel10272400003D

 34 37  0  0  1  0  0  0  0  0999 V2000
  188.1070  178.1090  141.5940 N   0  0  0  0  0  0  0  0  0  0  0  0
  185.8290  178.6000  142.6120 C   0  0  1  0  0  3  0  0  0  0  0  0
  186.2950  178.7520  140.2490 O   0  0  0  0  0  0  0  0  0  0  0  0
  188.5770  177.7090  142.9240 C   0  0  1  0  0  3  0  0  0  0  0  0
  186.2830  177.7900  143.6710 O   0  0  0  0  0  0  0  0  0  0  0  0
  187.5850  178.2210  143.9870 C   0  0  1  0  0  3  0  0  0  0  0  0
  186.7230  178.4580  141.3980 C   0  0  0  0  0  0  0  0  0  0  0  0
  189.6880  177.3540  147.0210 C   0  0  0  0  0  0  0  0  0  0  0  0
  188.7130  177.1760  148.0050 C   0  0  0  0  0  3  0  0  0  0  0  0
  187.9620  177.8690  145.3950 C   0  0  0  0  0  0  0  0  0  0  0  0
  187.3610  177.3400  147.6860 C   0  0  0  0  0  3  0  0  0  0  0  0
  189.3120  177.6950  145.7160 C   0  0  0  0  0  3  0  0  0  0  0  0
  186.9860  177.6850  146.3860 C   0  0  0  0  0  3  0  0  0  0  0  0
  190.9980  177.1950  147.3290 F   0  0  0  0  0  0  0  0  0  0  0  0
  190.1990  175.8160  142.8890 C   0  0  0  0  0  1  0  0  0  0  0  0
  188.7320  176.1920  142.9680 C   0  0  0  0  0  2  0  0  0  0  0  0
  189.0940  178.3120  140.5390 C   0  0  0  0  0  2  0  0  0  0  0  0
  189.0540  177.1820  139.5160 C   0  0  0  0  0  2  0  0  0  0  0  0
  190.1360  177.3380  138.4610 C   0  0  0  0  0  2  0  0  0  0  0  0
  191.2870  176.3880  138.7370 C   0  0  0  0  0  2  0  0  0  0  0  0
  193.4850  176.6760  137.7410 N   0  0  0  0  0  2  0  0  0  0  0  0
  192.1140  176.2130  137.4820 C   0  0  1  0  0  3  0  0  0  0  0  0
  193.1750  175.2410  137.7190 C   0  0  0  0  0  2  0  0  0  0  0  0
  184.3800  178.2380  142.3080 C   0  0  0  0  0  2  0  0  0  0  0  0
  183.4220  178.7640  143.3720 C   0  0  0  0  0  2  0  0  0  0  0  0
  182.0140  179.0040  142.8300 C   0  0  0  0  0  2  0  0  0  0  0  0
  181.7820  178.2760  141.5120 C   0  0  0  0  0  2  0  0  0  0  0  0
  183.2770  178.4070  139.1240 O   0  0  0  0  0  0  0  0  0  0  0  0
  181.5210  179.2290  140.4410 N   0  0  0  0  0  0  0  0  0  0  0  0
  182.2850  179.1780  139.2220 C   0  0  0  0  0  0  0  0  0  0  0  0
  181.0840  181.2220  138.4310 C   0  0  0  0  0  2  0  0  0  0  0  0
  179.9820  180.8660  139.4210 C   0  0  0  0  0  2  0  0  0  0  0  0
  180.6110  180.3450  140.7080 C   0  0  0  0  0  2  0  0  0  0  0  0
  181.8520  179.9690  138.0240 C   0  0  0  0  0  2  0  0  0  0  0  0
  1  4  1  0  0  0  0
  2 24  1  6  0  0  0
  2  5  1  0  0  0  0
  3  7  2  0  0  0  0
  4 16  1  6  0  0  0
  4  6  1  0  0  0  0
  5  6  1  0  0  0  0
  6 10  1  1  0  0  0
  7  1  1  0  0  0  0
  7  2  1  0  0  0  0
  8 14  1  0  0  0  0
  8  9  1  0  0  0  0
 10 12  1  0  0  0  0
 10 13  2  0  0  0  0
 11  9  2  0  0  0  0
 12  8  2  0  0  0  0
 13 11  1  0  0  0  0
 15 16  1  0  0  0  0
 17  1  1  0  0  0  0
 18 17  1  0  0  0  0
 19 20  1  0  0  0  0
 19 18  1  0  0  0  0
 22 23  1  0  0  0  0
 22 21  1  0  0  0  0
 22 20  1  1  0  0  0
 23 21  1  0  0  0  0
 24 25  1  0  0  0  0
 26 25  1  0  0  0  0
 27 26  1  0  0  0  0
 28 30  2  0  0  0  0
 29 33  1  0  0  0  0
 29 27  1  0  0  0  0
 30 29  1  0  0  0  0
 31 32  1  0  0  0  0
 32 33  1  0  0  0  0
 34 31  1  0  0  0  0
 34 30  1  0  0  0  0
M  END
>  <MODEL>
4

>  <REMARK>
 VINA RESULT:      -6.9      3.008      5.865
  Name = 
  12 active torsions:
  status: ('A' for Active; 'I' for Inactive)
    1  A    between atoms: C_2  and  C_15
    2  A    between atoms: C_2  and  C_25
    3  A    between atoms: C_3  and  N_13
    4  A    between atoms: C_3  and  C_17
    5  A    between atoms: N_4  and  C_15
    6  A    between atoms: C_5  and  C_18
    7  A    between atoms: C_6  and  C_9
    8  A    between atoms: C_9  and  C_25
    9  A    between atoms: C_12  and  C_28
   10  A    between atoms: C_17  and  C_29
   11  A    between atoms: C_18  and  C_29
   12  A    between atoms: C_21  and  C_32
                            x       y       z     vdW  Elec       q    Type
                         _______ _______ _______ _____ _____    ______ ____

>  <TORSDO>
F 12

$$$$
=
 OpenBabel10272400003D

 34 37  0  0  1  0  0  0  0  0999 V2000
  188.1940  178.0910  141.4340 N   0  0  0  0  0  0  0  0  0  0  0  0
  185.9630  178.4950  142.5850 C   0  0  1  0  0  3  0  0  0  0  0  0
  186.2890  178.6940  140.2030 O   0  0  0  0  0  0  0  0  0  0  0  0
  188.7510  177.6890  142.7290 C   0  0  1  0  0  3  0  0  0  0  0  0
  186.5020  177.6860  143.6050 O   0  0  0  0  0  0  0  0  0  0  0  0
  187.8050  178.1540  143.8530 C   0  0  1  0  0  3  0  0  0  0  0  0
  186.7900  178.3990  141.3210 C   0  0  0  0  0  0  0  0  0  0  0  0
  190.0990  177.2770  146.7420 C   0  0  0  0  0  0  0  0  0  0  0  0
  189.1890  177.0900  147.7860 C   0  0  0  0  0  3  0  0  0  0  0  0
  188.2720  177.7950  145.2330 C   0  0  0  0  0  0  0  0  0  0  0  0
  187.8190  177.2510  147.5550 C   0  0  0  0  0  3  0  0  0  0  0  0
  189.6400  177.6250  145.4670 C   0  0  0  0  0  3  0  0  0  0  0  0
  187.3610  177.6020  146.2820 C   0  0  0  0  0  3  0  0  0  0  0  0
  191.4270  177.1210  146.9660 F   0  0  0  0  0  0  0  0  0  0  0  0
  190.4360  175.8530  142.7920 C   0  0  0  0  0  1  0  0  0  0  0  0
  188.9560  176.1770  142.7410 C   0  0  0  0  0  2  0  0  0  0  0  0
  189.1130  178.3410  140.3280 C   0  0  0  0  0  2  0  0  0  0  0  0
  189.3830  177.0680  139.5330 C   0  0  0  0  0  2  0  0  0  0  0  0
  188.5140  176.9860  138.2890 C   0  0  0  0  0  2  0  0  0  0  0  0
  188.5440  178.3010  137.5330 C   0  0  0  0  0  2  0  0  0  0  0  0
  187.4220  178.1310  135.3840 N   0  0  0  0  0  2  0  0  0  0  0  0
  187.2360  178.4950  136.7960 C   0  0  1  0  0  3  0  0  0  0  0  0
  186.7470  177.2110  136.3090 C   0  0  0  0  0  2  0  0  0  0  0  0
  184.5110  178.0900  142.3580 C   0  0  0  0  0  2  0  0  0  0  0  0
  183.5370  179.1780  142.7970 C   0  0  0  0  0  2  0  0  0  0  0  0
  182.0770  178.7920  142.5610 C   0  0  0  0  0  2  0  0  0  0  0  0
  181.5640  179.3050  141.2220 C   0  0  0  0  0  2  0  0  0  0  0  0
  183.1660  180.2750  139.1120 O   0  0  0  0  0  0  0  0  0  0  0  0
  182.0630  178.4760  140.1320 N   0  0  0  0  0  0  0  0  0  0  0  0
  182.9370  179.0370  139.1360 C   0  0  0  0  0  0  0  0  0  0  0  0
  182.8860  176.8530  137.9210 C   0  0  0  0  0  2  0  0  0  0  0  0
  182.4800  176.2130  139.2420 C   0  0  0  0  0  2  0  0  0  0  0  0
  181.5050  177.1320  139.9680 C   0  0  0  0  0  2  0  0  0  0  0  0
  183.6620  178.1410  138.1750 C   0  0  0  0  0  2  0  0  0  0  0  0
  1  4  1  0  0  0  0
  2 24  1  6  0  0  0
  2  5  1  0  0  0  0
  3  7  2  0  0  0  0
  4 16  1  6  0  0  0
  4  6  1  0  0  0  0
  5  6  1  0  0  0  0
  6 10  1  1  0  0  0
  7  1  1  0  0  0  0
  7  2  1  0  0  0  0
  8 14  1  0  0  0  0
  8  9  1  0  0  0  0
 10 12  1  0  0  0  0
 10 13  2  0  0  0  0
 11  9  2  0  0  0  0
 12  8  2  0  0  0  0
 13 11  1  0  0  0  0
 16 15  1  0  0  0  0
 17  1  1  0  0  0  0
 18 17  1  0  0  0  0
 19 18  1  0  0  0  0
 20 19  1  0  0  0  0
 21 23  1  0  0  0  0
 21 22  1  0  0  0  0
 22 20  1  1  0  0  0
 23 22  1  0  0  0  0
 24 25  1  0  0  0  0
 26 25  1  0  0  0  0
 27 26  1  0  0  0  0
 28 30  2  0  0  0  0
 29 27  1  0  0  0  0
 30 29  1  0  0  0  0
 31 34  1  0  0  0  0
 31 32  1  0  0  0  0
 32 33  1  0  0  0  0
 33 29  1  0  0  0  0
 34 30  1  0  0  0  0
M  END
>  <MODEL>
5

>  <REMARK>
 VINA RESULT:      -6.9      2.665      6.120
  Name = 
  12 active torsions:
  status: ('A' for Active; 'I' for Inactive)
    1  A    between atoms: C_2  and  C_15
    2  A    between atoms: C_2  and  C_25
    3  A    between atoms: C_3  and  N_13
    4  A    between atoms: C_3  and  C_17
    5  A    between atoms: N_4  and  C_15
    6  A    between atoms: C_5  and  C_18
    7  A    between atoms: C_6  and  C_9
    8  A    between atoms: C_9  and  C_25
    9  A    between atoms: C_12  and  C_28
   10  A    between atoms: C_17  and  C_29
   11  A    between atoms: C_18  and  C_29
   12  A    between atoms: C_21  and  C_32
                            x       y       z     vdW  Elec       q    Type
                         _______ _______ _______ _____ _____    ______ ____

>  <TORSDO>
F 12

$$$$
=
 OpenBabel10272400003D

 34 37  0  0  1  0  0  0  0  0999 V2000
  190.2650  177.7550  142.7300 N   0  0  0  0  0  0  0  0  0  0  0  0
  190.5090  177.6010  140.2030 C   0  0  1  0  0  3  0  0  0  0  0  0
  192.3420  177.2890  141.7410 O   0  0  0  0  0  0  0  0  0  0  0  0
  188.8210  177.9280  142.5460 C   0  0  1  0  0  3  0  0  0  0  0  0
  189.1260  177.3320  140.2270 O   0  0  0  0  0  0  0  0  0  0  0  0
  188.5380  178.2890  141.0750 C   0  0  1  0  0  3  0  0  0  0  0  0
  191.1070  177.4920  141.5900 C   0  0  0  0  0  0  0  0  0  0  0  0
  185.2710  178.4130  139.1540 C   0  0  0  0  0  0  0  0  0  0  0  0
  184.3840  178.8850  140.1250 C   0  0  0  0  0  3  0  0  0  0  0  0
  187.0850  178.4900  140.7640 C   0  0  0  0  0  0  0  0  0  0  0  0
  184.8460  179.1630  141.4160 C   0  0  0  0  0  3  0  0  0  0  0  0
  186.6200  178.2210  139.4730 C   0  0  0  0  0  3  0  0  0  0  0  0
  186.1920  178.9670  141.7350 C   0  0  0  0  0  3  0  0  0  0  0  0
  184.8230  178.1430  137.9030 F   0  0  0  0  0  0  0  0  0  0  0  0
  187.2610  176.9130  144.2050 C   0  0  0  0  0  1  0  0  0  0  0  0
  188.1030  176.6500  142.9710 C   0  0  0  0  0  2  0  0  0  0  0  0
  190.8380  178.0290  144.0440 C   0  0  0  0  0  2  0  0  0  0  0  0
  191.1310  176.7380  144.8020 C   0  0  0  0  0  2  0  0  0  0  0  0
  190.9130  176.9010  146.2960 C   0  0  0  0  0  2  0  0  0  0  0  0
  189.6850  177.7500  146.5640 C   0  0  0  0  0  2  0  0  0  0  0  0
  188.6020  178.0390  148.7210 N   0  0  0  0  0  2  0  0  0  0  0  0
  188.8280  177.0880  147.6220 C   0  0  1  0  0  3  0  0  0  0  0  0
  187.5500  177.7800  147.7290 C   0  0  0  0  0  2  0  0  0  0  0  0
  191.1730  176.6540  139.2110 C   0  0  0  0  0  2  0  0  0  0  0  0
  190.1740  176.0720  138.2160 C   0  0  0  0  0  2  0  0  0  0  0  0
  190.8280  175.1320  137.2050 C   0  0  0  0  0  2  0  0  0  0  0  0
  190.5390  175.5510  135.7700 C   0  0  0  0  0  2  0  0  0  0  0  0
  188.1900  174.0240  135.4330 O   0  0  0  0  0  0  0  0  0  0  0  0
  189.2030  176.1250  135.6650 N   0  0  0  0  0  0  0  0  0  0  0  0
  188.0500  175.2690  135.5700 C   0  0  0  0  0  0  0  0  0  0  0  0
  186.6160  177.2980  135.2990 C   0  0  0  0  0  2  0  0  0  0  0  0
  187.7360  178.0860  135.9640 C   0  0  0  0  0  2  0  0  0  0  0  0
  189.0800  177.5710  135.4650 C   0  0  0  0  0  2  0  0  0  0  0  0
  186.6710  175.8360  135.7300 C   0  0  0  0  0  2  0  0  0  0  0  0
  1 17  1  0  0  0  0
  2 24  1  6  0  0  0
  2  5  1  0  0  0  0
  2  7  1  0  0  0  0
  4  1  1  0  0  0  0
  4 16  1  6  0  0  0
  5  6  1  0  0  0  0
  6 10  1  1  0  0  0
  6  4  1  0  0  0  0
  7  3  2  0  0  0  0
  7  1  1  0  0  0  0
  8 12  2  0  0  0  0
  8  9  1  0  0  0  0
  9 11  2  0  0  0  0
 10 13  2  0  0  0  0
 11 13  1  0  0  0  0
 12 10  1  0  0  0  0
 14  8  1  0  0  0  0
 16 15  1  0  0  0  0
 17 18  1  0  0  0  0
 18 19  1  0  0  0  0
 19 20  1  0  0  0  0
 22 20  1  6  0  0  0
 22 23  1  0  0  0  0
 22 21  1  0  0  0  0
 23 21  1  0  0  0  0
 25 24  1  0  0  0  0
 26 25  1  0  0  0  0
 27 26  1  0  0  0  0
 28 30  2  0  0  0  0
 29 27  1  0  0  0  0
 30 29  1  0  0  0  0
 30 34  1  0  0  0  0
 31 34  1  0  0  0  0
 31 32  1  0  0  0  0
 33 29  1  0  0  0  0
 33 32  1  0  0  0  0
M  END
>  <MODEL>
6

>  <REMARK>
 VINA RESULT:      -6.8      2.859      5.185
  Name = 
  12 active torsions:
  status: ('A' for Active; 'I' for Inactive)
    1  A    between atoms: C_2  and  C_15
    2  A    between atoms: C_2  and  C_25
    3  A    between atoms: C_3  and  N_13
    4  A    between atoms: C_3  and  C_17
    5  A    between atoms: N_4  and  C_15
    6  A    between atoms: C_5  and  C_18
    7  A    between atoms: C_6  and  C_9
    8  A    between atoms: C_9  and  C_25
    9  A    between atoms: C_12  and  C_28
   10  A    between atoms: C_17  and  C_29
   11  A    between atoms: C_18  and  C_29
   12  A    between atoms: C_21  and  C_32
                            x       y       z     vdW  Elec       q    Type
                         _______ _______ _______ _____ _____    ______ ____

>  <TORSDO>
F 12

$$$$
=
 OpenBabel10272400003D

 34 37  0  0  1  0  0  0  0  0999 V2000
  189.0840  177.7980  141.2740 N   0  0  0  0  0  0  0  0  0  0  0  0
  186.7570  178.7250  141.7110 C   0  0  1  0  0  3  0  0  0  0  0  0
  187.7430  178.5810  139.5140 O   0  0  0  0  0  0  0  0  0  0  0  0
  189.1790  177.4580  142.6960 C   0  0  1  0  0  3  0  0  0  0  0  0
  186.8260  177.9590  142.8910 O   0  0  0  0  0  0  0  0  0  0  0  0
  188.0820  178.2140  143.4720 C   0  0  1  0  0  3  0  0  0  0  0  0
  187.8550  178.3350  140.7450 C   0  0  0  0  0  0  0  0  0  0  0  0
  189.3190  177.4760  146.9800 C   0  0  0  0  0  0  0  0  0  0  0  0
  188.1220  177.3970  147.6960 C   0  0  0  0  0  3  0  0  0  0  0  0
  188.0790  177.9430  144.9470 C   0  0  0  0  0  0  0  0  0  0  0  0
  186.9020  177.5870  147.0400 C   0  0  0  0  0  3  0  0  0  0  0  0
  189.2960  177.7430  145.6060 C   0  0  0  0  0  3  0  0  0  0  0  0
  186.8800  177.8590  145.6690 C   0  0  0  0  0  3  0  0  0  0  0  0
  190.5020  177.2920  147.6160 F   0  0  0  0  0  0  0  0  0  0  0  0
  190.4210  175.3470  143.1590 C   0  0  0  0  0  1  0  0  0  0  0  0
  189.0600  175.9460  142.8620 C   0  0  0  0  0  2  0  0  0  0  0  0
  190.2960  177.7470  140.4630 C   0  0  0  0  0  2  0  0  0  0  0  0
  190.3290  176.4970  139.5910 C   0  0  0  0  0  2  0  0  0  0  0  0
  190.8640  176.7940  138.2000 C   0  0  0  0  0  2  0  0  0  0  0  0
  191.9330  175.7880  137.8170 C   0  0  0  0  0  2  0  0  0  0  0  0
  194.3400  175.5080  137.6250 N   0  0  0  0  0  2  0  0  0  0  0  0
  193.2540  176.5000  137.6160 C   0  0  1  0  0  3  0  0  0  0  0  0
  193.8590  176.0770  136.3590 C   0  0  0  0  0  2  0  0  0  0  0  0
  185.3680  178.5620  141.1050 C   0  0  0  0  0  2  0  0  0  0  0  0
  184.3360  178.1290  142.1410 C   0  0  0  0  0  2  0  0  0  0  0  0
  183.0670  178.9790  142.0990 C   0  0  0  0  0  2  0  0  0  0  0  0
  181.9000  178.2230  141.4760 C   0  0  0  0  0  2  0  0  0  0  0  0
  182.5910  176.0350  139.8350 O   0  0  0  0  0  0  0  0  0  0  0  0
  181.9680  178.2870  140.0220 N   0  0  0  0  0  0  0  0  0  0  0  0
  182.2560  177.1030  139.2560 C   0  0  0  0  0  0  0  0  0  0  0  0
  182.2520  178.4930  137.1790 C   0  0  0  0  0  2  0  0  0  0  0  0
  181.4140  179.5060  137.9490 C   0  0  0  0  0  2  0  0  0  0  0  0
  181.9310  179.6030  139.3790 C   0  0  0  0  0  2  0  0  0  0  0  0
  182.0660  177.0990  137.7680 C   0  0  0  0  0  2  0  0  0  0  0  0
  1  4  1  0  0  0  0
  2 24  1  6  0  0  0
  2  5  1  0  0  0  0
  3  7  2  0  0  0  0
  4 16  1  6  0  0  0
  4  6  1  0  0  0  0
  5  6  1  0  0  0  0
  6 10  1  1  0  0  0
  7  1  1  0  0  0  0
  7  2  1  0  0  0  0
  8 14  1  0  0  0  0
  8  9  1  0  0  0  0
 10 12  1  0  0  0  0
 10 13  2  0  0  0  0
 11  9  2  0  0  0  0
 12  8  2  0  0  0  0
 13 11  1  0  0  0  0
 16 15  1  0  0  0  0
 17  1  1  0  0  0  0
 18 17  1  0  0  0  0
 19 18  1  0  0  0  0
 20 19  1  0  0  0  0
 22 21  1  0  0  0  0
 22 20  1  6  0  0  0
 23 22  1  0  0  0  0
 23 21  1  0  0  0  0
 24 25  1  0  0  0  0
 26 25  1  0  0  0  0
 27 26  1  0  0  0  0
 29 27  1  0  0  0  0
 30 28  2  0  0  0  0
 30 29  1  0  0  0  0
 31 34  1  0  0  0  0
 31 32  1  0  0  0  0
 32 33  1  0  0  0  0
 33 29  1  0  0  0  0
 34 30  1  0  0  0  0
M  END
>  <MODEL>
7

>  <REMARK>
 VINA RESULT:      -6.7      3.091      5.896
  Name = 
  12 active torsions:
  status: ('A' for Active; 'I' for Inactive)
    1  A    between atoms: C_2  and  C_15
    2  A    between atoms: C_2  and  C_25
    3  A    between atoms: C_3  and  N_13
    4  A    between atoms: C_3  and  C_17
    5  A    between atoms: N_4  and  C_15
    6  A    between atoms: C_5  and  C_18
    7  A    between atoms: C_6  and  C_9
    8  A    between atoms: C_9  and  C_25
    9  A    between atoms: C_12  and  C_28
   10  A    between atoms: C_17  and  C_29
   11  A    between atoms: C_18  and  C_29
   12  A    between atoms: C_21  and  C_32
                            x       y       z     vdW  Elec       q    Type
                         _______ _______ _______ _____ _____    ______ ____

>  <TORSDO>
F 12

$$$$
=
 OpenBabel10272400003D

 34 37  0  0  1  0  0  0  0  0999 V2000
  189.3310  177.8250  137.9990 N   0  0  0  0  0  0  0  0  0  0  0  0
  190.5220  177.1830  140.1510 C   0  0  1  0  0  3  0  0  0  0  0  0
  188.5270  178.5380  140.0850 O   0  0  0  0  0  0  0  0  0  0  0  0
  190.2790  176.9840  137.2630 C   0  0  1  0  0  3  0  0  0  0  0  0
  191.0340  176.1170  139.3850 O   0  0  0  0  0  0  0  0  0  0  0  0
  191.4830  176.6650  138.1700 C   0  0  1  0  0  3  0  0  0  0  0  0
  189.3700  177.8600  139.4390 C   0  0  0  0  0  0  0  0  0  0  0  0
  194.4530  175.6120  136.0600 C   0  0  0  0  0  0  0  0  0  0  0  0
  194.4720  174.2300  136.2600 C   0  0  0  0  0  3  0  0  0  0  0  0
  192.5260  175.8040  137.5220 C   0  0  0  0  0  0  0  0  0  0  0  0
  193.5170  173.6310  137.0880 C   0  0  0  0  0  3  0  0  0  0  0  0
  193.4780  176.3970  136.6870 C   0  0  0  0  0  3  0  0  0  0  0  0
  192.5460  174.4150  137.7160 C   0  0  0  0  0  3  0  0  0  0  0  0
  195.3790  176.1930  135.2590 F   0  0  0  0  0  0  0  0  0  0  0  0
  189.7000  175.5800  135.2850 C   0  0  0  0  0  1  0  0  0  0  0  0
  189.5680  175.7190  136.7890 C   0  0  0  0  0  2  0  0  0  0  0  0
  188.4830  178.7440  137.2450 C   0  0  0  0  0  2  0  0  0  0  0  0
  187.3110  178.0140  136.5990 C   0  0  0  0  0  2  0  0  0  0  0  0
  186.2770  177.5880  137.6270 C   0  0  0  0  0  2  0  0  0  0  0  0
  185.4290  178.7720  138.0510 C   0  0  0  0  0  2  0  0  0  0  0  0
  184.9010  179.5230  140.3010 N   0  0  0  0  0  2  0  0  0  0  0  0
  184.6910  178.4390  139.3290 C   0  0  1  0  0  3  0  0  0  0  0  0
  183.6360  179.4180  139.5610 C   0  0  0  0  0  2  0  0  0  0  0  0
  190.1210  176.6490  141.5210 C   0  0  0  0  0  2  0  0  0  0  0  0
  191.1590  176.9750  142.5910 C   0  0  0  0  0  2  0  0  0  0  0  0
  190.6300  177.9410  143.6500 C   0  0  0  0  0  2  0  0  0  0  0  0
  190.4250  177.2530  144.9930 C   0  0  0  0  0  2  0  0  0  0  0  0
  189.6990  177.4230  147.7140 O   0  0  0  0  0  0  0  0  0  0  0  0
  189.0570  177.4400  145.4590 N   0  0  0  0  0  0  0  0  0  0  0  0
  188.7840  177.5920  146.8640 C   0  0  0  0  0  0  0  0  0  0  0  0
  186.3410  177.6420  146.3420 C   0  0  0  0  0  2  0  0  0  0  0  0
  186.7280  178.0550  144.9280 C   0  0  0  0  0  2  0  0  0  0  0  0
  187.9650  177.2760  144.4980 C   0  0  0  0  0  2  0  0  0  0  0  0
  187.4320  178.0460  147.3270 C   0  0  0  0  0  2  0  0  0  0  0  0
  1  7  1  0  0  0  0
  2 24  1  1  0  0  0
  4 16  1  1  0  0  0
  4  1  1  0  0  0  0
  4  6  1  0  0  0  0
  5  2  1  0  0  0  0
  6 10  1  6  0  0  0
  6  5  1  0  0  0  0
  7  3  2  0  0  0  0
  7  2  1  0  0  0  0
  8  9  2  0  0  0  0
  8 12  1  0  0  0  0
  9 11  1  0  0  0  0
 10 13  1  0  0  0  0
 11 13  2  0  0  0  0
 12 10  2  0  0  0  0
 14  8  1  0  0  0  0
 15 16  1  0  0  0  0
 17  1  1  0  0  0  0
 18 17  1  0  0  0  0
 18 19  1  0  0  0  0
 19 20  1  0  0  0  0
 22 20  1  6  0  0  0
 22 23  1  0  0  0  0
 22 21  1  0  0  0  0
 23 21  1  0  0  0  0
 24 25  1  0  0  0  0
 25 26  1  0  0  0  0
 26 27  1  0  0  0  0
 27 29  1  0  0  0  0
 29 30  1  0  0  0  0
 30 34  1  0  0  0  0
 30 28  2  0  0  0  0
 31 34  1  0  0  0  0
 32 31  1  0  0  0  0
 33 32  1  0  0  0  0
 33 29  1  0  0  0  0
M  END
>  <MODEL>
8

>  <REMARK>
 VINA RESULT:      -6.7      3.127      8.242
  Name = 
  12 active torsions:
  status: ('A' for Active; 'I' for Inactive)
    1  A    between atoms: C_2  and  C_15
    2  A    between atoms: C_2  and  C_25
    3  A    between atoms: C_3  and  N_13
    4  A    between atoms: C_3  and  C_17
    5  A    between atoms: N_4  and  C_15
    6  A    between atoms: C_5  and  C_18
    7  A    between atoms: C_6  and  C_9
    8  A    between atoms: C_9  and  C_25
    9  A    between atoms: C_12  and  C_28
   10  A    between atoms: C_17  and  C_29
   11  A    between atoms: C_18  and  C_29
   12  A    between atoms: C_21  and  C_32
                            x       y       z     vdW  Elec       q    Type
                         _______ _______ _______ _____ _____    ______ ____

>  <TORSDO>
F 12

$$$$
=
 OpenBabel10272400003D

 34 37  0  0  1  0  0  0  0  0999 V2000
  187.5070  177.5180  137.9320 N   0  0  0  0  0  0  0  0  0  0  0  0
  189.2590  177.9200  139.7290 C   0  0  1  0  0  3  0  0  0  0  0  0
  186.9880  178.7200  139.8800 O   0  0  0  0  0  0  0  0  0  0  0  0
  188.4830  176.6940  137.2130 C   0  0  1  0  0  3  0  0  0  0  0  0
  189.8880  176.7890  139.1730 O   0  0  0  0  0  0  0  0  0  0  0  0
  189.8900  176.9680  137.7780 C   0  0  1  0  0  3  0  0  0  0  0  0
  187.8370  178.0540  139.2280 C   0  0  0  0  0  0  0  0  0  0  0  0
  192.8950  174.7010  137.3180 C   0  0  0  0  0  0  0  0  0  0  0  0
  193.0500  174.7060  135.9290 C   0  0  0  0  0  3  0  0  0  0  0  0
  190.9780  176.1750  137.1170 C   0  0  0  0  0  0  0  0  0  0  0  0
  192.1730  175.4490  135.1320 C   0  0  0  0  0  3  0  0  0  0  0  0
  191.8640  175.4380  137.9100 C   0  0  0  0  0  3  0  0  0  0  0  0
  191.1400  176.1810  135.7230 C   0  0  0  0  0  3  0  0  0  0  0  0
  193.7460  173.9810  138.0910 F   0  0  0  0  0  0  0  0  0  0  0  0
  187.8580  174.6290  135.9630 C   0  0  0  0  0  1  0  0  0  0  0  0
  188.0900  175.2250  137.3380 C   0  0  0  0  0  2  0  0  0  0  0  0
  186.2890  177.9220  137.2360 C   0  0  0  0  0  2  0  0  0  0  0  0
  185.2640  176.7930  137.2100 C   0  0  0  0  0  2  0  0  0  0  0  0
  184.1400  177.0300  138.2040 C   0  0  0  0  0  2  0  0  0  0  0  0
  183.4170  178.3260  137.8890 C   0  0  0  0  0  2  0  0  0  0  0  0
  184.1100  180.2870  139.1450 N   0  0  0  0  0  2  0  0  0  0  0  0
  183.2160  179.1200  139.1610 C   0  0  1  0  0  3  0  0  0  0  0  0
  182.6800  180.4380  138.8440 C   0  0  0  0  0  2  0  0  0  0  0  0
  189.3300  177.8190  141.2490 C   0  0  0  0  0  2  0  0  0  0  0  0
  190.0570  176.5590  141.7070 C   0  0  0  0  0  2  0  0  0  0  0  0
  189.4730  175.9780  142.9940 C   0  0  0  0  0  2  0  0  0  0  0  0
  188.3090  176.8100  143.5150 C   0  0  0  0  0  2  0  0  0  0  0  0
  186.3190  177.9420  145.1640 O   0  0  0  0  0  0  0  0  0  0  0  0
  188.5100  177.1470  144.9190 N   0  0  0  0  0  0  0  0  0  0  0  0
  187.4180  177.6520  145.7080 C   0  0  0  0  0  0  0  0  0  0  0  0
  188.9920  177.9470  147.6260 C   0  0  0  0  0  2  0  0  0  0  0  0
  189.8860  176.9140  146.9540 C   0  0  0  0  0  2  0  0  0  0  0  0
  189.8760  177.1440  145.4470 C   0  0  0  0  0  2  0  0  0  0  0  0
  187.5420  177.7470  147.1990 C   0  0  0  0  0  2  0  0  0  0  0  0
  1  7  1  0  0  0  0
  2 24  1  1  0  0  0
  4 16  1  1  0  0  0
  4  6  1  0  0  0  0
  4  1  1  0  0  0  0
  5  2  1  0  0  0  0
  6 10  1  6  0  0  0
  6  5  1  0  0  0  0
  7  2  1  0  0  0  0
  7  3  2  0  0  0  0
  8 12  1  0  0  0  0
  8 14  1  0  0  0  0
  9  8  2  0  0  0  0
 10 12  2  0  0  0  0
 11 13  2  0  0  0  0
 11  9  1  0  0  0  0
 13 10  1  0  0  0  0
 15 16  1  0  0  0  0
 17  1  1  0  0  0  0
 18 17  1  0  0  0  0
 18 19  1  0  0  0  0
 20 19  1  0  0  0  0
 21 22  1  0  0  0  0
 22 20  1  6  0  0  0
 23 21  1  0  0  0  0
 23 22  1  0  0  0  0
 24 25  1  0  0  0  0
 25 26  1  0  0  0  0
 26 27  1  0  0  0  0
 27 29  1  0  0  0  0
 28 30  2  0  0  0  0
 29 33  1  0  0  0  0
 29 30  1  0  0  0  0
 30 34  1  0  0  0  0
 32 31  1  0  0  0  0
 33 32  1  0  0  0  0
 34 31  1  0  0  0  0
M  END
>  <MODEL>
9

>  <REMARK>
 VINA RESULT:      -6.6      2.642      8.314
  Name = 
  12 active torsions:
  status: ('A' for Active; 'I' for Inactive)
    1  A    between atoms: C_2  and  C_15
    2  A    between atoms: C_2  and  C_25
    3  A    between atoms: C_3  and  N_13
    4  A    between atoms: C_3  and  C_17
    5  A    between atoms: N_4  and  C_15
    6  A    between atoms: C_5  and  C_18
    7  A    between atoms: C_6  and  C_9
    8  A    between atoms: C_9  and  C_25
    9  A    between atoms: C_12  and  C_28
   10  A    between atoms: C_17  and  C_29
   11  A    between atoms: C_18  and  C_29
   12  A    between atoms: C_21  and  C_32
                            x       y       z     vdW  Elec       q    Type
                         _______ _______ _______ _____ _____    ______ ____

>  <TORSDO>
F 12

$$$$
