=
 OpenBabel10272415343D

 34 39  0  0  1  0  0  0  0  0999 V2000
  188.3280  178.4180  141.4790 C   0  0  1  0  0  3  0  0  0  0  0  0
  187.3130  177.0950  143.4560 C   0  0  1  0  0  3  0  0  0  0  0  0
  185.8810  178.7570  142.2690 C   0  0  2  0  0  3  0  0  0  0  0  0
  187.9460  178.0540  139.2480 C   0  0  1  0  0  0  0  0  0  0  0  0
  188.9590  178.1270  140.2400 O   0  0  0  0  0  0  0  0  0  0  0  0
  186.6100  178.0520  139.9730 C   0  0  2  0  0  3  0  0  0  0  0  0
  185.3940  179.8780  138.9500 O   0  0  0  0  0  1  0  0  0  0  0  0
  185.3520  178.5110  139.2430 C   0  0  2  0  0  3  0  0  0  0  0  0
  188.0410  179.1820  138.4270 O   0  0  0  0  0  1  0  0  0  0  0  0
  184.4850  179.1360  141.7630 C   0  0  0  0  0  2  0  0  0  0  0  0
  186.9180  178.8840  141.1590 C   0  0  2  0  0  3  0  0  0  0  0  0
  183.9200  178.1450  140.3190 S   0  0  0  0  0  0  0  0  0  0  0  0
  187.6990  177.9940  144.6370 C   0  0  0  0  0  2  0  0  0  0  0  0
  189.2100  177.8860  144.8660 C   0  0  2  0  0  3  0  0  0  0  0  0
  189.9220  177.2030  143.3450 P   0  0  2  0  0  0  0  0  0  0  0  0
  185.9140  177.3860  142.9240 C   0  0  0  0  0  2  0  0  0  0  0  0
  190.9520  178.1420  142.7590 O   0  0  0  0  0  0  0  0  0  0  0  0
  188.4000  177.1610  142.3770 C   0  0  2  0  0  3  0  0  0  0  0  0
  188.0970  177.0800  136.9570 N   0  0  0  0  0  0  0  0  0  0  0  0
  189.3230  175.9400  138.8710 C   0  0  0  0  0  2  0  0  0  0  0  0
  191.0910  175.7640  135.3680 C   0  0  1  0  0  3  0  0  0  0  0  0
  190.6540  174.4580  136.0200 C   0  0  0  0  0  2  0  0  0  0  0  0
  188.6380  175.9730  136.1690 C   0  0  0  0  0  2  0  0  0  0  0  0
  190.5280  176.1050  137.9490 C   0  0  0  0  0  2  0  0  0  0  0  0
  190.1000  175.7690  136.5250 C   0  0  2  0  0  0  0  0  0  0  0  0
  188.1010  176.7720  138.4050 C   0  0  1  0  0  3  0  0  0  0  0  0
  186.8030  177.2060  136.5780 O   0  0  0  0  0  1  0  0  0  0  0  0
  192.5070  176.0970  135.8040 C   0  0  0  0  0  2  0  0  0  0  0  0
  193.5920  176.1200  134.3460 S   0  0  0  0  0  1  0  0  0  0  0  0
  189.5860  177.0800  146.1160 C   0  0  0  0  0  3  0  0  0  0  0  0
  188.6110  177.2650  147.2690 C   0  0  0  0  0  1  0  0  0  0  0  0
  190.9850  177.4430  146.5720 C   0  0  0  0  0  1  0  0  0  0  0  0
  191.8870  175.4010  143.8650 C   0  0  0  0  0  2  0  0  0  0  0  0
  190.6060  175.5600  143.5550 C   0  0  0  0  0  3  0  0  0  0  0  0
  1  5  1  6  0  0  0
  1 18  1  0  0  0  0
  2 16  1  6  0  0  0
  2 13  1  0  0  0  0
  3 10  1  6  0  0  0
  3 16  1  0  0  0  0
  4  9  1  6  0  0  0
  4  6  1  0  0  0  0
  4  5  1  0  0  0  0
  6 11  1  0  0  0  0
  7  8  1  0  0  0  0
  8  6  1  0  0  0  0
  8 12  1  0  0  0  0
 11  1  1  0  0  0  0
 11  3  1  0  0  0  0
 12 10  1  0  0  0  0
 13 14  1  0  0  0  0
 14 30  1  0  0  0  0
 15 34  1  0  0  0  0
 15 14  1  0  0  0  0
 17 15  2  0  0  0  0
 18 15  1  0  0  0  0
 18  2  1  0  0  0  0
 19 26  1  0  0  0  0
 21 28  1  0  0  0  0
 21 22  1  0  0  0  0
 21 25  1  0  0  0  0
 22 25  1  0  0  0  0
 23 25  1  0  0  0  0
 23 19  1  0  0  0  0
 24 20  1  0  0  0  0
 25 24  1  0  0  0  0
 26 20  1  0  0  0  0
 26  4  1  0  0  0  0
 27 19  1  0  0  0  0
 29 28  1  0  0  0  0
 30 32  1  0  0  0  0
 30 31  1  0  0  0  0
 34 33  2  0  0  0  0
M  END
>  <MODEL>
1

>  <REMARK>
 VINA RESULT:      -6.7      0.000      0.000
  Name = 
  4 active torsions:
  status: ('A' for Active; 'I' for Inactive)
    1  A    between atoms: C_3  and  C_25
    2  A    between atoms: C_7  and  C_11
    3  A    between atoms: C_8  and  C_30
    4  A    between atoms: P_27  and  C_29
                            x       y       z     vdW  Elec       q    Type
                         _______ _______ _______ _____ _____    ______ ____

>  <TORSDO>
F 4

$$$$
=
 OpenBabel10272415343D

 34 39  0  0  1  0  0  0  0  0999 V2000
  187.7530  178.6600  141.5300 C   0  0  1  0  0  3  0  0  0  0  0  0
  189.1430  176.4790  141.5730 C   0  0  1  0  0  3  0  0  0  0  0  0
  188.6910  177.6510  143.7280 C   0  0  2  0  0  3  0  0  0  0  0  0
  185.5560  178.8950  142.1430 C   0  0  1  0  0  0  0  0  0  0  0  0
  186.4730  179.0750  141.0740 O   0  0  0  0  0  0  0  0  0  0  0  0
  186.2730  178.0930  143.2170 C   0  0  2  0  0  3  0  0  0  0  0  0
  186.0260  179.4450  145.2100 O   0  0  0  0  0  1  0  0  0  0  0  0
  185.8020  178.1760  144.6650 C   0  0  2  0  0  3  0  0  0  0  0  0
  185.2000  180.1510  142.6440 O   0  0  0  0  0  1  0  0  0  0  0  0
  188.4030  177.5370  145.2300 C   0  0  0  0  0  2  0  0  0  0  0  0
  187.6700  178.5540  143.0430 C   0  0  2  0  0  3  0  0  0  0  0  0
  186.7160  176.9140  145.6210 S   0  0  0  0  0  0  0  0  0  0  0  0
  190.5570  177.0310  141.3570 C   0  0  0  0  0  2  0  0  0  0  0  0
  190.6830  177.5120  139.9080 C   0  0  2  0  0  3  0  0  0  0  0  0
  188.9940  177.7200  139.2780 P   0  0  2  0  0  0  0  0  0  0  0  0
  188.8000  176.2960  143.0480 C   0  0  0  0  0  2  0  0  0  0  0  0
  188.7580  179.1410  138.8180 O   0  0  0  0  0  0  0  0  0  0  0  0
  188.1280  177.3410  140.8140 C   0  0  2  0  0  3  0  0  0  0  0  0
  183.0640  178.8580  142.0540 N   0  0  0  0  0  0  0  0  0  0  0  0
  184.3870  177.8180  140.1480 C   0  0  0  0  0  2  0  0  0  0  0  0
  181.0010  179.5330  139.1380 C   0  0  1  0  0  3  0  0  0  0  0  0
  181.1480  178.0350  138.9010 C   0  0  0  0  0  2  0  0  0  0  0  0
  181.9090  178.4010  141.2820 C   0  0  0  0  0  2  0  0  0  0  0  0
  183.5470  178.7660  139.2970 C   0  0  0  0  0  2  0  0  0  0  0  0
  182.1140  178.7460  139.8170 C   0  0  2  0  0  0  0  0  0  0  0  0
  184.3000  178.1430  141.6610 C   0  0  1  0  0  3  0  0  0  0  0  0
  182.8030  178.5270  143.3410 O   0  0  0  0  0  1  0  0  0  0  0  0
  181.4790  180.2870  137.9090 C   0  0  0  0  0  2  0  0  0  0  0  0
  181.1190  182.0560  138.1150 S   0  0  0  0  0  1  0  0  0  0  0  0
  191.5390  176.5940  139.0270 C   0  0  0  0  0  3  0  0  0  0  0  0
  193.0330  176.7420  139.2760 C   0  0  0  0  0  1  0  0  0  0  0  0
  191.2420  176.8470  137.5620 C   0  0  0  0  0  1  0  0  0  0  0  0
  187.3940  176.6300  137.3720 C   0  0  0  0  0  2  0  0  0  0  0  0
  188.5690  176.5530  137.9860 C   0  0  0  0  0  3  0  0  0  0  0  0
  1  5  1  6  0  0  0
  1 11  1  0  0  0  0
  2 13  1  1  0  0  0
  2 16  1  0  0  0  0
  3 16  1  6  0  0  0
  3 10  1  0  0  0  0
  4  9  1  1  0  0  0
  4  6  1  0  0  0  0
  5  4  1  0  0  0  0
  6  8  1  0  0  0  0
  8  7  1  0  0  0  0
  8 12  1  0  0  0  0
 10 12  1  0  0  0  0
 11  6  1  0  0  0  0
 11  3  1  0  0  0  0
 14 13  1  0  0  0  0
 15 14  1  0  0  0  0
 15 18  1  0  0  0  0
 17 15  2  0  0  0  0
 18  1  1  0  0  0  0
 18  2  1  0  0  0  0
 19 27  1  0  0  0  0
 20 26  1  0  0  0  0
 21 25  1  0  0  0  0
 22 21  1  0  0  0  0
 22 25  1  0  0  0  0
 23 19  1  0  0  0  0
 24 25  1  0  0  0  0
 24 20  1  0  0  0  0
 25 23  1  0  0  0  0
 26 19  1  0  0  0  0
 26  4  1  0  0  0  0
 28 29  1  0  0  0  0
 28 21  1  0  0  0  0
 30 31  1  0  0  0  0
 30 14  1  0  0  0  0
 32 30  1  0  0  0  0
 33 34  2  0  0  0  0
 34 15  1  0  0  0  0
M  END
>  <MODEL>
2

>  <REMARK>
 VINA RESULT:      -6.4      3.415      6.904
  Name = 
  4 active torsions:
  status: ('A' for Active; 'I' for Inactive)
    1  A    between atoms: C_3  and  C_25
    2  A    between atoms: C_7  and  C_11
    3  A    between atoms: C_8  and  C_30
    4  A    between atoms: P_27  and  C_29
                            x       y       z     vdW  Elec       q    Type
                         _______ _______ _______ _____ _____    ______ ____

>  <TORSDO>
F 4

$$$$
=
 OpenBabel10272415343D

 34 39  0  0  1  0  0  0  0  0999 V2000
  186.2770  178.5200  137.8090 C   0  0  1  0  0  3  0  0  0  0  0  0
  184.2660  176.9120  137.5560 C   0  0  1  0  0  3  0  0  0  0  0  0
  185.7580  177.2790  135.5910 C   0  0  2  0  0  3  0  0  0  0  0  0
  188.4790  177.9310  138.0520 C   0  0  1  0  0  0  0  0  0  0  0  0
  187.4120  178.6500  138.6530 O   0  0  0  0  0  0  0  0  0  0  0  0
  187.8840  177.1160  136.9140 C   0  0  2  0  0  3  0  0  0  0  0  0
  189.2120  177.7510  134.9920 O   0  0  0  0  0  1  0  0  0  0  0  0
  188.7740  176.6670  135.7600 C   0  0  2  0  0  3  0  0  0  0  0  0
  189.4080  178.8470  137.5470 O   0  0  0  0  0  1  0  0  0  0  0  0
  186.4290  176.6870  134.3460 C   0  0  0  0  0  2  0  0  0  0  0  0
  186.7750  177.9930  136.4740 C   0  0  2  0  0  3  0  0  0  0  0  0
  187.8000  175.5190  134.7220 S   0  0  0  0  0  0  0  0  0  0  0  0
  183.1620  177.8890  137.1360 C   0  0  0  0  0  2  0  0  0  0  0  0
  182.7840  178.7560  138.3410 C   0  0  2  0  0  3  0  0  0  0  0  0
  184.1490  178.6230  139.5290 P   0  0  2  0  0  0  0  0  0  0  0  0
  184.9540  176.2490  136.3670 C   0  0  0  0  0  2  0  0  0  0  0  0
  184.7380  179.9820  139.8320 O   0  0  0  0  0  0  0  0  0  0  0  0
  185.2410  177.6100  138.5110 C   0  0  2  0  0  3  0  0  0  0  0  0
  190.5890  177.3410  139.2440 N   0  0  0  0  0  0  0  0  0  0  0  0
  188.3600  176.9650  140.4090 C   0  0  0  0  0  2  0  0  0  0  0  0
  191.3480  178.0040  142.7370 C   0  0  1  0  0  3  0  0  0  0  0  0
  190.7050  176.6400  142.9570 C   0  0  0  0  0  2  0  0  0  0  0  0
  191.1400  176.7680  140.4720 C   0  0  0  0  0  2  0  0  0  0  0  0
  188.9980  177.8240  141.4980 C   0  0  0  0  0  2  0  0  0  0  0  0
  190.4480  177.3910  141.6720 C   0  0  2  0  0  0  0  0  0  0  0  0
  189.1560  177.0030  139.0800 C   0  0  1  0  0  3  0  0  0  0  0  0
  191.2580  176.7480  138.2270 O   0  0  0  0  0  1  0  0  0  0  0  0
  190.6340  179.0420  143.5850 C   0  0  0  0  0  2  0  0  0  0  0  0
  190.1760  178.3000  145.1790 S   0  0  0  0  0  1  0  0  0  0  0  0
  181.4240  178.3990  138.9520 C   0  0  0  0  0  3  0  0  0  0  0  0
  180.4340  177.8450  137.9380 C   0  0  0  0  0  1  0  0  0  0  0  0
  180.8240  179.6100  139.6370 C   0  0  0  0  0  1  0  0  0  0  0  0
  184.1710  178.1850  142.2090 C   0  0  0  0  0  2  0  0  0  0  0  0
  183.6950  177.7740  141.0400 C   0  0  0  0  0  3  0  0  0  0  0  0
  1 18  1  0  0  0  0
  1  5  1  1  0  0  0
  2 16  1  6  0  0  0
  2 18  1  0  0  0  0
  3 10  1  6  0  0  0
  3 16  1  0  0  0  0
  3 11  1  0  0  0  0
  4  9  1  6  0  0  0
  4  5  1  0  0  0  0
  4 26  1  0  0  0  0
  6  4  1  0  0  0  0
  7  8  1  0  0  0  0
  8  6  1  0  0  0  0
 10 12  1  0  0  0  0
 11  6  1  0  0  0  0
 11  1  1  0  0  0  0
 12  8  1  0  0  0  0
 13  2  1  0  0  0  0
 13 14  1  0  0  0  0
 14 30  1  0  0  0  0
 14 15  1  0  0  0  0
 15 17  2  0  0  0  0
 15 34  1  0  0  0  0
 18 15  1  0  0  0  0
 19 23  1  0  0  0  0
 20 24  1  0  0  0  0
 21 22  1  0  0  0  0
 21 28  1  0  0  0  0
 23 25  1  0  0  0  0
 24 25  1  0  0  0  0
 25 21  1  0  0  0  0
 25 22  1  0  0  0  0
 26 19  1  0  0  0  0
 26 20  1  0  0  0  0
 27 19  1  0  0  0  0
 28 29  1  0  0  0  0
 30 32  1  0  0  0  0
 31 30  1  0  0  0  0
 34 33  2  0  0  0  0
M  END
>  <MODEL>
3

>  <REMARK>
 VINA RESULT:      -6.0      3.204      6.979
  Name = 
  4 active torsions:
  status: ('A' for Active; 'I' for Inactive)
    1  A    between atoms: C_3  and  C_25
    2  A    between atoms: C_7  and  C_11
    3  A    between atoms: C_8  and  C_30
    4  A    between atoms: P_27  and  C_29
                            x       y       z     vdW  Elec       q    Type
                         _______ _______ _______ _____ _____    ______ ____

>  <TORSDO>
F 4

$$$$
=
 OpenBabel10272415343D

 34 39  0  0  1  0  0  0  0  0999 V2000
  183.5670  174.2960  135.4480 C   0  0  1  0  0  3  0  0  0  0  0  0
  184.4860  172.2150  136.6790 C   0  0  1  0  0  3  0  0  0  0  0  0
  186.1020  173.9280  135.8590 C   0  0  2  0  0  3  0  0  0  0  0  0
  183.3600  176.4120  136.3040 C   0  0  1  0  0  0  0  0  0  0  0  0
  182.6420  175.3410  135.7100 O   0  0  0  0  0  0  0  0  0  0  0  0
  184.7440  175.8860  136.6500 C   0  0  2  0  0  3  0  0  0  0  0  0
  186.2440  177.4520  135.5740 O   0  0  0  0  0  1  0  0  0  0  0  0
  185.9090  176.8580  136.7960 C   0  0  2  0  0  3  0  0  0  0  0  0
  183.4640  177.4520  135.3760 O   0  0  0  0  0  1  0  0  0  0  0  0
  187.4150  174.6850  136.0880 C   0  0  0  0  0  2  0  0  0  0  0  0
  184.9580  174.8950  135.5700 C   0  0  2  0  0  3  0  0  0  0  0  0
  187.3370  175.9210  137.4490 S   0  0  0  0  0  0  0  0  0  0  0  0
  184.6480  171.2340  135.5120 C   0  0  0  0  0  2  0  0  0  0  0  0
  183.2590  170.7920  135.0410 C   0  0  2  0  0  3  0  0  0  0  0  0
  182.0780  172.0100  135.6830 P   0  0  2  0  0  0  0  0  0  0  0  0
  185.7690  172.9760  136.9950 C   0  0  0  0  0  2  0  0  0  0  0  0
  181.3030  172.6590  134.5590 O   0  0  0  0  0  0  0  0  0  0  0  0
  183.2820  173.1300  136.4240 C   0  0  2  0  0  3  0  0  0  0  0  0
  182.9960  176.0780  138.7490 N   0  0  0  0  0  0  0  0  0  0  0  0
  182.8640  178.4280  137.7870 C   0  0  0  0  0  2  0  0  0  0  0  0
  184.3120  178.1560  141.4270 C   0  0  1  0  0  3  0  0  0  0  0  0
  183.0190  178.9370  141.2230 C   0  0  0  0  0  2  0  0  0  0  0  0
  182.6660  176.7520  140.0050 C   0  0  0  0  0  2  0  0  0  0  0  0
  183.9120  178.7230  138.8560 C   0  0  0  0  0  2  0  0  0  0  0  0
  183.5110  178.0070  140.1400 C   0  0  2  0  0  0  0  0  0  0  0  0
  182.6420  176.9090  137.5750 C   0  0  1  0  0  3  0  0  0  0  0  0
  182.2150  174.9730  138.7070 O   0  0  0  0  0  1  0  0  0  0  0  0
  185.4970  179.0940  141.2780 C   0  0  0  0  0  2  0  0  0  0  0  0
  186.9760  178.3040  141.9790 S   0  0  0  0  0  1  0  0  0  0  0  0
  182.9050  169.3530  135.4330 C   0  0  0  0  0  3  0  0  0  0  0  0
  184.1250  168.4750  135.6710 C   0  0  0  0  0  1  0  0  0  0  0  0
  182.0260  168.7220  134.3730 C   0  0  0  0  0  1  0  0  0  0  0  0
  180.3290  172.1470  137.7560 C   0  0  0  0  0  2  0  0  0  0  0  0
  180.9670  171.3390  136.9180 C   0  0  0  0  0  3  0  0  0  0  0  0
  1 11  1  0  0  0  0
  1  5  1  1  0  0  0
  1 18  1  0  0  0  0
  2 13  1  6  0  0  0
  2 16  1  0  0  0  0
  3 10  1  1  0  0  0
  3 16  1  0  0  0  0
  4  9  1  6  0  0  0
  4  6  1  0  0  0  0
  4 26  1  0  0  0  0
  5  4  1  0  0  0  0
  6  8  1  0  0  0  0
  7  8  1  0  0  0  0
  8 12  1  0  0  0  0
 10 12  1  0  0  0  0
 11  3  1  0  0  0  0
 11  6  1  0  0  0  0
 14 30  1  0  0  0  0
 14 13  1  0  0  0  0
 14 15  1  0  0  0  0
 15 18  1  0  0  0  0
 15 34  1  0  0  0  0
 17 15  2  0  0  0  0
 18  2  1  0  0  0  0
 19 23  1  0  0  0  0
 20 24  1  0  0  0  0
 22 21  1  0  0  0  0
 23 25  1  0  0  0  0
 24 25  1  0  0  0  0
 25 22  1  0  0  0  0
 25 21  1  0  0  0  0
 26 20  1  0  0  0  0
 26 19  1  0  0  0  0
 27 19  1  0  0  0  0
 28 21  1  0  0  0  0
 28 29  1  0  0  0  0
 30 31  1  0  0  0  0
 32 30  1  0  0  0  0
 34 33  2  0  0  0  0
M  END
>  <MODEL>
4

>  <REMARK>
 VINA RESULT:      -5.5      5.571      9.564
  Name = 
  4 active torsions:
  status: ('A' for Active; 'I' for Inactive)
    1  A    between atoms: C_3  and  C_25
    2  A    between atoms: C_7  and  C_11
    3  A    between atoms: C_8  and  C_30
    4  A    between atoms: P_27  and  C_29
                            x       y       z     vdW  Elec       q    Type
                         _______ _______ _______ _____ _____    ______ ____

>  <TORSDO>
F 4

$$$$
=
 OpenBabel10272415343D

 34 39  0  0  1  0  0  0  0  0999 V2000
  185.5110  177.4020  143.3520 C   0  0  1  0  0  3  0  0  0  0  0  0
  184.2160  179.6010  143.7730 C   0  0  1  0  0  3  0  0  0  0  0  0
  185.2090  178.4070  145.7240 C   0  0  2  0  0  3  0  0  0  0  0  0
  187.7870  177.1310  143.3550 C   0  0  1  0  0  0  0  0  0  0  0  0
  186.6150  176.9720  142.5690 O   0  0  0  0  0  0  0  0  0  0  0  0
  187.3960  177.9350  144.5850 C   0  0  2  0  0  3  0  0  0  0  0  0
  188.1450  176.5650  146.4350 O   0  0  0  0  0  1  0  0  0  0  0  0
  188.2350  177.8350  145.8540 C   0  0  2  0  0  3  0  0  0  0  0  0
  188.2450  175.8670  143.7380 O   0  0  0  0  0  1  0  0  0  0  0  0
  185.8890  178.5060  147.0950 C   0  0  0  0  0  2  0  0  0  0  0  0
  185.9960  177.4950  144.7880 C   0  0  2  0  0  3  0  0  0  0  0  0
  187.6280  179.1020  147.0240 S   0  0  0  0  0  0  0  0  0  0  0  0
  182.7870  179.0710  143.9390 C   0  0  0  0  0  2  0  0  0  0  0  0
  182.2720  178.6030  142.5750 C   0  0  2  0  0  3  0  0  0  0  0  0
  183.7280  178.3760  141.5160 P   0  0  2  0  0  0  0  0  0  0  0  0
  184.9440  179.7680  145.1030 C   0  0  0  0  0  2  0  0  0  0  0  0
  183.8110  176.9550  141.0060 O   0  0  0  0  0  0  0  0  0  0  0  0
  184.9790  178.7310  142.7670 C   0  0  2  0  0  3  0  0  0  0  0  0
  190.1540  177.1120  142.5670 N   0  0  0  0  0  0  0  0  0  0  0  0
  188.3820  178.2480  141.1400 C   0  0  0  0  0  2  0  0  0  0  0  0
  191.2880  176.4890  139.1700 C   0  0  1  0  0  3  0  0  0  0  0  0
  191.1300  177.9970  139.0240 C   0  0  0  0  0  2  0  0  0  0  0  0
  191.0590  177.5670  141.5120 C   0  0  0  0  0  2  0  0  0  0  0  0
  188.9170  177.3100  140.0620 C   0  0  0  0  0  2  0  0  0  0  0  0
  190.4380  177.2780  140.1570 C   0  0  2  0  0  0  0  0  0  0  0  0
  188.8810  177.8690  142.5580 C   0  0  1  0  0  3  0  0  0  0  0  0
  190.7770  177.3930  143.7360 O   0  0  0  0  0  1  0  0  0  0  0  0
  190.4600  175.7880  138.1060 C   0  0  0  0  0  2  0  0  0  0  0  0
  191.5020  174.5810  137.2350 S   0  0  0  0  0  1  0  0  0  0  0  0
  181.2260  179.5390  141.9580 C   0  0  0  0  0  3  0  0  0  0  0  0
  180.2250  180.0760  142.9710 C   0  0  0  0  0  1  0  0  0  0  0  0
  180.4850  178.8330  140.8400 C   0  0  0  0  0  1  0  0  0  0  0  0
  184.3410  179.1890  138.9980 C   0  0  0  0  0  2  0  0  0  0  0  0
  183.8100  179.5460  140.1620 C   0  0  0  0  0  3  0  0  0  0  0  0
  1  5  1  6  0  0  0
  1 11  1  0  0  0  0
  2 13  1  1  0  0  0
  2 16  1  0  0  0  0
  3 16  1  6  0  0  0
  3 10  1  0  0  0  0
  4  9  1  1  0  0  0
  4  6  1  0  0  0  0
  5  4  1  0  0  0  0
  6 11  1  0  0  0  0
  6  8  1  0  0  0  0
  8  7  1  0  0  0  0
  8 12  1  0  0  0  0
 11  3  1  0  0  0  0
 12 10  1  0  0  0  0
 14 13  1  0  0  0  0
 15 14  1  0  0  0  0
 15 18  1  0  0  0  0
 17 15  2  0  0  0  0
 18  1  1  0  0  0  0
 18  2  1  0  0  0  0
 19 27  1  0  0  0  0
 20 26  1  0  0  0  0
 21 25  1  0  0  0  0
 22 21  1  0  0  0  0
 22 25  1  0  0  0  0
 23 19  1  0  0  0  0
 24 25  1  0  0  0  0
 24 20  1  0  0  0  0
 25 23  1  0  0  0  0
 26 19  1  0  0  0  0
 26  4  1  0  0  0  0
 28 21  1  0  0  0  0
 29 28  1  0  0  0  0
 30 14  1  0  0  0  0
 30 31  1  0  0  0  0
 32 30  1  0  0  0  0
 33 34  2  0  0  0  0
 34 15  1  0  0  0  0
M  END
>  <MODEL>
5

>  <REMARK>
 VINA RESULT:      -5.4      3.195      6.251
  Name = 
  4 active torsions:
  status: ('A' for Active; 'I' for Inactive)
    1  A    between atoms: C_3  and  C_25
    2  A    between atoms: C_7  and  C_11
    3  A    between atoms: C_8  and  C_30
    4  A    between atoms: P_27  and  C_29
                            x       y       z     vdW  Elec       q    Type
                         _______ _______ _______ _____ _____    ______ ____

>  <TORSDO>
F 4

$$$$
=
 OpenBabel10272415343D

 34 39  0  0  1  0  0  0  0  0999 V2000
  186.0390  174.7390  135.6100 C   0  0  1  0  0  3  0  0  0  0  0  0
  186.8710  172.5010  136.6070 C   0  0  1  0  0  3  0  0  0  0  0  0
  188.5590  174.1730  135.8480 C   0  0  2  0  0  3  0  0  0  0  0  0
  186.0200  176.7790  136.6540 C   0  0  1  0  0  0  0  0  0  0  0  0
  185.2020  175.8140  136.0100 O   0  0  0  0  0  0  0  0  0  0  0  0
  187.3800  176.1360  136.8770 C   0  0  2  0  0  3  0  0  0  0  0  0
  188.9300  177.6910  135.8580 O   0  0  0  0  0  1  0  0  0  0  0  0
  188.6150  177.0140  137.0410 C   0  0  2  0  0  3  0  0  0  0  0  0
  186.1500  177.8890  135.8130 O   0  0  0  0  0  1  0  0  0  0  0  0
  189.9310  174.8200  136.0690 C   0  0  0  0  0  2  0  0  0  0  0  0
  187.4720  175.2330  135.7060 C   0  0  2  0  0  3  0  0  0  0  0  0
  190.0050  175.9330  137.5320 S   0  0  0  0  0  0  0  0  0  0  0  0
  186.9080  171.6190  135.3530 C   0  0  0  0  0  2  0  0  0  0  0  0
  185.4700  171.3120  134.9230 C   0  0  2  0  0  3  0  0  0  0  0  0
  184.4080  172.5420  135.7300 P   0  0  2  0  0  0  0  0  0  0  0  0
  188.2170  173.1470  136.9160 C   0  0  0  0  0  2  0  0  0  0  0  0
  183.6260  173.3370  134.7090 O   0  0  0  0  0  0  0  0  0  0  0  0
  185.7220  173.5110  136.4970 C   0  0  2  0  0  3  0  0  0  0  0  0
  185.6000  178.6530  138.2460 N   0  0  0  0  0  0  0  0  0  0  0  0
  183.9270  176.7440  138.1100 C   0  0  0  0  0  2  0  0  0  0  0  0
  182.4110  180.2890  138.8540 C   0  0  1  0  0  3  0  0  0  0  0  0
  182.2510  179.2030  139.9090 C   0  0  0  0  0  2  0  0  0  0  0  0
  184.6970  179.1520  139.2820 C   0  0  0  0  0  2  0  0  0  0  0  0
  182.9380  177.8770  137.8560 C   0  0  0  0  0  2  0  0  0  0  0  0
  183.2620  179.0270  138.8020 C   0  0  2  0  0  0  0  0  0  0  0  0
  185.4020  177.2060  138.0000 C   0  0  1  0  0  3  0  0  0  0  0  0
  186.8510  178.8070  138.7400 O   0  0  0  0  0  1  0  0  0  0  0  0
  181.2310  180.2450  137.8990 C   0  0  0  0  0  2  0  0  0  0  0  0
  180.6340  181.9360  137.6060 S   0  0  0  0  0  1  0  0  0  0  0  0
  185.0370  169.8690  135.2100 C   0  0  0  0  0  3  0  0  0  0  0  0
  186.1510  168.8530  135.0040 C   0  0  0  0  0  1  0  0  0  0  0  0
  183.8470  169.4980  134.3480 C   0  0  0  0  0  1  0  0  0  0  0  0
  182.0020  171.8290  136.7690 C   0  0  0  0  0  2  0  0  0  0  0  0
  183.3150  171.8370  136.9630 C   0  0  0  0  0  3  0  0  0  0  0  0
  1 11  1  0  0  0  0
  1  5  1  1  0  0  0
  1 18  1  0  0  0  0
  2 13  1  6  0  0  0
  2 16  1  0  0  0  0
  3 10  1  1  0  0  0
  3 16  1  0  0  0  0
  4  9  1  6  0  0  0
  4  6  1  0  0  0  0
  4 26  1  0  0  0  0
  5  4  1  0  0  0  0
  6  8  1  0  0  0  0
  7  8  1  0  0  0  0
  8 12  1  0  0  0  0
 10 12  1  0  0  0  0
 11  3  1  0  0  0  0
 11  6  1  0  0  0  0
 14 30  1  0  0  0  0
 14 13  1  0  0  0  0
 14 15  1  0  0  0  0
 15 18  1  0  0  0  0
 15 34  1  0  0  0  0
 17 15  2  0  0  0  0
 18  2  1  0  0  0  0
 19 27  1  0  0  0  0
 19 23  1  0  0  0  0
 21 22  1  0  0  0  0
 24 20  1  0  0  0  0
 24 25  1  0  0  0  0
 25 21  1  0  0  0  0
 25 23  1  0  0  0  0
 25 22  1  0  0  0  0
 26 20  1  0  0  0  0
 26 19  1  0  0  0  0
 28 21  1  0  0  0  0
 29 28  1  0  0  0  0
 31 30  1  0  0  0  0
 32 30  1  0  0  0  0
 33 34  2  0  0  0  0
M  END
>  <MODEL>
6

>  <REMARK>
 VINA RESULT:      -5.4      4.953      9.203
  Name = 
  4 active torsions:
  status: ('A' for Active; 'I' for Inactive)
    1  A    between atoms: C_3  and  C_25
    2  A    between atoms: C_7  and  C_11
    3  A    between atoms: C_8  and  C_30
    4  A    between atoms: P_27  and  C_29
                            x       y       z     vdW  Elec       q    Type
                         _______ _______ _______ _____ _____    ______ ____

>  <TORSDO>
F 4

$$$$
=
 OpenBabel10272415343D

 34 39  0  0  1  0  0  0  0  0999 V2000
  185.6130  175.8870  135.7460 C   0  0  1  0  0  3  0  0  0  0  0  0
  184.9420  173.8600  137.2070 C   0  0  1  0  0  3  0  0  0  0  0  0
  187.0710  173.7480  135.9130 C   0  0  2  0  0  3  0  0  0  0  0  0
  187.2080  177.4580  136.2340 C   0  0  1  0  0  0  0  0  0  0  0  0
  185.8340  177.2780  135.9260 O   0  0  0  0  0  0  0  0  0  0  0  0
  187.7910  176.0800  136.5020 C   0  0  2  0  0  3  0  0  0  0  0  0
  189.6840  175.9510  134.9980 O   0  0  0  0  0  1  0  0  0  0  0  0
  189.2890  175.8460  136.3360 C   0  0  2  0  0  3  0  0  0  0  0  0
  187.8420  178.0380  135.1310 O   0  0  0  0  0  1  0  0  0  0  0  0
  188.5240  173.2640  135.8500 C   0  0  0  0  0  2  0  0  0  0  0  0
  186.9780  175.2370  135.5960 C   0  0  2  0  0  3  0  0  0  0  0  0
  189.6650  174.1740  136.9710 S   0  0  0  0  0  0  0  0  0  0  0  0
  184.0840  173.0600  136.2200 C   0  0  0  0  0  2  0  0  0  0  0  0
  182.7620  173.8030  136.0010 C   0  0  2  0  0  3  0  0  0  0  0  0
  183.0230  175.5110  136.5530 P   0  0  2  0  0  0  0  0  0  0  0  0
  186.3970  173.4040  137.2310 C   0  0  0  0  0  2  0  0  0  0  0  0
  182.7610  176.4890  135.4310 O   0  0  0  0  0  0  0  0  0  0  0  0
  184.7790  175.3610  136.9390 C   0  0  2  0  0  3  0  0  0  0  0  0
  186.6240  177.8230  138.6320 N   0  0  0  0  0  0  0  0  0  0  0  0
  188.8690  178.6430  137.7650 C   0  0  0  0  0  2  0  0  0  0  0  0
  188.8370  177.3720  141.4810 C   0  0  1  0  0  3  0  0  0  0  0  0
  189.1840  178.8330  141.2230 C   0  0  0  0  0  2  0  0  0  0  0  0
  187.0800  178.4130  139.8890 C   0  0  0  0  0  2  0  0  0  0  0  0
  189.4100  177.7980  138.9150 C   0  0  0  0  0  2  0  0  0  0  0  0
  188.5250  178.0170  140.1370 C   0  0  2  0  0  0  0  0  0  0  0  0
  187.3740  178.3610  137.4730 C   0  0  1  0  0  3  0  0  0  0  0  0
  185.3340  178.2100  138.4880 O   0  0  0  0  0  1  0  0  0  0  0  0
  190.1070  176.5390  141.4540 C   0  0  0  0  0  2  0  0  0  0  0  0
  190.4170  175.8690  143.1150 S   0  0  0  0  0  1  0  0  0  0  0  0
  181.5610  173.1330  136.6800 C   0  0  0  0  0  3  0  0  0  0  0  0
  181.7790  171.6560  136.9730 C   0  0  0  0  0  1  0  0  0  0  0  0
  180.3170  173.3030  135.8310 C   0  0  0  0  0  1  0  0  0  0  0  0
  182.6070  175.8260  139.2190 C   0  0  0  0  0  2  0  0  0  0  0  0
  182.0710  175.9400  138.0090 C   0  0  0  0  0  3  0  0  0  0  0  0
  1  5  1  1  0  0  0
  1 18  1  0  0  0  0
  2 13  1  6  0  0  0
  2 16  1  0  0  0  0
  3 10  1  1  0  0  0
  3 16  1  0  0  0  0
  4  9  1  6  0  0  0
  4  6  1  0  0  0  0
  4 26  1  0  0  0  0
  5  4  1  0  0  0  0
  7  8  1  0  0  0  0
  8  6  1  0  0  0  0
  8 12  1  0  0  0  0
 10 12  1  0  0  0  0
 11  1  1  0  0  0  0
 11  3  1  0  0  0  0
 11  6  1  0  0  0  0
 14 13  1  0  0  0  0
 14 15  1  0  0  0  0
 14 30  1  0  0  0  0
 15 18  1  0  0  0  0
 15 34  1  0  0  0  0
 17 15  2  0  0  0  0
 18  2  1  0  0  0  0
 19 23  1  0  0  0  0
 20 24  1  0  0  0  0
 22 21  1  0  0  0  0
 23 25  1  0  0  0  0
 24 25  1  0  0  0  0
 25 22  1  0  0  0  0
 25 21  1  0  0  0  0
 26 20  1  0  0  0  0
 26 19  1  0  0  0  0
 27 19  1  0  0  0  0
 28 21  1  0  0  0  0
 28 29  1  0  0  0  0
 30 31  1  0  0  0  0
 32 30  1  0  0  0  0
 34 33  2  0  0  0  0
M  END
>  <MODEL>
7

>  <REMARK>
 VINA RESULT:      -5.3      4.198      7.988
  Name = 
  4 active torsions:
  status: ('A' for Active; 'I' for Inactive)
    1  A    between atoms: C_3  and  C_25
    2  A    between atoms: C_7  and  C_11
    3  A    between atoms: C_8  and  C_30
    4  A    between atoms: P_27  and  C_29
                            x       y       z     vdW  Elec       q    Type
                         _______ _______ _______ _____ _____    ______ ____

>  <TORSDO>
F 4

$$$$
=
 OpenBabel10272415343D

 34 39  0  0  1  0  0  0  0  0999 V2000
  185.3930  179.1280  141.0370 C   0  0  1  0  0  3  0  0  0  0  0  0
  183.2030  177.7640  141.2210 C   0  0  1  0  0  3  0  0  0  0  0  0
  184.0340  178.3910  138.9540 C   0  0  2  0  0  3  0  0  0  0  0  0
  187.4550  178.3310  140.4300 C   0  0  1  0  0  0  0  0  0  0  0  0
  186.7430  179.0000  141.4610 O   0  0  0  0  0  0  0  0  0  0  0  0
  186.4250  177.8050  139.4430 C   0  0  2  0  0  3  0  0  0  0  0  0
  187.1530  178.6990  137.3140 O   0  0  0  0  0  1  0  0  0  0  0  0
  186.8330  177.5220  138.0010 C   0  0  2  0  0  3  0  0  0  0  0  0
  188.2950  179.2520  139.7960 O   0  0  0  0  0  1  0  0  0  0  0  0
  184.1900  178.0040  137.4790 C   0  0  0  0  0  2  0  0  0  0  0  0
  185.3670  178.8360  139.5470 C   0  0  2  0  0  3  0  0  0  0  0  0
  185.4330  176.6800  137.1820 S   0  0  0  0  0  0  0  0  0  0  0  0
  182.1700  178.8880  141.3570 C   0  0  0  0  0  2  0  0  0  0  0  0
  182.3150  179.5280  142.7410 C   0  0  2  0  0  3  0  0  0  0  0  0
  183.9520  179.0580  143.3650 P   0  0  2  0  0  0  0  0  0  0  0  0
  183.3810  177.2950  139.7810 C   0  0  0  0  0  2  0  0  0  0  0  0
  184.7900  180.2800  143.6650 O   0  0  0  0  0  0  0  0  0  0  0  0
  184.5170  178.1820  141.8920 C   0  0  2  0  0  3  0  0  0  0  0  0
  189.7220  177.3230  140.6820 N   0  0  0  0  0  0  0  0  0  0  0  0
  188.0000  176.9750  142.5200 C   0  0  0  0  0  2  0  0  0  0  0  0
  191.7310  177.2670  143.7120 C   0  0  1  0  0  3  0  0  0  0  0  0
  190.9930  175.9590  143.9700 C   0  0  0  0  0  2  0  0  0  0  0  0
  190.5620  176.4850  141.5380 C   0  0  0  0  0  2  0  0  0  0  0  0
  189.1020  177.5550  143.4030 C   0  0  0  0  0  2  0  0  0  0  0  0
  190.4350  176.9500  142.9780 C   0  0  2  0  0  0  0  0  0  0  0  0
  188.2860  177.1690  141.0090 C   0  0  1  0  0  3  0  0  0  0  0  0
  189.8980  176.8570  139.4230 O   0  0  0  0  0  1  0  0  0  0  0  0
  191.5280  178.2030  144.8900 C   0  0  0  0  0  2  0  0  0  0  0  0
  191.4480  179.9160  144.2870 S   0  0  0  0  0  1  0  0  0  0  0  0
  181.1810  179.1660  143.7080 C   0  0  0  0  0  3  0  0  0  0  0  0
  180.5800  177.7930  143.4470 C   0  0  0  0  0  1  0  0  0  0  0  0
  180.0900  180.2170  143.6520 C   0  0  0  0  0  1  0  0  0  0  0  0
  184.5060  178.2940  145.9120 C   0  0  0  0  0  2  0  0  0  0  0  0
  183.8850  177.9670  144.7850 C   0  0  0  0  0  3  0  0  0  0  0  0
  1  5  1  1  0  0  0
  1 18  1  0  0  0  0
  2 16  1  6  0  0  0
  2 13  1  0  0  0  0
  2 18  1  0  0  0  0
  3 10  1  6  0  0  0
  3 11  1  0  0  0  0
  3 16  1  0  0  0  0
  4  9  1  6  0  0  0
  4 26  1  0  0  0  0
  4  5  1  0  0  0  0
  6 11  1  0  0  0  0
  6  4  1  0  0  0  0
  7  8  1  0  0  0  0
  8  6  1  0  0  0  0
 11  1  1  0  0  0  0
 12 10  1  0  0  0  0
 12  8  1  0  0  0  0
 13 14  1  0  0  0  0
 14 15  1  0  0  0  0
 14 30  1  0  0  0  0
 15 17  2  0  0  0  0
 15 34  1  0  0  0  0
 18 15  1  0  0  0  0
 19 26  1  0  0  0  0
 19 23  1  0  0  0  0
 20 24  1  0  0  0  0
 21 22  1  0  0  0  0
 21 28  1  0  0  0  0
 23 25  1  0  0  0  0
 25 24  1  0  0  0  0
 25 21  1  0  0  0  0
 25 22  1  0  0  0  0
 26 20  1  0  0  0  0
 27 19  1  0  0  0  0
 29 28  1  0  0  0  0
 31 30  1  0  0  0  0
 32 30  1  0  0  0  0
 34 33  2  0  0  0  0
M  END
>  <MODEL>
8

>  <REMARK>
 VINA RESULT:      -5.1      3.250      6.053
  Name = 
  4 active torsions:
  status: ('A' for Active; 'I' for Inactive)
    1  A    between atoms: C_3  and  C_25
    2  A    between atoms: C_7  and  C_11
    3  A    between atoms: C_8  and  C_30
    4  A    between atoms: P_27  and  C_29
                            x       y       z     vdW  Elec       q    Type
                         _______ _______ _______ _____ _____    ______ ____

>  <TORSDO>
F 4

$$$$
=
 OpenBabel10272415343D

 34 39  0  0  1  0  0  0  0  0999 V2000
  187.7790  178.3320  138.8690 C   0  0  1  0  0  3  0  0  0  0  0  0
  189.3520  176.3790  139.5060 C   0  0  1  0  0  3  0  0  0  0  0  0
  188.7360  178.0410  141.2620 C   0  0  2  0  0  3  0  0  0  0  0  0
  185.5540  178.5220  139.3840 C   0  0  1  0  0  0  0  0  0  0  0  0
  186.4830  178.4910  138.3100 O   0  0  0  0  0  0  0  0  0  0  0  0
  186.3060  178.1070  140.6380 C   0  0  2  0  0  3  0  0  0  0  0  0
  185.8840  179.9160  142.1910 O   0  0  0  0  0  1  0  0  0  0  0  0
  185.7860  178.5320  142.0080 C   0  0  2  0  0  3  0  0  0  0  0  0
  185.0760  179.8290  139.5250 O   0  0  0  0  0  1  0  0  0  0  0  0
  188.4150  178.3080  142.7370 C   0  0  0  0  0  2  0  0  0  0  0  0
  187.6620  178.6290  140.3540 C   0  0  2  0  0  3  0  0  0  0  0  0
  186.7780  177.6620  143.2740 S   0  0  0  0  0  0  0  0  0  0  0  0
  190.7180  176.9790  139.1550 C   0  0  0  0  0  2  0  0  0  0  0  0
  190.8440  177.0630  137.6310 C   0  0  2  0  0  3  0  0  0  0  0  0
  189.1630  176.9390  136.9600 P   0  0  2  0  0  0  0  0  0  0  0  0
  188.9820  176.5690  140.9740 C   0  0  0  0  0  2  0  0  0  0  0  0
  188.8190  178.1570  136.1330 O   0  0  0  0  0  0  0  0  0  0  0  0
  188.2880  176.9090  138.5370 C   0  0  2  0  0  3  0  0  0  0  0  0
  183.0790  178.2120  139.3760 N   0  0  0  0  0  0  0  0  0  0  0  0
  184.4960  176.9130  137.7120 C   0  0  0  0  0  2  0  0  0  0  0  0
  180.9430  178.0020  136.4420 C   0  0  1  0  0  3  0  0  0  0  0  0
  181.2460  176.5120  136.5400 C   0  0  0  0  0  2  0  0  0  0  0  0
  181.9750  177.4790  138.7580 C   0  0  0  0  0  2  0  0  0  0  0  0
  183.5560  177.5550  136.6960 C   0  0  0  0  0  2  0  0  0  0  0  0
  182.1360  177.5060  137.2480 C   0  0  2  0  0  0  0  0  0  0  0  0
  184.3820  177.5570  139.1170 C   0  0  1  0  0  3  0  0  0  0  0  0
  182.8600  178.1520  140.7110 O   0  0  0  0  0  1  0  0  0  0  0  0
  181.3320  178.5070  135.0630 C   0  0  0  0  0  2  0  0  0  0  0  0
  180.7310  180.2100  134.8580 S   0  0  0  0  0  1  0  0  0  0  0  0
  191.8030  176.0240  137.0350 C   0  0  0  0  0  3  0  0  0  0  0  0
  191.7270  174.6690  137.7220 C   0  0  0  0  0  1  0  0  0  0  0  0
  193.2270  176.5380  137.0830 C   0  0  0  0  0  1  0  0  0  0  0  0
  188.2050  174.4280  136.5710 C   0  0  0  0  0  2  0  0  0  0  0  0
  188.8790  175.4350  136.0290 C   0  0  0  0  0  3  0  0  0  0  0  0
  1  5  1  6  0  0  0
  1 11  1  0  0  0  0
  2 13  1  6  0  0  0
  2 16  1  0  0  0  0
  3 16  1  1  0  0  0
  3 10  1  0  0  0  0
  4  9  1  1  0  0  0
  4  6  1  0  0  0  0
  5  4  1  0  0  0  0
  6  8  1  0  0  0  0
  8  7  1  0  0  0  0
  8 12  1  0  0  0  0
 10 12  1  0  0  0  0
 11  6  1  0  0  0  0
 11  3  1  0  0  0  0
 14 13  1  0  0  0  0
 15 14  1  0  0  0  0
 15 18  1  0  0  0  0
 17 15  2  0  0  0  0
 18  1  1  0  0  0  0
 18  2  1  0  0  0  0
 19 27  1  0  0  0  0
 20 26  1  0  0  0  0
 21 22  1  0  0  0  0
 21 25  1  0  0  0  0
 22 25  1  0  0  0  0
 23 19  1  0  0  0  0
 24 25  1  0  0  0  0
 24 20  1  0  0  0  0
 25 23  1  0  0  0  0
 26 19  1  0  0  0  0
 26  4  1  0  0  0  0
 28 21  1  0  0  0  0
 29 28  1  0  0  0  0
 30 32  1  0  0  0  0
 30 14  1  0  0  0  0
 30 31  1  0  0  0  0
 34 33  2  0  0  0  0
 34 15  1  0  0  0  0
M  END
>  <MODEL>
9

>  <REMARK>
 VINA RESULT:      -5.1      3.377      6.745
  Name = 
  4 active torsions:
  status: ('A' for Active; 'I' for Inactive)
    1  A    between atoms: C_3  and  C_25
    2  A    between atoms: C_7  and  C_11
    3  A    between atoms: C_8  and  C_30
    4  A    between atoms: P_27  and  C_29
                            x       y       z     vdW  Elec       q    Type
                         _______ _______ _______ _____ _____    ______ ____

>  <TORSDO>
F 4

$$$$
