=
 OpenBabel10272400323D

 31 34  0  0  1  0  0  0  0  0999 V2000
  190.6590  176.2880  143.9520 C   0  0  2  0  0  3  0  0  0  0  0  0
  187.2730  177.6730  142.6360 C   0  0  2  0  0  3  0  0  0  0  0  0
  186.3740  177.8540  143.8470 C   0  0  0  0  0  0  0  0  0  0  0  0
  186.8800  178.1180  146.2530 C   0  0  0  0  0  3  0  0  0  0  0  0
  188.7800  177.6740  142.9900 C   0  0  1  0  0  3  0  0  0  0  0  0
  191.5770  177.3140  143.2710 C   0  0  0  0  0  2  0  0  0  0  0  0
  186.7410  177.1570  145.1220 C   0  0  0  0  0  2  0  0  0  0  0  0
  187.7970  178.4080  140.3170 C   0  0  0  0  0  0  0  0  0  0  0  0
  191.2590  174.9000  143.8430 C   0  0  0  0  0  1  0  0  0  0  0  0
  184.7340  178.8810  142.4420 O   0  0  0  0  0  0  0  0  0  0  0  0
  185.8550  178.8320  146.7090 C   0  0  0  0  0  3  0  0  0  0  0  0
  189.0990  178.1770  140.5040 C   0  0  0  0  0  3  0  0  0  0  0  0
  186.9460  178.6840  141.5280 C   0  0  1  0  0  3  0  0  0  0  0  0
  189.2300  176.2710  143.3940 C   0  0  0  0  0  2  0  0  0  0  0  0
  184.5060  178.8300  146.1160 C   0  0  0  0  0  3  0  0  0  0  0  0
  189.7040  178.2590  141.8780 C   0  0  2  0  0  3  0  0  0  0  0  0
  191.1080  177.6480  141.8570 C   0  0  0  0  0  2  0  0  0  0  0  0
  185.4540  178.6110  141.2430 C   0  0  0  0  0  2  0  0  0  0  0  0
  185.1570  178.4340  143.7040 C   0  0  0  0  0  0  0  0  0  0  0  0
  184.2110  178.6480  144.8230 C   0  0  0  0  0  3  0  0  0  0  0  0
  187.2000  178.3330  139.0100 N   0  0  0  0  0  2  0  0  0  0  0  0
  188.8260  178.8090  136.9240 S   0  0  0  0  0  0  0  0  0  0  0  0
  187.8030  177.8680  137.7930 C   0  0  0  0  0  0  0  0  0  0  0  0
  187.2240  176.6670  137.1330 C   0  0  0  0  0  2  0  0  0  0  0  0
  187.8290  175.5140  137.6400 O   0  0  0  0  0  0  0  0  0  0  0  0
  187.9770  174.0090  135.7810 C   0  0  0  0  0  1  0  0  0  0  0  0
  188.6740  175.0710  136.6170 C   0  0  2  0  0  3  0  0  0  0  0  0
  190.0020  174.5620  137.1850 C   0  0  0  0  0  2  0  0  0  0  0  0
  191.1410  175.5720  137.0480 C   0  0  0  0  0  2  0  0  0  0  0  0
  191.4360  176.2690  138.3680 C   0  0  0  0  0  2  0  0  0  0  0  0
  192.9150  176.5880  138.4830 C   0  0  0  0  0  1  0  0  0  0  0  0
  1  9  1  6  0  0  0
  2  5  1  0  0  0  0
  2  3  1  1  0  0  0
  3  7  1  0  0  0  0
  4 11  2  0  0  0  0
  5 14  1  6  0  0  0
  6  1  1  0  0  0  0
  7  4  1  0  0  0  0
  8 12  2  0  0  0  0
  8 13  1  0  0  0  0
 10 19  1  0  0  0  0
 13 18  1  6  0  0  0
 13  2  1  0  0  0  0
 14  1  1  0  0  0  0
 15 11  1  0  0  0  0
 16 12  1  6  0  0  0
 16  5  1  0  0  0  0
 17 16  1  0  0  0  0
 17  6  1  0  0  0  0
 18 10  1  0  0  0  0
 19  3  2  0  0  0  0
 19 20  1  0  0  0  0
 20 15  2  0  0  0  0
 21  8  1  0  0  0  0
 22 23  2  0  0  0  0
 23 21  1  0  0  0  0
 24 25  1  0  0  0  0
 24 23  1  0  0  0  0
 27 26  1  1  0  0  0
 27 28  1  0  0  0  0
 27 25  1  0  0  0  0
 29 28  1  0  0  0  0
 29 30  1  0  0  0  0
 30 31  1  0  0  0  0
M  END
>  <MODEL>
1

>  <REMARK>
 VINA RESULT:      -8.0      0.000      0.000
  Name = 
  8 active torsions:
  status: ('A' for Active; 'I' for Inactive)
    1  A    between atoms: C_1  and  C_11
    2  A    between atoms: C_3  and  C_9
    3  A    between atoms: C_3  and  O_22
    4  A    between atoms: C_9  and  N_23
    5  A    between atoms: C_11  and  C_24
    6  A    between atoms: C_15  and  N_23
    7  A    between atoms: C_19  and  O_22
    8  A    between atoms: C_19  and  C_24
                            x       y       z     vdW  Elec       q    Type
                         _______ _______ _______ _____ _____    ______ ____

>  <TORSDO>
F 8

$$$$
=
 OpenBabel10272400323D

 31 34  0  0  1  0  0  0  0  0999 V2000
  190.6280  176.2610  143.8700 C   0  0  2  0  0  3  0  0  0  0  0  0
  187.2530  177.6800  142.5640 C   0  0  2  0  0  3  0  0  0  0  0  0
  186.3530  177.8570  143.7760 C   0  0  0  0  0  0  0  0  0  0  0  0
  186.8590  178.0960  146.1850 C   0  0  0  0  0  3  0  0  0  0  0  0
  188.7590  177.6690  142.9190 C   0  0  1  0  0  3  0  0  0  0  0  0
  191.5530  177.2870  143.2000 C   0  0  0  0  0  2  0  0  0  0  0  0
  186.7150  177.1460  145.0440 C   0  0  0  0  0  2  0  0  0  0  0  0
  187.7830  178.4340  140.2520 C   0  0  0  0  0  0  0  0  0  0  0  0
  191.2190  174.8710  143.7490 C   0  0  0  0  0  1  0  0  0  0  0  0
  184.7210  178.9080  142.3790 O   0  0  0  0  0  0  0  0  0  0  0  0
  185.8390  178.8120  146.6460 C   0  0  0  0  0  3  0  0  0  0  0  0
  189.0840  178.1920  140.4390 C   0  0  0  0  0  3  0  0  0  0  0  0
  186.9330  178.7040  141.4650 C   0  0  1  0  0  3  0  0  0  0  0  0
  189.2000  176.2590  143.3110 C   0  0  0  0  0  2  0  0  0  0  0  0
  184.4900  178.8250  146.0520 C   0  0  0  0  0  3  0  0  0  0  0  0
  189.6880  178.2580  141.8140 C   0  0  2  0  0  3  0  0  0  0  0  0
  191.0880  177.6380  141.7880 C   0  0  0  0  0  2  0  0  0  0  0  0
  185.4410  178.6430  141.1780 C   0  0  0  0  0  2  0  0  0  0  0  0
  185.1410  178.4460  143.6370 C   0  0  0  0  0  0  0  0  0  0  0  0
  184.1950  178.6560  144.7570 C   0  0  0  0  0  3  0  0  0  0  0  0
  187.1880  178.3750  138.9450 N   0  0  0  0  0  2  0  0  0  0  0  0
  188.9150  178.1840  136.8940 S   0  0  0  0  0  0  0  0  0  0  0  0
  187.6550  177.6490  137.7970 C   0  0  0  0  0  0  0  0  0  0  0  0
  186.7720  176.6020  137.2170 C   0  0  0  0  0  2  0  0  0  0  0  0
  187.3600  175.3450  137.3860 O   0  0  0  0  0  0  0  0  0  0  0  0
  185.3240  175.1710  136.1330 C   0  0  0  0  0  1  0  0  0  0  0  0
  186.6040  174.4840  136.5850 C   0  0  2  0  0  3  0  0  0  0  0  0
  186.3130  173.1700  137.3150 C   0  0  0  0  0  2  0  0  0  0  0  0
  184.8320  172.9750  137.6370 C   0  0  0  0  0  2  0  0  0  0  0  0
  184.2320  171.8210  136.8470 C   0  0  0  0  0  2  0  0  0  0  0  0
  182.7300  171.7570  137.0580 C   0  0  0  0  0  1  0  0  0  0  0  0
  1  9  1  6  0  0  0
  2  5  1  0  0  0  0
  2  3  1  1  0  0  0
  3  7  1  0  0  0  0
  4 11  2  0  0  0  0
  5 14  1  6  0  0  0
  6  1  1  0  0  0  0
  7  4  1  0  0  0  0
  8 12  2  0  0  0  0
  8 13  1  0  0  0  0
 10 19  1  0  0  0  0
 13 18  1  6  0  0  0
 13  2  1  0  0  0  0
 14  1  1  0  0  0  0
 15 11  1  0  0  0  0
 16 12  1  6  0  0  0
 16  5  1  0  0  0  0
 17 16  1  0  0  0  0
 17  6  1  0  0  0  0
 18 10  1  0  0  0  0
 19  3  2  0  0  0  0
 19 20  1  0  0  0  0
 20 15  2  0  0  0  0
 21  8  1  0  0  0  0
 22 23  2  0  0  0  0
 23 21  1  0  0  0  0
 24 25  1  0  0  0  0
 24 23  1  0  0  0  0
 27 26  1  1  0  0  0
 27 28  1  0  0  0  0
 27 25  1  0  0  0  0
 28 29  1  0  0  0  0
 30 31  1  0  0  0  0
 30 29  1  0  0  0  0
M  END
>  <MODEL>
2

>  <REMARK>
 VINA RESULT:      -7.7      1.657      3.004
  Name = 
  8 active torsions:
  status: ('A' for Active; 'I' for Inactive)
    1  A    between atoms: C_1  and  C_11
    2  A    between atoms: C_3  and  C_9
    3  A    between atoms: C_3  and  O_22
    4  A    between atoms: C_9  and  N_23
    5  A    between atoms: C_11  and  C_24
    6  A    between atoms: C_15  and  N_23
    7  A    between atoms: C_19  and  O_22
    8  A    between atoms: C_19  and  C_24
                            x       y       z     vdW  Elec       q    Type
                         _______ _______ _______ _____ _____    ______ ____

>  <TORSDO>
F 8

$$$$
=
 OpenBabel10272400323D

 31 34  0  0  1  0  0  0  0  0999 V2000
  188.0870  177.9260  140.3560 C   0  0  2  0  0  3  0  0  0  0  0  0
  185.7250  178.5870  143.3710 C   0  0  2  0  0  3  0  0  0  0  0  0
  184.3350  178.8080  142.7990 C   0  0  0  0  0  0  0  0  0  0  0  0
  183.3130  178.1450  140.6480 C   0  0  0  0  0  3  0  0  0  0  0  0
  186.6520  177.7830  142.4290 C   0  0  1  0  0  3  0  0  0  0  0  0
  188.7210  176.6280  140.8740 C   0  0  0  0  0  2  0  0  0  0  0  0
  184.2040  179.1200  141.3400 C   0  0  0  0  0  2  0  0  0  0  0  0
  187.0630  177.8590  145.3410 C   0  0  0  0  0  0  0  0  0  0  0  0
  189.1490  178.8100  139.7300 C   0  0  0  0  0  1  0  0  0  0  0  0
  183.4600  178.8800  145.0240 O   0  0  0  0  0  0  0  0  0  0  0  0
  182.0210  178.0300  140.9400 C   0  0  0  0  0  3  0  0  0  0  0  0
  188.0210  177.3710  144.5480 C   0  0  0  0  0  3  0  0  0  0  0  0
  185.6700  177.9740  144.7780 C   0  0  1  0  0  3  0  0  0  0  0  0
  187.3340  178.7190  141.4310 C   0  0  0  0  0  2  0  0  0  0  0  0
  181.3390  178.7710  142.0160 C   0  0  0  0  0  3  0  0  0  0  0  0
  187.6990  176.8890  143.1610 C   0  0  2  0  0  3  0  0  0  0  0  0
  188.9980  176.6870  142.3740 C   0  0  0  0  0  2  0  0  0  0  0  0
  184.7460  178.8270  145.6330 C   0  0  0  0  0  2  0  0  0  0  0  0
  183.2760  178.9510  143.6330 C   0  0  0  0  0  0  0  0  0  0  0  0
  181.8880  179.1740  143.1690 C   0  0  0  0  0  3  0  0  0  0  0  0
  187.3510  178.3270  146.6690 N   0  0  0  0  0  2  0  0  0  0  0  0
  187.8590  177.6650  149.2240 S   0  0  0  0  0  0  0  0  0  0  0  0
  188.2440  177.7460  147.6320 C   0  0  0  0  0  0  0  0  0  0  0  0
  189.6650  177.5410  147.2430 C   0  0  0  0  0  2  0  0  0  0  0  0
  189.9570  176.1740  147.2350 O   0  0  0  0  0  0  0  0  0  0  0  0
  192.2620  175.9550  147.8530 C   0  0  0  0  0  1  0  0  0  0  0  0
  191.2550  176.0870  146.7210 C   0  0  2  0  0  3  0  0  0  0  0  0
  191.5700  177.2860  145.8220 C   0  0  0  0  0  2  0  0  0  0  0  0
  191.6070  176.9290  144.3360 C   0  0  0  0  0  2  0  0  0  0  0  0
  191.8980  178.1490  143.4730 C   0  0  0  0  0  2  0  0  0  0  0  0
  191.2240  179.3800  144.0490 C   0  0  0  0  0  1  0  0  0  0  0  0
  1  9  1  1  0  0  0
  1  6  1  0  0  0  0
  1 14  1  0  0  0  0
  2  3  1  6  0  0  0
  2 13  1  0  0  0  0
  3 19  2  0  0  0  0
  4 11  2  0  0  0  0
  4  7  1  0  0  0  0
  5 14  1  6  0  0  0
  5 16  1  0  0  0  0
  5  2  1  0  0  0  0
  6 17  1  0  0  0  0
  7  3  1  0  0  0  0
  8 21  1  0  0  0  0
 10 18  1  0  0  0  0
 11 15  1  0  0  0  0
 12  8  2  0  0  0  0
 13  8  1  0  0  0  0
 13 18  1  1  0  0  0
 15 20  2  0  0  0  0
 16 17  1  6  0  0  0
 16 12  1  0  0  0  0
 19 10  1  0  0  0  0
 20 19  1  0  0  0  0
 21 23  1  0  0  0  0
 23 22  2  0  0  0  0
 24 23  1  0  0  0  0
 25 24  1  0  0  0  0
 27 25  1  0  0  0  0
 27 26  1  1  0  0  0
 28 27  1  0  0  0  0
 29 28  1  0  0  0  0
 30 31  1  0  0  0  0
 30 29  1  0  0  0  0
M  END
>  <MODEL>
3

>  <REMARK>
 VINA RESULT:      -7.6      3.938      6.624
  Name = 
  8 active torsions:
  status: ('A' for Active; 'I' for Inactive)
    1  A    between atoms: C_1  and  C_11
    2  A    between atoms: C_3  and  C_9
    3  A    between atoms: C_3  and  O_22
    4  A    between atoms: C_9  and  N_23
    5  A    between atoms: C_11  and  C_24
    6  A    between atoms: C_15  and  N_23
    7  A    between atoms: C_19  and  O_22
    8  A    between atoms: C_19  and  C_24
                            x       y       z     vdW  Elec       q    Type
                         _______ _______ _______ _____ _____    ______ ____

>  <TORSDO>
F 8

$$$$
=
 OpenBabel10272400323D

 31 34  0  0  1  0  0  0  0  0999 V2000
  190.5630  176.3960  143.8890 C   0  0  2  0  0  3  0  0  0  0  0  0
  187.1050  177.7260  142.7140 C   0  0  2  0  0  3  0  0  0  0  0  0
  186.2480  177.8800  143.9590 C   0  0  0  0  0  0  0  0  0  0  0  0
  186.8390  178.1340  146.3460 C   0  0  0  0  0  3  0  0  0  0  0  0
  188.6230  177.7540  143.0100 C   0  0  1  0  0  3  0  0  0  0  0  0
  191.4350  177.4450  143.1840 C   0  0  0  0  0  2  0  0  0  0  0  0
  186.6770  177.1800  145.2120 C   0  0  0  0  0  2  0  0  0  0  0  0
  187.5270  178.4910  140.3820 C   0  0  0  0  0  0  0  0  0  0  0  0
  191.1850  175.0210  143.7460 C   0  0  0  0  0  1  0  0  0  0  0  0
  184.5370  178.8870  142.6250 O   0  0  0  0  0  0  0  0  0  0  0  0
  185.8190  178.8240  146.8470 C   0  0  0  0  0  3  0  0  0  0  0  0
  188.8400  178.2830  140.5190 C   0  0  0  0  0  3  0  0  0  0  0  0
  186.7170  178.7400  141.6280 C   0  0  1  0  0  3  0  0  0  0  0  0
  189.1150  176.3560  143.3850 C   0  0  0  0  0  2  0  0  0  0  0  0
  184.4490  178.8010  146.3040 C   0  0  0  0  0  3  0  0  0  0  0  0
  189.4940  178.3660  141.8700 C   0  0  2  0  0  3  0  0  0  0  0  0
  190.9080  177.7820  141.7910 C   0  0  0  0  0  2  0  0  0  0  0  0
  185.2170  178.6400  141.3980 C   0  0  0  0  0  2  0  0  0  0  0  0
  185.0160  178.4370  143.8660 C   0  0  0  0  0  0  0  0  0  0  0  0
  184.1090  178.6240  145.0220 C   0  0  0  0  0  3  0  0  0  0  0  0
  186.8830  178.4150  139.0990 N   0  0  0  0  0  2  0  0  0  0  0  0
  188.6780  178.5030  137.1000 S   0  0  0  0  0  0  0  0  0  0  0  0
  187.4010  177.8430  137.8880 C   0  0  0  0  0  0  0  0  0  0  0  0
  186.5570  176.8610  137.1550 C   0  0  0  0  0  2  0  0  0  0  0  0
  185.2950  177.4120  136.9170 O   0  0  0  0  0  0  0  0  0  0  0  0
  183.5680  175.9390  136.1470 C   0  0  0  0  0  1  0  0  0  0  0  0
  184.3900  176.4280  137.3300 C   0  0  2  0  0  3  0  0  0  0  0  0
  183.4990  176.9450  138.4630 C   0  0  0  0  0  2  0  0  0  0  0  0
  182.7490  175.8320  139.1940 C   0  0  0  0  0  2  0  0  0  0  0  0
  181.3590  176.2790  139.6230 C   0  0  0  0  0  2  0  0  0  0  0  0
  181.4190  177.6430  140.2840 C   0  0  0  0  0  1  0  0  0  0  0  0
  1  9  1  6  0  0  0
  2  5  1  0  0  0  0
  2  3  1  1  0  0  0
  3  7  1  0  0  0  0
  4 11  2  0  0  0  0
  5 14  1  6  0  0  0
  6  1  1  0  0  0  0
  7  4  1  0  0  0  0
  8 12  2  0  0  0  0
  8 13  1  0  0  0  0
 10 19  1  0  0  0  0
 13 18  1  6  0  0  0
 13  2  1  0  0  0  0
 14  1  1  0  0  0  0
 15 11  1  0  0  0  0
 16 12  1  6  0  0  0
 16  5  1  0  0  0  0
 17 16  1  0  0  0  0
 17  6  1  0  0  0  0
 18 10  1  0  0  0  0
 19  3  2  0  0  0  0
 19 20  1  0  0  0  0
 20 15  2  0  0  0  0
 21  8  1  0  0  0  0
 22 23  2  0  0  0  0
 23 21  1  0  0  0  0
 24 23  1  0  0  0  0
 25 24  1  0  0  0  0
 25 27  1  0  0  0  0
 27 26  1  6  0  0  0
 27 28  1  0  0  0  0
 28 29  1  0  0  0  0
 29 30  1  0  0  0  0
 30 31  1  0  0  0  0
M  END
>  <MODEL>
4

>  <REMARK>
 VINA RESULT:      -7.6      1.900      3.684
  Name = 
  8 active torsions:
  status: ('A' for Active; 'I' for Inactive)
    1  A    between atoms: C_1  and  C_11
    2  A    between atoms: C_3  and  C_9
    3  A    between atoms: C_3  and  O_22
    4  A    between atoms: C_9  and  N_23
    5  A    between atoms: C_11  and  C_24
    6  A    between atoms: C_15  and  N_23
    7  A    between atoms: C_19  and  O_22
    8  A    between atoms: C_19  and  C_24
                            x       y       z     vdW  Elec       q    Type
                         _______ _______ _______ _____ _____    ______ ____

>  <TORSDO>
F 8

$$$$
=
 OpenBabel10272400323D

 31 34  0  0  1  0  0  0  0  0999 V2000
  191.2390  177.3500  143.3310 C   0  0  2  0  0  3  0  0  0  0  0  0
  189.1490  177.9280  140.1040 C   0  0  2  0  0  3  0  0  0  0  0  0
  189.9820  177.4110  138.9440 C   0  0  0  0  0  0  0  0  0  0  0  0
  191.8450  175.7880  138.8450 C   0  0  0  0  0  3  0  0  0  0  0  0
  189.5390  177.2990  141.4630 C   0  0  1  0  0  3  0  0  0  0  0  0
  190.1610  176.6180  144.1430 C   0  0  0  0  0  2  0  0  0  0  0  0
  191.4490  177.1910  139.1590 C   0  0  0  0  0  2  0  0  0  0  0  0
  186.8610  178.4040  140.9600 C   0  0  0  0  0  0  0  0  0  0  0  0
  191.9740  178.3390  144.2130 C   0  0  0  0  0  1  0  0  0  0  0  0
  188.1370  177.8090  137.4760 O   0  0  0  0  0  0  0  0  0  0  0  0
  191.7490  175.2790  137.6200 C   0  0  0  0  0  3  0  0  0  0  0  0
  187.2330  178.1080  142.2090 C   0  0  0  0  0  3  0  0  0  0  0  0
  187.6450  177.7980  139.8260 C   0  0  1  0  0  3  0  0  0  0  0  0
  190.6950  178.0760  142.0940 C   0  0  0  0  0  2  0  0  0  0  0  0
  191.1720  175.9880  136.4640 C   0  0  0  0  0  3  0  0  0  0  0  0
  188.3560  177.1440  142.4670 C   0  0  2  0  0  3  0  0  0  0  0  0
  188.7780  177.2310  143.9380 C   0  0  0  0  0  2  0  0  0  0  0  0
  187.3520  178.4440  138.4810 C   0  0  0  0  0  2  0  0  0  0  0  0
  189.4560  177.3800  137.6950 C   0  0  0  0  0  0  0  0  0  0  0  0
  190.1920  176.8990  136.5040 C   0  0  0  0  0  3  0  0  0  0  0  0
  185.7890  179.3250  140.6930 N   0  0  0  0  0  2  0  0  0  0  0  0
  183.5300  179.4910  139.2470 S   0  0  0  0  0  0  0  0  0  0  0  0
  184.3890  179.0330  140.5660 C   0  0  0  0  0  0  0  0  0  0  0  0
  183.6390  178.6310  141.7860 C   0  0  0  0  0  2  0  0  0  0  0  0
  184.0970  179.3650  142.8830 O   0  0  0  0  0  0  0  0  0  0  0  0
  182.1110  178.7910  144.0950 C   0  0  0  0  0  1  0  0  0  0  0  0
  183.6250  178.6720  144.0020 C   0  0  2  0  0  3  0  0  0  0  0  0
  184.3100  179.1630  145.2800 C   0  0  0  0  0  2  0  0  0  0  0  0
  185.6080  178.4180  145.5920 C   0  0  0  0  0  2  0  0  0  0  0  0
  186.0170  178.5860  147.0480 C   0  0  0  0  0  2  0  0  0  0  0  0
  187.4000  178.0080  147.2810 C   0  0  0  0  0  1  0  0  0  0  0  0
  1  6  1  0  0  0  0
  1  9  1  1  0  0  0
  2  3  1  6  0  0  0
  2  5  1  0  0  0  0
  3  7  1  0  0  0  0
  4  7  1  0  0  0  0
  5 14  1  1  0  0  0
  5 16  1  0  0  0  0
  8 12  2  0  0  0  0
 10 19  1  0  0  0  0
 10 18  1  0  0  0  0
 11  4  2  0  0  0  0
 13 18  1  6  0  0  0
 13  2  1  0  0  0  0
 13  8  1  0  0  0  0
 14  1  1  0  0  0  0
 15 20  2  0  0  0  0
 15 11  1  0  0  0  0
 16 12  1  6  0  0  0
 16 17  1  0  0  0  0
 17  6  1  0  0  0  0
 19  3  2  0  0  0  0
 20 19  1  0  0  0  0
 21  8  1  0  0  0  0
 22 23  2  0  0  0  0
 23 21  1  0  0  0  0
 23 24  1  0  0  0  0
 24 25  1  0  0  0  0
 25 27  1  0  0  0  0
 27 26  1  1  0  0  0
 27 28  1  0  0  0  0
 28 29  1  0  0  0  0
 29 30  1  0  0  0  0
 30 31  1  0  0  0  0
M  END
>  <MODEL>
5

>  <REMARK>
 VINA RESULT:      -7.5      1.813      7.085
  Name = 
  8 active torsions:
  status: ('A' for Active; 'I' for Inactive)
    1  A    between atoms: C_1  and  C_11
    2  A    between atoms: C_3  and  C_9
    3  A    between atoms: C_3  and  O_22
    4  A    between atoms: C_9  and  N_23
    5  A    between atoms: C_11  and  C_24
    6  A    between atoms: C_15  and  N_23
    7  A    between atoms: C_19  and  O_22
    8  A    between atoms: C_19  and  C_24
                            x       y       z     vdW  Elec       q    Type
                         _______ _______ _______ _____ _____    ______ ____

>  <TORSDO>
F 8

$$$$
=
 OpenBabel10272400323D

 31 34  0  0  1  0  0  0  0  0999 V2000
  190.8800  177.1000  142.5500 C   0  0  2  0  0  3  0  0  0  0  0  0
  187.6310  178.3070  140.7910 C   0  0  2  0  0  3  0  0  0  0  0  0
  187.8750  178.1960  139.2950 C   0  0  0  0  0  0  0  0  0  0  0  0
  189.4730  176.8430  137.9810 C   0  0  0  0  0  3  0  0  0  0  0  0
  188.5460  177.3820  141.6280 C   0  0  1  0  0  3  0  0  0  0  0  0
  190.2320  176.0810  143.4980 C   0  0  0  0  0  2  0  0  0  0  0  0
  189.2870  178.0680  138.8090 C   0  0  0  0  0  2  0  0  0  0  0  0
  185.9400  178.3200  142.6170 C   0  0  0  0  0  0  0  0  0  0  0  0
  191.9480  177.8880  143.2840 C   0  0  0  0  0  1  0  0  0  0  0  0
  185.5920  178.7900  138.9050 O   0  0  0  0  0  0  0  0  0  0  0  0
  188.8500  176.6670  136.8190 C   0  0  0  0  0  3  0  0  0  0  0  0
  186.8000  177.7420  143.4600 C   0  0  0  0  0  3  0  0  0  0  0  0
  186.1490  178.1120  141.1400 C   0  0  1  0  0  3  0  0  0  0  0  0
  189.8810  178.0720  141.9100 C   0  0  0  0  0  2  0  0  0  0  0  0
  187.8550  177.5980  136.2570 C   0  0  0  0  0  3  0  0  0  0  0  0
  187.9000  176.8560  142.9470 C   0  0  2  0  0  3  0  0  0  0  0  0
  188.9110  176.5920  144.0670 C   0  0  0  0  0  2  0  0  0  0  0  0
  185.3280  179.0590  140.2790 C   0  0  0  0  0  2  0  0  0  0  0  0
  186.8660  178.4460  138.4260 C   0  0  0  0  0  0  0  0  0  0  0  0
  187.0100  178.3690  136.9540 C   0  0  0  0  0  3  0  0  0  0  0  0
  184.8820  179.1730  143.0890 N   0  0  0  0  0  2  0  0  0  0  0  0
  182.3620  178.8100  143.9510 S   0  0  0  0  0  0  0  0  0  0  0  0
  183.9810  178.9340  144.1810 C   0  0  0  0  0  0  0  0  0  0  0  0
  184.4760  179.1550  145.5660 C   0  0  0  0  0  2  0  0  0  0  0  0
  184.9530  177.9510  146.0920 O   0  0  0  0  0  0  0  0  0  0  0  0
  185.9880  179.8360  147.1500 C   0  0  0  0  0  1  0  0  0  0  0  0
  185.8030  178.3260  147.1370 C   0  0  2  0  0  3  0  0  0  0  0  0
  187.1440  177.5930  147.0430 C   0  0  0  0  0  2  0  0  0  0  0  0
  187.9340  177.6140  148.3510 C   0  0  0  0  0  2  0  0  0  0  0  0
  189.3800  178.0310  148.1270 C   0  0  0  0  0  2  0  0  0  0  0  0
  190.1270  176.9650  147.3470 C   0  0  0  0  0  1  0  0  0  0  0  0
  1  9  1  1  0  0  0
  1  6  1  0  0  0  0
  2  3  1  6  0  0  0
  2 13  1  0  0  0  0
  2  5  1  0  0  0  0
  4  7  1  0  0  0  0
  5 14  1  1  0  0  0
  5 16  1  0  0  0  0
  6 17  1  0  0  0  0
  7  3  1  0  0  0  0
  8 21  1  0  0  0  0
  8 12  2  0  0  0  0
 10 18  1  0  0  0  0
 11  4  2  0  0  0  0
 13 18  1  6  0  0  0
 13  8  1  0  0  0  0
 14  1  1  0  0  0  0
 15 11  1  0  0  0  0
 15 20  2  0  0  0  0
 16 12  1  1  0  0  0
 16 17  1  0  0  0  0
 19 10  1  0  0  0  0
 19  3  2  0  0  0  0
 20 19  1  0  0  0  0
 21 23  1  0  0  0  0
 22 23  2  0  0  0  0
 23 24  1  0  0  0  0
 24 25  1  0  0  0  0
 25 27  1  0  0  0  0
 27 26  1  6  0  0  0
 28 27  1  0  0  0  0
 28 29  1  0  0  0  0
 30 29  1  0  0  0  0
 31 30  1  0  0  0  0
M  END
>  <MODEL>
6

>  <REMARK>
 VINA RESULT:      -7.5      2.581      7.264
  Name = 
  8 active torsions:
  status: ('A' for Active; 'I' for Inactive)
    1  A    between atoms: C_1  and  C_11
    2  A    between atoms: C_3  and  C_9
    3  A    between atoms: C_3  and  O_22
    4  A    between atoms: C_9  and  N_23
    5  A    between atoms: C_11  and  C_24
    6  A    between atoms: C_15  and  N_23
    7  A    between atoms: C_19  and  O_22
    8  A    between atoms: C_19  and  C_24
                            x       y       z     vdW  Elec       q    Type
                         _______ _______ _______ _____ _____    ______ ____

>  <TORSDO>
F 8

$$$$
=
 OpenBabel10272400323D

 31 34  0  0  1  0  0  0  0  0999 V2000
  186.6840  175.6630  136.2020 C   0  0  2  0  0  3  0  0  0  0  0  0
  189.6160  176.5960  138.5780 C   0  0  2  0  0  3  0  0  0  0  0  0
  190.8900  176.0960  137.9180 C   0  0  0  0  0  0  0  0  0  0  0  0
  191.4290  175.5590  135.5650 C   0  0  0  0  0  3  0  0  0  0  0  0
  188.4590  176.8220  137.5760 C   0  0  1  0  0  3  0  0  0  0  0  0
  186.0380  177.0540  136.1200 C   0  0  0  0  0  2  0  0  0  0  0  0
  190.7770  175.0830  136.8200 C   0  0  0  0  0  2  0  0  0  0  0  0
  188.6050  178.2420  140.1470 C   0  0  0  0  0  0  0  0  0  0  0  0
  185.6130  174.5990  136.3380 C   0  0  0  0  0  1  0  0  0  0  0  0
  192.1660  177.1530  139.6430 O   0  0  0  0  0  0  0  0  0  0  0  0
  192.7360  175.7880  135.4860 C   0  0  0  0  0  3  0  0  0  0  0  0
  187.4740  178.2720  139.4350 C   0  0  0  0  0  3  0  0  0  0  0  0
  189.8730  177.8380  139.4420 C   0  0  1  0  0  3  0  0  0  0  0  0
  187.6950  175.5170  137.3460 C   0  0  0  0  0  2  0  0  0  0  0  0
  193.6720  175.6880  136.6200 C   0  0  0  0  0  3  0  0  0  0  0  0
  187.4860  177.9780  137.9610 C   0  0  2  0  0  3  0  0  0  0  0  0
  186.0510  177.7690  137.4690 C   0  0  0  0  0  2  0  0  0  0  0  0
  191.0160  177.5260  140.3960 C   0  0  0  0  0  2  0  0  0  0  0  0
  192.0940  176.3830  138.4710 C   0  0  0  0  0  0  0  0  0  0  0  0
  193.3870  175.9360  137.9040 C   0  0  0  0  0  3  0  0  0  0  0  0
  188.6130  178.5190  141.5580 N   0  0  0  0  0  2  0  0  0  0  0  0
  186.3660  178.0340  142.9500 S   0  0  0  0  0  0  0  0  0  0  0  0
  187.9490  177.7900  142.6010 C   0  0  0  0  0  0  0  0  0  0  0  0
  188.7840  177.0720  143.6010 C   0  0  0  0  0  2  0  0  0  0  0  0
  190.0120  177.7240  143.7430 O   0  0  0  0  0  0  0  0  0  0  0  0
  191.4370  176.6890  145.3680 C   0  0  0  0  0  1  0  0  0  0  0  0
  190.2970  177.6620  145.1110 C   0  0  2  0  0  3  0  0  0  0  0  0
  189.0460  177.2940  145.9150 C   0  0  0  0  0  2  0  0  0  0  0  0
  189.3250  177.0940  147.4040 C   0  0  0  0  0  2  0  0  0  0  0  0
  188.2100  177.6670  148.2660 C   0  0  0  0  0  2  0  0  0  0  0  0
  187.1020  178.2320  147.3960 C   0  0  0  0  0  1  0  0  0  0  0  0
  1  9  1  1  0  0  0
  1 14  1  0  0  0  0
  2  3  1  6  0  0  0
  2 13  1  0  0  0  0
  3 19  2  0  0  0  0
  4  7  1  0  0  0  0
  5 14  1  1  0  0  0
  5 16  1  0  0  0  0
  5  2  1  0  0  0  0
  6  1  1  0  0  0  0
  6 17  1  0  0  0  0
  7  3  1  0  0  0  0
  8 21  1  0  0  0  0
 10 18  1  0  0  0  0
 11  4  2  0  0  0  0
 11 15  1  0  0  0  0
 12  8  2  0  0  0  0
 13  8  1  0  0  0  0
 13 18  1  1  0  0  0
 15 20  2  0  0  0  0
 16 17  1  1  0  0  0
 16 12  1  0  0  0  0
 19 10  1  0  0  0  0
 20 19  1  0  0  0  0
 21 23  1  0  0  0  0
 23 22  2  0  0  0  0
 23 24  1  0  0  0  0
 24 25  1  0  0  0  0
 25 27  1  0  0  0  0
 27 26  1  6  0  0  0
 27 28  1  0  0  0  0
 28 29  1  0  0  0  0
 29 30  1  0  0  0  0
 31 30  1  0  0  0  0
M  END
>  <MODEL>
7

>  <REMARK>
 VINA RESULT:      -7.1      2.529      8.384
  Name = 
  8 active torsions:
  status: ('A' for Active; 'I' for Inactive)
    1  A    between atoms: C_1  and  C_11
    2  A    between atoms: C_3  and  C_9
    3  A    between atoms: C_3  and  O_22
    4  A    between atoms: C_9  and  N_23
    5  A    between atoms: C_11  and  C_24
    6  A    between atoms: C_15  and  N_23
    7  A    between atoms: C_19  and  O_22
    8  A    between atoms: C_19  and  C_24
                            x       y       z     vdW  Elec       q    Type
                         _______ _______ _______ _____ _____    ______ ____

>  <TORSDO>
F 8

$$$$
=
 OpenBabel10272400323D

 31 34  0  0  1  0  0  0  0  0999 V2000
  189.6780  176.4110  135.7620 C   0  0  2  0  0  3  0  0  0  0  0  0
  188.2910  177.8860  139.0810 C   0  0  2  0  0  3  0  0  0  0  0  0
  186.8250  178.2030  138.8410 C   0  0  0  0  0  0  0  0  0  0  0  0
  185.2020  177.3470  137.1830 C   0  0  0  0  0  3  0  0  0  0  0  0
  188.8500  176.8150  138.1140 C   0  0  1  0  0  3  0  0  0  0  0  0
  190.3040  175.1390  136.3510 C   0  0  0  0  0  2  0  0  0  0  0  0
  186.3340  178.2870  137.4270 C   0  0  0  0  0  2  0  0  0  0  0  0
  190.0370  177.3090  140.7590 C   0  0  0  0  0  0  0  0  0  0  0  0
  190.6090  177.0210  134.7320 C   0  0  0  0  0  1  0  0  0  0  0  0
  186.5940  178.7630  141.1540 O   0  0  0  0  0  0  0  0  0  0  0  0
  184.0320  177.4660  137.8030 C   0  0  0  0  0  3  0  0  0  0  0  0
  190.6960  176.5670  139.8640 C   0  0  0  0  0  3  0  0  0  0  0  0
  188.5610  177.5260  140.5490 C   0  0  1  0  0  3  0  0  0  0  0  0
  189.3210  177.4680  136.8150 C   0  0  0  0  0  2  0  0  0  0  0  0
  183.7390  178.4630  138.8490 C   0  0  0  0  0  3  0  0  0  0  0  0
  189.9670  175.9140  138.7230 C   0  0  2  0  0  3  0  0  0  0  0  0
  190.9810  175.4040  137.6930 C   0  0  0  0  0  2  0  0  0  0  0  0
  187.9860  178.6300  141.4230 C   0  0  0  0  0  2  0  0  0  0  0  0
  186.0490  178.6300  139.8670 C   0  0  0  0  0  0  0  0  0  0  0  0
  184.6140  178.9680  139.7280 C   0  0  0  0  0  3  0  0  0  0  0  0
  190.7160  177.9430  141.8560 N   0  0  0  0  0  2  0  0  0  0  0  0
  191.5730  176.0660  143.5780 S   0  0  0  0  0  0  0  0  0  0  0  0
  190.8260  177.4780  143.2100 C   0  0  0  0  0  0  0  0  0  0  0  0
  189.9520  178.0980  144.2420 C   0  0  0  0  0  2  0  0  0  0  0  0
  190.1550  177.4650  145.4720 O   0  0  0  0  0  0  0  0  0  0  0  0
  189.0050  176.9160  147.5020 C   0  0  0  0  0  1  0  0  0  0  0  0
  188.9700  177.6770  146.1850 C   0  0  2  0  0  3  0  0  0  0  0  0
  187.7490  177.2960  145.3440 C   0  0  0  0  0  2  0  0  0  0  0  0
  186.5500  178.2150  145.5730 C   0  0  0  0  0  2  0  0  0  0  0  0
  185.5510  178.1320  144.4280 C   0  0  0  0  0  2  0  0  0  0  0  0
  184.2710  178.8660  144.7850 C   0  0  0  0  0  1  0  0  0  0  0  0
  1  9  1  6  0  0  0
  1  6  1  0  0  0  0
  1 14  1  0  0  0  0
  2  3  1  1  0  0  0
  2 13  1  0  0  0  0
  3 19  2  0  0  0  0
  4  7  1  0  0  0  0
  4 11  2  0  0  0  0
  5 14  1  6  0  0  0
  5 16  1  0  0  0  0
  5  2  1  0  0  0  0
  6 17  1  0  0  0  0
  7  3  1  0  0  0  0
  8 21  1  0  0  0  0
 10 18  1  0  0  0  0
 11 15  1  0  0  0  0
 12  8  2  0  0  0  0
 13  8  1  0  0  0  0
 13 18  1  1  0  0  0
 15 20  2  0  0  0  0
 16 17  1  6  0  0  0
 16 12  1  0  0  0  0
 19 10  1  0  0  0  0
 20 19  1  0  0  0  0
 21 23  1  0  0  0  0
 23 22  2  0  0  0  0
 23 24  1  0  0  0  0
 24 25  1  0  0  0  0
 25 27  1  0  0  0  0
 27 26  1  1  0  0  0
 28 29  1  0  0  0  0
 28 27  1  0  0  0  0
 30 31  1  0  0  0  0
 30 29  1  0  0  0  0
M  END
>  <MODEL>
8

>  <REMARK>
 VINA RESULT:      -6.9      2.589      7.139
  Name = 
  8 active torsions:
  status: ('A' for Active; 'I' for Inactive)
    1  A    between atoms: C_1  and  C_11
    2  A    between atoms: C_3  and  C_9
    3  A    between atoms: C_3  and  O_22
    4  A    between atoms: C_9  and  N_23
    5  A    between atoms: C_11  and  C_24
    6  A    between atoms: C_15  and  N_23
    7  A    between atoms: C_19  and  O_22
    8  A    between atoms: C_19  and  C_24
                            x       y       z     vdW  Elec       q    Type
                         _______ _______ _______ _____ _____    ______ ____

>  <TORSDO>
F 8

$$$$
=
 OpenBabel10272400323D

 31 34  0  0  1  0  0  0  0  0999 V2000
  190.9740  177.6060  143.6870 C   0  0  2  0  0  3  0  0  0  0  0  0
  187.8680  178.3260  141.4640 C   0  0  2  0  0  3  0  0  0  0  0  0
  188.2850  178.0590  140.0280 C   0  0  0  0  0  0  0  0  0  0  0  0
  190.1080  176.6920  139.0670 C   0  0  0  0  0  3  0  0  0  0  0  0
  188.7440  177.5850  142.5020 C   0  0  1  0  0  3  0  0  0  0  0  0
  190.2940  176.6580  144.6860 C   0  0  0  0  0  2  0  0  0  0  0  0
  189.7480  177.9880  139.7100 C   0  0  0  0  0  2  0  0  0  0  0  0
  185.9850  178.4190  143.0900 C   0  0  0  0  0  0  0  0  0  0  0  0
  191.8960  178.5590  144.4210 C   0  0  0  0  0  1  0  0  0  0  0  0
  186.0250  178.4140  139.3320 O   0  0  0  0  0  0  0  0  0  0  0  0
  189.6330  176.3300  137.8800 C   0  0  0  0  0  3  0  0  0  0  0  0
  186.7830  178.0180  144.0840 C   0  0  0  0  0  3  0  0  0  0  0  0
  186.3720  178.0550  141.6810 C   0  0  1  0  0  3  0  0  0  0  0  0
  189.9890  178.4100  142.8290 C   0  0  0  0  0  2  0  0  0  0  0  0
  188.6460  177.1020  137.1050 C   0  0  0  0  0  3  0  0  0  0  0  0
  187.9910  177.1690  143.8030 C   0  0  2  0  0  3  0  0  0  0  0  0
  188.8860  177.1230  145.0460 C   0  0  0  0  0  2  0  0  0  0  0  0
  185.5910  178.8220  140.6260 C   0  0  0  0  0  2  0  0  0  0  0  0
  187.3650  178.1200  139.0340 C   0  0  0  0  0  0  0  0  0  0  0  0
  187.6780  177.8800  137.6070 C   0  0  0  0  0  3  0  0  0  0  0  0
  184.8260  179.2330  143.3390 N   0  0  0  0  0  2  0  0  0  0  0  0
  184.4850  178.7880  145.9670 S   0  0  0  0  0  0  0  0  0  0  0  0
  183.9450  179.1870  144.4710 C   0  0  0  0  0  0  0  0  0  0  0  0
  182.4790  179.1500  144.2230 C   0  0  0  0  0  2  0  0  0  0  0  0
  182.2350  178.7880  142.8950 O   0  0  0  0  0  0  0  0  0  0  0  0
  180.1370  178.4160  143.9910 C   0  0  0  0  0  1  0  0  0  0  0  0
  180.8500  178.9020  142.7390 C   0  0  2  0  0  3  0  0  0  0  0  0
  180.3760  178.1530  141.4910 C   0  0  0  0  0  2  0  0  0  0  0  0
  181.0820  178.6050  140.2130 C   0  0  0  0  0  2  0  0  0  0  0  0
  181.4290  177.4260  139.3160 C   0  0  0  0  0  2  0  0  0  0  0  0
  182.6130  176.6610  139.8770 C   0  0  0  0  0  1  0  0  0  0  0  0
  1  9  1  1  0  0  0
  1  6  1  0  0  0  0
  2  3  1  6  0  0  0
  2 13  1  0  0  0  0
  2  5  1  0  0  0  0
  4  7  1  0  0  0  0
  5 14  1  1  0  0  0
  5 16  1  0  0  0  0
  6 17  1  0  0  0  0
  7  3  1  0  0  0  0
  8 21  1  0  0  0  0
  8 12  2  0  0  0  0
 10 18  1  0  0  0  0
 11  4  2  0  0  0  0
 13 18  1  6  0  0  0
 13  8  1  0  0  0  0
 14  1  1  0  0  0  0
 15 20  2  0  0  0  0
 15 11  1  0  0  0  0
 16 12  1  1  0  0  0
 16 17  1  0  0  0  0
 19 10  1  0  0  0  0
 19  3  2  0  0  0  0
 20 19  1  0  0  0  0
 21 23  1  0  0  0  0
 23 22  2  0  0  0  0
 24 23  1  0  0  0  0
 25 24  1  0  0  0  0
 27 25  1  0  0  0  0
 27 26  1  1  0  0  0
 28 27  1  0  0  0  0
 29 28  1  0  0  0  0
 30 31  1  0  0  0  0
 30 29  1  0  0  0  0
M  END
>  <MODEL>
9

>  <REMARK>
 VINA RESULT:      -6.8      3.046      7.089
  Name = 
  8 active torsions:
  status: ('A' for Active; 'I' for Inactive)
    1  A    between atoms: C_1  and  C_11
    2  A    between atoms: C_3  and  C_9
    3  A    between atoms: C_3  and  O_22
    4  A    between atoms: C_9  and  N_23
    5  A    between atoms: C_11  and  C_24
    6  A    between atoms: C_15  and  N_23
    7  A    between atoms: C_19  and  O_22
    8  A    between atoms: C_19  and  C_24
                            x       y       z     vdW  Elec       q    Type
                         _______ _______ _______ _____ _____    ______ ____

>  <TORSDO>
F 8

$$$$
