=
 OpenBabel10272413143D

 32 37  0  0  1  0  0  0  0  0999 V2000
  186.3460  177.8440  144.6740 C   0  0  0  0  0  0  0  0  0  0  0  0
  188.7040  177.1490  144.4730 C   0  0  0  0  0  0  0  0  0  0  0  0
  185.2170  178.0280  145.6110 C   0  0  0  0  0  3  0  0  0  0  0  0
  187.6630  177.4800  145.2570 C   0  0  0  0  0  0  0  0  0  0  0  0
  190.0480  176.9010  145.0840 C   0  0  0  0  0  0  0  0  0  0  0  0
  192.0540  177.2940  139.4290 C   0  0  0  0  0  1  0  0  0  0  0  0
  188.4750  176.9840  142.9800 C   0  0  1  0  0  3  0  0  0  0  0  0
  191.9190  176.8730  141.8610 O   0  0  0  0  0  0  0  0  0  0  0  0
  190.9920  176.8160  142.7810 C   0  0  0  0  0  0  0  0  0  0  0  0
  187.7770  177.3270  146.7520 C   0  0  1  0  0  3  0  0  0  0  0  0
  191.2140  176.4710  144.2180 C   0  0  0  0  0  2  0  0  0  0  0  0
  189.1230  177.5140  147.1880 O   0  0  0  0  0  0  0  0  0  0  0  0
  186.8310  178.2840  147.4770 C   0  0  0  0  0  2  0  0  0  0  0  0
  187.4470  177.9970  142.4690 C   0  0  0  0  0  2  0  0  0  0  0  0
  186.2180  178.0150  143.3370 C   0  0  0  0  0  0  0  0  0  0  0  0
  189.7640  177.0730  142.2250 C   0  0  0  0  0  0  0  0  0  0  0  0
  190.2150  177.1160  146.4050 C   0  0  0  0  0  0  0  0  0  0  0  0
  185.4340  178.1880  146.9200 C   0  0  0  0  0  3  0  0  0  0  0  0
  191.3270  177.1490  140.7180 C   0  0  0  0  0  0  0  0  0  0  0  0
  189.9540  177.2730  140.8680 C   0  0  0  0  0  3  0  0  0  0  0  0
  182.5610  179.3700  143.1750 C   0  0  2  0  0  3  0  0  0  0  0  0
  182.0550  177.3100  140.1720 O   0  0  0  0  0  0  0  0  0  0  0  0
  181.9420  179.2220  144.4030 F   0  0  0  0  0  0  0  0  0  0  0  0
  183.7490  178.9630  140.4510 C   0  0  0  0  0  2  0  0  0  0  0  0
  184.9090  178.3180  142.6550 C   0  0  2  0  0  3  0  0  0  0  0  0
  182.0880  178.3250  142.2660 N   0  0  0  0  0  2  0  0  0  0  0  0
  185.0490  178.5280  141.1380 C   0  0  0  0  0  2  0  0  0  0  0  0
  184.0580  179.3550  143.3530 C   0  0  0  0  0  0  0  0  0  0  0  0
  184.5800  180.2290  144.0280 O   0  0  0  0  0  0  0  0  0  0  0  0
  182.5800  178.1640  140.9310 C   0  0  0  0  0  0  0  0  0  0  0  0
  191.5320  176.9710  147.0420 C   0  0  0  0  0  3  0  0  0  0  0  0
  191.8550  175.8800  147.6520 N   0  0  0  0  0  2  0  0  0  0  0  0
  1  4  1  0  0  0  0
  1  3  1  0  0  0  0
  2  5  1  0  0  0  0
  2  4  2  0  0  0  0
  3 18  2  0  0  0  0
  4 10  1  0  0  0  0
  5 17  2  0  0  0  0
  6 19  1  0  0  0  0
  7 14  1  6  0  0  0
  7  2  1  0  0  0  0
  8  9  1  0  0  0  0
  9 11  1  0  0  0  0
 10 12  1  0  0  0  0
 10 13  1  1  0  0  0
 11  5  1  0  0  0  0
 14 15  1  0  0  0  0
 15  1  2  0  0  0  0
 16  9  2  0  0  0  0
 16  7  1  0  0  0  0
 17 31  1  0  0  0  0
 17 12  1  0  0  0  0
 18 13  1  0  0  0  0
 19 20  2  0  0  0  0
 19  8  1  0  0  0  0
 20 16  1  0  0  0  0
 21 28  1  0  0  0  0
 21 23  1  1  0  0  0
 22 30  2  0  0  0  0
 24 30  1  0  0  0  0
 24 27  1  0  0  0  0
 25 15  1  1  0  0  0
 25 28  1  0  0  0  0
 26 21  1  0  0  0  0
 27 25  1  0  0  0  0
 28 29  2  0  0  0  0
 30 26  1  0  0  0  0
 31 32  2  0  0  0  0
M  END
>  <MODEL>
1

>  <REMARK>
 VINA RESULT:     -11.4      0.000      0.000
  Name = 
  2 active torsions:
  status: ('A' for Active; 'I' for Inactive)
    1  A    between atoms: C_13  and  C_29
    2  A    between atoms: C_16  and  C_27
                            x       y       z     vdW  Elec       q    Type
                         _______ _______ _______ _____ _____    ______ ____

>  <TORSDO>
F 2

$$$$
=
 OpenBabel10272413143D

 32 37  0  0  1  0  0  0  0  0999 V2000
  189.5870  177.0610  143.1950 C   0  0  0  0  0  0  0  0  0  0  0  0
  187.9600  177.8320  144.8800 C   0  0  0  0  0  0  0  0  0  0  0  0
  190.9910  176.6560  142.9690 C   0  0  0  0  0  3  0  0  0  0  0  0
  189.1690  177.3170  144.5970 C   0  0  0  0  0  0  0  0  0  0  0  0
  187.5230  177.9690  146.3060 C   0  0  0  0  0  0  0  0  0  0  0  0
  182.0630  178.8500  143.9480 C   0  0  0  0  0  1  0  0  0  0  0  0
  187.0810  178.3110  143.7380 C   0  0  1  0  0  3  0  0  0  0  0  0
  183.9590  178.7330  145.5280 O   0  0  0  0  0  0  0  0  0  0  0  0
  185.2560  178.5700  145.4710 C   0  0  0  0  0  0  0  0  0  0  0  0
  190.1830  177.1460  145.7000 C   0  0  1  0  0  3  0  0  0  0  0  0
  186.1870  178.6000  146.6390 C   0  0  0  0  0  2  0  0  0  0  0  0
  189.5460  176.8970  146.9520 O   0  0  0  0  0  0  0  0  0  0  0  0
  191.1780  176.0350  145.3640 C   0  0  0  0  0  2  0  0  0  0  0  0
  187.2410  177.4110  142.5090 C   0  0  0  0  0  2  0  0  0  0  0  0
  188.6930  177.1810  142.1860 C   0  0  0  0  0  0  0  0  0  0  0  0
  185.6500  178.4140  144.1660 C   0  0  0  0  0  0  0  0  0  0  0  0
  188.3130  177.4780  147.2820 C   0  0  0  0  0  0  0  0  0  0  0  0
  191.7480  176.2200  143.9820 C   0  0  0  0  0  3  0  0  0  0  0  0
  183.5000  178.6990  144.2950 C   0  0  0  0  0  0  0  0  0  0  0  0
  184.5200  178.5160  143.3730 C   0  0  0  0  0  3  0  0  0  0  0  0
  188.1500  177.6510  138.3490 C   0  0  2  0  0  3  0  0  0  0  0  0
  190.3830  174.7810  137.8010 O   0  0  0  0  0  0  0  0  0  0  0  0
  186.7990  177.7240  138.0640 F   0  0  0  0  0  0  0  0  0  0  0  0
  190.9380  176.7600  139.0080 C   0  0  0  0  0  2  0  0  0  0  0  0
  189.0450  177.0050  140.7320 C   0  0  2  0  0  3  0  0  0  0  0  0
  188.6480  176.3210  137.9960 N   0  0  0  0  0  2  0  0  0  0  0  0
  190.5510  176.8110  140.4900 C   0  0  0  0  0  2  0  0  0  0  0  0
  188.3850  177.9960  139.7980 C   0  0  0  0  0  0  0  0  0  0  0  0
  188.0830  179.1110  140.1950 O   0  0  0  0  0  0  0  0  0  0  0  0
  189.9990  175.9010  138.2230 C   0  0  0  0  0  0  0  0  0  0  0  0
  187.8970  177.5080  148.6910 C   0  0  0  0  0  3  0  0  0  0  0  0
  188.4320  178.3400  149.5210 N   0  0  0  0  0  2  0  0  0  0  0  0
  1  4  1  0  0  0  0
  2  5  1  0  0  0  0
  3  1  1  0  0  0  0
  3 18  2  0  0  0  0
  4  2  2  0  0  0  0
  4 10  1  0  0  0  0
  5 11  1  0  0  0  0
  5 17  2  0  0  0  0
  6 19  1  0  0  0  0
  7 14  1  6  0  0  0
  7 16  1  0  0  0  0
  7  2  1  0  0  0  0
  9  8  1  0  0  0  0
  9 11  1  0  0  0  0
 10 13  1  6  0  0  0
 10 12  1  0  0  0  0
 12 17  1  0  0  0  0
 15 14  1  0  0  0  0
 15  1  2  0  0  0  0
 16  9  2  0  0  0  0
 17 31  1  0  0  0  0
 18 13  1  0  0  0  0
 19  8  1  0  0  0  0
 20 16  1  0  0  0  0
 20 19  2  0  0  0  0
 21 23  1  1  0  0  0
 21 28  1  0  0  0  0
 22 30  2  0  0  0  0
 24 27  1  0  0  0  0
 25 15  1  1  0  0  0
 26 30  1  0  0  0  0
 26 21  1  0  0  0  0
 27 25  1  0  0  0  0
 28 29  2  0  0  0  0
 28 25  1  0  0  0  0
 30 24  1  0  0  0  0
 31 32  2  0  0  0  0
M  END
>  <MODEL>
2

>  <REMARK>
 VINA RESULT:     -11.3      2.840      5.978
  Name = 
  2 active torsions:
  status: ('A' for Active; 'I' for Inactive)
    1  A    between atoms: C_13  and  C_29
    2  A    between atoms: C_16  and  C_27
                            x       y       z     vdW  Elec       q    Type
                         _______ _______ _______ _____ _____    ______ ____

>  <TORSDO>
F 2

$$$$
=
 OpenBabel10272413143D

 32 37  0  0  1  0  0  0  0  0999 V2000
  184.9970  178.2490  143.5460 C   0  0  0  0  0  0  0  0  0  0  0  0
  187.3250  177.5800  144.0110 C   0  0  0  0  0  0  0  0  0  0  0  0
  183.6700  178.5030  144.1480 C   0  0  0  0  0  3  0  0  0  0  0  0
  186.1230  177.9670  144.4730 C   0  0  0  0  0  0  0  0  0  0  0  0
  188.4710  177.4150  144.9600 C   0  0  0  0  0  0  0  0  0  0  0  0
  191.8330  177.2980  139.9770 C   0  0  0  0  0  1  0  0  0  0  0  0
  187.4760  177.2680  142.5320 C   0  0  1  0  0  3  0  0  0  0  0  0
  191.0900  177.1100  142.3260 O   0  0  0  0  0  0  0  0  0  0  0  0
  189.9610  177.1260  142.9870 C   0  0  0  0  0  0  0  0  0  0  0  0
  185.8570  177.9600  145.9570 C   0  0  1  0  0  3  0  0  0  0  0  0
  189.8140  176.9240  144.4600 C   0  0  0  0  0  2  0  0  0  0  0  0
  187.0520  178.2110  146.6960 O   0  0  0  0  0  0  0  0  0  0  0  0
  184.7670  178.9650  146.3260 C   0  0  0  0  0  2  0  0  0  0  0  0
  186.6170  178.2090  141.6830 C   0  0  0  0  0  2  0  0  0  0  0  0
  185.2090  178.2890  142.2100 C   0  0  0  0  0  0  0  0  0  0  0  0
  188.9140  177.3060  142.1180 C   0  0  0  0  0  0  0  0  0  0  0  0
  188.3030  177.7590  146.2530 C   0  0  0  0  0  0  0  0  0  0  0  0
  183.5540  178.7930  145.4490 C   0  0  0  0  0  3  0  0  0  0  0  0
  190.8060  177.2640  141.0510 C   0  0  0  0  0  0  0  0  0  0  0  0
  189.4390  177.3790  140.8390 C   0  0  0  0  0  3  0  0  0  0  0  0
  183.6240  179.8930  139.0240 C   0  0  2  0  0  3  0  0  0  0  0  0
  180.3230  178.9240  140.3220 O   0  0  0  0  0  0  0  0  0  0  0  0
  184.1070  181.1770  138.8460 F   0  0  0  0  0  0  0  0  0  0  0  0
  182.1470  177.4420  139.9230 C   0  0  0  0  0  2  0  0  0  0  0  0
  184.1160  178.5020  141.1960 C   0  0  2  0  0  3  0  0  0  0  0  0
  182.2740  179.9580  139.5850 N   0  0  0  0  0  2  0  0  0  0  0  0
  183.1840  177.2880  141.0410 C   0  0  0  0  0  2  0  0  0  0  0  0
  184.5770  179.1050  139.8880 C   0  0  0  0  0  0  0  0  0  0  0  0
  185.7150  178.9150  139.4870 O   0  0  0  0  0  0  0  0  0  0  0  0
  181.5150  178.7970  139.9420 C   0  0  0  0  0  0  0  0  0  0  0  0
  189.4170  177.6990  147.2110 C   0  0  0  0  0  3  0  0  0  0  0  0
  189.2460  178.0380  148.4450 N   0  0  0  0  0  2  0  0  0  0  0  0
  1  3  1  0  0  0  0
  1  4  1  0  0  0  0
  2  4  2  0  0  0  0
  2  5  1  0  0  0  0
  3 18  2  0  0  0  0
  4 10  1  0  0  0  0
  5 17  2  0  0  0  0
  6 19  1  0  0  0  0
  7 14  1  6  0  0  0
  7  2  1  0  0  0  0
  8  9  1  0  0  0  0
  9 11  1  0  0  0  0
 10 13  1  6  0  0  0
 10 12  1  0  0  0  0
 11  5  1  0  0  0  0
 14 15  1  0  0  0  0
 15  1  2  0  0  0  0
 16  7  1  0  0  0  0
 16  9  2  0  0  0  0
 17 12  1  0  0  0  0
 17 31  1  0  0  0  0
 18 13  1  0  0  0  0
 19  8  1  0  0  0  0
 20 19  2  0  0  0  0
 20 16  1  0  0  0  0
 21 23  1  1  0  0  0
 21 26  1  0  0  0  0
 21 28  1  0  0  0  0
 24 30  1  0  0  0  0
 24 27  1  0  0  0  0
 25 15  1  6  0  0  0
 26 30  1  0  0  0  0
 27 25  1  0  0  0  0
 28 25  1  0  0  0  0
 29 28  2  0  0  0  0
 30 22  2  0  0  0  0
 31 32  2  0  0  0  0
M  END
>  <MODEL>
3

>  <REMARK>
 VINA RESULT:     -11.2      1.936      2.472
  Name = 
  2 active torsions:
  status: ('A' for Active; 'I' for Inactive)
    1  A    between atoms: C_13  and  C_29
    2  A    between atoms: C_16  and  C_27
                            x       y       z     vdW  Elec       q    Type
                         _______ _______ _______ _____ _____    ______ ____

>  <TORSDO>
F 2

$$$$
=
 OpenBabel10272413143D

 32 37  0  0  1  0  0  0  0  0999 V2000
  185.2070  178.3310  144.2920 C   0  0  0  0  0  0  0  0  0  0  0  0
  187.4660  177.8460  143.4290 C   0  0  0  0  0  0  0  0  0  0  0  0
  184.3540  178.3490  145.4990 C   0  0  0  0  0  3  0  0  0  0  0  0
  186.6500  178.0290  144.4810 C   0  0  0  0  0  0  0  0  0  0  0  0
  188.9360  177.6580  143.6490 C   0  0  0  0  0  0  0  0  0  0  0  0
  189.3670  178.6590  137.7360 C   0  0  0  0  0  1  0  0  0  0  0  0
  186.8650  177.7820  142.0350 C   0  0  1  0  0  3  0  0  0  0  0  0
  189.8970  178.0370  140.0680 O   0  0  0  0  0  0  0  0  0  0  0  0
  189.2480  177.8320  141.1850 C   0  0  0  0  0  0  0  0  0  0  0  0
  187.1590  177.7670  145.8750 C   0  0  1  0  0  3  0  0  0  0  0  0
  189.8570  177.3940  142.4760 C   0  0  0  0  0  2  0  0  0  0  0  0
  188.5590  178.0250  145.9690 O   0  0  0  0  0  0  0  0  0  0  0  0
  186.3840  178.5840  146.9070 C   0  0  0  0  0  2  0  0  0  0  0  0
  185.6830  178.7470  141.9050 C   0  0  0  0  0  2  0  0  0  0  0  0
  184.7250  178.5970  143.0560 C   0  0  0  0  0  0  0  0  0  0  0  0
  187.9040  178.0330  140.9880 C   0  0  0  0  0  0  0  0  0  0  0  0
  189.4300  177.7800  144.8980 C   0  0  0  0  0  0  0  0  0  0  0  0
  184.8970  178.4220  146.7190 C   0  0  0  0  0  3  0  0  0  0  0  0
  189.0120  178.3540  139.1470 C   0  0  0  0  0  0  0  0  0  0  0  0
  187.7210  178.3560  139.6550 C   0  0  0  0  0  3  0  0  0  0  0  0
  181.5940  178.8740  140.7400 C   0  0  2  0  0  3  0  0  0  0  0  0
  179.9820  180.8900  143.3590 O   0  0  0  0  0  0  0  0  0  0  0  0
  181.9710  179.2930  139.4770 F   0  0  0  0  0  0  0  0  0  0  0  0
  180.8560  178.6900  143.6420 C   0  0  0  0  0  2  0  0  0  0  0  0
  183.2690  178.8470  142.7630 C   0  0  2  0  0  3  0  0  0  0  0  0
  181.0090  180.0000  141.4690 N   0  0  0  0  0  2  0  0  0  0  0  0
  182.3490  178.5630  143.9620 C   0  0  0  0  0  2  0  0  0  0  0  0
  182.7790  178.2720  141.4520 C   0  0  0  0  0  0  0  0  0  0  0  0
  183.3060  177.2760  140.9800 O   0  0  0  0  0  0  0  0  0  0  0  0
  180.5700  179.9130  142.8300 C   0  0  0  0  0  0  0  0  0  0  0  0
  190.8730  177.6910  145.1610 C   0  0  0  0  0  3  0  0  0  0  0  0
  191.3330  176.8930  146.0660 N   0  0  0  0  0  2  0  0  0  0  0  0
  1  4  1  0  0  0  0
  1  3  1  0  0  0  0
  2  5  1  0  0  0  0
  2  4  2  0  0  0  0
  3 18  2  0  0  0  0
  4 10  1  0  0  0  0
  5 17  2  0  0  0  0
  6 19  1  0  0  0  0
  7 14  1  1  0  0  0
  7  2  1  0  0  0  0
  8  9  1  0  0  0  0
  9 11  1  0  0  0  0
 10 12  1  0  0  0  0
 10 13  1  1  0  0  0
 11  5  1  0  0  0  0
 14 15  1  0  0  0  0
 15  1  2  0  0  0  0
 16  9  2  0  0  0  0
 16  7  1  0  0  0  0
 17 31  1  0  0  0  0
 17 12  1  0  0  0  0
 18 13  1  0  0  0  0
 19 20  2  0  0  0  0
 19  8  1  0  0  0  0
 20 16  1  0  0  0  0
 21 23  1  6  0  0  0
 21 28  1  0  0  0  0
 21 26  1  0  0  0  0
 24 27  1  0  0  0  0
 25 15  1  1  0  0  0
 25 27  1  0  0  0  0
 26 30  1  0  0  0  0
 28 25  1  0  0  0  0
 29 28  2  0  0  0  0
 30 22  2  0  0  0  0
 30 24  1  0  0  0  0
 31 32  2  0  0  0  0
M  END
>  <MODEL>
4

>  <REMARK>
 VINA RESULT:     -11.0      1.924      2.686
  Name = 
  2 active torsions:
  status: ('A' for Active; 'I' for Inactive)
    1  A    between atoms: C_13  and  C_29
    2  A    between atoms: C_16  and  C_27
                            x       y       z     vdW  Elec       q    Type
                         _______ _______ _______ _____ _____    ______ ____

>  <TORSDO>
F 2

$$$$
=
 OpenBabel10272413143D

 32 37  0  0  1  0  0  0  0  0999 V2000
  186.7170  178.2050  145.0160 C   0  0  0  0  0  0  0  0  0  0  0  0
  185.5660  178.6850  142.8890 C   0  0  0  0  0  0  0  0  0  0  0  0
  186.5910  178.2270  146.4890 C   0  0  0  0  0  3  0  0  0  0  0  0
  185.5050  178.5360  144.2230 C   0  0  0  0  0  0  0  0  0  0  0  0
  184.3080  178.9030  142.1050 C   0  0  0  0  0  0  0  0  0  0  0  0
  187.7470  177.6540  137.3340 C   0  0  0  0  0  1  0  0  0  0  0  0
  186.9250  178.6800  142.2110 C   0  0  1  0  0  3  0  0  0  0  0  0
  185.8650  178.3840  138.7590 O   0  0  0  0  0  0  0  0  0  0  0  0
  185.6500  178.6270  140.0260 C   0  0  0  0  0  0  0  0  0  0  0  0
  184.2280  178.8650  144.9540 C   0  0  1  0  0  3  0  0  0  0  0  0
  184.3700  179.1300  140.6080 C   0  0  0  0  0  2  0  0  0  0  0  0
  183.0880  178.6310  144.1290 O   0  0  0  0  0  0  0  0  0  0  0  0
  184.1240  178.0820  146.2620 C   0  0  0  0  0  2  0  0  0  0  0  0
  187.8740  177.6930  142.8960 C   0  0  0  0  0  2  0  0  0  0  0  0
  187.8710  177.8790  144.3890 C   0  0  0  0  0  0  0  0  0  0  0  0
  186.7950  178.3980  140.7460 C   0  0  0  0  0  0  0  0  0  0  0  0
  183.1220  178.8420  142.7430 C   0  0  0  0  0  0  0  0  0  0  0  0
  185.3880  178.2150  147.0730 C   0  0  0  0  0  3  0  0  0  0  0  0
  187.1220  178.0140  138.6330 C   0  0  0  0  0  0  0  0  0  0  0  0
  187.7820  178.0160  139.8530 C   0  0  0  0  0  3  0  0  0  0  0  0
  191.7580  177.7210  144.7260 C   0  0  2  0  0  3  0  0  0  0  0  0
  191.3030  175.3450  147.4950 O   0  0  0  0  0  0  0  0  0  0  0  0
  192.3330  177.4680  143.4940 F   0  0  0  0  0  0  0  0  0  0  0  0
  190.3730  177.5370  147.3800 C   0  0  0  0  0  2  0  0  0  0  0  0
  189.1630  177.5950  145.1110 C   0  0  2  0  0  3  0  0  0  0  0  0
  191.7560  176.4930  145.5220 N   0  0  0  0  0  2  0  0  0  0  0  0
  189.0410  177.6960  146.6400 C   0  0  0  0  0  2  0  0  0  0  0  0
  190.3750  178.2930  144.5350 C   0  0  0  0  0  0  0  0  0  0  0  0
  190.2550  179.3610  143.9530 O   0  0  0  0  0  0  0  0  0  0  0  0
  191.1770  176.4030  146.8280 C   0  0  0  0  0  0  0  0  0  0  0  0
  181.8530  178.9630  142.0110 C   0  0  0  0  0  3  0  0  0  0  0  0
  180.8380  179.5610  142.5410 N   0  0  0  0  0  2  0  0  0  0  0  0
  1  3  1  0  0  0  0
  2  4  2  0  0  0  0
  3 18  2  0  0  0  0
  4 10  1  0  0  0  0
  4  1  1  0  0  0  0
  5 17  2  0  0  0  0
  5  2  1  0  0  0  0
  6 19  1  0  0  0  0
  7  2  1  0  0  0  0
  7 14  1  1  0  0  0
  8  9  1  0  0  0  0
  9 11  1  0  0  0  0
  9 16  2  0  0  0  0
 10 13  1  1  0  0  0
 11  5  1  0  0  0  0
 12 10  1  0  0  0  0
 13 18  1  0  0  0  0
 14 15  1  0  0  0  0
 15  1  2  0  0  0  0
 16  7  1  0  0  0  0
 17 12  1  0  0  0  0
 19  8  1  0  0  0  0
 19 20  2  0  0  0  0
 20 16  1  0  0  0  0
 21 23  1  6  0  0  0
 21 26  1  0  0  0  0
 25 15  1  6  0  0  0
 25 27  1  0  0  0  0
 26 30  1  0  0  0  0
 27 24  1  0  0  0  0
 28 21  1  0  0  0  0
 28 25  1  0  0  0  0
 29 28  2  0  0  0  0
 30 24  1  0  0  0  0
 30 22  2  0  0  0  0
 31 32  2  0  0  0  0
 31 17  1  0  0  0  0
M  END
>  <MODEL>
5

>  <REMARK>
 VINA RESULT:     -10.8      2.710      6.915
  Name = 
  2 active torsions:
  status: ('A' for Active; 'I' for Inactive)
    1  A    between atoms: C_13  and  C_29
    2  A    between atoms: C_16  and  C_27
                            x       y       z     vdW  Elec       q    Type
                         _______ _______ _______ _____ _____    ______ ____

>  <TORSDO>
F 2

$$$$
=
 OpenBabel10272413143D

 32 37  0  0  1  0  0  0  0  0999 V2000
  186.9280  178.0690  144.3670 C   0  0  0  0  0  0  0  0  0  0  0  0
  185.4280  178.6510  142.4980 C   0  0  0  0  0  0  0  0  0  0  0  0
  187.0690  178.0410  145.8390 C   0  0  0  0  0  3  0  0  0  0  0  0
  185.6030  178.4550  143.8160 C   0  0  0  0  0  0  0  0  0  0  0  0
  184.0570  178.9250  141.9610 C   0  0  0  0  0  0  0  0  0  0  0  0
  186.5450  177.7670  136.6110 C   0  0  0  0  0  1  0  0  0  0  0  0
  186.6420  178.6380  141.5860 C   0  0  1  0  0  3  0  0  0  0  0  0
  184.9710  178.4900  138.3750 O   0  0  0  0  0  0  0  0  0  0  0  0
  184.9940  178.6920  139.6660 C   0  0  0  0  0  0  0  0  0  0  0  0
  184.4880  178.7880  144.7750 C   0  0  1  0  0  3  0  0  0  0  0  0
  183.8550  179.2040  140.4860 C   0  0  0  0  0  2  0  0  0  0  0  0
  183.2120  178.6100  144.1630 O   0  0  0  0  0  0  0  0  0  0  0  0
  184.5980  177.9620  146.0560 C   0  0  0  0  0  2  0  0  0  0  0  0
  187.6700  177.6060  142.0580 C   0  0  0  0  0  2  0  0  0  0  0  0
  187.9410  177.7380  143.5320 C   0  0  0  0  0  0  0  0  0  0  0  0
  186.2430  178.4120  140.1610 C   0  0  0  0  0  0  0  0  0  0  0  0
  183.0030  178.8700  142.8010 C   0  0  0  0  0  0  0  0  0  0  0  0
  185.9900  178.0360  146.6290 C   0  0  0  0  0  3  0  0  0  0  0  0
  186.1730  178.0960  138.0130 C   0  0  0  0  0  0  0  0  0  0  0  0
  187.0410  178.0380  139.0940 C   0  0  0  0  0  3  0  0  0  0  0  0
  191.2110  175.6070  143.6050 C   0  0  2  0  0  3  0  0  0  0  0  0
  191.9820  177.1160  146.8690 O   0  0  0  0  0  0  0  0  0  0  0  0
  190.9210  174.2800  143.3460 F   0  0  0  0  0  0  0  0  0  0  0  0
  191.5830  178.3130  144.8460 C   0  0  0  0  0  2  0  0  0  0  0  0
  189.3320  177.3990  144.0000 C   0  0  2  0  0  3  0  0  0  0  0  0
  191.4340  175.7830  145.0400 N   0  0  0  0  0  2  0  0  0  0  0  0
  190.1250  178.6220  144.4880 C   0  0  0  0  0  2  0  0  0  0  0  0
  190.1040  176.4840  143.0750 C   0  0  0  0  0  0  0  0  0  0  0  0
  189.8760  176.4830  141.8750 O   0  0  0  0  0  0  0  0  0  0  0  0
  191.6980  177.0540  145.6450 C   0  0  0  0  0  0  0  0  0  0  0  0
  181.6270  179.0460  142.3140 C   0  0  0  0  0  3  0  0  0  0  0  0
  180.7880  179.7870  142.9570 N   0  0  0  0  0  2  0  0  0  0  0  0
  1  3  1  0  0  0  0
  2  4  2  0  0  0  0
  3 18  2  0  0  0  0
  4  1  1  0  0  0  0
  4 10  1  0  0  0  0
  5  2  1  0  0  0  0
  5 17  2  0  0  0  0
  6 19  1  0  0  0  0
  7 14  1  1  0  0  0
  7  2  1  0  0  0  0
  8  9  1  0  0  0  0
  9 16  2  0  0  0  0
  9 11  1  0  0  0  0
 10 13  1  1  0  0  0
 11  5  1  0  0  0  0
 12 10  1  0  0  0  0
 13 18  1  0  0  0  0
 14 15  1  0  0  0  0
 15  1  2  0  0  0  0
 16  7  1  0  0  0  0
 17 12  1  0  0  0  0
 19  8  1  0  0  0  0
 19 20  2  0  0  0  0
 20 16  1  0  0  0  0
 21 23  1  1  0  0  0
 21 26  1  0  0  0  0
 24 30  1  0  0  0  0
 25 15  1  6  0  0  0
 25 27  1  0  0  0  0
 26 30  1  0  0  0  0
 27 24  1  0  0  0  0
 28 21  1  0  0  0  0
 28 25  1  0  0  0  0
 29 28  2  0  0  0  0
 30 22  2  0  0  0  0
 31 17  1  0  0  0  0
 31 32  2  0  0  0  0
M  END
>  <MODEL>
6

>  <REMARK>
 VINA RESULT:     -10.6      2.623      7.032
  Name = 
  2 active torsions:
  status: ('A' for Active; 'I' for Inactive)
    1  A    between atoms: C_13  and  C_29
    2  A    between atoms: C_16  and  C_27
                            x       y       z     vdW  Elec       q    Type
                         _______ _______ _______ _____ _____    ______ ____

>  <TORSDO>
F 2

$$$$
=
 OpenBabel10272413143D

 32 37  0  0  1  0  0  0  0  0999 V2000
  187.1120  177.8890  140.2740 C   0  0  0  0  0  0  0  0  0  0  0  0
  187.0280  177.6970  142.7320 C   0  0  0  0  0  0  0  0  0  0  0  0
  186.3150  178.1470  139.0550 C   0  0  0  0  0  3  0  0  0  0  0  0
  186.4280  178.0540  141.5830 C   0  0  0  0  0  0  0  0  0  0  0  0
  186.3600  177.9830  144.0420 C   0  0  0  0  0  0  0  0  0  0  0  0
  191.7480  176.7460  146.4050 C   0  0  0  0  0  1  0  0  0  0  0  0
  188.3560  176.9630  142.6690 C   0  0  1  0  0  3  0  0  0  0  0  0
  189.3340  177.2070  146.1490 O   0  0  0  0  0  0  0  0  0  0  0  0
  188.4630  177.2840  145.1770 C   0  0  0  0  0  0  0  0  0  0  0  0
  184.9800  178.4750  141.5970 C   0  0  1  0  0  3  0  0  0  0  0  0
  186.9990  177.5350  145.3400 C   0  0  0  0  0  2  0  0  0  0  0  0
  184.6350  179.0930  142.8360 O   0  0  0  0  0  0  0  0  0  0  0  0
  184.6650  179.3990  140.4210 C   0  0  0  0  0  2  0  0  0  0  0  0
  189.2110  177.4760  141.5070 C   0  0  0  0  0  2  0  0  0  0  0  0
  188.4180  177.5370  140.2300 C   0  0  0  0  0  0  0  0  0  0  0  0
  189.0820  177.0510  143.9740 C   0  0  0  0  0  0  0  0  0  0  0  0
  185.2100  178.6880  144.0490 C   0  0  0  0  0  0  0  0  0  0  0  0
  185.1560  178.8100  139.1240 C   0  0  0  0  0  3  0  0  0  0  0  0
  190.5010  176.9190  145.6140 C   0  0  0  0  0  0  0  0  0  0  0  0
  190.4160  176.7880  144.2360 C   0  0  0  0  0  3  0  0  0  0  0  0
  189.3290  178.1880  136.4900 C   0  0  2  0  0  3  0  0  0  0  0  0
  190.7560  174.8020  136.3700 O   0  0  0  0  0  0  0  0  0  0  0  0
  188.2220  178.6530  135.8030 F   0  0  0  0  0  0  0  0  0  0  0  0
  191.3900  176.5220  137.8940 C   0  0  0  0  0  2  0  0  0  0  0  0
  189.1720  177.2840  138.9500 C   0  0  2  0  0  3  0  0  0  0  0  0
  189.5380  176.7750  136.1730 N   0  0  0  0  0  2  0  0  0  0  0  0
  190.5620  176.6660  139.1750 C   0  0  0  0  0  2  0  0  0  0  0  0
  189.1520  178.4340  137.9680 C   0  0  0  0  0  0  0  0  0  0  0  0
  189.0480  179.5850  138.3650 O   0  0  0  0  0  0  0  0  0  0  0  0
  190.5700  175.9800  136.7670 C   0  0  0  0  0  0  0  0  0  0  0  0
  184.5560  179.0700  145.3080 C   0  0  0  0  0  3  0  0  0  0  0  0
  183.2690  179.0770  145.4090 N   0  0  0  0  0  2  0  0  0  0  0  0
  1  4  1  0  0  0  0
  2  5  1  0  0  0  0
  3 18  2  0  0  0  0
  3  1  1  0  0  0  0
  4 10  1  0  0  0  0
  4  2  2  0  0  0  0
  5 17  2  0  0  0  0
  5 11  1  0  0  0  0
  7 14  1  6  0  0  0
  7  2  1  0  0  0  0
  7 16  1  0  0  0  0
  9 11  1  0  0  0  0
  9  8  1  0  0  0  0
 10 13  1  6  0  0  0
 10 12  1  0  0  0  0
 12 17  1  0  0  0  0
 15  1  2  0  0  0  0
 15 14  1  0  0  0  0
 16 20  1  0  0  0  0
 16  9  2  0  0  0  0
 17 31  1  0  0  0  0
 18 13  1  0  0  0  0
 19  8  1  0  0  0  0
 19  6  1  0  0  0  0
 20 19  2  0  0  0  0
 21 23  1  6  0  0  0
 21 28  1  0  0  0  0
 22 30  2  0  0  0  0
 24 27  1  0  0  0  0
 25 27  1  0  0  0  0
 25 15  1  1  0  0  0
 26 21  1  0  0  0  0
 26 30  1  0  0  0  0
 28 29  2  0  0  0  0
 28 25  1  0  0  0  0
 30 24  1  0  0  0  0
 31 32  2  0  0  0  0
M  END
>  <MODEL>
7

>  <REMARK>
 VINA RESULT:     -10.5      3.382      6.550
  Name = 
  2 active torsions:
  status: ('A' for Active; 'I' for Inactive)
    1  A    between atoms: C_13  and  C_29
    2  A    between atoms: C_16  and  C_27
                            x       y       z     vdW  Elec       q    Type
                         _______ _______ _______ _____ _____    ______ ____

>  <TORSDO>
F 2

$$$$
=
 OpenBabel10272413143D

 32 37  0  0  1  0  0  0  0  0999 V2000
  185.2700  178.5430  140.5850 C   0  0  0  0  0  0  0  0  0  0  0  0
  187.3950  178.2980  141.8110 C   0  0  0  0  0  0  0  0  0  0  0  0
  184.6620  178.7810  139.2580 C   0  0  0  0  0  3  0  0  0  0  0  0
  186.7450  178.3690  140.6380 C   0  0  0  0  0  0  0  0  0  0  0  0
  188.8640  178.0060  141.8330 C   0  0  0  0  0  0  0  0  0  0  0  0
  187.9940  177.0020  147.6970 C   0  0  0  0  0  1  0  0  0  0  0  0
  186.6270  178.5680  143.0940 C   0  0  1  0  0  3  0  0  0  0  0  0
  189.0630  177.3910  145.5040 O   0  0  0  0  0  0  0  0  0  0  0  0
  188.7020  177.7760  144.3070 C   0  0  0  0  0  0  0  0  0  0  0  0
  187.5290  178.4360  139.3520 C   0  0  1  0  0  3  0  0  0  0  0  0
  189.6190  177.9800  143.1460 C   0  0  0  0  0  2  0  0  0  0  0  0
  188.7720  177.7450  139.4700 O   0  0  0  0  0  0  0  0  0  0  0  0
  186.7130  177.8940  138.1800 C   0  0  0  0  0  2  0  0  0  0  0  0
  185.1970  178.0310  142.9990 C   0  0  0  0  0  2  0  0  0  0  0  0
  184.5350  178.4620  141.7180 C   0  0  0  0  0  0  0  0  0  0  0  0
  187.3500  178.0150  144.2810 C   0  0  0  0  0  0  0  0  0  0  0  0
  189.4900  177.7160  140.6740 C   0  0  0  0  0  0  0  0  0  0  0  0
  185.3440  178.5220  138.1370 C   0  0  0  0  0  3  0  0  0  0  0  0
  187.9870  177.3840  146.2610 C   0  0  0  0  0  0  0  0  0  0  0  0
  186.8620  177.7860  145.5560 C   0  0  0  0  0  3  0  0  0  0  0  0
  180.8930  178.2670  140.3260 C   0  0  2  0  0  3  0  0  0  0  0  0
  179.9820  180.9580  142.6610 O   0  0  0  0  0  0  0  0  0  0  0  0
  180.9060  178.3280  138.9450 F   0  0  0  0  0  0  0  0  0  0  0  0
  180.9620  178.8700  143.2640 C   0  0  0  0  0  2  0  0  0  0  0  0
  183.0470  178.6910  141.7670 C   0  0  2  0  0  3  0  0  0  0  0  0
  180.4910  179.5660  140.8660 N   0  0  0  0  0  2  0  0  0  0  0  0
  182.4900  178.7660  143.1980 C   0  0  0  0  0  2  0  0  0  0  0  0
  182.2420  177.8180  140.8300 C   0  0  0  0  0  0  0  0  0  0  0  0
  182.6510  176.7120  140.5110 O   0  0  0  0  0  0  0  0  0  0  0  0
  180.4340  179.8530  142.2680 C   0  0  0  0  0  0  0  0  0  0  0  0
  190.9100  177.3380  140.6460 C   0  0  0  0  0  3  0  0  0  0  0  0
  191.4840  177.0050  139.5380 N   0  0  0  0  0  2  0  0  0  0  0  0
  1  4  1  0  0  0  0
  1 15  2  0  0  0  0
  2  5  1  0  0  0  0
  2  7  1  0  0  0  0
  3  1  1  0  0  0  0
  4  2  2  0  0  0  0
  5 11  1  0  0  0  0
  7 14  1  6  0  0  0
  7 16  1  0  0  0  0
  8 19  1  0  0  0  0
  9  8  1  0  0  0  0
 10 13  1  6  0  0  0
 10 12  1  0  0  0  0
 10  4  1  0  0  0  0
 11  9  1  0  0  0  0
 12 17  1  0  0  0  0
 15 14  1  0  0  0  0
 16  9  2  0  0  0  0
 16 20  1  0  0  0  0
 17  5  2  0  0  0  0
 18 13  1  0  0  0  0
 18  3  2  0  0  0  0
 19  6  1  0  0  0  0
 20 19  2  0  0  0  0
 21 23  1  6  0  0  0
 21 28  1  0  0  0  0
 21 26  1  0  0  0  0
 25 15  1  1  0  0  0
 25 27  1  0  0  0  0
 26 30  1  0  0  0  0
 27 24  1  0  0  0  0
 28 25  1  0  0  0  0
 29 28  2  0  0  0  0
 30 22  2  0  0  0  0
 30 24  1  0  0  0  0
 31 17  1  0  0  0  0
 32 31  2  0  0  0  0
M  END
>  <MODEL>
8

>  <REMARK>
 VINA RESULT:     -10.3      2.544      5.318
  Name = 
  2 active torsions:
  status: ('A' for Active; 'I' for Inactive)
    1  A    between atoms: C_13  and  C_29
    2  A    between atoms: C_16  and  C_27
                            x       y       z     vdW  Elec       q    Type
                         _______ _______ _______ _____ _____    ______ ____

>  <TORSDO>
F 2

$$$$
=
 OpenBabel10272413143D

 32 37  0  0  1  0  0  0  0  0999 V2000
  189.3670  177.7540  143.0010 C   0  0  0  0  0  0  0  0  0  0  0  0
  187.7480  178.1840  144.8100 C   0  0  0  0  0  0  0  0  0  0  0  0
  190.7910  177.5050  142.6880 C   0  0  0  0  0  3  0  0  0  0  0  0
  188.9850  177.8150  144.4350 C   0  0  0  0  0  0  0  0  0  0  0  0
  187.3580  178.1240  146.2550 C   0  0  0  0  0  0  0  0  0  0  0  0
  181.7520  178.7580  144.1770 C   0  0  0  0  0  1  0  0  0  0  0  0
  186.7850  178.7030  143.7560 C   0  0  1  0  0  3  0  0  0  0  0  0
  183.7130  178.6410  145.6760 O   0  0  0  0  0  0  0  0  0  0  0  0
  185.0150  178.6040  145.5620 C   0  0  0  0  0  0  0  0  0  0  0  0
  190.0540  177.6170  145.4800 C   0  0  1  0  0  3  0  0  0  0  0  0
  185.9870  178.5910  146.6970 C   0  0  0  0  0  2  0  0  0  0  0  0
  189.4910  177.1760  146.7150 O   0  0  0  0  0  0  0  0  0  0  0  0
  191.1270  176.6460  144.9920 C   0  0  0  0  0  2  0  0  0  0  0  0
  186.9740  177.9620  142.4300 C   0  0  0  0  0  2  0  0  0  0  0  0
  188.4260  177.9010  142.0400 C   0  0  0  0  0  0  0  0  0  0  0  0
  185.3690  178.6290  144.2360 C   0  0  0  0  0  0  0  0  0  0  0  0
  188.2270  177.6030  147.1450 C   0  0  0  0  0  0  0  0  0  0  0  0
  191.6230  177.0310  143.6220 C   0  0  0  0  0  3  0  0  0  0  0  0
  183.2100  178.7000  144.4620 C   0  0  0  0  0  0  0  0  0  0  0  0
  184.2040  178.7130  143.4940 C   0  0  0  0  0  3  0  0  0  0  0  0
  190.5120  177.0010  138.8650 C   0  0  2  0  0  3  0  0  0  0  0  0
  188.8950  179.8210  137.1460 O   0  0  0  0  0  0  0  0  0  0  0  0
  191.8500  176.8790  139.1920 F   0  0  0  0  0  0  0  0  0  0  0  0
  187.7660  177.9950  138.1820 C   0  0  0  0  0  2  0  0  0  0  0  0
  188.7330  177.9190  140.5650 C   0  0  2  0  0  3  0  0  0  0  0  0
  190.2890  178.2900  138.2090 N   0  0  0  0  0  2  0  0  0  0  0  0
  187.4860  178.1040  139.6850 C   0  0  0  0  0  2  0  0  0  0  0  0
  189.6660  176.8220  140.1010 C   0  0  0  0  0  0  0  0  0  0  0  0
  189.7060  175.7530  140.6920 O   0  0  0  0  0  0  0  0  0  0  0  0
  188.9970  178.7500  137.7960 C   0  0  0  0  0  0  0  0  0  0  0  0
  187.8660  177.4410  148.5610 C   0  0  0  0  0  3  0  0  0  0  0  0
  188.3050  178.2630  149.4540 N   0  0  0  0  0  2  0  0  0  0  0  0
  1  4  1  0  0  0  0
  2  5  1  0  0  0  0
  3  1  1  0  0  0  0
  3 18  2  0  0  0  0
  4  2  2  0  0  0  0
  4 10  1  0  0  0  0
  5 11  1  0  0  0  0
  5 17  2  0  0  0  0
  6 19  1  0  0  0  0
  7 14  1  6  0  0  0
  7 16  1  0  0  0  0
  7  2  1  0  0  0  0
  9  8  1  0  0  0  0
  9 11  1  0  0  0  0
 10 13  1  6  0  0  0
 10 12  1  0  0  0  0
 12 17  1  0  0  0  0
 15 14  1  0  0  0  0
 15  1  2  0  0  0  0
 16  9  2  0  0  0  0
 17 31  1  0  0  0  0
 18 13  1  0  0  0  0
 19  8  1  0  0  0  0
 20 16  1  0  0  0  0
 20 19  2  0  0  0  0
 21 23  1  1  0  0  0
 21 28  1  0  0  0  0
 22 30  2  0  0  0  0
 24 27  1  0  0  0  0
 25 15  1  1  0  0  0
 26 21  1  0  0  0  0
 27 25  1  0  0  0  0
 28 25  1  0  0  0  0
 28 29  2  0  0  0  0
 30 24  1  0  0  0  0
 30 26  1  0  0  0  0
 31 32  2  0  0  0  0
M  END
>  <MODEL>
9

>  <REMARK>
 VINA RESULT:     -10.3      3.298      6.197
  Name = 
  2 active torsions:
  status: ('A' for Active; 'I' for Inactive)
    1  A    between atoms: C_13  and  C_29
    2  A    between atoms: C_16  and  C_27
                            x       y       z     vdW  Elec       q    Type
                         _______ _______ _______ _____ _____    ______ ____

>  <TORSDO>
F 2

$$$$
