=
 OpenBabel10272400323D

 31 34  0  0  1  0  0  0  0  0999 V2000
  184.9090  178.3380  144.5260 C   0  0  0  0  0  0  0  0  0  0  0  0
  188.4820  177.8140  143.3810 C   0  0  0  0  0  0  0  0  0  0  0  0
  189.1540  177.4780  144.5930 C   0  0  0  0  0  0  0  0  0  0  0  0
  189.4800  177.0360  146.8110 N   0  0  0  0  0  0  0  0  0  0  0  0
  187.0670  178.0920  143.3840 C   0  0  0  0  0  0  0  0  0  0  0  0
  184.2860  178.6480  143.3210 C   0  0  0  0  0  3  0  0  0  0  0  0
  188.5820  177.3710  145.8640 C   0  0  0  0  0  3  0  0  0  0  0  0
  188.4190  178.2150  140.9530 C   0  0  0  0  0  0  0  0  0  0  0  0
  184.1890  178.3000  145.6720 F   0  0  0  0  0  0  0  0  0  0  0  0
  191.5710  177.3490  142.6260 C   0  0  0  0  0  3  0  0  0  0  0  0
  190.6590  176.9170  146.1890 C   0  0  0  0  0  0  0  0  0  0  0  0
  187.0930  178.4590  141.0170 N   0  0  0  0  0  0  0  0  0  0  0  0
  189.1590  177.8870  142.1120 C   0  0  0  0  0  0  0  0  0  0  0  0
  186.2780  178.0650  144.5510 C   0  0  0  0  0  3  0  0  0  0  0  0
  191.8610  176.5690  146.8680 N   0  0  0  0  0  1  0  0  0  0  0  0
  186.4080  178.4120  142.1730 C   0  0  0  0  0  0  0  0  0  0  0  0
  185.0360  178.6850  142.1480 C   0  0  0  0  0  3  0  0  0  0  0  0
  190.4870  177.6760  141.8890 N   0  0  0  0  0  0  0  0  0  0  0  0
  191.6180  177.1120  143.9760 C   0  0  0  0  0  3  0  0  0  0  0  0
  190.5570  177.1660  144.8420 C   0  0  0  0  0  0  0  0  0  0  0  0
  189.0690  178.2760  139.6020 C   0  0  0  0  0  2  0  0  0  0  0  0
  186.9080  177.7730  137.6560 C   0  0  0  0  0  1  0  0  0  0  0  0
  189.7430  176.0340  139.1810 O   0  0  0  0  0  0  0  0  0  0  0  0
  188.9390  176.9620  138.8950 C   0  0  0  0  0  0  0  0  0  0  0  0
  187.9210  176.7520  137.9040 N   0  0  0  0  0  0  0  0  0  0  0  0
  188.5730  175.6840  135.7980 C   0  0  0  0  0  1  0  0  0  0  0  0
  187.8970  175.5010  137.1440 C   0  0  2  0  0  3  0  0  0  0  0  0
  186.4720  174.9940  136.9490 C   0  0  0  0  0  2  0  0  0  0  0  0
  186.3600  173.5440  137.2910 C   0  0  0  0  0  0  0  0  0  0  0  0
  185.0490  172.9860  137.7250 C   0  0  0  0  0  1  0  0  0  0  0  0
  187.3420  172.8190  137.2460 O   0  0  0  0  0  0  0  0  0  0  0  0
  1 14  1  0  0  0  0
  1  9  1  0  0  0  0
  2  5  1  0  0  0  0
  2  3  1  0  0  0  0
  3 20  1  0  0  0  0
  3  7  2  0  0  0  0
  5 14  2  0  0  0  0
  6  1  2  0  0  0  0
  7  4  1  0  0  0  0
  8 12  2  0  0  0  0
  8 13  1  0  0  0  0
 10 19  1  0  0  0  0
 11  4  2  0  0  0  0
 11 15  1  0  0  0  0
 12 16  1  0  0  0  0
 13  2  2  0  0  0  0
 16  5  1  0  0  0  0
 17 16  2  0  0  0  0
 17  6  1  0  0  0  0
 18 13  1  0  0  0  0
 18 10  2  0  0  0  0
 19 20  2  0  0  0  0
 20 11  1  0  0  0  0
 21  8  1  0  0  0  0
 22 25  1  0  0  0  0
 24 23  2  0  0  0  0
 24 21  1  0  0  0  0
 25 24  1  0  0  0  0
 27 26  1  6  0  0  0
 27 25  1  0  0  0  0
 28 27  1  0  0  0  0
 28 29  1  0  0  0  0
 29 30  1  0  0  0  0
 31 29  2  0  0  0  0
M  END
>  <MODEL>
1

>  <REMARK>
 VINA RESULT:      -9.5      0.000      0.000
  Name = 
  5 active torsions:
  status: ('A' for Active; 'I' for Inactive)
    1  A    between atoms: C_1  and  C_24
    2  A    between atoms: C_9  and  C_23
    3  A    between atoms: C_15  and  C_23
    4  A    between atoms: C_19  and  N_22
    5  A    between atoms: C_19  and  C_24
                            x       y       z     vdW  Elec       q    Type
                         _______ _______ _______ _____ _____    ______ ____

>  <TORSDO>
F 5

$$$$
=
 OpenBabel10272400323D

 31 34  0  0  1  0  0  0  0  0999 V2000
  184.7780  178.4180  143.9270 C   0  0  0  0  0  0  0  0  0  0  0  0
  188.4740  177.7540  143.4270 C   0  0  0  0  0  0  0  0  0  0  0  0
  188.9190  177.4480  144.7470 C   0  0  0  0  0  0  0  0  0  0  0  0
  188.8490  177.0840  147.0020 N   0  0  0  0  0  0  0  0  0  0  0  0
  187.0890  178.0700  143.1790 C   0  0  0  0  0  0  0  0  0  0  0  0
  184.3780  178.6970  142.6240 C   0  0  0  0  0  3  0  0  0  0  0  0
  188.1360  177.4050  145.9040 C   0  0  0  0  0  3  0  0  0  0  0  0
  188.8360  178.0620  141.0120 C   0  0  0  0  0  0  0  0  0  0  0  0
  183.8730  178.4450  144.9350 F   0  0  0  0  0  0  0  0  0  0  0  0
  191.6280  177.1770  143.2270 C   0  0  0  0  0  3  0  0  0  0  0  0
  190.1120  176.9090  146.5940 C   0  0  0  0  0  0  0  0  0  0  0  0
  187.5280  178.3430  140.8410 N   0  0  0  0  0  0  0  0  0  0  0  0
  189.3580  177.7590  142.2910 C   0  0  0  0  0  0  0  0  0  0  0  0
  186.1120  178.1090  144.1950 C   0  0  0  0  0  3  0  0  0  0  0  0
  191.1700  176.5550  147.4800 N   0  0  0  0  0  1  0  0  0  0  0  0
  186.6550  178.3600  141.8640 C   0  0  0  0  0  0  0  0  0  0  0  0
  185.3170  178.6680  141.5960 C   0  0  0  0  0  3  0  0  0  0  0  0
  190.6970  177.5040  142.3050 N   0  0  0  0  0  0  0  0  0  0  0  0
  191.4390  176.9910  144.5730 C   0  0  0  0  0  3  0  0  0  0  0  0
  190.2490  177.1080  145.2420 C   0  0  0  0  0  0  0  0  0  0  0  0
  189.7070  178.0510  139.7910 C   0  0  0  0  0  2  0  0  0  0  0  0
  188.9480  179.3980  137.2770 C   0  0  0  0  0  1  0  0  0  0  0  0
  188.7520  176.0930  138.8360 O   0  0  0  0  0  0  0  0  0  0  0  0
  189.0420  177.3100  138.6730 C   0  0  0  0  0  0  0  0  0  0  0  0
  188.7340  177.9620  137.4320 N   0  0  0  0  0  0  0  0  0  0  0  0
  189.0860  177.3160  135.0950 C   0  0  0  0  0  1  0  0  0  0  0  0
  188.1950  177.1810  136.3160 C   0  0  2  0  0  3  0  0  0  0  0  0
  186.7710  177.6050  135.9750 C   0  0  0  0  0  2  0  0  0  0  0  0
  185.7930  177.0830  136.9780 C   0  0  0  0  0  0  0  0  0  0  0  0
  185.2180  178.0030  137.9970 C   0  0  0  0  0  1  0  0  0  0  0  0
  185.4870  175.9010  136.9860 O   0  0  0  0  0  0  0  0  0  0  0  0
  1 14  1  0  0  0  0
  1  9  1  0  0  0  0
  2  3  1  0  0  0  0
  3 20  1  0  0  0  0
  3  7  2  0  0  0  0
  5  2  1  0  0  0  0
  5 14  2  0  0  0  0
  6  1  2  0  0  0  0
  7  4  1  0  0  0  0
  8 13  1  0  0  0  0
 10 19  1  0  0  0  0
 11  4  2  0  0  0  0
 11 15  1  0  0  0  0
 12  8  2  0  0  0  0
 12 16  1  0  0  0  0
 13 18  1  0  0  0  0
 13  2  2  0  0  0  0
 16  5  1  0  0  0  0
 17 16  2  0  0  0  0
 17  6  1  0  0  0  0
 18 10  2  0  0  0  0
 19 20  2  0  0  0  0
 20 11  1  0  0  0  0
 21  8  1  0  0  0  0
 22 25  1  0  0  0  0
 24 23  2  0  0  0  0
 24 21  1  0  0  0  0
 25 24  1  0  0  0  0
 27 26  1  6  0  0  0
 27 25  1  0  0  0  0
 28 27  1  0  0  0  0
 28 29  1  0  0  0  0
 29 31  2  0  0  0  0
 29 30  1  0  0  0  0
M  END
>  <MODEL>
2

>  <REMARK>
 VINA RESULT:      -9.4      1.474      1.639
  Name = 
  5 active torsions:
  status: ('A' for Active; 'I' for Inactive)
    1  A    between atoms: C_1  and  C_24
    2  A    between atoms: C_9  and  C_23
    3  A    between atoms: C_15  and  C_23
    4  A    between atoms: C_19  and  N_22
    5  A    between atoms: C_19  and  C_24
                            x       y       z     vdW  Elec       q    Type
                         _______ _______ _______ _____ _____    ______ ____

>  <TORSDO>
F 5

$$$$
=
 OpenBabel10272400323D

 31 34  0  0  1  0  0  0  0  0999 V2000
  190.4960  176.7920  145.8090 C   0  0  0  0  0  0  0  0  0  0  0  0
  187.8550  177.9650  143.3600 C   0  0  0  0  0  0  0  0  0  0  0  0
  186.7200  178.1740  144.1990 C   0  0  0  0  0  0  0  0  0  0  0  0
  185.4430  178.2710  146.0900 N   0  0  0  0  0  0  0  0  0  0  0  0
  189.1020  177.5080  143.9210 C   0  0  0  0  0  0  0  0  0  0  0  0
  191.5850  176.6130  144.9610 C   0  0  0  0  0  3  0  0  0  0  0  0
  186.6580  177.9880  145.5830 C   0  0  0  0  0  3  0  0  0  0  0  0
  188.9950  177.9780  141.1790 C   0  0  0  0  0  0  0  0  0  0  0  0
  190.6190  176.5400  147.1340 F   0  0  0  0  0  0  0  0  0  0  0  0
  185.4650  178.9500  141.4510 C   0  0  0  0  0  3  0  0  0  0  0  0
  184.6790  178.6480  145.0570 C   0  0  0  0  0  0  0  0  0  0  0  0
  190.1370  177.5560  141.7610 N   0  0  0  0  0  0  0  0  0  0  0  0
  187.8240  178.1980  141.9400 C   0  0  0  0  0  0  0  0  0  0  0  0
  189.2770  177.2330  145.2920 C   0  0  0  0  0  3  0  0  0  0  0  0
  183.3150  179.0290  145.2010 N   0  0  0  0  0  1  0  0  0  0  0  0
  190.2250  177.3150  143.0810 C   0  0  0  0  0  0  0  0  0  0  0  0
  191.4480  176.8740  143.6000 C   0  0  0  0  0  3  0  0  0  0  0  0
  186.7510  178.6160  141.2100 N   0  0  0  0  0  0  0  0  0  0  0  0
  184.8200  178.9590  142.6620 C   0  0  0  0  0  3  0  0  0  0  0  0
  185.3710  178.6200  143.8700 C   0  0  0  0  0  0  0  0  0  0  0  0
  189.0260  178.2340  139.7010 C   0  0  0  0  0  2  0  0  0  0  0  0
  186.8080  177.6850  137.8330 C   0  0  0  0  0  1  0  0  0  0  0  0
  189.8110  176.0580  139.1460 O   0  0  0  0  0  0  0  0  0  0  0  0
  188.9410  176.9470  138.9400 C   0  0  0  0  0  0  0  0  0  0  0  0
  187.8910  176.7180  137.9880 N   0  0  0  0  0  0  0  0  0  0  0  0
  188.5710  175.7670  135.8350 C   0  0  0  0  0  1  0  0  0  0  0  0
  187.9040  175.5020  137.1720 C   0  0  2  0  0  3  0  0  0  0  0  0
  186.4950  174.9600  136.9560 C   0  0  0  0  0  2  0  0  0  0  0  0
  186.4080  173.5130  137.3210 C   0  0  0  0  0  0  0  0  0  0  0  0
  185.0950  172.9250  137.7030 C   0  0  0  0  0  1  0  0  0  0  0  0
  187.4120  172.8180  137.3370 O   0  0  0  0  0  0  0  0  0  0  0  0
  1  9  1  0  0  0  0
  2  5  1  0  0  0  0
  2  3  1  0  0  0  0
  3  7  2  0  0  0  0
  5 14  2  0  0  0  0
  6  1  2  0  0  0  0
  7  4  1  0  0  0  0
  8 12  2  0  0  0  0
  8 13  1  0  0  0  0
 10 19  1  0  0  0  0
 11 15  1  0  0  0  0
 11  4  2  0  0  0  0
 12 16  1  0  0  0  0
 13  2  2  0  0  0  0
 14  1  1  0  0  0  0
 16 17  2  0  0  0  0
 16  5  1  0  0  0  0
 17  6  1  0  0  0  0
 18 10  2  0  0  0  0
 18 13  1  0  0  0  0
 19 20  2  0  0  0  0
 20  3  1  0  0  0  0
 20 11  1  0  0  0  0
 21  8  1  0  0  0  0
 22 25  1  0  0  0  0
 24 23  2  0  0  0  0
 24 21  1  0  0  0  0
 25 24  1  0  0  0  0
 27 26  1  6  0  0  0
 27 25  1  0  0  0  0
 28 27  1  0  0  0  0
 28 29  1  0  0  0  0
 29 31  2  0  0  0  0
 29 30  1  0  0  0  0
M  END
>  <MODEL>
3

>  <REMARK>
 VINA RESULT:      -9.3      1.868      4.105
  Name = 
  5 active torsions:
  status: ('A' for Active; 'I' for Inactive)
    1  A    between atoms: C_1  and  C_24
    2  A    between atoms: C_9  and  C_23
    3  A    between atoms: C_15  and  C_23
    4  A    between atoms: C_19  and  N_22
    5  A    between atoms: C_19  and  C_24
                            x       y       z     vdW  Elec       q    Type
                         _______ _______ _______ _____ _____    ______ ____

>  <TORSDO>
F 5

$$$$
=
 OpenBabel10272400323D

 31 34  0  0  1  0  0  0  0  0999 V2000
  188.9290  177.2650  145.9000 C   0  0  0  0  0  0  0  0  0  0  0  0
  186.8760  178.2280  142.8650 C   0  0  0  0  0  0  0  0  0  0  0  0
  185.5740  178.4200  143.4160 C   0  0  0  0  0  0  0  0  0  0  0  0
  183.8970  178.5330  144.9640 N   0  0  0  0  0  0  0  0  0  0  0  0
  187.9780  177.8480  143.7140 C   0  0  0  0  0  0  0  0  0  0  0  0
  190.1880  177.1010  145.3300 C   0  0  0  0  0  3  0  0  0  0  0  0
  185.2060  178.2850  144.7570 C   0  0  0  0  0  3  0  0  0  0  0  0
  188.4810  178.2070  141.0000 C   0  0  0  0  0  0  0  0  0  0  0  0
  188.7560  177.0690  147.2290 F   0  0  0  0  0  0  0  0  0  0  0  0
  184.9510  179.0360  140.4230 C   0  0  0  0  0  3  0  0  0  0  0  0
  183.3770  178.8370  143.7680 C   0  0  0  0  0  0  0  0  0  0  0  0
  189.4740  177.8580  141.8440 N   0  0  0  0  0  0  0  0  0  0  0  0
  187.1610  178.4050  141.4660 C   0  0  0  0  0  0  0  0  0  0  0  0
  187.8450  177.6330  145.1010 C   0  0  0  0  0  3  0  0  0  0  0  0
  182.0030  179.1640  143.5820 N   0  0  0  0  0  1  0  0  0  0  0  0
  189.2680  177.6720  143.1600 C   0  0  0  0  0  0  0  0  0  0  0  0
  190.3550  177.3040  143.9610 C   0  0  0  0  0  3  0  0  0  0  0  0
  186.2690  178.7480  140.4940 N   0  0  0  0  0  0  0  0  0  0  0  0
  184.0480  179.0620  141.4550 C   0  0  0  0  0  3  0  0  0  0  0  0
  184.3200  178.7940  142.7710 C   0  0  0  0  0  0  0  0  0  0  0  0
  188.8390  178.4080  139.5570 C   0  0  0  0  0  2  0  0  0  0  0  0
  186.9430  177.4770  137.4960 C   0  0  0  0  0  1  0  0  0  0  0  0
  189.9640  176.3390  139.2180 O   0  0  0  0  0  0  0  0  0  0  0  0
  189.0130  177.0900  138.8680 C   0  0  0  0  0  0  0  0  0  0  0  0
  188.1190  176.6770  137.8230 N   0  0  0  0  0  0  0  0  0  0  0  0
  189.3560  175.7000  135.9470 C   0  0  0  0  0  1  0  0  0  0  0  0
  188.3870  175.4400  137.0860 C   0  0  2  0  0  3  0  0  0  0  0  0
  187.1020  174.8210  136.5490 C   0  0  0  0  0  2  0  0  0  0  0  0
  186.8550  173.4740  137.1480 C   0  0  0  0  0  0  0  0  0  0  0  0
  185.5200  173.1530  137.7210 C   0  0  0  0  0  1  0  0  0  0  0  0
  187.7520  172.6460  137.1970 O   0  0  0  0  0  0  0  0  0  0  0  0
  1  9  1  0  0  0  0
  2  3  1  0  0  0  0
  2  5  1  0  0  0  0
  3  7  2  0  0  0  0
  5 14  1  0  0  0  0
  6  1  1  0  0  0  0
  7  4  1  0  0  0  0
  8 13  1  0  0  0  0
  8 12  2  0  0  0  0
 10 18  2  0  0  0  0
 10 19  1  0  0  0  0
 11  4  2  0  0  0  0
 12 16  1  0  0  0  0
 13  2  2  0  0  0  0
 14  1  2  0  0  0  0
 15 11  1  0  0  0  0
 16  5  2  0  0  0  0
 16 17  1  0  0  0  0
 17  6  2  0  0  0  0
 18 13  1  0  0  0  0
 19 20  2  0  0  0  0
 20  3  1  0  0  0  0
 20 11  1  0  0  0  0
 21  8  1  0  0  0  0
 22 25  1  0  0  0  0
 24 23  2  0  0  0  0
 24 21  1  0  0  0  0
 25 24  1  0  0  0  0
 27 26  1  6  0  0  0
 27 25  1  0  0  0  0
 28 27  1  0  0  0  0
 28 29  1  0  0  0  0
 29 31  2  0  0  0  0
 29 30  1  0  0  0  0
M  END
>  <MODEL>
4

>  <REMARK>
 VINA RESULT:      -8.9      1.807      4.317
  Name = 
  5 active torsions:
  status: ('A' for Active; 'I' for Inactive)
    1  A    between atoms: C_1  and  C_24
    2  A    between atoms: C_9  and  C_23
    3  A    between atoms: C_15  and  C_23
    4  A    between atoms: C_19  and  N_22
    5  A    between atoms: C_19  and  C_24
                            x       y       z     vdW  Elec       q    Type
                         _______ _______ _______ _____ _____    ______ ____

>  <TORSDO>
F 5

$$$$
=
 OpenBabel10272400323D

 31 34  0  0  1  0  0  0  0  0999 V2000
  189.9420  177.0530  146.7250 C   0  0  0  0  0  0  0  0  0  0  0  0
  187.5690  178.0350  143.9390 C   0  0  0  0  0  0  0  0  0  0  0  0
  186.3510  178.2840  144.6380 C   0  0  0  0  0  0  0  0  0  0  0  0
  184.8790  178.4860  146.3740 N   0  0  0  0  0  0  0  0  0  0  0  0
  188.7520  177.6310  144.6580 C   0  0  0  0  0  0  0  0  0  0  0  0
  191.1150  176.8340  146.0110 C   0  0  0  0  0  3  0  0  0  0  0  0
  186.1430  178.1860  146.0170 C   0  0  0  0  0  3  0  0  0  0  0  0
  188.9350  177.9230  141.8950 C   0  0  0  0  0  0  0  0  0  0  0  0
  189.9240  176.8880  148.0690 F   0  0  0  0  0  0  0  0  0  0  0  0
  185.3910  178.8680  141.7280 C   0  0  0  0  0  3  0  0  0  0  0  0
  184.2280  178.7870  145.2430 C   0  0  0  0  0  0  0  0  0  0  0  0
  190.0110  177.5530  142.6210 N   0  0  0  0  0  0  0  0  0  0  0  0
  187.6880  178.1760  142.5120 C   0  0  0  0  0  0  0  0  0  0  0  0
  188.7820  177.4460  146.0550 C   0  0  0  0  0  3  0  0  0  0  0  0
  182.8540  179.1600  145.2170 N   0  0  0  0  0  1  0  0  0  0  0  0
  189.9600  177.3980  143.9560 C   0  0  0  0  0  0  0  0  0  0  0  0
  191.1220  177.0060  144.6290 C   0  0  0  0  0  3  0  0  0  0  0  0
  186.6970  178.5340  141.6470 N   0  0  0  0  0  0  0  0  0  0  0  0
  184.6210  178.9460  142.8610 C   0  0  0  0  0  3  0  0  0  0  0  0
  185.0420  178.6910  144.1400 C   0  0  0  0  0  0  0  0  0  0  0  0
  189.1220  178.0840  140.4150 C   0  0  0  0  0  2  0  0  0  0  0  0
  189.7400  177.8880  137.5360 C   0  0  0  0  0  1  0  0  0  0  0  0
  190.4750  176.1430  140.6680 O   0  0  0  0  0  0  0  0  0  0  0  0
  190.0190  177.0130  139.8760 C   0  0  0  0  0  0  0  0  0  0  0  0
  190.3610  176.9660  138.4820 N   0  0  0  0  0  0  0  0  0  0  0  0
  192.7490  176.4920  138.2110 C   0  0  0  0  0  1  0  0  0  0  0  0
  191.3350  175.9800  138.0080 C   0  0  2  0  0  3  0  0  0  0  0  0
  191.1090  175.6350  136.5400 C   0  0  0  0  0  2  0  0  0  0  0  0
  190.3500  174.3560  136.3930 C   0  0  0  0  0  0  0  0  0  0  0  0
  189.7300  174.0100  135.0850 C   0  0  0  0  0  1  0  0  0  0  0  0
  190.2100  173.6070  137.3480 O   0  0  0  0  0  0  0  0  0  0  0  0
  1  9  1  0  0  0  0
  2  3  1  0  0  0  0
  2  5  1  0  0  0  0
  3  7  2  0  0  0  0
  5 14  2  0  0  0  0
  6  1  2  0  0  0  0
  7  4  1  0  0  0  0
  8 13  1  0  0  0  0
  8 12  2  0  0  0  0
 10 19  1  0  0  0  0
 11  4  2  0  0  0  0
 12 16  1  0  0  0  0
 13  2  2  0  0  0  0
 14  1  1  0  0  0  0
 15 11  1  0  0  0  0
 16 17  2  0  0  0  0
 16  5  1  0  0  0  0
 17  6  1  0  0  0  0
 18 10  2  0  0  0  0
 18 13  1  0  0  0  0
 19 20  2  0  0  0  0
 20  3  1  0  0  0  0
 20 11  1  0  0  0  0
 21  8  1  0  0  0  0
 22 25  1  0  0  0  0
 24 21  1  0  0  0  0
 24 23  2  0  0  0  0
 25 24  1  0  0  0  0
 27 26  1  6  0  0  0
 27 25  1  0  0  0  0
 28 27  1  0  0  0  0
 29 28  1  0  0  0  0
 29 31  2  0  0  0  0
 30 29  1  0  0  0  0
M  END
>  <MODEL>
5

>  <REMARK>
 VINA RESULT:      -8.9      2.517      4.669
  Name = 
  5 active torsions:
  status: ('A' for Active; 'I' for Inactive)
    1  A    between atoms: C_1  and  C_24
    2  A    between atoms: C_9  and  C_23
    3  A    between atoms: C_15  and  C_23
    4  A    between atoms: C_19  and  N_22
    5  A    between atoms: C_19  and  C_24
                            x       y       z     vdW  Elec       q    Type
                         _______ _______ _______ _____ _____    ______ ____

>  <TORSDO>
F 5

$$$$
=
 OpenBabel10272400323D

 31 34  0  0  1  0  0  0  0  0999 V2000
  190.6950  177.3000  141.3760 C   0  0  0  0  0  0  0  0  0  0  0  0
  187.5760  177.9410  143.4300 C   0  0  0  0  0  0  0  0  0  0  0  0
  188.0170  177.6790  144.7610 C   0  0  0  0  0  0  0  0  0  0  0  0
  189.4070  177.1240  146.4870 N   0  0  0  0  0  0  0  0  0  0  0  0
  188.4880  177.8120  142.3200 C   0  0  0  0  0  0  0  0  0  0  0  0
  190.2320  177.5780  140.0940 C   0  0  0  0  0  3  0  0  0  0  0  0
  189.3020  177.2960  145.1550 C   0  0  0  0  0  3  0  0  0  0  0  0
  185.8730  178.5980  141.7790 C   0  0  0  0  0  0  0  0  0  0  0  0
  191.9800  176.9180  141.5660 F   0  0  0  0  0  0  0  0  0  0  0  0
  185.0420  178.4070  145.3500 C   0  0  0  0  0  3  0  0  0  0  0  0
  188.1980  177.3890  146.9980 C   0  0  0  0  0  0  0  0  0  0  0  0
  186.7720  178.4660  140.7820 N   0  0  0  0  0  0  0  0  0  0  0  0
  186.2290  178.3460  143.1240 C   0  0  0  0  0  0  0  0  0  0  0  0
  189.8330  177.4180  142.4680 C   0  0  0  0  0  3  0  0  0  0  0  0
  187.9140  177.3150  148.3920 N   0  0  0  0  0  1  0  0  0  0  0  0
  188.0430  178.0860  141.0050 C   0  0  0  0  0  0  0  0  0  0  0  0
  188.9070  177.9690  139.9110 C   0  0  0  0  0  3  0  0  0  0  0  0
  185.2110  178.5140  144.0150 N   0  0  0  0  0  0  0  0  0  0  0  0
  185.9850  178.0530  146.2820 C   0  0  0  0  0  3  0  0  0  0  0  0
  187.2930  177.7350  146.0250 C   0  0  0  0  0  0  0  0  0  0  0  0
  184.4910  179.0510  141.4080 C   0  0  0  0  0  2  0  0  0  0  0  0
  182.9820  176.8920  140.0780 C   0  0  0  0  0  1  0  0  0  0  0  0
  184.8570  179.9150  139.2220 O   0  0  0  0  0  0  0  0  0  0  0  0
  184.3070  179.0220  139.9220 C   0  0  0  0  0  0  0  0  0  0  0  0
  183.5180  178.0000  139.2940 N   0  0  0  0  0  0  0  0  0  0  0  0
  181.7710  178.2510  137.5940 C   0  0  0  0  0  1  0  0  0  0  0  0
  183.2550  178.0690  137.8550 C   0  0  2  0  0  3  0  0  0  0  0  0
  183.7650  176.8260  137.1350 C   0  0  0  0  0  2  0  0  0  0  0  0
  185.0990  177.0700  136.5070 C   0  0  0  0  0  0  0  0  0  0  0  0
  186.3350  176.9630  137.3310 C   0  0  0  0  0  1  0  0  0  0  0  0
  185.1810  177.3860  135.3300 O   0  0  0  0  0  0  0  0  0  0  0  0
  1  9  1  0  0  0  0
  1 14  1  0  0  0  0
  2  3  1  0  0  0  0
  3  7  2  0  0  0  0
  3 20  1  0  0  0  0
  4 11  2  0  0  0  0
  5 14  2  0  0  0  0
  5  2  1  0  0  0  0
  6  1  2  0  0  0  0
  7  4  1  0  0  0  0
  8 13  1  0  0  0  0
 10 19  1  0  0  0  0
 11 15  1  0  0  0  0
 12 16  1  0  0  0  0
 12  8  2  0  0  0  0
 13  2  2  0  0  0  0
 13 18  1  0  0  0  0
 16  5  1  0  0  0  0
 17  6  1  0  0  0  0
 17 16  2  0  0  0  0
 18 10  2  0  0  0  0
 20 19  2  0  0  0  0
 20 11  1  0  0  0  0
 21  8  1  0  0  0  0
 23 24  2  0  0  0  0
 24 21  1  0  0  0  0
 25 24  1  0  0  0  0
 25 22  1  0  0  0  0
 27 26  1  1  0  0  0
 27 25  1  0  0  0  0
 28 27  1  0  0  0  0
 29 28  1  0  0  0  0
 29 30  1  0  0  0  0
 31 29  2  0  0  0  0
M  END
>  <MODEL>
6

>  <REMARK>
 VINA RESULT:      -8.8      2.968      4.715
  Name = 
  5 active torsions:
  status: ('A' for Active; 'I' for Inactive)
    1  A    between atoms: C_1  and  C_24
    2  A    between atoms: C_9  and  C_23
    3  A    between atoms: C_15  and  C_23
    4  A    between atoms: C_19  and  N_22
    5  A    between atoms: C_19  and  C_24
                            x       y       z     vdW  Elec       q    Type
                         _______ _______ _______ _____ _____    ______ ____

>  <TORSDO>
F 5

$$$$
=
 OpenBabel10272400323D

 31 34  0  0  1  0  0  0  0  0999 V2000
  184.6200  178.4950  145.8270 C   0  0  0  0  0  0  0  0  0  0  0  0
  186.9940  178.0570  142.9070 C   0  0  0  0  0  0  0  0  0  0  0  0
  188.1980  177.6310  143.5430 C   0  0  0  0  0  0  0  0  0  0  0  0
  189.6460  177.0250  145.2040 N   0  0  0  0  0  0  0  0  0  0  0  0
  185.8150  178.3340  143.6900 C   0  0  0  0  0  0  0  0  0  0  0  0
  183.4600  178.8940  145.1700 C   0  0  0  0  0  3  0  0  0  0  0  0
  188.3940  177.4290  144.9130 C   0  0  0  0  0  3  0  0  0  0  0  0
  185.6540  178.6380  140.9270 C   0  0  0  0  0  0  0  0  0  0  0  0
  184.6280  178.3730  147.1760 F   0  0  0  0  0  0  0  0  0  0  0  0
  189.1720  177.6480  140.5810 C   0  0  0  0  0  3  0  0  0  0  0  0
  190.3000  176.9520  144.0380 C   0  0  0  0  0  0  0  0  0  0  0  0
  184.5810  178.8770  141.7100 N   0  0  0  0  0  0  0  0  0  0  0  0
  186.8870  178.2240  141.4820 C   0  0  0  0  0  0  0  0  0  0  0  0
  185.7760  178.2200  145.0940 C   0  0  0  0  0  3  0  0  0  0  0  0
  191.6640  176.5540  143.9400 N   0  0  0  0  0  1  0  0  0  0  0  0
  184.6220  178.7440  143.0480 C   0  0  0  0  0  0  0  0  0  0  0  0
  183.4640  179.0180  143.7820 C   0  0  0  0  0  3  0  0  0  0  0  0
  187.8770  178.0290  140.5660 N   0  0  0  0  0  0  0  0  0  0  0  0
  189.9280  177.3110  141.6750 C   0  0  0  0  0  3  0  0  0  0  0  0
  189.5010  177.3010  142.9770 C   0  0  0  0  0  0  0  0  0  0  0  0
  185.4780  178.7980  139.4460 C   0  0  0  0  0  2  0  0  0  0  0  0
  183.0960  177.1320  138.9360 C   0  0  0  0  0  1  0  0  0  0  0  0
  184.0570  180.6620  139.0360 O   0  0  0  0  0  0  0  0  0  0  0  0
  184.1460  179.4080  139.1340 C   0  0  0  0  0  0  0  0  0  0  0  0
  182.9820  178.5880  138.9500 N   0  0  0  0  0  0  0  0  0  0  0  0
  180.8600  179.1330  140.0480 C   0  0  0  0  0  1  0  0  0  0  0  0
  181.6720  179.2180  138.7680 C   0  0  2  0  0  3  0  0  0  0  0  0
  180.9020  178.5820  137.6160 C   0  0  0  0  0  2  0  0  0  0  0  0
  181.0010  179.4090  136.3750 C   0  0  0  0  0  0  0  0  0  0  0  0
  180.7190  180.8690  136.4360 C   0  0  0  0  0  1  0  0  0  0  0  0
  181.2800  178.8890  135.3060 O   0  0  0  0  0  0  0  0  0  0  0  0
  1  9  1  0  0  0  0
  2  3  1  0  0  0  0
  2  5  1  0  0  0  0
  3  7  2  0  0  0  0
  5 14  1  0  0  0  0
  6  1  1  0  0  0  0
  7  4  1  0  0  0  0
  8 13  1  0  0  0  0
  8 12  2  0  0  0  0
 10 19  1  0  0  0  0
 11  4  2  0  0  0  0
 12 16  1  0  0  0  0
 13  2  2  0  0  0  0
 14  1  2  0  0  0  0
 15 11  1  0  0  0  0
 16  5  2  0  0  0  0
 16 17  1  0  0  0  0
 17  6  2  0  0  0  0
 18 10  2  0  0  0  0
 18 13  1  0  0  0  0
 19 20  2  0  0  0  0
 20  3  1  0  0  0  0
 20 11  1  0  0  0  0
 21  8  1  0  0  0  0
 22 25  1  0  0  0  0
 23 24  2  0  0  0  0
 24 21  1  0  0  0  0
 25 24  1  0  0  0  0
 27 25  1  0  0  0  0
 27 26  1  1  0  0  0
 28 27  1  0  0  0  0
 29 30  1  0  0  0  0
 29 28  1  0  0  0  0
 31 29  2  0  0  0  0
M  END
>  <MODEL>
7

>  <REMARK>
 VINA RESULT:      -8.8      3.551      4.571
  Name = 
  5 active torsions:
  status: ('A' for Active; 'I' for Inactive)
    1  A    between atoms: C_1  and  C_24
    2  A    between atoms: C_9  and  C_23
    3  A    between atoms: C_15  and  C_23
    4  A    between atoms: C_19  and  N_22
    5  A    between atoms: C_19  and  C_24
                            x       y       z     vdW  Elec       q    Type
                         _______ _______ _______ _____ _____    ______ ____

>  <TORSDO>
F 5

$$$$
=
 OpenBabel10272400323D

 31 34  0  0  1  0  0  0  0  0999 V2000
  184.7170  178.4100  145.7630 C   0  0  0  0  0  0  0  0  0  0  0  0
  186.7760  178.2380  142.5870 C   0  0  0  0  0  0  0  0  0  0  0  0
  188.0500  177.8070  143.0620 C   0  0  0  0  0  0  0  0  0  0  0  0
  189.6800  177.1350  144.5160 N   0  0  0  0  0  0  0  0  0  0  0  0
  185.6810  178.4270  143.5060 C   0  0  0  0  0  0  0  0  0  0  0  0
  183.4850  178.8170  145.2600 C   0  0  0  0  0  3  0  0  0  0  0  0
  188.3950  177.5200  144.3860 C   0  0  0  0  0  3  0  0  0  0  0  0
  185.2190  178.9100  140.8040 C   0  0  0  0  0  0  0  0  0  0  0  0
  184.8710  178.1970  147.0910 F   0  0  0  0  0  0  0  0  0  0  0  0
  188.7030  178.0510  140.0220 C   0  0  0  0  0  3  0  0  0  0  0  0
  190.2080  177.1590  143.2860 C   0  0  0  0  0  0  0  0  0  0  0  0
  184.2310  179.0640  141.7090 N   0  0  0  0  0  0  0  0  0  0  0  0
  186.5130  178.4970  141.1960 C   0  0  0  0  0  0  0  0  0  0  0  0
  185.7940  178.2190  144.8950 C   0  0  0  0  0  3  0  0  0  0  0  0
  191.5620  176.8090  143.0180 N   0  0  0  0  0  1  0  0  0  0  0  0
  184.4180  178.8430  143.0220 C   0  0  0  0  0  0  0  0  0  0  0  0
  183.3380  179.0330  143.8920 C   0  0  0  0  0  3  0  0  0  0  0  0
  187.4050  178.3930  140.1700 N   0  0  0  0  0  0  0  0  0  0  0  0
  189.5780  177.6640  141.0050 C   0  0  0  0  0  3  0  0  0  0  0  0
  189.2930  177.5540  142.3410 C   0  0  0  0  0  0  0  0  0  0  0  0
  184.8830  179.1630  139.3630 C   0  0  0  0  0  2  0  0  0  0  0  0
  182.3270  180.5390  138.8340 C   0  0  0  0  0  1  0  0  0  0  0  0
  183.7010  177.1490  138.9120 O   0  0  0  0  0  0  0  0  0  0  0  0
  183.6530  178.4080  138.9670 C   0  0  0  0  0  0  0  0  0  0  0  0
  182.4320  179.0950  138.6520 N   0  0  0  0  0  0  0  0  0  0  0  0
  180.8870  178.8270  136.7690 C   0  0  0  0  0  1  0  0  0  0  0  0
  181.2830  178.3380  138.1500 C   0  0  2  0  0  3  0  0  0  0  0  0
  180.0940  178.4350  139.1000 C   0  0  0  0  0  2  0  0  0  0  0  0
  180.3460  177.6780  140.3640 C   0  0  0  0  0  0  0  0  0  0  0  0
  180.4940  178.4140  141.6490 C   0  0  0  0  0  1  0  0  0  0  0  0
  180.4610  176.4620  140.3450 O   0  0  0  0  0  0  0  0  0  0  0  0
  1  9  1  0  0  0  0
  2  3  1  0  0  0  0
  2  5  1  0  0  0  0
  3  7  2  0  0  0  0
  5 14  1  0  0  0  0
  6  1  1  0  0  0  0
  7  4  1  0  0  0  0
  8 13  1  0  0  0  0
  8 12  2  0  0  0  0
 10 18  2  0  0  0  0
 10 19  1  0  0  0  0
 11  4  2  0  0  0  0
 12 16  1  0  0  0  0
 13  2  2  0  0  0  0
 14  1  2  0  0  0  0
 15 11  1  0  0  0  0
 16  5  2  0  0  0  0
 16 17  1  0  0  0  0
 17  6  2  0  0  0  0
 18 13  1  0  0  0  0
 19 20  2  0  0  0  0
 20  3  1  0  0  0  0
 20 11  1  0  0  0  0
 21  8  1  0  0  0  0
 23 24  2  0  0  0  0
 24 21  1  0  0  0  0
 25 22  1  0  0  0  0
 25 24  1  0  0  0  0
 27 26  1  6  0  0  0
 27 25  1  0  0  0  0
 27 28  1  0  0  0  0
 28 29  1  0  0  0  0
 29 30  1  0  0  0  0
 31 29  2  0  0  0  0
M  END
>  <MODEL>
8

>  <REMARK>
 VINA RESULT:      -8.8      3.390      4.646
  Name = 
  5 active torsions:
  status: ('A' for Active; 'I' for Inactive)
    1  A    between atoms: C_1  and  C_24
    2  A    between atoms: C_9  and  C_23
    3  A    between atoms: C_15  and  C_23
    4  A    between atoms: C_19  and  N_22
    5  A    between atoms: C_19  and  C_24
                            x       y       z     vdW  Elec       q    Type
                         _______ _______ _______ _____ _____    ______ ____

>  <TORSDO>
F 5

$$$$
=
 OpenBabel10272400323D

 31 34  0  0  1  0  0  0  0  0999 V2000
  190.5240  176.7280  144.8830 C   0  0  0  0  0  0  0  0  0  0  0  0
  187.6920  178.0530  142.7450 C   0  0  0  0  0  0  0  0  0  0  0  0
  186.6520  178.2650  143.6980 C   0  0  0  0  0  0  0  0  0  0  0  0
  185.5700  178.3340  145.7090 N   0  0  0  0  0  0  0  0  0  0  0  0
  188.9730  177.5440  143.1650 C   0  0  0  0  0  0  0  0  0  0  0  0
  191.5180  176.5470  143.9270 C   0  0  0  0  0  3  0  0  0  0  0  0
  186.7210  178.0360  145.0750 C   0  0  0  0  0  3  0  0  0  0  0  0
  188.6120  178.1070  140.4630 C   0  0  0  0  0  0  0  0  0  0  0  0
  190.7690  176.4290  146.1810 F   0  0  0  0  0  0  0  0  0  0  0  0
  185.1570  179.1660  141.1130 C   0  0  0  0  0  3  0  0  0  0  0  0
  184.7210  178.7660  144.7680 C   0  0  0  0  0  0  0  0  0  0  0  0
  189.7920  177.6350  140.9160 N   0  0  0  0  0  0  0  0  0  0  0  0
  187.5280  178.3330  141.3420 C   0  0  0  0  0  0  0  0  0  0  0  0
  189.2740  177.2190  144.5040 C   0  0  0  0  0  3  0  0  0  0  0  0
  183.3890  179.1790  145.0580 N   0  0  0  0  0  1  0  0  0  0  0  0
  190.0020  177.3480  142.2130 C   0  0  0  0  0  0  0  0  0  0  0  0
  191.2560  176.8570  142.5950 C   0  0  0  0  0  3  0  0  0  0  0  0
  186.4030  178.8040  140.7360 N   0  0  0  0  0  0  0  0  0  0  0  0
  184.6350  179.1520  142.3820 C   0  0  0  0  0  3  0  0  0  0  0  0
  185.2910  178.7580  143.5180 C   0  0  0  0  0  0  0  0  0  0  0  0
  188.5060  178.4110  138.9980 C   0  0  0  0  0  2  0  0  0  0  0  0
  186.9460  176.3870  137.5210 C   0  0  0  0  0  1  0  0  0  0  0  0
  190.4330  177.2790  138.1820 O   0  0  0  0  0  0  0  0  0  0  0  0
  189.1730  177.3430  138.1870 C   0  0  0  0  0  0  0  0  0  0  0  0
  188.4030  176.4030  137.4230 N   0  0  0  0  0  0  0  0  0  0  0  0
  188.1640  175.0080  135.4230 C   0  0  0  0  0  1  0  0  0  0  0  0
  189.0850  175.4490  136.5460 C   0  0  2  0  0  3  0  0  0  0  0  0
  189.5830  174.2350  137.3210 C   0  0  0  0  0  2  0  0  0  0  0  0
  191.0360  173.9910  137.0740 C   0  0  0  0  0  0  0  0  0  0  0  0
  191.4720  173.3450  135.8050 C   0  0  0  0  0  1  0  0  0  0  0  0
  191.8670  174.2890  137.9190 O   0  0  0  0  0  0  0  0  0  0  0  0
  1  9  1  0  0  0  0
  2  5  1  0  0  0  0
  2  3  1  0  0  0  0
  3  7  2  0  0  0  0
  5 14  2  0  0  0  0
  6  1  2  0  0  0  0
  7  4  1  0  0  0  0
  8 12  2  0  0  0  0
  8 13  1  0  0  0  0
 10 19  1  0  0  0  0
 11 15  1  0  0  0  0
 11  4  2  0  0  0  0
 12 16  1  0  0  0  0
 13  2  2  0  0  0  0
 14  1  1  0  0  0  0
 16 17  2  0  0  0  0
 16  5  1  0  0  0  0
 17  6  1  0  0  0  0
 18 10  2  0  0  0  0
 18 13  1  0  0  0  0
 19 20  2  0  0  0  0
 20  3  1  0  0  0  0
 20 11  1  0  0  0  0
 21  8  1  0  0  0  0
 23 24  2  0  0  0  0
 24 21  1  0  0  0  0
 25 22  1  0  0  0  0
 25 24  1  0  0  0  0
 27 26  1  6  0  0  0
 27 28  1  0  0  0  0
 27 25  1  0  0  0  0
 29 28  1  0  0  0  0
 29 31  2  0  0  0  0
 30 29  1  0  0  0  0
M  END
>  <MODEL>
9

>  <REMARK>
 VINA RESULT:      -8.4      2.397      4.536
  Name = 
  5 active torsions:
  status: ('A' for Active; 'I' for Inactive)
    1  A    between atoms: C_1  and  C_24
    2  A    between atoms: C_9  and  C_23
    3  A    between atoms: C_15  and  C_23
    4  A    between atoms: C_19  and  N_22
    5  A    between atoms: C_19  and  C_24
                            x       y       z     vdW  Elec       q    Type
                         _______ _______ _______ _____ _____    ______ ____

>  <TORSDO>
F 5

$$$$
