=
 OpenBabel10272401523D

 28 31  0  0  1  0  0  0  0  0999 V2000
  188.7430  177.7250  140.6720 C   0  0  0  0  0  0  0  0  0  0  0  0
  187.7700  178.3920  139.7190 C   0  0  2  0  0  3  0  0  0  0  0  0
  186.2180  178.7440  141.5040 C   0  0  1  0  0  3  0  0  0  0  0  0
  191.4530  175.9590  143.3600 O   0  0  0  0  0  1  0  0  0  0  0  0
  186.3850  178.1950  140.1590 N   0  0  0  0  0  2  0  0  0  0  0  0
  183.1260  179.1000  143.7120 C   0  0  0  0  0  1  0  0  0  0  0  0
  186.7880  177.9180  143.8440 C   0  0  0  0  0  0  0  0  0  0  0  0
  185.4340  178.3700  144.3590 C   0  0  2  0  0  3  0  0  0  0  0  0
  184.7660  178.5980  141.9290 C   0  0  0  0  0  2  0  0  0  0  0  0
  189.2910  176.9840  142.9370 C   0  0  0  0  0  0  0  0  0  0  0  0
  187.1350  178.0420  142.4800 C   0  0  0  0  0  0  0  0  0  0  0  0
  184.5940  179.1530  143.3340 C   0  0  1  0  0  3  0  0  0  0  0  0
  190.9100  176.7330  141.1490 C   0  0  0  0  0  3  0  0  0  0  0  0
  188.9200  176.8270  144.2760 C   0  0  0  0  0  3  0  0  0  0  0  0
  190.5510  176.5540  142.4880 C   0  0  0  0  0  0  0  0  0  0  0  0
  187.6780  177.2830  144.7210 C   0  0  0  0  0  3  0  0  0  0  0  0
  190.0180  177.3200  140.2500 C   0  0  0  0  0  3  0  0  0  0  0  0
  188.3900  177.5870  142.0300 C   0  0  0  0  0  0  0  0  0  0  0  0
  187.3580  176.8560  137.9500 O   0  0  0  0  0  0  0  0  0  0  0  0
  187.9200  177.9290  138.2970 C   0  0  0  0  0  0  0  0  0  0  0  0
  188.6990  178.6930  137.3040 C   0  0  0  0  0  0  0  0  0  0  0  0
  188.9230  179.9190  137.4870 O   0  0  0  0  0  0  0  0  0  0  0  0
  189.2070  178.0590  136.1340 N   0  0  0  0  0  1  0  0  0  0  0  0
  185.5460  179.1450  145.6770 C   0  0  0  0  0  2  0  0  0  0  0  0
  185.6860  178.2180  146.8750 C   0  0  0  0  0  2  0  0  0  0  0  0
  186.7070  178.7880  147.8360 C   0  0  0  0  0  2  0  0  0  0  0  0
  187.6370  177.6830  148.2930 C   0  0  0  0  0  2  0  0  0  0  0  0
  189.0600  178.2000  148.3160 C   0  0  0  0  0  1  0  0  0  0  0  0
  1 18  1  0  0  0  0
  2 20  1  6  0  0  0
  2  5  1  0  0  0  0
  2  1  1  0  0  0  0
  3  9  1  1  0  0  0
  3 11  1  0  0  0  0
  5  3  1  0  0  0  0
  7  8  1  0  0  0  0
  7 16  1  0  0  0  0
  8 24  1  1  0  0  0
  9 12  1  0  0  0  0
 10 14  1  0  0  0  0
 11  7  2  0  0  0  0
 12  6  1  1  0  0  0
 12  8  1  0  0  0  0
 13 15  2  0  0  0  0
 14 16  2  0  0  0  0
 15 10  1  0  0  0  0
 15  4  1  0  0  0  0
 17  1  2  0  0  0  0
 17 13  1  0  0  0  0
 18 11  1  0  0  0  0
 18 10  2  0  0  0  0
 19 20  2  0  0  0  0
 21 22  2  0  0  0  0
 21 20  1  0  0  0  0
 23 21  1  0  0  0  0
 24 25  1  0  0  0  0
 25 26  1  0  0  0  0
 26 27  1  0  0  0  0
 27 28  1  0  0  0  0
M  END
>  <MODEL>
1

>  <REMARK>
 VINA RESULT:      -9.3      0.000      0.000
  Name = 
  6 active torsions:
  status: ('A' for Active; 'I' for Inactive)
    1  A    between atoms: C_2  and  C_11
    2  A    between atoms: C_4  and  C_13
    3  A    between atoms: C_4  and  C_24
    4  A    between atoms: C_6  and  C_11
    5  A    between atoms: C_12  and  C_15
    6  A    between atoms: C_12  and  C_24
                            x       y       z     vdW  Elec       q    Type
                         _______ _______ _______ _____ _____    ______ ____

>  <TORSDO>
F 6

$$$$
=
 OpenBabel10272401523D

 28 31  0  0  1  0  0  0  0  0999 V2000
  184.6790  178.5470  142.0610 C   0  0  0  0  0  0  0  0  0  0  0  0
  184.8830  178.4300  140.5630 C   0  0  2  0  0  3  0  0  0  0  0  0
  187.1710  177.8200  140.8940 C   0  0  1  0  0  3  0  0  0  0  0  0
  184.1250  178.7770  146.2250 O   0  0  0  0  0  1  0  0  0  0  0  0
  186.2690  178.7360  140.1960 N   0  0  0  0  0  2  0  0  0  0  0  0
  190.9540  177.3660  140.6830 C   0  0  0  0  0  1  0  0  0  0  0  0
  188.1110  177.7080  143.2570 C   0  0  0  0  0  0  0  0  0  0  0  0
  189.4920  177.3830  142.7180 C   0  0  2  0  0  3  0  0  0  0  0  0
  188.6020  178.0970  140.4600 C   0  0  0  0  0  2  0  0  0  0  0  0
  185.5890  178.3850  144.3250 C   0  0  0  0  0  0  0  0  0  0  0  0
  187.0270  177.9730  142.3910 C   0  0  0  0  0  0  0  0  0  0  0  0
  189.5420  177.1570  141.1960 C   0  0  1  0  0  3  0  0  0  0  0  0
  183.2410  178.8890  143.9910 C   0  0  0  0  0  3  0  0  0  0  0  0
  186.6800  178.1640  145.1710 C   0  0  0  0  0  3  0  0  0  0  0  0
  184.3220  178.6860  144.8520 C   0  0  0  0  0  0  0  0  0  0  0  0
  187.9290  177.8370  144.6410 C   0  0  0  0  0  3  0  0  0  0  0  0
  183.4140  178.8140  142.6080 C   0  0  0  0  0  3  0  0  0  0  0  0
  185.7650  178.2980  142.9250 C   0  0  0  0  0  0  0  0  0  0  0  0
  184.3990  180.3440  139.2370 O   0  0  0  0  0  0  0  0  0  0  0  0
  183.9460  179.2950  139.7670 C   0  0  0  0  0  0  0  0  0  0  0  0
  182.5230  178.9480  139.5870 C   0  0  0  0  0  0  0  0  0  0  0  0
  181.6480  179.8540  139.6020 O   0  0  0  0  0  0  0  0  0  0  0  0
  182.1230  177.5950  139.3950 N   0  0  0  0  0  1  0  0  0  0  0  0
  190.1440  176.2130  143.4640 C   0  0  0  0  0  2  0  0  0  0  0  0
  191.5510  176.5490  143.9340 C   0  0  0  0  0  2  0  0  0  0  0  0
  191.4750  177.4150  145.1730 C   0  0  0  0  0  2  0  0  0  0  0  0
  191.5130  176.5350  146.4050 C   0  0  0  0  0  2  0  0  0  0  0  0
  190.2970  176.8150  147.2620 C   0  0  0  0  0  1  0  0  0  0  0  0
  1 17  2  0  0  0  0
  1 18  1  0  0  0  0
  2 20  1  6  0  0  0
  2  1  1  0  0  0  0
  3  9  1  6  0  0  0
  3 11  1  0  0  0  0
  5  2  1  0  0  0  0
  5  3  1  0  0  0  0
  7 16  1  0  0  0  0
  8  7  1  0  0  0  0
  8 24  1  1  0  0  0
  9 12  1  0  0  0  0
 10 15  1  0  0  0  0
 10 14  1  0  0  0  0
 11 18  1  0  0  0  0
 11  7  2  0  0  0  0
 12  6  1  6  0  0  0
 12  8  1  0  0  0  0
 13 15  2  0  0  0  0
 15  4  1  0  0  0  0
 16 14  2  0  0  0  0
 17 13  1  0  0  0  0
 18 10  2  0  0  0  0
 19 20  2  0  0  0  0
 21 22  2  0  0  0  0
 21 20  1  0  0  0  0
 23 21  1  0  0  0  0
 24 25  1  0  0  0  0
 25 26  1  0  0  0  0
 26 27  1  0  0  0  0
 27 28  1  0  0  0  0
M  END
>  <MODEL>
2

>  <REMARK>
 VINA RESULT:      -9.3      2.776      5.321
  Name = 
  6 active torsions:
  status: ('A' for Active; 'I' for Inactive)
    1  A    between atoms: C_2  and  C_11
    2  A    between atoms: C_4  and  C_13
    3  A    between atoms: C_4  and  C_24
    4  A    between atoms: C_6  and  C_11
    5  A    between atoms: C_12  and  C_15
    6  A    between atoms: C_12  and  C_24
                            x       y       z     vdW  Elec       q    Type
                         _______ _______ _______ _____ _____    ______ ____

>  <TORSDO>
F 6

$$$$
=
 OpenBabel10272401523D

 28 31  0  0  1  0  0  0  0  0999 V2000
  186.8250  178.4080  140.7320 C   0  0  0  0  0  0  0  0  0  0  0  0
  185.5270  179.1620  140.9470 C   0  0  2  0  0  3  0  0  0  0  0  0
  185.6920  178.8300  143.3090 C   0  0  1  0  0  3  0  0  0  0  0  0
  190.4710  176.3860  140.1800 O   0  0  0  0  0  1  0  0  0  0  0  0
  184.8270  178.6750  142.1410 N   0  0  0  0  0  2  0  0  0  0  0  0
  185.0540  178.1860  147.0160 C   0  0  0  0  0  1  0  0  0  0  0  0
  187.6530  177.5120  144.2580 C   0  0  0  0  0  0  0  0  0  0  0  0
  187.0860  177.6300  145.6600 C   0  0  2  0  0  3  0  0  0  0  0  0
  184.9390  178.3860  144.5540 C   0  0  0  0  0  2  0  0  0  0  0  0
  188.7250  177.1870  141.6680 C   0  0  0  0  0  0  0  0  0  0  0  0
  186.9640  178.0290  143.1390 C   0  0  0  0  0  0  0  0  0  0  0  0
  185.8430  178.5320  145.7680 C   0  0  1  0  0  3  0  0  0  0  0  0
  188.6140  177.6250  139.2860 C   0  0  0  0  0  3  0  0  0  0  0  0
  189.3780  176.6410  142.7780 C   0  0  0  0  0  3  0  0  0  0  0  0
  189.2730  177.0600  140.3810 C   0  0  0  0  0  0  0  0  0  0  0  0
  188.8420  176.7960  144.0570 C   0  0  0  0  0  3  0  0  0  0  0  0
  187.4040  178.2990  139.4590 C   0  0  0  0  0  3  0  0  0  0  0  0
  187.5050  177.8780  141.8470 C   0  0  0  0  0  0  0  0  0  0  0  0
  184.4170  180.1590  139.0950 O   0  0  0  0  0  0  0  0  0  0  0  0
  184.6040  179.1070  139.7620 C   0  0  0  0  0  0  0  0  0  0  0  0
  183.9200  177.8630  139.3610 C   0  0  0  0  0  0  0  0  0  0  0  0
  183.0660  177.3390  140.1250 O   0  0  0  0  0  0  0  0  0  0  0  0
  184.2110  177.2420  138.1130 N   0  0  0  0  0  1  0  0  0  0  0  0
  188.1500  178.0450  146.6820 C   0  0  0  0  0  2  0  0  0  0  0  0
  188.8120  176.8440  147.3390 C   0  0  0  0  0  2  0  0  0  0  0  0
  190.2320  177.1980  147.7240 C   0  0  0  0  0  2  0  0  0  0  0  0
  191.1850  176.6670  146.6750 C   0  0  0  0  0  2  0  0  0  0  0  0
  192.1740  175.7220  147.3230 C   0  0  0  0  0  1  0  0  0  0  0  0
  1  2  1  0  0  0  0
  1 18  1  0  0  0  0
  2 20  1  6  0  0  0
  2  5  1  0  0  0  0
  3  9  1  1  0  0  0
  4 15  1  0  0  0  0
  5  3  1  0  0  0  0
  7  8  1  0  0  0  0
  8 12  1  0  0  0  0
  8 24  1  1  0  0  0
  9 12  1  0  0  0  0
 10 18  2  0  0  0  0
 10 14  1  0  0  0  0
 11  3  1  0  0  0  0
 11  7  2  0  0  0  0
 12  6  1  1  0  0  0
 13 17  1  0  0  0  0
 13 15  2  0  0  0  0
 14 16  2  0  0  0  0
 15 10  1  0  0  0  0
 16  7  1  0  0  0  0
 17  1  2  0  0  0  0
 18 11  1  0  0  0  0
 19 20  2  0  0  0  0
 21 20  1  0  0  0  0
 21 22  2  0  0  0  0
 23 21  1  0  0  0  0
 24 25  1  0  0  0  0
 25 26  1  0  0  0  0
 27 28  1  0  0  0  0
 27 26  1  0  0  0  0
M  END
>  <MODEL>
3

>  <REMARK>
 VINA RESULT:      -9.2      2.153      3.331
  Name = 
  6 active torsions:
  status: ('A' for Active; 'I' for Inactive)
    1  A    between atoms: C_2  and  C_11
    2  A    between atoms: C_4  and  C_13
    3  A    between atoms: C_4  and  C_24
    4  A    between atoms: C_6  and  C_11
    5  A    between atoms: C_12  and  C_15
    6  A    between atoms: C_12  and  C_24
                            x       y       z     vdW  Elec       q    Type
                         _______ _______ _______ _____ _____    ______ ____

>  <TORSDO>
F 6

$$$$
=
 OpenBabel10272401523D

 28 31  0  0  1  0  0  0  0  0999 V2000
  183.7330  178.5300  141.5240 C   0  0  0  0  0  0  0  0  0  0  0  0
  184.8120  178.2640  140.4920 C   0  0  2  0  0  3  0  0  0  0  0  0
  186.4540  178.0660  142.2180 C   0  0  1  0  0  3  0  0  0  0  0  0
  180.7500  179.1780  144.4180 O   0  0  0  0  0  1  0  0  0  0  0  0
  186.1170  178.7370  140.9630 N   0  0  0  0  0  2  0  0  0  0  0  0
  189.6020  178.1900  144.3720 C   0  0  0  0  0  1  0  0  0  0  0  0
  185.7670  178.3930  144.6480 C   0  0  0  0  0  0  0  0  0  0  0  0
  187.2050  178.2260  145.1020 C   0  0  2  0  0  3  0  0  0  0  0  0
  187.8370  178.5090  142.6680 C   0  0  0  0  0  2  0  0  0  0  0  0
  183.0850  178.7910  143.8670 C   0  0  0  0  0  0  0  0  0  0  0  0
  185.4220  178.3760  143.2780 C   0  0  0  0  0  0  0  0  0  0  0  0
  188.1820  177.8250  143.9810 C   0  0  1  0  0  3  0  0  0  0  0  0
  181.4030  178.8760  142.1230 C   0  0  0  0  0  3  0  0  0  0  0  0
  183.4460  178.8490  145.2170 C   0  0  0  0  0  3  0  0  0  0  0  0
  181.7460  178.9520  143.4760 C   0  0  0  0  0  0  0  0  0  0  0  0
  184.7740  178.6600  145.6010 C   0  0  0  0  0  3  0  0  0  0  0  0
  182.3850  178.6600  141.1550 C   0  0  0  0  0  3  0  0  0  0  0  0
  184.0810  178.5620  142.8890 C   0  0  0  0  0  0  0  0  0  0  0  0
  184.5160  180.1210  139.0360 O   0  0  0  0  0  0  0  0  0  0  0  0
  184.5100  178.8670  139.1480 C   0  0  0  0  0  0  0  0  0  0  0  0
  184.2130  178.0350  137.9670 C   0  0  0  0  0  0  0  0  0  0  0  0
  183.0310  177.9440  137.5410 O   0  0  0  0  0  0  0  0  0  0  0  0
  185.2520  177.3290  137.2940 N   0  0  0  0  0  1  0  0  0  0  0  0
  187.3280  177.2730  146.2970 C   0  0  0  0  0  2  0  0  0  0  0  0
  187.5280  178.0210  147.6060 C   0  0  0  0  0  2  0  0  0  0  0  0
  188.9520  177.8290  148.0830 C   0  0  0  0  0  2  0  0  0  0  0  0
  189.5010  176.5350  147.5200 C   0  0  0  0  0  2  0  0  0  0  0  0
  191.0010  176.6520  147.3600 C   0  0  0  0  0  1  0  0  0  0  0  0
  1 18  1  0  0  0  0
  2 20  1  6  0  0  0
  2  5  1  0  0  0  0
  2  1  1  0  0  0  0
  3  9  1  1  0  0  0
  3 11  1  0  0  0  0
  5  3  1  0  0  0  0
  7  8  1  0  0  0  0
  7 16  1  0  0  0  0
  8 24  1  1  0  0  0
  9 12  1  0  0  0  0
 10 14  1  0  0  0  0
 11  7  2  0  0  0  0
 12  6  1  1  0  0  0
 12  8  1  0  0  0  0
 13 15  2  0  0  0  0
 14 16  2  0  0  0  0
 15 10  1  0  0  0  0
 15  4  1  0  0  0  0
 17  1  2  0  0  0  0
 17 13  1  0  0  0  0
 18 11  1  0  0  0  0
 18 10  2  0  0  0  0
 19 20  2  0  0  0  0
 21 20  1  0  0  0  0
 22 21  2  0  0  0  0
 23 21  1  0  0  0  0
 24 25  1  0  0  0  0
 25 26  1  0  0  0  0
 27 26  1  0  0  0  0
 28 27  1  0  0  0  0
M  END
>  <MODEL>
4

>  <REMARK>
 VINA RESULT:      -9.2      2.953      5.110
  Name = 
  6 active torsions:
  status: ('A' for Active; 'I' for Inactive)
    1  A    between atoms: C_2  and  C_11
    2  A    between atoms: C_4  and  C_13
    3  A    between atoms: C_4  and  C_24
    4  A    between atoms: C_6  and  C_11
    5  A    between atoms: C_12  and  C_15
    6  A    between atoms: C_12  and  C_24
                            x       y       z     vdW  Elec       q    Type
                         _______ _______ _______ _____ _____    ______ ____

>  <TORSDO>
F 6

$$$$
=
 OpenBabel10272401523D

 28 31  0  0  1  0  0  0  0  0999 V2000
  189.0700  177.8620  144.9190 C   0  0  0  0  0  0  0  0  0  0  0  0
  189.4980  178.0120  143.4720 C   0  0  2  0  0  3  0  0  0  0  0  0
  187.2260  178.3520  142.8070 C   0  0  1  0  0  3  0  0  0  0  0  0
  187.8600  177.5380  148.9340 O   0  0  0  0  0  1  0  0  0  0  0  0
  188.4360  177.5680  142.5620 N   0  0  0  0  0  2  0  0  0  0  0  0
  183.8510  178.3900  141.0260 C   0  0  0  0  0  1  0  0  0  0  0  0
  185.3800  178.2700  144.5580 C   0  0  0  0  0  0  0  0  0  0  0  0
  184.3220  178.4590  143.4860 C   0  0  2  0  0  3  0  0  0  0  0  0
  186.1500  177.9340  141.8170 C   0  0  0  0  0  2  0  0  0  0  0  0
  187.2870  177.8360  146.5920 C   0  0  0  0  0  0  0  0  0  0  0  0
  186.7490  178.1590  144.2290 C   0  0  0  0  0  0  0  0  0  0  0  0
  184.8850  178.7360  142.0810 C   0  0  1  0  0  3  0  0  0  0  0  0
  189.6020  177.6090  147.2770 C   0  0  0  0  0  3  0  0  0  0  0  0
  185.9250  177.9040  146.9010 C   0  0  0  0  0  3  0  0  0  0  0  0
  188.2440  177.6580  147.6040 C   0  0  0  0  0  0  0  0  0  0  0  0
  184.9820  178.1100  145.8930 C   0  0  0  0  0  3  0  0  0  0  0  0
  190.0130  177.7170  145.9480 C   0  0  0  0  0  3  0  0  0  0  0  0
  187.7020  177.9560  145.2450 C   0  0  0  0  0  0  0  0  0  0  0  0
  191.7470  177.9500  142.7030 O   0  0  0  0  0  0  0  0  0  0  0  0
  190.7750  177.2870  143.1510 C   0  0  0  0  0  0  0  0  0  0  0  0
  190.9190  175.8320  143.3480 C   0  0  0  0  0  0  0  0  0  0  0  0
  190.1000  175.0400  142.8120 O   0  0  0  0  0  0  0  0  0  0  0  0
  191.9800  175.3060  144.1400 N   0  0  0  0  0  1  0  0  0  0  0  0
  183.2870  179.5210  143.8770 C   0  0  0  0  0  2  0  0  0  0  0  0
  182.0300  178.9020  144.4700 C   0  0  0  0  0  2  0  0  0  0  0  0
  181.0420  178.6080  143.3620 C   0  0  0  0  0  2  0  0  0  0  0  0
  180.4500  179.9080  142.8580 C   0  0  0  0  0  2  0  0  0  0  0  0
  180.3370  179.8600  141.3500 C   0  0  0  0  0  1  0  0  0  0  0  0
  1 18  2  0  0  0  0
  1 17  1  0  0  0  0
  2 20  1  1  0  0  0
  2  1  1  0  0  0  0
  3  9  1  6  0  0  0
  3 11  1  0  0  0  0
  5  3  1  0  0  0  0
  5  2  1  0  0  0  0
  7 16  1  0  0  0  0
  8 24  1  1  0  0  0
  8  7  1  0  0  0  0
  9 12  1  0  0  0  0
 10 14  1  0  0  0  0
 10 15  2  0  0  0  0
 11  7  2  0  0  0  0
 11 18  1  0  0  0  0
 12  6  1  6  0  0  0
 12  8  1  0  0  0  0
 13 15  1  0  0  0  0
 15  4  1  0  0  0  0
 16 14  2  0  0  0  0
 17 13  2  0  0  0  0
 18 10  1  0  0  0  0
 19 20  2  0  0  0  0
 20 21  1  0  0  0  0
 21 23  1  0  0  0  0
 22 21  2  0  0  0  0
 24 25  1  0  0  0  0
 26 25  1  0  0  0  0
 27 26  1  0  0  0  0
 28 27  1  0  0  0  0
M  END
>  <MODEL>
5

>  <REMARK>
 VINA RESULT:      -8.8      2.773      5.437
  Name = 
  6 active torsions:
  status: ('A' for Active; 'I' for Inactive)
    1  A    between atoms: C_2  and  C_11
    2  A    between atoms: C_4  and  C_13
    3  A    between atoms: C_4  and  C_24
    4  A    between atoms: C_6  and  C_11
    5  A    between atoms: C_12  and  C_15
    6  A    between atoms: C_12  and  C_24
                            x       y       z     vdW  Elec       q    Type
                         _______ _______ _______ _____ _____    ______ ____

>  <TORSDO>
F 6

$$$$
=
 OpenBabel10272401523D

 28 31  0  0  1  0  0  0  0  0999 V2000
  188.2390  177.7610  145.8230 C   0  0  0  0  0  0  0  0  0  0  0  0
  189.7130  177.4080  145.8640 C   0  0  2  0  0  3  0  0  0  0  0  0
  189.7910  177.3370  143.4750 C   0  0  1  0  0  3  0  0  0  0  0  0
  184.1720  178.8240  145.6720 O   0  0  0  0  0  1  0  0  0  0  0  0
  190.0910  176.5990  144.7010 N   0  0  0  0  0  2  0  0  0  0  0  0
  190.4680  176.5130  139.8110 C   0  0  0  0  0  1  0  0  0  0  0  0
  187.6690  177.7700  142.1360 C   0  0  0  0  0  0  0  0  0  0  0  0
  188.4030  177.4920  140.8380 C   0  0  2  0  0  3  0  0  0  0  0  0
  190.2460  176.5220  142.2750 C   0  0  0  0  0  2  0  0  0  0  0  0
  186.2230  178.2220  144.5170 C   0  0  0  0  0  0  0  0  0  0  0  0
  188.3110  177.6380  143.3870 C   0  0  0  0  0  0  0  0  0  0  0  0
  189.9200  177.2810  140.9990 C   0  0  1  0  0  3  0  0  0  0  0  0
  186.1760  178.4080  146.9340 C   0  0  0  0  0  3  0  0  0  0  0  0
  185.5870  178.3070  143.2750 C   0  0  0  0  0  3  0  0  0  0  0  0
  185.5180  178.4830  145.7040 C   0  0  0  0  0  0  0  0  0  0  0  0
  186.3010  178.0750  142.0990 C   0  0  0  0  0  3  0  0  0  0  0  0
  187.5260  178.0570  146.9950 C   0  0  0  0  0  3  0  0  0  0  0  0
  187.5930  177.8770  144.5750 C   0  0  0  0  0  0  0  0  0  0  0  0
  189.2190  176.2270  147.8680 O   0  0  0  0  0  0  0  0  0  0  0  0
  190.1200  176.7010  147.1260 C   0  0  0  0  0  0  0  0  0  0  0  0
  191.5350  176.5470  147.5150 C   0  0  0  0  0  0  0  0  0  0  0  0
  192.0530  177.3490  148.3360 O   0  0  0  0  0  0  0  0  0  0  0  0
  192.3270  175.4950  146.9730 N   0  0  0  0  0  1  0  0  0  0  0  0
  188.1110  178.5530  139.7700 C   0  0  0  0  0  2  0  0  0  0  0  0
  187.2380  178.0100  138.6490 C   0  0  0  0  0  2  0  0  0  0  0  0
  187.6130  178.6850  137.3470 C   0  0  0  0  0  2  0  0  0  0  0  0
  189.1180  178.6650  137.1860 C   0  0  0  0  0  2  0  0  0  0  0  0
  189.5190  177.4770  136.3380 C   0  0  0  0  0  1  0  0  0  0  0  0
  1  2  1  0  0  0  0
  1 17  1  0  0  0  0
  2 20  1  1  0  0  0
  3  9  1  6  0  0  0
  3  5  1  0  0  0  0
  4 15  1  0  0  0  0
  5  2  1  0  0  0  0
  7 11  2  0  0  0  0
  8 24  1  6  0  0  0
  8 12  1  0  0  0  0
  8  7  1  0  0  0  0
 10 18  1  0  0  0  0
 10 15  2  0  0  0  0
 11  3  1  0  0  0  0
 11 18  1  0  0  0  0
 12  6  1  6  0  0  0
 12  9  1  0  0  0  0
 13 17  2  0  0  0  0
 14 10  1  0  0  0  0
 15 13  1  0  0  0  0
 16  7  1  0  0  0  0
 16 14  2  0  0  0  0
 18  1  2  0  0  0  0
 20 21  1  0  0  0  0
 20 19  2  0  0  0  0
 21 22  2  0  0  0  0
 23 21  1  0  0  0  0
 25 24  1  0  0  0  0
 26 25  1  0  0  0  0
 27 26  1  0  0  0  0
 28 27  1  0  0  0  0
M  END
>  <MODEL>
6

>  <REMARK>
 VINA RESULT:      -8.7      3.440      7.622
  Name = 
  6 active torsions:
  status: ('A' for Active; 'I' for Inactive)
    1  A    between atoms: C_2  and  C_11
    2  A    between atoms: C_4  and  C_13
    3  A    between atoms: C_4  and  C_24
    4  A    between atoms: C_6  and  C_11
    5  A    between atoms: C_12  and  C_15
    6  A    between atoms: C_12  and  C_24
                            x       y       z     vdW  Elec       q    Type
                         _______ _______ _______ _____ _____    ______ ____

>  <TORSDO>
F 6

$$$$
=
 OpenBabel10272401523D

 28 31  0  0  1  0  0  0  0  0999 V2000
  189.1070  177.0850  142.3850 C   0  0  0  0  0  0  0  0  0  0  0  0
  189.4550  176.5040  143.7420 C   0  0  2  0  0  3  0  0  0  0  0  0
  187.3470  177.2140  144.6180 C   0  0  1  0  0  3  0  0  0  0  0  0
  188.0750  178.6320  138.6120 O   0  0  0  0  0  1  0  0  0  0  0  0
  188.7960  177.2500  144.8180 N   0  0  0  0  0  2  0  0  0  0  0  0
  184.4780  178.5340  146.7600 C   0  0  0  0  0  1  0  0  0  0  0  0
  185.7280  178.4840  143.1190 C   0  0  0  0  0  0  0  0  0  0  0  0
  184.7590  178.6600  144.2740 C   0  0  2  0  0  3  0  0  0  0  0  0
  186.6640  177.9320  145.7720 C   0  0  0  0  0  2  0  0  0  0  0  0
  187.5180  178.2630  140.9480 C   0  0  0  0  0  0  0  0  0  0  0  0
  186.9780  177.8520  143.2970 C   0  0  0  0  0  0  0  0  0  0  0  0
  185.1590  177.9100  145.5570 C   0  0  1  0  0  3  0  0  0  0  0  0
  189.6060  177.4390  140.0330 C   0  0  0  0  0  3  0  0  0  0  0  0
  186.2960  178.9250  140.7940 C   0  0  0  0  0  3  0  0  0  0  0  0
  188.3960  178.1170  139.8620 C   0  0  0  0  0  0  0  0  0  0  0  0
  185.4150  179.0410  141.8710 C   0  0  0  0  0  3  0  0  0  0  0  0
  189.9570  176.9210  141.2800 C   0  0  0  0  0  3  0  0  0  0  0  0
  187.8660  177.7300  142.2110 C   0  0  0  0  0  0  0  0  0  0  0  0
  191.5850  175.4640  143.5500 O   0  0  0  0  0  0  0  0  0  0  0  0
  190.9350  176.4440  144.0010 C   0  0  0  0  0  0  0  0  0  0  0  0
  191.6390  177.4950  144.7590 C   0  0  0  0  0  0  0  0  0  0  0  0
  191.9860  177.2850  145.9520 O   0  0  0  0  0  0  0  0  0  0  0  0
  191.9370  178.7510  144.1580 N   0  0  0  0  0  1  0  0  0  0  0  0
  183.3170  178.3250  143.8740 C   0  0  0  0  0  2  0  0  0  0  0  0
  182.4320  179.5610  143.8410 C   0  0  0  0  0  2  0  0  0  0  0  0
  181.1750  179.2600  143.0530 C   0  0  0  0  0  2  0  0  0  0  0  0
  181.5520  178.8270  141.6520 C   0  0  0  0  0  2  0  0  0  0  0  0
  180.4710  177.9250  141.0960 C   0  0  0  0  0  1  0  0  0  0  0  0
  1  2  1  0  0  0  0
  2 20  1  1  0  0  0
  2  5  1  0  0  0  0
  3  5  1  0  0  0  0
  3  9  1  1  0  0  0
  4 15  1  0  0  0  0
  7 11  1  0  0  0  0
  7  8  1  0  0  0  0
  8 24  1  6  0  0  0
  8 12  1  0  0  0  0
 10 18  1  0  0  0  0
 11  3  1  0  0  0  0
 12  9  1  0  0  0  0
 12  6  1  1  0  0  0
 13 17  1  0  0  0  0
 14 10  2  0  0  0  0
 14 16  1  0  0  0  0
 15 13  2  0  0  0  0
 15 10  1  0  0  0  0
 16  7  2  0  0  0  0
 17  1  2  0  0  0  0
 18  1  1  0  0  0  0
 18 11  2  0  0  0  0
 19 20  2  0  0  0  0
 20 21  1  0  0  0  0
 21 22  2  0  0  0  0
 23 21  1  0  0  0  0
 25 24  1  0  0  0  0
 26 25  1  0  0  0  0
 27 26  1  0  0  0  0
 28 27  1  0  0  0  0
M  END
>  <MODEL>
7

>  <REMARK>
 VINA RESULT:      -8.6      2.368      5.445
  Name = 
  6 active torsions:
  status: ('A' for Active; 'I' for Inactive)
    1  A    between atoms: C_2  and  C_11
    2  A    between atoms: C_4  and  C_13
    3  A    between atoms: C_4  and  C_24
    4  A    between atoms: C_6  and  C_11
    5  A    between atoms: C_12  and  C_15
    6  A    between atoms: C_12  and  C_24
                            x       y       z     vdW  Elec       q    Type
                         _______ _______ _______ _____ _____    ______ ____

>  <TORSDO>
F 6

$$$$
=
 OpenBabel10272401523D

 28 31  0  0  1  0  0  0  0  0999 V2000
  190.2640  177.2430  139.5060 C   0  0  0  0  0  0  0  0  0  0  0  0
  191.5410  176.6890  140.1080 C   0  0  2  0  0  3  0  0  0  0  0  0
  190.5990  176.8250  142.3020 C   0  0  1  0  0  3  0  0  0  0  0  0
  186.6780  178.7020  137.8620 O   0  0  0  0  0  1  0  0  0  0  0  0
  191.7430  177.1950  141.4690 N   0  0  0  0  0  2  0  0  0  0  0  0
  189.9410  177.3010  146.0300 C   0  0  0  0  0  1  0  0  0  0  0  0
  188.2460  177.7500  142.6020 C   0  0  0  0  0  0  0  0  0  0  0  0
  188.3640  177.6260  144.1100 C   0  0  2  0  0  3  0  0  0  0  0  0
  190.8430  177.2940  143.7270 C   0  0  0  0  0  2  0  0  0  0  0  0
  187.9890  178.0830  139.8120 C   0  0  0  0  0  0  0  0  0  0  0  0
  189.3260  177.4270  141.7510 C   0  0  0  0  0  0  0  0  0  0  0  0
  189.6480  176.9240  144.5910 C   0  0  1  0  0  3  0  0  0  0  0  0
  188.9040  177.8340  137.5810 C   0  0  0  0  0  3  0  0  0  0  0  0
  186.9420  178.4410  140.6680 C   0  0  0  0  0  3  0  0  0  0  0  0
  187.8520  178.2110  138.4200 C   0  0  0  0  0  0  0  0  0  0  0  0
  187.0740  178.2830  142.0480 C   0  0  0  0  0  3  0  0  0  0  0  0
  190.0970  177.3480  138.1170 C   0  0  0  0  0  3  0  0  0  0  0  0
  189.1930  177.5810  140.3570 C   0  0  0  0  0  0  0  0  0  0  0  0
  193.5090  177.9280  139.6110 O   0  0  0  0  0  0  0  0  0  0  0  0
  192.7610  176.9700  139.2770 C   0  0  0  0  0  0  0  0  0  0  0  0
  193.1050  176.1600  138.0930 C   0  0  0  0  0  0  0  0  0  0  0  0
  192.7270  174.9610  138.0200 O   0  0  0  0  0  0  0  0  0  0  0  0
  193.8610  176.7190  137.0230 N   0  0  0  0  0  1  0  0  0  0  0  0
  187.1230  176.9780  144.7350 C   0  0  0  0  0  2  0  0  0  0  0  0
  186.6510  177.7250  145.9730 C   0  0  0  0  0  2  0  0  0  0  0  0
  185.9540  179.0020  145.5550 C   0  0  0  0  0  2  0  0  0  0  0  0
  184.4550  178.7890  145.5850 C   0  0  0  0  0  2  0  0  0  0  0  0
  183.9160  178.7970  144.1700 C   0  0  0  0  0  1  0  0  0  0  0  0
  1  2  1  0  0  0  0
  1 18  1  0  0  0  0
  2 20  1  6  0  0  0
  2  5  1  0  0  0  0
  3  9  1  1  0  0  0
  4 15  1  0  0  0  0
  5  3  1  0  0  0  0
  7  8  1  0  0  0  0
  8 12  1  0  0  0  0
  8 24  1  6  0  0  0
  9 12  1  0  0  0  0
 10 18  2  0  0  0  0
 10 14  1  0  0  0  0
 11  3  1  0  0  0  0
 11  7  2  0  0  0  0
 12  6  1  1  0  0  0
 13 17  1  0  0  0  0
 13 15  2  0  0  0  0
 14 16  2  0  0  0  0
 15 10  1  0  0  0  0
 16  7  1  0  0  0  0
 17  1  2  0  0  0  0
 18 11  1  0  0  0  0
 20 19  2  0  0  0  0
 21 20  1  0  0  0  0
 22 21  2  0  0  0  0
 23 21  1  0  0  0  0
 24 25  1  0  0  0  0
 26 27  1  0  0  0  0
 26 25  1  0  0  0  0
 28 27  1  0  0  0  0
M  END
>  <MODEL>
8

>  <REMARK>
 VINA RESULT:      -8.6      2.377      4.680
  Name = 
  6 active torsions:
  status: ('A' for Active; 'I' for Inactive)
    1  A    between atoms: C_2  and  C_11
    2  A    between atoms: C_4  and  C_13
    3  A    between atoms: C_4  and  C_24
    4  A    between atoms: C_6  and  C_11
    5  A    between atoms: C_12  and  C_15
    6  A    between atoms: C_12  and  C_24
                            x       y       z     vdW  Elec       q    Type
                         _______ _______ _______ _____ _____    ______ ____

>  <TORSDO>
F 6

$$$$
=
 OpenBabel10272401523D

 28 31  0  0  1  0  0  0  0  0999 V2000
  189.3230  177.2490  144.7550 C   0  0  0  0  0  0  0  0  0  0  0  0
  188.6240  177.1490  146.0970 C   0  0  2  0  0  3  0  0  0  0  0  0
  186.5480  177.7850  145.0960 C   0  0  1  0  0  3  0  0  0  0  0  0
  191.2100  177.4560  141.0010 O   0  0  0  0  0  1  0  0  0  0  0  0
  187.4940  178.0790  146.1720 N   0  0  0  0  0  2  0  0  0  0  0  0
  183.1280  179.2650  144.2770 C   0  0  0  0  0  1  0  0  0  0  0  0
  186.4650  178.3180  142.6080 C   0  0  0  0  0  0  0  0  0  0  0  0
  184.9980  178.6890  142.7120 C   0  0  2  0  0  3  0  0  0  0  0  0
  185.3460  178.7080  145.2180 C   0  0  0  0  0  2  0  0  0  0  0  0
  189.2110  177.7180  142.3570 C   0  0  0  0  0  0  0  0  0  0  0  0
  187.2130  177.9470  143.7470 C   0  0  0  0  0  0  0  0  0  0  0  0
  184.3700  178.4150  144.0900 C   0  0  1  0  0  3  0  0  0  0  0  0
  191.2870  176.9600  143.3530 C   0  0  0  0  0  3  0  0  0  0  0  0
  188.4720  178.1280  141.2440 C   0  0  0  0  0  3  0  0  0  0  0  0
  190.5690  177.3820  142.2320 C   0  0  0  0  0  0  0  0  0  0  0  0
  187.1150  178.4320  141.3710 C   0  0  0  0  0  3  0  0  0  0  0  0
  190.6700  176.8870  144.6030 C   0  0  0  0  0  3  0  0  0  0  0  0
  188.5810  177.6350  143.6200 C   0  0  0  0  0  0  0  0  0  0  0  0
  189.3070  178.3380  148.0400 O   0  0  0  0  0  0  0  0  0  0  0  0
  189.5440  177.3740  147.2640 C   0  0  0  0  0  0  0  0  0  0  0  0
  190.7060  176.5030  147.5240 C   0  0  0  0  0  0  0  0  0  0  0  0
  190.5770  175.2510  147.4730 O   0  0  0  0  0  0  0  0  0  0  0  0
  191.9790  177.0600  147.8330 N   0  0  0  0  0  1  0  0  0  0  0  0
  184.1600  178.0550  141.5950 C   0  0  0  0  0  2  0  0  0  0  0  0
  183.4250  179.0980  140.7690 C   0  0  0  0  0  2  0  0  0  0  0  0
  184.1370  179.2870  139.4460 C   0  0  0  0  0  2  0  0  0  0  0  0
  184.4240  177.9320  138.8330 C   0  0  0  0  0  2  0  0  0  0  0  0
  185.6390  178.0330  137.9350 C   0  0  0  0  0  1  0  0  0  0  0  0
  1  2  1  0  0  0  0
  2  5  1  0  0  0  0
  2 20  1  1  0  0  0
  3  9  1  6  0  0  0
  3  5  1  0  0  0  0
  4 15  1  0  0  0  0
  7  8  1  0  0  0  0
  7 11  2  0  0  0  0
  8 24  1  6  0  0  0
  8 12  1  0  0  0  0
 10 18  1  0  0  0  0
 11  3  1  0  0  0  0
 12  6  1  1  0  0  0
 12  9  1  0  0  0  0
 13 17  2  0  0  0  0
 14 16  2  0  0  0  0
 14 10  1  0  0  0  0
 15 10  2  0  0  0  0
 15 13  1  0  0  0  0
 16  7  1  0  0  0  0
 17  1  1  0  0  0  0
 18 11  1  0  0  0  0
 18  1  2  0  0  0  0
 20 21  1  0  0  0  0
 20 19  2  0  0  0  0
 21 23  1  0  0  0  0
 22 21  2  0  0  0  0
 25 24  1  0  0  0  0
 26 25  1  0  0  0  0
 27 26  1  0  0  0  0
 28 27  1  0  0  0  0
M  END
>  <MODEL>
9

>  <REMARK>
 VINA RESULT:      -8.6      2.986      6.339
  Name = 
  6 active torsions:
  status: ('A' for Active; 'I' for Inactive)
    1  A    between atoms: C_2  and  C_11
    2  A    between atoms: C_4  and  C_13
    3  A    between atoms: C_4  and  C_24
    4  A    between atoms: C_6  and  C_11
    5  A    between atoms: C_12  and  C_15
    6  A    between atoms: C_12  and  C_24
                            x       y       z     vdW  Elec       q    Type
                         _______ _______ _______ _____ _____    ______ ____

>  <TORSDO>
F 6

$$$$
