=
 OpenBabel10262423503D

 34 40  0  0  1  0  0  0  0  0999 V2000
  188.8660  177.1430  145.6770 C   0  0  0  0  0  0  0  0  0  0  0  0
  190.8430  177.7300  144.4200 C   0  0  0  0  0  0  0  0  0  0  0  0
  188.5740  178.0720  143.4330 C   0  0  0  0  0  0  0  0  0  0  0  0
  188.2120  178.7660  140.9380 C   0  0  1  0  0  0  0  0  0  0  0  0
  190.9960  176.7990  146.6050 N   0  0  0  0  0  0  0  0  0  0  0  0
  191.6070  177.2900  145.4980 C   0  0  0  0  0  3  0  0  0  0  0  0
  188.9810  177.3990  141.1170 C   0  0  2  0  0  0  0  0  0  0  0  0
  189.4350  177.6560  144.4870 C   0  0  0  0  0  0  0  0  0  0  0  0
  188.2450  177.7410  139.8540 C   0  0  0  0  0  2  0  0  0  0  0  0
  189.6680  176.7300  146.6920 N   0  0  0  0  0  0  0  0  0  0  0  0
  187.1800  178.0230  143.6130 C   0  0  0  0  0  0  0  0  0  0  0  0
  187.4850  177.0600  145.8220 C   0  0  0  0  0  3  0  0  0  0  0  0
  191.4950  178.2440  143.3470 F   0  0  0  0  0  0  0  0  0  0  0  0
  186.8050  178.7880  141.3620 N   0  0  0  0  0  0  0  0  0  0  0  0
  186.2920  178.4770  142.5170 C   0  0  0  0  0  0  0  0  0  0  0  0
  189.1400  178.5290  142.1110 C   0  0  2  0  0  3  0  0  0  0  0  0
  186.6520  177.4960  144.7980 C   0  0  0  0  0  3  0  0  0  0  0  0
  182.5580  178.4170  141.7960 C   0  0  0  0  0  0  0  0  0  0  0  0
  182.0380  178.7890  143.0380 C   0  0  0  0  0  3  0  0  0  0  0  0
  184.8210  178.6030  142.6760 C   0  0  0  0  0  0  0  0  0  0  0  0
  182.9010  179.0600  144.1020 C   0  0  0  0  0  3  0  0  0  0  0  0
  183.9410  178.3210  141.6190 C   0  0  0  0  0  3  0  0  0  0  0  0
  184.2840  178.9630  143.9240 C   0  0  0  0  0  3  0  0  0  0  0  0
  181.7010  178.1420  140.7390 O   0  0  0  0  0  1  0  0  0  0  0  0
  190.3100  177.2620  140.6290 O   0  0  0  0  0  0  0  0  0  0  0  0
  191.4480  176.2830  138.8680 N   0  0  0  0  0  0  0  0  0  0  0  0
  190.7000  176.1620  139.8900 N   0  0  0  0  0  0  0  0  0  0  0  0
  189.9850  173.8070  137.3490 O   0  0  0  0  0  1  0  0  0  0  0  0
  191.8480  175.1180  138.0960 C   0  0  1  0  0  3  0  0  0  0  0  0
  190.8140  174.8680  136.9870 C   0  0  1  0  0  3  0  0  0  0  0  0
  192.0360  175.7850  135.3390 C   0  0  0  0  0  2  0  0  0  0  0  0
  193.2360  176.1480  136.2280 C   0  0  0  0  0  2  0  0  0  0  0  0
  193.2560  175.3200  137.5170 C   0  0  0  0  0  2  0  0  0  0  0  0
  191.4340  174.5840  135.7560 O   0  0  0  0  0  0  0  0  0  0  0  0
  1 12  1  0  0  0  0
  1 10  2  0  0  0  0
  2  8  2  0  0  0  0
  2  6  1  0  0  0  0
  3 11  2  0  0  0  0
  3  8  1  0  0  0  0
  4  9  1  6  0  0  0
  4  7  1  0  0  0  0
  4 14  1  0  0  0  0
  4 16  1  0  0  0  0
  5 10  1  0  0  0  0
  6  5  2  0  0  0  0
  7 25  1  6  0  0  0
  7 16  1  0  0  0  0
  8  1  1  0  0  0  0
  9  7  1  0  0  0  0
 11 17  1  0  0  0  0
 13  2  1  0  0  0  0
 14 15  2  0  0  0  0
 15 20  1  0  0  0  0
 15 11  1  0  0  0  0
 16  3  1  1  0  0  0
 17 12  2  0  0  0  0
 18 19  1  0  0  0  0
 19 21  2  0  0  0  0
 20 23  2  0  0  0  0
 22 18  2  0  0  0  0
 22 20  1  0  0  0  0
 23 21  1  0  0  0  0
 24 18  1  0  0  0  0
 26 27  2  0  0  0  0
 27 25  1  0  0  0  0
 29 26  1  6  0  0  0
 30 28  1  1  0  0  0
 30 29  1  0  0  0  0
 31 34  1  0  0  0  0
 31 32  1  0  0  0  0
 32 33  1  0  0  0  0
 33 29  1  0  0  0  0
 34 30  1  0  0  0  0
M  END
>  <MODEL>
1

>  <REMARK>
 VINA RESULT:     -10.2      0.000      0.000
  Name = 
  4 active torsions:
  status: ('A' for Active; 'I' for Inactive)
    1  A    between atoms: N_3  and  C_13
    2  A    between atoms: C_10  and  O_29
    3  A    between atoms: C_12  and  C_28
    4  A    between atoms: N_17  and  O_29
                            x       y       z     vdW  Elec       q    Type
                         _______ _______ _______ _____ _____    ______ ____

>  <TORSDO>
F 4

$$$$
=
 OpenBabel10262423503D

 34 40  0  0  1  0  0  0  0  0999 V2000
  183.2600  178.9140  143.9370 C   0  0  0  0  0  0  0  0  0  0  0  0
  183.3990  178.2730  141.6120 C   0  0  0  0  0  0  0  0  0  0  0  0
  185.4010  178.0830  143.0950 C   0  0  0  0  0  0  0  0  0  0  0  0
  187.7810  177.4990  142.1820 C   0  0  1  0  0  0  0  0  0  0  0  0
  181.3790  179.1160  142.5460 N   0  0  0  0  0  0  0  0  0  0  0  0
  182.0610  178.6330  141.4780 C   0  0  0  0  0  3  0  0  0  0  0  0
  187.1660  178.8170  141.5690 C   0  0  2  0  0  0  0  0  0  0  0  0
  184.0370  178.4160  142.8640 C   0  0  0  0  0  0  0  0  0  0  0  0
  188.6450  178.5590  141.5850 C   0  0  0  0  0  2  0  0  0  0  0  0
  181.9600  179.2490  143.7380 N   0  0  0  0  0  0  0  0  0  0  0  0
  185.9360  178.1970  144.3900 C   0  0  0  0  0  0  0  0  0  0  0  0
  183.8170  179.0630  145.2030 C   0  0  0  0  0  3  0  0  0  0  0  0
  184.0330  177.7650  140.5270 F   0  0  0  0  0  0  0  0  0  0  0  0
  188.1140  177.5340  143.6130 N   0  0  0  0  0  0  0  0  0  0  0  0
  187.3510  177.8290  144.6250 C   0  0  0  0  0  0  0  0  0  0  0  0
  186.2900  177.6450  141.9570 C   0  0  2  0  0  3  0  0  0  0  0  0
  185.1420  178.7070  145.4260 C   0  0  0  0  0  3  0  0  0  0  0  0
  189.8300  177.3200  147.4650 C   0  0  0  0  0  0  0  0  0  0  0  0
  189.0750  177.7450  148.5610 C   0  0  0  0  0  3  0  0  0  0  0  0
  187.9520  177.7720  145.9830 C   0  0  0  0  0  0  0  0  0  0  0  0
  187.7650  178.1910  148.3740 C   0  0  0  0  0  3  0  0  0  0  0  0
  189.2730  177.3380  146.1830 C   0  0  0  0  0  3  0  0  0  0  0  0
  187.2080  178.2090  147.0920 C   0  0  0  0  0  3  0  0  0  0  0  0
  191.1340  176.8810  147.6480 O   0  0  0  0  0  1  0  0  0  0  0  0
  186.9200  178.9040  140.1700 O   0  0  0  0  0  0  0  0  0  0  0  0
  187.9040  178.8210  138.0770 N   0  0  0  0  0  0  0  0  0  0  0  0
  187.7790  178.3380  139.2480 N   0  0  0  0  0  0  0  0  0  0  0  0
  190.7140  177.1850  138.1420 O   0  0  0  0  0  1  0  0  0  0  0  0
  188.8070  178.2130  137.1140 C   0  0  1  0  0  3  0  0  0  0  0  0
  189.4080  176.9360  137.7230 C   0  0  1  0  0  3  0  0  0  0  0  0
  188.0520  175.5160  136.6290 C   0  0  0  0  0  2  0  0  0  0  0  0
  187.2780  176.6040  135.8690 C   0  0  0  0  0  2  0  0  0  0  0  0
  188.0660  177.9170  135.8020 C   0  0  0  0  0  2  0  0  0  0  0  0
  189.4020  175.8720  136.8020 O   0  0  0  0  0  0  0  0  0  0  0  0
  1 12  1  0  0  0  0
  2  8  1  0  0  0  0
  3 11  2  0  0  0  0
  4  9  1  6  0  0  0
  4 14  1  0  0  0  0
  5 10  2  0  0  0  0
  6  2  2  0  0  0  0
  6  5  1  0  0  0  0
  7 25  1  6  0  0  0
  7  9  1  0  0  0  0
  7 16  1  0  0  0  0
  7  4  1  0  0  0  0
  8  3  1  0  0  0  0
  8  1  2  0  0  0  0
 10  1  1  0  0  0  0
 11 15  1  0  0  0  0
 11 17  1  0  0  0  0
 12 17  2  0  0  0  0
 13  2  1  0  0  0  0
 14 15  2  0  0  0  0
 15 20  1  0  0  0  0
 16  4  1  0  0  0  0
 16  3  1  1  0  0  0
 18 24  1  0  0  0  0
 18 19  1  0  0  0  0
 20 22  1  0  0  0  0
 20 23  2  0  0  0  0
 21 19  2  0  0  0  0
 22 18  2  0  0  0  0
 23 21  1  0  0  0  0
 26 27  2  0  0  0  0
 27 25  1  0  0  0  0
 29 30  1  0  0  0  0
 29 26  1  1  0  0  0
 30 28  1  6  0  0  0
 31 34  1  0  0  0  0
 32 31  1  0  0  0  0
 33 32  1  0  0  0  0
 33 29  1  0  0  0  0
 34 30  1  0  0  0  0
M  END
>  <MODEL>
2

>  <REMARK>
 VINA RESULT:      -9.7      3.075      5.912
  Name = 
  4 active torsions:
  status: ('A' for Active; 'I' for Inactive)
    1  A    between atoms: N_3  and  C_13
    2  A    between atoms: C_10  and  O_29
    3  A    between atoms: C_12  and  C_28
    4  A    between atoms: N_17  and  O_29
                            x       y       z     vdW  Elec       q    Type
                         _______ _______ _______ _____ _____    ______ ____

>  <TORSDO>
F 4

$$$$
=
 OpenBabel10262423503D

 34 40  0  0  1  0  0  0  0  0999 V2000
  185.7560  178.4830  145.8640 C   0  0  0  0  0  0  0  0  0  0  0  0
  184.8830  178.1800  143.6320 C   0  0  0  0  0  0  0  0  0  0  0  0
  187.2410  177.5480  144.1600 C   0  0  0  0  0  0  0  0  0  0  0  0
  188.9560  176.8370  142.3180 C   0  0  1  0  0  0  0  0  0  0  0  0
  183.5440  179.1000  145.3710 N   0  0  0  0  0  0  0  0  0  0  0  0
  183.6740  178.7070  144.0800 C   0  0  0  0  0  3  0  0  0  0  0  0
  188.3770  178.2930  142.1260 C   0  0  2  0  0  0  0  0  0  0  0  0
  185.9680  178.0630  144.5280 C   0  0  0  0  0  0  0  0  0  0  0  0
  189.6840  177.8680  141.5230 C   0  0  0  0  0  2  0  0  0  0  0  0
  184.5520  178.9890  146.2360 N   0  0  0  0  0  0  0  0  0  0  0  0
  188.2440  177.4070  145.1360 C   0  0  0  0  0  0  0  0  0  0  0  0
  186.7730  178.3780  146.8070 C   0  0  0  0  0  3  0  0  0  0  0  0
  184.9580  177.7690  142.3420 F   0  0  0  0  0  0  0  0  0  0  0  0
  189.8150  176.6220  143.4910 N   0  0  0  0  0  0  0  0  0  0  0  0
  189.5600  176.8500  144.7470 C   0  0  0  0  0  0  0  0  0  0  0  0
  187.5400  177.1840  142.7260 C   0  0  2  0  0  3  0  0  0  0  0  0
  188.0050  177.8450  146.4440 C   0  0  0  0  0  3  0  0  0  0  0  0
  191.7420  176.9150  147.8620 C   0  0  0  0  0  0  0  0  0  0  0  0
  192.5940  175.8360  147.6170 C   0  0  0  0  0  3  0  0  0  0  0  0
  190.6190  176.5250  145.7370 C   0  0  0  0  0  0  0  0  0  0  0  0
  192.4590  175.0950  146.4410 C   0  0  0  0  0  3  0  0  0  0  0  0
  190.7570  177.2540  146.9290 C   0  0  0  0  0  3  0  0  0  0  0  0
  191.4750  175.4340  145.5080 C   0  0  0  0  0  3  0  0  0  0  0  0
  191.8710  177.6500  149.0330 O   0  0  0  0  0  1  0  0  0  0  0  0
  187.6290  178.6120  140.9590 O   0  0  0  0  0  0  0  0  0  0  0  0
  187.5830  178.3200  138.6630 N   0  0  0  0  0  0  0  0  0  0  0  0
  188.2200  178.6620  139.7110 N   0  0  0  0  0  0  0  0  0  0  0  0
  190.3690  177.3130  137.3210 O   0  0  0  0  0  1  0  0  0  0  0  0
  188.2190  178.3720  137.3570 C   0  0  1  0  0  3  0  0  0  0  0  0
  189.0100  177.0740  137.1280 C   0  0  1  0  0  3  0  0  0  0  0  0
  187.4670  176.1080  135.8110 C   0  0  0  0  0  2  0  0  0  0  0  0
  186.4760  177.2810  135.8570 C   0  0  0  0  0  2  0  0  0  0  0  0
  187.1650  178.5890  136.2610 C   0  0  0  0  0  2  0  0  0  0  0  0
  188.7990  176.5600  135.8360 O   0  0  0  0  0  0  0  0  0  0  0  0
  1 10  1  0  0  0  0
  1 12  1  0  0  0  0
  2  6  2  0  0  0  0
  2  8  1  0  0  0  0
  3  8  1  0  0  0  0
  3 11  2  0  0  0  0
  4  9  1  6  0  0  0
  4 16  1  0  0  0  0
  4 14  1  0  0  0  0
  5 10  2  0  0  0  0
  6  5  1  0  0  0  0
  7 25  1  6  0  0  0
  7  4  1  0  0  0  0
  7 16  1  0  0  0  0
  8  1  2  0  0  0  0
  9  7  1  0  0  0  0
 11 17  1  0  0  0  0
 13  2  1  0  0  0  0
 14 15  2  0  0  0  0
 15 11  1  0  0  0  0
 15 20  1  0  0  0  0
 16  3  1  1  0  0  0
 17 12  2  0  0  0  0
 18 24  1  0  0  0  0
 19 18  1  0  0  0  0
 20 22  1  0  0  0  0
 21 19  2  0  0  0  0
 22 18  2  0  0  0  0
 23 20  2  0  0  0  0
 23 21  1  0  0  0  0
 26 27  2  0  0  0  0
 27 25  1  0  0  0  0
 29 26  1  1  0  0  0
 30 28  1  6  0  0  0
 30 29  1  0  0  0  0
 31 34  1  0  0  0  0
 31 32  1  0  0  0  0
 32 33  1  0  0  0  0
 33 29  1  0  0  0  0
 34 30  1  0  0  0  0
M  END
>  <MODEL>
3

>  <REMARK>
 VINA RESULT:      -9.7      3.135      6.153
  Name = 
  4 active torsions:
  status: ('A' for Active; 'I' for Inactive)
    1  A    between atoms: N_3  and  C_13
    2  A    between atoms: C_10  and  O_29
    3  A    between atoms: C_12  and  C_28
    4  A    between atoms: N_17  and  O_29
                            x       y       z     vdW  Elec       q    Type
                         _______ _______ _______ _____ _____    ______ ____

>  <TORSDO>
F 4

$$$$
=
 OpenBabel10262423503D

 34 40  0  0  1  0  0  0  0  0999 V2000
  188.6160  177.2250  140.8690 C   0  0  0  0  0  0  0  0  0  0  0  0
  186.9350  178.4350  139.6260 C   0  0  0  0  0  0  0  0  0  0  0  0
  186.8350  178.3400  142.1200 C   0  0  0  0  0  0  0  0  0  0  0  0
  184.7960  179.2460  143.4840 C   0  0  1  0  0  0  0  0  0  0  0  0
  188.7070  177.2910  138.5230 N   0  0  0  0  0  0  0  0  0  0  0  0
  187.5910  178.0580  138.4570 C   0  0  0  0  0  3  0  0  0  0  0  0
  184.4260  178.0960  142.4680 C   0  0  2  0  0  0  0  0  0  0  0  0
  187.4400  178.0130  140.8760 C   0  0  0  0  0  0  0  0  0  0  0  0
  183.5720  178.4120  143.6620 C   0  0  0  0  0  2  0  0  0  0  0  0
  189.2060  176.8900  139.6930 N   0  0  0  0  0  0  0  0  0  0  0  0
  187.4440  177.9300  143.3200 C   0  0  0  0  0  0  0  0  0  0  0  0
  189.1820  176.7900  142.0640 C   0  0  0  0  0  3  0  0  0  0  0  0
  185.8410  179.2280  139.5140 F   0  0  0  0  0  0  0  0  0  0  0  0
  185.6500  178.8690  144.6200 N   0  0  0  0  0  0  0  0  0  0  0  0
  186.8170  178.2940  144.6120 C   0  0  0  0  0  0  0  0  0  0  0  0
  185.5270  179.0910  142.1670 C   0  0  2  0  0  3  0  0  0  0  0  0
  188.5990  177.1400  143.2760 C   0  0  0  0  0  3  0  0  0  0  0  0
  189.3700  177.2880  147.2450 C   0  0  0  0  0  0  0  0  0  0  0  0
  188.6950  177.6270  148.4200 C   0  0  0  0  0  3  0  0  0  0  0  0
  187.4690  178.0360  145.9220 C   0  0  0  0  0  0  0  0  0  0  0  0
  187.4130  178.1780  148.3520 C   0  0  0  0  0  3  0  0  0  0  0  0
  188.7620  177.4960  146.0040 C   0  0  0  0  0  3  0  0  0  0  0  0
  186.8050  178.3850  147.1100 C   0  0  0  0  0  3  0  0  0  0  0  0
  190.6470  176.7460  147.3110 O   0  0  0  0  0  1  0  0  0  0  0  0
  183.5150  178.3520  141.4060 O   0  0  0  0  0  0  0  0  0  0  0  0
  183.4630  177.3610  139.3160 N   0  0  0  0  0  0  0  0  0  0  0  0
  183.1140  177.3540  140.5390 N   0  0  0  0  0  0  0  0  0  0  0  0
  180.6440  176.1080  138.2840 O   0  0  0  0  0  1  0  0  0  0  0  0
  183.0300  176.3070  138.4130 C   0  0  1  0  0  3  0  0  0  0  0  0
  181.7390  176.7470  137.7050 C   0  0  1  0  0  3  0  0  0  0  0  0
  182.7360  177.3320  135.7780 C   0  0  0  0  0  2  0  0  0  0  0  0
  184.1580  176.9600  136.2270 C   0  0  0  0  0  2  0  0  0  0  0  0
  184.1410  175.9790  137.4050 C   0  0  0  0  0  2  0  0  0  0  0  0
  181.7800  176.4600  136.3280 O   0  0  0  0  0  0  0  0  0  0  0  0
  1  8  2  0  0  0  0
  1 12  1  0  0  0  0
  2  8  1  0  0  0  0
  3 11  2  0  0  0  0
  4  9  1  1  0  0  0
  4 14  1  0  0  0  0
  5 10  2  0  0  0  0
  6  5  1  0  0  0  0
  6  2  2  0  0  0  0
  7 25  1  6  0  0  0
  7  4  1  0  0  0  0
  7  9  1  0  0  0  0
  8  3  1  0  0  0  0
 10  1  1  0  0  0  0
 11 15  1  0  0  0  0
 12 17  2  0  0  0  0
 13  2  1  0  0  0  0
 15 14  2  0  0  0  0
 15 20  1  0  0  0  0
 16  3  1  1  0  0  0
 16  7  1  0  0  0  0
 16  4  1  0  0  0  0
 17 11  1  0  0  0  0
 18 24  1  0  0  0  0
 18 19  1  0  0  0  0
 20 22  1  0  0  0  0
 20 23  2  0  0  0  0
 21 19  2  0  0  0  0
 22 18  2  0  0  0  0
 23 21  1  0  0  0  0
 26 27  2  0  0  0  0
 27 25  1  0  0  0  0
 29 26  1  1  0  0  0
 30 28  1  1  0  0  0
 30 29  1  0  0  0  0
 31 32  1  0  0  0  0
 31 34  1  0  0  0  0
 32 33  1  0  0  0  0
 33 29  1  0  0  0  0
 34 30  1  0  0  0  0
M  END
>  <MODEL>
4

>  <REMARK>
 VINA RESULT:      -8.9      4.003      6.920
  Name = 
  4 active torsions:
  status: ('A' for Active; 'I' for Inactive)
    1  A    between atoms: N_3  and  C_13
    2  A    between atoms: C_10  and  O_29
    3  A    between atoms: C_12  and  C_28
    4  A    between atoms: N_17  and  O_29
                            x       y       z     vdW  Elec       q    Type
                         _______ _______ _______ _____ _____    ______ ____

>  <TORSDO>
F 4

$$$$
=
 OpenBabel10262423503D

 34 40  0  0  1  0  0  0  0  0999 V2000
  189.4580  177.1660  140.7290 C   0  0  0  0  0  0  0  0  0  0  0  0
  188.8040  178.0950  138.5970 C   0  0  0  0  0  0  0  0  0  0  0  0
  187.2790  178.2670  140.5680 C   0  0  0  0  0  0  0  0  0  0  0  0
  184.8260  179.1510  140.3800 C   0  0  1  0  0  0  0  0  0  0  0  0
  190.8890  176.9820  138.8750 N   0  0  0  0  0  0  0  0  0  0  0  0
  190.0150  177.6450  138.0780 C   0  0  0  0  0  3  0  0  0  0  0  0
  185.1130  177.8710  139.5030 C   0  0  2  0  0  0  0  0  0  0  0  0
  188.4940  177.8540  139.9530 C   0  0  0  0  0  0  0  0  0  0  0  0
  183.7260  178.2460  139.9360 C   0  0  0  0  0  2  0  0  0  0  0  0
  190.6200  176.7520  140.1610 N   0  0  0  0  0  0  0  0  0  0  0  0
  187.0830  178.0400  141.9420 C   0  0  0  0  0  0  0  0  0  0  0  0
  189.2290  176.9120  142.0770 C   0  0  0  0  0  3  0  0  0  0  0  0
  187.9750  178.7810  137.7720 F   0  0  0  0  0  0  0  0  0  0  0  0
  184.8660  178.9700  141.8380 N   0  0  0  0  0  0  0  0  0  0  0  0
  185.8240  178.4930  142.5780 C   0  0  0  0  0  0  0  0  0  0  0  0
  186.1840  178.9110  139.7550 C   0  0  2  0  0  3  0  0  0  0  0  0
  188.0520  177.3450  142.6760 C   0  0  0  0  0  3  0  0  0  0  0  0
  186.3990  178.0340  146.3100 C   0  0  0  0  0  0  0  0  0  0  0  0
  185.1520  178.3990  146.8220 C   0  0  0  0  0  3  0  0  0  0  0  0
  185.5990  178.4330  144.0460 C   0  0  0  0  0  0  0  0  0  0  0  0
  184.1290  178.7880  145.9540 C   0  0  0  0  0  3  0  0  0  0  0  0
  186.6220  178.0560  144.9310 C   0  0  0  0  0  3  0  0  0  0  0  0
  184.3530  178.8100  144.5740 C   0  0  0  0  0  3  0  0  0  0  0  0
  187.4180  177.6520  147.1720 O   0  0  0  0  0  1  0  0  0  0  0  0
  184.9840  177.9350  138.0870 O   0  0  0  0  0  0  0  0  0  0  0  0
  184.2940  176.1070  136.8480 N   0  0  0  0  0  0  0  0  0  0  0  0
  185.2380  176.8390  137.2860 N   0  0  0  0  0  0  0  0  0  0  0  0
  186.4650  175.2820  134.5720 O   0  0  0  0  0  1  0  0  0  0  0  0
  184.5750  174.9540  136.0090 C   0  0  1  0  0  3  0  0  0  0  0  0
  186.0960  174.8170  135.8330 C   0  0  1  0  0  3  0  0  0  0  0  0
  186.3450  173.1770  137.3480 C   0  0  0  0  0  2  0  0  0  0  0  0
  184.8560  173.0890  137.7190 C   0  0  0  0  0  2  0  0  0  0  0  0
  183.9640  173.6860  136.6250 C   0  0  0  0  0  2  0  0  0  0  0  0
  186.5170  173.4840  135.9860 O   0  0  0  0  0  0  0  0  0  0  0  0
  1 12  1  0  0  0  0
  2  8  1  0  0  0  0
  3 11  2  0  0  0  0
  4  9  1  6  0  0  0
  4 14  1  0  0  0  0
  5 10  2  0  0  0  0
  6  2  2  0  0  0  0
  6  5  1  0  0  0  0
  7 25  1  6  0  0  0
  7 16  1  0  0  0  0
  7  9  1  0  0  0  0
  7  4  1  0  0  0  0
  8  3  1  0  0  0  0
  8  1  2  0  0  0  0
 10  1  1  0  0  0  0
 11 15  1  0  0  0  0
 11 17  1  0  0  0  0
 12 17  2  0  0  0  0
 13  2  1  0  0  0  0
 14 15  2  0  0  0  0
 15 20  1  0  0  0  0
 16  4  1  0  0  0  0
 16  3  1  1  0  0  0
 18 19  1  0  0  0  0
 18 24  1  0  0  0  0
 20 23  2  0  0  0  0
 20 22  1  0  0  0  0
 21 19  2  0  0  0  0
 22 18  2  0  0  0  0
 23 21  1  0  0  0  0
 26 27  2  0  0  0  0
 27 25  1  0  0  0  0
 29 33  1  0  0  0  0
 29 26  1  1  0  0  0
 30 28  1  6  0  0  0
 30 34  1  0  0  0  0
 30 29  1  0  0  0  0
 31 32  1  0  0  0  0
 33 32  1  0  0  0  0
 34 31  1  0  0  0  0
M  END
>  <MODEL>
5

>  <REMARK>
 VINA RESULT:      -8.8      3.534      5.493
  Name = 
  4 active torsions:
  status: ('A' for Active; 'I' for Inactive)
    1  A    between atoms: N_3  and  C_13
    2  A    between atoms: C_10  and  O_29
    3  A    between atoms: C_12  and  C_28
    4  A    between atoms: N_17  and  O_29
                            x       y       z     vdW  Elec       q    Type
                         _______ _______ _______ _____ _____    ______ ____

>  <TORSDO>
F 4

$$$$
=
 OpenBabel10262423503D

 34 40  0  0  1  0  0  0  0  0999 V2000
  188.8700  177.6780  140.0190 C   0  0  0  0  0  0  0  0  0  0  0  0
  187.6820  178.4150  138.0500 C   0  0  0  0  0  0  0  0  0  0  0  0
  186.5480  178.4040  140.2760 C   0  0  0  0  0  0  0  0  0  0  0  0
  183.9910  178.8730  140.5590 C   0  0  1  0  0  0  0  0  0  0  0  0
  189.9370  177.6640  137.9270 N   0  0  0  0  0  0  0  0  0  0  0  0
  188.8310  178.1500  137.3100 C   0  0  0  0  0  3  0  0  0  0  0  0
  184.3170  177.6270  139.6450 C   0  0  2  0  0  0  0  0  0  0  0  0
  187.6770  178.1730  139.4410 C   0  0  0  0  0  0  0  0  0  0  0  0
  182.9930  177.7870  140.3350 C   0  0  0  0  0  2  0  0  0  0  0  0
  189.9560  177.4380  139.2410 N   0  0  0  0  0  0  0  0  0  0  0  0
  186.6540  178.1960  141.6630 C   0  0  0  0  0  0  0  0  0  0  0  0
  188.9450  177.4350  141.3880 C   0  0  0  0  0  3  0  0  0  0  0  0
  186.6100  178.9290  137.3970 F   0  0  0  0  0  0  0  0  0  0  0  0
  184.3350  178.7500  141.9820 N   0  0  0  0  0  0  0  0  0  0  0  0
  185.4800  178.4600  142.5270 C   0  0  0  0  0  0  0  0  0  0  0  0
  185.2280  178.8350  139.6860 C   0  0  2  0  0  3  0  0  0  0  0  0
  187.8460  177.6920  142.2000 C   0  0  0  0  0  3  0  0  0  0  0  0
  186.7790  178.0370  146.0770 C   0  0  0  0  0  0  0  0  0  0  0  0
  185.6560  178.4070  146.8210 C   0  0  0  0  0  3  0  0  0  0  0  0
  185.5480  178.4140  144.0100 C   0  0  0  0  0  0  0  0  0  0  0  0
  184.4830  178.7880  146.1670 C   0  0  0  0  0  3  0  0  0  0  0  0
  186.7260  178.0450  144.6800 C   0  0  0  0  0  3  0  0  0  0  0  0
  184.4300  178.7960  144.7700 C   0  0  0  0  0  3  0  0  0  0  0  0
  187.9480  177.6620  146.7250 O   0  0  0  0  0  1  0  0  0  0  0  0
  183.9140  177.6210  138.2810 O   0  0  0  0  0  0  0  0  0  0  0  0
  184.2340  175.3920  137.7470 N   0  0  0  0  0  0  0  0  0  0  0  0
  184.3050  176.6190  137.4140 N   0  0  0  0  0  0  0  0  0  0  0  0
  186.1850  172.7910  137.8150 O   0  0  0  0  0  1  0  0  0  0  0  0
  184.6530  174.3480  136.8270 C   0  0  1  0  0  3  0  0  0  0  0  0
  184.8290  173.0330  137.6040 C   0  0  1  0  0  3  0  0  0  0  0  0
  182.8650  172.1420  136.9710 C   0  0  0  0  0  2  0  0  0  0  0  0
  182.4330  173.3340  136.1030 C   0  0  0  0  0  2  0  0  0  0  0  0
  183.6300  174.1970  135.6910 C   0  0  0  0  0  2  0  0  0  0  0  0
  184.2570  171.9460  136.9170 O   0  0  0  0  0  0  0  0  0  0  0  0
  1 12  1  0  0  0  0
  2  8  1  0  0  0  0
  3 11  2  0  0  0  0
  4  9  1  6  0  0  0
  4 14  1  0  0  0  0
  5 10  2  0  0  0  0
  6  5  1  0  0  0  0
  6  2  2  0  0  0  0
  7 25  1  6  0  0  0
  7 16  1  0  0  0  0
  7  9  1  0  0  0  0
  7  4  1  0  0  0  0
  8  1  2  0  0  0  0
  8  3  1  0  0  0  0
 10  1  1  0  0  0  0
 11 17  1  0  0  0  0
 11 15  1  0  0  0  0
 12 17  2  0  0  0  0
 13  2  1  0  0  0  0
 14 15  2  0  0  0  0
 15 20  1  0  0  0  0
 16  3  1  1  0  0  0
 16  4  1  0  0  0  0
 18 24  1  0  0  0  0
 18 19  1  0  0  0  0
 20 22  1  0  0  0  0
 20 23  2  0  0  0  0
 21 19  2  0  0  0  0
 22 18  2  0  0  0  0
 23 21  1  0  0  0  0
 27 26  2  0  0  0  0
 27 25  1  0  0  0  0
 29 30  1  0  0  0  0
 29 26  1  1  0  0  0
 30 28  1  6  0  0  0
 32 31  1  0  0  0  0
 33 32  1  0  0  0  0
 33 29  1  0  0  0  0
 34 31  1  0  0  0  0
 34 30  1  0  0  0  0
M  END
>  <MODEL>
6

>  <REMARK>
 VINA RESULT:      -8.8      3.945      6.260
  Name = 
  4 active torsions:
  status: ('A' for Active; 'I' for Inactive)
    1  A    between atoms: N_3  and  C_13
    2  A    between atoms: C_10  and  O_29
    3  A    between atoms: C_12  and  C_28
    4  A    between atoms: N_17  and  O_29
                            x       y       z     vdW  Elec       q    Type
                         _______ _______ _______ _____ _____    ______ ____

>  <TORSDO>
F 4

$$$$
=
 OpenBabel10262423503D

 34 40  0  0  1  0  0  0  0  0999 V2000
  189.6550  176.8550  143.1010 C   0  0  0  0  0  0  0  0  0  0  0  0
  190.9410  177.4720  141.1520 C   0  0  0  0  0  0  0  0  0  0  0  0
  188.4810  177.8990  141.2260 C   0  0  0  0  0  0  0  0  0  0  0  0
  187.1300  178.7220  139.1440 C   0  0  1  0  0  0  0  0  0  0  0  0
  191.9640  176.4300  143.0310 N   0  0  0  0  0  0  0  0  0  0  0  0
  192.0710  176.9660  141.7910 C   0  0  0  0  0  3  0  0  0  0  0  0
  187.8540  177.3360  138.9300 C   0  0  2  0  0  0  0  0  0  0  0  0
  189.6890  177.4170  141.8030 C   0  0  0  0  0  0  0  0  0  0  0  0
  186.6680  177.7530  138.1080 C   0  0  0  0  0  2  0  0  0  0  0  0
  190.7930  176.3780  143.6670 N   0  0  0  0  0  0  0  0  0  0  0  0
  187.2910  177.8630  141.9740 C   0  0  0  0  0  0  0  0  0  0  0  0
  188.4600  176.7870  143.8100 C   0  0  0  0  0  3  0  0  0  0  0  0
  191.1000  178.0280  139.9250 F   0  0  0  0  0  0  0  0  0  0  0  0
  186.0330  178.7460  140.1220 N   0  0  0  0  0  0  0  0  0  0  0  0
  186.0420  178.3860  141.3720 C   0  0  0  0  0  0  0  0  0  0  0  0
  188.4560  178.4130  139.8080 C   0  0  2  0  0  3  0  0  0  0  0  0
  187.2900  177.2870  143.2500 C   0  0  0  0  0  3  0  0  0  0  0  0
  183.5860  178.9260  144.2260 C   0  0  0  0  0  0  0  0  0  0  0  0
  182.3660  178.8590  143.5480 C   0  0  0  0  0  3  0  0  0  0  0  0
  184.7790  178.5280  142.1410 C   0  0  0  0  0  0  0  0  0  0  0  0
  182.3460  178.6360  142.1700 C   0  0  0  0  0  3  0  0  0  0  0  0
  184.7850  178.7670  143.5250 C   0  0  0  0  0  3  0  0  0  0  0  0
  183.5460  178.4760  141.4700 C   0  0  0  0  0  3  0  0  0  0  0  0
  183.6070  179.1540  145.5960 O   0  0  0  0  0  1  0  0  0  0  0  0
  188.8490  177.2020  137.9230 O   0  0  0  0  0  0  0  0  0  0  0  0
  190.8270  176.1750  137.2970 N   0  0  0  0  0  0  0  0  0  0  0  0
  189.7000  176.1140  137.8850 N   0  0  0  0  0  0  0  0  0  0  0  0
  190.9620  173.3190  135.7470 O   0  0  0  0  0  1  0  0  0  0  0  0
  191.7100  175.0210  137.2600 C   0  0  1  0  0  3  0  0  0  0  0  0
  191.7530  174.4640  135.8280 C   0  0  1  0  0  3  0  0  0  0  0  0
  193.7280  175.3940  135.2930 C   0  0  0  0  0  2  0  0  0  0  0  0
  193.9510  176.0660  136.6560 C   0  0  0  0  0  2  0  0  0  0  0  0
  193.1110  175.4080  137.7560 C   0  0  0  0  0  2  0  0  0  0  0  0
  193.0680  174.1590  135.4310 O   0  0  0  0  0  0  0  0  0  0  0  0
  1 10  1  0  0  0  0
  1 12  1  0  0  0  0
  2  6  2  0  0  0  0
  2  8  1  0  0  0  0
  3  8  1  0  0  0  0
  3 11  2  0  0  0  0
  4  9  1  6  0  0  0
  4 16  1  0  0  0  0
  4 14  1  0  0  0  0
  5 10  2  0  0  0  0
  6  5  1  0  0  0  0
  7 25  1  6  0  0  0
  7  4  1  0  0  0  0
  7 16  1  0  0  0  0
  8  1  2  0  0  0  0
  9  7  1  0  0  0  0
 11 17  1  0  0  0  0
 13  2  1  0  0  0  0
 14 15  2  0  0  0  0
 15 11  1  0  0  0  0
 15 20  1  0  0  0  0
 16  3  1  1  0  0  0
 17 12  2  0  0  0  0
 18 24  1  0  0  0  0
 19 18  1  0  0  0  0
 20 22  1  0  0  0  0
 21 19  2  0  0  0  0
 22 18  2  0  0  0  0
 23 20  2  0  0  0  0
 23 21  1  0  0  0  0
 26 27  2  0  0  0  0
 27 25  1  0  0  0  0
 29 26  1  6  0  0  0
 29 33  1  0  0  0  0
 30 28  1  1  0  0  0
 30 29  1  0  0  0  0
 31 34  1  0  0  0  0
 31 32  1  0  0  0  0
 32 33  1  0  0  0  0
 34 30  1  0  0  0  0
M  END
>  <MODEL>
7

>  <REMARK>
 VINA RESULT:      -8.7      1.926      2.421
  Name = 
  4 active torsions:
  status: ('A' for Active; 'I' for Inactive)
    1  A    between atoms: N_3  and  C_13
    2  A    between atoms: C_10  and  O_29
    3  A    between atoms: C_12  and  C_28
    4  A    between atoms: N_17  and  O_29
                            x       y       z     vdW  Elec       q    Type
                         _______ _______ _______ _____ _____    ______ ____

>  <TORSDO>
F 4

$$$$
=
 OpenBabel10262423503D

 34 40  0  0  1  0  0  0  0  0999 V2000
  189.3480  176.9750  144.3670 C   0  0  0  0  0  0  0  0  0  0  0  0
  191.0190  177.5170  142.7100 C   0  0  0  0  0  0  0  0  0  0  0  0
  188.6040  177.9640  142.2570 C   0  0  0  0  0  0  0  0  0  0  0  0
  187.7260  178.7260  139.9150 C   0  0  1  0  0  0  0  0  0  0  0  0
  191.6150  176.5320  144.7930 N   0  0  0  0  0  0  0  0  0  0  0  0
  191.9840  177.0260  143.5860 C   0  0  0  0  0  3  0  0  0  0  0  0
  188.4590  177.3280  139.8990 C   0  0  2  0  0  0  0  0  0  0  0  0
  189.6590  177.4940  143.0870 C   0  0  0  0  0  0  0  0  0  0  0  0
  187.4760  177.7250  138.8360 C   0  0  0  0  0  2  0  0  0  0  0  0
  190.3370  176.5100  145.1730 N   0  0  0  0  0  0  0  0  0  0  0  0
  187.2830  177.9620  142.7410 C   0  0  0  0  0  0  0  0  0  0  0  0
  188.0310  176.9400  144.8140 C   0  0  0  0  0  3  0  0  0  0  0  0
  191.4370  178.0310  141.5260 F   0  0  0  0  0  0  0  0  0  0  0  0
  186.4500  178.7900  140.6410 N   0  0  0  0  0  0  0  0  0  0  0  0
  186.1940  178.4720  141.8770 C   0  0  0  0  0  0  0  0  0  0  0  0
  188.8800  178.4290  140.8490 C   0  0  2  0  0  3  0  0  0  0  0  0
  187.0100  177.4290  144.0070 C   0  0  0  0  0  3  0  0  0  0  0  0
  182.3940  178.5800  141.9990 C   0  0  0  0  0  0  0  0  0  0  0  0
  182.1770  178.9270  143.3340 C   0  0  0  0  0  3  0  0  0  0  0  0
  184.8010  178.6490  142.3610 C   0  0  0  0  0  0  0  0  0  0  0  0
  183.2640  179.1280  144.1880 C   0  0  0  0  0  3  0  0  0  0  0  0
  183.6980  178.4370  141.5170 C   0  0  0  0  0  3  0  0  0  0  0  0
  184.5680  178.9860  143.7050 C   0  0  0  0  0  3  0  0  0  0  0  0
  181.3140  178.3740  141.1510 O   0  0  0  0  0  1  0  0  0  0  0  0
  189.6410  177.1530  139.1260 O   0  0  0  0  0  0  0  0  0  0  0  0
  190.1190  176.3400  137.0130 N   0  0  0  0  0  0  0  0  0  0  0  0
  189.7640  176.1220  138.2150 N   0  0  0  0  0  0  0  0  0  0  0  0
  191.6880  173.4970  136.8340 O   0  0  0  0  0  1  0  0  0  0  0  0
  190.2410  175.2460  136.0640 C   0  0  1  0  0  3  0  0  0  0  0  0
  190.3600  173.9210  136.8330 C   0  0  1  0  0  3  0  0  0  0  0  0
  188.2190  173.3060  136.5390 C   0  0  0  0  0  2  0  0  0  0  0  0
  187.8190  174.5450  135.7230 C   0  0  0  0  0  2  0  0  0  0  0  0
  189.0400  175.2350  135.1070 C   0  0  0  0  0  2  0  0  0  0  0  0
  189.5450  172.9210  136.2710 O   0  0  0  0  0  0  0  0  0  0  0  0
  1 12  1  0  0  0  0
  1 10  2  0  0  0  0
  2  8  2  0  0  0  0
  2  6  1  0  0  0  0
  3 11  2  0  0  0  0
  3  8  1  0  0  0  0
  4  9  1  6  0  0  0
  4 14  1  0  0  0  0
  4 16  1  0  0  0  0
  5 10  1  0  0  0  0
  6  5  2  0  0  0  0
  7 25  1  6  0  0  0
  7  4  1  0  0  0  0
  7 16  1  0  0  0  0
  8  1  1  0  0  0  0
  9  7  1  0  0  0  0
 11 17  1  0  0  0  0
 13  2  1  0  0  0  0
 14 15  2  0  0  0  0
 15 20  1  0  0  0  0
 15 11  1  0  0  0  0
 16  3  1  1  0  0  0
 17 12  2  0  0  0  0
 18 19  1  0  0  0  0
 19 21  2  0  0  0  0
 20 23  2  0  0  0  0
 22 18  2  0  0  0  0
 22 20  1  0  0  0  0
 23 21  1  0  0  0  0
 24 18  1  0  0  0  0
 26 27  2  0  0  0  0
 27 25  1  0  0  0  0
 29 30  1  0  0  0  0
 29 26  1  1  0  0  0
 30 28  1  6  0  0  0
 32 31  1  0  0  0  0
 33 32  1  0  0  0  0
 33 29  1  0  0  0  0
 34 31  1  0  0  0  0
 34 30  1  0  0  0  0
M  END
>  <MODEL>
8

>  <REMARK>
 VINA RESULT:      -8.7      1.449      2.035
  Name = 
  4 active torsions:
  status: ('A' for Active; 'I' for Inactive)
    1  A    between atoms: N_3  and  C_13
    2  A    between atoms: C_10  and  O_29
    3  A    between atoms: C_12  and  C_28
    4  A    between atoms: N_17  and  O_29
                            x       y       z     vdW  Elec       q    Type
                         _______ _______ _______ _____ _____    ______ ____

>  <TORSDO>
F 4

$$$$
=
 OpenBabel10262423503D

 34 40  0  0  1  0  0  0  0  0999 V2000
  189.7860  176.7620  140.6280 C   0  0  0  0  0  0  0  0  0  0  0  0
  188.5800  178.0970  139.0170 C   0  0  0  0  0  0  0  0  0  0  0  0
  187.8770  178.0740  141.4130 C   0  0  0  0  0  0  0  0  0  0  0  0
  185.6710  179.2060  142.2460 C   0  0  1  0  0  0  0  0  0  0  0  0
  190.4410  176.7610  138.3730 N   0  0  0  0  0  0  0  0  0  0  0  0
  189.4550  177.6290  138.0390 C   0  0  0  0  0  3  0  0  0  0  0  0
  185.4430  178.0730  141.1710 C   0  0  2  0  0  0  0  0  0  0  0  0
  188.7270  177.6590  140.3510 C   0  0  0  0  0  0  0  0  0  0  0  0
  184.3640  178.4980  142.1250 C   0  0  0  0  0  2  0  0  0  0  0  0
  190.6030  176.3420  139.6290 N   0  0  0  0  0  0  0  0  0  0  0  0
  188.1370  177.6370  142.7250 C   0  0  0  0  0  0  0  0  0  0  0  0
  190.0030  176.3040  141.9240 C   0  0  0  0  0  3  0  0  0  0  0  0
  187.6290  178.9890  138.6440 F   0  0  0  0  0  0  0  0  0  0  0  0
  186.1870  178.7770  143.5540 N   0  0  0  0  0  0  0  0  0  0  0  0
  187.2590  178.0920  143.8270 C   0  0  0  0  0  0  0  0  0  0  0  0
  186.6770  178.9490  141.1440 C   0  0  2  0  0  3  0  0  0  0  0  0
  189.1850  176.7390  142.9610 C   0  0  0  0  0  3  0  0  0  0  0  0
  189.0600  177.0670  147.0170 C   0  0  0  0  0  0  0  0  0  0  0  0
  188.0830  177.3390  147.9780 C   0  0  0  0  0  3  0  0  0  0  0  0
  187.5490  177.8050  145.2560 C   0  0  0  0  0  0  0  0  0  0  0  0
  186.8440  177.8510  147.5860 C   0  0  0  0  0  3  0  0  0  0  0  0
  188.7960  177.3030  145.6650 C   0  0  0  0  0  3  0  0  0  0  0  0
  186.5810  178.0870  146.2330 C   0  0  0  0  0  3  0  0  0  0  0  0
  190.2940  176.5630  147.4050 O   0  0  0  0  0  1  0  0  0  0  0  0
  184.8420  178.3890  139.9210 O   0  0  0  0  0  0  0  0  0  0  0  0
  184.1530  177.6530  137.8380 N   0  0  0  0  0  0  0  0  0  0  0  0
  184.9300  177.5350  138.8390 N   0  0  0  0  0  0  0  0  0  0  0  0
  186.5190  176.2970  136.0660 O   0  0  0  0  0  1  0  0  0  0  0  0
  184.2520  176.7450  136.7080 C   0  0  1  0  0  3  0  0  0  0  0  0
  185.4870  175.8470  136.8890 C   0  0  1  0  0  3  0  0  0  0  0  0
  184.3480  174.0530  137.6190 C   0  0  0  0  0  2  0  0  0  0  0  0
  182.9610  174.7090  137.5260 C   0  0  0  0  0  2  0  0  0  0  0  0
  182.9680  175.9140  136.5770 C   0  0  0  0  0  2  0  0  0  0  0  0
  185.1980  174.5030  136.5920 O   0  0  0  0  0  0  0  0  0  0  0  0
  1 12  1  0  0  0  0
  2  8  1  0  0  0  0
  3 11  2  0  0  0  0
  4  9  1  6  0  0  0
  4 14  1  0  0  0  0
  5 10  2  0  0  0  0
  6  5  1  0  0  0  0
  6  2  2  0  0  0  0
  7 25  1  6  0  0  0
  7  9  1  0  0  0  0
  7  4  1  0  0  0  0
  8  1  2  0  0  0  0
  8  3  1  0  0  0  0
 10  1  1  0  0  0  0
 11 17  1  0  0  0  0
 11 15  1  0  0  0  0
 12 17  2  0  0  0  0
 13  2  1  0  0  0  0
 14 15  2  0  0  0  0
 15 20  1  0  0  0  0
 16  7  1  0  0  0  0
 16  3  1  1  0  0  0
 16  4  1  0  0  0  0
 18 24  1  0  0  0  0
 18 19  1  0  0  0  0
 20 22  1  0  0  0  0
 20 23  2  0  0  0  0
 21 19  2  0  0  0  0
 22 18  2  0  0  0  0
 23 21  1  0  0  0  0
 26 27  2  0  0  0  0
 27 25  1  0  0  0  0
 29 30  1  0  0  0  0
 29 26  1  1  0  0  0
 30 28  1  6  0  0  0
 32 31  1  0  0  0  0
 33 29  1  0  0  0  0
 33 32  1  0  0  0  0
 34 30  1  0  0  0  0
 34 31  1  0  0  0  0
M  END
>  <MODEL>
9

>  <REMARK>
 VINA RESULT:      -8.7      3.234      6.188
  Name = 
  4 active torsions:
  status: ('A' for Active; 'I' for Inactive)
    1  A    between atoms: N_3  and  C_13
    2  A    between atoms: C_10  and  O_29
    3  A    between atoms: C_12  and  C_28
    4  A    between atoms: N_17  and  O_29
                            x       y       z     vdW  Elec       q    Type
                         _______ _______ _______ _____ _____    ______ ____

>  <TORSDO>
F 4

$$$$
