=
 OpenBabel10272415023D

 37 40  0  0  1  0  0  0  0  0999 V2000
  189.3200  178.1110  138.7530 C   0  0  0  0  0  3  0  0  0  0  0  0
  188.8600  175.7400  135.5400 C   0  0  1  0  0  0  0  0  0  0  0  0
  187.6700  177.7580  134.4450 C   0  0  0  0  0  1  0  0  0  0  0  0
  187.6850  176.5700  135.4100 C   0  0  2  0  0  0  0  0  0  0  0  0
  188.6230  176.8280  136.5960 C   0  0  0  0  0  0  0  0  0  0  0  0
  188.9650  177.4730  137.6740 C   0  0  0  0  0  0  0  0  0  0  0  0
  184.0070  175.9940  137.9440 C   0  0  0  0  0  1  0  0  0  0  0  0
  184.5310  175.6090  134.3460 C   0  0  0  0  0  1  0  0  0  0  0  0
  185.3230  176.6560  135.1090 C   0  0  2  0  0  3  0  0  0  0  0  0
  184.9680  176.9560  137.2690 C   0  0  0  0  0  0  0  0  0  0  0  0
  186.3960  176.0210  135.8550 N   0  0  2  0  0  0  0  0  0  0  0  0
  185.0820  178.2070  138.1170 C   0  0  0  0  0  1  0  0  0  0  0  0
  184.4800  177.3030  136.0060 O   0  0  0  0  0  0  0  0  0  0  0  0
  186.2330  176.3590  137.1630 O   0  0  0  0  0  0  0  0  0  0  0  0
  188.7240  174.3350  136.0660 C   0  0  0  0  0  0  0  0  0  0  0  0
  189.3380  173.9780  137.1960 C   0  0  0  0  0  2  0  0  0  0  0  0
  188.0190  173.3990  135.3010 O   0  0  0  0  0  0  0  0  0  0  0  0
  188.4370  172.0490  135.1420 C   0  0  0  0  0  1  0  0  0  0  0  0
  190.2010  177.4430  139.7480 C   0  0  2  0  0  3  0  0  0  0  0  0
  192.4010  176.8080  138.7730 C   0  0  0  0  0  1  0  0  0  0  0  0
  190.9900  176.3390  139.0670 C   0  0  0  0  0  2  0  0  0  0  0  0
  189.4190  176.9060  140.7760 O   0  0  0  0  0  0  0  0  0  0  0  0
  190.6060  177.1330  142.6970 C   0  0  1  0  0  3  0  0  0  0  0  0
  190.2990  176.2410  141.5680 N   0  0  0  0  0  0  0  0  0  0  0  0
  189.7220  175.9940  142.9150 C   0  0  2  0  0  3  0  0  0  0  0  0
  191.8770  176.8360  143.1850 O   0  0  0  0  0  1  0  0  0  0  0  0
  188.2820  176.4760  143.0800 C   0  0  0  0  0  2  0  0  0  0  0  0
  188.2410  177.5070  144.0170 O   0  0  0  0  0  1  0  0  0  0  0  0
  190.0790  176.0470  134.6750 C   0  0  0  0  0  2  0  0  0  0  0  0
  190.9210  174.7980  134.4760 C   0  0  0  0  0  2  0  0  0  0  0  0
  192.7440  173.9330  135.9550 C   0  0  0  0  0  3  0  0  0  0  0  0
  192.2380  174.9600  135.1500 C   0  0  0  0  0  0  0  0  0  0  0  0
  192.9870  176.1250  134.9540 C   0  0  0  0  0  3  0  0  0  0  0  0
  194.9560  177.3990  135.3850 F   0  0  0  0  0  0  0  0  0  0  0  0
  194.7350  175.2440  136.3800 C   0  0  0  0  0  3  0  0  0  0  0  0
  194.2340  176.2690  135.5710 C   0  0  0  0  0  0  0  0  0  0  0  0
  193.9900  174.0760  136.5720 C   0  0  0  0  0  3  0  0  0  0  0  0
  2 29  1  6  0  0  0
  2 15  1  0  0  0  0
  2  5  1  0  0  0  0
  4  3  1  6  0  0  0
  4  2  1  0  0  0  0
  4 11  1  0  0  0  0
  4  5  1  0  0  0  0
  5  6  2  0  0  0  0
  6  1  2  0  0  0  0
  9  8  1  1  0  0  0
  9 11  1  0  0  0  0
  9 13  1  0  0  0  0
 10  7  1  0  0  0  0
 10 12  1  0  0  0  0
 11 14  1  1  0  0  0
 13 10  1  0  0  0  0
 14 10  1  0  0  0  0
 15 16  2  0  0  0  0
 17 15  1  0  0  0  0
 18 17  1  0  0  0  0
 19  1  1  6  0  0  0
 19 22  1  0  0  0  0
 20 21  1  0  0  0  0
 21 19  1  0  0  0  0
 22 24  1  0  0  0  0
 23 25  1  0  0  0  0
 23 26  1  1  0  0  0
 24 23  1  0  0  0  0
 24 25  1  0  0  0  0
 25 27  1  6  0  0  0
 27 28  1  0  0  0  0
 30 29  1  0  0  0  0
 30 32  1  0  0  0  0
 31 37  1  0  0  0  0
 32 31  2  0  0  0  0
 33 32  1  0  0  0  0
 33 36  2  0  0  0  0
 34 36  1  0  0  0  0
 35 37  2  0  0  0  0
 36 35  1  0  0  0  0
M  END
>  <MODEL>
1

>  <REMARK>
 VINA RESULT:      -5.3      0.000      0.000
  Name = 
  11 active torsions:
  status: ('A' for Active; 'I' for Inactive)
    1  A    between atoms: C_1  and  C_5
    2  A    between atoms: C_4  and  C_10
    3  A    between atoms: C_4  and  O_22
    4  A    between atoms: C_5  and  O_17
    5  A    between atoms: C_5  and  C_23
    6  A    between atoms: C_6  and  C_31
    7  A    between atoms: C_7  and  C_33
    8  A    between atoms: C_10  and  C_14
    9  A    between atoms: C_14  and  C_31
   10  A    between atoms: O_17  and  N_26
   11  A    between atoms: C_20  and  N_24
                            x       y       z     vdW  Elec       q    Type
                         _______ _______ _______ _____ _____    ______ ____

>  <TORSDO>
F 11

$$$$
=
 OpenBabel10272415023D

 37 40  0  0  1  0  0  0  0  0999 V2000
  185.2190  179.2540  141.4860 C   0  0  0  0  0  3  0  0  0  0  0  0
  188.9750  177.9010  141.9600 C   0  0  1  0  0  0  0  0  0  0  0  0
  189.5730  179.3780  139.9240 C   0  0  0  0  0  1  0  0  0  0  0  0
  188.9630  178.1140  140.5320 C   0  0  2  0  0  0  0  0  0  0  0  0
  187.6860  178.4340  141.3190 C   0  0  0  0  0  0  0  0  0  0  0  0
  186.4520  178.8440  141.3950 C   0  0  0  0  0  0  0  0  0  0  0  0
  187.2670  175.5470  137.2420 C   0  0  0  0  0  1  0  0  0  0  0  0
  190.6260  175.7080  138.6760 C   0  0  0  0  0  1  0  0  0  0  0  0
  189.7810  176.9660  138.6100 C   0  0  2  0  0  3  0  0  0  0  0  0
  187.7770  176.9080  137.6810 C   0  0  0  0  0  0  0  0  0  0  0  0
  188.7760  176.9450  139.6590 N   0  0  2  0  0  0  0  0  0  0  0  0
  187.0120  177.9800  136.9320 C   0  0  0  0  0  1  0  0  0  0  0  0
  189.1370  177.0220  137.3790 O   0  0  0  0  0  0  0  0  0  0  0  0
  187.5610  177.0700  139.0570 O   0  0  0  0  0  0  0  0  0  0  0  0
  188.8550  176.5020  142.5060 C   0  0  0  0  0  0  0  0  0  0  0  0
  187.8450  176.1810  143.3180 C   0  0  0  0  0  2  0  0  0  0  0  0
  189.8670  175.5810  142.2150 O   0  0  0  0  0  0  0  0  0  0  0  0
  190.6320  174.9210  143.2170 C   0  0  0  0  0  1  0  0  0  0  0  0
  184.3780  178.8130  142.6300 C   0  0  2  0  0  3  0  0  0  0  0  0
  185.3260  178.7170  144.9300 C   0  0  0  0  0  1  0  0  0  0  0  0
  185.2220  178.0020  143.5970 C   0  0  0  0  0  2  0  0  0  0  0  0
  183.3170  178.0360  142.1550 O   0  0  0  0  0  0  0  0  0  0  0  0
  181.9390  177.7460  140.3750 C   0  0  1  0  0  3  0  0  0  0  0  0
  182.9900  178.5940  140.9610 N   0  0  0  0  0  0  0  0  0  0  0  0
  181.5700  179.0330  140.9500 C   0  0  2  0  0  3  0  0  0  0  0  0
  181.9860  177.8530  138.9860 O   0  0  0  0  0  1  0  0  0  0  0  0
  180.8360  178.8220  142.2720 C   0  0  0  0  0  2  0  0  0  0  0  0
  180.6040  180.0560  142.8790 O   0  0  0  0  0  1  0  0  0  0  0  0
  189.6350  178.9450  142.8560 C   0  0  0  0  0  2  0  0  0  0  0  0
  190.9090  178.3940  143.4710 C   0  0  0  0  0  2  0  0  0  0  0  0
  189.4320  178.2480  145.4850 C   0  0  0  0  0  3  0  0  0  0  0  0
  190.6470  177.9370  144.8630 C   0  0  0  0  0  0  0  0  0  0  0  0
  191.6020  177.1710  145.5400 C   0  0  0  0  0  3  0  0  0  0  0  0
  192.2730  175.9870  147.4980 F   0  0  0  0  0  0  0  0  0  0  0  0
  190.1350  177.0400  147.4630 C   0  0  0  0  0  3  0  0  0  0  0  0
  191.3470  176.7250  146.8410 C   0  0  0  0  0  0  0  0  0  0  0  0
  189.1780  177.8020  146.7850 C   0  0  0  0  0  3  0  0  0  0  0  0
  2 15  1  0  0  0  0
  2 29  1  1  0  0  0
  4  3  1  6  0  0  0
  4  5  1  0  0  0  0
  4  2  1  0  0  0  0
  5  6  2  0  0  0  0
  5  2  1  0  0  0  0
  6  1  2  0  0  0  0
  7 10  1  0  0  0  0
  9  8  1  6  0  0  0
  9 11  1  0  0  0  0
 10 14  1  0  0  0  0
 11 14  1  6  0  0  0
 11  4  1  0  0  0  0
 12 10  1  0  0  0  0
 13 10  1  0  0  0  0
 13  9  1  0  0  0  0
 15 16  2  0  0  0  0
 17 15  1  0  0  0  0
 17 18  1  0  0  0  0
 19  1  1  6  0  0  0
 19 21  1  0  0  0  0
 21 20  1  0  0  0  0
 22 19  1  0  0  0  0
 23 26  1  6  0  0  0
 23 25  1  0  0  0  0
 23 24  1  0  0  0  0
 24 22  1  0  0  0  0
 25 24  1  0  0  0  0
 25 27  1  1  0  0  0
 27 28  1  0  0  0  0
 29 30  1  0  0  0  0
 30 32  1  0  0  0  0
 31 37  1  0  0  0  0
 32 31  2  0  0  0  0
 32 33  1  0  0  0  0
 33 36  2  0  0  0  0
 36 35  1  0  0  0  0
 36 34  1  0  0  0  0
 37 35  2  0  0  0  0
M  END
>  <MODEL>
2

>  <REMARK>
 VINA RESULT:      -5.2      4.021      7.989
  Name = 
  11 active torsions:
  status: ('A' for Active; 'I' for Inactive)
    1  A    between atoms: C_1  and  C_5
    2  A    between atoms: C_4  and  C_10
    3  A    between atoms: C_4  and  O_22
    4  A    between atoms: C_5  and  O_17
    5  A    between atoms: C_5  and  C_23
    6  A    between atoms: C_6  and  C_31
    7  A    between atoms: C_7  and  C_33
    8  A    between atoms: C_10  and  C_14
    9  A    between atoms: C_14  and  C_31
   10  A    between atoms: O_17  and  N_26
   11  A    between atoms: C_20  and  N_24
                            x       y       z     vdW  Elec       q    Type
                         _______ _______ _______ _____ _____    ______ ____

>  <TORSDO>
F 11

$$$$
=
 OpenBabel10272415023D

 37 40  0  0  1  0  0  0  0  0999 V2000
  185.0700  178.6730  140.9910 C   0  0  0  0  0  3  0  0  0  0  0  0
  188.8290  177.8380  142.1450 C   0  0  1  0  0  0  0  0  0  0  0  0
  189.5690  179.5410  140.3460 C   0  0  0  0  0  1  0  0  0  0  0  0
  189.0580  178.1580  140.7560 C   0  0  2  0  0  0  0  0  0  0  0  0
  187.6190  178.2290  141.2850 C   0  0  0  0  0  0  0  0  0  0  0  0
  186.3460  178.4520  141.1300 C   0  0  0  0  0  0  0  0  0  0  0  0
  188.3930  175.6040  137.1060 C   0  0  0  0  0  1  0  0  0  0  0  0
  191.4010  176.2270  139.0880 C   0  0  0  0  0  1  0  0  0  0  0  0
  190.3620  177.3230  138.9440 C   0  0  2  0  0  3  0  0  0  0  0  0
  188.5720  176.9950  137.6900 C   0  0  0  0  0  0  0  0  0  0  0  0
  189.2250  177.0470  139.8070 N   0  0  2  0  0  0  0  0  0  0  0  0
  187.7500  177.9750  136.8780 C   0  0  0  0  0  1  0  0  0  0  0  0
  189.9180  177.3640  137.6260 O   0  0  0  0  0  0  0  0  0  0  0  0
  188.1180  177.0080  139.0170 O   0  0  0  0  0  0  0  0  0  0  0  0
  188.8260  176.3970  142.5870 C   0  0  0  0  0  0  0  0  0  0  0  0
  187.8340  175.9290  143.3470 C   0  0  0  0  0  2  0  0  0  0  0  0
  189.9230  175.5940  142.2570 O   0  0  0  0  0  0  0  0  0  0  0  0
  190.8020  175.0380  143.2280 C   0  0  0  0  0  1  0  0  0  0  0  0
  184.1040  178.0280  141.9200 C   0  0  2  0  0  3  0  0  0  0  0  0
  181.9170  178.3540  140.7750 C   0  0  0  0  0  1  0  0  0  0  0  0
  182.8020  178.8080  141.9190 C   0  0  0  0  0  2  0  0  0  0  0  0
  184.6450  178.0020  143.2080 O   0  0  0  0  0  0  0  0  0  0  0  0
  183.6050  178.6710  145.1120 C   0  0  1  0  0  3  0  0  0  0  0  0
  184.1450  179.1090  143.8150 N   0  0  0  0  0  0  0  0  0  0  0  0
  184.8690  179.3960  145.0800 C   0  0  2  0  0  3  0  0  0  0  0  0
  182.5820  179.5360  145.4980 O   0  0  0  0  0  1  0  0  0  0  0  0
  186.0250  178.4420  145.3740 C   0  0  0  0  0  2  0  0  0  0  0  0
  185.9740  178.0480  146.7100 O   0  0  0  0  0  1  0  0  0  0  0  0
  189.1340  178.8910  143.2050 C   0  0  0  0  0  2  0  0  0  0  0  0
  190.5480  178.7250  143.7340 C   0  0  0  0  0  2  0  0  0  0  0  0
  189.3860  178.0670  145.8500 C   0  0  0  0  0  3  0  0  0  0  0  0
  190.5240  178.0050  145.0360 C   0  0  0  0  0  0  0  0  0  0  0  0
  191.6250  177.2390  145.4340 C   0  0  0  0  0  3  0  0  0  0  0  0
  192.6620  175.8090  147.0350 F   0  0  0  0  0  0  0  0  0  0  0  0
  190.4590  176.6130  147.4630 C   0  0  0  0  0  3  0  0  0  0  0  0
  191.5940  176.5460  146.6490 C   0  0  0  0  0  0  0  0  0  0  0  0
  189.3560  177.3740  147.0630 C   0  0  0  0  0  3  0  0  0  0  0  0
  1  6  2  0  0  0  0
  2 15  1  0  0  0  0
  2 29  1  1  0  0  0
  4  3  1  6  0  0  0
  4  5  1  0  0  0  0
  4  2  1  0  0  0  0
  5  2  1  0  0  0  0
  6  5  2  0  0  0  0
  7 10  1  0  0  0  0
  9  8  1  6  0  0  0
  9 11  1  0  0  0  0
 10 14  1  0  0  0  0
 11 14  1  6  0  0  0
 11  4  1  0  0  0  0
 12 10  1  0  0  0  0
 13 10  1  0  0  0  0
 13  9  1  0  0  0  0
 15 16  2  0  0  0  0
 17 15  1  0  0  0  0
 17 18  1  0  0  0  0
 19  1  1  6  0  0  0
 19 22  1  0  0  0  0
 20 21  1  0  0  0  0
 21 19  1  0  0  0  0
 22 24  1  0  0  0  0
 23 26  1  1  0  0  0
 24 25  1  0  0  0  0
 24 23  1  0  0  0  0
 25 23  1  0  0  0  0
 25 27  1  6  0  0  0
 27 28  1  0  0  0  0
 29 30  1  0  0  0  0
 30 32  1  0  0  0  0
 31 37  1  0  0  0  0
 32 33  1  0  0  0  0
 32 31  2  0  0  0  0
 33 36  2  0  0  0  0
 36 34  1  0  0  0  0
 36 35  1  0  0  0  0
 37 35  2  0  0  0  0
M  END
>  <MODEL>
3

>  <REMARK>
 VINA RESULT:      -5.0      3.828      7.832
  Name = 
  11 active torsions:
  status: ('A' for Active; 'I' for Inactive)
    1  A    between atoms: C_1  and  C_5
    2  A    between atoms: C_4  and  C_10
    3  A    between atoms: C_4  and  O_22
    4  A    between atoms: C_5  and  O_17
    5  A    between atoms: C_5  and  C_23
    6  A    between atoms: C_6  and  C_31
    7  A    between atoms: C_7  and  C_33
    8  A    between atoms: C_10  and  C_14
    9  A    between atoms: C_14  and  C_31
   10  A    between atoms: O_17  and  N_26
   11  A    between atoms: C_20  and  N_24
                            x       y       z     vdW  Elec       q    Type
                         _______ _______ _______ _____ _____    ______ ____

>  <TORSDO>
F 11

$$$$
=
 OpenBabel10272415023D

 37 40  0  0  1  0  0  0  0  0999 V2000
  185.1620  179.2980  141.3730 C   0  0  0  0  0  3  0  0  0  0  0  0
  188.6440  177.7610  142.6660 C   0  0  1  0  0  0  0  0  0  0  0  0
  189.7770  179.4700  141.0910 C   0  0  0  0  0  1  0  0  0  0  0  0
  189.0250  178.1590  141.3310 C   0  0  2  0  0  0  0  0  0  0  0  0
  187.5800  178.4190  141.7760 C   0  0  0  0  0  0  0  0  0  0  0  0
  186.3730  178.8600  141.5680 C   0  0  0  0  0  0  0  0  0  0  0  0
  188.0880  175.9780  137.5040 C   0  0  0  0  0  1  0  0  0  0  0  0
  191.1780  176.2100  139.4440 C   0  0  0  0  0  1  0  0  0  0  0  0
  190.2210  177.3860  139.4200 C   0  0  2  0  0  3  0  0  0  0  0  0
  188.3840  177.2970  138.1960 C   0  0  0  0  0  0  0  0  0  0  0  0
  189.0870  177.1220  140.2900 N   0  0  2  0  0  0  0  0  0  0  0  0
  187.6200  178.4000  137.4900 C   0  0  0  0  0  1  0  0  0  0  0  0
  189.7530  177.5700  138.1240 O   0  0  0  0  0  0  0  0  0  0  0  0
  187.9620  177.2310  139.5320 O   0  0  0  0  0  0  0  0  0  0  0  0
  188.3810  176.3070  142.9630 C   0  0  0  0  0  0  0  0  0  0  0  0
  187.2860  175.9460  143.6370 C   0  0  0  0  0  2  0  0  0  0  0  0
  189.3460  175.3640  142.5960 O   0  0  0  0  0  0  0  0  0  0  0  0
  190.7000  175.4250  143.0310 C   0  0  0  0  0  1  0  0  0  0  0  0
  184.0390  178.7410  142.1730 C   0  0  2  0  0  3  0  0  0  0  0  0
  183.6820  178.8020  144.6360 C   0  0  0  0  0  1  0  0  0  0  0  0
  184.5600  178.2720  143.5200 C   0  0  0  0  0  2  0  0  0  0  0  0
  183.4630  177.6700  141.4840 O   0  0  0  0  0  0  0  0  0  0  0  0
  182.2060  178.5810  139.8280 C   0  0  1  0  0  3  0  0  0  0  0  0
  182.1960  178.0770  141.2110 N   0  0  0  0  0  0  0  0  0  0  0  0
  181.6090  177.2800  140.1020 C   0  0  2  0  0  3  0  0  0  0  0  0
  181.1990  179.5340  139.6800 O   0  0  0  0  0  1  0  0  0  0  0  0
  182.5160  176.1690  139.5760 C   0  0  0  0  0  2  0  0  0  0  0  0
  183.0510  176.5490  138.3460 O   0  0  0  0  0  1  0  0  0  0  0  0
  189.0300  178.6540  143.8410 C   0  0  0  0  0  2  0  0  0  0  0  0
  189.7290  177.8460  144.9210 C   0  0  0  0  0  2  0  0  0  0  0  0
  189.6250  177.8500  147.4200 C   0  0  0  0  0  3  0  0  0  0  0  0
  188.9590  177.9190  146.1910 C   0  0  0  0  0  0  0  0  0  0  0  0
  187.5700  178.0860  146.1600 C   0  0  0  0  0  3  0  0  0  0  0  0
  185.5030  178.3340  147.3220 F   0  0  0  0  0  0  0  0  0  0  0  0
  187.5150  178.1020  148.5810 C   0  0  0  0  0  3  0  0  0  0  0  0
  186.8480  178.1750  147.3540 C   0  0  0  0  0  0  0  0  0  0  0  0
  188.9030  177.9390  148.6130 C   0  0  0  0  0  3  0  0  0  0  0  0
  1  6  2  0  0  0  0
  2 15  1  0  0  0  0
  2 29  1  1  0  0  0
  4  3  1  6  0  0  0
  4  5  1  0  0  0  0
  4  2  1  0  0  0  0
  5  2  1  0  0  0  0
  6  5  2  0  0  0  0
  7 10  1  0  0  0  0
  9  8  1  6  0  0  0
  9 11  1  0  0  0  0
 10 14  1  0  0  0  0
 11 14  1  6  0  0  0
 11  4  1  0  0  0  0
 12 10  1  0  0  0  0
 13 10  1  0  0  0  0
 13  9  1  0  0  0  0
 15 16  2  0  0  0  0
 17 15  1  0  0  0  0
 17 18  1  0  0  0  0
 19  1  1  6  0  0  0
 19 21  1  0  0  0  0
 21 20  1  0  0  0  0
 22 19  1  0  0  0  0
 23 26  1  1  0  0  0
 23 25  1  0  0  0  0
 23 24  1  0  0  0  0
 24 22  1  0  0  0  0
 25 27  1  6  0  0  0
 25 24  1  0  0  0  0
 28 27  1  0  0  0  0
 29 30  1  0  0  0  0
 30 32  1  0  0  0  0
 31 37  1  0  0  0  0
 32 31  2  0  0  0  0
 33 32  1  0  0  0  0
 33 36  2  0  0  0  0
 34 36  1  0  0  0  0
 35 37  2  0  0  0  0
 36 35  1  0  0  0  0
M  END
>  <MODEL>
4

>  <REMARK>
 VINA RESULT:      -5.0      4.228      8.858
  Name = 
  11 active torsions:
  status: ('A' for Active; 'I' for Inactive)
    1  A    between atoms: C_1  and  C_5
    2  A    between atoms: C_4  and  C_10
    3  A    between atoms: C_4  and  O_22
    4  A    between atoms: C_5  and  O_17
    5  A    between atoms: C_5  and  C_23
    6  A    between atoms: C_6  and  C_31
    7  A    between atoms: C_7  and  C_33
    8  A    between atoms: C_10  and  C_14
    9  A    between atoms: C_14  and  C_31
   10  A    between atoms: O_17  and  N_26
   11  A    between atoms: C_20  and  N_24
                            x       y       z     vdW  Elec       q    Type
                         _______ _______ _______ _____ _____    ______ ____

>  <TORSDO>
F 11

$$$$
=
 OpenBabel10272415023D

 37 40  0  0  1  0  0  0  0  0999 V2000
  189.6640  176.9160  141.2020 C   0  0  0  0  0  3  0  0  0  0  0  0
  188.3620  176.9830  137.4000 C   0  0  1  0  0  0  0  0  0  0  0  0
  188.9970  174.4780  137.3270 C   0  0  0  0  0  1  0  0  0  0  0  0
  189.3760  175.9600  137.3000 C   0  0  2  0  0  0  0  0  0  0  0  0
  189.1480  176.6180  138.6670 C   0  0  0  0  0  0  0  0  0  0  0  0
  189.4110  176.7620  139.9340 C   0  0  0  0  0  0  0  0  0  0  0  0
  193.8410  176.0260  136.7140 C   0  0  0  0  0  1  0  0  0  0  0  0
  191.0990  176.5150  134.3460 C   0  0  0  0  0  1  0  0  0  0  0  0
  190.9130  175.5720  135.5200 C   0  0  2  0  0  3  0  0  0  0  0  0
  192.5810  175.2040  136.9220 C   0  0  0  0  0  0  0  0  0  0  0  0
  190.6820  176.3320  136.7370 N   0  0  2  0  0  0  0  0  0  0  0  0
  192.9310  173.9690  137.7280 C   0  0  0  0  0  1  0  0  0  0  0  0
  192.0650  174.8110  135.6840 O   0  0  0  0  0  0  0  0  0  0  0  0
  191.6380  175.9620  137.6320 O   0  0  0  0  0  0  0  0  0  0  0  0
  188.6470  178.3680  136.8790 C   0  0  0  0  0  0  0  0  0  0  0  0
  188.8870  179.3690  137.7280 C   0  0  0  0  0  2  0  0  0  0  0  0
  188.5670  178.5940  135.5010 O   0  0  0  0  0  0  0  0  0  0  0  0
  187.8030  177.7770  134.6210 C   0  0  0  0  0  1  0  0  0  0  0  0
  189.3350  178.2040  141.8690 C   0  0  2  0  0  3  0  0  0  0  0  0
  191.6320  177.6360  142.6400 C   0  0  0  0  0  1  0  0  0  0  0  0
  190.4820  178.6140  142.7740 C   0  0  0  0  0  2  0  0  0  0  0  0
  188.1650  178.0530  142.6190 O   0  0  0  0  0  0  0  0  0  0  0  0
  188.4820  177.6750  144.8350 C   0  0  1  0  0  3  0  0  0  0  0  0
  188.4460  177.0580  143.4990 N   0  0  0  0  0  0  0  0  0  0  0  0
  187.3280  176.8660  144.4610 C   0  0  2  0  0  3  0  0  0  0  0  0
  189.3230  176.9320  145.6610 O   0  0  0  0  0  1  0  0  0  0  0  0
  186.1200  177.7670  144.2090 C   0  0  0  0  0  2  0  0  0  0  0  0
  185.8650  178.5320  145.3460 O   0  0  0  0  0  1  0  0  0  0  0  0
  186.8990  176.5640  137.5010 C   0  0  0  0  0  2  0  0  0  0  0  0
  185.9850  177.7670  137.3470 C   0  0  0  0  0  2  0  0  0  0  0  0
  183.9520  177.4090  138.7610 C   0  0  0  0  0  3  0  0  0  0  0  0
  185.2170  177.9880  138.6020 C   0  0  0  0  0  0  0  0  0  0  0  0
  185.7700  178.7480  139.6380 C   0  0  0  0  0  3  0  0  0  0  0  0
  185.5910  179.6780  141.8260 F   0  0  0  0  0  0  0  0  0  0  0  0
  183.7910  178.3640  140.9800 C   0  0  0  0  0  3  0  0  0  0  0  0
  185.0560  178.9390  140.8260 C   0  0  0  0  0  0  0  0  0  0  0  0
  183.2390  177.5990  139.9470 C   0  0  0  0  0  3  0  0  0  0  0  0
  2 29  1  6  0  0  0
  2  5  1  0  0  0  0
  4  3  1  6  0  0  0
  4  2  1  0  0  0  0
  4  5  1  0  0  0  0
  5  6  2  0  0  0  0
  6  1  2  0  0  0  0
  7 10  1  0  0  0  0
  9  8  1  6  0  0  0
  9 13  1  0  0  0  0
  9 11  1  0  0  0  0
 10 14  1  0  0  0  0
 10 12  1  0  0  0  0
 11  4  1  0  0  0  0
 11 14  1  1  0  0  0
 13 10  1  0  0  0  0
 15  2  1  0  0  0  0
 15 16  2  0  0  0  0
 17 15  1  0  0  0  0
 18 17  1  0  0  0  0
 19  1  1  1  0  0  0
 19 22  1  0  0  0  0
 19 21  1  0  0  0  0
 20 21  1  0  0  0  0
 22 24  1  0  0  0  0
 23 26  1  1  0  0  0
 24 25  1  0  0  0  0
 24 23  1  0  0  0  0
 25 27  1  6  0  0  0
 25 23  1  0  0  0  0
 27 28  1  0  0  0  0
 30 29  1  0  0  0  0
 30 32  1  0  0  0  0
 31 37  1  0  0  0  0
 32 31  2  0  0  0  0
 32 33  1  0  0  0  0
 33 36  2  0  0  0  0
 36 35  1  0  0  0  0
 36 34  1  0  0  0  0
 37 35  2  0  0  0  0
M  END
>  <MODEL>
5

>  <REMARK>
 VINA RESULT:      -4.9      2.932      6.453
  Name = 
  11 active torsions:
  status: ('A' for Active; 'I' for Inactive)
    1  A    between atoms: C_1  and  C_5
    2  A    between atoms: C_4  and  C_10
    3  A    between atoms: C_4  and  O_22
    4  A    between atoms: C_5  and  O_17
    5  A    between atoms: C_5  and  C_23
    6  A    between atoms: C_6  and  C_31
    7  A    between atoms: C_7  and  C_33
    8  A    between atoms: C_10  and  C_14
    9  A    between atoms: C_14  and  C_31
   10  A    between atoms: O_17  and  N_26
   11  A    between atoms: C_20  and  N_24
                            x       y       z     vdW  Elec       q    Type
                         _______ _______ _______ _____ _____    ______ ____

>  <TORSDO>
F 11

$$$$
=
 OpenBabel10272415023D

 37 40  0  0  1  0  0  0  0  0999 V2000
  185.1990  178.6850  140.6820 C   0  0  0  0  0  3  0  0  0  0  0  0
  188.9050  177.8630  142.0050 C   0  0  1  0  0  0  0  0  0  0  0  0
  189.7310  179.4310  140.1230 C   0  0  0  0  0  1  0  0  0  0  0  0
  189.1820  178.0870  140.6050 C   0  0  2  0  0  0  0  0  0  0  0  0
  187.7300  178.2180  141.0830 C   0  0  0  0  0  0  0  0  0  0  0  0
  186.4660  178.4520  140.8750 C   0  0  0  0  0  0  0  0  0  0  0  0
  188.4720  175.2330  137.1950 C   0  0  0  0  0  1  0  0  0  0  0  0
  191.5330  176.1280  138.9820 C   0  0  0  0  0  1  0  0  0  0  0  0
  190.4410  177.1670  138.8040 C   0  0  2  0  0  3  0  0  0  0  0  0
  188.6150  176.6700  137.6630 C   0  0  0  0  0  0  0  0  0  0  0  0
  189.3560  176.9130  139.7380 N   0  0  2  0  0  0  0  0  0  0  0  0
  187.7170  177.5510  136.8180 C   0  0  0  0  0  1  0  0  0  0  0  0
  189.9400  177.0870  137.5090 O   0  0  0  0  0  0  0  0  0  0  0  0
  188.2180  176.7690  139.0050 O   0  0  0  0  0  0  0  0  0  0  0  0
  188.8610  176.4550  142.5400 C   0  0  0  0  0  0  0  0  0  0  0  0
  187.8580  176.0670  143.3300 C   0  0  0  0  0  2  0  0  0  0  0  0
  189.9330  175.6000  142.2620 O   0  0  0  0  0  0  0  0  0  0  0  0
  190.7670  175.0440  143.2710 C   0  0  0  0  0  1  0  0  0  0  0  0
  184.1930  178.1190  141.6200 C   0  0  2  0  0  3  0  0  0  0  0  0
  183.2840  177.6290  139.3550 C   0  0  0  0  0  1  0  0  0  0  0  0
  182.9780  177.6540  140.8390 C   0  0  0  0  0  2  0  0  0  0  0  0
  183.8200  179.0970  142.5470 O   0  0  0  0  0  0  0  0  0  0  0  0
  183.7030  179.5160  144.7750 C   0  0  1  0  0  3  0  0  0  0  0  0
  183.8910  178.4740  143.7520 N   0  0  0  0  0  0  0  0  0  0  0  0
  182.6070  178.5970  144.4900 C   0  0  2  0  0  3  0  0  0  0  0  0
  184.3440  179.1260  145.9490 O   0  0  0  0  0  1  0  0  0  0  0  0
  181.5050  179.3220  143.7210 C   0  0  0  0  0  2  0  0  0  0  0  0
  180.4380  178.4520  143.5040 O   0  0  0  0  0  1  0  0  0  0  0  0
  189.1980  178.9790  143.0030 C   0  0  0  0  0  2  0  0  0  0  0  0
  190.5490  178.7650  143.6640 C   0  0  0  0  0  2  0  0  0  0  0  0
  189.1550  178.2500  145.6760 C   0  0  0  0  0  3  0  0  0  0  0  0
  190.3700  178.1200  144.9930 C   0  0  0  0  0  0  0  0  0  0  0  0
  191.4040  177.3580  145.5470 C   0  0  0  0  0  3  0  0  0  0  0  0
  192.2310  176.0010  147.3250 F   0  0  0  0  0  0  0  0  0  0  0  0
  190.0150  176.8700  147.4710 C   0  0  0  0  0  3  0  0  0  0  0  0
  191.2280  176.7350  146.7870 C   0  0  0  0  0  0  0  0  0  0  0  0
  188.9790  177.6270  146.9150 C   0  0  0  0  0  3  0  0  0  0  0  0
  1  6  2  0  0  0  0
  2 15  1  0  0  0  0
  2 29  1  1  0  0  0
  4  3  1  6  0  0  0
  4  5  1  0  0  0  0
  4  2  1  0  0  0  0
  5  2  1  0  0  0  0
  6  5  2  0  0  0  0
  7 10  1  0  0  0  0
  9  8  1  6  0  0  0
  9 11  1  0  0  0  0
 10 14  1  0  0  0  0
 11 14  1  6  0  0  0
 11  4  1  0  0  0  0
 12 10  1  0  0  0  0
 13 10  1  0  0  0  0
 13  9  1  0  0  0  0
 15 16  2  0  0  0  0
 17 15  1  0  0  0  0
 17 18  1  0  0  0  0
 19  1  1  6  0  0  0
 19 22  1  0  0  0  0
 20 21  1  0  0  0  0
 21 19  1  0  0  0  0
 22 24  1  0  0  0  0
 23 26  1  1  0  0  0
 24 25  1  0  0  0  0
 24 23  1  0  0  0  0
 25 27  1  6  0  0  0
 25 23  1  0  0  0  0
 28 27  1  0  0  0  0
 29 30  1  0  0  0  0
 30 32  1  0  0  0  0
 31 37  1  0  0  0  0
 32 33  1  0  0  0  0
 32 31  2  0  0  0  0
 33 36  2  0  0  0  0
 36 34  1  0  0  0  0
 36 35  1  0  0  0  0
 37 35  2  0  0  0  0
M  END
>  <MODEL>
6

>  <REMARK>
 VINA RESULT:      -4.9      4.076      7.925
  Name = 
  11 active torsions:
  status: ('A' for Active; 'I' for Inactive)
    1  A    between atoms: C_1  and  C_5
    2  A    between atoms: C_4  and  C_10
    3  A    between atoms: C_4  and  O_22
    4  A    between atoms: C_5  and  O_17
    5  A    between atoms: C_5  and  C_23
    6  A    between atoms: C_6  and  C_31
    7  A    between atoms: C_7  and  C_33
    8  A    between atoms: C_10  and  C_14
    9  A    between atoms: C_14  and  C_31
   10  A    between atoms: O_17  and  N_26
   11  A    between atoms: C_20  and  N_24
                            x       y       z     vdW  Elec       q    Type
                         _______ _______ _______ _____ _____    ______ ____

>  <TORSDO>
F 11

$$$$
=
 OpenBabel10272415023D

 37 40  0  0  1  0  0  0  0  0999 V2000
  187.0360  174.3230  136.9650 C   0  0  0  0  0  3  0  0  0  0  0  0
  183.8340  176.7510  136.8740 C   0  0  1  0  0  0  0  0  0  0  0  0
  182.9230  175.3280  138.8310 C   0  0  0  0  0  1  0  0  0  0  0  0
  183.2130  175.5340  137.3430 C   0  0  2  0  0  0  0  0  0  0  0  0
  184.7210  175.5130  137.0610 C   0  0  0  0  0  0  0  0  0  0  0  0
  185.8750  174.9110  137.0150 C   0  0  0  0  0  0  0  0  0  0  0  0
  182.0580  171.9440  134.8820 C   0  0  0  0  0  1  0  0  0  0  0  0
  180.0450  174.6780  136.2350 C   0  0  0  0  0  1  0  0  0  0  0  0
  181.2670  174.2030  136.9970 C   0  0  2  0  0  3  0  0  0  0  0  0
  182.4560  172.5030  136.2360 C   0  0  0  0  0  0  0  0  0  0  0  0
  182.4740  174.7150  136.3710 N   0  0  2  0  0  0  0  0  0  0  0  0
  183.2570  171.4540  136.9820 C   0  0  0  0  0  1  0  0  0  0  0  0
  181.3100  172.8130  136.9740 O   0  0  0  0  0  0  0  0  0  0  0  0
  183.2530  173.6440  136.0570 O   0  0  0  0  0  0  0  0  0  0  0  0
  183.6610  177.1710  135.4370 C   0  0  0  0  0  0  0  0  0  0  0  0
  182.5000  177.6820  135.0210 C   0  0  0  0  0  2  0  0  0  0  0  0
  184.7070  176.9320  134.5400 O   0  0  0  0  0  0  0  0  0  0  0  0
  185.8930  177.7180  134.4990 C   0  0  0  0  0  1  0  0  0  0  0  0
  188.0900  174.8470  136.0560 C   0  0  2  0  0  3  0  0  0  0  0  0
  188.7720  172.4590  135.8950 C   0  0  0  0  0  1  0  0  0  0  0  0
  189.2640  173.8860  136.0330 C   0  0  0  0  0  2  0  0  0  0  0  0
  188.5090  176.1030  136.5060 O   0  0  0  0  0  0  0  0  0  0  0  0
  190.2520  176.9480  137.6900 C   0  0  1  0  0  3  0  0  0  0  0  0
  189.2910  175.8380  137.5850 N   0  0  0  0  0  0  0  0  0  0  0  0
  189.1360  176.8890  138.6250 C   0  0  2  0  0  3  0  0  0  0  0  0
  191.4100  176.4940  138.3180 O   0  0  0  0  0  1  0  0  0  0  0  0
  188.1100  177.9670  138.2820 C   0  0  0  0  0  2  0  0  0  0  0  0
  188.7590  179.1880  138.1090 O   0  0  0  0  0  1  0  0  0  0  0  0
  184.1690  177.8450  137.8840 C   0  0  0  0  0  2  0  0  0  0  0  0
  182.9250  178.6380  138.2470 C   0  0  0  0  0  2  0  0  0  0  0  0
  181.5200  178.9790  140.2890 C   0  0  0  0  0  3  0  0  0  0  0  0
  182.7700  178.6920  139.7260 C   0  0  0  0  0  0  0  0  0  0  0  0
  183.8640  178.4270  140.5560 C   0  0  0  0  0  3  0  0  0  0  0  0
  184.7740  178.2060  142.7480 F   0  0  0  0  0  0  0  0  0  0  0  0
  182.4660  178.7500  142.5070 C   0  0  0  0  0  3  0  0  0  0  0  0
  183.7130  178.4590  141.9460 C   0  0  0  0  0  0  0  0  0  0  0  0
  181.3700  179.0110  141.6780 C   0  0  0  0  0  3  0  0  0  0  0  0
  1  6  2  0  0  0  0
  2  5  1  0  0  0  0
  2  4  1  0  0  0  0
  2 29  1  1  0  0  0
  4  3  1  1  0  0  0
  5  4  1  0  0  0  0
  6  5  2  0  0  0  0
  7 10  1  0  0  0  0
  9  8  1  6  0  0  0
 10 13  1  0  0  0  0
 10 12  1  0  0  0  0
 11 14  1  1  0  0  0
 11  9  1  0  0  0  0
 11  4  1  0  0  0  0
 13  9  1  0  0  0  0
 14 10  1  0  0  0  0
 15  2  1  0  0  0  0
 16 15  2  0  0  0  0
 17 15  1  0  0  0  0
 18 17  1  0  0  0  0
 19 21  1  1  0  0  0
 19 22  1  0  0  0  0
 19  1  1  0  0  0  0
 20 21  1  0  0  0  0
 22 24  1  0  0  0  0
 23 26  1  1  0  0  0
 23 25  1  0  0  0  0
 24 23  1  0  0  0  0
 24 25  1  0  0  0  0
 25 27  1  6  0  0  0
 28 27  1  0  0  0  0
 29 30  1  0  0  0  0
 30 32  1  0  0  0  0
 31 37  1  0  0  0  0
 32 31  2  0  0  0  0
 32 33  1  0  0  0  0
 33 36  2  0  0  0  0
 36 35  1  0  0  0  0
 36 34  1  0  0  0  0
 37 35  2  0  0  0  0
M  END
>  <MODEL>
7

>  <REMARK>
 VINA RESULT:      -4.8      3.680      7.490
  Name = 
  11 active torsions:
  status: ('A' for Active; 'I' for Inactive)
    1  A    between atoms: C_1  and  C_5
    2  A    between atoms: C_4  and  C_10
    3  A    between atoms: C_4  and  O_22
    4  A    between atoms: C_5  and  O_17
    5  A    between atoms: C_5  and  C_23
    6  A    between atoms: C_6  and  C_31
    7  A    between atoms: C_7  and  C_33
    8  A    between atoms: C_10  and  C_14
    9  A    between atoms: C_14  and  C_31
   10  A    between atoms: O_17  and  N_26
   11  A    between atoms: C_20  and  N_24
                            x       y       z     vdW  Elec       q    Type
                         _______ _______ _______ _____ _____    ______ ____

>  <TORSDO>
F 11

$$$$
=
 OpenBabel10272415023D

 37 40  0  0  1  0  0  0  0  0999 V2000
  189.3670  176.9210  141.1270 C   0  0  0  0  0  3  0  0  0  0  0  0
  188.2310  176.7210  137.2770 C   0  0  1  0  0  0  0  0  0  0  0  0
  189.2400  174.3400  137.2900 C   0  0  0  0  0  1  0  0  0  0  0  0
  189.3920  175.8620  137.2410 C   0  0  2  0  0  0  0  0  0  0  0  0
  189.0090  176.5030  138.5820 C   0  0  0  0  0  0  0  0  0  0  0  0
  189.1940  176.7080  139.8540 C   0  0  0  0  0  0  0  0  0  0  0  0
  193.8200  176.5350  136.7740 C   0  0  0  0  0  1  0  0  0  0  0  0
  191.0930  176.7120  134.3460 C   0  0  0  0  0  1  0  0  0  0  0  0
  191.0070  175.7250  135.4950 C   0  0  2  0  0  3  0  0  0  0  0  0
  192.6770  175.5480  136.9310 C   0  0  0  0  0  0  0  0  0  0  0  0
  190.6490  176.4180  136.7210 N   0  0  2  0  0  0  0  0  0  0  0  0
  193.1700  174.3520  137.7200 C   0  0  0  0  0  1  0  0  0  0  0  0
  192.2470  175.1200  135.6720 O   0  0  0  0  0  0  0  0  0  0  0  0
  191.6250  176.1560  137.6330 O   0  0  0  0  0  0  0  0  0  0  0  0
  188.3250  178.1230  136.7340 C   0  0  0  0  0  0  0  0  0  0  0  0
  188.9840  179.0640  137.4130 C   0  0  0  0  0  2  0  0  0  0  0  0
  187.6370  178.4310  135.5550 O   0  0  0  0  0  0  0  0  0  0  0  0
  187.7530  177.6660  134.3620 C   0  0  0  0  0  1  0  0  0  0  0  0
  188.8190  178.1570  141.7490 C   0  0  2  0  0  3  0  0  0  0  0  0
  189.7310  177.2280  143.8710 C   0  0  0  0  0  1  0  0  0  0  0  0
  189.5930  178.4720  143.0160 C   0  0  0  0  0  2  0  0  0  0  0  0
  187.4680  177.9650  142.0500 O   0  0  0  0  0  0  0  0  0  0  0  0
  185.5880  178.6340  140.9670 C   0  0  1  0  0  3  0  0  0  0  0  0
  186.8490  179.0800  141.5800 N   0  0  0  0  0  0  0  0  0  0  0  0
  185.5480  179.2950  142.2660 C   0  0  2  0  0  3  0  0  0  0  0  0
  185.2160  179.5380  139.9730 O   0  0  0  0  0  1  0  0  0  0  0  0
  185.2370  178.2760  143.3600 C   0  0  0  0  0  2  0  0  0  0  0  0
  185.0160  178.9410  144.5650 O   0  0  0  0  0  1  0  0  0  0  0  0
  186.8450  176.0860  137.3310 C   0  0  0  0  0  2  0  0  0  0  0  0
  185.7770  177.1480  137.5250 C   0  0  0  0  0  2  0  0  0  0  0  0
  183.5050  176.6370  138.4390 C   0  0  0  0  0  3  0  0  0  0  0  0
  184.4250  176.5420  137.3890 C   0  0  0  0  0  0  0  0  0  0  0  0
  184.0610  175.9020  136.1980 C   0  0  0  0  0  3  0  0  0  0  0  0
  182.4330  174.7280  134.9120 F   0  0  0  0  0  0  0  0  0  0  0  0
  181.8670  175.4410  137.1150 C   0  0  0  0  0  3  0  0  0  0  0  0
  182.7830  175.3500  136.0630 C   0  0  0  0  0  0  0  0  0  0  0  0
  182.2280  176.0850  138.3030 C   0  0  0  0  0  3  0  0  0  0  0  0
  2 29  1  6  0  0  0
  2  5  1  0  0  0  0
  4  2  1  0  0  0  0
  4  3  1  6  0  0  0
  4  5  1  0  0  0  0
  5  6  2  0  0  0  0
  6  1  2  0  0  0  0
  7 10  1  0  0  0  0
  9  8  1  6  0  0  0
  9 13  1  0  0  0  0
  9 11  1  0  0  0  0
 10 14  1  0  0  0  0
 10 12  1  0  0  0  0
 11  4  1  0  0  0  0
 11 14  1  1  0  0  0
 13 10  1  0  0  0  0
 15  2  1  0  0  0  0
 15 16  2  0  0  0  0
 17 15  1  0  0  0  0
 18 17  1  0  0  0  0
 19  1  1  1  0  0  0
 19 22  1  0  0  0  0
 19 21  1  0  0  0  0
 21 20  1  0  0  0  0
 23 26  1  6  0  0  0
 23 24  1  0  0  0  0
 23 25  1  0  0  0  0
 24 22  1  0  0  0  0
 24 25  1  0  0  0  0
 25 27  1  1  0  0  0
 27 28  1  0  0  0  0
 29 30  1  0  0  0  0
 32 30  1  0  0  0  0
 32 31  2  0  0  0  0
 33 32  1  0  0  0  0
 34 36  1  0  0  0  0
 35 37  2  0  0  0  0
 36 33  2  0  0  0  0
 36 35  1  0  0  0  0
 37 31  1  0  0  0  0
M  END
>  <MODEL>
8

>  <REMARK>
 VINA RESULT:      -4.6      3.203      6.839
  Name = 
  11 active torsions:
  status: ('A' for Active; 'I' for Inactive)
    1  A    between atoms: C_1  and  C_5
    2  A    between atoms: C_4  and  C_10
    3  A    between atoms: C_4  and  O_22
    4  A    between atoms: C_5  and  O_17
    5  A    between atoms: C_5  and  C_23
    6  A    between atoms: C_6  and  C_31
    7  A    between atoms: C_7  and  C_33
    8  A    between atoms: C_10  and  C_14
    9  A    between atoms: C_14  and  C_31
   10  A    between atoms: O_17  and  N_26
   11  A    between atoms: C_20  and  N_24
                            x       y       z     vdW  Elec       q    Type
                         _______ _______ _______ _____ _____    ______ ____

>  <TORSDO>
F 11

$$$$
=
 OpenBabel10272415023D

 37 40  0  0  1  0  0  0  0  0999 V2000
  189.5320  177.0100  141.0950 C   0  0  0  0  0  3  0  0  0  0  0  0
  188.4420  176.6960  137.2390 C   0  0  1  0  0  0  0  0  0  0  0  0
  189.4610  174.3210  137.3300 C   0  0  0  0  0  1  0  0  0  0  0  0
  189.6060  175.8420  137.2410 C   0  0  2  0  0  0  0  0  0  0  0  0
  189.2050  176.5190  138.5590 C   0  0  0  0  0  0  0  0  0  0  0  0
  189.3750  176.7600  139.8270 C   0  0  0  0  0  0  0  0  0  0  0  0
  194.0400  176.4550  136.7420 C   0  0  0  0  0  1  0  0  0  0  0  0
  191.2920  176.7260  134.3470 C   0  0  0  0  0  1  0  0  0  0  0  0
  191.2020  175.7160  135.4760 C   0  0  2  0  0  3  0  0  0  0  0  0
  192.8830  175.4830  136.8910 C   0  0  0  0  0  0  0  0  0  0  0  0
  190.8670  176.3890  136.7200 N   0  0  2  0  0  0  0  0  0  0  0  0
  193.3640  174.2630  137.6500 C   0  0  0  0  0  1  0  0  0  0  0  0
  192.4330  175.0880  135.6280 O   0  0  0  0  0  0  0  0  0  0  0  0
  191.8480  176.0930  137.6160 O   0  0  0  0  0  0  0  0  0  0  0  0
  188.5360  178.0830  136.6580 C   0  0  0  0  0  0  0  0  0  0  0  0
  188.7150  179.1360  137.4580 C   0  0  0  0  0  2  0  0  0  0  0  0
  188.3440  178.2460  135.2810 O   0  0  0  0  0  0  0  0  0  0  0  0
  187.0580  178.3010  134.6750 C   0  0  0  0  0  1  0  0  0  0  0  0
  188.9720  178.2600  141.6760 C   0  0  2  0  0  3  0  0  0  0  0  0
  189.7830  178.2920  144.0290 C   0  0  0  0  0  1  0  0  0  0  0  0
  188.5950  178.0210  143.1270 C   0  0  0  0  0  2  0  0  0  0  0  0
  187.8430  178.6460  140.9470 O   0  0  0  0  0  0  0  0  0  0  0  0
  185.9500  179.5460  141.8170 C   0  0  1  0  0  3  0  0  0  0  0  0
  186.7920  178.3410  141.7520 N   0  0  0  0  0  0  0  0  0  0  0  0
  185.5090  178.4180  141.0050 C   0  0  2  0  0  3  0  0  0  0  0  0
  185.2510  179.5520  143.0220 O   0  0  0  0  0  1  0  0  0  0  0  0
  185.6640  178.7520  139.5220 C   0  0  0  0  0  2  0  0  0  0  0  0
  184.8140  179.8060  139.1920 O   0  0  0  0  0  1  0  0  0  0  0  0
  187.0580  176.0560  137.2960 C   0  0  0  0  0  2  0  0  0  0  0  0
  186.8330  175.1580  136.0910 C   0  0  0  0  0  2  0  0  0  0  0  0
  185.6320  173.3780  137.3750 C   0  0  0  0  0  3  0  0  0  0  0  0
  185.6430  174.2930  136.3160 C   0  0  0  0  0  0  0  0  0  0  0  0
  184.5220  174.4160  135.4880 C   0  0  0  0  0  3  0  0  0  0  0  0
  182.3130  173.7330  134.9080 F   0  0  0  0  0  0  0  0  0  0  0  0
  183.3890  172.6990  136.7660 C   0  0  0  0  0  3  0  0  0  0  0  0
  183.3960  173.6170  135.7120 C   0  0  0  0  0  0  0  0  0  0  0  0
  184.5070  172.5800  137.5970 C   0  0  0  0  0  3  0  0  0  0  0  0
  2  4  1  0  0  0  0
  2 29  1  6  0  0  0
  2  5  1  0  0  0  0
  4  3  1  6  0  0  0
  4  5  1  0  0  0  0
  5  6  2  0  0  0  0
  6  1  2  0  0  0  0
  7 10  1  0  0  0  0
  9  8  1  6  0  0  0
  9 13  1  0  0  0  0
  9 11  1  0  0  0  0
 10 14  1  0  0  0  0
 10 12  1  0  0  0  0
 11  4  1  0  0  0  0
 11 14  1  1  0  0  0
 13 10  1  0  0  0  0
 15  2  1  0  0  0  0
 15 16  2  0  0  0  0
 17 15  1  0  0  0  0
 18 17  1  0  0  0  0
 19  1  1  6  0  0  0
 19 21  1  0  0  0  0
 21 20  1  0  0  0  0
 22 19  1  0  0  0  0
 22 24  1  0  0  0  0
 23 26  1  1  0  0  0
 24 23  1  0  0  0  0
 25 27  1  6  0  0  0
 25 24  1  0  0  0  0
 25 23  1  0  0  0  0
 28 27  1  0  0  0  0
 30 32  1  0  0  0  0
 30 29  1  0  0  0  0
 31 37  1  0  0  0  0
 32 31  2  0  0  0  0
 33 36  2  0  0  0  0
 33 32  1  0  0  0  0
 34 36  1  0  0  0  0
 35 37  2  0  0  0  0
 36 35  1  0  0  0  0
M  END
>  <MODEL>
9

>  <REMARK>
 VINA RESULT:      -4.6      3.361      6.596
  Name = 
  11 active torsions:
  status: ('A' for Active; 'I' for Inactive)
    1  A    between atoms: C_1  and  C_5
    2  A    between atoms: C_4  and  C_10
    3  A    between atoms: C_4  and  O_22
    4  A    between atoms: C_5  and  O_17
    5  A    between atoms: C_5  and  C_23
    6  A    between atoms: C_6  and  C_31
    7  A    between atoms: C_7  and  C_33
    8  A    between atoms: C_10  and  C_14
    9  A    between atoms: C_14  and  C_31
   10  A    between atoms: O_17  and  N_26
   11  A    between atoms: C_20  and  N_24
                            x       y       z     vdW  Elec       q    Type
                         _______ _______ _______ _____ _____    ______ ____

>  <TORSDO>
F 11

$$$$
