=
 OpenBabel10272400503D

 25 29  0  0  1  0  0  0  0  0999 V2000
  185.7580  178.5260  144.6360 C   0  0  0  0  0  0  0  0  0  0  0  0
  187.0830  178.0890  144.6810 C   0  0  0  0  0  0  0  0  0  0  0  0
  185.5110  178.2800  147.0290 C   0  0  0  0  0  3  0  0  0  0  0  0
  184.9490  179.0410  143.5020 C   0  0  2  0  0  3  0  0  0  0  0  0
  182.3560  178.7520  142.2820 C   0  0  0  0  0  3  0  0  0  0  0  0
  186.8360  177.8190  147.1010 C   0  0  0  0  0  3  0  0  0  0  0  0
  183.6520  179.3010  144.2250 C   0  0  0  0  0  0  0  0  0  0  0  0
  182.3990  179.3750  143.4670 C   0  0  0  0  0  3  0  0  0  0  0  0
  188.9580  177.2800  145.9630 C   0  0  0  0  0  0  0  0  0  0  0  0
  189.6180  176.8710  147.2380 C   0  0  0  0  0  1  0  0  0  0  0  0
  187.8390  178.0120  143.5570 N   0  0  0  0  0  0  0  0  0  0  0  0
  183.5230  177.9750  141.7850 C   0  0  0  0  0  3  0  0  0  0  0  0
  185.0060  178.6410  145.7810 C   0  0  0  0  0  0  0  0  0  0  0  0
  183.6880  179.0850  145.5040 N   0  0  0  0  0  0  0  0  0  0  0  0
  189.6700  177.2190  144.8070 N   0  0  0  0  0  0  0  0  0  0  0  0
  184.7210  178.0540  142.3870 C   0  0  0  0  0  3  0  0  0  0  0  0
  189.1280  177.5810  143.6100 C   0  0  0  0  0  0  0  0  0  0  0  0
  187.6290  177.7240  145.9330 C   0  0  0  0  0  0  0  0  0  0  0  0
  190.0730  177.4050  139.9520 C   0  0  0  0  0  0  0  0  0  0  0  0
  189.9340  177.5010  142.3770 C   0  0  0  0  0  0  0  0  0  0  0  0
  189.3100  177.4810  141.1200 C   0  0  0  0  0  3  0  0  0  0  0  0
  189.4620  177.3870  138.7440 F   0  0  0  0  0  0  0  0  0  0  0  0
  191.3350  177.4440  142.4460 C   0  0  0  0  0  3  0  0  0  0  0  0
  191.4680  177.3490  140.0310 C   0  0  0  0  0  3  0  0  0  0  0  0
  192.0980  177.3680  141.2770 C   0  0  0  0  0  3  0  0  0  0  0  0
  1  2  2  0  0  0  0
  1 13  1  0  0  0  0
  2 18  1  0  0  0  0
  3  6  1  0  0  0  0
  4 16  1  6  0  0  0
  4  7  1  0  0  0  0
  4  1  1  0  0  0  0
  5  8  2  0  0  0  0
  7 14  2  0  0  0  0
  8  7  1  0  0  0  0
  9 10  1  0  0  0  0
 11 17  2  0  0  0  0
 11  2  1  0  0  0  0
 12  5  1  0  0  0  0
 12 16  2  0  0  0  0
 13  3  2  0  0  0  0
 14 13  1  0  0  0  0
 15  9  2  0  0  0  0
 17 15  1  0  0  0  0
 18  9  1  0  0  0  0
 18  6  2  0  0  0  0
 19 24  2  0  0  0  0
 19 21  1  0  0  0  0
 20 23  1  0  0  0  0
 20 17  1  0  0  0  0
 21 20  2  0  0  0  0
 22 19  1  0  0  0  0
 24 25  1  0  0  0  0
 25 23  2  0  0  0  0
M  END
>  <MODEL>
1

>  <REMARK>
 VINA RESULT:     -10.5      0.000      0.000
  Name = 
  1 active torsions:
  status: ('A' for Active; 'I' for Inactive)
    1  A    between atoms: C_6  and  C_23
                            x       y       z     vdW  Elec       q    Type
                         _______ _______ _______ _____ _____    ______ ____

>  <TORSDO>
F 1

$$$$
=
 OpenBabel10272400503D

 25 29  0  0  1  0  0  0  0  0999 V2000
  185.6550  178.5660  144.3990 C   0  0  0  0  0  0  0  0  0  0  0  0
  186.9760  178.1150  144.3740 C   0  0  0  0  0  0  0  0  0  0  0  0
  185.5470  178.3640  146.8060 C   0  0  0  0  0  3  0  0  0  0  0  0
  184.7870  179.0700  143.3050 C   0  0  2  0  0  3  0  0  0  0  0  0
  182.1240  178.7880  142.2440 C   0  0  0  0  0  3  0  0  0  0  0  0
  186.8690  177.8900  146.8090 C   0  0  0  0  0  3  0  0  0  0  0  0
  183.5360  179.3570  144.0970 C   0  0  0  0  0  0  0  0  0  0  0  0
  182.2430  179.4310  143.4130 C   0  0  0  0  0  3  0  0  0  0  0  0
  188.9150  177.3080  145.5590 C   0  0  0  0  0  0  0  0  0  0  0  0
  189.6440  176.9140  146.7990 C   0  0  0  0  0  1  0  0  0  0  0  0
  187.6640  178.0100  143.2090 N   0  0  0  0  0  0  0  0  0  0  0  0
  183.2510  177.9910  141.6940 C   0  0  0  0  0  3  0  0  0  0  0  0
  184.9730  178.7080  145.5830 C   0  0  0  0  0  0  0  0  0  0  0  0
  183.6450  179.1620  145.3760 N   0  0  0  0  0  0  0  0  0  0  0  0
  189.5570  177.2190  144.3640 N   0  0  0  0  0  0  0  0  0  0  0  0
  184.4840  178.0660  142.2230 C   0  0  0  0  0  3  0  0  0  0  0  0
  188.9500  177.5660  143.1940 C   0  0  0  0  0  0  0  0  0  0  0  0
  187.5910  177.7650  145.5980 C   0  0  0  0  0  0  0  0  0  0  0  0
  191.7760  177.3170  140.6920 C   0  0  0  0  0  0  0  0  0  0  0  0
  189.6810  177.4560  141.9180 C   0  0  0  0  0  0  0  0  0  0  0  0
  191.0840  177.4210  141.9020 C   0  0  0  0  0  3  0  0  0  0  0  0
  193.1290  177.2840  140.6880 F   0  0  0  0  0  0  0  0  0  0  0  0
  188.9810  177.3860  140.7030 C   0  0  0  0  0  3  0  0  0  0  0  0
  191.0710  177.2480  139.4880 C   0  0  0  0  0  3  0  0  0  0  0  0
  189.6740  177.2830  139.4920 C   0  0  0  0  0  3  0  0  0  0  0  0
  1 13  1  0  0  0  0
  2  1  2  0  0  0  0
  2 18  1  0  0  0  0
  3  6  1  0  0  0  0
  4 16  1  6  0  0  0
  4  7  1  0  0  0  0
  4  1  1  0  0  0  0
  5  8  2  0  0  0  0
  7 14  2  0  0  0  0
  8  7  1  0  0  0  0
  9 18  1  0  0  0  0
  9 10  1  0  0  0  0
 11  2  1  0  0  0  0
 12 16  2  0  0  0  0
 12  5  1  0  0  0  0
 13  3  2  0  0  0  0
 14 13  1  0  0  0  0
 15  9  2  0  0  0  0
 17 11  2  0  0  0  0
 17 15  1  0  0  0  0
 18  6  2  0  0  0  0
 19 21  1  0  0  0  0
 20 17  1  0  0  0  0
 21 20  2  0  0  0  0
 22 19  1  0  0  0  0
 23 20  1  0  0  0  0
 24 25  1  0  0  0  0
 24 19  2  0  0  0  0
 25 23  2  0  0  0  0
M  END
>  <MODEL>
2

>  <REMARK>
 VINA RESULT:     -10.5      0.922      1.336
  Name = 
  1 active torsions:
  status: ('A' for Active; 'I' for Inactive)
    1  A    between atoms: C_6  and  C_23
                            x       y       z     vdW  Elec       q    Type
                         _______ _______ _______ _____ _____    ______ ____

>  <TORSDO>
F 1

$$$$
=
 OpenBabel10272400503D

 25 29  0  0  1  0  0  0  0  0999 V2000
  188.7800  177.3120  143.0350 C   0  0  0  0  0  0  0  0  0  0  0  0
  187.7080  177.6780  143.8510 C   0  0  0  0  0  0  0  0  0  0  0  0
  190.2810  177.1930  144.9260 C   0  0  0  0  0  3  0  0  0  0  0  0
  188.8290  177.0170  141.5810 C   0  0  2  0  0  3  0  0  0  0  0  0
  190.3750  177.6080  139.2240 C   0  0  0  0  0  3  0  0  0  0  0  0
  189.2250  177.5770  145.7680 C   0  0  0  0  0  3  0  0  0  0  0  0
  190.2980  176.7050  141.4440 C   0  0  0  0  0  0  0  0  0  0  0  0
  190.9450  176.8070  140.1330 C   0  0  0  0  0  3  0  0  0  0  0  0
  186.8510  178.1930  146.0460 C   0  0  0  0  0  0  0  0  0  0  0  0
  186.9970  178.3680  147.5200 C   0  0  0  0  0  1  0  0  0  0  0  0
  186.4710  177.8960  143.3350 N   0  0  0  0  0  0  0  0  0  0  0  0
  189.1620  178.4000  139.5570 C   0  0  0  0  0  3  0  0  0  0  0  0
  190.0210  177.0540  143.5650 C   0  0  0  0  0  0  0  0  0  0  0  0
  190.9640  176.7180  142.5590 N   0  0  0  0  0  0  0  0  0  0  0  0
  185.6340  178.4010  145.4770 N   0  0  0  0  0  0  0  0  0  0  0  0
  188.4700  178.1760  140.6870 C   0  0  0  0  0  3  0  0  0  0  0  0
  185.4330  178.2560  144.1380 C   0  0  0  0  0  0  0  0  0  0  0  0
  187.9350  177.8190  145.2390 C   0  0  0  0  0  0  0  0  0  0  0  0
  182.6350  178.6440  141.6230 C   0  0  0  0  0  0  0  0  0  0  0  0
  184.0970  178.4910  143.5580 C   0  0  0  0  0  0  0  0  0  0  0  0
  183.9000  178.4200  142.1710 C   0  0  0  0  0  3  0  0  0  0  0  0
  182.4560  178.5730  140.2830 F   0  0  0  0  0  0  0  0  0  0  0  0
  183.0050  178.7890  144.3890 C   0  0  0  0  0  3  0  0  0  0  0  0
  181.5540  178.9400  142.4570 C   0  0  0  0  0  3  0  0  0  0  0  0
  181.7380  179.0130  143.8400 C   0  0  0  0  0  3  0  0  0  0  0  0
  1 13  2  0  0  0  0
  1  2  1  0  0  0  0
  2 18  2  0  0  0  0
  3  6  2  0  0  0  0
  4 16  1  6  0  0  0
  4  1  1  0  0  0  0
  5 12  1  0  0  0  0
  5  8  2  0  0  0  0
  7  4  1  0  0  0  0
  7 14  2  0  0  0  0
  8  7  1  0  0  0  0
  9 10  1  0  0  0  0
 11  2  1  0  0  0  0
 11 17  2  0  0  0  0
 12 16  2  0  0  0  0
 13  3  1  0  0  0  0
 14 13  1  0  0  0  0
 15  9  2  0  0  0  0
 17 15  1  0  0  0  0
 18  6  1  0  0  0  0
 18  9  1  0  0  0  0
 19 21  2  0  0  0  0
 19 24  1  0  0  0  0
 20 17  1  0  0  0  0
 20 23  2  0  0  0  0
 21 20  1  0  0  0  0
 22 19  1  0  0  0  0
 24 25  2  0  0  0  0
 25 23  1  0  0  0  0
M  END
>  <MODEL>
3

>  <REMARK>
 VINA RESULT:     -10.4      1.909      6.259
  Name = 
  1 active torsions:
  status: ('A' for Active; 'I' for Inactive)
    1  A    between atoms: C_6  and  C_23
                            x       y       z     vdW  Elec       q    Type
                         _______ _______ _______ _____ _____    ______ ____

>  <TORSDO>
F 1

$$$$
=
 OpenBabel10272400503D

 25 29  0  0  1  0  0  0  0  0999 V2000
  187.6340  177.6320  145.3320 C   0  0  0  0  0  0  0  0  0  0  0  0
  186.7630  178.1030  144.3490 C   0  0  0  0  0  0  0  0  0  0  0  0
  186.0920  178.2240  147.0980 C   0  0  0  0  0  3  0  0  0  0  0  0
  188.9400  176.9350  145.2110 C   0  0  2  0  0  3  0  0  0  0  0  0
  191.6130  176.9780  146.2820 C   0  0  0  0  0  3  0  0  0  0  0  0
  185.2030  178.7220  146.1310 C   0  0  0  0  0  3  0  0  0  0  0  0
  189.2580  176.7540  146.6740 C   0  0  0  0  0  0  0  0  0  0  0  0
  190.6440  176.5380  147.0960 C   0  0  0  0  0  3  0  0  0  0  0  0
  184.6660  179.1380  143.7580 C   0  0  0  0  0  0  0  0  0  0  0  0
  183.3460  179.7470  144.0920 C   0  0  0  0  0  1  0  0  0  0  0  0
  187.0800  178.0310  143.0320 N   0  0  0  0  0  0  0  0  0  0  0  0
  191.2850  177.7000  145.0250 C   0  0  0  0  0  3  0  0  0  0  0  0
  187.2950  177.6700  146.6630 C   0  0  0  0  0  0  0  0  0  0  0  0
  188.3300  177.1580  147.4870 N   0  0  0  0  0  0  0  0  0  0  0  0
  185.0340  179.0440  142.4530 N   0  0  0  0  0  0  0  0  0  0  0  0
  190.0290  177.7410  144.5500 C   0  0  0  0  0  3  0  0  0  0  0  0
  186.2250  178.4960  142.0810 C   0  0  0  0  0  0  0  0  0  0  0  0
  185.5300  178.6630  144.7560 C   0  0  0  0  0  0  0  0  0  0  0  0
  188.2780  178.2490  138.9140 C   0  0  0  0  0  0  0  0  0  0  0  0
  186.5880  178.4120  140.6530 C   0  0  0  0  0  0  0  0  0  0  0  0
  187.9350  178.3280  140.2660 C   0  0  0  0  0  3  0  0  0  0  0  0
  189.5800  178.1680  138.5500 F   0  0  0  0  0  0  0  0  0  0  0  0
  185.5910  178.4140  139.6650 C   0  0  0  0  0  3  0  0  0  0  0  0
  187.2790  178.2510  137.9370 C   0  0  0  0  0  3  0  0  0  0  0  0
  185.9360  178.3350  138.3120 C   0  0  0  0  0  3  0  0  0  0  0  0
  1 13  1  0  0  0  0
  2 18  1  0  0  0  0
  2  1  2  0  0  0  0
  4 16  1  1  0  0  0
  4  1  1  0  0  0  0
  4  7  1  0  0  0  0
  5  8  2  0  0  0  0
  6  3  1  0  0  0  0
  7  8  1  0  0  0  0
  7 14  2  0  0  0  0
  9 10  1  0  0  0  0
  9 18  1  0  0  0  0
 11  2  1  0  0  0  0
 12  5  1  0  0  0  0
 13  3  2  0  0  0  0
 13 14  1  0  0  0  0
 15  9  2  0  0  0  0
 16 12  2  0  0  0  0
 17 15  1  0  0  0  0
 17 11  2  0  0  0  0
 18  6  2  0  0  0  0
 19 21  1  0  0  0  0
 20 17  1  0  0  0  0
 21 20  2  0  0  0  0
 22 19  1  0  0  0  0
 23 20  1  0  0  0  0
 24 25  1  0  0  0  0
 24 19  2  0  0  0  0
 25 23  2  0  0  0  0
M  END
>  <MODEL>
4

>  <REMARK>
 VINA RESULT:     -10.1      1.945      5.218
  Name = 
  1 active torsions:
  status: ('A' for Active; 'I' for Inactive)
    1  A    between atoms: C_6  and  C_23
                            x       y       z     vdW  Elec       q    Type
                         _______ _______ _______ _____ _____    ______ ____

>  <TORSDO>
F 1

$$$$
=
 OpenBabel10272400503D

 25 29  0  0  1  0  0  0  0  0999 V2000
  186.8110  177.8710  143.9880 C   0  0  0  0  0  0  0  0  0  0  0  0
  186.7910  178.0830  142.6090 C   0  0  0  0  0  0  0  0  0  0  0  0
  184.5650  178.7340  144.2340 C   0  0  0  0  0  3  0  0  0  0  0  0
  187.8360  177.2330  144.8530 C   0  0  2  0  0  3  0  0  0  0  0  0
  189.2440  177.6360  147.3330 C   0  0  0  0  0  3  0  0  0  0  0  0
  184.5250  178.9750  142.8500 C   0  0  0  0  0  3  0  0  0  0  0  0
  187.1520  177.3750  146.1890 C   0  0  0  0  0  0  0  0  0  0  0  0
  187.9450  177.3240  147.4210 C   0  0  0  0  0  3  0  0  0  0  0  0
  185.6280  178.8640  140.6460 C   0  0  0  0  0  0  0  0  0  0  0  0
  184.4500  179.4590  139.9500 C   0  0  0  0  0  1  0  0  0  0  0  0
  187.8530  177.7570  141.8300 N   0  0  0  0  0  0  0  0  0  0  0  0
  189.8410  178.0650  146.0400 C   0  0  0  0  0  3  0  0  0  0  0  0
  185.7190  178.1660  144.7700 C   0  0  0  0  0  0  0  0  0  0  0  0
  185.9620  177.8900  146.1400 N   0  0  0  0  0  0  0  0  0  0  0  0
  186.7200  178.5210  139.9130 N   0  0  0  0  0  0  0  0  0  0  0  0
  189.1660  177.9410  144.8850 C   0  0  0  0  0  3  0  0  0  0  0  0
  187.8270  177.9710  140.4860 C   0  0  0  0  0  0  0  0  0  0  0  0
  185.6320  178.6500  142.0320 C   0  0  0  0  0  0  0  0  0  0  0  0
  190.0160  177.3270  137.4710 C   0  0  0  0  0  0  0  0  0  0  0  0
  188.9920  177.6130  139.6560 C   0  0  0  0  0  0  0  0  0  0  0  0
  188.9120  177.6670  138.2560 C   0  0  0  0  0  3  0  0  0  0  0  0
  189.9290  177.3820  136.1210 F   0  0  0  0  0  0  0  0  0  0  0  0
  190.1960  177.2140  140.2570 C   0  0  0  0  0  3  0  0  0  0  0  0
  191.2110  176.9300  138.0780 C   0  0  0  0  0  3  0  0  0  0  0  0
  191.3010  176.8730  139.4710 C   0  0  0  0  0  3  0  0  0  0  0  0
  1 13  1  0  0  0  0
  1  4  1  0  0  0  0
  2  1  2  0  0  0  0
  3 13  2  0  0  0  0
  4 16  1  1  0  0  0
  4  7  1  0  0  0  0
  5  8  2  0  0  0  0
  6  3  1  0  0  0  0
  7  8  1  0  0  0  0
  9 18  1  0  0  0  0
 10  9  1  0  0  0  0
 11  2  1  0  0  0  0
 12  5  1  0  0  0  0
 13 14  1  0  0  0  0
 14  7  2  0  0  0  0
 15 17  1  0  0  0  0
 15  9  2  0  0  0  0
 16 12  2  0  0  0  0
 17 11  2  0  0  0  0
 18  2  1  0  0  0  0
 18  6  2  0  0  0  0
 19 24  2  0  0  0  0
 19 21  1  0  0  0  0
 20 23  1  0  0  0  0
 20 17  1  0  0  0  0
 21 20  2  0  0  0  0
 22 19  1  0  0  0  0
 24 25  1  0  0  0  0
 25 23  2  0  0  0  0
M  END
>  <MODEL>
5

>  <REMARK>
 VINA RESULT:     -10.0      1.757      4.616
  Name = 
  1 active torsions:
  status: ('A' for Active; 'I' for Inactive)
    1  A    between atoms: C_6  and  C_23
                            x       y       z     vdW  Elec       q    Type
                         _______ _______ _______ _____ _____    ______ ____

>  <TORSDO>
F 1

$$$$
=
 OpenBabel10272400503D

 25 29  0  0  1  0  0  0  0  0999 V2000
  187.0950  178.4130  141.3770 C   0  0  0  0  0  0  0  0  0  0  0  0
  186.5160  178.3840  142.6460 C   0  0  0  0  0  0  0  0  0  0  0  0
  184.9490  178.7530  140.3170 C   0  0  0  0  0  3  0  0  0  0  0  0
  188.5220  178.3680  140.9650 C   0  0  2  0  0  3  0  0  0  0  0  0
  190.2730  177.0680  139.0840 C   0  0  0  0  0  3  0  0  0  0  0  0
  184.3370  178.7080  141.5810 C   0  0  0  0  0  3  0  0  0  0  0  0
  188.3470  178.4450  139.4700 C   0  0  0  0  0  0  0  0  0  0  0  0
  189.4160  177.9700  138.5870 C   0  0  0  0  0  3  0  0  0  0  0  0
  184.5430  178.4880  144.0300 C   0  0  0  0  0  0  0  0  0  0  0  0
  183.0720  178.6280  144.2360 C   0  0  0  0  0  1  0  0  0  0  0  0
  187.2710  178.2210  143.7630 N   0  0  0  0  0  0  0  0  0  0  0  0
  190.1070  176.5370  140.4630 C   0  0  0  0  0  3  0  0  0  0  0  0
  186.3340  178.6170  140.2510 C   0  0  0  0  0  0  0  0  0  0  0  0
  187.1210  178.5940  139.0710 N   0  0  0  0  0  0  0  0  0  0  0  0
  185.3450  178.3200  145.1150 N   0  0  0  0  0  0  0  0  0  0  0  0
  189.2450  177.0970  141.3280 C   0  0  0  0  0  3  0  0  0  0  0  0
  186.6960  178.1880  144.9960 C   0  0  0  0  0  0  0  0  0  0  0  0
  185.1130  178.5270  142.7500 C   0  0  0  0  0  0  0  0  0  0  0  0
  189.5990  177.2580  147.2350 C   0  0  0  0  0  0  0  0  0  0  0  0
  187.5330  178.0080  146.1980 C   0  0  0  0  0  0  0  0  0  0  0  0
  188.8070  177.4300  146.0970 C   0  0  0  0  0  3  0  0  0  0  0  0
  190.8270  176.6990  147.1280 F   0  0  0  0  0  0  0  0  0  0  0  0
  187.0630  178.4130  147.4570 C   0  0  0  0  0  3  0  0  0  0  0  0
  189.1230  177.6650  148.4850 C   0  0  0  0  0  3  0  0  0  0  0  0
  187.8560  178.2420  148.5960 C   0  0  0  0  0  3  0  0  0  0  0  0
  1  2  1  0  0  0  0
  2 18  2  0  0  0  0
  2 11  1  0  0  0  0
  3  6  2  0  0  0  0
  4 16  1  6  0  0  0
  4  1  1  0  0  0  0
  5 12  1  0  0  0  0
  6 18  1  0  0  0  0
  7  4  1  0  0  0  0
  8  5  2  0  0  0  0
  8  7  1  0  0  0  0
  9 10  1  0  0  0  0
  9 15  2  0  0  0  0
 11 17  2  0  0  0  0
 12 16  2  0  0  0  0
 13  3  1  0  0  0  0
 13  1  2  0  0  0  0
 14  7  2  0  0  0  0
 14 13  1  0  0  0  0
 17 15  1  0  0  0  0
 17 20  1  0  0  0  0
 18  9  1  0  0  0  0
 19 24  1  0  0  0  0
 20 23  2  0  0  0  0
 21 20  1  0  0  0  0
 21 19  2  0  0  0  0
 22 19  1  0  0  0  0
 23 25  1  0  0  0  0
 24 25  2  0  0  0  0
M  END
>  <MODEL>
6

>  <REMARK>
 VINA RESULT:     -10.0      2.365      6.203
  Name = 
  1 active torsions:
  status: ('A' for Active; 'I' for Inactive)
    1  A    between atoms: C_6  and  C_23
                            x       y       z     vdW  Elec       q    Type
                         _______ _______ _______ _____ _____    ______ ____

>  <TORSDO>
F 1

$$$$
=
 OpenBabel10272400503D

 25 29  0  0  1  0  0  0  0  0999 V2000
  187.0200  178.1480  144.0110 C   0  0  0  0  0  0  0  0  0  0  0  0
  188.1570  177.6860  143.3470 C   0  0  0  0  0  0  0  0  0  0  0  0
  187.9130  177.4950  146.1620 C   0  0  0  0  0  3  0  0  0  0  0  0
  185.8260  178.8670  143.4970 C   0  0  2  0  0  3  0  0  0  0  0  0
  182.9510  178.8400  143.6570 C   0  0  0  0  0  3  0  0  0  0  0  0
  189.0610  177.0050  145.5170 C   0  0  0  0  0  3  0  0  0  0  0  0
  185.0590  179.0210  144.7860 C   0  0  0  0  0  0  0  0  0  0  0  0
  183.6120  179.2480  144.7480 C   0  0  0  0  0  3  0  0  0  0  0  0
  190.3250  176.6320  143.4310 C   0  0  0  0  0  0  0  0  0  0  0  0
  191.4650  175.9970  144.1540 C   0  0  0  0  0  1  0  0  0  0  0  0
  188.2780  177.7900  141.9990 N   0  0  0  0  0  0  0  0  0  0  0  0
  183.6590  178.1400  142.5520 C   0  0  0  0  0  3  0  0  0  0  0  0
  186.9160  178.0760  145.3800 C   0  0  0  0  0  0  0  0  0  0  0  0
  185.6750  178.5860  145.8420 N   0  0  0  0  0  0  0  0  0  0  0  0
  190.3940  176.7600  142.0800 N   0  0  0  0  0  0  0  0  0  0  0  0
  185.0000  178.0910  142.5030 C   0  0  0  0  0  3  0  0  0  0  0  0
  189.3890  177.3330  141.3600 C   0  0  0  0  0  0  0  0  0  0  0  0
  189.1910  177.0990  144.1120 C   0  0  0  0  0  0  0  0  0  0  0  0
  188.7150  178.3760  137.7880 C   0  0  0  0  0  0  0  0  0  0  0  0
  189.5020  177.4530  139.8940 C   0  0  0  0  0  0  0  0  0  0  0  0
  188.6080  178.2620  139.1760 C   0  0  0  0  0  3  0  0  0  0  0  0
  187.8470  179.1590  137.1040 F   0  0  0  0  0  0  0  0  0  0  0  0
  190.5050  176.7590  139.1990 C   0  0  0  0  0  3  0  0  0  0  0  0
  189.7170  177.6810  137.1040 C   0  0  0  0  0  3  0  0  0  0  0  0
  190.6110  176.8730  137.8100 C   0  0  0  0  0  3  0  0  0  0  0  0
  1 13  1  0  0  0  0
  2  1  2  0  0  0  0
  2 18  1  0  0  0  0
  4 16  1  6  0  0  0
  4  1  1  0  0  0  0
  4  7  1  0  0  0  0
  5  8  2  0  0  0  0
  6  3  1  0  0  0  0
  7 14  2  0  0  0  0
  8  7  1  0  0  0  0
  9 18  1  0  0  0  0
  9 10  1  0  0  0  0
 11  2  1  0  0  0  0
 12  5  1  0  0  0  0
 13 14  1  0  0  0  0
 13  3  2  0  0  0  0
 15  9  2  0  0  0  0
 16 12  2  0  0  0  0
 17 11  2  0  0  0  0
 17 15  1  0  0  0  0
 18  6  2  0  0  0  0
 19 21  1  0  0  0  0
 20 17  1  0  0  0  0
 21 20  2  0  0  0  0
 22 19  1  0  0  0  0
 23 20  1  0  0  0  0
 24 19  2  0  0  0  0
 24 25  1  0  0  0  0
 25 23  2  0  0  0  0
M  END
>  <MODEL>
7

>  <REMARK>
 VINA RESULT:      -9.9      1.585      2.432
  Name = 
  1 active torsions:
  status: ('A' for Active; 'I' for Inactive)
    1  A    between atoms: C_6  and  C_23
                            x       y       z     vdW  Elec       q    Type
                         _______ _______ _______ _____ _____    ______ ____

>  <TORSDO>
F 1

$$$$
=
 OpenBabel10272400503D

 25 29  0  0  1  0  0  0  0  0999 V2000
  187.1920  178.4110  140.8940 C   0  0  0  0  0  0  0  0  0  0  0  0
  186.6820  178.3360  142.1910 C   0  0  0  0  0  0  0  0  0  0  0  0
  184.9980  178.8260  139.9680 C   0  0  0  0  0  3  0  0  0  0  0  0
  188.5940  178.3630  140.4040 C   0  0  2  0  0  3  0  0  0  0  0  0
  190.2190  177.1200  138.3770 C   0  0  0  0  0  3  0  0  0  0  0  0
  184.4540  178.7360  141.2600 C   0  0  0  0  0  3  0  0  0  0  0  0
  188.3400  178.5060  138.9240 C   0  0  0  0  0  0  0  0  0  0  0  0
  189.3520  178.0540  137.9660 C   0  0  0  0  0  3  0  0  0  0  0  0
  184.7890  178.4090  143.6830 C   0  0  0  0  0  0  0  0  0  0  0  0
  183.3330  178.5610  143.9740 C   0  0  0  0  0  1  0  0  0  0  0  0
  187.4930  178.1150  143.2560 N   0  0  0  0  0  0  0  0  0  0  0  0
  190.1190  176.5330  139.7400 C   0  0  0  0  0  3  0  0  0  0  0  0
  186.3750  178.6740  139.8210 C   0  0  0  0  0  0  0  0  0  0  0  0
  187.0970  178.6890  138.5990 N   0  0  0  0  0  0  0  0  0  0  0  0
  185.6450  178.1840  144.7140 N   0  0  0  0  0  0  0  0  0  0  0  0
  189.3140  177.0680  140.6730 C   0  0  0  0  0  3  0  0  0  0  0  0
  186.9850  178.0380  144.5170 C   0  0  0  0  0  0  0  0  0  0  0  0
  185.2890  178.4940  142.3760 C   0  0  0  0  0  0  0  0  0  0  0  0
  188.2910  177.8010  148.0580 C   0  0  0  0  0  0  0  0  0  0  0  0
  187.8820  177.7950  145.6620 C   0  0  0  0  0  0  0  0  0  0  0  0
  187.4410  178.0300  146.9740 C   0  0  0  0  0  3  0  0  0  0  0  0
  187.8560  178.0310  149.3190 F   0  0  0  0  0  0  0  0  0  0  0  0
  189.1880  177.3250  145.4540 C   0  0  0  0  0  3  0  0  0  0  0  0
  189.5900  177.3330  147.8420 C   0  0  0  0  0  3  0  0  0  0  0  0
  190.0390  177.0960  146.5400 C   0  0  0  0  0  3  0  0  0  0  0  0
  1  2  1  0  0  0  0
  2 18  2  0  0  0  0
  2 11  1  0  0  0  0
  3  6  2  0  0  0  0
  4 16  1  6  0  0  0
  4  1  1  0  0  0  0
  5 12  1  0  0  0  0
  6 18  1  0  0  0  0
  7  4  1  0  0  0  0
  8  5  2  0  0  0  0
  8  7  1  0  0  0  0
  9 10  1  0  0  0  0
  9 15  2  0  0  0  0
 11 17  2  0  0  0  0
 12 16  2  0  0  0  0
 13  3  1  0  0  0  0
 13  1  2  0  0  0  0
 14  7  2  0  0  0  0
 14 13  1  0  0  0  0
 17 15  1  0  0  0  0
 17 20  1  0  0  0  0
 18  9  1  0  0  0  0
 19 22  1  0  0  0  0
 20 21  1  0  0  0  0
 21 19  2  0  0  0  0
 23 20  2  0  0  0  0
 23 25  1  0  0  0  0
 24 19  1  0  0  0  0
 25 24  2  0  0  0  0
M  END
>  <MODEL>
8

>  <REMARK>
 VINA RESULT:      -9.8      2.797      6.277
  Name = 
  1 active torsions:
  status: ('A' for Active; 'I' for Inactive)
    1  A    between atoms: C_6  and  C_23
                            x       y       z     vdW  Elec       q    Type
                         _______ _______ _______ _____ _____    ______ ____

>  <TORSDO>
F 1

$$$$
=
 OpenBabel10272400503D

 25 29  0  0  1  0  0  0  0  0999 V2000
  187.5340  177.6940  145.0000 C   0  0  0  0  0  0  0  0  0  0  0  0
  186.5650  178.1120  144.0860 C   0  0  0  0  0  0  0  0  0  0  0  0
  186.0910  178.1830  146.8770 C   0  0  0  0  0  3  0  0  0  0  0  0
  188.8690  177.0810  144.7790 C   0  0  2  0  0  3  0  0  0  0  0  0
  191.6050  177.2880  145.6530 C   0  0  0  0  0  3  0  0  0  0  0  0
  185.1040  178.6280  145.9810 C   0  0  0  0  0  3  0  0  0  0  0  0
  189.3020  176.9160  146.2130 C   0  0  0  0  0  0  0  0  0  0  0  0
  190.7270  176.7870  146.5320 C   0  0  0  0  0  3  0  0  0  0  0  0
  184.3710  179.0160  143.6570 C   0  0  0  0  0  0  0  0  0  0  0  0
  183.0430  179.5400  144.0910 C   0  0  0  0  0  1  0  0  0  0  0  0
  186.7890  178.0640  142.7490 N   0  0  0  0  0  0  0  0  0  0  0  0
  191.1420  177.9920  144.4290 C   0  0  0  0  0  3  0  0  0  0  0  0
  187.2910  177.7070  146.3520 C   0  0  0  0  0  0  0  0  0  0  0  0
  188.4130  177.2590  147.0950 N   0  0  0  0  0  0  0  0  0  0  0  0
  184.6480  178.9490  142.3280 N   0  0  0  0  0  0  0  0  0  0  0  0
  189.8540  177.9550  144.0470 C   0  0  0  0  0  3  0  0  0  0  0  0
  185.8400  178.4780  141.8660 C   0  0  0  0  0  0  0  0  0  0  0  0
  185.3330  178.5930  144.5850 C   0  0  0  0  0  0  0  0  0  0  0  0
  185.2890  178.3410  138.1260 C   0  0  0  0  0  0  0  0  0  0  0  0
  186.1030  178.4210  140.4150 C   0  0  0  0  0  0  0  0  0  0  0  0
  185.0390  178.3970  139.5000 C   0  0  0  0  0  3  0  0  0  0  0  0
  184.2560  178.3180  137.2520 F   0  0  0  0  0  0  0  0  0  0  0  0
  187.4210  178.3890  139.9330 C   0  0  0  0  0  3  0  0  0  0  0  0
  186.6040  178.3100  137.6550 C   0  0  0  0  0  3  0  0  0  0  0  0
  187.6700  178.3340  138.5580 C   0  0  0  0  0  3  0  0  0  0  0  0
  1 13  1  0  0  0  0
  2 18  1  0  0  0  0
  2  1  2  0  0  0  0
  4 16  1  6  0  0  0
  4  1  1  0  0  0  0
  4  7  1  0  0  0  0
  5  8  2  0  0  0  0
  6  3  1  0  0  0  0
  7  8  1  0  0  0  0
  7 14  2  0  0  0  0
  9 10  1  0  0  0  0
  9 18  1  0  0  0  0
 11  2  1  0  0  0  0
 12  5  1  0  0  0  0
 13  3  2  0  0  0  0
 13 14  1  0  0  0  0
 15  9  2  0  0  0  0
 16 12  2  0  0  0  0
 17 15  1  0  0  0  0
 17 11  2  0  0  0  0
 18  6  2  0  0  0  0
 19 21  1  0  0  0  0
 20 17  1  0  0  0  0
 21 20  2  0  0  0  0
 22 19  1  0  0  0  0
 23 20  1  0  0  0  0
 24 19  2  0  0  0  0
 24 25  1  0  0  0  0
 25 23  2  0  0  0  0
M  END
>  <MODEL>
9

>  <REMARK>
 VINA RESULT:      -9.6      2.301      5.340
  Name = 
  1 active torsions:
  status: ('A' for Active; 'I' for Inactive)
    1  A    between atoms: C_6  and  C_23
                            x       y       z     vdW  Elec       q    Type
                         _______ _______ _______ _____ _____    ______ ____

>  <TORSDO>
F 1

$$$$
