=
 OpenBabel10272414173D

 43 47  0  0  1  0  0  0  0  0999 V2000
  191.3330  176.5920  146.9600 C   0  0  0  0  0  0  0  0  0  0  0  0
  186.9590  177.8990  144.7580 C   0  0  0  0  0  0  0  0  0  0  0  0
  187.5180  178.3280  142.0280 C   0  0  0  0  0  0  0  0  0  0  0  0
  189.0130  177.1360  146.5250 C   0  0  0  0  0  0  0  0  0  0  0  0
  191.6380  176.7940  145.6120 C   0  0  0  0  0  3  0  0  0  0  0  0
  192.3340  176.2210  147.8490 O   0  0  0  0  0  1  0  0  0  0  0  0
  189.3100  177.3460  145.1560 C   0  0  0  0  0  0  0  0  0  0  0  0
  190.0240  176.7620  147.4160 C   0  0  0  0  0  3  0  0  0  0  0  0
  190.6340  177.1690  144.7150 C   0  0  0  0  0  3  0  0  0  0  0  0
  188.5410  177.9440  142.9090 C   0  0  0  0  0  3  0  0  0  0  0  0
  188.2800  177.7270  144.2700 C   0  0  0  0  0  0  0  0  0  0  0  0
  186.6920  177.6830  146.1200 C   0  0  0  0  0  3  0  0  0  0  0  0
  185.9310  178.2890  143.8770 C   0  0  0  0  0  0  0  0  0  0  0  0
  186.2220  178.5050  142.5250 C   0  0  0  0  0  3  0  0  0  0  0  0
  187.7110  177.3040  146.9940 C   0  0  0  0  0  3  0  0  0  0  0  0
  187.7760  178.5840  140.5650 C   0  0  2  0  0  3  0  0  0  0  0  0
  186.5740  178.5240  139.8560 O   0  0  0  0  0  1  0  0  0  0  0  0
  188.7590  177.6240  139.9600 C   0  0  0  0  0  3  0  0  0  0  0  0
  189.3700  177.8570  138.8000 C   0  0  0  0  0  0  0  0  0  0  0  0
  189.1340  179.0320  138.0920 O   0  0  0  0  0  1  0  0  0  0  0  0
  190.3200  176.8350  138.2420 C   0  0  0  0  0  2  0  0  0  0  0  0
  189.9700  176.3580  136.8960 N   0  0  0  0  0  0  0  0  0  0  0  0
  191.1160  175.6900  136.2860 C   0  0  0  0  0  2  0  0  0  0  0  0
  193.3230  174.4990  137.4010 S   0  0  0  0  0  1  0  0  0  0  0  0
  191.5280  174.4880  137.1210 C   0  0  0  0  0  2  0  0  0  0  0  0
  188.8560  175.4180  136.9540 C   0  0  0  0  0  2  0  0  0  0  0  0
  187.6790  175.9810  136.2250 C   0  0  0  0  0  0  0  0  0  0  0  0
  187.8750  176.6110  135.1490 O   0  0  0  0  0  0  0  0  0  0  0  0
  186.3100  175.8260  136.7540 C   0  0  0  0  0  0  0  0  0  0  0  0
  184.5360  174.4140  137.5350 N   0  0  0  0  0  0  0  0  0  0  0  0
  184.2100  176.7800  137.5060 C   0  0  0  0  0  3  0  0  0  0  0  0
  183.7410  175.4930  137.7710 C   0  0  0  0  0  3  0  0  0  0  0  0
  185.4990  176.9430  136.9960 C   0  0  0  0  0  3  0  0  0  0  0  0
  185.7960  174.5520  137.0380 C   0  0  0  0  0  3  0  0  0  0  0  0
  184.5170  178.4730  144.3460 C   0  0  0  0  0  2  0  0  0  0  0  0
  182.8740  178.3720  140.8390 C   0  0  0  0  0  2  0  0  0  0  0  0
  181.6190  179.1710  141.2470 C   0  0  2  0  0  3  0  0  0  0  0  0
  182.1610  179.0060  143.7240 C   0  0  0  0  0  2  0  0  0  0  0  0
  183.6810  177.8820  142.0450 C   0  0  0  0  0  2  0  0  0  0  0  0
  183.6000  178.8800  143.2020 C   0  0  2  0  0  3  0  0  0  0  0  0
  181.0870  178.8150  142.6430 C   0  0  0  0  0  2  0  0  0  0  0  0
  180.6170  179.1860  140.2520 O   0  0  0  0  0  0  0  0  0  0  0  0
  180.9420  178.2400  139.2660 C   0  0  0  0  0  1  0  0  0  0  0  0
  1  8  1  0  0  0  0
  1  6  1  0  0  0  0
  2 12  1  0  0  0  0
  3 14  2  0  0  0  0
  3 10  1  0  0  0  0
  4 15  1  0  0  0  0
  4  8  2  0  0  0  0
  5  1  2  0  0  0  0
  7  4  1  0  0  0  0
  9  7  2  0  0  0  0
  9  5  1  0  0  0  0
 10 11  2  0  0  0  0
 11  2  1  0  0  0  0
 11  7  1  0  0  0  0
 12 15  2  0  0  0  0
 13 35  1  0  0  0  0
 13  2  2  0  0  0  0
 14 13  1  0  0  0  0
 16 17  1  6  0  0  0
 16  3  1  0  0  0  0
 18 16  1  0  0  0  0
 19 18  2  0  0  0  0
 20 19  1  0  0  0  0
 21 19  1  0  0  0  0
 22 26  1  0  0  0  0
 22 21  1  0  0  0  0
 23 22  1  0  0  0  0
 23 25  1  0  0  0  0
 25 24  1  0  0  0  0
 27 29  1  0  0  0  0
 27 26  1  0  0  0  0
 28 27  2  0  0  0  0
 29 33  2  0  0  0  0
 29 34  1  0  0  0  0
 30 32  1  0  0  0  0
 31 32  2  0  0  0  0
 33 31  1  0  0  0  0
 34 30  2  0  0  0  0
 36 37  1  0  0  0  0
 36 39  1  0  0  0  0
 37 42  1  6  0  0  0
 37 41  1  0  0  0  0
 39 40  1  0  0  0  0
 40 38  1  0  0  0  0
 40 35  1  1  0  0  0
 41 38  1  0  0  0  0
 43 42  1  0  0  0  0
M  END
>  <MODEL>
1

>  <REMARK>
 VINA RESULT:      -9.7      0.000      0.000
  Name = 
  12 active torsions:
  status: ('A' for Active; 'I' for Inactive)
    1  A    between atoms: C_1  and  C_34
    2  A    between atoms: C_1  and  C_35
    3  A    between atoms: C_2  and  C_6
    4  A    between atoms: C_2  and  C_13
    5  A    between atoms: C_3  and  N_4
    6  A    between atoms: C_3  and  C_12
    7  A    between atoms: N_4  and  C_15
    8  A    between atoms: N_4  and  C_22
    9  A    between atoms: C_11  and  C_14
   10  A    between atoms: C_14  and  C_22
   11  A    between atoms: C_15  and  C_42
   12  A    between atoms: C_19  and  O_25
                            x       y       z     vdW  Elec       q    Type
                         _______ _______ _______ _____ _____    ______ ____

>  <TORSDO>
F 12

$$$$
=
 OpenBabel10272414173D

 43 47  0  0  1  0  0  0  0  0999 V2000
  184.5680  178.8690  145.4100 C   0  0  0  0  0  0  0  0  0  0  0  0
  182.6080  178.6710  140.7400 C   0  0  0  0  0  0  0  0  0  0  0  0
  184.7730  178.3560  138.9610 C   0  0  0  0  0  0  0  0  0  0  0  0
  183.0630  178.8430  143.5130 C   0  0  0  0  0  0  0  0  0  0  0  0
  185.6590  178.7100  144.5520 C   0  0  0  0  0  3  0  0  0  0  0  0
  184.7720  178.9620  146.7810 O   0  0  0  0  0  1  0  0  0  0  0  0
  184.1610  178.6840  142.6330 C   0  0  0  0  0  0  0  0  0  0  0  0
  183.2730  178.9350  144.8920 C   0  0  0  0  0  3  0  0  0  0  0  0
  185.4590  178.6180  143.1720 C   0  0  0  0  0  3  0  0  0  0  0  0
  184.9990  178.4380  140.3440 C   0  0  0  0  0  3  0  0  0  0  0  0
  183.9330  178.5950  141.2430 C   0  0  0  0  0  0  0  0  0  0  0  0
  181.5380  178.8280  141.6350 C   0  0  0  0  0  3  0  0  0  0  0  0
  182.3800  178.5930  139.3520 C   0  0  0  0  0  0  0  0  0  0  0  0
  183.4620  178.4430  138.4780 C   0  0  0  0  0  3  0  0  0  0  0  0
  181.7650  178.9120  143.0090 C   0  0  0  0  0  3  0  0  0  0  0  0
  185.9020  178.2030  137.9740 C   0  0  2  0  0  3  0  0  0  0  0  0
  185.6370  177.1360  137.1130 O   0  0  0  0  0  1  0  0  0  0  0  0
  187.2370  177.9960  138.6270 C   0  0  0  0  0  3  0  0  0  0  0  0
  188.3500  178.5840  138.1920 C   0  0  0  0  0  0  0  0  0  0  0  0
  188.3200  179.4500  137.1030 O   0  0  0  0  0  1  0  0  0  0  0  0
  189.6560  178.3040  138.8810 C   0  0  0  0  0  2  0  0  0  0  0  0
  189.6850  177.0380  139.6270 N   0  0  0  0  0  0  0  0  0  0  0  0
  190.3560  176.0060  138.8420 C   0  0  0  0  0  2  0  0  0  0  0  0
  192.6050  175.2330  137.4720 S   0  0  0  0  0  1  0  0  0  0  0  0
  191.6140  176.5710  138.2010 C   0  0  0  0  0  2  0  0  0  0  0  0
  190.3930  177.1990  140.8920 C   0  0  0  0  0  2  0  0  0  0  0  0
  189.4280  177.1050  142.0290 C   0  0  0  0  0  0  0  0  0  0  0  0
  188.1920  177.0820  141.7770 O   0  0  0  0  0  0  0  0  0  0  0  0
  189.9010  177.0590  143.4270 C   0  0  0  0  0  0  0  0  0  0  0  0
  191.6900  176.8080  145.0040 N   0  0  0  0  0  0  0  0  0  0  0  0
  189.4770  177.2080  145.8110 C   0  0  0  0  0  3  0  0  0  0  0  0
  190.8340  176.9850  146.0480 C   0  0  0  0  0  3  0  0  0  0  0  0
  189.0130  177.2450  144.4950 C   0  0  0  0  0  3  0  0  0  0  0  0
  191.2560  176.8400  143.7140 C   0  0  0  0  0  3  0  0  0  0  0  0
  180.9950  178.6580  138.7760 C   0  0  0  0  0  2  0  0  0  0  0  0
  181.4250  182.4540  138.1280 C   0  0  0  0  0  2  0  0  0  0  0  0
  180.5530  182.4800  136.8550 C   0  0  2  0  0  3  0  0  0  0  0  0
  180.4670  179.9450  136.7050 C   0  0  0  0  0  2  0  0  0  0  0  0
  181.8050  181.0320  138.5540 C   0  0  0  0  0  2  0  0  0  0  0  0
  180.6870  180.0420  138.2220 C   0  0  2  0  0  3  0  0  0  0  0  0
  180.7430  181.2540  135.9500 C   0  0  0  0  0  2  0  0  0  0  0  0
  180.6160  183.7060  136.1590 O   0  0  0  0  0  0  0  0  0  0  0  0
  181.3840  184.6140  136.9080 C   0  0  0  0  0  1  0  0  0  0  0  0
  1  6  1  0  0  0  0
  2 11  1  0  0  0  0
  2 12  1  0  0  0  0
  3 10  1  0  0  0  0
  4  8  2  0  0  0  0
  5  1  2  0  0  0  0
  7  9  2  0  0  0  0
  7  4  1  0  0  0  0
  8  1  1  0  0  0  0
  9  5  1  0  0  0  0
 10 11  2  0  0  0  0
 11  7  1  0  0  0  0
 12 15  2  0  0  0  0
 13  2  2  0  0  0  0
 14  3  2  0  0  0  0
 14 13  1  0  0  0  0
 15  4  1  0  0  0  0
 16 17  1  6  0  0  0
 16 18  1  0  0  0  0
 16  3  1  0  0  0  0
 19 18  2  0  0  0  0
 19 21  1  0  0  0  0
 20 19  1  0  0  0  0
 21 22  1  0  0  0  0
 22 26  1  0  0  0  0
 23 22  1  0  0  0  0
 24 25  1  0  0  0  0
 25 23  1  0  0  0  0
 26 27  1  0  0  0  0
 27 29  1  0  0  0  0
 28 27  2  0  0  0  0
 29 34  2  0  0  0  0
 29 33  1  0  0  0  0
 30 32  2  0  0  0  0
 31 32  1  0  0  0  0
 33 31  2  0  0  0  0
 34 30  1  0  0  0  0
 35 13  1  0  0  0  0
 36 39  1  0  0  0  0
 37 42  1  6  0  0  0
 37 36  1  0  0  0  0
 38 40  1  0  0  0  0
 40 39  1  0  0  0  0
 40 35  1  6  0  0  0
 41 38  1  0  0  0  0
 41 37  1  0  0  0  0
 42 43  1  0  0  0  0
M  END
>  <MODEL>
2

>  <REMARK>
 VINA RESULT:      -9.6      2.922      6.162
  Name = 
  12 active torsions:
  status: ('A' for Active; 'I' for Inactive)
    1  A    between atoms: C_1  and  C_34
    2  A    between atoms: C_1  and  C_35
    3  A    between atoms: C_2  and  C_6
    4  A    between atoms: C_2  and  C_13
    5  A    between atoms: C_3  and  N_4
    6  A    between atoms: C_3  and  C_12
    7  A    between atoms: N_4  and  C_15
    8  A    between atoms: N_4  and  C_22
    9  A    between atoms: C_11  and  C_14
   10  A    between atoms: C_14  and  C_22
   11  A    between atoms: C_15  and  C_42
   12  A    between atoms: C_19  and  O_25
                            x       y       z     vdW  Elec       q    Type
                         _______ _______ _______ _____ _____    ______ ____

>  <TORSDO>
F 12

$$$$
=
 OpenBabel10272414173D

 43 47  0  0  1  0  0  0  0  0999 V2000
  191.3510  176.5770  146.6310 C   0  0  0  0  0  0  0  0  0  0  0  0
  186.8880  177.9490  144.6570 C   0  0  0  0  0  0  0  0  0  0  0  0
  187.3220  178.4160  141.9100 C   0  0  0  0  0  0  0  0  0  0  0  0
  189.0170  177.1440  146.3140 C   0  0  0  0  0  0  0  0  0  0  0  0
  191.5930  176.7980  145.2730 C   0  0  0  0  0  3  0  0  0  0  0  0
  192.3890  176.1850  147.4650 O   0  0  0  0  0  1  0  0  0  0  0  0
  189.2510  177.3740  144.9360 C   0  0  0  0  0  0  0  0  0  0  0  0
  190.0660  176.7500  147.1500 C   0  0  0  0  0  3  0  0  0  0  0  0
  190.5520  177.1940  144.4290 C   0  0  0  0  0  3  0  0  0  0  0  0
  188.3820  178.0110  142.7370 C   0  0  0  0  0  3  0  0  0  0  0  0
  188.1840  177.7750  144.1050 C   0  0  0  0  0  0  0  0  0  0  0  0
  186.6840  177.7140  146.0260 C   0  0  0  0  0  3  0  0  0  0  0  0
  185.8230  178.3600  143.8310 C   0  0  0  0  0  0  0  0  0  0  0  0
  186.0510  178.5940  142.4710 C   0  0  0  0  0  3  0  0  0  0  0  0
  187.7400  177.3140  146.8460 C   0  0  0  0  0  3  0  0  0  0  0  0
  187.5120  178.6920  140.4400 C   0  0  2  0  0  3  0  0  0  0  0  0
  186.3060  178.5010  139.7640 O   0  0  0  0  0  1  0  0  0  0  0  0
  188.5760  177.8410  139.8110 C   0  0  0  0  0  3  0  0  0  0  0  0
  189.2420  178.2130  138.7200 C   0  0  0  0  0  0  0  0  0  0  0  0
  188.9900  179.4410  138.1140 O   0  0  0  0  0  1  0  0  0  0  0  0
  190.2740  177.2940  138.1290 C   0  0  0  0  0  2  0  0  0  0  0  0
  189.7230  176.2650  137.2360 N   0  0  0  0  0  0  0  0  0  0  0  0
  188.6870  176.8420  136.3830 C   0  0  0  0  0  2  0  0  0  0  0  0
  187.3260  174.5580  135.7020 S   0  0  0  0  0  1  0  0  0  0  0  0
  187.3630  176.1300  136.6130 C   0  0  0  0  0  2  0  0  0  0  0  0
  190.7690  175.7030  136.3880 C   0  0  0  0  0  2  0  0  0  0  0  0
  191.3360  174.4770  137.0270 C   0  0  0  0  0  0  0  0  0  0  0  0
  190.5480  173.5630  137.3950 O   0  0  0  0  0  0  0  0  0  0  0  0
  192.7890  174.3360  137.2470 C   0  0  0  0  0  0  0  0  0  0  0  0
  194.8460  175.1940  138.1310 N   0  0  0  0  0  0  0  0  0  0  0  0
  194.8510  173.0760  137.0270 C   0  0  0  0  0  3  0  0  0  0  0  0
  195.5240  174.0960  137.7000 C   0  0  0  0  0  3  0  0  0  0  0  0
  193.4780  173.1990  136.8020 C   0  0  0  0  0  3  0  0  0  0  0  0
  193.5080  175.3340  137.9210 C   0  0  0  0  0  3  0  0  0  0  0  0
  184.4350  178.5470  144.3690 C   0  0  0  0  0  2  0  0  0  0  0  0
  182.6850  178.4630  140.9130 C   0  0  0  0  0  2  0  0  0  0  0  0
  181.4020  179.1770  141.3860 C   0  0  2  0  0  3  0  0  0  0  0  0
  182.0340  178.9660  143.8390 C   0  0  0  0  0  2  0  0  0  0  0  0
  183.5570  177.9820  142.0780 C   0  0  0  0  0  2  0  0  0  0  0  0
  183.4590  178.9370  143.2680 C   0  0  2  0  0  3  0  0  0  0  0  0
  180.9360  178.7490  142.7860 C   0  0  0  0  0  2  0  0  0  0  0  0
  180.3690  179.1670  140.4240 O   0  0  0  0  0  0  0  0  0  0  0  0
  180.0640  177.8350  140.0990 C   0  0  0  0  0  1  0  0  0  0  0  0
  1  8  1  0  0  0  0
  1  6  1  0  0  0  0
  2 12  1  0  0  0  0
  3 14  2  0  0  0  0
  3 10  1  0  0  0  0
  4 15  1  0  0  0  0
  4  8  2  0  0  0  0
  5  1  2  0  0  0  0
  7  4  1  0  0  0  0
  9  7  2  0  0  0  0
  9  5  1  0  0  0  0
 10 11  2  0  0  0  0
 11  2  1  0  0  0  0
 11  7  1  0  0  0  0
 12 15  2  0  0  0  0
 13 35  1  0  0  0  0
 13  2  2  0  0  0  0
 14 13  1  0  0  0  0
 16 17  1  6  0  0  0
 16  3  1  0  0  0  0
 18 16  1  0  0  0  0
 19 18  2  0  0  0  0
 20 19  1  0  0  0  0
 21 19  1  0  0  0  0
 22 21  1  0  0  0  0
 23 25  1  0  0  0  0
 23 22  1  0  0  0  0
 24 25  1  0  0  0  0
 26 27  1  0  0  0  0
 26 22  1  0  0  0  0
 27 29  1  0  0  0  0
 27 28  2  0  0  0  0
 29 34  1  0  0  0  0
 31 32  2  0  0  0  0
 32 30  1  0  0  0  0
 33 31  1  0  0  0  0
 33 29  2  0  0  0  0
 34 30  2  0  0  0  0
 36 37  1  0  0  0  0
 36 39  1  0  0  0  0
 37 42  1  6  0  0  0
 37 41  1  0  0  0  0
 39 40  1  0  0  0  0
 40 38  1  0  0  0  0
 40 35  1  1  0  0  0
 41 38  1  0  0  0  0
 43 42  1  0  0  0  0
M  END
>  <MODEL>
3

>  <REMARK>
 VINA RESULT:      -9.4      1.773      3.948
  Name = 
  12 active torsions:
  status: ('A' for Active; 'I' for Inactive)
    1  A    between atoms: C_1  and  C_34
    2  A    between atoms: C_1  and  C_35
    3  A    between atoms: C_2  and  C_6
    4  A    between atoms: C_2  and  C_13
    5  A    between atoms: C_3  and  N_4
    6  A    between atoms: C_3  and  C_12
    7  A    between atoms: N_4  and  C_15
    8  A    between atoms: N_4  and  C_22
    9  A    between atoms: C_11  and  C_14
   10  A    between atoms: C_14  and  C_22
   11  A    between atoms: C_15  and  C_42
   12  A    between atoms: C_19  and  O_25
                            x       y       z     vdW  Elec       q    Type
                         _______ _______ _______ _____ _____    ______ ____

>  <TORSDO>
F 12

$$$$
=
 OpenBabel10272414173D

 43 47  0  0  1  0  0  0  0  0999 V2000
  181.2340  179.1230  141.1610 C   0  0  0  0  0  0  0  0  0  0  0  0
  185.1910  178.3400  144.2310 C   0  0  0  0  0  0  0  0  0  0  0  0
  187.4020  177.7640  142.5780 C   0  0  0  0  0  0  0  0  0  0  0  0
  182.6710  178.8760  143.0950 C   0  0  0  0  0  0  0  0  0  0  0  0
  182.3130  178.8440  140.3190 C   0  0  0  0  0  3  0  0  0  0  0  0
  179.9820  179.3840  140.6200 O   0  0  0  0  0  1  0  0  0  0  0  0
  183.7720  178.5900  142.2510 C   0  0  0  0  0  0  0  0  0  0  0  0
  181.4130  179.1390  142.5460 C   0  0  0  0  0  3  0  0  0  0  0  0
  183.5740  178.5790  140.8590 C   0  0  0  0  0  3  0  0  0  0  0  0
  186.1460  178.0360  142.0130 C   0  0  0  0  0  3  0  0  0  0  0  0
  185.0360  178.3230  142.8210 C   0  0  0  0  0  0  0  0  0  0  0  0
  184.0830  178.6280  145.0440 C   0  0  0  0  0  3  0  0  0  0  0  0
  186.4500  178.0640  144.8010 C   0  0  0  0  0  0  0  0  0  0  0  0
  187.5380  177.7740  143.9720 C   0  0  0  0  0  3  0  0  0  0  0  0
  182.8350  178.8950  144.4800 C   0  0  0  0  0  3  0  0  0  0  0  0
  188.6070  177.4360  141.7340 C   0  0  2  0  0  3  0  0  0  0  0  0
  189.7740  177.6920  142.4560 O   0  0  0  0  0  1  0  0  0  0  0  0
  188.6450  178.1930  140.4380 C   0  0  0  0  0  3  0  0  0  0  0  0
  189.3330  177.7700  139.3790 C   0  0  0  0  0  0  0  0  0  0  0  0
  190.0440  176.5750  139.4210 O   0  0  0  0  0  1  0  0  0  0  0  0
  189.3490  178.5980  138.1250 C   0  0  0  0  0  2  0  0  0  0  0  0
  188.2170  178.3460  137.2220 N   0  0  0  0  0  0  0  0  0  0  0  0
  188.7010  177.8820  135.9250 C   0  0  0  0  0  2  0  0  0  0  0  0
  190.4940  175.8050  135.8710 S   0  0  0  0  0  1  0  0  0  0  0  0
  188.7650  176.3630  135.9030 C   0  0  0  0  0  2  0  0  0  0  0  0
  187.3270  177.3330  137.7800 C   0  0  0  0  0  2  0  0  0  0  0  0
  185.9200  177.8380  137.7790 C   0  0  0  0  0  0  0  0  0  0  0  0
  185.6880  178.9920  138.2320 O   0  0  0  0  0  0  0  0  0  0  0  0
  184.8120  177.0020  137.2760 C   0  0  0  0  0  0  0  0  0  0  0  0
  182.5000  176.7610  136.6850 N   0  0  0  0  0  0  0  0  0  0  0  0
  183.9700  174.8980  136.4100 C   0  0  0  0  0  3  0  0  0  0  0  0
  182.7000  175.4670  136.3130 C   0  0  0  0  0  3  0  0  0  0  0  0
  185.0280  175.6720  136.8930 C   0  0  0  0  0  3  0  0  0  0  0  0
  183.5180  177.5320  137.1590 C   0  0  0  0  0  3  0  0  0  0  0  0
  186.6630  178.0810  146.2870 C   0  0  0  0  0  2  0  0  0  0  0  0
  190.4620  177.3730  146.0140 C   0  0  0  0  0  2  0  0  0  0  0  0
  190.6470  177.0120  147.5020 C   0  0  2  0  0  3  0  0  0  0  0  0
  188.3320  177.8530  148.1270 C   0  0  0  0  0  2  0  0  0  0  0  0
  189.1190  178.0540  145.7340 C   0  0  0  0  0  2  0  0  0  0  0  0
  188.0270  177.5170  146.6600 C   0  0  2  0  0  3  0  0  0  0  0  0
  189.8310  177.8950  148.4580 C   0  0  0  0  0  2  0  0  0  0  0  0
  192.0000  176.8760  147.8820 O   0  0  0  0  0  0  0  0  0  0  0  0
  192.4330  175.5800  147.5580 C   0  0  0  0  0  1  0  0  0  0  0  0
  1  8  1  0  0  0  0
  2 13  1  0  0  0  0
  2 12  1  0  0  0  0
  3 14  1  0  0  0  0
  4 15  1  0  0  0  0
  5  9  1  0  0  0  0
  5  1  2  0  0  0  0
  6  1  1  0  0  0  0
  7 11  1  0  0  0  0
  7  4  1  0  0  0  0
  8  4  2  0  0  0  0
  9  7  2  0  0  0  0
 10  3  2  0  0  0  0
 10 11  1  0  0  0  0
 11  2  2  0  0  0  0
 13 35  1  0  0  0  0
 14 13  2  0  0  0  0
 15 12  2  0  0  0  0
 16 17  1  1  0  0  0
 16  3  1  0  0  0  0
 18 16  1  0  0  0  0
 19 20  1  0  0  0  0
 19 18  2  0  0  0  0
 21 19  1  0  0  0  0
 22 26  1  0  0  0  0
 22 21  1  0  0  0  0
 23 22  1  0  0  0  0
 24 25  1  0  0  0  0
 25 23  1  0  0  0  0
 27 26  1  0  0  0  0
 27 28  2  0  0  0  0
 29 27  1  0  0  0  0
 30 34  2  0  0  0  0
 31 33  1  0  0  0  0
 32 31  2  0  0  0  0
 32 30  1  0  0  0  0
 33 29  2  0  0  0  0
 34 29  1  0  0  0  0
 36 37  1  0  0  0  0
 37 42  1  1  0  0  0
 37 41  1  0  0  0  0
 38 41  1  0  0  0  0
 39 36  1  0  0  0  0
 39 40  1  0  0  0  0
 40 35  1  6  0  0  0
 40 38  1  0  0  0  0
 43 42  1  0  0  0  0
M  END
>  <MODEL>
4

>  <REMARK>
 VINA RESULT:      -9.3      1.638      6.525
  Name = 
  12 active torsions:
  status: ('A' for Active; 'I' for Inactive)
    1  A    between atoms: C_1  and  C_34
    2  A    between atoms: C_1  and  C_35
    3  A    between atoms: C_2  and  C_6
    4  A    between atoms: C_2  and  C_13
    5  A    between atoms: C_3  and  N_4
    6  A    between atoms: C_3  and  C_12
    7  A    between atoms: N_4  and  C_15
    8  A    between atoms: N_4  and  C_22
    9  A    between atoms: C_11  and  C_14
   10  A    between atoms: C_14  and  C_22
   11  A    between atoms: C_15  and  C_42
   12  A    between atoms: C_19  and  O_25
                            x       y       z     vdW  Elec       q    Type
                         _______ _______ _______ _____ _____    ______ ____

>  <TORSDO>
F 12

$$$$
=
 OpenBabel10272414173D

 43 47  0  0  1  0  0  0  0  0999 V2000
  181.2780  179.1250  141.2860 C   0  0  0  0  0  0  0  0  0  0  0  0
  185.1960  178.3620  144.4100 C   0  0  0  0  0  0  0  0  0  0  0  0
  187.4260  177.7710  142.7890 C   0  0  0  0  0  0  0  0  0  0  0  0
  182.6910  178.8920  143.2400 C   0  0  0  0  0  0  0  0  0  0  0  0
  182.3660  178.8380  140.4590 C   0  0  0  0  0  3  0  0  0  0  0  0
  180.0320  179.3830  140.7280 O   0  0  0  0  0  1  0  0  0  0  0  0
  183.8020  178.5980  142.4120 C   0  0  0  0  0  0  0  0  0  0  0  0
  181.4400  179.1520  142.6730 C   0  0  0  0  0  3  0  0  0  0  0  0
  183.6210  178.5760  141.0160 C   0  0  0  0  0  3  0  0  0  0  0  0
  186.1780  178.0390  142.2070 C   0  0  0  0  0  3  0  0  0  0  0  0
  185.0580  178.3340  142.9980 C   0  0  0  0  0  0  0  0  0  0  0  0
  184.0780  178.6560  145.2070 C   0  0  0  0  0  3  0  0  0  0  0  0
  186.4470  178.0880  144.9980 C   0  0  0  0  0  0  0  0  0  0  0  0
  187.5450  177.7910  144.1840 C   0  0  0  0  0  3  0  0  0  0  0  0
  182.8380  178.9200  144.6260 C   0  0  0  0  0  3  0  0  0  0  0  0
  188.6410  177.4350  141.9620 C   0  0  2  0  0  3  0  0  0  0  0  0
  189.7710  178.0380  142.5160 O   0  0  0  0  0  1  0  0  0  0  0  0
  188.5100  177.8460  140.5250 C   0  0  0  0  0  3  0  0  0  0  0  0
  189.2440  177.3070  139.5530 C   0  0  0  0  0  0  0  0  0  0  0  0
  190.1680  176.3040  139.8300 O   0  0  0  0  0  1  0  0  0  0  0  0
  189.0780  177.7920  138.1400 C   0  0  0  0  0  2  0  0  0  0  0  0
  188.7980  176.7270  137.1660 N   0  0  0  0  0  0  0  0  0  0  0  0
  187.7110  177.1300  136.2790 C   0  0  0  0  0  2  0  0  0  0  0  0
  185.4270  177.6620  137.7050 S   0  0  0  0  0  1  0  0  0  0  0  0
  186.4070  176.4870  136.7230 C   0  0  0  0  0  2  0  0  0  0  0  0
  189.9800  176.4400  136.3600 C   0  0  0  0  0  2  0  0  0  0  0  0
  190.5530  175.1170  136.7530 C   0  0  0  0  0  0  0  0  0  0  0  0
  189.7760  174.2210  137.1820 O   0  0  0  0  0  0  0  0  0  0  0  0
  192.0040  174.8590  136.6620 C   0  0  0  0  0  0  0  0  0  0  0  0
  193.8950  174.0620  135.4210 N   0  0  0  0  0  0  0  0  0  0  0  0
  194.2340  174.9470  137.6140 C   0  0  0  0  0  3  0  0  0  0  0  0
  194.7360  174.3760  136.4440 C   0  0  0  0  0  3  0  0  0  0  0  0
  192.8630  175.1890  137.7190 C   0  0  0  0  0  3  0  0  0  0  0  0
  192.5550  174.2890  135.5050 C   0  0  0  0  0  3  0  0  0  0  0  0
  186.6420  178.1160  146.4860 C   0  0  0  0  0  2  0  0  0  0  0  0
  190.4170  177.2900  146.2020 C   0  0  0  0  0  2  0  0  0  0  0  0
  190.6250  177.0560  147.7120 C   0  0  2  0  0  3  0  0  0  0  0  0
  188.3450  178.0070  148.3050 C   0  0  0  0  0  2  0  0  0  0  0  0
  189.0840  177.9790  145.8890 C   0  0  0  0  0  2  0  0  0  0  0  0
  188.0000  177.5520  146.8800 C   0  0  2  0  0  3  0  0  0  0  0  0
  189.8520  178.0390  148.6020 C   0  0  0  0  0  2  0  0  0  0  0  0
  191.9820  176.9190  148.0750 O   0  0  0  0  0  0  0  0  0  0  0  0
  192.4050  175.6150  147.7640 C   0  0  0  0  0  1  0  0  0  0  0  0
  1  8  1  0  0  0  0
  2 13  1  0  0  0  0
  2 12  1  0  0  0  0
  3 14  1  0  0  0  0
  4 15  1  0  0  0  0
  5  9  1  0  0  0  0
  5  1  2  0  0  0  0
  6  1  1  0  0  0  0
  7 11  1  0  0  0  0
  7  4  1  0  0  0  0
  8  4  2  0  0  0  0
  9  7  2  0  0  0  0
 10  3  2  0  0  0  0
 10 11  1  0  0  0  0
 11  2  2  0  0  0  0
 13 35  1  0  0  0  0
 14 13  2  0  0  0  0
 15 12  2  0  0  0  0
 16 17  1  1  0  0  0
 16  3  1  0  0  0  0
 18 16  1  0  0  0  0
 19 20  1  0  0  0  0
 19 18  2  0  0  0  0
 21 19  1  0  0  0  0
 22 21  1  0  0  0  0
 23 25  1  0  0  0  0
 23 22  1  0  0  0  0
 25 24  1  0  0  0  0
 26 27  1  0  0  0  0
 26 22  1  0  0  0  0
 27 28  2  0  0  0  0
 29 27  1  0  0  0  0
 29 33  1  0  0  0  0
 30 34  1  0  0  0  0
 30 32  2  0  0  0  0
 31 33  2  0  0  0  0
 32 31  1  0  0  0  0
 34 29  2  0  0  0  0
 36 37  1  0  0  0  0
 37 42  1  6  0  0  0
 37 41  1  0  0  0  0
 38 41  1  0  0  0  0
 39 36  1  0  0  0  0
 39 40  1  0  0  0  0
 40 35  1  6  0  0  0
 40 38  1  0  0  0  0
 43 42  1  0  0  0  0
M  END
>  <MODEL>
5

>  <REMARK>
 VINA RESULT:      -9.0      2.128      7.344
  Name = 
  12 active torsions:
  status: ('A' for Active; 'I' for Inactive)
    1  A    between atoms: C_1  and  C_34
    2  A    between atoms: C_1  and  C_35
    3  A    between atoms: C_2  and  C_6
    4  A    between atoms: C_2  and  C_13
    5  A    between atoms: C_3  and  N_4
    6  A    between atoms: C_3  and  C_12
    7  A    between atoms: N_4  and  C_15
    8  A    between atoms: N_4  and  C_22
    9  A    between atoms: C_11  and  C_14
   10  A    between atoms: C_14  and  C_22
   11  A    between atoms: C_15  and  C_42
   12  A    between atoms: C_19  and  O_25
                            x       y       z     vdW  Elec       q    Type
                         _______ _______ _______ _____ _____    ______ ____

>  <TORSDO>
F 12

$$$$
=
 OpenBabel10272414173D

 43 47  0  0  1  0  0  0  0  0999 V2000
  187.9910  177.8050  147.9800 C   0  0  0  0  0  0  0  0  0  0  0  0
  188.3470  177.7750  142.9240 C   0  0  0  0  0  0  0  0  0  0  0  0
  185.8130  178.5050  141.9260 C   0  0  0  0  0  0  0  0  0  0  0  0
  188.7870  177.6160  145.7000 C   0  0  0  0  0  0  0  0  0  0  0  0
  186.7270  178.1720  147.5130 C   0  0  0  0  0  3  0  0  0  0  0  0
  188.2270  177.7150  149.3460 O   0  0  0  0  0  1  0  0  0  0  0  0
  187.5080  177.9860  145.2140 C   0  0  0  0  0  0  0  0  0  0  0  0
  189.0190  177.5280  147.0760 C   0  0  0  0  0  3  0  0  0  0  0  0
  186.4850  178.2630  146.1400 C   0  0  0  0  0  3  0  0  0  0  0  0
  186.0340  178.4290  143.3100 C   0  0  0  0  0  3  0  0  0  0  0  0
  187.2890  178.0670  143.8230 C   0  0  0  0  0  0  0  0  0  0  0  0
  189.6040  177.4120  143.4330 C   0  0  0  0  0  3  0  0  0  0  0  0
  188.1260  177.8460  141.5340 C   0  0  0  0  0  0  0  0  0  0  0  0
  186.8630  178.2040  141.0500 C   0  0  0  0  0  3  0  0  0  0  0  0
  189.8210  177.3350  144.8090 C   0  0  0  0  0  3  0  0  0  0  0  0
  184.4700  178.8760  141.3480 C   0  0  2  0  0  3  0  0  0  0  0  0
  183.4580  178.5230  142.2430 O   0  0  0  0  0  1  0  0  0  0  0  0
  184.2020  178.2380  140.0170 C   0  0  0  0  0  3  0  0  0  0  0  0
  184.2080  178.9260  138.8760 C   0  0  0  0  0  0  0  0  0  0  0  0
  184.4870  180.2890  138.8670 O   0  0  0  0  0  1  0  0  0  0  0  0
  183.9000  178.2240  137.5830 C   0  0  0  0  0  2  0  0  0  0  0  0
  182.5360  177.6820  137.5020 N   0  0  0  0  0  0  0  0  0  0  0  0
  181.6800  178.5880  136.7400 C   0  0  0  0  0  2  0  0  0  0  0  0
  180.8170  180.7960  138.1220 S   0  0  0  0  0  1  0  0  0  0  0  0
  180.5310  179.0760  137.6070 C   0  0  0  0  0  2  0  0  0  0  0  0
  182.5360  176.3780  136.8490 C   0  0  0  0  0  2  0  0  0  0  0  0
  183.0640  175.3410  137.7870 C   0  0  0  0  0  0  0  0  0  0  0  0
  182.5720  175.2630  138.9470 O   0  0  0  0  0  0  0  0  0  0  0  0
  184.1550  174.4320  137.3830 C   0  0  0  0  0  0  0  0  0  0  0  0
  186.4310  174.0950  136.7090 N   0  0  0  0  0  0  0  0  0  0  0  0
  184.9960  172.2000  136.9390 C   0  0  0  0  0  3  0  0  0  0  0  0
  186.2420  172.7490  136.6370 C   0  0  0  0  0  3  0  0  0  0  0  0
  183.9510  173.0470  137.3140 C   0  0  0  0  0  3  0  0  0  0  0  0
  185.4250  174.9380  137.0720 C   0  0  0  0  0  3  0  0  0  0  0  0
  189.2180  177.5560  140.5460 C   0  0  0  0  0  2  0  0  0  0  0  0
  188.7330  178.9600  136.9680 C   0  0  0  0  0  2  0  0  0  0  0  0
  188.2960  177.6170  136.3460 C   0  0  2  0  0  3  0  0  0  0  0  0
  188.9720  176.2950  138.4090 C   0  0  0  0  0  2  0  0  0  0  0  0
  189.3570  178.7920  138.3570 C   0  0  0  0  0  2  0  0  0  0  0  0
  188.7080  177.6330  139.1140 C   0  0  2  0  0  3  0  0  0  0  0  0
  189.0760  176.4060  136.8800 C   0  0  0  0  0  2  0  0  0  0  0  0
  188.2110  177.6540  134.9380 O   0  0  0  0  0  0  0  0  0  0  0  0
  188.2770  176.3400  134.4450 C   0  0  0  0  0  1  0  0  0  0  0  0
  1  6  1  0  0  0  0
  2 12  1  0  0  0  0
  2 11  1  0  0  0  0
  3 10  1  0  0  0  0
  4  8  1  0  0  0  0
  5  1  1  0  0  0  0
  7  4  2  0  0  0  0
  7  9  1  0  0  0  0
  8  1  2  0  0  0  0
  9  5  2  0  0  0  0
 10 11  2  0  0  0  0
 11  7  1  0  0  0  0
 12 15  2  0  0  0  0
 13  2  2  0  0  0  0
 14 13  1  0  0  0  0
 14  3  2  0  0  0  0
 15  4  1  0  0  0  0
 16  3  1  0  0  0  0
 16 17  1  1  0  0  0
 18 16  1  0  0  0  0
 19 18  2  0  0  0  0
 20 19  1  0  0  0  0
 21 19  1  0  0  0  0
 22 21  1  0  0  0  0
 23 22  1  0  0  0  0
 23 25  1  0  0  0  0
 25 24  1  0  0  0  0
 26 22  1  0  0  0  0
 26 27  1  0  0  0  0
 27 28  2  0  0  0  0
 29 27  1  0  0  0  0
 30 34  1  0  0  0  0
 31 33  2  0  0  0  0
 32 30  2  0  0  0  0
 32 31  1  0  0  0  0
 33 29  1  0  0  0  0
 34 29  2  0  0  0  0
 35 13  1  0  0  0  0
 36 39  1  0  0  0  0
 37 42  1  6  0  0  0
 37 41  1  0  0  0  0
 37 36  1  0  0  0  0
 38 40  1  0  0  0  0
 39 40  1  0  0  0  0
 40 35  1  1  0  0  0
 41 38  1  0  0  0  0
 43 42  1  0  0  0  0
M  END
>  <MODEL>
6

>  <REMARK>
 VINA RESULT:      -8.7      2.947      6.026
  Name = 
  12 active torsions:
  status: ('A' for Active; 'I' for Inactive)
    1  A    between atoms: C_1  and  C_34
    2  A    between atoms: C_1  and  C_35
    3  A    between atoms: C_2  and  C_6
    4  A    between atoms: C_2  and  C_13
    5  A    between atoms: C_3  and  N_4
    6  A    between atoms: C_3  and  C_12
    7  A    between atoms: N_4  and  C_15
    8  A    between atoms: N_4  and  C_22
    9  A    between atoms: C_11  and  C_14
   10  A    between atoms: C_14  and  C_22
   11  A    between atoms: C_15  and  C_42
   12  A    between atoms: C_19  and  O_25
                            x       y       z     vdW  Elec       q    Type
                         _______ _______ _______ _____ _____    ______ ____

>  <TORSDO>
F 12

$$$$
=
 OpenBabel10272414173D

 43 47  0  0  1  0  0  0  0  0999 V2000
  194.0290  175.4410  136.7080 C   0  0  0  0  0  0  0  0  0  0  0  0
  189.2460  177.1120  136.8450 C   0  0  0  0  0  0  0  0  0  0  0  0
  188.6380  177.6170  139.5520 C   0  0  0  0  0  0  0  0  0  0  0  0
  191.7910  176.1560  136.1170 C   0  0  0  0  0  0  0  0  0  0  0  0
  193.7560  175.6860  138.0550 C   0  0  0  0  0  3  0  0  0  0  0  0
  195.2770  174.9630  136.3290 O   0  0  0  0  0  1  0  0  0  0  0  0
  191.5020  176.4060  137.4810 C   0  0  0  0  0  0  0  0  0  0  0  0
  193.0490  175.6750  135.7410 C   0  0  0  0  0  3  0  0  0  0  0  0
  192.5020  176.1650  138.4420 C   0  0  0  0  0  3  0  0  0  0  0  0
  189.9080  177.1440  139.1880 C   0  0  0  0  0  3  0  0  0  0  0  0
  190.2270  176.8870  137.8460 C   0  0  0  0  0  0  0  0  0  0  0  0
  189.5600  176.8560  135.5010 C   0  0  0  0  0  3  0  0  0  0  0  0
  187.9690  177.5830  137.2100 C   0  0  0  0  0  0  0  0  0  0  0  0
  187.6760  177.8240  138.5560 C   0  0  0  0  0  3  0  0  0  0  0  0
  190.8220  176.3840  135.1420 C   0  0  0  0  0  3  0  0  0  0  0  0
  188.2650  177.8860  140.9880 C   0  0  2  0  0  3  0  0  0  0  0  0
  187.6600  179.1390  141.0930 O   0  0  0  0  0  1  0  0  0  0  0  0
  189.4350  177.8170  141.9260 C   0  0  0  0  0  3  0  0  0  0  0  0
  189.5600  176.8660  142.8500 C   0  0  0  0  0  0  0  0  0  0  0  0
  188.6040  175.8630  142.9760 O   0  0  0  0  0  1  0  0  0  0  0  0
  190.7450  176.8800  143.7750 C   0  0  0  0  0  2  0  0  0  0  0  0
  190.3950  176.8840  145.2020 N   0  0  0  0  0  0  0  0  0  0  0  0
  191.6060  176.9330  146.0170 C   0  0  0  0  0  2  0  0  0  0  0  0
  192.7330  175.7880  148.2420 S   0  0  0  0  0  1  0  0  0  0  0  0
  191.8600  175.5800  146.6610 C   0  0  0  0  0  2  0  0  0  0  0  0
  189.5640  178.0380  145.5280 C   0  0  0  0  0  2  0  0  0  0  0  0
  188.4020  177.6070  146.3630 C   0  0  0  0  0  0  0  0  0  0  0  0
  188.6140  176.8740  147.3680 O   0  0  0  0  0  0  0  0  0  0  0  0
  187.0250  178.0100  146.0170 C   0  0  0  0  0  0  0  0  0  0  0  0
  184.8600  178.7870  146.6940 N   0  0  0  0  0  0  0  0  0  0  0  0
  185.2860  178.4140  144.3740 C   0  0  0  0  0  3  0  0  0  0  0  0
  184.4270  178.7970  145.4040 C   0  0  0  0  0  3  0  0  0  0  0  0
  186.5890  178.0200  144.6850 C   0  0  0  0  0  3  0  0  0  0  0  0
  186.1260  178.4060  147.0180 C   0  0  0  0  0  3  0  0  0  0  0  0
  186.9040  177.8450  136.1850 C   0  0  0  0  0  2  0  0  0  0  0  0
  185.3030  174.3520  136.6860 C   0  0  0  0  0  2  0  0  0  0  0  0
  183.8650  174.8790  136.8670 C   0  0  2  0  0  3  0  0  0  0  0  0
  184.6360  177.2920  137.0660 C   0  0  0  0  0  2  0  0  0  0  0  0
  186.3560  175.4610  136.7840 C   0  0  0  0  0  2  0  0  0  0  0  0
  185.8160  176.7800  136.2280 C   0  0  2  0  0  3  0  0  0  0  0  0
  183.7800  176.1770  137.6850 C   0  0  0  0  0  2  0  0  0  0  0  0
  182.9550  173.8880  137.2920 O   0  0  0  0  0  0  0  0  0  0  0  0
  181.7530  174.0400  136.5800 C   0  0  0  0  0  1  0  0  0  0  0  0
  1  5  1  0  0  0  0
  2 13  2  0  0  0  0
  2 11  1  0  0  0  0
  3 16  1  0  0  0  0
  4  7  2  0  0  0  0
  5  9  2  0  0  0  0
  6  1  1  0  0  0  0
  7 11  1  0  0  0  0
  7  9  1  0  0  0  0
  8  4  1  0  0  0  0
  8  1  2  0  0  0  0
 10  3  1  0  0  0  0
 11 10  2  0  0  0  0
 12  2  1  0  0  0  0
 13 14  1  0  0  0  0
 14  3  2  0  0  0  0
 15 12  2  0  0  0  0
 15  4  1  0  0  0  0
 16 17  1  6  0  0  0
 16 18  1  0  0  0  0
 18 19  2  0  0  0  0
 19 20  1  0  0  0  0
 19 21  1  0  0  0  0
 21 22  1  0  0  0  0
 22 26  1  0  0  0  0
 22 23  1  0  0  0  0
 23 25  1  0  0  0  0
 25 24  1  0  0  0  0
 26 27  1  0  0  0  0
 27 28  2  0  0  0  0
 29 27  1  0  0  0  0
 29 34  1  0  0  0  0
 30 34  2  0  0  0  0
 31 33  1  0  0  0  0
 31 32  2  0  0  0  0
 32 30  1  0  0  0  0
 33 29  2  0  0  0  0
 35 13  1  0  0  0  0
 36 39  1  0  0  0  0
 36 37  1  0  0  0  0
 37 42  1  1  0  0  0
 37 41  1  0  0  0  0
 38 41  1  0  0  0  0
 40 35  1  1  0  0  0
 40 39  1  0  0  0  0
 40 38  1  0  0  0  0
 43 42  1  0  0  0  0
M  END
>  <MODEL>
7

>  <REMARK>
 VINA RESULT:      -8.5      3.495      8.183
  Name = 
  12 active torsions:
  status: ('A' for Active; 'I' for Inactive)
    1  A    between atoms: C_1  and  C_34
    2  A    between atoms: C_1  and  C_35
    3  A    between atoms: C_2  and  C_6
    4  A    between atoms: C_2  and  C_13
    5  A    between atoms: C_3  and  N_4
    6  A    between atoms: C_3  and  C_12
    7  A    between atoms: N_4  and  C_15
    8  A    between atoms: N_4  and  C_22
    9  A    between atoms: C_11  and  C_14
   10  A    between atoms: C_14  and  C_22
   11  A    between atoms: C_15  and  C_42
   12  A    between atoms: C_19  and  O_25
                            x       y       z     vdW  Elec       q    Type
                         _______ _______ _______ _____ _____    ______ ____

>  <TORSDO>
F 12

$$$$
=
 OpenBabel10272414173D

 43 47  0  0  1  0  0  0  0  0999 V2000
  191.0550  176.5370  146.7960 C   0  0  0  0  0  0  0  0  0  0  0  0
  189.4920  177.6670  142.1080 C   0  0  0  0  0  0  0  0  0  0  0  0
  186.7890  178.4440  142.3170 C   0  0  0  0  0  0  0  0  0  0  0  0
  190.9340  176.9150  144.4060 C   0  0  0  0  0  0  0  0  0  0  0  0
  189.7190  176.9210  146.9290 C   0  0  0  0  0  3  0  0  0  0  0  0
  191.7820  176.1570  147.9170 O   0  0  0  0  0  1  0  0  0  0  0  0
  189.5770  177.3050  144.5280 C   0  0  0  0  0  0  0  0  0  0  0  0
  191.6610  176.5350  145.5380 C   0  0  0  0  0  3  0  0  0  0  0  0
  188.9830  177.3020  145.8030 C   0  0  0  0  0  3  0  0  0  0  0  0
  187.5100  178.0730  143.4630 C   0  0  0  0  0  3  0  0  0  0  0  0
  188.8550  177.6830  143.3770 C   0  0  0  0  0  0  0  0  0  0  0  0
  190.8370  177.2780  142.0170 C   0  0  0  0  0  3  0  0  0  0  0  0
  188.7680  178.0350  140.9560 C   0  0  0  0  0  0  0  0  0  0  0  0
  187.4270  178.4130  141.0710 C   0  0  0  0  0  3  0  0  0  0  0  0
  191.5510  176.9070  143.1560 C   0  0  0  0  0  3  0  0  0  0  0  0
  185.3390  178.8510  142.3810 C   0  0  2  0  0  3  0  0  0  0  0  0
  184.8520  178.6630  143.6760 O   0  0  0  0  0  1  0  0  0  0  0  0
  184.4720  178.1050  141.4090 C   0  0  0  0  0  3  0  0  0  0  0  0
  184.0800  178.6270  140.2480 C   0  0  0  0  0  0  0  0  0  0  0  0
  184.4820  179.9040  139.8680 O   0  0  0  0  0  1  0  0  0  0  0  0
  183.1860  177.8300  139.3390 C   0  0  0  0  0  2  0  0  0  0  0  0
  181.8020  177.7030  139.8160 N   0  0  0  0  0  0  0  0  0  0  0  0
  181.2770  179.0120  140.1940 C   0  0  0  0  0  2  0  0  0  0  0  0
  180.8310  179.1730  142.8970 S   0  0  0  0  0  1  0  0  0  0  0  0
  180.1770  178.8570  141.2310 C   0  0  0  0  0  2  0  0  0  0  0  0
  180.9470  177.1370  138.7780 C   0  0  0  0  0  2  0  0  0  0  0  0
  180.8930  175.6510  138.9200 C   0  0  0  0  0  0  0  0  0  0  0  0
  180.4140  175.1580  139.9790 O   0  0  0  0  0  0  0  0  0  0  0  0
  181.4030  174.7640  137.8550 C   0  0  0  0  0  0  0  0  0  0  0  0
  182.8820  174.3830  136.0070 N   0  0  0  0  0  0  0  0  0  0  0  0
  181.4110  172.6320  136.6980 C   0  0  0  0  0  3  0  0  0  0  0  0
  182.4070  173.1170  135.8500 C   0  0  0  0  0  3  0  0  0  0  0  0
  180.9100  173.4610  137.7040 C   0  0  0  0  0  3  0  0  0  0  0  0
  182.4060  175.2070  136.9800 C   0  0  0  0  0  3  0  0  0  0  0  0
  189.4030  178.0420  139.5960 C   0  0  0  0  0  2  0  0  0  0  0  0
  187.4870  178.7960  136.3140 C   0  0  0  0  0  2  0  0  0  0  0  0
  186.8870  177.3830  136.1720 C   0  0  2  0  0  3  0  0  0  0  0  0
  188.3720  176.4280  137.9990 C   0  0  0  0  0  2  0  0  0  0  0  0
  188.6170  178.8570  137.3470 C   0  0  0  0  0  2  0  0  0  0  0  0
  188.3640  177.8800  138.4960 C   0  0  2  0  0  3  0  0  0  0  0  0
  187.8560  176.2570  136.5630 C   0  0  0  0  0  2  0  0  0  0  0  0
  186.2480  177.1680  134.9320 O   0  0  0  0  0  0  0  0  0  0  0  0
  186.0700  175.7870  134.7460 C   0  0  0  0  0  1  0  0  0  0  0  0
  1  5  1  0  0  0  0
  1  6  1  0  0  0  0
  2 11  1  0  0  0  0
  3 16  1  0  0  0  0
  3 10  1  0  0  0  0
  4  7  2  0  0  0  0
  4  8  1  0  0  0  0
  7  9  1  0  0  0  0
  8  1  2  0  0  0  0
  9  5  2  0  0  0  0
 11 10  2  0  0  0  0
 11  7  1  0  0  0  0
 12  2  1  0  0  0  0
 12 15  2  0  0  0  0
 13 14  1  0  0  0  0
 13  2  2  0  0  0  0
 14  3  2  0  0  0  0
 15  4  1  0  0  0  0
 16 17  1  1  0  0  0
 18 16  1  0  0  0  0
 19 18  2  0  0  0  0
 20 19  1  0  0  0  0
 21 22  1  0  0  0  0
 21 19  1  0  0  0  0
 22 23  1  0  0  0  0
 23 25  1  0  0  0  0
 25 24  1  0  0  0  0
 26 27  1  0  0  0  0
 26 22  1  0  0  0  0
 27 28  2  0  0  0  0
 29 27  1  0  0  0  0
 30 34  1  0  0  0  0
 31 33  2  0  0  0  0
 32 30  2  0  0  0  0
 32 31  1  0  0  0  0
 33 29  1  0  0  0  0
 34 29  2  0  0  0  0
 35 13  1  0  0  0  0
 36 39  1  0  0  0  0
 37 42  1  6  0  0  0
 37 36  1  0  0  0  0
 37 41  1  0  0  0  0
 38 40  1  0  0  0  0
 39 40  1  0  0  0  0
 40 35  1  1  0  0  0
 41 38  1  0  0  0  0
 43 42  1  0  0  0  0
M  END
>  <MODEL>
8

>  <REMARK>
 VINA RESULT:      -8.5      3.101      6.279
  Name = 
  12 active torsions:
  status: ('A' for Active; 'I' for Inactive)
    1  A    between atoms: C_1  and  C_34
    2  A    between atoms: C_1  and  C_35
    3  A    between atoms: C_2  and  C_6
    4  A    between atoms: C_2  and  C_13
    5  A    between atoms: C_3  and  N_4
    6  A    between atoms: C_3  and  C_12
    7  A    between atoms: N_4  and  C_15
    8  A    between atoms: N_4  and  C_22
    9  A    between atoms: C_11  and  C_14
   10  A    between atoms: C_14  and  C_22
   11  A    between atoms: C_15  and  C_42
   12  A    between atoms: C_19  and  O_25
                            x       y       z     vdW  Elec       q    Type
                         _______ _______ _______ _____ _____    ______ ____

>  <TORSDO>
F 12

$$$$
=
 OpenBabel10272414173D

 43 47  0  0  1  0  0  0  0  0999 V2000
  190.8860  176.7360  146.6650 C   0  0  0  0  0  0  0  0  0  0  0  0
  189.3750  177.7630  141.9370 C   0  0  0  0  0  0  0  0  0  0  0  0
  186.6270  178.3840  142.0780 C   0  0  0  0  0  0  0  0  0  0  0  0
  190.8010  177.1010  144.2720 C   0  0  0  0  0  0  0  0  0  0  0  0
  189.5270  177.0420  146.7640 C   0  0  0  0  0  3  0  0  0  0  0  0
  191.6060  176.4010  147.8040 O   0  0  0  0  0  1  0  0  0  0  0  0
  189.4220  177.4120  144.3590 C   0  0  0  0  0  0  0  0  0  0  0  0
  191.5220  176.7650  145.4220 C   0  0  0  0  0  3  0  0  0  0  0  0
  188.7980  177.3780  145.6200 C   0  0  0  0  0  3  0  0  0  0  0  0
  187.3410  178.0580  143.2420 C   0  0  0  0  0  3  0  0  0  0  0  0
  188.7070  177.7460  143.1890 C   0  0  0  0  0  0  0  0  0  0  0  0
  190.7420  177.4520  141.8790 C   0  0  0  0  0  3  0  0  0  0  0  0
  188.6600  178.0860  140.7660 C   0  0  0  0  0  0  0  0  0  0  0  0
  187.2960  178.3870  140.8470 C   0  0  0  0  0  3  0  0  0  0  0  0
  191.4480  177.1250  143.0370 C   0  0  0  0  0  3  0  0  0  0  0  0
  185.1550  178.7070  142.1040 C   0  0  2  0  0  3  0  0  0  0  0  0
  184.6020  178.2910  143.3170 O   0  0  0  0  0  1  0  0  0  0  0  0
  184.3920  178.0870  140.9700 C   0  0  0  0  0  3  0  0  0  0  0  0
  184.0980  178.7510  139.8540 C   0  0  0  0  0  0  0  0  0  0  0  0
  184.5110  180.0690  139.6780 O   0  0  0  0  0  1  0  0  0  0  0  0
  183.3040  178.0730  138.7730 C   0  0  0  0  0  2  0  0  0  0  0  0
  181.8760  178.4200  138.7680 N   0  0  0  0  0  0  0  0  0  0  0  0
  181.2330  177.9190  139.9800 C   0  0  0  0  0  2  0  0  0  0  0  0
  180.3690  175.8950  138.3390 S   0  0  0  0  0  1  0  0  0  0  0  0
  179.9870  177.1250  139.6220 C   0  0  0  0  0  2  0  0  0  0  0  0
  181.6940  179.8660  138.7040 C   0  0  0  0  0  2  0  0  0  0  0  0
  180.8860  180.2230  137.5000 C   0  0  0  0  0  0  0  0  0  0  0  0
  180.1770  179.3310  136.9570 O   0  0  0  0  0  0  0  0  0  0  0  0
  180.9220  181.5860  136.9350 C   0  0  0  0  0  0  0  0  0  0  0  0
  180.6780  183.0620  135.0600 N   0  0  0  0  0  0  0  0  0  0  0  0
  181.2280  183.9790  137.1960 C   0  0  0  0  0  3  0  0  0  0  0  0
  180.9590  184.1430  135.8370 C   0  0  0  0  0  3  0  0  0  0  0  0
  181.2080  182.6950  137.7430 C   0  0  0  0  0  3  0  0  0  0  0  0
  180.6550  181.8010  135.5750 C   0  0  0  0  0  3  0  0  0  0  0  0
  189.3260  178.1280  139.4220 C   0  0  0  0  0  2  0  0  0  0  0  0
  188.0960  175.8710  136.5220 C   0  0  0  0  0  2  0  0  0  0  0  0
  189.0220  174.6850  136.8620 C   0  0  2  0  0  3  0  0  0  0  0  0
  190.3760  176.0520  138.5220 C   0  0  0  0  0  2  0  0  0  0  0  0
  188.4920  177.1580  137.2530 C   0  0  0  0  0  2  0  0  0  0  0  0
  189.0700  176.8500  138.6350 C   0  0  2  0  0  3  0  0  0  0  0  0
  190.4290  175.1090  137.3110 C   0  0  0  0  0  2  0  0  0  0  0  0
  189.0280  173.6790  135.8730 O   0  0  0  0  0  0  0  0  0  0  0  0
  190.3580  173.3150  135.6040 C   0  0  0  0  0  1  0  0  0  0  0  0
  1  5  1  0  0  0  0
  1  6  1  0  0  0  0
  2 11  1  0  0  0  0
  3 16  1  0  0  0  0
  3 10  1  0  0  0  0
  4  7  2  0  0  0  0
  4  8  1  0  0  0  0
  7  9  1  0  0  0  0
  8  1  2  0  0  0  0
  9  5  2  0  0  0  0
 11 10  2  0  0  0  0
 11  7  1  0  0  0  0
 12  2  1  0  0  0  0
 12 15  2  0  0  0  0
 13 14  1  0  0  0  0
 13  2  2  0  0  0  0
 14  3  2  0  0  0  0
 15  4  1  0  0  0  0
 16 17  1  1  0  0  0
 18 16  1  0  0  0  0
 19 18  2  0  0  0  0
 20 19  1  0  0  0  0
 21 19  1  0  0  0  0
 22 21  1  0  0  0  0
 22 23  1  0  0  0  0
 24 25  1  0  0  0  0
 25 23  1  0  0  0  0
 26 22  1  0  0  0  0
 27 26  1  0  0  0  0
 28 27  2  0  0  0  0
 29 27  1  0  0  0  0
 29 33  1  0  0  0  0
 30 34  1  0  0  0  0
 30 32  2  0  0  0  0
 31 33  2  0  0  0  0
 32 31  1  0  0  0  0
 34 29  2  0  0  0  0
 35 13  1  0  0  0  0
 36 37  1  0  0  0  0
 36 39  1  0  0  0  0
 37 42  1  6  0  0  0
 37 41  1  0  0  0  0
 38 40  1  0  0  0  0
 39 40  1  0  0  0  0
 40 35  1  6  0  0  0
 41 38  1  0  0  0  0
 43 42  1  0  0  0  0
M  END
>  <MODEL>
9

>  <REMARK>
 VINA RESULT:      -8.4      3.537      7.168
  Name = 
  12 active torsions:
  status: ('A' for Active; 'I' for Inactive)
    1  A    between atoms: C_1  and  C_34
    2  A    between atoms: C_1  and  C_35
    3  A    between atoms: C_2  and  C_6
    4  A    between atoms: C_2  and  C_13
    5  A    between atoms: C_3  and  N_4
    6  A    between atoms: C_3  and  C_12
    7  A    between atoms: N_4  and  C_15
    8  A    between atoms: N_4  and  C_22
    9  A    between atoms: C_11  and  C_14
   10  A    between atoms: C_14  and  C_22
   11  A    between atoms: C_15  and  C_42
   12  A    between atoms: C_19  and  O_25
                            x       y       z     vdW  Elec       q    Type
                         _______ _______ _______ _____ _____    ______ ____

>  <TORSDO>
F 12

$$$$
