=
 OpenBabel10272401533D

 28 32  0  0  1  0  0  0  0  0999 V2000
  189.0570  176.9970  145.3040 C   0  0  1  0  0  3  0  0  0  0  0  0
  185.8270  178.7620  141.5430 C   0  0  0  0  0  2  0  0  0  0  0  0
  186.1700  179.7680  146.6390 C   0  0  0  0  0  1  0  0  0  0  0  0
  183.6530  178.6680  142.7880 C   0  0  0  0  0  0  0  0  0  0  0  0
  185.8470  178.4380  144.0220 C   0  0  2  0  0  3  0  0  0  0  0  0
  183.7170  178.9300  140.3710 C   0  0  0  0  0  0  0  0  0  0  0  0
  185.0760  178.1420  142.7300 C   0  0  2  0  0  3  0  0  0  0  0  0
  183.7100  178.9610  145.2600 C   0  0  0  0  0  2  0  0  0  0  0  0
  183.0080  178.9670  141.6590 C   0  0  0  0  0  3  0  0  0  0  0  0
  186.9690  177.4960  146.4650 C   0  0  2  0  0  3  0  0  0  0  0  0
  187.0990  177.5710  144.1010 C   0  0  0  0  0  2  0  0  0  0  0  0
  182.8630  178.5710  144.0560 C   0  0  0  0  0  2  0  0  0  0  0  0
  188.9020  176.6140  147.7640 C   0  0  0  0  0  2  0  0  0  0  0  0
  185.7740  178.3600  146.5100 N   0  0  0  0  0  0  0  0  0  0  0  0
  187.7010  177.5350  147.8090 C   0  0  0  0  0  2  0  0  0  0  0  0
  182.8060  179.0160  138.8790 Cl  0  0  0  0  0  0  0  0  0  0  0  0
  185.0060  178.7690  140.3310 N   0  0  0  0  0  0  0  0  0  0  0  0
  185.0040  178.1500  145.2730 C   0  0  2  0  0  3  0  0  0  0  0  0
  189.8100  177.0560  146.6350 C   0  0  0  0  0  2  0  0  0  0  0  0
  187.8520  177.8540  145.3270 N   0  0  2  0  0  0  0  0  0  0  0  0
  191.4100  177.7810  144.6580 C   0  0  0  0  0  2  0  0  0  0  0  0
  190.0200  177.4090  144.1790 C   0  0  0  0  0  0  0  0  0  0  0  0
  190.4600  178.8610  144.1690 C   0  0  0  0  0  2  0  0  0  0  0  0
  189.6000  177.3870  141.6420 N   0  0  0  0  0  0  0  0  0  0  0  0
  190.3000  175.4840  142.8030 O   0  0  0  0  0  0  0  0  0  0  0  0
  189.9960  176.7080  142.8470 C   0  0  0  0  0  0  0  0  0  0  0  0
  189.5660  176.6730  140.3760 C   0  0  0  0  0  1  0  0  0  0  0  0
  189.2230  178.7910  141.6400 C   0  0  0  0  0  1  0  0  0  0  0  0
  1 22  1  6  0  0  0
  1 20  1  0  0  0  0
  1 19  1  0  0  0  0
  4 12  1  0  0  0  0
  5 11  1  1  0  0  0
  5 18  1  0  0  0  0
  6  9  1  0  0  0  0
  7  2  1  6  0  0  0
  7  4  1  0  0  0  0
  7  5  1  0  0  0  0
  9  4  2  0  0  0  0
 10 14  1  0  0  0  0
 10 15  1  1  0  0  0
 12  8  1  0  0  0  0
 13 15  1  0  0  0  0
 14  3  1  0  0  0  0
 16  6  1  0  0  0  0
 17  6  2  0  0  0  0
 17  2  1  0  0  0  0
 18  8  1  1  0  0  0
 18 14  1  0  0  0  0
 19 13  1  0  0  0  0
 20 11  1  6  0  0  0
 20 10  1  0  0  0  0
 22 21  1  0  0  0  0
 23 22  1  0  0  0  0
 23 21  1  0  0  0  0
 24 26  1  0  0  0  0
 25 26  2  0  0  0  0
 26 22  1  0  0  0  0
 27 24  1  0  0  0  0
 28 24  1  0  0  0  0
M  END
>  <MODEL>
1

>  <REMARK>
 VINA RESULT:      -9.6      0.000      0.000
  Name = 
  2 active torsions:
  status: ('A' for Active; 'I' for Inactive)
    1  A    between atoms: C_1  and  C_3
    2  A    between atoms: C_3  and  C_11
                            x       y       z     vdW  Elec       q    Type
                         _______ _______ _______ _____ _____    ______ ____

>  <TORSDO>
F 2

$$$$
=
 OpenBabel10272401533D

 28 32  0  0  1  0  0  0  0  0999 V2000
  189.2930  177.0870  138.4560 C   0  0  1  0  0  3  0  0  0  0  0  0
  185.9850  178.8230  142.1620 C   0  0  0  0  0  2  0  0  0  0  0  0
  191.1690  178.3780  142.0070 C   0  0  0  0  0  1  0  0  0  0  0  0
  187.0140  177.7400  144.1750 C   0  0  0  0  0  0  0  0  0  0  0  0
  188.2690  177.8220  141.9820 C   0  0  2  0  0  3  0  0  0  0  0  0
  184.7770  178.6910  144.2540 C   0  0  0  0  0  0  0  0  0  0  0  0
  186.9000  177.6960  142.6620 C   0  0  2  0  0  3  0  0  0  0  0  0
  189.4670  177.3130  144.1460 C   0  0  0  0  0  2  0  0  0  0  0  0
  185.9760  178.1460  144.9080 C   0  0  0  0  0  3  0  0  0  0  0  0
  190.4140  176.5920  140.5670 C   0  0  2  0  0  3  0  0  0  0  0  0
  188.1790  177.3790  140.5260 C   0  0  0  0  0  2  0  0  0  0  0  0
  188.1510  177.0540  144.8660 C   0  0  0  0  0  2  0  0  0  0  0  0
  191.5310  175.9850  138.4260 C   0  0  0  0  0  2  0  0  0  0  0  0
  190.6240  177.0150  141.9640 N   0  0  0  0  0  0  0  0  0  0  0  0
  191.7580  176.4580  139.8460 C   0  0  0  0  0  2  0  0  0  0  0  0
  183.3150  178.9290  145.1870 Cl  0  0  0  0  0  0  0  0  0  0  0  0
  184.7750  178.9360  142.9780 N   0  0  0  0  0  0  0  0  0  0  0  0
  189.3330  176.9520  142.6670 C   0  0  2  0  0  3  0  0  0  0  0  0
  190.6320  176.9800  137.7210 C   0  0  0  0  0  2  0  0  0  0  0  0
  189.4800  177.5060  139.8620 N   0  0  2  0  0  0  0  0  0  0  0  0
  188.9390  178.4870  136.3390 C   0  0  0  0  0  2  0  0  0  0  0  0
  188.3920  178.0690  137.6900 C   0  0  0  0  0  0  0  0  0  0  0  0
  188.9390  179.4710  137.4960 C   0  0  0  0  0  2  0  0  0  0  0  0
  186.2260  176.7480  137.2710 N   0  0  0  0  0  0  0  0  0  0  0  0
  186.2120  178.9110  138.1530 O   0  0  0  0  0  0  0  0  0  0  0  0
  186.8930  177.9360  137.7320 C   0  0  0  0  0  0  0  0  0  0  0  0
  184.7760  176.6610  137.3040 C   0  0  0  0  0  1  0  0  0  0  0  0
  186.9630  175.6030  136.7600 C   0  0  0  0  0  1  0  0  0  0  0  0
  1 22  1  6  0  0  0
  1 20  1  0  0  0  0
  2 17  1  0  0  0  0
  4 12  1  0  0  0  0
  4  9  2  0  0  0  0
  5 11  1  6  0  0  0
  5  7  1  0  0  0  0
  5 18  1  0  0  0  0
  6  9  1  0  0  0  0
  6 16  1  0  0  0  0
  7  2  1  6  0  0  0
  7  4  1  0  0  0  0
  8 12  1  0  0  0  0
 10 15  1  6  0  0  0
 10 14  1  0  0  0  0
 13 15  1  0  0  0  0
 14  3  1  0  0  0  0
 14 18  1  0  0  0  0
 17  6  2  0  0  0  0
 18  8  1  1  0  0  0
 19 13  1  0  0  0  0
 19  1  1  0  0  0  0
 20 11  1  1  0  0  0
 20 10  1  0  0  0  0
 21 23  1  0  0  0  0
 21 22  1  0  0  0  0
 22 26  1  0  0  0  0
 23 22  1  0  0  0  0
 24 27  1  0  0  0  0
 24 26  1  0  0  0  0
 26 25  2  0  0  0  0
 28 24  1  0  0  0  0
M  END
>  <MODEL>
2

>  <REMARK>
 VINA RESULT:      -8.5      3.032      6.141
  Name = 
  2 active torsions:
  status: ('A' for Active; 'I' for Inactive)
    1  A    between atoms: C_1  and  C_3
    2  A    between atoms: C_3  and  C_11
                            x       y       z     vdW  Elec       q    Type
                         _______ _______ _______ _____ _____    ______ ____

>  <TORSDO>
F 2

$$$$
=
 OpenBabel10272401533D

 28 32  0  0  1  0  0  0  0  0999 V2000
  190.3190  176.9170  144.7300 C   0  0  1  0  0  3  0  0  0  0  0  0
  185.7070  178.9170  143.1780 C   0  0  0  0  0  2  0  0  0  0  0  0
  188.3150  179.1750  147.6760 C   0  0  0  0  0  1  0  0  0  0  0  0
  184.3380  178.4360  145.2230 C   0  0  0  0  0  0  0  0  0  0  0  0
  186.8570  178.2280  145.2890 C   0  0  2  0  0  3  0  0  0  0  0  0
  183.2920  179.0620  143.1180 C   0  0  0  0  0  0  0  0  0  0  0  0
  185.5860  178.0590  144.4470 C   0  0  2  0  0  3  0  0  0  0  0  0
  185.5090  178.3590  147.4200 C   0  0  0  0  0  2  0  0  0  0  0  0
  183.2460  178.8390  144.5720 C   0  0  0  0  0  3  0  0  0  0  0  0
  188.9810  177.0390  146.7680 C   0  0  2  0  0  3  0  0  0  0  0  0
  188.0200  177.4800  144.6480 C   0  0  0  0  0  2  0  0  0  0  0  0
  184.2130  178.0770  146.6720 C   0  0  0  0  0  2  0  0  0  0  0  0
  191.3060  176.1560  146.8920 C   0  0  0  0  0  2  0  0  0  0  0  0
  187.9250  177.7720  147.4910 N   0  0  0  0  0  0  0  0  0  0  0  0
  190.2440  176.9440  147.6290 C   0  0  0  0  0  2  0  0  0  0  0  0
  181.8000  179.2860  142.2300 Cl  0  0  0  0  0  0  0  0  0  0  0  0
  184.4240  179.0300  142.4810 N   0  0  0  0  0  0  0  0  0  0  0  0
  186.6800  177.6790  146.7120 C   0  0  2  0  0  3  0  0  0  0  0  0
  191.5950  176.8450  145.5740 C   0  0  0  0  0  2  0  0  0  0  0  0
  189.2440  177.6440  145.4380 N   0  0  2  0  0  0  0  0  0  0  0  0
  192.0030  178.2800  143.3630 C   0  0  0  0  0  2  0  0  0  0  0  0
  190.6590  177.5800  143.3860 C   0  0  0  0  0  0  0  0  0  0  0  0
  190.7220  179.0950  143.3820 C   0  0  0  0  0  2  0  0  0  0  0  0
  189.3580  177.5290  141.1680 N   0  0  0  0  0  0  0  0  0  0  0  0
  190.7800  175.7920  141.8160 O   0  0  0  0  0  0  0  0  0  0  0  0
  190.2860  176.9220  142.0840 C   0  0  0  0  0  0  0  0  0  0  0  0
  189.0030  176.8560  139.9310 C   0  0  0  0  0  1  0  0  0  0  0  0
  188.7470  178.8210  141.4380 C   0  0  0  0  0  1  0  0  0  0  0  0
  1 22  1  6  0  0  0
  1 20  1  0  0  0  0
  1 19  1  0  0  0  0
  4 12  1  0  0  0  0
  5 11  1  6  0  0  0
  5 18  1  0  0  0  0
  6  9  1  0  0  0  0
  7  2  1  6  0  0  0
  7  4  1  0  0  0  0
  7  5  1  0  0  0  0
  9  4  2  0  0  0  0
 10 14  1  0  0  0  0
 10 15  1  1  0  0  0
 12  8  1  0  0  0  0
 13 15  1  0  0  0  0
 14  3  1  0  0  0  0
 16  6  1  0  0  0  0
 17  6  2  0  0  0  0
 17  2  1  0  0  0  0
 18  8  1  1  0  0  0
 18 14  1  0  0  0  0
 19 13  1  0  0  0  0
 20 11  1  6  0  0  0
 20 10  1  0  0  0  0
 21 23  1  0  0  0  0
 21 22  1  0  0  0  0
 23 22  1  0  0  0  0
 24 28  1  0  0  0  0
 24 26  1  0  0  0  0
 25 26  2  0  0  0  0
 26 22  1  0  0  0  0
 27 24  1  0  0  0  0
M  END
>  <MODEL>
3

>  <REMARK>
 VINA RESULT:      -8.4      1.441      2.049
  Name = 
  2 active torsions:
  status: ('A' for Active; 'I' for Inactive)
    1  A    between atoms: C_1  and  C_3
    2  A    between atoms: C_3  and  C_11
                            x       y       z     vdW  Elec       q    Type
                         _______ _______ _______ _____ _____    ______ ____

>  <TORSDO>
F 2

$$$$
=
 OpenBabel10272401533D

 28 32  0  0  1  0  0  0  0  0999 V2000
  188.6370  177.1430  145.7300 C   0  0  1  0  0  3  0  0  0  0  0  0
  185.9190  178.5300  141.4430 C   0  0  0  0  0  2  0  0  0  0  0  0
  185.7610  180.1580  146.3850 C   0  0  0  0  0  1  0  0  0  0  0  0
  183.6220  178.6710  142.4370 C   0  0  0  0  0  0  0  0  0  0  0  0
  185.6570  178.5210  143.9290 C   0  0  2  0  0  3  0  0  0  0  0  0
  183.9580  178.6220  140.0280 C   0  0  0  0  0  0  0  0  0  0  0  0
  185.0150  178.0920  142.6040 C   0  0  2  0  0  3  0  0  0  0  0  0
  183.4270  179.2710  144.8460 C   0  0  0  0  0  2  0  0  0  0  0  0
  183.1170  178.8470  141.2150 C   0  0  0  0  0  3  0  0  0  0  0  0
  186.4630  177.8560  146.5790 C   0  0  2  0  0  3  0  0  0  0  0  0
  186.8490  177.6280  144.2530 C   0  0  0  0  0  2  0  0  0  0  0  0
  182.6960  178.7610  143.6110 C   0  0  0  0  0  2  0  0  0  0  0  0
  188.2000  177.0780  148.1850 C   0  0  0  0  0  2  0  0  0  0  0  0
  185.3140  178.7600  146.3840 N   0  0  0  0  0  0  0  0  0  0  0  0
  187.0470  178.0390  147.9830 C   0  0  0  0  0  2  0  0  0  0  0  0
  183.2170  178.5520  138.4440 Cl  0  0  0  0  0  0  0  0  0  0  0  0
  185.2350  178.4140  140.1540 N   0  0  0  0  0  0  0  0  0  0  0  0
  184.6720  178.4230  145.1030 C   0  0  2  0  0  3  0  0  0  0  0  0
  189.2450  177.3420  147.1200 C   0  0  0  0  0  2  0  0  0  0  0  0
  187.4790  178.0370  145.5120 N   0  0  2  0  0  0  0  0  0  0  0  0
  190.4850  178.6820  144.8460 C   0  0  0  0  0  2  0  0  0  0  0  0
  189.7340  177.3750  144.6790 C   0  0  0  0  0  0  0  0  0  0  0  0
  189.4990  178.5130  143.7030 C   0  0  0  0  0  2  0  0  0  0  0  0
  191.6390  175.6750  144.9870 N   0  0  0  0  0  0  0  0  0  0  0  0
  190.3810  175.7900  143.0220 O   0  0  0  0  0  0  0  0  0  0  0  0
  190.5850  176.2350  144.1850 C   0  0  0  0  0  0  0  0  0  0  0  0
  192.4560  174.5910  144.4710 C   0  0  0  0  0  1  0  0  0  0  0  0
  191.9260  176.1630  146.3260 C   0  0  0  0  0  1  0  0  0  0  0  0
  1 22  1  6  0  0  0
  1 19  1  0  0  0  0
  4  7  1  0  0  0  0
  4 12  1  0  0  0  0
  5 11  1  1  0  0  0
  5 18  1  0  0  0  0
  6 17  2  0  0  0  0
  6  9  1  0  0  0  0
  7  2  1  6  0  0  0
  7  5  1  0  0  0  0
  9  4  2  0  0  0  0
 10 15  1  1  0  0  0
 12  8  1  0  0  0  0
 14  3  1  0  0  0  0
 14 10  1  0  0  0  0
 15 13  1  0  0  0  0
 16  6  1  0  0  0  0
 17  2  1  0  0  0  0
 18  8  1  6  0  0  0
 18 14  1  0  0  0  0
 19 13  1  0  0  0  0
 20 11  1  6  0  0  0
 20  1  1  0  0  0  0
 20 10  1  0  0  0  0
 22 21  1  0  0  0  0
 23 22  1  0  0  0  0
 23 21  1  0  0  0  0
 24 28  1  0  0  0  0
 25 26  2  0  0  0  0
 26 22  1  0  0  0  0
 26 24  1  0  0  0  0
 27 24  1  0  0  0  0
M  END
>  <MODEL>
4

>  <REMARK>
 VINA RESULT:      -7.9      1.316      1.853
  Name = 
  2 active torsions:
  status: ('A' for Active; 'I' for Inactive)
    1  A    between atoms: C_1  and  C_3
    2  A    between atoms: C_3  and  C_11
                            x       y       z     vdW  Elec       q    Type
                         _______ _______ _______ _____ _____    ______ ____

>  <TORSDO>
F 2

$$$$
=
 OpenBabel10272401533D

 28 32  0  0  1  0  0  0  0  0999 V2000
  189.4000  176.9990  144.1440 C   0  0  1  0  0  3  0  0  0  0  0  0
  192.4280  177.0830  139.8410 C   0  0  0  0  0  2  0  0  0  0  0  0
  187.8380  179.2730  140.9530 C   0  0  0  0  0  1  0  0  0  0  0  0
  190.6610  176.7860  138.0870 C   0  0  0  0  0  0  0  0  0  0  0  0
  190.0210  177.3450  140.4680 C   0  0  2  0  0  3  0  0  0  0  0  0
  193.0200  176.4980  137.5690 C   0  0  0  0  0  0  0  0  0  0  0  0
  190.9990  176.5960  139.5540 C   0  0  2  0  0  3  0  0  0  0  0  0
  188.3730  177.6380  138.5770 C   0  0  0  0  0  2  0  0  0  0  0  0
  191.6160  176.6660  137.1630 C   0  0  0  0  0  3  0  0  0  0  0  0
  187.8340  177.2620  142.2910 C   0  0  2  0  0  3  0  0  0  0  0  0
  190.1290  176.8250  141.8970 C   0  0  0  0  0  2  0  0  0  0  0  0
  189.2330  176.8030  137.6380 C   0  0  0  0  0  2  0  0  0  0  0  0
  186.9560  177.1600  144.6190 C   0  0  0  0  0  2  0  0  0  0  0  0
  187.6240  177.8210  140.9420 N   0  0  0  0  0  0  0  0  0  0  0  0
  186.7530  177.7710  143.2480 C   0  0  0  0  0  2  0  0  0  0  0  0
  194.2160  176.0340  136.3780 Cl  0  0  0  0  0  0  0  0  0  0  0  0
  193.3670  176.6290  138.8150 N   0  0  0  0  0  0  0  0  0  0  0  0
  188.5640  177.1660  140.0180 C   0  0  2  0  0  3  0  0  0  0  0  0
  188.3400  177.5270  145.1140 C   0  0  0  0  0  2  0  0  0  0  0  0
  189.2060  177.5420  142.7820 N   0  0  2  0  0  0  0  0  0  0  0  0
  190.9230  178.7870  145.1680 C   0  0  0  0  0  2  0  0  0  0  0  0
  190.7890  177.3510  144.6990 C   0  0  0  0  0  0  0  0  0  0  0  0
  191.6070  178.3370  143.8870 C   0  0  0  0  0  2  0  0  0  0  0  0
  191.5350  176.3850  146.9630 N   0  0  0  0  0  0  0  0  0  0  0  0
  192.2830  175.5090  144.9300 O   0  0  0  0  0  0  0  0  0  0  0  0
  191.5650  176.3590  145.5250 C   0  0  0  0  0  0  0  0  0  0  0  0
  192.3140  175.4270  147.7290 C   0  0  0  0  0  1  0  0  0  0  0  0
  190.7380  177.3540  147.6970 C   0  0  0  0  0  1  0  0  0  0  0  0
  1 22  1  1  0  0  0
  1 19  1  0  0  0  0
  4  7  1  0  0  0  0
  5 11  1  1  0  0  0
  6 17  2  0  0  0  0
  7  2  1  6  0  0  0
  7  5  1  0  0  0  0
  9  6  1  0  0  0  0
  9  4  2  0  0  0  0
 10 20  1  0  0  0  0
 10 15  1  1  0  0  0
 12  4  1  0  0  0  0
 12  8  1  0  0  0  0
 13 19  1  0  0  0  0
 14  3  1  0  0  0  0
 14 10  1  0  0  0  0
 15 13  1  0  0  0  0
 16  6  1  0  0  0  0
 17  2  1  0  0  0  0
 18  8  1  6  0  0  0
 18  5  1  0  0  0  0
 18 14  1  0  0  0  0
 20 11  1  6  0  0  0
 20  1  1  0  0  0  0
 22 21  1  0  0  0  0
 22 26  1  0  0  0  0
 23 22  1  0  0  0  0
 23 21  1  0  0  0  0
 24 28  1  0  0  0  0
 24 27  1  0  0  0  0
 25 26  2  0  0  0  0
 26 24  1  0  0  0  0
M  END
>  <MODEL>
5

>  <REMARK>
 VINA RESULT:      -7.7      3.414      6.358
  Name = 
  2 active torsions:
  status: ('A' for Active; 'I' for Inactive)
    1  A    between atoms: C_1  and  C_3
    2  A    between atoms: C_3  and  C_11
                            x       y       z     vdW  Elec       q    Type
                         _______ _______ _______ _____ _____    ______ ____

>  <TORSDO>
F 2

$$$$
=
 OpenBabel10272401533D

 28 32  0  0  1  0  0  0  0  0999 V2000
  188.5560  177.2530  144.4490 C   0  0  1  0  0  3  0  0  0  0  0  0
  189.3900  178.0980  139.3230 C   0  0  0  0  0  2  0  0  0  0  0  0
  185.8890  179.9970  142.6740 C   0  0  0  0  0  1  0  0  0  0  0  0
  187.0190  178.0650  138.5070 C   0  0  0  0  0  0  0  0  0  0  0  0
  187.5220  178.2120  140.9810 C   0  0  2  0  0  3  0  0  0  0  0  0
  188.8920  177.9060  136.9630 C   0  0  0  0  0  0  0  0  0  0  0  0
  187.9550  177.6410  139.6250 C   0  0  2  0  0  3  0  0  0  0  0  0
  185.2320  178.7870  140.0840 C   0  0  0  0  0  2  0  0  0  0  0  0
  187.4640  178.1150  137.2510 C   0  0  0  0  0  3  0  0  0  0  0  0
  186.3540  177.7930  143.5450 C   0  0  2  0  0  3  0  0  0  0  0  0
  188.2150  177.4650  142.1150 C   0  0  0  0  0  2  0  0  0  0  0  0
  185.5420  178.1330  138.7450 C   0  0  0  0  0  2  0  0  0  0  0  0
  186.5820  177.2930  145.9740 C   0  0  0  0  0  2  0  0  0  0  0  0
  185.6070  178.5630  142.5330 N   0  0  0  0  0  0  0  0  0  0  0  0
  185.8350  178.1190  144.9480 C   0  0  0  0  0  2  0  0  0  0  0  0
  189.4140  177.6650  135.3100 Cl  0  0  0  0  0  0  0  0  0  0  0  0
  189.7560  177.8350  137.9300 N   0  0  0  0  0  0  0  0  0  0  0  0
  186.0070  178.0860  141.1990 C   0  0  2  0  0  3  0  0  0  0  0  0
  188.0610  177.5960  145.8570 C   0  0  0  0  0  2  0  0  0  0  0  0
  187.8170  178.0110  143.4160 N   0  0  2  0  0  0  0  0  0  0  0  0
  190.4450  178.9690  144.6770 C   0  0  0  0  0  2  0  0  0  0  0  0
  190.0660  177.5310  144.3800 C   0  0  0  0  0  0  0  0  0  0  0  0
  190.5310  178.4380  143.2570 C   0  0  0  0  0  2  0  0  0  0  0  0
  191.3740  176.3860  146.2750 N   0  0  0  0  0  0  0  0  0  0  0  0
  191.6580  175.7930  144.0340 O   0  0  0  0  0  0  0  0  0  0  0  0
  191.0620  176.5170  144.8780 C   0  0  0  0  0  0  0  0  0  0  0  0
  192.3570  175.4120  146.7190 C   0  0  0  0  0  1  0  0  0  0  0  0
  190.7290  177.2080  147.2870 C   0  0  0  0  0  1  0  0  0  0  0  0
  1 22  1  1  0  0  0
  1 19  1  0  0  0  0
  4 12  1  0  0  0  0
  4  7  1  0  0  0  0
  5 18  1  0  0  0  0
  5 11  1  1  0  0  0
  6  9  1  0  0  0  0
  6 17  2  0  0  0  0
  7  2  1  6  0  0  0
  7  5  1  0  0  0  0
  9  4  2  0  0  0  0
 10 15  1  1  0  0  0
 12  8  1  0  0  0  0
 14  3  1  0  0  0  0
 14 10  1  0  0  0  0
 15 13  1  0  0  0  0
 16  6  1  0  0  0  0
 17  2  1  0  0  0  0
 18  8  1  6  0  0  0
 18 14  1  0  0  0  0
 19 13  1  0  0  0  0
 20 11  1  6  0  0  0
 20 10  1  0  0  0  0
 20  1  1  0  0  0  0
 22 21  1  0  0  0  0
 22 26  1  0  0  0  0
 23 22  1  0  0  0  0
 23 21  1  0  0  0  0
 24 27  1  0  0  0  0
 24 28  1  0  0  0  0
 25 26  2  0  0  0  0
 26 24  1  0  0  0  0
M  END
>  <MODEL>
6

>  <REMARK>
 VINA RESULT:      -7.3      2.575      4.340
  Name = 
  2 active torsions:
  status: ('A' for Active; 'I' for Inactive)
    1  A    between atoms: C_1  and  C_3
    2  A    between atoms: C_3  and  C_11
                            x       y       z     vdW  Elec       q    Type
                         _______ _______ _______ _____ _____    ______ ____

>  <TORSDO>
F 2

$$$$
=
 OpenBabel10272401533D

 28 32  0  0  1  0  0  0  0  0999 V2000
  189.2220  177.6650  146.3620 C   0  0  1  0  0  3  0  0  0  0  0  0
  185.7020  178.2410  142.4940 C   0  0  0  0  0  2  0  0  0  0  0  0
  190.0500  175.4080  142.8960 C   0  0  0  0  0  1  0  0  0  0  0  0
  187.2610  178.4130  140.5380 C   0  0  0  0  0  0  0  0  0  0  0  0
  188.1090  177.6300  142.7870 C   0  0  2  0  0  3  0  0  0  0  0  0
  184.9180  179.0370  140.3470 C   0  0  0  0  0  0  0  0  0  0  0  0
  187.1370  178.5540  142.0440 C   0  0  2  0  0  3  0  0  0  0  0  0
  189.4530  177.2420  140.6850 C   0  0  0  0  0  2  0  0  0  0  0  0
  186.2250  178.7140  139.7540 C   0  0  0  0  0  3  0  0  0  0  0  0
  190.4960  177.3140  144.3090 C   0  0  2  0  0  3  0  0  0  0  0  0
  188.2510  178.0700  144.2390 C   0  0  0  0  0  2  0  0  0  0  0  0
  188.6070  178.2380  139.9050 C   0  0  0  0  0  2  0  0  0  0  0  0
  191.6610  177.1580  146.5050 C   0  0  0  0  0  2  0  0  0  0  0  0
  190.4580  176.8180  142.9210 N   0  0  0  0  0  0  0  0  0  0  0  0
  191.6070  176.6110  145.0930 C   0  0  0  0  0  2  0  0  0  0  0  0
  183.6590  179.7260  139.3450 Cl  0  0  0  0  0  0  0  0  0  0  0  0
  184.7140  178.8760  141.6210 N   0  0  0  0  0  0  0  0  0  0  0  0
  189.5090  177.6450  142.1580 C   0  0  2  0  0  3  0  0  0  0  0  0
  190.3120  176.9440  147.1600 C   0  0  0  0  0  2  0  0  0  0  0  0
  189.1690  177.1860  144.9630 N   0  0  2  0  0  0  0  0  0  0  0  0
  187.8300  178.0390  148.4800 C   0  0  0  0  0  2  0  0  0  0  0  0
  187.8770  177.4630  147.0780 C   0  0  0  0  0  0  0  0  0  0  0  0
  187.8880  176.5350  148.2770 C   0  0  0  0  0  2  0  0  0  0  0  0
  185.7330  178.7280  146.4360 N   0  0  0  0  0  0  0  0  0  0  0  0
  186.2140  176.5970  145.6090 O   0  0  0  0  0  0  0  0  0  0  0  0
  186.5780  177.5700  146.3260 C   0  0  0  0  0  0  0  0  0  0  0  0
  184.4740  178.7880  145.7130 C   0  0  0  0  0  1  0  0  0  0  0  0
  186.0960  179.8690  147.2620 C   0  0  0  0  0  1  0  0  0  0  0  0
  1 22  1  1  0  0  0
  1 19  1  0  0  0  0
  3 14  1  0  0  0  0
  4  7  1  0  0  0  0
  5 11  1  1  0  0  0
  6 17  2  0  0  0  0
  7  2  1  1  0  0  0
  7  5  1  0  0  0  0
  9  6  1  0  0  0  0
  9  4  2  0  0  0  0
 10 20  1  0  0  0  0
 10 15  1  1  0  0  0
 12  4  1  0  0  0  0
 12  8  1  0  0  0  0
 13 19  1  0  0  0  0
 14 10  1  0  0  0  0
 15 13  1  0  0  0  0
 16  6  1  0  0  0  0
 17  2  1  0  0  0  0
 18  8  1  6  0  0  0
 18  5  1  0  0  0  0
 18 14  1  0  0  0  0
 20 11  1  6  0  0  0
 20  1  1  0  0  0  0
 22 23  1  0  0  0  0
 22 21  1  0  0  0  0
 23 21  1  0  0  0  0
 24 28  1  0  0  0  0
 25 26  2  0  0  0  0
 26 24  1  0  0  0  0
 26 22  1  0  0  0  0
 27 24  1  0  0  0  0
M  END
>  <MODEL>
7

>  <REMARK>
 VINA RESULT:      -7.3      1.584      4.590
  Name = 
  2 active torsions:
  status: ('A' for Active; 'I' for Inactive)
    1  A    between atoms: C_1  and  C_3
    2  A    between atoms: C_3  and  C_11
                            x       y       z     vdW  Elec       q    Type
                         _______ _______ _______ _____ _____    ______ ____

>  <TORSDO>
F 2

$$$$
=
 OpenBabel10272401533D

 28 32  0  0  1  0  0  0  0  0999 V2000
  183.5890  178.0200  137.3540 C   0  0  1  0  0  3  0  0  0  0  0  0
  184.9100  177.9420  142.4470 C   0  0  0  0  0  2  0  0  0  0  0  0
  180.5120  176.7340  139.9370 C   0  0  0  0  0  1  0  0  0  0  0  0
  182.8250  178.9300  143.4300 C   0  0  0  0  0  0  0  0  0  0  0  0
  182.8630  178.1510  141.0250 C   0  0  2  0  0  3  0  0  0  0  0  0
  184.8710  178.7390  144.7310 C   0  0  0  0  0  0  0  0  0  0  0  0
  183.6590  178.7900  142.1690 C   0  0  2  0  0  3  0  0  0  0  0  0
  180.6780  178.5670  142.2210 C   0  0  0  0  0  2  0  0  0  0  0  0
  183.4230  178.9740  144.6210 C   0  0  0  0  0  3  0  0  0  0  0  0
  181.4980  178.4400  138.5420 C   0  0  2  0  0  3  0  0  0  0  0  0
  183.5680  178.3870  139.6940 C   0  0  0  0  0  2  0  0  0  0  0  0
  181.3820  179.3220  143.3400 C   0  0  0  0  0  2  0  0  0  0  0  0
  181.4870  178.3590  136.0530 C   0  0  0  0  0  2  0  0  0  0  0  0
  180.7160  178.1780  139.7650 N   0  0  0  0  0  0  0  0  0  0  0  0
  180.6900  178.0480  137.3020 C   0  0  0  0  0  2  0  0  0  0  0  0
  185.6950  179.1010  146.2320 Cl  0  0  0  0  0  0  0  0  0  0  0  0
  185.5520  178.3270  143.7040 N   0  0  0  0  0  0  0  0  0  0  0  0
  181.4480  178.7370  140.9120 C   0  0  2  0  0  3  0  0  0  0  0  0
  182.7980  177.6020  136.1120 C   0  0  0  0  0  2  0  0  0  0  0  0
  182.8210  177.7700  138.5930 N   0  0  2  0  0  0  0  0  0  0  0  0
  185.0360  176.1910  136.2940 C   0  0  0  0  0  2  0  0  0  0  0  0
  184.9280  177.2670  137.3580 C   0  0  0  0  0  0  0  0  0  0  0  0
  184.8740  175.8040  137.7540 C   0  0  0  0  0  2  0  0  0  0  0  0
  187.1380  178.3300  136.5830 N   0  0  0  0  0  0  0  0  0  0  0  0
  186.5100  178.2660  138.8320 O   0  0  0  0  0  0  0  0  0  0  0  0
  186.2200  177.9880  137.6360 C   0  0  0  0  0  0  0  0  0  0  0  0
  188.3870  179.0060  136.8900 C   0  0  0  0  0  1  0  0  0  0  0  0
  186.8600  178.0170  135.1910 C   0  0  0  0  0  1  0  0  0  0  0  0
  1 19  1  6  0  0  0
  1 22  1  0  0  0  0
  1 20  1  0  0  0  0
  2 17  1  0  0  0  0
  4  9  2  0  0  0  0
  5 11  1  6  0  0  0
  5  7  1  0  0  0  0
  6 16  1  0  0  0  0
  7  2  1  1  0  0  0
  7  4  1  0  0  0  0
  8 12  1  0  0  0  0
  9  6  1  0  0  0  0
 10 15  1  6  0  0  0
 10 20  1  0  0  0  0
 10 14  1  0  0  0  0
 12  4  1  0  0  0  0
 13 19  1  0  0  0  0
 13 15  1  0  0  0  0
 14  3  1  0  0  0  0
 14 18  1  0  0  0  0
 17  6  2  0  0  0  0
 18  5  1  0  0  0  0
 18  8  1  1  0  0  0
 20 11  1  1  0  0  0
 21 22  1  0  0  0  0
 21 23  1  0  0  0  0
 22 26  1  0  0  0  0
 22 23  1  0  0  0  0
 24 27  1  0  0  0  0
 24 26  1  0  0  0  0
 26 25  2  0  0  0  0
 28 24  1  0  0  0  0
M  END
>  <MODEL>
8

>  <REMARK>
 VINA RESULT:      -6.8      3.997      7.542
  Name = 
  2 active torsions:
  status: ('A' for Active; 'I' for Inactive)
    1  A    between atoms: C_1  and  C_3
    2  A    between atoms: C_3  and  C_11
                            x       y       z     vdW  Elec       q    Type
                         _______ _______ _______ _____ _____    ______ ____

>  <TORSDO>
F 2

$$$$
=
 OpenBabel10272401533D

 28 32  0  0  1  0  0  0  0  0999 V2000
  187.8830  177.1180  144.7920 C   0  0  1  0  0  3  0  0  0  0  0  0
  184.9770  178.4130  140.6010 C   0  0  0  0  0  2  0  0  0  0  0  0
  185.2320  180.3360  145.4320 C   0  0  0  0  0  1  0  0  0  0  0  0
  182.7600  178.7510  141.7240 C   0  0  0  0  0  0  0  0  0  0  0  0
  184.8760  178.5660  143.0950 C   0  0  2  0  0  3  0  0  0  0  0  0
  182.9360  178.5410  139.3070 C   0  0  0  0  0  0  0  0  0  0  0  0
  184.1260  178.1000  141.8410 C   0  0  2  0  0  3  0  0  0  0  0  0
  182.7560  179.5020  144.0980 C   0  0  0  0  0  2  0  0  0  0  0  0
  182.1880  178.8850  140.5260 C   0  0  0  0  0  3  0  0  0  0  0  0
  185.8120  178.0110  145.7270 C   0  0  2  0  0  3  0  0  0  0  0  0
  186.0340  177.6230  143.4000 C   0  0  0  0  0  2  0  0  0  0  0  0
  181.9190  178.9670  142.9440 C   0  0  0  0  0  2  0  0  0  0  0  0
  187.6030  177.2240  147.2690 C   0  0  0  0  0  2  0  0  0  0  0  0
  184.7060  178.9700  145.5460 N   0  0  0  0  0  0  0  0  0  0  0  0
  186.4960  178.2400  147.0780 C   0  0  0  0  0  2  0  0  0  0  0  0
  182.0920  178.4220  137.7780 Cl  0  0  0  0  0  0  0  0  0  0  0  0
  184.2040  178.2620  139.3670 N   0  0  0  0  0  0  0  0  0  0  0  0
  183.9650  178.5970  144.3310 C   0  0  2  0  0  3  0  0  0  0  0  0
  188.5900  177.3620  146.1280 C   0  0  0  0  0  2  0  0  0  0  0  0
  186.7660  178.0660  144.5910 N   0  0  2  0  0  0  0  0  0  0  0  0
  188.3690  176.9140  142.2850 C   0  0  0  0  0  2  0  0  0  0  0  0
  188.9210  177.2210  143.6640 C   0  0  0  0  0  0  0  0  0  0  0  0
  189.2920  175.9230  142.9720 C   0  0  0  0  0  2  0  0  0  0  0  0
  191.2530  178.0940  144.3060 N   0  0  0  0  0  0  0  0  0  0  0  0
  189.7050  179.4120  143.1550 O   0  0  0  0  0  0  0  0  0  0  0  0
  189.9740  178.2960  143.6790 C   0  0  0  0  0  0  0  0  0  0  0  0
  192.2380  179.1620  144.3230 C   0  0  0  0  0  1  0  0  0  0  0  0
  191.6070  176.8340  144.9390 C   0  0  0  0  0  1  0  0  0  0  0  0
  1 22  1  6  0  0  0
  1 19  1  0  0  0  0
  3 14  1  0  0  0  0
  4  7  1  0  0  0  0
  4 12  1  0  0  0  0
  5 11  1  1  0  0  0
  5 18  1  0  0  0  0
  6 17  2  0  0  0  0
  6  9  1  0  0  0  0
  7  2  1  6  0  0  0
  7  5  1  0  0  0  0
  9  4  2  0  0  0  0
 10 15  1  1  0  0  0
 12  8  1  0  0  0  0
 14 10  1  0  0  0  0
 15 13  1  0  0  0  0
 16  6  1  0  0  0  0
 17  2  1  0  0  0  0
 18  8  1  6  0  0  0
 18 14  1  0  0  0  0
 19 13  1  0  0  0  0
 20 11  1  6  0  0  0
 20  1  1  0  0  0  0
 20 10  1  0  0  0  0
 21 23  1  0  0  0  0
 21 22  1  0  0  0  0
 22 26  1  0  0  0  0
 23 22  1  0  0  0  0
 24 27  1  0  0  0  0
 24 28  1  0  0  0  0
 25 26  2  0  0  0  0
 26 24  1  0  0  0  0
M  END
>  <MODEL>
9

>  <REMARK>
 VINA RESULT:      -6.7      1.561      2.301
  Name = 
  2 active torsions:
  status: ('A' for Active; 'I' for Inactive)
    1  A    between atoms: C_1  and  C_3
    2  A    between atoms: C_3  and  C_11
                            x       y       z     vdW  Elec       q    Type
                         _______ _______ _______ _____ _____    ______ ____

>  <TORSDO>
F 2

$$$$
