=
 OpenBabel10272413553D

 30 33  0  0  1  0  0  0  0  0999 V2000
  186.9880  177.8540  143.3610 N   0  0  0  0  0  0  0  0  0  0  0  0
  184.7030  178.2990  142.7560 C   0  0  0  0  0  0  0  0  0  0  0  0
  186.2440  178.0820  147.5330 C   0  0  0  0  0  2  0  0  0  0  0  0
  188.0760  177.6850  144.2780 C   0  0  0  0  0  0  0  0  0  0  0  0
  187.4500  178.4890  148.3660 C   0  0  0  0  0  2  0  0  0  0  0  0
  183.5670  178.8770  143.1590 C   0  0  0  0  0  3  0  0  0  0  0  0
  184.8990  178.0360  141.4400 F   0  0  0  0  0  0  0  0  0  0  0  0
  186.5280  178.1180  146.0930 N   0  0  0  0  0  0  0  0  0  0  0  0
  183.3650  179.2440  144.5770 C   0  0  0  0  0  3  0  0  0  0  0  0
  185.7620  178.0270  143.7420 C   0  0  0  0  0  0  0  0  0  0  0  0
  187.8680  177.8440  145.6060 C   0  0  0  0  0  0  0  0  0  0  0  0
  188.6150  177.5930  147.9940 C   0  0  0  0  0  2  0  0  0  0  0  0
  189.0340  177.8850  146.5630 C   0  0  0  0  0  2  0  0  0  0  0  0
  184.2280  178.8530  145.5230 C   0  0  0  0  0  3  0  0  0  0  0  0
  185.3800  177.9310  145.1970 C   0  0  2  0  0  3  0  0  0  0  0  0
  189.4320  177.4390  143.6680 C   0  0  1  0  0  3  0  0  0  0  0  0
  189.2300  175.2770  142.6470 O   0  0  0  0  0  0  0  0  0  0  0  0
  189.3890  176.5170  142.4810 C   0  0  0  0  0  0  0  0  0  0  0  0
  188.4540  178.0040  140.3030 S   0  0  0  0  0  0  0  0  0  0  0  0
  190.6630  176.8510  140.3040 C   0  0  0  0  0  3  0  0  0  0  0  0
  189.5620  177.0510  141.1240 C   0  0  0  0  0  0  0  0  0  0  0  0
  189.3440  178.1860  138.8880 C   0  0  0  0  0  3  0  0  0  0  0  0
  190.5360  177.4860  139.0590 C   0  0  0  0  0  3  0  0  0  0  0  0
  190.3840  178.9690  143.3800 S   0  0  0  0  0  0  0  0  0  0  0  0
  191.8860  178.2730  144.1310 C   0  0  0  0  0  2  0  0  0  0  0  0
  191.5890  176.9180  144.7400 C   0  0  0  0  0  2  0  0  0  0  0  0
  191.9460  176.9180  146.1510 N   0  0  0  0  0  2  0  0  0  0  0  0
  192.3300  174.6150  146.2360 O   0  0  0  0  0  0  0  0  0  0  0  0
  192.3090  175.7210  146.8380 C   0  0  0  0  0  0  0  0  0  0  0  0
  192.6660  175.7820  148.2790 C   0  0  0  0  0  1  0  0  0  0  0  0
  1 10  2  0  0  0  0
  1  4  1  0  0  0  0
  2  6  2  0  0  0  0
  2 10  1  0  0  0  0
  3  5  1  0  0  0  0
  4 11  2  0  0  0  0
  6  9  1  0  0  0  0
  7  2  1  0  0  0  0
  8  3  1  0  0  0  0
  9 14  2  0  0  0  0
 10 15  1  0  0  0  0
 11  8  1  0  0  0  0
 11 13  1  0  0  0  0
 12  5  1  0  0  0  0
 13 12  1  0  0  0  0
 15 14  1  1  0  0  0
 15  8  1  0  0  0  0
 16 18  1  6  0  0  0
 16  4  1  0  0  0  0
 18 17  2  0  0  0  0
 19 21  1  0  0  0  0
 20 21  2  0  0  0  0
 21 18  1  0  0  0  0
 22 23  2  0  0  0  0
 22 19  1  0  0  0  0
 23 20  1  0  0  0  0
 24 16  1  0  0  0  0
 24 25  1  0  0  0  0
 25 26  1  0  0  0  0
 26 27  1  0  0  0  0
 27 29  1  0  0  0  0
 28 29  2  0  0  0  0
 29 30  1  0  0  0  0
M  END
>  <MODEL>
1

>  <REMARK>
 VINA RESULT:      -8.6      0.000      0.000
  Name = 
  7 active torsions:
  status: ('A' for Active; 'I' for Inactive)
    1  A    between atoms: C_4  and  C_13
    2  A    between atoms: N_7  and  C_16
    3  A    between atoms: C_8  and  C_12
    4  A    between atoms: C_8  and  C_13
    5  A    between atoms: C_13  and  S_27
    6  A    between atoms: C_16  and  C_30
    7  A    between atoms: S_27  and  C_30
                            x       y       z     vdW  Elec       q    Type
                         _______ _______ _______ _____ _____    ______ ____

>  <TORSDO>
F 7

$$$$
=
 OpenBabel10272413553D

 30 33  0  0  1  0  0  0  0  0999 V2000
  189.2790  177.6460  140.3340 N   0  0  0  0  0  0  0  0  0  0  0  0
  190.1950  177.1500  138.1660 C   0  0  0  0  0  0  0  0  0  0  0  0
  185.3820  178.4210  138.8430 C   0  0  0  0  0  2  0  0  0  0  0  0
  188.2470  178.0460  141.2430 C   0  0  0  0  0  0  0  0  0  0  0  0
  184.5600  179.3720  139.6970 C   0  0  0  0  0  2  0  0  0  0  0  0
  190.0590  177.3690  136.8540 C   0  0  0  0  0  3  0  0  0  0  0  0
  191.3820  176.7170  138.6590 F   0  0  0  0  0  0  0  0  0  0  0  0
  186.7530  178.2680  139.3470 N   0  0  0  0  0  0  0  0  0  0  0  0
  188.7990  177.9160  136.3040 C   0  0  0  0  0  3  0  0  0  0  0  0
  189.0750  177.4580  139.0690 C   0  0  0  0  0  0  0  0  0  0  0  0
  187.0240  178.3820  140.7680 C   0  0  0  0  0  0  0  0  0  0  0  0
  184.5860  178.8780  141.1290 C   0  0  0  0  0  2  0  0  0  0  0  0
  185.9970  179.0090  141.6780 C   0  0  0  0  0  2  0  0  0  0  0  0
  187.7070  178.0400  137.0680 C   0  0  0  0  0  3  0  0  0  0  0  0
  187.6840  177.5250  138.4890 C   0  0  2  0  0  3  0  0  0  0  0  0
  188.6430  178.1660  142.6920 C   0  0  1  0  0  3  0  0  0  0  0  0
  187.7690  175.9830  143.1680 O   0  0  0  0  0  0  0  0  0  0  0  0
  187.9630  177.1590  143.5780 C   0  0  0  0  0  0  0  0  0  0  0  0
  185.9880  178.1870  145.2730 S   0  0  0  0  0  0  0  0  0  0  0  0
  188.2240  177.4530  146.0920 C   0  0  0  0  0  3  0  0  0  0  0  0
  187.4960  177.5470  144.9150 C   0  0  0  0  0  0  0  0  0  0  0  0
  186.2230  178.3580  146.9300 C   0  0  0  0  0  3  0  0  0  0  0  0
  187.5110  177.9060  147.2110 C   0  0  0  0  0  3  0  0  0  0  0  0
  190.4470  178.2720  142.9430 S   0  0  0  0  0  0  0  0  0  0  0  0
  190.6430  176.4660  142.8970 C   0  0  0  0  0  2  0  0  0  0  0  0
  191.6840  176.0250  143.9070 C   0  0  0  0  0  2  0  0  0  0  0  0
  191.4410  176.6770  145.1860 N   0  0  0  0  0  2  0  0  0  0  0  0
  192.4590  174.9890  146.4400 O   0  0  0  0  0  0  0  0  0  0  0  0
  191.8600  176.0970  146.4210 C   0  0  0  0  0  0  0  0  0  0  0  0
  191.5870  176.8090  147.6960 C   0  0  0  0  0  1  0  0  0  0  0  0
  1  4  1  0  0  0  0
  2  7  1  0  0  0  0
  2 10  1  0  0  0  0
  3  8  1  0  0  0  0
  3  5  1  0  0  0  0
  4 16  1  0  0  0  0
  5 12  1  0  0  0  0
  6  2  2  0  0  0  0
  8 11  1  0  0  0  0
  9  6  1  0  0  0  0
  9 14  2  0  0  0  0
 10  1  2  0  0  0  0
 11  4  2  0  0  0  0
 11 13  1  0  0  0  0
 12 13  1  0  0  0  0
 15 14  1  6  0  0  0
 15 10  1  0  0  0  0
 15  8  1  0  0  0  0
 16 24  1  6  0  0  0
 16 18  1  0  0  0  0
 17 18  2  0  0  0  0
 18 21  1  0  0  0  0
 19 22  1  0  0  0  0
 20 23  1  0  0  0  0
 21 19  1  0  0  0  0
 21 20  2  0  0  0  0
 22 23  2  0  0  0  0
 25 24  1  0  0  0  0
 25 26  1  0  0  0  0
 26 27  1  0  0  0  0
 27 29  1  0  0  0  0
 29 28  2  0  0  0  0
 29 30  1  0  0  0  0
M  END
>  <MODEL>
2

>  <REMARK>
 VINA RESULT:      -8.1      2.518      5.975
  Name = 
  7 active torsions:
  status: ('A' for Active; 'I' for Inactive)
    1  A    between atoms: C_4  and  C_13
    2  A    between atoms: N_7  and  C_16
    3  A    between atoms: C_8  and  C_12
    4  A    between atoms: C_8  and  C_13
    5  A    between atoms: C_13  and  S_27
    6  A    between atoms: C_16  and  C_30
    7  A    between atoms: S_27  and  C_30
                            x       y       z     vdW  Elec       q    Type
                         _______ _______ _______ _____ _____    ______ ____

>  <TORSDO>
F 7

$$$$
=
 OpenBabel10272413553D

 30 33  0  0  1  0  0  0  0  0999 V2000
  187.1540  178.3620  143.9550 N   0  0  0  0  0  0  0  0  0  0  0  0
  185.1800  178.7980  145.2600 C   0  0  0  0  0  0  0  0  0  0  0  0
  185.1950  178.9650  140.2380 C   0  0  0  0  0  2  0  0  0  0  0  0
  187.8910  178.1930  142.7380 C   0  0  0  0  0  0  0  0  0  0  0  0
  185.8180  178.2160  139.0710 C   0  0  0  0  0  2  0  0  0  0  0  0
  183.8440  178.7760  145.2460 C   0  0  0  0  0  3  0  0  0  0  0  0
  185.8450  178.7970  146.4420 F   0  0  0  0  0  0  0  0  0  0  0  0
  185.8470  178.6420  141.5140 N   0  0  0  0  0  0  0  0  0  0  0  0
  183.1010  178.6980  143.9690 C   0  0  0  0  0  3  0  0  0  0  0  0
  185.9160  178.7420  143.9860 C   0  0  0  0  0  0  0  0  0  0  0  0
  187.2560  178.2950  141.5470 C   0  0  0  0  0  0  0  0  0  0  0  0
  187.3030  178.5170  139.0430 C   0  0  0  0  0  2  0  0  0  0  0  0
  187.9600  177.9090  140.2700 C   0  0  0  0  0  2  0  0  0  0  0  0
  183.7290  178.8240  142.7940 C   0  0  0  0  0  3  0  0  0  0  0  0
  185.2010  179.1610  142.7260 C   0  0  2  0  0  3  0  0  0  0  0  0
  189.3380  177.7990  142.8830 C   0  0  1  0  0  3  0  0  0  0  0  0
  190.5200  179.6080  143.9260 O   0  0  0  0  0  0  0  0  0  0  0  0
  190.0180  178.4590  144.0510 C   0  0  0  0  0  0  0  0  0  0  0  0
  191.4790  176.9280  145.8830 S   0  0  0  0  0  0  0  0  0  0  0  0
  189.1330  177.6580  146.2980 C   0  0  0  0  0  3  0  0  0  0  0  0
  190.1270  177.7550  145.3360 C   0  0  0  0  0  0  0  0  0  0  0  0
  190.8350  176.4280  147.3540 C   0  0  0  0  0  3  0  0  0  0  0  0
  189.5330  176.9180  147.4200 C   0  0  0  0  0  3  0  0  0  0  0  0
  189.6100  175.9970  142.7910 S   0  0  0  0  0  0  0  0  0  0  0  0
  191.3010  176.2010  142.1560 C   0  0  0  0  0  2  0  0  0  0  0  0
  191.3690  177.3890  141.2170 C   0  0  0  0  0  2  0  0  0  0  0  0
  191.4640  176.9290  139.8390 N   0  0  0  0  0  2  0  0  0  0  0  0
  193.7690  177.2810  139.6960 O   0  0  0  0  0  0  0  0  0  0  0  0
  192.7060  176.9010  139.1370 C   0  0  0  0  0  0  0  0  0  0  0  0
  192.7440  176.4200  137.7310 C   0  0  0  0  0  1  0  0  0  0  0  0
  1 10  2  0  0  0  0
  2  7  1  0  0  0  0
  3  8  1  0  0  0  0
  4 16  1  0  0  0  0
  4  1  1  0  0  0  0
  5  3  1  0  0  0  0
  6  2  2  0  0  0  0
  8 11  1  0  0  0  0
  8 15  1  0  0  0  0
  9  6  1  0  0  0  0
 10  2  1  0  0  0  0
 11  4  2  0  0  0  0
 12  5  1  0  0  0  0
 12 13  1  0  0  0  0
 13 11  1  0  0  0  0
 14  9  2  0  0  0  0
 15 14  1  1  0  0  0
 15 10  1  0  0  0  0
 16 24  1  1  0  0  0
 16 18  1  0  0  0  0
 17 18  2  0  0  0  0
 18 21  1  0  0  0  0
 19 22  1  0  0  0  0
 20 23  1  0  0  0  0
 21 19  1  0  0  0  0
 21 20  2  0  0  0  0
 22 23  2  0  0  0  0
 25 24  1  0  0  0  0
 26 25  1  0  0  0  0
 27 26  1  0  0  0  0
 29 28  2  0  0  0  0
 29 27  1  0  0  0  0
 30 29  1  0  0  0  0
M  END
>  <MODEL>
3

>  <REMARK>
 VINA RESULT:      -7.7      2.655      5.586
  Name = 
  7 active torsions:
  status: ('A' for Active; 'I' for Inactive)
    1  A    between atoms: C_4  and  C_13
    2  A    between atoms: N_7  and  C_16
    3  A    between atoms: C_8  and  C_12
    4  A    between atoms: C_8  and  C_13
    5  A    between atoms: C_13  and  S_27
    6  A    between atoms: C_16  and  C_30
    7  A    between atoms: S_27  and  C_30
                            x       y       z     vdW  Elec       q    Type
                         _______ _______ _______ _____ _____    ______ ____

>  <TORSDO>
F 7

$$$$
=
 OpenBabel10272413553D

 30 33  0  0  1  0  0  0  0  0999 V2000
  188.9440  177.3770  144.2430 N   0  0  0  0  0  0  0  0  0  0  0  0
  189.7930  177.2830  146.4920 C   0  0  0  0  0  0  0  0  0  0  0  0
  185.1400  178.8460  145.4200 C   0  0  0  0  0  2  0  0  0  0  0  0
  187.9430  177.6090  143.2460 C   0  0  0  0  0  0  0  0  0  0  0  0
  184.0100  178.5010  144.4640 C   0  0  0  0  0  2  0  0  0  0  0  0
  189.4480  177.1670  147.7780 C   0  0  0  0  0  3  0  0  0  0  0  0
  191.0620  177.0010  146.1040 F   0  0  0  0  0  0  0  0  0  0  0  0
  186.4110  178.2290  145.0200 N   0  0  0  0  0  0  0  0  0  0  0  0
  188.0520  177.3930  148.2110 C   0  0  0  0  0  3  0  0  0  0  0  0
  188.7670  177.6400  145.4990 C   0  0  0  0  0  0  0  0  0  0  0  0
  186.6980  177.9930  143.6170 C   0  0  0  0  0  0  0  0  0  0  0  0
  184.4230  178.9080  143.0640 C   0  0  0  0  0  2  0  0  0  0  0  0
  185.5780  178.0320  142.6080 C   0  0  0  0  0  2  0  0  0  0  0  0
  187.1370  177.8880  147.3680 C   0  0  0  0  0  3  0  0  0  0  0  0
  187.5200  178.3400  145.9780 C   0  0  2  0  0  3  0  0  0  0  0  0
  188.3320  177.3000  141.8230 C   0  0  1  0  0  3  0  0  0  0  0  0
  188.5010  179.6640  141.4470 O   0  0  0  0  0  0  0  0  0  0  0  0
  188.3700  178.5170  140.9410 C   0  0  0  0  0  0  0  0  0  0  0  0
  186.8640  177.8050  138.6920 S   0  0  0  0  0  0  0  0  0  0  0  0
  189.1860  178.6960  138.5370 C   0  0  0  0  0  3  0  0  0  0  0  0
  188.2250  178.3790  139.4860 C   0  0  0  0  0  0  0  0  0  0  0  0
  187.4630  177.9450  137.1260 C   0  0  0  0  0  3  0  0  0  0  0  0
  188.7570  178.4520  137.2250 C   0  0  0  0  0  3  0  0  0  0  0  0
  189.8160  176.2470  141.6920 S   0  0  0  0  0  0  0  0  0  0  0  0
  190.9350  177.6780  141.6980 C   0  0  0  0  0  2  0  0  0  0  0  0
  192.0620  177.4680  140.7060 C   0  0  0  0  0  2  0  0  0  0  0  0
  191.5570  176.7990  139.5160 N   0  0  0  0  0  2  0  0  0  0  0  0
  193.6050  176.8650  138.3950 O   0  0  0  0  0  0  0  0  0  0  0  0
  192.3910  176.5280  138.3910 C   0  0  0  0  0  0  0  0  0  0  0  0
  191.8210  175.8420  137.2020 C   0  0  0  0  0  1  0  0  0  0  0  0
  1 10  2  0  0  0  0
  2  6  2  0  0  0  0
  4 11  2  0  0  0  0
  4  1  1  0  0  0  0
  5  3  1  0  0  0  0
  6  9  1  0  0  0  0
  7  2  1  0  0  0  0
  8  3  1  0  0  0  0
  8 15  1  0  0  0  0
 10 15  1  0  0  0  0
 10  2  1  0  0  0  0
 11  8  1  0  0  0  0
 12  5  1  0  0  0  0
 13 12  1  0  0  0  0
 13 11  1  0  0  0  0
 14  9  2  0  0  0  0
 15 14  1  1  0  0  0
 16 18  1  6  0  0  0
 16  4  1  0  0  0  0
 18 17  2  0  0  0  0
 19 21  1  0  0  0  0
 20 21  2  0  0  0  0
 21 18  1  0  0  0  0
 22 23  2  0  0  0  0
 22 19  1  0  0  0  0
 23 20  1  0  0  0  0
 24 25  1  0  0  0  0
 24 16  1  0  0  0  0
 26 25  1  0  0  0  0
 27 26  1  0  0  0  0
 29 28  2  0  0  0  0
 29 27  1  0  0  0  0
 30 29  1  0  0  0  0
M  END
>  <MODEL>
4

>  <REMARK>
 VINA RESULT:      -7.6      2.807      5.021
  Name = 
  7 active torsions:
  status: ('A' for Active; 'I' for Inactive)
    1  A    between atoms: C_4  and  C_13
    2  A    between atoms: N_7  and  C_16
    3  A    between atoms: C_8  and  C_12
    4  A    between atoms: C_8  and  C_13
    5  A    between atoms: C_13  and  S_27
    6  A    between atoms: C_16  and  C_30
    7  A    between atoms: S_27  and  C_30
                            x       y       z     vdW  Elec       q    Type
                         _______ _______ _______ _____ _____    ______ ____

>  <TORSDO>
F 7

$$$$
=
 OpenBabel10272413553D

 30 33  0  0  1  0  0  0  0  0999 V2000
  187.1590  178.4130  139.4850 N   0  0  0  0  0  0  0  0  0  0  0  0
  188.4120  177.9690  137.4800 C   0  0  0  0  0  0  0  0  0  0  0  0
  190.2270  177.0230  142.0680 C   0  0  0  0  0  2  0  0  0  0  0  0
  186.9380  178.4150  140.9000 C   0  0  0  0  0  0  0  0  0  0  0  0
  189.7320  176.5040  143.4090 C   0  0  0  0  0  2  0  0  0  0  0  0
  189.3820  177.2190  136.9510 C   0  0  0  0  0  3  0  0  0  0  0  0
  187.5180  178.5880  136.6690 F   0  0  0  0  0  0  0  0  0  0  0  0
  189.1200  177.3950  141.1760 N   0  0  0  0  0  0  0  0  0  0  0  0
  190.3200  176.4720  137.8170 C   0  0  0  0  0  3  0  0  0  0  0  0
  188.2780  178.0500  138.9430 C   0  0  0  0  0  0  0  0  0  0  0  0
  187.8740  177.8920  141.7280 C   0  0  0  0  0  0  0  0  0  0  0  0
  188.8310  177.5540  144.0280 C   0  0  0  0  0  2  0  0  0  0  0  0
  187.5700  177.6880  143.1920 C   0  0  0  0  0  2  0  0  0  0  0  0
  190.3380  176.6620  139.1430 C   0  0  0  0  0  3  0  0  0  0  0  0
  189.4820  177.7250  139.7910 C   0  0  2  0  0  3  0  0  0  0  0  0
  185.5980  178.9190  141.3670 C   0  0  1  0  0  3  0  0  0  0  0  0
  184.8140  180.0410  139.3960 O   0  0  0  0  0  0  0  0  0  0  0  0
  184.6190  179.1290  140.2440 C   0  0  0  0  0  0  0  0  0  0  0  0
  181.8960  178.6970  140.7250 S   0  0  0  0  0  0  0  0  0  0  0  0
  183.3450  177.0340  139.5650 C   0  0  0  0  0  3  0  0  0  0  0  0
  183.4170  178.2920  140.1460 C   0  0  0  0  0  0  0  0  0  0  0  0
  181.1110  177.2870  140.2520 C   0  0  0  0  0  3  0  0  0  0  0  0
  182.0590  176.4790  139.6270 C   0  0  0  0  0  3  0  0  0  0  0  0
  184.9170  177.9740  142.7710 S   0  0  0  0  0  0  0  0  0  0  0  0
  184.4570  179.4830  143.6730 C   0  0  0  0  0  2  0  0  0  0  0  0
  184.1990  179.1650  145.1320 C   0  0  0  0  0  2  0  0  0  0  0  0
  185.3040  178.3880  145.6740 N   0  0  0  0  0  2  0  0  0  0  0  0
  185.6830  179.8440  147.4610 O   0  0  0  0  0  0  0  0  0  0  0  0
  186.0040  178.7900  146.8500 C   0  0  0  0  0  0  0  0  0  0  0  0
  187.1250  177.9570  147.3590 C   0  0  0  0  0  1  0  0  0  0  0  0
  1  4  1  0  0  0  0
  2 10  1  0  0  0  0
  3  5  1  0  0  0  0
  4 16  1  0  0  0  0
  4 11  2  0  0  0  0
  5 12  1  0  0  0  0
  6  2  2  0  0  0  0
  6  9  1  0  0  0  0
  7  2  1  0  0  0  0
  8 11  1  0  0  0  0
  8  3  1  0  0  0  0
  9 14  2  0  0  0  0
 10  1  2  0  0  0  0
 10 15  1  0  0  0  0
 11 13  1  0  0  0  0
 13 12  1  0  0  0  0
 15 14  1  6  0  0  0
 15  8  1  0  0  0  0
 16 18  1  6  0  0  0
 16 24  1  0  0  0  0
 17 18  2  0  0  0  0
 20 23  1  0  0  0  0
 20 21  2  0  0  0  0
 21 18  1  0  0  0  0
 21 19  1  0  0  0  0
 22 19  1  0  0  0  0
 23 22  2  0  0  0  0
 24 25  1  0  0  0  0
 25 26  1  0  0  0  0
 26 27  1  0  0  0  0
 27 29  1  0  0  0  0
 29 30  1  0  0  0  0
 29 28  2  0  0  0  0
M  END
>  <MODEL>
5

>  <REMARK>
 VINA RESULT:      -7.5      3.393      6.673
  Name = 
  7 active torsions:
  status: ('A' for Active; 'I' for Inactive)
    1  A    between atoms: C_4  and  C_13
    2  A    between atoms: N_7  and  C_16
    3  A    between atoms: C_8  and  C_12
    4  A    between atoms: C_8  and  C_13
    5  A    between atoms: C_13  and  S_27
    6  A    between atoms: C_16  and  C_30
    7  A    between atoms: S_27  and  C_30
                            x       y       z     vdW  Elec       q    Type
                         _______ _______ _______ _____ _____    ______ ____

>  <TORSDO>
F 7

$$$$
=
 OpenBabel10272413553D

 30 33  0  0  1  0  0  0  0  0999 V2000
  186.3750  178.3600  141.1620 N   0  0  0  0  0  0  0  0  0  0  0  0
  184.9850  178.5460  139.2080 C   0  0  0  0  0  0  0  0  0  0  0  0
  183.1100  178.5190  143.8690 C   0  0  0  0  0  2  0  0  0  0  0  0
  186.6290  178.3180  142.5710 C   0  0  0  0  0  0  0  0  0  0  0  0
  183.4600  179.0600  145.2460 C   0  0  0  0  0  2  0  0  0  0  0  0
  183.8130  178.9940  138.7490 C   0  0  0  0  0  3  0  0  0  0  0  0
  186.0010  178.3020  138.3440 F   0  0  0  0  0  0  0  0  0  0  0  0
  184.2480  178.5810  142.9440 N   0  0  0  0  0  0  0  0  0  0  0  0
  182.7170  179.3410  139.6800 C   0  0  0  0  0  3  0  0  0  0  0  0
  185.1820  178.3970  140.6590 C   0  0  0  0  0  0  0  0  0  0  0  0
  185.6040  178.4570  143.4450 C   0  0  0  0  0  0  0  0  0  0  0  0
  184.6610  178.2990  145.7700 C   0  0  0  0  0  2  0  0  0  0  0  0
  185.8750  178.6310  144.9190 C   0  0  0  0  0  2  0  0  0  0  0  0
  182.8000  179.0530  140.9850 C   0  0  0  0  0  3  0  0  0  0  0  0
  183.9640  178.2630  141.5380 C   0  0  2  0  0  3  0  0  0  0  0  0
  188.0750  178.2230  142.9870 C   0  0  1  0  0  3  0  0  0  0  0  0
  187.8610  175.8580  143.3350 O   0  0  0  0  0  0  0  0  0  0  0  0
  188.4050  176.9370  143.6940 C   0  0  0  0  0  0  0  0  0  0  0  0
  191.0040  176.7550  144.7150 S   0  0  0  0  0  0  0  0  0  0  0  0
  189.0030  177.0810  146.1630 C   0  0  0  0  0  3  0  0  0  0  0  0
  189.3410  176.9360  144.8260 C   0  0  0  0  0  0  0  0  0  0  0  0
  191.3340  176.8560  146.3610 C   0  0  0  0  0  3  0  0  0  0  0  0
  190.1170  177.0350  147.0140 C   0  0  0  0  0  3  0  0  0  0  0  0
  189.2410  178.6510  141.6510 S   0  0  0  0  0  0  0  0  0  0  0  0
  189.5480  176.9060  141.2450 C   0  0  0  0  0  2  0  0  0  0  0  0
  190.2590  176.7950  139.9110 C   0  0  0  0  0  2  0  0  0  0  0  0
  189.9120  177.9290  139.0670 N   0  0  0  0  0  2  0  0  0  0  0  0
  189.0370  176.6100  137.3490 O   0  0  0  0  0  0  0  0  0  0  0  0
  189.2990  177.7610  137.7900 C   0  0  0  0  0  0  0  0  0  0  0  0
  188.9660  178.9560  136.9720 C   0  0  0  0  0  1  0  0  0  0  0  0
  1  4  1  0  0  0  0
  2 10  1  0  0  0  0
  3  5  1  0  0  0  0
  4 16  1  0  0  0  0
  4 11  2  0  0  0  0
  5 12  1  0  0  0  0
  6  2  2  0  0  0  0
  6  9  1  0  0  0  0
  7  2  1  0  0  0  0
  8 11  1  0  0  0  0
  8  3  1  0  0  0  0
  9 14  2  0  0  0  0
 10  1  2  0  0  0  0
 10 15  1  0  0  0  0
 11 13  1  0  0  0  0
 13 12  1  0  0  0  0
 15 14  1  6  0  0  0
 15  8  1  0  0  0  0
 16 24  1  6  0  0  0
 16 18  1  0  0  0  0
 17 18  2  0  0  0  0
 18 21  1  0  0  0  0
 19 21  1  0  0  0  0
 19 22  1  0  0  0  0
 20 23  1  0  0  0  0
 21 20  2  0  0  0  0
 22 23  2  0  0  0  0
 25 24  1  0  0  0  0
 26 25  1  0  0  0  0
 27 26  1  0  0  0  0
 28 29  2  0  0  0  0
 29 27  1  0  0  0  0
 30 29  1  0  0  0  0
M  END
>  <MODEL>
6

>  <REMARK>
 VINA RESULT:      -7.4      2.441      5.443
  Name = 
  7 active torsions:
  status: ('A' for Active; 'I' for Inactive)
    1  A    between atoms: C_4  and  C_13
    2  A    between atoms: N_7  and  C_16
    3  A    between atoms: C_8  and  C_12
    4  A    between atoms: C_8  and  C_13
    5  A    between atoms: C_13  and  S_27
    6  A    between atoms: C_16  and  C_30
    7  A    between atoms: S_27  and  C_30
                            x       y       z     vdW  Elec       q    Type
                         _______ _______ _______ _____ _____    ______ ____

>  <TORSDO>
F 7

$$$$
=
 OpenBabel10272413553D

 30 33  0  0  1  0  0  0  0  0999 V2000
  187.0870  178.3010  140.9070 N   0  0  0  0  0  0  0  0  0  0  0  0
  185.1270  178.7990  139.6050 C   0  0  0  0  0  0  0  0  0  0  0  0
  189.3620  177.0390  137.5530 C   0  0  0  0  0  2  0  0  0  0  0  0
  188.4260  177.8300  141.1040 C   0  0  0  0  0  0  0  0  0  0  0  0
  190.4620  176.0410  137.8790 C   0  0  0  0  0  2  0  0  0  0  0  0
  184.4710  178.5090  138.4770 C   0  0  0  0  0  3  0  0  0  0  0  0
  184.4700  179.3800  140.6390 F   0  0  0  0  0  0  0  0  0  0  0  0
  188.5430  177.3630  138.7280 N   0  0  0  0  0  0  0  0  0  0  0  0
  185.1480  177.8040  137.3660 C   0  0  0  0  0  3  0  0  0  0  0  0
  186.5400  178.4090  139.7380 C   0  0  0  0  0  0  0  0  0  0  0  0
  189.1300  177.3420  140.0550 C   0  0  0  0  0  0  0  0  0  0  0  0
  191.2940  176.5980  139.0170 C   0  0  0  0  0  2  0  0  0  0  0  0
  190.4490  176.6470  140.2780 C   0  0  0  0  0  2  0  0  0  0  0  0
  186.4700  177.5940  137.3840 C   0  0  0  0  0  3  0  0  0  0  0  0
  187.3380  178.1660  138.4810 C   0  0  2  0  0  3  0  0  0  0  0  0
  188.9270  177.8180  142.5250 C   0  0  1  0  0  3  0  0  0  0  0  0
  188.1940  175.6660  143.2920 O   0  0  0  0  0  0  0  0  0  0  0  0
  188.1290  176.9170  143.4280 C   0  0  0  0  0  0  0  0  0  0  0  0
  185.7540  178.1990  144.1690 S   0  0  0  0  0  0  0  0  0  0  0  0
  187.5090  177.5470  145.8140 C   0  0  0  0  0  3  0  0  0  0  0  0
  187.2480  177.4920  144.4530 C   0  0  0  0  0  0  0  0  0  0  0  0
  185.4030  178.5910  145.7670 C   0  0  0  0  0  3  0  0  0  0  0  0
  186.4780  178.1600  146.5410 C   0  0  0  0  0  3  0  0  0  0  0  0
  190.7310  177.5810  142.6540 S   0  0  0  0  0  0  0  0  0  0  0  0
  190.9270  179.0210  143.7450 C   0  0  0  0  0  2  0  0  0  0  0  0
  190.7440  178.6100  145.1930 C   0  0  0  0  0  2  0  0  0  0  0  0
  191.5780  177.4560  145.4910 N   0  0  0  0  0  2  0  0  0  0  0  0
  190.5610  177.0310  147.5510 O   0  0  0  0  0  0  0  0  0  0  0  0
  191.4300  176.7080  146.6970 C   0  0  0  0  0  0  0  0  0  0  0  0
  192.3100  175.5380  146.9490 C   0  0  0  0  0  1  0  0  0  0  0  0
  1  4  1  0  0  0  0
  2 10  1  0  0  0  0
  2  7  1  0  0  0  0
  3  5  1  0  0  0  0
  3  8  1  0  0  0  0
  4 16  1  0  0  0  0
  5 12  1  0  0  0  0
  6  2  2  0  0  0  0
  8 11  1  0  0  0  0
  9 14  2  0  0  0  0
  9  6  1  0  0  0  0
 10  1  2  0  0  0  0
 11 13  1  0  0  0  0
 11  4  2  0  0  0  0
 12 13  1  0  0  0  0
 15 14  1  6  0  0  0
 15  8  1  0  0  0  0
 15 10  1  0  0  0  0
 16 24  1  6  0  0  0
 16 18  1  0  0  0  0
 17 18  2  0  0  0  0
 18 21  1  0  0  0  0
 19 21  1  0  0  0  0
 19 22  1  0  0  0  0
 20 23  1  0  0  0  0
 21 20  2  0  0  0  0
 22 23  2  0  0  0  0
 24 25  1  0  0  0  0
 25 26  1  0  0  0  0
 26 27  1  0  0  0  0
 27 29  1  0  0  0  0
 29 30  1  0  0  0  0
 29 28  2  0  0  0  0
M  END
>  <MODEL>
7

>  <REMARK>
 VINA RESULT:      -7.4      2.358      5.633
  Name = 
  7 active torsions:
  status: ('A' for Active; 'I' for Inactive)
    1  A    between atoms: C_4  and  C_13
    2  A    between atoms: N_7  and  C_16
    3  A    between atoms: C_8  and  C_12
    4  A    between atoms: C_8  and  C_13
    5  A    between atoms: C_13  and  S_27
    6  A    between atoms: C_16  and  C_30
    7  A    between atoms: S_27  and  C_30
                            x       y       z     vdW  Elec       q    Type
                         _______ _______ _______ _____ _____    ______ ____

>  <TORSDO>
F 7

$$$$
=
 OpenBabel10272413553D

 30 33  0  0  1  0  0  0  0  0999 V2000
  187.5210  178.1470  143.5140 N   0  0  0  0  0  0  0  0  0  0  0  0
  185.3410  178.3900  144.5030 C   0  0  0  0  0  0  0  0  0  0  0  0
  189.3460  176.8660  147.1250 C   0  0  0  0  0  2  0  0  0  0  0  0
  188.9250  177.8660  143.5290 C   0  0  0  0  0  0  0  0  0  0  0  0
  190.8340  177.1650  147.2180 C   0  0  0  0  0  2  0  0  0  0  0  0
  184.6870  178.6110  145.6470 C   0  0  0  0  0  3  0  0  0  0  0  0
  184.7220  178.6100  143.3170 F   0  0  0  0  0  0  0  0  0  0  0  0
  188.7460  177.4200  145.9050 N   0  0  0  0  0  0  0  0  0  0  0  0
  185.3670  178.4520  146.9510 C   0  0  0  0  0  3  0  0  0  0  0  0
  186.7550  177.9850  144.5470 C   0  0  0  0  0  0  0  0  0  0  0  0
  189.5350  177.5420  144.6940 C   0  0  0  0  0  0  0  0  0  0  0  0
  191.5090  176.6440  145.9660 C   0  0  0  0  0  2  0  0  0  0  0  0
  191.0390  177.4550  144.7690 C   0  0  0  0  0  2  0  0  0  0  0  0
  186.5920  177.9180  147.0320 C   0  0  0  0  0  3  0  0  0  0  0  0
  187.2810  177.3540  145.8110 C   0  0  2  0  0  3  0  0  0  0  0  0
  189.6580  178.0580  142.2260 C   0  0  1  0  0  3  0  0  0  0  0  0
  189.7920  175.6650  142.1110 O   0  0  0  0  0  0  0  0  0  0  0  0
  190.1680  176.7710  141.6370 C   0  0  0  0  0  0  0  0  0  0  0  0
  190.8760  176.1400  139.0040 S   0  0  0  0  0  0  0  0  0  0  0  0
  192.3950  177.3620  140.5570 C   0  0  0  0  0  3  0  0  0  0  0  0
  191.1280  176.7970  140.5270 C   0  0  0  0  0  0  0  0  0  0  0  0
  192.3670  176.5580  138.3480 C   0  0  0  0  0  3  0  0  0  0  0  0
  193.0810  177.2260  139.3410 C   0  0  0  0  0  3  0  0  0  0  0  0
  188.7580  179.1080  141.0370 S   0  0  0  0  0  0  0  0  0  0  0  0
  187.9550  177.6780  140.2530 C   0  0  0  0  0  2  0  0  0  0  0  0
  187.1200  178.1280  139.0710 C   0  0  0  0  0  2  0  0  0  0  0  0
  187.6990  177.6250  137.8340 N   0  0  0  0  0  2  0  0  0  0  0  0
  188.8810  179.5880  137.3810 O   0  0  0  0  0  0  0  0  0  0  0  0
  188.5780  178.4160  137.0350 C   0  0  0  0  0  0  0  0  0  0  0  0
  189.1400  177.8500  135.7810 C   0  0  0  0  0  1  0  0  0  0  0  0
  1  4  1  0  0  0  0
  1 10  2  0  0  0  0
  2 10  1  0  0  0  0
  2  6  2  0  0  0  0
  3  5  1  0  0  0  0
  4 11  2  0  0  0  0
  6  9  1  0  0  0  0
  7  2  1  0  0  0  0
  8  3  1  0  0  0  0
  9 14  2  0  0  0  0
 10 15  1  0  0  0  0
 11 13  1  0  0  0  0
 11  8  1  0  0  0  0
 12  5  1  0  0  0  0
 13 12  1  0  0  0  0
 15  8  1  0  0  0  0
 15 14  1  1  0  0  0
 16 24  1  6  0  0  0
 16  4  1  0  0  0  0
 18 17  2  0  0  0  0
 18 16  1  0  0  0  0
 19 21  1  0  0  0  0
 21 20  2  0  0  0  0
 21 18  1  0  0  0  0
 22 19  1  0  0  0  0
 22 23  2  0  0  0  0
 23 20  1  0  0  0  0
 25 24  1  0  0  0  0
 26 25  1  0  0  0  0
 27 26  1  0  0  0  0
 29 28  2  0  0  0  0
 29 27  1  0  0  0  0
 30 29  1  0  0  0  0
M  END
>  <MODEL>
8

>  <REMARK>
 VINA RESULT:      -7.4      2.277      4.910
  Name = 
  7 active torsions:
  status: ('A' for Active; 'I' for Inactive)
    1  A    between atoms: C_4  and  C_13
    2  A    between atoms: N_7  and  C_16
    3  A    between atoms: C_8  and  C_12
    4  A    between atoms: C_8  and  C_13
    5  A    between atoms: C_13  and  S_27
    6  A    between atoms: C_16  and  C_30
    7  A    between atoms: S_27  and  C_30
                            x       y       z     vdW  Elec       q    Type
                         _______ _______ _______ _____ _____    ______ ____

>  <TORSDO>
F 7

$$$$
=
 OpenBabel10272413553D

 30 33  0  0  1  0  0  0  0  0999 V2000
  187.2270  178.1490  143.2930 N   0  0  0  0  0  0  0  0  0  0  0  0
  184.9760  178.3360  144.1230 C   0  0  0  0  0  0  0  0  0  0  0  0
  188.8360  177.0010  147.0490 C   0  0  0  0  0  2  0  0  0  0  0  0
  188.6350  177.9160  143.4110 C   0  0  0  0  0  0  0  0  0  0  0  0
  190.3030  177.3520  147.2390 C   0  0  0  0  0  2  0  0  0  0  0  0
  184.2370  178.5570  145.2140 C   0  0  0  0  0  3  0  0  0  0  0  0
  184.4350  178.5120  142.8920 F   0  0  0  0  0  0  0  0  0  0  0  0
  188.3040  177.5100  145.7780 N   0  0  0  0  0  0  0  0  0  0  0  0
  184.8290  178.4460  146.5650 C   0  0  0  0  0  3  0  0  0  0  0  0
  186.3970  177.9800  144.2730 C   0  0  0  0  0  0  0  0  0  0  0  0
  189.1720  177.6360  144.6220 C   0  0  0  0  0  0  0  0  0  0  0  0
  191.0800  176.8310  146.0470 C   0  0  0  0  0  2  0  0  0  0  0  0
  190.6690  177.6020  144.8040 C   0  0  0  0  0  2  0  0  0  0  0  0
  186.0620  177.9560  146.7420 C   0  0  0  0  0  3  0  0  0  0  0  0
  186.8530  177.3920  145.5850 C   0  0  2  0  0  3  0  0  0  0  0  0
  189.4510  178.1080  142.1590 C   0  0  1  0  0  3  0  0  0  0  0  0
  189.5530  175.7140  142.0310 O   0  0  0  0  0  0  0  0  0  0  0  0
  189.9670  176.8180  141.5840 C   0  0  0  0  0  0  0  0  0  0  0  0
  190.7790  176.2080  138.9760 S   0  0  0  0  0  0  0  0  0  0  0  0
  192.2540  177.3690  140.6150 C   0  0  0  0  0  3  0  0  0  0  0  0
  190.9770  176.8360  140.5180 C   0  0  0  0  0  0  0  0  0  0  0  0
  192.3080  176.5980  138.3950 C   0  0  0  0  0  3  0  0  0  0  0  0
  192.9910  177.2340  139.4290 C   0  0  0  0  0  3  0  0  0  0  0  0
  188.6490  179.1940  140.9320 S   0  0  0  0  0  0  0  0  0  0  0  0
  187.8110  177.8000  140.1210 C   0  0  0  0  0  2  0  0  0  0  0  0
  187.4440  178.1660  138.6970 C   0  0  0  0  0  2  0  0  0  0  0  0
  186.0670  177.7820  138.4240 N   0  0  0  0  0  2  0  0  0  0  0  0
  185.1460  179.5870  139.5870 O   0  0  0  0  0  0  0  0  0  0  0  0
  184.9610  178.5440  138.9040 C   0  0  0  0  0  0  0  0  0  0  0  0
  183.5760  178.1040  138.5940 C   0  0  0  0  0  1  0  0  0  0  0  0
  1  4  1  0  0  0  0
  1 10  2  0  0  0  0
  2 10  1  0  0  0  0
  2  6  2  0  0  0  0
  3  5  1  0  0  0  0
  4 11  2  0  0  0  0
  6  9  1  0  0  0  0
  7  2  1  0  0  0  0
  8  3  1  0  0  0  0
  9 14  2  0  0  0  0
 10 15  1  0  0  0  0
 11 13  1  0  0  0  0
 11  8  1  0  0  0  0
 12  5  1  0  0  0  0
 13 12  1  0  0  0  0
 15  8  1  0  0  0  0
 15 14  1  1  0  0  0
 16 24  1  6  0  0  0
 16  4  1  0  0  0  0
 18 17  2  0  0  0  0
 18 16  1  0  0  0  0
 19 21  1  0  0  0  0
 21 20  2  0  0  0  0
 21 18  1  0  0  0  0
 22 19  1  0  0  0  0
 22 23  2  0  0  0  0
 23 20  1  0  0  0  0
 25 24  1  0  0  0  0
 26 25  1  0  0  0  0
 27 26  1  0  0  0  0
 27 29  1  0  0  0  0
 29 28  2  0  0  0  0
 30 29  1  0  0  0  0
M  END
>  <MODEL>
9

>  <REMARK>
 VINA RESULT:      -7.2      2.313      4.917
  Name = 
  7 active torsions:
  status: ('A' for Active; 'I' for Inactive)
    1  A    between atoms: C_4  and  C_13
    2  A    between atoms: N_7  and  C_16
    3  A    between atoms: C_8  and  C_12
    4  A    between atoms: C_8  and  C_13
    5  A    between atoms: C_13  and  S_27
    6  A    between atoms: C_16  and  C_30
    7  A    between atoms: S_27  and  C_30
                            x       y       z     vdW  Elec       q    Type
                         _______ _______ _______ _____ _____    ______ ____

>  <TORSDO>
F 7

$$$$
