=
 OpenBabel10272401433D

 55 57  0  0  1  0  0  0  0  0999 V2000
  185.4240  175.5170  137.6480 O   0  0  0  0  0  0  0  0  0  0  0  0
  185.3360  179.6560  140.0530 O   0  0  0  0  0  0  0  0  0  0  0  0
  184.8600  178.4310  139.3080 P   0  0  2  0  0  0  0  0  0  0  0  0
  186.2380  177.6780  138.3790 C   0  0  1  0  0  3  0  0  0  0  0  0
  184.4810  177.3900  136.4410 C   0  0  2  0  0  3  0  0  0  0  0  0
  183.6380  178.8600  138.2070 O   0  0  0  0  0  0  0  0  0  0  0  0
  186.5550  175.6690  136.8210 C   0  0  2  0  0  3  0  0  0  0  0  0
  184.2620  177.2990  140.4130 O   0  0  0  0  0  1  0  0  0  0  0  0
  185.7010  176.8330  137.2150 C   0  0  2  0  0  0  0  0  0  0  0  0
  183.3790  177.6890  137.4740 C   0  0  1  0  0  3  0  0  0  0  0  0
  186.2800  175.2150  135.5280 O   0  0  0  0  0  1  0  0  0  0  0  0
  187.2490  179.0860  136.4910 C   0  0  0  0  0  1  0  0  0  0  0  0
  187.2960  178.7210  137.9710 C   0  0  2  0  0  3  0  0  0  0  0  0
  188.7320  178.4220  138.4330 C   0  0  2  0  0  3  0  0  0  0  0  0
  190.0470  176.8460  137.7830 O   0  0  0  0  0  1  0  0  0  0  0  0
  189.5320  177.9860  137.3660 O   0  0  0  0  0  0  0  0  0  0  0  0
  188.7560  177.3710  139.5350 C   0  0  0  0  0  2  0  0  0  0  0  0
  188.5490  177.9680  140.9120 C   0  0  0  0  0  2  0  0  0  0  0  0
  189.7450  177.6910  141.8170 C   0  0  0  0  0  2  0  0  0  0  0  0
  189.3650  176.8390  143.0340 C   0  0  2  0  0  3  0  0  0  0  0  0
  188.3210  175.9580  142.7430 O   0  0  0  0  0  1  0  0  0  0  0  0
  189.0600  177.6430  144.3090 C   0  0  2  0  0  3  0  0  0  0  0  0
  189.1750  176.8970  145.6490 C   0  0  0  0  0  2  0  0  0  0  0  0
  189.7100  177.6310  147.8570 O   0  0  0  0  0  1  0  0  0  0  0  0
  190.2380  177.4820  146.5790 C   0  0  1  0  0  3  0  0  0  0  0  0
  192.2160  176.4670  147.8160 N   0  0  0  0  0  1  0  0  0  0  0  0
  191.4440  176.5900  146.6200 C   0  0  0  0  0  0  0  0  0  0  0  0
  191.8100  175.9820  145.5820 O   0  0  0  0  0  0  0  0  0  0  0  0
  187.8890  178.4580  144.2300 O   0  0  0  0  0  0  0  0  0  0  0  0
  186.5960  177.9990  144.5050 C   0  0  0  0  0  0  0  0  0  0  0  0
  186.3700  177.3580  145.5640 O   0  0  0  0  0  0  0  0  0  0  0  0
  185.5160  178.1630  143.4930 C   0  0  0  0  0  2  0  0  0  0  0  0
  184.2380  178.3170  144.1680 N   0  0  0  0  0  1  0  0  0  0  0  0
  184.0520  177.1940  134.3470 O   0  0  0  0  0  1  0  0  0  0  0  0
  184.0180  176.5020  135.4630 O   0  0  0  0  0  0  0  0  0  0  0  0
  181.9510  177.6220  136.9130 C   0  0  2  0  0  3  0  0  0  0  0  0
  180.9870  178.2760  137.7900 N   0  0  0  0  0  2  0  0  0  0  0  0
  180.6010  180.1320  136.1590 C   0  0  0  0  0  3  0  0  0  0  0  0
  180.5260  182.3600  137.0410 N   0  0  0  0  0  0  0  0  0  0  0  0
  180.3550  180.4550  138.5700 C   0  0  0  0  0  3  0  0  0  0  0  0
  179.9820  181.8940  138.3240 C   0  0  0  0  0  2  0  0  0  0  0  0
  180.5940  181.4490  135.9340 C   0  0  0  0  0  3  0  0  0  0  0  0
  180.5780  179.6190  137.5460 C   0  0  0  0  0  0  0  0  0  0  0  0
  180.7400  183.7800  136.7860 C   0  0  2  0  0  3  0  0  0  0  0  0
  180.8650  184.0490  135.2940 C   0  0  0  0  0  1  0  0  0  0  0  0
  181.9420  184.2300  137.4720 N   0  0  0  0  0  1  0  0  0  0  0  0
  181.5130  176.1790  136.6590 C   0  0  0  0  0  2  0  0  0  0  0  0
  181.4480  175.8090  139.0200 O   0  0  0  0  0  0  0  0  0  0  0  0
  181.6440  175.3170  137.8730 C   0  0  0  0  0  0  0  0  0  0  0  0
  181.9440  173.9630  137.7070 O   0  0  0  0  0  0  0  0  0  0  0  0
  181.0810  173.0540  137.0330 C   0  0  1  0  0  3  0  0  0  0  0  0
  179.9820  173.8370  136.3420 C   0  0  0  0  0  1  0  0  0  0  0  0
  181.8590  172.2290  136.0070 C   0  0  0  0  0  2  0  0  0  0  0  0
  184.2240  171.5830  136.2170 C   0  0  0  0  0  2  0  0  0  0  0  0
  182.9740  171.4740  136.6630 C   0  0  0  0  0  3  0  0  0  0  0  0
  3  2  2  1  0  0  0
  3  8  1  0  0  0  0
  4 13  1  6  0  0  0
  4  3  1  0  0  0  0
  5 35  1  6  0  0  0
  5  9  1  0  0  0  0
  5 10  1  0  0  0  0
  6  3  1  0  0  0  0
  7 11  1  6  0  0  0
  7  9  1  0  0  0  0
  7  1  1  0  0  0  0
  9  1  1  1  0  0  0
  9  4  1  0  0  0  0
 10 36  1  6  0  0  0
 10  6  1  0  0  0  0
 13 12  1  6  0  0  0
 13 14  1  0  0  0  0
 14 17  1  1  0  0  0
 16 15  1  0  0  0  0
 16 14  1  0  0  0  0
 17 18  1  0  0  0  0
 18 19  1  0  0  0  0
 19 20  1  0  0  0  0
 20 21  1  6  0  0  0
 20 22  1  0  0  0  0
 22 23  1  1  0  0  0
 23 25  1  0  0  0  0
 25 27  1  0  0  0  0
 25 24  1  1  0  0  0
 27 26  1  0  0  0  0
 28 27  2  0  0  0  0
 29 22  1  0  0  0  0
 29 30  1  0  0  0  0
 30 31  2  0  0  0  0
 32 33  1  0  0  0  0
 32 30  1  0  0  0  0
 34 35  1  0  0  0  0
 36 47  1  1  0  0  0
 36 37  1  0  0  0  0
 38 43  1  0  0  0  0
 39 41  1  0  0  0  0
 41 40  1  0  0  0  0
 42 38  2  0  0  0  0
 42 39  1  0  0  0  0
 43 37  1  0  0  0  0
 43 40  2  0  0  0  0
 44 45  1  6  0  0  0
 44 39  1  0  0  0  0
 44 46  1  0  0  0  0
 47 49  1  0  0  0  0
 49 48  2  0  0  0  0
 50 49  1  0  0  0  0
 51 52  1  6  0  0  0
 51 50  1  0  0  0  0
 53 55  1  0  0  0  0
 53 51  1  0  0  0  0
 54 55  2  0  0  0  0
M  END
>  <MODEL>
1

>  <REMARK>
 VINA RESULT:      -5.5      0.000      0.000
  Name = 
  25 active torsions:
  status: ('A' for Active; 'I' for Inactive)
    1  A    between atoms: C_1  and  C_30
    2  A    between atoms: C_1  and  C_53
    3  A    between atoms: O_6  and  C_14
    4  A    between atoms: O_6  and  C_53
    5  A    between atoms: C_7  and  C_8
    6  A    between atoms: C_7  and  C_23
    7  A    between atoms: C_7  and  O_43
    8  A    between atoms: C_8  and  C_20
    9  A    between atoms: C_10  and  N_32
   10  A    between atoms: C_11  and  C_29
   11  A    between atoms: C_11  and  C_38
   12  A    between atoms: C_12  and  C_14
   13  A    between atoms: C_17  and  C_23
   14  A    between atoms: C_19  and  O_40
   15  A    between atoms: C_20  and  C_30
   16  A    between atoms: C_27  and  O_31
   17  A    between atoms: C_27  and  C_55
   18  A    between atoms: C_28  and  C_44
   19  A    between atoms: C_28  and  C_49
   20  A    between atoms: O_31  and  C_44
   21  A    between atoms: N_33  and  C_49
   22  A    between atoms: N_33  and  C_52
   23  A    between atoms: C_38  and  C_53
   24  A    between atoms: C_41  and  C_55
   25  A    between atoms: C_45  and  C_49
                            x       y       z     vdW  Elec       q    Type
                         _______ _______ _______ _____ _____    ______ ____

>  <TORSDO>
F 25

$$$$
=
 OpenBabel10272401433D

 55 57  0  0  1  0  0  0  0  0999 V2000
  190.3960  178.5910  139.5710 O   0  0  0  0  0  0  0  0  0  0  0  0
  187.7660  177.8840  135.6330 O   0  0  0  0  0  0  0  0  0  0  0  0
  188.1470  178.2880  137.0380 P   0  0  2  0  0  0  0  0  0  0  0  0
  189.7130  177.4870  137.5260 C   0  0  1  0  0  3  0  0  0  0  0  0
  188.5250  177.0790  139.8390 C   0  0  2  0  0  3  0  0  0  0  0  0
  186.9340  177.8090  138.1270 O   0  0  0  0  0  0  0  0  0  0  0  0
  191.2120  177.4430  139.6030 C   0  0  2  0  0  3  0  0  0  0  0  0
  188.3460  179.9650  137.1060 O   0  0  0  0  0  1  0  0  0  0  0  0
  189.8190  177.4080  139.0560 C   0  0  2  0  0  0  0  0  0  0  0  0
  187.4530  178.0950  139.4030 C   0  0  1  0  0  3  0  0  0  0  0  0
  191.2910  176.9330  140.9030 O   0  0  0  0  0  1  0  0  0  0  0  0
  189.5720  174.9320  137.6630 C   0  0  0  0  0  1  0  0  0  0  0  0
  189.9210  176.1430  136.8050 C   0  0  2  0  0  3  0  0  0  0  0  0
  191.2850  175.9680  136.1120 C   0  0  2  0  0  3  0  0  0  0  0  0
  190.0300  176.2740  134.3890 O   0  0  0  0  0  1  0  0  0  0  0  0
  191.1320  175.6490  134.7550 O   0  0  0  0  0  0  0  0  0  0  0  0
  192.1200  174.8890  136.7870 C   0  0  0  0  0  2  0  0  0  0  0  0
  193.6020  175.0460  136.5170 C   0  0  0  0  0  2  0  0  0  0  0  0
  194.2670  173.6910  136.2970 C   0  0  0  0  0  2  0  0  0  0  0  0
  195.6530  173.8250  135.6550 C   0  0  2  0  0  3  0  0  0  0  0  0
  195.7470  173.0970  134.4680 O   0  0  0  0  0  1  0  0  0  0  0  0
  196.8280  173.4950  136.5910 C   0  0  2  0  0  3  0  0  0  0  0  0
  197.6070  174.6820  137.1800 C   0  0  0  0  0  2  0  0  0  0  0  0
  198.3730  175.7750  139.1610 O   0  0  0  0  0  1  0  0  0  0  0  0
  197.7380  174.6250  138.7020 C   0  0  1  0  0  3  0  0  0  0  0  0
  195.8160  175.5840  140.0660 N   0  0  0  0  0  1  0  0  0  0  0  0
  196.3850  174.4950  139.3380 C   0  0  0  0  0  0  0  0  0  0  0  0
  195.7650  173.4020  139.2740 O   0  0  0  0  0  0  0  0  0  0  0  0
  197.6850  172.4520  136.1200 O   0  0  0  0  0  0  0  0  0  0  0  0
  198.2260  171.4550  136.9390 C   0  0  0  0  0  0  0  0  0  0  0  0
  199.4140  171.5500  137.3430 O   0  0  0  0  0  0  0  0  0  0  0  0
  197.4380  170.2250  137.2340 C   0  0  0  0  0  2  0  0  0  0  0  0
  198.1140  169.0690  136.6690 N   0  0  0  0  0  1  0  0  0  0  0  0
  189.0090  175.8830  141.5540 O   0  0  0  0  0  1  0  0  0  0  0  0
  188.7150  177.1210  141.2250 O   0  0  0  0  0  0  0  0  0  0  0  0
  186.3710  178.3650  140.4570 C   0  0  2  0  0  3  0  0  0  0  0  0
  185.4750  179.4450  140.0590 N   0  0  0  0  0  2  0  0  0  0  0  0
  183.5910  177.8090  139.8960 C   0  0  0  0  0  3  0  0  0  0  0  0
  181.8450  178.3090  138.3310 N   0  0  0  0  0  0  0  0  0  0  0  0
  183.4320  180.0630  138.9630 C   0  0  0  0  0  3  0  0  0  0  0  0
  182.0320  179.7570  138.5000 C   0  0  0  0  0  2  0  0  0  0  0  0
  182.5040  177.4070  139.2310 C   0  0  0  0  0  3  0  0  0  0  0  0
  184.1300  179.1680  139.6760 C   0  0  0  0  0  0  0  0  0  0  0  0
  180.8020  177.7830  137.4570 C   0  0  2  0  0  3  0  0  0  0  0  0
  180.1720  176.5360  138.0590 C   0  0  0  0  0  1  0  0  0  0  0  0
  181.3610  177.4720  136.1510 N   0  0  0  0  0  1  0  0  0  0  0  0
  186.9830  178.6880  141.8220 C   0  0  0  0  0  2  0  0  0  0  0  0
  184.9710  178.0230  142.9300 O   0  0  0  0  0  0  0  0  0  0  0  0
  186.2340  178.0560  142.9500 C   0  0  0  0  0  0  0  0  0  0  0  0
  186.9560  177.4730  143.9940 O   0  0  0  0  0  0  0  0  0  0  0  0
  187.2260  178.1440  145.2200 C   0  0  1  0  0  3  0  0  0  0  0  0
  186.0960  177.8700  146.1920 C   0  0  0  0  0  1  0  0  0  0  0  0
  188.5530  177.6720  145.8140 C   0  0  0  0  0  2  0  0  0  0  0  0
  189.2480  177.8830  148.1650 C   0  0  0  0  0  2  0  0  0  0  0  0
  188.4080  177.3640  147.2730 C   0  0  0  0  0  3  0  0  0  0  0  0
  1  7  1  0  0  0  0
  3  2  2  6  0  0  0
  3  8  1  0  0  0  0
  3  4  1  0  0  0  0
  3  6  1  0  0  0  0
  4 13  1  6  0  0  0
  4  9  1  0  0  0  0
  5 35  1  1  0  0  0
  6 10  1  0  0  0  0
  7 11  1  1  0  0  0
  9  1  1  1  0  0  0
  9  7  1  0  0  0  0
  9  5  1  0  0  0  0
 10  5  1  0  0  0  0
 10 36  1  1  0  0  0
 13 12  1  1  0  0  0
 14 17  1  1  0  0  0
 14 13  1  0  0  0  0
 15 16  1  0  0  0  0
 16 14  1  0  0  0  0
 18 17  1  0  0  0  0
 19 18  1  0  0  0  0
 20 21  1  6  0  0  0
 20 19  1  0  0  0  0
 20 22  1  0  0  0  0
 22 23  1  6  0  0  0
 23 25  1  0  0  0  0
 25 24  1  1  0  0  0
 25 27  1  0  0  0  0
 27 26  1  0  0  0  0
 28 27  2  0  0  0  0
 29 22  1  0  0  0  0
 29 30  1  0  0  0  0
 30 32  1  0  0  0  0
 30 31  2  0  0  0  0
 33 32  1  0  0  0  0
 35 34  1  0  0  0  0
 36 47  1  1  0  0  0
 37 36  1  0  0  0  0
 39 41  1  0  0  0  0
 39 42  1  0  0  0  0
 40 43  2  0  0  0  0
 41 40  1  0  0  0  0
 42 38  2  0  0  0  0
 43 38  1  0  0  0  0
 43 37  1  0  0  0  0
 44 45  1  1  0  0  0
 44 39  1  0  0  0  0
 46 44  1  0  0  0  0
 47 49  1  0  0  0  0
 48 49  2  0  0  0  0
 49 50  1  0  0  0  0
 50 51  1  0  0  0  0
 51 53  1  0  0  0  0
 51 52  1  1  0  0  0
 53 55  1  0  0  0  0
 55 54  2  0  0  0  0
M  END
>  <MODEL>
2

>  <REMARK>
 VINA RESULT:      -5.4      5.493      8.894
  Name = 
  25 active torsions:
  status: ('A' for Active; 'I' for Inactive)
    1  A    between atoms: C_1  and  C_30
    2  A    between atoms: C_1  and  C_53
    3  A    between atoms: O_6  and  C_14
    4  A    between atoms: O_6  and  C_53
    5  A    between atoms: C_7  and  C_8
    6  A    between atoms: C_7  and  C_23
    7  A    between atoms: C_7  and  O_43
    8  A    between atoms: C_8  and  C_20
    9  A    between atoms: C_10  and  N_32
   10  A    between atoms: C_11  and  C_29
   11  A    between atoms: C_11  and  C_38
   12  A    between atoms: C_12  and  C_14
   13  A    between atoms: C_17  and  C_23
   14  A    between atoms: C_19  and  O_40
   15  A    between atoms: C_20  and  C_30
   16  A    between atoms: C_27  and  O_31
   17  A    between atoms: C_27  and  C_55
   18  A    between atoms: C_28  and  C_44
   19  A    between atoms: C_28  and  C_49
   20  A    between atoms: O_31  and  C_44
   21  A    between atoms: N_33  and  C_49
   22  A    between atoms: N_33  and  C_52
   23  A    between atoms: C_38  and  C_53
   24  A    between atoms: C_41  and  C_55
   25  A    between atoms: C_45  and  C_49
                            x       y       z     vdW  Elec       q    Type
                         _______ _______ _______ _____ _____    ______ ____

>  <TORSDO>
F 25

$$$$
=
 OpenBabel10272401433D

 55 57  0  0  1  0  0  0  0  0999 V2000
  192.3750  178.1690  139.8030 O   0  0  0  0  0  0  0  0  0  0  0  0
  188.2900  177.1650  137.5160 O   0  0  0  0  0  0  0  0  0  0  0  0
  189.2460  177.5680  138.6150 P   0  0  2  0  0  0  0  0  0  0  0  0
  190.9460  177.0510  138.1990 C   0  0  1  0  0  3  0  0  0  0  0  0
  191.1060  176.3260  140.7230 C   0  0  2  0  0  3  0  0  0  0  0  0
  188.7980  176.8230  140.0750 O   0  0  0  0  0  0  0  0  0  0  0  0
  193.2560  177.1930  139.2980 C   0  0  2  0  0  3  0  0  0  0  0  0
  189.2140  179.2490  138.7970 O   0  0  0  0  0  1  0  0  0  0  0  0
  191.7940  176.9250  139.4720 C   0  0  2  0  0  0  0  0  0  0  0  0
  189.8270  177.1430  140.9800 C   0  0  1  0  0  3  0  0  0  0  0  0
  194.0280  176.6490  140.3280 O   0  0  0  0  0  1  0  0  0  0  0  0
  190.9160  174.4920  138.0740 C   0  0  0  0  0  1  0  0  0  0  0  0
  190.9640  175.8030  137.2970 C   0  0  2  0  0  3  0  0  0  0  0  0
  192.0630  175.7800  136.2200 C   0  0  2  0  0  3  0  0  0  0  0  0
  190.2620  175.8850  135.0460 O   0  0  0  0  0  1  0  0  0  0  0  0
  191.5540  176.1340  134.9620 O   0  0  0  0  0  0  0  0  0  0  0  0
  192.7220  174.4110  136.1240 C   0  0  0  0  0  2  0  0  0  0  0  0
  194.2280  174.4780  136.2800 C   0  0  0  0  0  2  0  0  0  0  0  0
  194.7590  173.2530  137.0170 C   0  0  0  0  0  2  0  0  0  0  0  0
  195.9290  172.5940  136.2750 C   0  0  2  0  0  3  0  0  0  0  0  0
  195.5260  171.4480  135.5860 O   0  0  0  0  0  1  0  0  0  0  0  0
  197.1580  172.2990  137.1510 C   0  0  2  0  0  3  0  0  0  0  0  0
  198.4960  172.9120  136.7060 C   0  0  0  0  0  2  0  0  0  0  0  0
  200.1120  174.6260  137.0980 O   0  0  0  0  0  1  0  0  0  0  0  0
  199.0310  173.9670  137.6740 C   0  0  1  0  0  3  0  0  0  0  0  0
  197.4120  175.0030  139.3430 N   0  0  0  0  0  1  0  0  0  0  0  0
  197.9530  174.9520  138.0210 C   0  0  0  0  0  0  0  0  0  0  0  0
  197.4840  175.7080  137.1310 O   0  0  0  0  0  0  0  0  0  0  0  0
  197.2840  170.9330  137.5540 O   0  0  0  0  0  0  0  0  0  0  0  0
  198.3410  170.1000  137.1740 C   0  0  0  0  0  0  0  0  0  0  0  0
  199.5040  170.3290  137.5950 O   0  0  0  0  0  0  0  0  0  0  0  0
  198.1130  169.0150  136.1790 C   0  0  0  0  0  2  0  0  0  0  0  0
  196.9710  168.2140  136.5870 N   0  0  0  0  0  1  0  0  0  0  0  0
  191.3870  175.4800  142.6760 O   0  0  0  0  0  1  0  0  0  0  0  0
  191.9390  176.3400  141.8490 O   0  0  0  0  0  0  0  0  0  0  0  0
  189.3690  177.1600  142.4450 C   0  0  2  0  0  3  0  0  0  0  0  0
  187.9830  176.7320  142.5910 N   0  0  0  0  0  2  0  0  0  0  0  0
  186.3870  177.7300  144.2380 C   0  0  0  0  0  3  0  0  0  0  0  0
  184.5060  178.9220  143.3490 N   0  0  0  0  0  0  0  0  0  0  0  0
  186.3900  178.3790  141.8810 C   0  0  0  0  0  3  0  0  0  0  0  0
  185.2620  179.3380  142.1590 C   0  0  0  0  0  2  0  0  0  0  0  0
  185.2030  178.3130  144.4460 C   0  0  0  0  0  3  0  0  0  0  0  0
  186.9560  177.6790  142.8740 C   0  0  0  0  0  0  0  0  0  0  0  0
  183.1290  179.3540  143.5540 C   0  0  2  0  0  3  0  0  0  0  0  0
  182.5570  178.7510  144.8290 C   0  0  0  0  0  1  0  0  0  0  0  0
  182.3130  178.9640  142.4140 N   0  0  0  0  0  1  0  0  0  0  0  0
  189.5450  178.5440  143.0740 C   0  0  0  0  0  2  0  0  0  0  0  0
  191.1180  179.3390  144.6890 O   0  0  0  0  0  0  0  0  0  0  0  0
  190.2310  178.4880  144.4010 C   0  0  0  0  0  0  0  0  0  0  0  0
  189.8410  177.5090  145.3180 O   0  0  0  0  0  0  0  0  0  0  0  0
  190.4310  177.3740  146.6070 C   0  0  1  0  0  3  0  0  0  0  0  0
  189.5080  177.9920  147.6390 C   0  0  0  0  0  1  0  0  0  0  0  0
  190.6750  175.9020  146.9380 C   0  0  0  0  0  2  0  0  0  0  0  0
  192.7040  175.9220  148.3290 C   0  0  0  0  0  2  0  0  0  0  0  0
  192.1310  175.6370  147.1610 C   0  0  0  0  0  3  0  0  0  0  0  0
  3  2  2  6  0  0  0
  3  8  1  0  0  0  0
  3  6  1  0  0  0  0
  4 13  1  1  0  0  0
  4  3  1  0  0  0  0
  4  9  1  0  0  0  0
  5 10  1  0  0  0  0
  5 35  1  1  0  0  0
  6 10  1  0  0  0  0
  7  9  1  0  0  0  0
  7  1  1  0  0  0  0
  7 11  1  1  0  0  0
  9  1  1  1  0  0  0
  9  5  1  0  0  0  0
 10 36  1  1  0  0  0
 13 12  1  1  0  0  0
 14 17  1  6  0  0  0
 14 13  1  0  0  0  0
 16 15  1  0  0  0  0
 16 14  1  0  0  0  0
 17 18  1  0  0  0  0
 18 19  1  0  0  0  0
 20 21  1  1  0  0  0
 20 19  1  0  0  0  0
 20 22  1  0  0  0  0
 22 23  1  6  0  0  0
 22 29  1  0  0  0  0
 23 25  1  0  0  0  0
 25 24  1  6  0  0  0
 25 27  1  0  0  0  0
 27 26  1  0  0  0  0
 28 27  2  0  0  0  0
 30 29  1  0  0  0  0
 30 31  2  0  0  0  0
 32 33  1  0  0  0  0
 32 30  1  0  0  0  0
 35 34  1  0  0  0  0
 36 37  1  0  0  0  0
 36 47  1  6  0  0  0
 37 43  1  0  0  0  0
 38 42  2  0  0  0  0
 39 44  1  0  0  0  0
 39 42  1  0  0  0  0
 40 41  1  0  0  0  0
 40 43  2  0  0  0  0
 41 39  1  0  0  0  0
 43 38  1  0  0  0  0
 44 45  1  1  0  0  0
 46 44  1  0  0  0  0
 47 49  1  0  0  0  0
 49 48  2  0  0  0  0
 49 50  1  0  0  0  0
 50 51  1  0  0  0  0
 51 53  1  0  0  0  0
 51 52  1  1  0  0  0
 53 55  1  0  0  0  0
 55 54  2  0  0  0  0
M  END
>  <MODEL>
3

>  <REMARK>
 VINA RESULT:      -5.3      6.079     10.512
  Name = 
  25 active torsions:
  status: ('A' for Active; 'I' for Inactive)
    1  A    between atoms: C_1  and  C_30
    2  A    between atoms: C_1  and  C_53
    3  A    between atoms: O_6  and  C_14
    4  A    between atoms: O_6  and  C_53
    5  A    between atoms: C_7  and  C_8
    6  A    between atoms: C_7  and  C_23
    7  A    between atoms: C_7  and  O_43
    8  A    between atoms: C_8  and  C_20
    9  A    between atoms: C_10  and  N_32
   10  A    between atoms: C_11  and  C_29
   11  A    between atoms: C_11  and  C_38
   12  A    between atoms: C_12  and  C_14
   13  A    between atoms: C_17  and  C_23
   14  A    between atoms: C_19  and  O_40
   15  A    between atoms: C_20  and  C_30
   16  A    between atoms: C_27  and  O_31
   17  A    between atoms: C_27  and  C_55
   18  A    between atoms: C_28  and  C_44
   19  A    between atoms: C_28  and  C_49
   20  A    between atoms: O_31  and  C_44
   21  A    between atoms: N_33  and  C_49
   22  A    between atoms: N_33  and  C_52
   23  A    between atoms: C_38  and  C_53
   24  A    between atoms: C_41  and  C_55
   25  A    between atoms: C_45  and  C_49
                            x       y       z     vdW  Elec       q    Type
                         _______ _______ _______ _____ _____    ______ ____

>  <TORSDO>
F 25

$$$$
=
 OpenBabel10272401433D

 55 57  0  0  1  0  0  0  0  0999 V2000
  191.1640  178.0560  138.3620 O   0  0  0  0  0  0  0  0  0  0  0  0
  186.7930  177.7880  136.4250 O   0  0  0  0  0  0  0  0  0  0  0  0
  187.9070  178.1280  137.3890 P   0  0  2  0  0  0  0  0  0  0  0  0
  189.3630  177.0740  137.0750 C   0  0  1  0  0  3  0  0  0  0  0  0
  189.5160  176.8900  139.6960 C   0  0  2  0  0  3  0  0  0  0  0  0
  187.3890  177.8720  138.9870 O   0  0  0  0  0  0  0  0  0  0  0  0
  191.7030  176.7850  138.0780 C   0  0  2  0  0  3  0  0  0  0  0  0
  188.3490  179.7470  137.1840 O   0  0  0  0  0  1  0  0  0  0  0  0
  190.2410  176.9870  138.3310 C   0  0  2  0  0  0  0  0  0  0  0  0
  188.5330  178.0720  139.7790 C   0  0  1  0  0  3  0  0  0  0  0  0
  192.3760  176.2780  139.1930 O   0  0  0  0  0  1  0  0  0  0  0  0
  188.4090  174.7360  137.5130 C   0  0  0  0  0  1  0  0  0  0  0  0
  188.9680  175.7090  136.4810 C   0  0  2  0  0  3  0  0  0  0  0  0
  190.0330  175.0400  135.5950 C   0  0  2  0  0  3  0  0  0  0  0  0
  191.3670  176.1800  134.3470 O   0  0  0  0  0  1  0  0  0  0  0  0
  190.1450  175.6850  134.3540 O   0  0  0  0  0  0  0  0  0  0  0  0
  189.7240  173.5670  135.3640 C   0  0  0  0  0  2  0  0  0  0  0  0
  190.9610  172.6960  135.4270 C   0  0  0  0  0  2  0  0  0  0  0  0
  192.0560  173.3570  136.2590 C   0  0  0  0  0  2  0  0  0  0  0  0
  193.3700  173.4930  135.4810 C   0  0  2  0  0  3  0  0  0  0  0  0
  193.3880  172.6800  134.3460 O   0  0  0  0  0  1  0  0  0  0  0  0
  194.6390  173.2800  136.3230 C   0  0  2  0  0  3  0  0  0  0  0  0
  194.6580  172.0600  137.2600 C   0  0  0  0  0  2  0  0  0  0  0  0
  194.6510  170.1480  135.8290 O   0  0  0  0  0  1  0  0  0  0  0  0
  195.4520  170.8790  136.7010 C   0  0  1  0  0  3  0  0  0  0  0  0
  196.6570  171.5990  134.5780 N   0  0  0  0  0  1  0  0  0  0  0  0
  196.6790  171.3660  135.9880 C   0  0  0  0  0  0  0  0  0  0  0  0
  197.7520  171.5240  136.6240 O   0  0  0  0  0  0  0  0  0  0  0  0
  195.1410  174.4630  136.9480 O   0  0  0  0  0  0  0  0  0  0  0  0
  196.4500  174.6030  137.4220 C   0  0  0  0  0  0  0  0  0  0  0  0
  196.6860  174.5100  138.6540 O   0  0  0  0  0  0  0  0  0  0  0  0
  197.5440  174.9780  136.4840 C   0  0  0  0  0  2  0  0  0  0  0  0
  197.2300  176.2510  135.8560 N   0  0  0  0  0  1  0  0  0  0  0  0
  190.3170  175.7040  141.2960 O   0  0  0  0  0  1  0  0  0  0  0  0
  190.4070  176.9080  140.7760 O   0  0  0  0  0  0  0  0  0  0  0  0
  188.2150  178.5310  141.2090 C   0  0  2  0  0  3  0  0  0  0  0  0
  189.2030  178.0550  142.1700 N   0  0  0  0  0  2  0  0  0  0  0  0
  187.5540  177.0450  143.7550 C   0  0  0  0  0  3  0  0  0  0  0  0
  187.6420  177.7800  146.0350 N   0  0  0  0  0  0  0  0  0  0  0  0
  189.5150  178.2750  144.5390 C   0  0  0  0  0  3  0  0  0  0  0  0
  189.0900  178.0190  145.9600 C   0  0  0  0  0  2  0  0  0  0  0  0
  186.9890  177.0800  144.9660 C   0  0  0  0  0  3  0  0  0  0  0  0
  188.8260  177.7580  143.5120 C   0  0  0  0  0  0  0  0  0  0  0  0
  186.9080  177.9900  147.2780 C   0  0  2  0  0  3  0  0  0  0  0  0
  185.7290  178.9260  147.0570 C   0  0  0  0  0  1  0  0  0  0  0  0
  187.7950  178.5440  148.2890 N   0  0  0  0  0  1  0  0  0  0  0  0
  186.8190  178.0830  141.6460 C   0  0  0  0  0  2  0  0  0  0  0  0
  185.5140  179.8430  142.6030 O   0  0  0  0  0  0  0  0  0  0  0  0
  185.8120  179.1840  141.5670 C   0  0  0  0  0  0  0  0  0  0  0  0
  185.2470  179.4900  140.3270 O   0  0  0  0  0  0  0  0  0  0  0  0
  183.9330  179.0880  139.9520 C   0  0  1  0  0  3  0  0  0  0  0  0
  183.9740  178.5100  138.5520 C   0  0  0  0  0  1  0  0  0  0  0  0
  183.3860  178.0490  140.9320 C   0  0  0  0  0  2  0  0  0  0  0  0
  181.0440  178.7930  141.0490 C   0  0  0  0  0  2  0  0  0  0  0  0
  182.2010  178.5840  141.6740 C   0  0  0  0  0  3  0  0  0  0  0  0
  3  2  2  6  0  0  0
  3  6  1  0  0  0  0
  4 13  1  1  0  0  0
  4  3  1  0  0  0  0
  4  9  1  0  0  0  0
  5 10  1  0  0  0  0
  5 35  1  1  0  0  0
  6 10  1  0  0  0  0
  7  9  1  0  0  0  0
  7  1  1  0  0  0  0
  7 11  1  1  0  0  0
  8  3  1  0  0  0  0
  9  1  1  1  0  0  0
  9  5  1  0  0  0  0
 10 36  1  1  0  0  0
 13 12  1  1  0  0  0
 14 17  1  6  0  0  0
 14 13  1  0  0  0  0
 15 16  1  0  0  0  0
 16 14  1  0  0  0  0
 17 18  1  0  0  0  0
 18 19  1  0  0  0  0
 20 21  1  6  0  0  0
 20 19  1  0  0  0  0
 20 22  1  0  0  0  0
 22 29  1  0  0  0  0
 22 23  1  1  0  0  0
 25 24  1  6  0  0  0
 25 23  1  0  0  0  0
 26 27  1  0  0  0  0
 27 28  2  0  0  0  0
 27 25  1  0  0  0  0
 29 30  1  0  0  0  0
 30 31  2  0  0  0  0
 32 30  1  0  0  0  0
 33 32  1  0  0  0  0
 35 34  1  0  0  0  0
 36 47  1  1  0  0  0
 36 37  1  0  0  0  0
 37 43  1  0  0  0  0
 38 42  2  0  0  0  0
 39 44  1  0  0  0  0
 40 41  1  0  0  0  0
 41 39  1  0  0  0  0
 42 39  1  0  0  0  0
 43 38  1  0  0  0  0
 43 40  2  0  0  0  0
 44 45  1  6  0  0  0
 44 46  1  0  0  0  0
 49 47  1  0  0  0  0
 49 48  2  0  0  0  0
 50 49  1  0  0  0  0
 51 52  1  6  0  0  0
 51 50  1  0  0  0  0
 51 53  1  0  0  0  0
 53 55  1  0  0  0  0
 54 55  2  0  0  0  0
M  END
>  <MODEL>
4

>  <REMARK>
 VINA RESULT:      -5.1      5.371      9.480
  Name = 
  25 active torsions:
  status: ('A' for Active; 'I' for Inactive)
    1  A    between atoms: C_1  and  C_30
    2  A    between atoms: C_1  and  C_53
    3  A    between atoms: O_6  and  C_14
    4  A    between atoms: O_6  and  C_53
    5  A    between atoms: C_7  and  C_8
    6  A    between atoms: C_7  and  C_23
    7  A    between atoms: C_7  and  O_43
    8  A    between atoms: C_8  and  C_20
    9  A    between atoms: C_10  and  N_32
   10  A    between atoms: C_11  and  C_29
   11  A    between atoms: C_11  and  C_38
   12  A    between atoms: C_12  and  C_14
   13  A    between atoms: C_17  and  C_23
   14  A    between atoms: C_19  and  O_40
   15  A    between atoms: C_20  and  C_30
   16  A    between atoms: C_27  and  O_31
   17  A    between atoms: C_27  and  C_55
   18  A    between atoms: C_28  and  C_44
   19  A    between atoms: C_28  and  C_49
   20  A    between atoms: O_31  and  C_44
   21  A    between atoms: N_33  and  C_49
   22  A    between atoms: N_33  and  C_52
   23  A    between atoms: C_38  and  C_53
   24  A    between atoms: C_41  and  C_55
   25  A    between atoms: C_45  and  C_49
                            x       y       z     vdW  Elec       q    Type
                         _______ _______ _______ _____ _____    ______ ____

>  <TORSDO>
F 25

$$$$
=
 OpenBabel10272401433D

 55 57  0  0  1  0  0  0  0  0999 V2000
  190.7700  178.4950  139.9190 O   0  0  0  0  0  0  0  0  0  0  0  0
  188.2830  177.8720  135.8740 O   0  0  0  0  0  0  0  0  0  0  0  0
  188.6150  178.2490  137.3000 P   0  0  2  0  0  0  0  0  0  0  0  0
  190.1570  177.4310  137.8310 C   0  0  1  0  0  3  0  0  0  0  0  0
  188.8820  176.9920  140.0910 C   0  0  2  0  0  3  0  0  0  0  0  0
  187.3590  177.7600  138.3350 O   0  0  0  0  0  0  0  0  0  0  0  0
  191.5780  177.3420  139.9620 C   0  0  2  0  0  3  0  0  0  0  0  0
  188.8210  179.9240  137.4020 O   0  0  0  0  0  1  0  0  0  0  0  0
  190.2060  177.3250  139.3620 C   0  0  2  0  0  0  0  0  0  0  0  0
  187.8330  178.0220  139.6330 C   0  0  1  0  0  3  0  0  0  0  0  0
  191.6050  176.8110  141.2540 O   0  0  0  0  0  1  0  0  0  0  0  0
  189.7300  174.9040  137.7850 C   0  0  0  0  0  1  0  0  0  0  0  0
  190.3840  176.0960  137.0960 C   0  0  2  0  0  3  0  0  0  0  0  0
  191.8420  175.7950  136.7090 C   0  0  2  0  0  3  0  0  0  0  0  0
  190.8400  176.1600  134.8400 O   0  0  0  0  0  1  0  0  0  0  0  0
  192.0130  175.7950  135.3170 O   0  0  0  0  0  0  0  0  0  0  0  0
  192.3010  174.4540  137.2670 C   0  0  0  0  0  2  0  0  0  0  0  0
  193.7260  174.1180  136.8750 C   0  0  0  0  0  2  0  0  0  0  0  0
  194.0290  172.6430  137.1170 C   0  0  0  0  0  2  0  0  0  0  0  0
  195.0900  172.1050  136.1490 C   0  0  2  0  0  3  0  0  0  0  0  0
  194.5590  171.1590  135.2710 O   0  0  0  0  0  1  0  0  0  0  0  0
  196.3600  171.5650  136.8280 C   0  0  2  0  0  3  0  0  0  0  0  0
  196.2870  170.1490  137.4220 C   0  0  0  0  0  2  0  0  0  0  0  0
  195.4000  168.3420  136.1350 O   0  0  0  0  0  1  0  0  0  0  0  0
  195.0390  169.3760  136.9930 C   0  0  1  0  0  3  0  0  0  0  0  0
  194.7220  169.2070  139.5120 N   0  0  0  0  0  1  0  0  0  0  0  0
  194.3280  168.8250  138.1930 C   0  0  0  0  0  0  0  0  0  0  0  0
  193.4070  167.9800  138.0430 O   0  0  0  0  0  0  0  0  0  0  0  0
  197.0070  172.4960  137.6990 O   0  0  0  0  0  0  0  0  0  0  0  0
  198.1940  173.1660  137.3850 C   0  0  0  0  0  0  0  0  0  0  0  0
  199.1360  172.5470  136.8260 O   0  0  0  0  0  0  0  0  0  0  0  0
  198.3890  174.5780  137.8180 C   0  0  0  0  0  2  0  0  0  0  0  0
  197.5230  175.4480  137.0400 N   0  0  0  0  0  1  0  0  0  0  0  0
  188.9870  175.7440  141.8340 O   0  0  0  0  0  1  0  0  0  0  0  0
  189.0200  177.0100  141.4850 O   0  0  0  0  0  0  0  0  0  0  0  0
  186.7140  178.2820  140.6520 C   0  0  2  0  0  3  0  0  0  0  0  0
  185.7060  179.2020  140.1360 N   0  0  0  0  0  2  0  0  0  0  0  0
  183.6500  177.8660  140.6220 C   0  0  0  0  0  3  0  0  0  0  0  0
  182.3460  177.1490  138.7430 N   0  0  0  0  0  0  0  0  0  0  0  0
  184.0430  178.8870  138.4360 C   0  0  0  0  0  3  0  0  0  0  0  0
  182.7290  178.3290  137.9560 C   0  0  0  0  0  2  0  0  0  0  0  0
  182.6630  177.1040  140.1410 C   0  0  0  0  0  3  0  0  0  0  0  0
  184.4360  178.7220  139.7070 C   0  0  0  0  0  0  0  0  0  0  0  0
  181.4220  176.1550  138.2070 C   0  0  2  0  0  3  0  0  0  0  0  0
  180.8480  175.2950  139.3220 C   0  0  0  0  0  1  0  0  0  0  0  0
  182.1070  175.3150  137.2370 N   0  0  0  0  0  1  0  0  0  0  0  0
  187.2680  178.8200  141.9720 C   0  0  0  0  0  2  0  0  0  0  0  0
  185.2900  178.7510  143.3130 O   0  0  0  0  0  0  0  0  0  0  0  0
  186.4810  178.3590  143.1550 C   0  0  0  0  0  0  0  0  0  0  0  0
  187.0720  177.4620  144.0480 O   0  0  0  0  0  0  0  0  0  0  0  0
  187.9430  177.8720  145.0970 C   0  0  1  0  0  3  0  0  0  0  0  0
  187.2560  177.6410  146.4280 C   0  0  0  0  0  1  0  0  0  0  0  0
  189.2570  177.0920  145.0450 C   0  0  0  0  0  2  0  0  0  0  0  0
  190.6480  178.8070  143.9600 C   0  0  0  0  0  2  0  0  0  0  0  0
  190.4310  178.0210  145.0120 C   0  0  0  0  0  3  0  0  0  0  0  0
  1  7  1  0  0  0  0
  3  2  2  6  0  0  0
  3  8  1  0  0  0  0
  3  4  1  0  0  0  0
  3  6  1  0  0  0  0
  4 13  1  6  0  0  0
  4  9  1  0  0  0  0
  5 35  1  1  0  0  0
  6 10  1  0  0  0  0
  7 11  1  1  0  0  0
  9  1  1  1  0  0  0
  9  7  1  0  0  0  0
  9  5  1  0  0  0  0
 10  5  1  0  0  0  0
 10 36  1  1  0  0  0
 13 12  1  1  0  0  0
 14 13  1  0  0  0  0
 14 17  1  6  0  0  0
 15 16  1  0  0  0  0
 16 14  1  0  0  0  0
 18 19  1  0  0  0  0
 18 17  1  0  0  0  0
 20 21  1  1  0  0  0
 20 22  1  0  0  0  0
 20 19  1  0  0  0  0
 22 23  1  1  0  0  0
 22 29  1  0  0  0  0
 25 24  1  6  0  0  0
 25 23  1  0  0  0  0
 25 27  1  0  0  0  0
 27 26  1  0  0  0  0
 28 27  2  0  0  0  0
 30 29  1  0  0  0  0
 30 32  1  0  0  0  0
 31 30  2  0  0  0  0
 33 32  1  0  0  0  0
 35 34  1  0  0  0  0
 36 47  1  1  0  0  0
 37 36  1  0  0  0  0
 39 42  1  0  0  0  0
 40 43  2  0  0  0  0
 41 40  1  0  0  0  0
 41 39  1  0  0  0  0
 42 38  2  0  0  0  0
 43 37  1  0  0  0  0
 43 38  1  0  0  0  0
 44 39  1  0  0  0  0
 44 45  1  1  0  0  0
 46 44  1  0  0  0  0
 47 49  1  0  0  0  0
 49 48  2  0  0  0  0
 49 50  1  0  0  0  0
 50 51  1  0  0  0  0
 51 52  1  1  0  0  0
 53 51  1  0  0  0  0
 54 55  2  0  0  0  0
 55 53  1  0  0  0  0
M  END
>  <MODEL>
5

>  <REMARK>
 VINA RESULT:      -5.0      5.668      9.204
  Name = 
  25 active torsions:
  status: ('A' for Active; 'I' for Inactive)
    1  A    between atoms: C_1  and  C_30
    2  A    between atoms: C_1  and  C_53
    3  A    between atoms: O_6  and  C_14
    4  A    between atoms: O_6  and  C_53
    5  A    between atoms: C_7  and  C_8
    6  A    between atoms: C_7  and  C_23
    7  A    between atoms: C_7  and  O_43
    8  A    between atoms: C_8  and  C_20
    9  A    between atoms: C_10  and  N_32
   10  A    between atoms: C_11  and  C_29
   11  A    between atoms: C_11  and  C_38
   12  A    between atoms: C_12  and  C_14
   13  A    between atoms: C_17  and  C_23
   14  A    between atoms: C_19  and  O_40
   15  A    between atoms: C_20  and  C_30
   16  A    between atoms: C_27  and  O_31
   17  A    between atoms: C_27  and  C_55
   18  A    between atoms: C_28  and  C_44
   19  A    between atoms: C_28  and  C_49
   20  A    between atoms: O_31  and  C_44
   21  A    between atoms: N_33  and  C_49
   22  A    between atoms: N_33  and  C_52
   23  A    between atoms: C_38  and  C_53
   24  A    between atoms: C_41  and  C_55
   25  A    between atoms: C_45  and  C_49
                            x       y       z     vdW  Elec       q    Type
                         _______ _______ _______ _____ _____    ______ ____

>  <TORSDO>
F 25

$$$$
=
 OpenBabel10272401433D

 55 57  0  0  1  0  0  0  0  0999 V2000
  192.2120  178.3090  139.7660 O   0  0  0  0  0  0  0  0  0  0  0  0
  188.1950  176.7610  137.6690 O   0  0  0  0  0  0  0  0  0  0  0  0
  189.1300  177.3370  138.7080 P   0  0  2  0  0  0  0  0  0  0  0  0
  190.8620  176.9400  138.2930 C   0  0  1  0  0  3  0  0  0  0  0  0
  191.1300  176.4430  140.8630 C   0  0  2  0  0  3  0  0  0  0  0  0
  188.7760  176.6790  140.2340 O   0  0  0  0  0  0  0  0  0  0  0  0
  193.1690  177.3760  139.3190 C   0  0  2  0  0  3  0  0  0  0  0  0
  188.9490  179.0180  138.7540 O   0  0  0  0  0  1  0  0  0  0  0  0
  191.7390  176.9950  139.5510 C   0  0  2  0  0  0  0  0  0  0  0  0
  189.7870  177.1620  141.0840 C   0  0  1  0  0  3  0  0  0  0  0  0
  194.0050  176.9890  140.3710 O   0  0  0  0  0  1  0  0  0  0  0  0
  191.9620  174.6340  138.0980 C   0  0  0  0  0  1  0  0  0  0  0  0
  190.9770  175.6280  137.4940 C   0  0  2  0  0  3  0  0  0  0  0  0
  191.1980  175.7920  135.9800 C   0  0  2  0  0  3  0  0  0  0  0  0
  189.4210  176.0400  134.7900 O   0  0  0  0  0  1  0  0  0  0  0  0
  190.3260  176.7470  135.4370 O   0  0  0  0  0  0  0  0  0  0  0  0
  191.0130  174.4730  135.2430 C   0  0  0  0  0  2  0  0  0  0  0  0
  192.3140  173.9300  134.6880 C   0  0  0  0  0  2  0  0  0  0  0  0
  192.7970  172.7290  135.4950 C   0  0  0  0  0  2  0  0  0  0  0  0
  193.9320  171.9770  134.7890 C   0  0  2  0  0  3  0  0  0  0  0  0
  193.5240  170.7170  134.3490 O   0  0  0  0  0  1  0  0  0  0  0  0
  195.2350  171.8770  135.5990 C   0  0  2  0  0  3  0  0  0  0  0  0
  195.3170  170.7600  136.6540 C   0  0  0  0  0  2  0  0  0  0  0  0
  196.7530  169.8250  134.9900 O   0  0  0  0  0  1  0  0  0  0  0  0
  196.0830  169.5280  136.1720 C   0  0  1  0  0  3  0  0  0  0  0  0
  198.3550  168.6020  136.8470 N   0  0  0  0  0  1  0  0  0  0  0  0
  197.0600  169.0780  137.2180 C   0  0  0  0  0  0  0  0  0  0  0  0
  196.7230  169.0730  138.4300 O   0  0  0  0  0  0  0  0  0  0  0  0
  195.7310  173.1280  136.0810 O   0  0  0  0  0  0  0  0  0  0  0  0
  197.0500  173.5630  135.9130 C   0  0  0  0  0  0  0  0  0  0  0  0
  197.9730  172.7240  135.7490 O   0  0  0  0  0  0  0  0  0  0  0  0
  197.3780  175.0100  136.0460 C   0  0  0  0  0  2  0  0  0  0  0  0
  197.8220  175.2840  137.4030 N   0  0  0  0  0  1  0  0  0  0  0  0
  191.5470  175.7590  142.8550 O   0  0  0  0  0  1  0  0  0  0  0  0
  191.9780  176.6230  141.9630 O   0  0  0  0  0  0  0  0  0  0  0  0
  189.3560  177.2590  142.5540 C   0  0  2  0  0  3  0  0  0  0  0  0
  187.9880  176.7940  142.7560 N   0  0  0  0  0  2  0  0  0  0  0  0
  186.0890  177.6930  144.1110 C   0  0  0  0  0  3  0  0  0  0  0  0
  184.4090  178.9410  142.9420 N   0  0  0  0  0  0  0  0  0  0  0  0
  186.5500  178.4850  141.8460 C   0  0  0  0  0  3  0  0  0  0  0  0
  185.3800  179.4280  141.9530 C   0  0  0  0  0  2  0  0  0  0  0  0
  184.8820  178.2650  144.1160 C   0  0  0  0  0  3  0  0  0  0  0  0
  186.9160  177.7250  142.8860 C   0  0  0  0  0  0  0  0  0  0  0  0
  183.0130  179.3630  142.8960 C   0  0  2  0  0  3  0  0  0  0  0  0
  182.3830  179.2960  144.2790 C   0  0  0  0  0  1  0  0  0  0  0  0
  182.2710  178.5180  141.9740 N   0  0  0  0  0  1  0  0  0  0  0  0
  189.4940  178.6860  143.0880 C   0  0  0  0  0  2  0  0  0  0  0  0
  191.1420  179.7830  144.4290 O   0  0  0  0  0  0  0  0  0  0  0  0
  190.4030  178.7700  144.2710 C   0  0  0  0  0  0  0  0  0  0  0  0
  190.3840  177.7350  145.2080 O   0  0  0  0  0  0  0  0  0  0  0  0
  189.7500  177.8480  146.4780 C   0  0  1  0  0  3  0  0  0  0  0  0
  188.5120  176.9750  146.4920 C   0  0  0  0  0  1  0  0  0  0  0  0
  190.7020  177.4240  147.5970 C   0  0  0  0  0  2  0  0  0  0  0  0
  191.9730  175.3180  147.5570 C   0  0  0  0  0  2  0  0  0  0  0  0
  191.7910  176.5420  147.0680 C   0  0  0  0  0  3  0  0  0  0  0  0
  3  2  2  6  0  0  0
  3  8  1  0  0  0  0
  3  6  1  0  0  0  0
  4 13  1  1  0  0  0
  4  3  1  0  0  0  0
  4  9  1  0  0  0  0
  5 10  1  0  0  0  0
  5 35  1  1  0  0  0
  6 10  1  0  0  0  0
  7  9  1  0  0  0  0
  7  1  1  0  0  0  0
  7 11  1  1  0  0  0
  9  1  1  1  0  0  0
  9  5  1  0  0  0  0
 10 36  1  1  0  0  0
 13 12  1  1  0  0  0
 14 17  1  6  0  0  0
 14 13  1  0  0  0  0
 15 16  1  0  0  0  0
 16 14  1  0  0  0  0
 18 17  1  0  0  0  0
 18 19  1  0  0  0  0
 20 21  1  1  0  0  0
 20 19  1  0  0  0  0
 20 22  1  0  0  0  0
 22 29  1  0  0  0  0
 22 23  1  1  0  0  0
 25 24  1  6  0  0  0
 25 23  1  0  0  0  0
 25 27  1  0  0  0  0
 26 27  1  0  0  0  0
 27 28  2  0  0  0  0
 30 32  1  0  0  0  0
 30 29  1  0  0  0  0
 31 30  2  0  0  0  0
 32 33  1  0  0  0  0
 35 34  1  0  0  0  0
 36 37  1  0  0  0  0
 36 47  1  6  0  0  0
 37 43  1  0  0  0  0
 38 42  2  0  0  0  0
 39 42  1  0  0  0  0
 40 41  1  0  0  0  0
 40 43  2  0  0  0  0
 41 39  1  0  0  0  0
 43 38  1  0  0  0  0
 44 39  1  0  0  0  0
 44 45  1  1  0  0  0
 46 44  1  0  0  0  0
 47 49  1  0  0  0  0
 49 48  2  0  0  0  0
 49 50  1  0  0  0  0
 50 51  1  0  0  0  0
 51 52  1  6  0  0  0
 51 53  1  0  0  0  0
 55 54  2  0  0  0  0
 55 53  1  0  0  0  0
M  END
>  <MODEL>
6

>  <REMARK>
 VINA RESULT:      -4.9      5.835     10.410
  Name = 
  25 active torsions:
  status: ('A' for Active; 'I' for Inactive)
    1  A    between atoms: C_1  and  C_30
    2  A    between atoms: C_1  and  C_53
    3  A    between atoms: O_6  and  C_14
    4  A    between atoms: O_6  and  C_53
    5  A    between atoms: C_7  and  C_8
    6  A    between atoms: C_7  and  C_23
    7  A    between atoms: C_7  and  O_43
    8  A    between atoms: C_8  and  C_20
    9  A    between atoms: C_10  and  N_32
   10  A    between atoms: C_11  and  C_29
   11  A    between atoms: C_11  and  C_38
   12  A    between atoms: C_12  and  C_14
   13  A    between atoms: C_17  and  C_23
   14  A    between atoms: C_19  and  O_40
   15  A    between atoms: C_20  and  C_30
   16  A    between atoms: C_27  and  O_31
   17  A    between atoms: C_27  and  C_55
   18  A    between atoms: C_28  and  C_44
   19  A    between atoms: C_28  and  C_49
   20  A    between atoms: O_31  and  C_44
   21  A    between atoms: N_33  and  C_49
   22  A    between atoms: N_33  and  C_52
   23  A    between atoms: C_38  and  C_53
   24  A    between atoms: C_41  and  C_55
   25  A    between atoms: C_45  and  C_49
                            x       y       z     vdW  Elec       q    Type
                         _______ _______ _______ _____ _____    ______ ____

>  <TORSDO>
F 25

$$$$
=
 OpenBabel10272401433D

 55 57  0  0  1  0  0  0  0  0999 V2000
  190.4250  178.4620  140.0210 O   0  0  0  0  0  0  0  0  0  0  0  0
  187.8370  177.4610  136.1190 O   0  0  0  0  0  0  0  0  0  0  0  0
  188.2080  177.9820  137.4880 P   0  0  2  0  0  0  0  0  0  0  0  0
  189.7450  177.1930  138.0730 C   0  0  1  0  0  3  0  0  0  0  0  0
  188.5130  177.0260  140.3930 C   0  0  2  0  0  3  0  0  0  0  0  0
  186.9660  177.6330  138.5960 O   0  0  0  0  0  0  0  0  0  0  0  0
  191.2120  177.3030  140.1710 C   0  0  2  0  0  3  0  0  0  0  0  0
  188.4470  179.6540  137.4060 O   0  0  0  0  0  1  0  0  0  0  0  0
  189.8270  177.2510  139.6050 C   0  0  2  0  0  0  0  0  0  0  0  0
  187.4740  178.0220  139.8480 C   0  0  1  0  0  3  0  0  0  0  0  0
  191.2580  176.9120  141.5130 O   0  0  0  0  0  1  0  0  0  0  0  0
  191.1030  175.0190  138.0860 C   0  0  0  0  0  1  0  0  0  0  0  0
  189.9310  175.7830  137.4810 C   0  0  2  0  0  3  0  0  0  0  0  0
  189.9420  175.7090  135.9440 C   0  0  2  0  0  3  0  0  0  0  0  0
  189.1610  173.7030  135.9520 O   0  0  0  0  0  1  0  0  0  0  0  0
  188.9030  174.9000  135.4630 O   0  0  0  0  0  0  0  0  0  0  0  0
  191.2700  175.1770  135.4210 C   0  0  0  0  0  2  0  0  0  0  0  0
  192.3180  176.2620  135.2830 C   0  0  0  0  0  2  0  0  0  0  0  0
  193.5980  175.7140  134.6600 C   0  0  0  0  0  2  0  0  0  0  0  0
  194.8450  176.1100  135.4600 C   0  0  2  0  0  3  0  0  0  0  0  0
  195.7650  176.8060  134.6750 O   0  0  0  0  0  1  0  0  0  0  0  0
  195.5280  174.9460  136.1980 C   0  0  2  0  0  3  0  0  0  0  0  0
  194.7000  173.6670  136.4040 C   0  0  0  0  0  2  0  0  0  0  0  0
  196.4560  172.3610  135.4480 O   0  0  0  0  0  1  0  0  0  0  0  0
  195.0760  172.5400  135.4420 C   0  0  1  0  0  3  0  0  0  0  0  0
  195.1500  170.1070  136.1850 N   0  0  0  0  0  1  0  0  0  0  0  0
  194.3900  171.2660  135.8360 C   0  0  0  0  0  0  0  0  0  0  0  0
  193.1340  171.1980  135.8140 O   0  0  0  0  0  0  0  0  0  0  0  0
  196.2510  175.3310  137.3700 O   0  0  0  0  0  0  0  0  0  0  0  0
  196.9510  174.4360  138.1860 C   0  0  0  0  0  0  0  0  0  0  0  0
  196.3980  173.9520  139.2070 O   0  0  0  0  0  0  0  0  0  0  0  0
  198.3870  174.1480  137.9140 C   0  0  0  0  0  2  0  0  0  0  0  0
  198.8160  174.8870  136.7380 N   0  0  0  0  0  1  0  0  0  0  0  0
  188.6010  175.9720  142.2610 O   0  0  0  0  0  1  0  0  0  0  0  0
  188.6830  177.1900  141.7730 O   0  0  0  0  0  0  0  0  0  0  0  0
  186.3840  178.4140  140.8550 C   0  0  2  0  0  3  0  0  0  0  0  0
  185.5270  179.4810  140.3500 N   0  0  0  0  0  2  0  0  0  0  0  0
  183.4070  178.2370  140.8070 C   0  0  0  0  0  3  0  0  0  0  0  0
  181.8160  178.1000  139.0190 N   0  0  0  0  0  0  0  0  0  0  0  0
  183.6480  179.7180  138.8770 C   0  0  0  0  0  3  0  0  0  0  0  0
  182.2320  179.4000  138.4750 C   0  0  0  0  0  2  0  0  0  0  0  0
  182.2910  177.6950  140.3110 C   0  0  0  0  0  3  0  0  0  0  0  0
  184.1680  179.2210  140.0080 C   0  0  0  0  0  0  0  0  0  0  0  0
  180.7290  177.3420  138.4090 C   0  0  2  0  0  3  0  0  0  0  0  0
  180.9440  175.8470  138.5920 C   0  0  0  0  0  1  0  0  0  0  0  0
  180.6390  177.6590  136.9920 N   0  0  0  0  0  1  0  0  0  0  0  0
  186.9820  178.8330  142.1990 C   0  0  0  0  0  2  0  0  0  0  0  0
  185.4020  177.4300  143.3180 O   0  0  0  0  0  0  0  0  0  0  0  0
  186.1020  178.4810  143.3550 C   0  0  0  0  0  0  0  0  0  0  0  0
  186.1040  179.3110  144.4780 O   0  0  0  0  0  0  0  0  0  0  0  0
  186.2780  178.8210  145.8040 C   0  0  1  0  0  3  0  0  0  0  0  0
  184.9310  178.3960  146.3540 C   0  0  0  0  0  1  0  0  0  0  0  0
  187.2470  177.6380  145.8210 C   0  0  0  0  0  2  0  0  0  0  0  0
  189.2210  176.9910  147.1380 C   0  0  0  0  0  2  0  0  0  0  0  0
  188.0510  177.6220  147.0840 C   0  0  0  0  0  3  0  0  0  0  0  0
  1  7  1  0  0  0  0
  3  2  2  6  0  0  0
  3  4  1  0  0  0  0
  3  6  1  0  0  0  0
  4 13  1  1  0  0  0
  4  9  1  0  0  0  0
  5 35  1  1  0  0  0
  6 10  1  0  0  0  0
  7 11  1  1  0  0  0
  8  3  1  0  0  0  0
  9  1  1  1  0  0  0
  9  7  1  0  0  0  0
  9  5  1  0  0  0  0
 10  5  1  0  0  0  0
 10 36  1  1  0  0  0
 13 12  1  1  0  0  0
 14 17  1  1  0  0  0
 14 13  1  0  0  0  0
 16 14  1  0  0  0  0
 16 15  1  0  0  0  0
 18 17  1  0  0  0  0
 19 18  1  0  0  0  0
 19 20  1  0  0  0  0
 20 21  1  6  0  0  0
 20 22  1  0  0  0  0
 22 23  1  1  0  0  0
 22 29  1  0  0  0  0
 25 24  1  1  0  0  0
 25 27  1  0  0  0  0
 25 23  1  0  0  0  0
 27 26  1  0  0  0  0
 28 27  2  0  0  0  0
 29 30  1  0  0  0  0
 30 31  2  0  0  0  0
 32 30  1  0  0  0  0
 33 32  1  0  0  0  0
 35 34  1  0  0  0  0
 36 47  1  1  0  0  0
 37 36  1  0  0  0  0
 39 42  1  0  0  0  0
 40 43  2  0  0  0  0
 41 40  1  0  0  0  0
 41 39  1  0  0  0  0
 42 38  2  0  0  0  0
 43 37  1  0  0  0  0
 43 38  1  0  0  0  0
 44 45  1  6  0  0  0
 44 39  1  0  0  0  0
 46 44  1  0  0  0  0
 47 49  1  0  0  0  0
 48 49  2  0  0  0  0
 49 50  1  0  0  0  0
 50 51  1  0  0  0  0
 51 53  1  0  0  0  0
 51 52  1  6  0  0  0
 53 55  1  0  0  0  0
 55 54  2  0  0  0  0
M  END
>  <MODEL>
7

>  <REMARK>
 VINA RESULT:      -4.6      5.094      8.888
  Name = 
  25 active torsions:
  status: ('A' for Active; 'I' for Inactive)
    1  A    between atoms: C_1  and  C_30
    2  A    between atoms: C_1  and  C_53
    3  A    between atoms: O_6  and  C_14
    4  A    between atoms: O_6  and  C_53
    5  A    between atoms: C_7  and  C_8
    6  A    between atoms: C_7  and  C_23
    7  A    between atoms: C_7  and  O_43
    8  A    between atoms: C_8  and  C_20
    9  A    between atoms: C_10  and  N_32
   10  A    between atoms: C_11  and  C_29
   11  A    between atoms: C_11  and  C_38
   12  A    between atoms: C_12  and  C_14
   13  A    between atoms: C_17  and  C_23
   14  A    between atoms: C_19  and  O_40
   15  A    between atoms: C_20  and  C_30
   16  A    between atoms: C_27  and  O_31
   17  A    between atoms: C_27  and  C_55
   18  A    between atoms: C_28  and  C_44
   19  A    between atoms: C_28  and  C_49
   20  A    between atoms: O_31  and  C_44
   21  A    between atoms: N_33  and  C_49
   22  A    between atoms: N_33  and  C_52
   23  A    between atoms: C_38  and  C_53
   24  A    between atoms: C_41  and  C_55
   25  A    between atoms: C_45  and  C_49
                            x       y       z     vdW  Elec       q    Type
                         _______ _______ _______ _____ _____    ______ ____

>  <TORSDO>
F 25

$$$$
=
 OpenBabel10272401433D

 55 57  0  0  1  0  0  0  0  0999 V2000
  188.9510  179.5940  141.3280 O   0  0  0  0  0  0  0  0  0  0  0  0
  191.4970  176.1580  143.4800 O   0  0  0  0  0  1  0  0  0  0  0  0
  190.9700  177.0790  142.4050 P   0  0  2  0  0  0  0  0  0  0  0  0
  189.3940  177.8340  142.9310 C   0  0  1  0  0  3  0  0  0  0  0  0
  188.6000  177.3600  140.4670 C   0  0  2  0  0  3  0  0  0  0  0  0
  190.6960  176.2010  140.9750 O   0  0  0  0  0  0  0  0  0  0  0  0
  187.6860  179.4620  141.9340 C   0  0  2  0  0  3  0  0  0  0  0  0
  192.0960  178.3060  142.1160 O   0  0  0  0  0  0  0  0  0  0  0  0
  188.5820  178.2840  141.7090 C   0  0  2  0  0  0  0  0  0  0  0  0
  190.0750  177.1110  140.1010 C   0  0  1  0  0  3  0  0  0  0  0  0
  186.6710  179.5550  140.9770 O   0  0  0  0  0  1  0  0  0  0  0  0
  187.7410  175.8960  143.2150 C   0  0  0  0  0  1  0  0  0  0  0  0
  188.6210  176.9290  143.9090 C   0  0  2  0  0  3  0  0  0  0  0  0
  187.8550  177.6640  145.0240 C   0  0  2  0  0  3  0  0  0  0  0  0
  187.5880  177.9980  147.1340 O   0  0  0  0  0  1  0  0  0  0  0  0
  188.3210  177.2940  146.2940 O   0  0  0  0  0  0  0  0  0  0  0  0
  186.3580  177.3950  144.9440 C   0  0  0  0  0  2  0  0  0  0  0  0
  185.6240  178.4330  144.1210 C   0  0  0  0  0  2  0  0  0  0  0  0
  184.6980  177.7730  143.1040 C   0  0  0  0  0  2  0  0  0  0  0  0
  183.7100  178.7720  142.4890 C   0  0  2  0  0  3  0  0  0  0  0  0
  182.6550  179.0580  143.3570 O   0  0  0  0  0  1  0  0  0  0  0  0
  183.1800  178.3770  141.1000 C   0  0  2  0  0  3  0  0  0  0  0  0
  181.8520  179.0100  140.6530 C   0  0  0  0  0  2  0  0  0  0  0  0
  180.5250  179.7280  138.8010 O   0  0  0  0  0  1  0  0  0  0  0  0
  181.8120  179.3410  139.1610 C   0  0  1  0  0  3  0  0  0  0  0  0
  184.1940  180.1810  138.8470 N   0  0  0  0  0  1  0  0  0  0  0  0
  182.7870  180.4350  138.8420 C   0  0  0  0  0  0  0  0  0  0  0  0
  182.3700  181.6000  138.6140 O   0  0  0  0  0  0  0  0  0  0  0  0
  183.2460  176.9770  140.8180 O   0  0  0  0  0  0  0  0  0  0  0  0
  182.6870  176.3810  139.6820 C   0  0  0  0  0  0  0  0  0  0  0  0
  181.5400  175.8660  139.7430 O   0  0  0  0  0  0  0  0  0  0  0  0
  183.4930  176.2500  138.4370 C   0  0  0  0  0  2  0  0  0  0  0  0
  182.6750  176.6040  137.2890 N   0  0  0  0  0  1  0  0  0  0  0  0
  186.7510  177.2760  139.3810 O   0  0  0  0  0  1  0  0  0  0  0  0
  187.9040  177.9070  139.3830 O   0  0  0  0  0  0  0  0  0  0  0  0
  190.3140  176.7960  138.6180 C   0  0  2  0  0  3  0  0  0  0  0  0
  191.7270  176.5910  138.3220 N   0  0  0  0  0  2  0  0  0  0  0  0
  193.6400  175.0120  138.0070 C   0  0  0  0  0  3  0  0  0  0  0  0
  193.3450  173.2450  136.4130 N   0  0  0  0  0  0  0  0  0  0  0  0
  191.3930  174.5010  137.1920 C   0  0  0  0  0  3  0  0  0  0  0  0
  191.8990  173.1840  136.6660 C   0  0  0  0  0  2  0  0  0  0  0  0
  194.1770  174.0250  137.2840 C   0  0  0  0  0  3  0  0  0  0  0  0
  192.2000  175.3220  137.8790 C   0  0  0  0  0  0  0  0  0  0  0  0
  193.9840  172.3280  135.4770 C   0  0  2  0  0  3  0  0  0  0  0  0
  194.0110  170.9140  136.0400 C   0  0  0  0  0  1  0  0  0  0  0  0
  195.3400  172.7730  135.1950 N   0  0  0  0  0  1  0  0  0  0  0  0
  189.7570  177.8950  137.7110 C   0  0  0  0  0  2  0  0  0  0  0  0
  190.0700  177.0540  135.4950 O   0  0  0  0  0  0  0  0  0  0  0  0
  189.2530  177.3640  136.4080 C   0  0  0  0  0  0  0  0  0  0  0  0
  187.8790  177.1820  136.2430 O   0  0  0  0  0  0  0  0  0  0  0  0
  187.2410  175.9170  136.3820 C   0  0  1  0  0  3  0  0  0  0  0  0
  186.0190  175.8780  135.4860 C   0  0  0  0  0  1  0  0  0  0  0  0
  188.1980  174.7840  136.0100 C   0  0  0  0  0  2  0  0  0  0  0  0
  187.3430  172.5820  136.6970 C   0  0  0  0  0  2  0  0  0  0  0  0
  187.4500  173.5130  135.7520 C   0  0  0  0  0  3  0  0  0  0  0  0
  1  7  1  0  0  0  0
  3  8  2  6  0  0  0
  3  4  1  0  0  0  0
  3  2  1  0  0  0  0
  4 13  1  6  0  0  0
  5 35  1  6  0  0  0
  5  9  1  0  0  0  0
  6  3  1  0  0  0  0
  7 11  1  6  0  0  0
  9  1  1  6  0  0  0
  9  7  1  0  0  0  0
  9  4  1  0  0  0  0
 10 36  1  6  0  0  0
 10  5  1  0  0  0  0
 10  6  1  0  0  0  0
 13 12  1  6  0  0  0
 13 14  1  0  0  0  0
 14 17  1  1  0  0  0
 14 16  1  0  0  0  0
 16 15  1  0  0  0  0
 18 17  1  0  0  0  0
 19 18  1  0  0  0  0
 20 19  1  0  0  0  0
 20 21  1  1  0  0  0
 22 23  1  1  0  0  0
 22 20  1  0  0  0  0
 25 24  1  1  0  0  0
 25 23  1  0  0  0  0
 27 26  1  0  0  0  0
 27 25  1  0  0  0  0
 28 27  2  0  0  0  0
 29 22  1  0  0  0  0
 30 31  2  0  0  0  0
 30 29  1  0  0  0  0
 32 30  1  0  0  0  0
 33 32  1  0  0  0  0
 34 35  1  0  0  0  0
 36 47  1  6  0  0  0
 37 36  1  0  0  0  0
 39 41  1  0  0  0  0
 39 42  1  0  0  0  0
 40 43  2  0  0  0  0
 41 40  1  0  0  0  0
 42 38  2  0  0  0  0
 43 38  1  0  0  0  0
 43 37  1  0  0  0  0
 44 45  1  1  0  0  0
 44 39  1  0  0  0  0
 46 44  1  0  0  0  0
 48 49  2  0  0  0  0
 49 47  1  0  0  0  0
 50 51  1  0  0  0  0
 50 49  1  0  0  0  0
 51 52  1  6  0  0  0
 53 51  1  0  0  0  0
 55 53  1  0  0  0  0
 55 54  2  0  0  0  0
M  END
>  <MODEL>
8

>  <REMARK>
 VINA RESULT:      -4.5      4.243      9.552
  Name = 
  25 active torsions:
  status: ('A' for Active; 'I' for Inactive)
    1  A    between atoms: C_1  and  C_30
    2  A    between atoms: C_1  and  C_53
    3  A    between atoms: O_6  and  C_14
    4  A    between atoms: O_6  and  C_53
    5  A    between atoms: C_7  and  C_8
    6  A    between atoms: C_7  and  C_23
    7  A    between atoms: C_7  and  O_43
    8  A    between atoms: C_8  and  C_20
    9  A    between atoms: C_10  and  N_32
   10  A    between atoms: C_11  and  C_29
   11  A    between atoms: C_11  and  C_38
   12  A    between atoms: C_12  and  C_14
   13  A    between atoms: C_17  and  C_23
   14  A    between atoms: C_19  and  O_40
   15  A    between atoms: C_20  and  C_30
   16  A    between atoms: C_27  and  O_31
   17  A    between atoms: C_27  and  C_55
   18  A    between atoms: C_28  and  C_44
   19  A    between atoms: C_28  and  C_49
   20  A    between atoms: O_31  and  C_44
   21  A    between atoms: N_33  and  C_49
   22  A    between atoms: N_33  and  C_52
   23  A    between atoms: C_38  and  C_53
   24  A    between atoms: C_41  and  C_55
   25  A    between atoms: C_45  and  C_49
                            x       y       z     vdW  Elec       q    Type
                         _______ _______ _______ _____ _____    ______ ____

>  <TORSDO>
F 25

$$$$
=
 OpenBabel10272401433D

 55 57  0  0  1  0  0  0  0  0999 V2000
  190.4230  178.4380  139.9770 O   0  0  0  0  0  0  0  0  0  0  0  0
  188.0540  177.5050  135.9220 O   0  0  0  0  0  0  0  0  0  0  0  0
  188.3440  177.9880  137.3240 P   0  0  2  0  0  0  0  0  0  0  0  0
  189.8720  177.2190  137.9580 C   0  0  1  0  0  3  0  0  0  0  0  0
  188.5360  176.9430  140.2080 C   0  0  2  0  0  3  0  0  0  0  0  0
  187.0610  177.5710  138.3580 O   0  0  0  0  0  0  0  0  0  0  0  0
  191.2330  177.2960  140.1270 C   0  0  2  0  0  3  0  0  0  0  0  0
  188.5420  179.6670  137.3080 O   0  0  0  0  0  1  0  0  0  0  0  0
  189.8790  177.2280  139.4930 C   0  0  2  0  0  0  0  0  0  0  0  0
  187.4970  177.9300  139.6450 C   0  0  1  0  0  3  0  0  0  0  0  0
  191.2260  176.8610  141.4560 O   0  0  0  0  0  1  0  0  0  0  0  0
  191.2890  175.0840  137.9630 C   0  0  0  0  0  1  0  0  0  0  0  0
  190.1240  175.8360  137.3290 C   0  0  2  0  0  3  0  0  0  0  0  0
  190.2070  175.8130  135.7930 C   0  0  2  0  0  3  0  0  0  0  0  0
  188.8120  174.2420  136.2640 O   0  0  0  0  0  1  0  0  0  0  0  0
  189.2460  174.9530  135.2420 O   0  0  0  0  0  0  0  0  0  0  0  0
  191.5890  175.3870  135.3150 C   0  0  0  0  0  2  0  0  0  0  0  0
  192.5200  176.5640  135.1080 C   0  0  0  0  0  2  0  0  0  0  0  0
  193.7910  176.1370  134.3810 C   0  0  0  0  0  2  0  0  0  0  0  0
  195.0530  176.4360  135.2000 C   0  0  2  0  0  3  0  0  0  0  0  0
  195.9180  177.2980  134.5240 O   0  0  0  0  0  1  0  0  0  0  0  0
  195.8050  175.1890  135.6960 C   0  0  2  0  0  3  0  0  0  0  0  0
  197.1900  174.9200  135.0850 C   0  0  0  0  0  2  0  0  0  0  0  0
  197.8280  175.4650  137.3210 O   0  0  0  0  0  1  0  0  0  0  0  0
  198.3310  175.0400  136.0960 C   0  0  1  0  0  3  0  0  0  0  0  0
  200.1040  173.5760  137.1870 N   0  0  0  0  0  1  0  0  0  0  0  0
  199.0300  173.7220  136.2550 C   0  0  0  0  0  0  0  0  0  0  0  0
  198.7030  172.7480  135.5290 O   0  0  0  0  0  0  0  0  0  0  0  0
  195.0020  174.0100  135.7840 O   0  0  0  0  0  0  0  0  0  0  0  0
  194.9790  173.1600  136.8950 C   0  0  0  0  0  0  0  0  0  0  0  0
  194.9150  171.9140  136.7320 O   0  0  0  0  0  0  0  0  0  0  0  0
  194.9080  173.7330  138.2680 C   0  0  0  0  0  2  0  0  0  0  0  0
  195.8040  172.9980  139.1470 N   0  0  0  0  0  1  0  0  0  0  0  0
  188.6810  175.8250  142.0350 O   0  0  0  0  0  1  0  0  0  0  0  0
  188.6350  177.0640  141.5990 O   0  0  0  0  0  0  0  0  0  0  0  0
  186.3490  178.2590  140.6100 C   0  0  2  0  0  3  0  0  0  0  0  0
  185.4650  179.2910  140.0790 N   0  0  0  0  0  2  0  0  0  0  0  0
  183.5150  177.7280  140.1600 C   0  0  0  0  0  3  0  0  0  0  0  0
  181.9340  177.8640  138.3630 N   0  0  0  0  0  0  0  0  0  0  0  0
  183.5570  179.6700  138.6760 C   0  0  0  0  0  3  0  0  0  0  0  0
  182.1860  179.3000  138.1760 C   0  0  0  0  0  2  0  0  0  0  0  0
  182.4680  177.2020  139.5190 C   0  0  0  0  0  3  0  0  0  0  0  0
  184.1440  178.9670  139.6540 C   0  0  0  0  0  0  0  0  0  0  0  0
  180.9410  177.1630  137.5570 C   0  0  2  0  0  3  0  0  0  0  0  0
  180.1990  178.1340  136.6510 C   0  0  0  0  0  1  0  0  0  0  0  0
  179.9960  176.4750  138.4230 N   0  0  0  0  0  1  0  0  0  0  0  0
  186.8720  178.6910  141.9810 C   0  0  0  0  0  2  0  0  0  0  0  0
  184.9660  177.6230  142.9510 O   0  0  0  0  0  0  0  0  0  0  0  0
  185.8600  178.5070  143.0660 C   0  0  0  0  0  0  0  0  0  0  0  0
  185.9530  179.2990  144.2120 O   0  0  0  0  0  0  0  0  0  0  0  0
  185.9490  178.7600  145.5300 C   0  0  1  0  0  3  0  0  0  0  0  0
  184.5310  178.7720  146.0650 C   0  0  0  0  0  1  0  0  0  0  0  0
  186.4970  177.3320  145.5320 C   0  0  0  0  0  2  0  0  0  0  0  0
  188.5430  177.3740  146.8970 C   0  0  0  0  0  2  0  0  0  0  0  0
  187.9860  177.3300  145.6890 C   0  0  0  0  0  3  0  0  0  0  0  0
  1  7  1  0  0  0  0
  3  2  2  6  0  0  0
  3  4  1  0  0  0  0
  3  6  1  0  0  0  0
  4 13  1  1  0  0  0
  4  9  1  0  0  0  0
  5 35  1  1  0  0  0
  6 10  1  0  0  0  0
  7 11  1  1  0  0  0
  8  3  1  0  0  0  0
  9  1  1  1  0  0  0
  9  7  1  0  0  0  0
  9  5  1  0  0  0  0
 10  5  1  0  0  0  0
 10 36  1  1  0  0  0
 13 12  1  1  0  0  0
 14 17  1  1  0  0  0
 14 13  1  0  0  0  0
 16 14  1  0  0  0  0
 16 15  1  0  0  0  0
 18 17  1  0  0  0  0
 19 18  1  0  0  0  0
 19 20  1  0  0  0  0
 20 21  1  6  0  0  0
 20 22  1  0  0  0  0
 22 23  1  6  0  0  0
 22 29  1  0  0  0  0
 23 25  1  0  0  0  0
 25 27  1  0  0  0  0
 25 24  1  1  0  0  0
 27 26  1  0  0  0  0
 28 27  2  0  0  0  0
 29 30  1  0  0  0  0
 30 32  1  0  0  0  0
 31 30  2  0  0  0  0
 32 33  1  0  0  0  0
 35 34  1  0  0  0  0
 36 47  1  1  0  0  0
 37 36  1  0  0  0  0
 39 42  1  0  0  0  0
 40 43  2  0  0  0  0
 41 39  1  0  0  0  0
 41 40  1  0  0  0  0
 42 38  2  0  0  0  0
 43 37  1  0  0  0  0
 43 38  1  0  0  0  0
 44 45  1  1  0  0  0
 44 39  1  0  0  0  0
 44 46  1  0  0  0  0
 47 49  1  0  0  0  0
 48 49  2  0  0  0  0
 49 50  1  0  0  0  0
 50 51  1  0  0  0  0
 51 53  1  0  0  0  0
 51 52  1  6  0  0  0
 53 55  1  0  0  0  0
 55 54  2  0  0  0  0
M  END
>  <MODEL>
9

>  <REMARK>
 VINA RESULT:      -4.5      5.158      8.731
  Name = 
  25 active torsions:
  status: ('A' for Active; 'I' for Inactive)
    1  A    between atoms: C_1  and  C_30
    2  A    between atoms: C_1  and  C_53
    3  A    between atoms: O_6  and  C_14
    4  A    between atoms: O_6  and  C_53
    5  A    between atoms: C_7  and  C_8
    6  A    between atoms: C_7  and  C_23
    7  A    between atoms: C_7  and  O_43
    8  A    between atoms: C_8  and  C_20
    9  A    between atoms: C_10  and  N_32
   10  A    between atoms: C_11  and  C_29
   11  A    between atoms: C_11  and  C_38
   12  A    between atoms: C_12  and  C_14
   13  A    between atoms: C_17  and  C_23
   14  A    between atoms: C_19  and  O_40
   15  A    between atoms: C_20  and  C_30
   16  A    between atoms: C_27  and  O_31
   17  A    between atoms: C_27  and  C_55
   18  A    between atoms: C_28  and  C_44
   19  A    between atoms: C_28  and  C_49
   20  A    between atoms: O_31  and  C_44
   21  A    between atoms: N_33  and  C_49
   22  A    between atoms: N_33  and  C_52
   23  A    between atoms: C_38  and  C_53
   24  A    between atoms: C_41  and  C_55
   25  A    between atoms: C_45  and  C_49
                            x       y       z     vdW  Elec       q    Type
                         _______ _______ _______ _____ _____    ______ ____

>  <TORSDO>
F 25

$$$$
