=
 OpenBabel10262423523D

 34 39  0  0  1  0  0  0  0  0999 V2000
  185.8580  178.0090  144.1510 C   0  0  0  0  0  0  0  0  0  0  0  0
  185.9890  178.6100  141.6920 C   0  0  2  0  0  3  0  0  0  0  0  0
  188.0030  177.7310  143.0050 C   0  0  0  0  0  0  0  0  0  0  0  0
  190.1900  177.3530  141.9330 C   0  0  0  0  0  0  0  0  0  0  0  0
  183.8240  178.5470  142.8970 C   0  0  0  0  0  3  0  0  0  0  0  0
  184.4880  178.6860  141.7510 C   0  0  0  0  0  3  0  0  0  0  0  0
  188.4600  177.7720  140.4310 C   0  0  0  0  0  2  0  0  0  0  0  0
  186.6250  178.0730  142.9610 C   0  0  0  0  0  0  0  0  0  0  0  0
  190.8760  177.2440  140.6350 C   0  0  0  0  0  2  0  0  0  0  0  0
  184.5430  178.2440  144.1430 C   0  0  0  0  0  3  0  0  0  0  0  0
  188.6140  177.4040  144.2480 C   0  0  0  0  0  0  0  0  0  0  0  0
  186.4620  177.6650  145.3560 C   0  0  0  0  0  3  0  0  0  0  0  0
  186.4860  179.8760  141.4330 F   0  0  0  0  0  0  0  0  0  0  0  0
  190.7200  177.0540  143.0740 N   0  0  0  0  0  0  0  0  0  0  0  0
  189.9480  177.1020  144.2930 C   0  0  0  0  0  0  0  0  0  0  0  0
  189.7630  177.5780  139.6330 C   0  0  1  0  0  3  0  0  0  0  0  0
  188.8360  177.7110  141.8300 N   0  0  0  0  0  0  0  0  0  0  0  0
  187.8210  177.3740  145.4040 C   0  0  0  0  0  3  0  0  0  0  0  0
  191.1860  177.1940  147.8950 C   0  0  0  0  0  0  0  0  0  0  0  0
  192.1470  176.1800  147.8700 C   0  0  0  0  0  3  0  0  0  0  0  0
  190.6730  176.7760  145.5510 C   0  0  0  0  0  0  0  0  0  0  0  0
  192.3820  175.4710  146.6910 C   0  0  0  0  0  3  0  0  0  0  0  0
  190.4590  177.4950  146.7400 C   0  0  0  0  0  3  0  0  0  0  0  0
  191.6540  175.7720  145.5370 C   0  0  0  0  0  3  0  0  0  0  0  0
  190.9620  177.8880  149.0360 F   0  0  0  0  0  0  0  0  0  0  0  0
  189.6070  176.4800  138.6950 N   0  0  0  0  0  2  0  0  0  0  0  0
  190.4150  176.7950  137.5280 C   0  0  0  0  0  2  0  0  0  0  0  0
  190.3280  173.8890  136.8960 C   0  0  0  0  0  1  0  0  0  0  0  0
  191.6480  175.9530  137.5260 C   0  0  0  0  0  0  0  0  0  0  0  0
  191.6090  174.5820  137.2150 C   0  0  0  0  0  0  0  0  0  0  0  0
  194.0020  174.4800  137.4980 C   0  0  0  0  0  3  0  0  0  0  0  0
  194.0210  175.8090  137.7900 N   0  0  0  0  0  0  0  0  0  0  0  0
  192.8800  176.5500  137.8060 C   0  0  0  0  0  3  0  0  0  0  0  0
  192.7950  173.8450  137.2050 C   0  0  0  0  0  3  0  0  0  0  0  0
  1 12  1  0  0  0  0
  2 13  1  1  0  0  0
  2  6  1  0  0  0  0
  2  8  1  0  0  0  0
  3 11  1  0  0  0  0
  4 14  2  0  0  0  0
  5 10  1  0  0  0  0
  6  5  2  0  0  0  0
  7 17  1  0  0  0  0
  8  3  2  0  0  0  0
  8  1  1  0  0  0  0
  9  4  1  0  0  0  0
 10  1  2  0  0  0  0
 11 15  2  0  0  0  0
 11 18  1  0  0  0  0
 12 18  2  0  0  0  0
 14 15  1  0  0  0  0
 15 21  1  0  0  0  0
 16 26  1  6  0  0  0
 16  7  1  0  0  0  0
 16  9  1  0  0  0  0
 17  4  1  0  0  0  0
 17  3  1  0  0  0  0
 19 25  1  0  0  0  0
 20 19  1  0  0  0  0
 21 23  1  0  0  0  0
 22 20  2  0  0  0  0
 23 19  2  0  0  0  0
 24 21  2  0  0  0  0
 24 22  1  0  0  0  0
 27 26  1  0  0  0  0
 28 30  1  0  0  0  0
 29 27  1  0  0  0  0
 29 33  1  0  0  0  0
 30 29  2  0  0  0  0
 31 32  1  0  0  0  0
 32 33  2  0  0  0  0
 34 30  1  0  0  0  0
 34 31  2  0  0  0  0
M  END
>  <MODEL>
1

>  <REMARK>
 VINA RESULT:     -10.5      0.000      0.000
  Name = 
  4 active torsions:
  status: ('A' for Active; 'I' for Inactive)
    1  A    between atoms: C_3  and  C_13
    2  A    between atoms: C_3  and  N_17
    3  A    between atoms: C_12  and  C_28
    4  A    between atoms: N_17  and  C_29
                            x       y       z     vdW  Elec       q    Type
                         _______ _______ _______ _____ _____    ______ ____

>  <TORSDO>
F 4

$$$$
=
 OpenBabel10262423523D

 34 39  0  0  1  0  0  0  0  0999 V2000
  185.8000  178.0280  144.1690 C   0  0  0  0  0  0  0  0  0  0  0  0
  185.8630  178.6600  141.7150 C   0  0  2  0  0  3  0  0  0  0  0  0
  187.9040  177.7360  142.9520 C   0  0  0  0  0  0  0  0  0  0  0  0
  190.0510  177.3420  141.8070 C   0  0  0  0  0  0  0  0  0  0  0  0
  183.7360  178.6100  142.9870 C   0  0  0  0  0  3  0  0  0  0  0  0
  184.3660  178.7550  141.8220 C   0  0  0  0  0  3  0  0  0  0  0  0
  188.2810  177.8050  140.3660 C   0  0  0  0  0  2  0  0  0  0  0  0
  186.5300  178.0970  142.9570 C   0  0  0  0  0  0  0  0  0  0  0  0
  190.6940  177.2400  140.4870 C   0  0  0  0  0  2  0  0  0  0  0  0
  184.4890  178.2810  144.2050 C   0  0  0  0  0  3  0  0  0  0  0  0
  188.5490  177.3830  144.1720 C   0  0  0  0  0  0  0  0  0  0  0  0
  186.4370  177.6590  145.3500 C   0  0  0  0  0  3  0  0  0  0  0  0
  186.3690  179.9220  141.4570 F   0  0  0  0  0  0  0  0  0  0  0  0
  190.6110  177.0200  142.9280 N   0  0  0  0  0  0  0  0  0  0  0  0
  189.8790  177.0620  144.1710 C   0  0  0  0  0  0  0  0  0  0  0  0
  189.5560  177.6030  139.5250 C   0  0  1  0  0  3  0  0  0  0  0  0
  188.7000  177.7200  141.7520 N   0  0  0  0  0  0  0  0  0  0  0  0
  187.7920  177.3490  145.3510 C   0  0  0  0  0  3  0  0  0  0  0  0
  191.2130  177.0750  147.7390 C   0  0  0  0  0  0  0  0  0  0  0  0
  192.1760  176.0650  147.6660 C   0  0  0  0  0  3  0  0  0  0  0  0
  190.6380  176.7090  145.4010 C   0  0  0  0  0  0  0  0  0  0  0  0
  192.3810  175.3840  146.4640 C   0  0  0  0  0  3  0  0  0  0  0  0
  190.4540  177.4000  146.6110 C   0  0  0  0  0  3  0  0  0  0  0  0
  191.6210  175.7090  145.3370 C   0  0  0  0  0  3  0  0  0  0  0  0
  191.0180  177.7410  148.9020 F   0  0  0  0  0  0  0  0  0  0  0  0
  189.3550  176.5200  138.5780 N   0  0  0  0  0  2  0  0  0  0  0  0
  188.5810  177.0560  137.4710 C   0  0  0  0  0  2  0  0  0  0  0  0
  185.8050  178.0940  137.7290 C   0  0  0  0  0  1  0  0  0  0  0  0
  187.3910  176.1900  137.2220 C   0  0  0  0  0  0  0  0  0  0  0  0
  186.0780  176.6830  137.3310 C   0  0  0  0  0  0  0  0  0  0  0  0
  185.2410  174.5140  136.6890 C   0  0  0  0  0  3  0  0  0  0  0  0
  186.5170  174.0570  136.5820 N   0  0  0  0  0  0  0  0  0  0  0  0
  187.5850  174.8600  136.8350 C   0  0  0  0  0  3  0  0  0  0  0  0
  185.0000  175.8360  137.0650 C   0  0  0  0  0  3  0  0  0  0  0  0
  1 10  2  0  0  0  0
  1 12  1  0  0  0  0
  2 13  1  1  0  0  0
  2  6  1  0  0  0  0
  2  8  1  0  0  0  0
  3  8  2  0  0  0  0
  3 11  1  0  0  0  0
  4 14  2  0  0  0  0
  5 10  1  0  0  0  0
  6  5  2  0  0  0  0
  7 17  1  0  0  0  0
  8  1  1  0  0  0  0
  9  4  1  0  0  0  0
 11 18  1  0  0  0  0
 12 18  2  0  0  0  0
 14 15  1  0  0  0  0
 15 11  2  0  0  0  0
 15 21  1  0  0  0  0
 16 26  1  6  0  0  0
 16  7  1  0  0  0  0
 16  9  1  0  0  0  0
 17  4  1  0  0  0  0
 17  3  1  0  0  0  0
 19 25  1  0  0  0  0
 20 19  1  0  0  0  0
 21 23  1  0  0  0  0
 22 20  2  0  0  0  0
 23 19  2  0  0  0  0
 24 21  2  0  0  0  0
 24 22  1  0  0  0  0
 27 26  1  0  0  0  0
 29 30  1  0  0  0  0
 29 27  1  0  0  0  0
 30 28  1  0  0  0  0
 31 34  1  0  0  0  0
 32 31  2  0  0  0  0
 32 33  1  0  0  0  0
 33 29  2  0  0  0  0
 34 30  2  0  0  0  0
M  END
>  <MODEL>
2

>  <REMARK>
 VINA RESULT:     -10.5      1.942      3.121
  Name = 
  4 active torsions:
  status: ('A' for Active; 'I' for Inactive)
    1  A    between atoms: C_3  and  C_13
    2  A    between atoms: C_3  and  N_17
    3  A    between atoms: C_12  and  C_28
    4  A    between atoms: N_17  and  C_29
                            x       y       z     vdW  Elec       q    Type
                         _______ _______ _______ _____ _____    ______ ____

>  <TORSDO>
F 4

$$$$
=
 OpenBabel10262423523D

 34 39  0  0  1  0  0  0  0  0999 V2000
  185.7160  178.0460  144.1300 C   0  0  0  0  0  0  0  0  0  0  0  0
  185.7740  178.6970  141.6810 C   0  0  2  0  0  3  0  0  0  0  0  0
  187.8210  177.7800  142.9120 C   0  0  0  0  0  0  0  0  0  0  0  0
  189.9720  177.4130  141.7640 C   0  0  0  0  0  0  0  0  0  0  0  0
  183.6470  178.6200  142.9530 C   0  0  0  0  0  3  0  0  0  0  0  0
  184.2760  178.7800  141.7890 C   0  0  0  0  0  3  0  0  0  0  0  0
  188.1980  177.8720  140.3260 C   0  0  0  0  0  2  0  0  0  0  0  0
  186.4450  178.1300  142.9190 C   0  0  0  0  0  0  0  0  0  0  0  0
  190.6160  177.3260  140.4430 C   0  0  0  0  0  2  0  0  0  0  0  0
  184.4030  178.2880  144.1690 C   0  0  0  0  0  3  0  0  0  0  0  0
  188.4700  177.4240  144.1280 C   0  0  0  0  0  0  0  0  0  0  0  0
  186.3550  177.6730  145.3080 C   0  0  0  0  0  3  0  0  0  0  0  0
  186.2690  179.9650  141.4330 F   0  0  0  0  0  0  0  0  0  0  0  0
  190.5350  177.0870  142.8820 N   0  0  0  0  0  0  0  0  0  0  0  0
  189.8030  177.1130  144.1250 C   0  0  0  0  0  0  0  0  0  0  0  0
  189.4750  177.6880  139.4840 C   0  0  1  0  0  3  0  0  0  0  0  0
  188.6180  177.7800  141.7110 N   0  0  0  0  0  0  0  0  0  0  0  0
  187.7130  177.3740  145.3070 C   0  0  0  0  0  3  0  0  0  0  0  0
  191.1310  177.1040  147.6950 C   0  0  0  0  0  0  0  0  0  0  0  0
  192.1070  176.1090  147.6120 C   0  0  0  0  0  3  0  0  0  0  0  0
  190.5650  176.7570  145.3520 C   0  0  0  0  0  0  0  0  0  0  0  0
  192.3240  175.4450  146.4030 C   0  0  0  0  0  3  0  0  0  0  0  0
  190.3690  177.4320  146.5700 C   0  0  0  0  0  3  0  0  0  0  0  0
  191.5610  175.7720  145.2790 C   0  0  0  0  0  3  0  0  0  0  0  0
  190.9240  177.7550  148.8650 F   0  0  0  0  0  0  0  0  0  0  0  0
  189.2830  176.6100  138.5280 N   0  0  0  0  0  2  0  0  0  0  0  0
  190.1940  176.8500  137.4220 C   0  0  0  0  0  2  0  0  0  0  0  0
  193.1120  176.5260  137.9030 C   0  0  0  0  0  1  0  0  0  0  0  0
  190.9120  175.5880  137.0780 C   0  0  0  0  0  0  0  0  0  0  0  0
  192.2890  175.4290  137.3170 C   0  0  0  0  0  0  0  0  0  0  0  0
  192.1510  173.1820  136.4500 C   0  0  0  0  0  3  0  0  0  0  0  0
  190.8190  173.3520  136.2320 N   0  0  0  0  0  0  0  0  0  0  0  0
  190.1910  174.5200  136.5350 C   0  0  0  0  0  3  0  0  0  0  0  0
  192.9080  174.2180  136.9970 C   0  0  0  0  0  3  0  0  0  0  0  0
  1 10  2  0  0  0  0
  1 12  1  0  0  0  0
  2 13  1  1  0  0  0
  2  6  1  0  0  0  0
  2  8  1  0  0  0  0
  3  8  2  0  0  0  0
  3 11  1  0  0  0  0
  4 14  2  0  0  0  0
  5 10  1  0  0  0  0
  6  5  2  0  0  0  0
  7 17  1  0  0  0  0
  8  1  1  0  0  0  0
  9  4  1  0  0  0  0
 11 18  1  0  0  0  0
 14 15  1  0  0  0  0
 15 11  2  0  0  0  0
 15 21  1  0  0  0  0
 16 26  1  6  0  0  0
 16  7  1  0  0  0  0
 16  9  1  0  0  0  0
 17  4  1  0  0  0  0
 17  3  1  0  0  0  0
 18 12  2  0  0  0  0
 19 25  1  0  0  0  0
 20 19  1  0  0  0  0
 21 23  1  0  0  0  0
 22 20  2  0  0  0  0
 23 19  2  0  0  0  0
 24 21  2  0  0  0  0
 24 22  1  0  0  0  0
 27 26  1  0  0  0  0
 29 30  1  0  0  0  0
 29 27  1  0  0  0  0
 30 28  1  0  0  0  0
 31 34  1  0  0  0  0
 32 31  2  0  0  0  0
 32 33  1  0  0  0  0
 33 29  2  0  0  0  0
 34 30  2  0  0  0  0
M  END
>  <MODEL>
3

>  <REMARK>
 VINA RESULT:     -10.5      0.850      1.301
  Name = 
  4 active torsions:
  status: ('A' for Active; 'I' for Inactive)
    1  A    between atoms: C_3  and  C_13
    2  A    between atoms: C_3  and  N_17
    3  A    between atoms: C_12  and  C_28
    4  A    between atoms: N_17  and  C_29
                            x       y       z     vdW  Elec       q    Type
                         _______ _______ _______ _____ _____    ______ ____

>  <TORSDO>
F 4

$$$$
=
 OpenBabel10262423523D

 34 39  0  0  1  0  0  0  0  0999 V2000
  187.3030  178.3700  147.4050 C   0  0  0  0  0  0  0  0  0  0  0  0
  189.4660  177.2910  146.6440 C   0  0  2  0  0  3  0  0  0  0  0  0
  187.5350  177.7880  145.0390 C   0  0  0  0  0  0  0  0  0  0  0  0
  187.6900  177.3010  142.6280 C   0  0  0  0  0  0  0  0  0  0  0  0
  189.2110  178.2110  148.9310 C   0  0  0  0  0  3  0  0  0  0  0  0
  189.9930  177.6660  148.0010 C   0  0  0  0  0  3  0  0  0  0  0  0
  189.7160  177.1170  143.7620 C   0  0  0  0  0  2  0  0  0  0  0  0
  188.0900  177.8580  146.3450 C   0  0  0  0  0  0  0  0  0  0  0  0
  188.6200  176.9530  141.5420 C   0  0  0  0  0  2  0  0  0  0  0  0
  187.8080  178.5300  148.6310 C   0  0  0  0  0  3  0  0  0  0  0  0
  186.1770  178.1590  144.8240 C   0  0  0  0  0  0  0  0  0  0  0  0
  185.9850  178.7530  147.1770 C   0  0  0  0  0  3  0  0  0  0  0  0
  189.4210  175.9110  146.5520 F   0  0  0  0  0  0  0  0  0  0  0  0
  186.4560  177.6500  142.4580 N   0  0  0  0  0  0  0  0  0  0  0  0
  185.6350  178.0660  143.5710 C   0  0  0  0  0  0  0  0  0  0  0  0
  189.9510  176.7670  142.2810 C   0  0  1  0  0  3  0  0  0  0  0  0
  188.2890  177.3370  143.8970 N   0  0  0  0  0  0  0  0  0  0  0  0
  185.4300  178.6420  145.9070 C   0  0  0  0  0  3  0  0  0  0  0  0
  182.4080  178.7880  141.6820 C   0  0  0  0  0  0  0  0  0  0  0  0
  181.5630  179.1570  142.7310 C   0  0  0  0  0  3  0  0  0  0  0  0
  184.2210  178.4060  143.2620 C   0  0  0  0  0  0  0  0  0  0  0  0
  182.0430  179.1630  144.0430 C   0  0  0  0  0  3  0  0  0  0  0  0
  183.7310  178.4220  141.9450 C   0  0  0  0  0  3  0  0  0  0  0  0
  183.3660  178.7960  144.3050 C   0  0  0  0  0  3  0  0  0  0  0  0
  181.9460  178.7890  140.4080 F   0  0  0  0  0  0  0  0  0  0  0  0
  190.9500  177.6590  141.7170 N   0  0  0  0  0  2  0  0  0  0  0  0
  190.6210  177.8380  140.3130 C   0  0  0  0  0  2  0  0  0  0  0  0
  189.7100  176.0770  138.0950 C   0  0  0  0  0  1  0  0  0  0  0  0
  191.5860  177.0750  139.4670 C   0  0  0  0  0  0  0  0  0  0  0  0
  191.1570  176.2520  138.4100 C   0  0  0  0  0  0  0  0  0  0  0  0
  193.4600  175.7340  137.9170 C   0  0  0  0  0  3  0  0  0  0  0  0
  193.8570  176.5390  138.9390 N   0  0  0  0  0  0  0  0  0  0  0  0
  192.9570  177.2080  139.7090 C   0  0  0  0  0  3  0  0  0  0  0  0
  192.1030  175.5770  137.6350 C   0  0  0  0  0  3  0  0  0  0  0  0
  1 10  2  0  0  0  0
  2 13  1  1  0  0  0
  2  6  1  0  0  0  0
  3  8  2  0  0  0  0
  4 17  1  0  0  0  0
  6  5  2  0  0  0  0
  7 17  1  0  0  0  0
  8  2  1  0  0  0  0
  8  1  1  0  0  0  0
  9 16  1  0  0  0  0
  9  4  1  0  0  0  0
 10  5  1  0  0  0  0
 11  3  1  0  0  0  0
 11 18  1  0  0  0  0
 12  1  1  0  0  0  0
 14  4  2  0  0  0  0
 14 15  1  0  0  0  0
 15 11  2  0  0  0  0
 16 26  1  6  0  0  0
 16  7  1  0  0  0  0
 17  3  1  0  0  0  0
 18 12  2  0  0  0  0
 19 23  2  0  0  0  0
 19 20  1  0  0  0  0
 20 22  2  0  0  0  0
 21 15  1  0  0  0  0
 21 24  2  0  0  0  0
 22 24  1  0  0  0  0
 23 21  1  0  0  0  0
 25 19  1  0  0  0  0
 27 26  1  0  0  0  0
 28 30  1  0  0  0  0
 29 33  1  0  0  0  0
 29 27  1  0  0  0  0
 30 29  2  0  0  0  0
 31 32  1  0  0  0  0
 32 33  2  0  0  0  0
 34 31  2  0  0  0  0
 34 30  1  0  0  0  0
M  END
>  <MODEL>
4

>  <REMARK>
 VINA RESULT:     -10.5      1.881      5.890
  Name = 
  4 active torsions:
  status: ('A' for Active; 'I' for Inactive)
    1  A    between atoms: C_3  and  C_13
    2  A    between atoms: C_3  and  N_17
    3  A    between atoms: C_12  and  C_28
    4  A    between atoms: N_17  and  C_29
                            x       y       z     vdW  Elec       q    Type
                         _______ _______ _______ _____ _____    ______ ____

>  <TORSDO>
F 4

$$$$
=
 OpenBabel10262423523D

 34 39  0  0  1  0  0  0  0  0999 V2000
  189.2890  177.3170  146.5580 C   0  0  0  0  0  0  0  0  0  0  0  0
  191.1040  176.3690  145.0640 C   0  0  2  0  0  3  0  0  0  0  0  0
  188.8750  177.2320  144.1480 C   0  0  0  0  0  0  0  0  0  0  0  0
  188.3820  177.2510  141.7330 C   0  0  0  0  0  0  0  0  0  0  0  0
  191.5010  176.8010  147.4720 C   0  0  0  0  0  3  0  0  0  0  0  0
  191.9820  176.4420  146.2830 C   0  0  0  0  0  3  0  0  0  0  0  0
  190.6080  176.7890  142.2400 C   0  0  0  0  0  2  0  0  0  0  0  0
  189.7440  177.0170  145.2510 C   0  0  0  0  0  0  0  0  0  0  0  0
  188.9810  177.1150  140.3950 C   0  0  0  0  0  2  0  0  0  0  0  0
  190.0960  177.2070  147.6170 C   0  0  0  0  0  3  0  0  0  0  0  0
  187.5390  177.6710  144.3700 C   0  0  0  0  0  0  0  0  0  0  0  0
  187.9890  177.7680  146.7610 C   0  0  0  0  0  3  0  0  0  0  0  0
  190.9320  175.0390  144.7210 F   0  0  0  0  0  0  0  0  0  0  0  0
  187.1750  177.6560  141.9620 N   0  0  0  0  0  0  0  0  0  0  0  0
  186.6950  177.8510  143.3090 C   0  0  0  0  0  0  0  0  0  0  0  0
  190.4370  176.7480  140.7100 C   0  0  1  0  0  3  0  0  0  0  0  0
  189.2820  177.0100  142.7830 N   0  0  0  0  0  0  0  0  0  0  0  0
  187.1260  177.9360  145.6840 C   0  0  0  0  0  3  0  0  0  0  0  0
  183.0890  178.7880  142.5110 C   0  0  0  0  0  0  0  0  0  0  0  0
  182.6380  179.1990  143.7680 C   0  0  0  0  0  3  0  0  0  0  0  0
  185.2780  178.2810  143.4530 C   0  0  0  0  0  0  0  0  0  0  0  0
  183.5020  179.1630  144.8640 C   0  0  0  0  0  3  0  0  0  0  0  0
  184.4040  178.3390  142.3530 C   0  0  0  0  0  3  0  0  0  0  0  0
  184.8160  178.7130  144.7050 C   0  0  0  0  0  3  0  0  0  0  0  0
  182.2550  178.8280  141.4450 F   0  0  0  0  0  0  0  0  0  0  0  0
  191.3270  177.7150  140.0890 N   0  0  0  0  0  2  0  0  0  0  0  0
  191.2400  177.5160  138.6520 C   0  0  0  0  0  2  0  0  0  0  0  0
  190.1140  175.0910  137.3460 C   0  0  0  0  0  1  0  0  0  0  0  0
  192.1040  176.3660  138.2490 C   0  0  0  0  0  0  0  0  0  0  0  0
  191.5740  175.2250  137.6200 C   0  0  0  0  0  0  0  0  0  0  0  0
  193.7970  174.2990  137.4910 C   0  0  0  0  0  3  0  0  0  0  0  0
  194.2930  175.4140  138.0940 N   0  0  0  0  0  0  0  0  0  0  0  0
  193.4820  176.4390  138.4710 C   0  0  0  0  0  3  0  0  0  0  0  0
  192.4290  174.1870  137.2430 C   0  0  0  0  0  3  0  0  0  0  0  0
  1 12  1  0  0  0  0
  1 10  2  0  0  0  0
  2 13  1  1  0  0  0
  2  8  1  0  0  0  0
  2  6  1  0  0  0  0
  3 11  1  0  0  0  0
  3  8  2  0  0  0  0
  4 14  2  0  0  0  0
  4 17  1  0  0  0  0
  5 10  1  0  0  0  0
  6  5  2  0  0  0  0
  7 17  1  0  0  0  0
  8  1  1  0  0  0  0
  9 16  1  0  0  0  0
  9  4  1  0  0  0  0
 11 18  1  0  0  0  0
 14 15  1  0  0  0  0
 15 21  1  0  0  0  0
 15 11  2  0  0  0  0
 16 26  1  6  0  0  0
 16  7  1  0  0  0  0
 17  3  1  0  0  0  0
 18 12  2  0  0  0  0
 19 20  1  0  0  0  0
 20 22  2  0  0  0  0
 21 24  2  0  0  0  0
 23 19  2  0  0  0  0
 23 21  1  0  0  0  0
 24 22  1  0  0  0  0
 25 19  1  0  0  0  0
 27 26  1  0  0  0  0
 28 30  1  0  0  0  0
 29 33  1  0  0  0  0
 29 27  1  0  0  0  0
 30 29  2  0  0  0  0
 31 32  1  0  0  0  0
 32 33  2  0  0  0  0
 34 31  2  0  0  0  0
 34 30  1  0  0  0  0
M  END
>  <MODEL>
5

>  <REMARK>
 VINA RESULT:     -10.5      1.578      5.422
  Name = 
  4 active torsions:
  status: ('A' for Active; 'I' for Inactive)
    1  A    between atoms: C_3  and  C_13
    2  A    between atoms: C_3  and  N_17
    3  A    between atoms: C_12  and  C_28
    4  A    between atoms: N_17  and  C_29
                            x       y       z     vdW  Elec       q    Type
                         _______ _______ _______ _____ _____    ______ ____

>  <TORSDO>
F 4

$$$$
=
 OpenBabel10262423523D

 34 39  0  0  1  0  0  0  0  0999 V2000
  185.2510  178.2010  144.0260 C   0  0  0  0  0  0  0  0  0  0  0  0
  185.3510  178.7160  141.5460 C   0  0  2  0  0  3  0  0  0  0  0  0
  187.3900  177.9170  142.8700 C   0  0  0  0  0  0  0  0  0  0  0  0
  189.5730  177.5370  141.7920 C   0  0  0  0  0  0  0  0  0  0  0  0
  183.1980  178.6600  142.7740 C   0  0  0  0  0  3  0  0  0  0  0  0
  183.8490  178.7690  141.6170 C   0  0  0  0  0  3  0  0  0  0  0  0
  187.8230  177.8740  140.2920 C   0  0  0  0  0  2  0  0  0  0  0  0
  186.0060  178.2340  142.8280 C   0  0  0  0  0  0  0  0  0  0  0  0
  190.2490  177.3920  140.4920 C   0  0  0  0  0  2  0  0  0  0  0  0
  183.9320  178.4130  144.0220 C   0  0  0  0  0  3  0  0  0  0  0  0
  188.0180  177.6450  144.1190 C   0  0  0  0  0  0  0  0  0  0  0  0
  185.8720  177.9100  145.2370 C   0  0  0  0  0  3  0  0  0  0  0  0
  185.8240  179.9790  141.2380 F   0  0  0  0  0  0  0  0  0  0  0  0
  190.1180  177.2880  142.9380 N   0  0  0  0  0  0  0  0  0  0  0  0
  189.3570  177.3660  144.1620 C   0  0  0  0  0  0  0  0  0  0  0  0
  189.1230  177.6720  139.4900 C   0  0  1  0  0  3  0  0  0  0  0  0
  188.2130  177.8690  141.6890 N   0  0  0  0  0  0  0  0  0  0  0  0
  187.2350  177.6430  145.2820 C   0  0  0  0  0  3  0  0  0  0  0  0
  190.4770  177.4600  147.8020 C   0  0  0  0  0  0  0  0  0  0  0  0
  191.6000  176.6310  147.7550 C   0  0  0  0  0  3  0  0  0  0  0  0
  190.0980  177.0970  145.4230 C   0  0  0  0  0  0  0  0  0  0  0  0
  191.9820  176.0420  146.5470 C   0  0  0  0  0  3  0  0  0  0  0  0
  189.7350  177.6980  146.6410 C   0  0  0  0  0  3  0  0  0  0  0  0
  191.2380  176.2800  145.3880 C   0  0  0  0  0  3  0  0  0  0  0  0
  190.1090  178.0380  148.9700 F   0  0  0  0  0  0  0  0  0  0  0  0
  188.9770  176.5390  138.5920 N   0  0  0  0  0  2  0  0  0  0  0  0
  188.7990  177.0730  137.2520 C   0  0  0  0  0  2  0  0  0  0  0  0
  188.6110  174.6380  135.5520 C   0  0  0  0  0  1  0  0  0  0  0  0
  187.4980  176.6040  136.6910 C   0  0  0  0  0  0  0  0  0  0  0  0
  187.4060  175.4460  135.8980 C   0  0  0  0  0  0  0  0  0  0  0  0
  185.0230  175.7830  135.7340 C   0  0  0  0  0  3  0  0  0  0  0  0
  185.1310  176.8960  136.5090 N   0  0  0  0  0  0  0  0  0  0  0  0
  186.3320  177.3150  136.9900 C   0  0  0  0  0  3  0  0  0  0  0  0
  186.1600  175.0390  135.4170 C   0  0  0  0  0  3  0  0  0  0  0  0
  1 12  1  0  0  0  0
  2 13  1  1  0  0  0
  2  6  1  0  0  0  0
  2  8  1  0  0  0  0
  3 11  1  0  0  0  0
  4 14  2  0  0  0  0
  5 10  1  0  0  0  0
  6  5  2  0  0  0  0
  7 17  1  0  0  0  0
  8  3  2  0  0  0  0
  8  1  1  0  0  0  0
  9  4  1  0  0  0  0
 10  1  2  0  0  0  0
 11 15  2  0  0  0  0
 11 18  1  0  0  0  0
 12 18  2  0  0  0  0
 14 15  1  0  0  0  0
 15 21  1  0  0  0  0
 16 26  1  6  0  0  0
 16  7  1  0  0  0  0
 16  9  1  0  0  0  0
 17  4  1  0  0  0  0
 17  3  1  0  0  0  0
 19 25  1  0  0  0  0
 20 19  1  0  0  0  0
 21 23  1  0  0  0  0
 22 20  2  0  0  0  0
 23 19  2  0  0  0  0
 24 21  2  0  0  0  0
 24 22  1  0  0  0  0
 27 26  1  0  0  0  0
 28 30  1  0  0  0  0
 29 33  1  0  0  0  0
 29 27  1  0  0  0  0
 30 29  2  0  0  0  0
 31 32  1  0  0  0  0
 32 33  2  0  0  0  0
 34 31  2  0  0  0  0
 34 30  1  0  0  0  0
M  END
>  <MODEL>
6

>  <REMARK>
 VINA RESULT:     -10.1      2.006      3.062
  Name = 
  4 active torsions:
  status: ('A' for Active; 'I' for Inactive)
    1  A    between atoms: C_3  and  C_13
    2  A    between atoms: C_3  and  N_17
    3  A    between atoms: C_12  and  C_28
    4  A    between atoms: N_17  and  C_29
                            x       y       z     vdW  Elec       q    Type
                         _______ _______ _______ _____ _____    ______ ____

>  <TORSDO>
F 4

$$$$
=
 OpenBabel10262423523D

 34 39  0  0  1  0  0  0  0  0999 V2000
  183.9040  178.5030  142.7930 C   0  0  0  0  0  0  0  0  0  0  0  0
  184.6950  178.7310  140.3960 C   0  0  2  0  0  3  0  0  0  0  0  0
  186.2910  178.2220  142.3310 C   0  0  0  0  0  0  0  0  0  0  0  0
  188.7010  177.8580  141.9660 C   0  0  0  0  0  0  0  0  0  0  0  0
  182.2830  178.6830  140.9670 C   0  0  0  0  0  3  0  0  0  0  0  0
  183.2350  178.6970  140.0350 C   0  0  0  0  0  3  0  0  0  0  0  0
  187.4450  177.9060  140.0060 C   0  0  0  0  0  2  0  0  0  0  0  0
  184.9690  178.4440  141.8610 C   0  0  0  0  0  0  0  0  0  0  0  0
  189.7240  177.6050  140.9390 C   0  0  0  0  0  2  0  0  0  0  0  0
  182.6360  178.6300  142.3930 C   0  0  0  0  0  3  0  0  0  0  0  0
  186.5430  178.1370  143.7300 C   0  0  0  0  0  0  0  0  0  0  0  0
  184.1600  178.3950  144.1570 C   0  0  0  0  0  3  0  0  0  0  0  0
  185.2010  179.9770  140.0720 F   0  0  0  0  0  0  0  0  0  0  0  0
  188.9020  177.7780  143.2420 N   0  0  0  0  0  0  0  0  0  0  0  0
  187.8210  177.9510  144.1820 C   0  0  0  0  0  0  0  0  0  0  0  0
  188.9240  177.6950  139.6330 C   0  0  1  0  0  3  0  0  0  0  0  0
  187.4180  178.0890  141.4440 N   0  0  0  0  0  0  0  0  0  0  0  0
  185.4600  178.2210  144.6170 C   0  0  0  0  0  3  0  0  0  0  0  0
  189.7260  177.3270  147.4210 C   0  0  0  0  0  0  0  0  0  0  0  0
  188.7570  177.6650  148.3680 C   0  0  0  0  0  3  0  0  0  0  0  0
  188.1770  177.8780  145.6250 C   0  0  0  0  0  0  0  0  0  0  0  0
  187.4970  178.0980  147.9510 C   0  0  0  0  0  3  0  0  0  0  0  0
  189.4350  177.4250  146.0570 C   0  0  0  0  0  3  0  0  0  0  0  0
  187.2070  178.1980  146.5870 C   0  0  0  0  0  3  0  0  0  0  0  0
  190.9470  176.9000  147.8240 F   0  0  0  0  0  0  0  0  0  0  0  0
  189.0720  176.4580  138.8860 N   0  0  0  0  0  2  0  0  0  0  0  0
  189.8330  176.7690  137.6880 C   0  0  0  0  0  2  0  0  0  0  0  0
  190.1880  173.9440  136.8260 C   0  0  0  0  0  1  0  0  0  0  0  0
  191.1620  176.0900  137.7440 C   0  0  0  0  0  0  0  0  0  0  0  0
  191.3330  174.7590  137.3240 C   0  0  0  0  0  0  0  0  0  0  0  0
  193.6830  174.9290  137.8390 C   0  0  0  0  0  3  0  0  0  0  0  0
  193.5000  176.2180  138.2330 N   0  0  0  0  0  0  0  0  0  0  0  0
  192.2750  176.8070  138.1920 C   0  0  0  0  0  3  0  0  0  0  0  0
  192.6020  174.1780  137.3770 C   0  0  0  0  0  3  0  0  0  0  0  0
  1 12  1  0  0  0  0
  2 13  1  1  0  0  0
  2  8  1  0  0  0  0
  3 11  1  0  0  0  0
  4 14  2  0  0  0  0
  5 10  1  0  0  0  0
  6  2  1  0  0  0  0
  6  5  2  0  0  0  0
  7 17  1  0  0  0  0
  8  3  2  0  0  0  0
  8  1  1  0  0  0  0
  9  4  1  0  0  0  0
 10  1  2  0  0  0  0
 11 15  2  0  0  0  0
 11 18  1  0  0  0  0
 12 18  2  0  0  0  0
 14 15  1  0  0  0  0
 15 21  1  0  0  0  0
 16 26  1  1  0  0  0
 16  7  1  0  0  0  0
 16  9  1  0  0  0  0
 17  4  1  0  0  0  0
 17  3  1  0  0  0  0
 19 25  1  0  0  0  0
 19 20  1  0  0  0  0
 21 23  1  0  0  0  0
 21 24  2  0  0  0  0
 22 20  2  0  0  0  0
 23 19  2  0  0  0  0
 24 22  1  0  0  0  0
 27 29  1  0  0  0  0
 27 26  1  0  0  0  0
 28 30  1  0  0  0  0
 29 33  1  0  0  0  0
 30 34  1  0  0  0  0
 30 29  2  0  0  0  0
 31 32  1  0  0  0  0
 33 32  2  0  0  0  0
 34 31  2  0  0  0  0
M  END
>  <MODEL>
7

>  <REMARK>
 VINA RESULT:      -9.9      1.343      2.199
  Name = 
  4 active torsions:
  status: ('A' for Active; 'I' for Inactive)
    1  A    between atoms: C_3  and  C_13
    2  A    between atoms: C_3  and  N_17
    3  A    between atoms: C_12  and  C_28
    4  A    between atoms: N_17  and  C_29
                            x       y       z     vdW  Elec       q    Type
                         _______ _______ _______ _____ _____    ______ ____

>  <TORSDO>
F 4

$$$$
=
 OpenBabel10262423523D

 34 39  0  0  1  0  0  0  0  0999 V2000
  188.1620  178.4020  139.5650 C   0  0  0  0  0  0  0  0  0  0  0  0
  186.2620  178.2720  137.8920 C   0  0  2  0  0  3  0  0  0  0  0  0
  185.8680  178.4510  140.4140 C   0  0  0  0  0  0  0  0  0  0  0  0
  183.5990  178.5730  141.3700 C   0  0  0  0  0  0  0  0  0  0  0  0
  188.6160  178.5440  137.1630 C   0  0  0  0  0  3  0  0  0  0  0  0
  187.3220  178.4950  136.8490 C   0  0  0  0  0  3  0  0  0  0  0  0
  183.6640  178.8140  139.0550 C   0  0  0  0  0  2  0  0  0  0  0  0
  186.7680  178.4130  139.3160 C   0  0  0  0  0  0  0  0  0  0  0  0
  182.1800  178.7880  141.0430 C   0  0  0  0  0  2  0  0  0  0  0  0
  189.0460  178.4470  138.5640 C   0  0  0  0  0  3  0  0  0  0  0  0
  186.3690  178.4000  141.7460 C   0  0  0  0  0  0  0  0  0  0  0  0
  188.6410  178.3760  140.8710 C   0  0  0  0  0  3  0  0  0  0  0  0
  185.7310  177.0060  137.7200 F   0  0  0  0  0  0  0  0  0  0  0  0
  184.0810  178.5320  142.5700 N   0  0  0  0  0  0  0  0  0  0  0  0
  185.5000  178.4090  142.8030 C   0  0  0  0  0  0  0  0  0  0  0  0
  182.1950  178.8880  139.5130 C   0  0  1  0  0  3  0  0  0  0  0  0
  184.4390  178.5260  140.2460 N   0  0  0  0  0  0  0  0  0  0  0  0
  187.7570  178.3690  141.9440 C   0  0  0  0  0  3  0  0  0  0  0  0
  187.4680  177.5600  145.9520 C   0  0  0  0  0  0  0  0  0  0  0  0
  186.6540  178.1300  146.9350 C   0  0  0  0  0  3  0  0  0  0  0  0
  185.9360  178.3310  144.2230 C   0  0  0  0  0  0  0  0  0  0  0  0
  185.4790  178.7890  146.5690 C   0  0  0  0  0  3  0  0  0  0  0  0
  187.1070  177.6540  144.6050 C   0  0  0  0  0  3  0  0  0  0  0  0
  185.1190  178.8830  145.2220 C   0  0  0  0  0  3  0  0  0  0  0  0
  188.6050  176.9140  146.3050 F   0  0  0  0  0  0  0  0  0  0  0  0
  181.6140  180.1550  139.1020 N   0  0  0  0  0  2  0  0  0  0  0  0
  181.2030  180.0090  137.7160 C   0  0  0  0  0  2  0  0  0  0  0  0
  180.5590  180.3330  134.8290 C   0  0  0  0  0  1  0  0  0  0  0  0
  181.0490  181.3560  137.0910 C   0  0  0  0  0  0  0  0  0  0  0  0
  180.7310  181.5100  135.7290 C   0  0  0  0  0  0  0  0  0  0  0  0
  180.7330  183.9030  136.0300 C   0  0  0  0  0  3  0  0  0  0  0  0
  181.0330  183.7340  137.3460 N   0  0  0  0  0  0  0  0  0  0  0  0
  181.1890  182.4960  137.8870 C   0  0  0  0  0  3  0  0  0  0  0  0
  180.5760  182.7930  135.2000 C   0  0  0  0  0  3  0  0  0  0  0  0
  1 12  1  0  0  0  0
  2 13  1  1  0  0  0
  2  8  1  0  0  0  0
  3 11  1  0  0  0  0
  4 14  2  0  0  0  0
  5 10  1  0  0  0  0
  6  5  2  0  0  0  0
  6  2  1  0  0  0  0
  7 16  1  0  0  0  0
  7 17  1  0  0  0  0
  8  1  1  0  0  0  0
  8  3  2  0  0  0  0
  9  4  1  0  0  0  0
 10  1  2  0  0  0  0
 11 18  1  0  0  0  0
 11 15  2  0  0  0  0
 12 18  2  0  0  0  0
 14 15  1  0  0  0  0
 15 21  1  0  0  0  0
 16 26  1  1  0  0  0
 16  9  1  0  0  0  0
 17  3  1  0  0  0  0
 17  4  1  0  0  0  0
 19 25  1  0  0  0  0
 19 20  1  0  0  0  0
 21 23  1  0  0  0  0
 21 24  2  0  0  0  0
 22 20  2  0  0  0  0
 23 19  2  0  0  0  0
 24 22  1  0  0  0  0
 27 26  1  0  0  0  0
 28 30  1  0  0  0  0
 29 27  1  0  0  0  0
 29 33  1  0  0  0  0
 30 29  2  0  0  0  0
 31 32  1  0  0  0  0
 32 33  2  0  0  0  0
 34 30  1  0  0  0  0
 34 31  2  0  0  0  0
M  END
>  <MODEL>
8

>  <REMARK>
 VINA RESULT:      -9.9      4.629      8.276
  Name = 
  4 active torsions:
  status: ('A' for Active; 'I' for Inactive)
    1  A    between atoms: C_3  and  C_13
    2  A    between atoms: C_3  and  N_17
    3  A    between atoms: C_12  and  C_28
    4  A    between atoms: N_17  and  C_29
                            x       y       z     vdW  Elec       q    Type
                         _______ _______ _______ _____ _____    ______ ____

>  <TORSDO>
F 4

$$$$
=
 OpenBabel10262423523D

 34 39  0  0  1  0  0  0  0  0999 V2000
  183.5230  178.6510  142.0340 C   0  0  0  0  0  0  0  0  0  0  0  0
  183.7070  179.0900  139.5450 C   0  0  2  0  0  3  0  0  0  0  0  0
  185.7240  178.4510  140.9840 C   0  0  0  0  0  0  0  0  0  0  0  0
  187.9720  178.1600  140.0160 C   0  0  0  0  0  0  0  0  0  0  0  0
  181.5070  178.9530  140.6780 C   0  0  0  0  0  3  0  0  0  0  0  0
  182.2030  179.0600  139.5480 C   0  0  0  0  0  3  0  0  0  0  0  0
  186.2770  178.3490  138.4310 C   0  0  0  0  0  2  0  0  0  0  0  0
  184.3280  178.6880  140.8700 C   0  0  0  0  0  0  0  0  0  0  0  0
  188.7140  178.0110  138.7540 C   0  0  0  0  0  2  0  0  0  0  0  0
  182.1960  178.7880  141.9650 C   0  0  0  0  0  3  0  0  0  0  0  0
  186.3090  178.2550  142.2680 C   0  0  0  0  0  0  0  0  0  0  0  0
  184.1020  178.4350  143.2810 C   0  0  0  0  0  3  0  0  0  0  0  0
  184.1240  180.3670  139.2140 F   0  0  0  0  0  0  0  0  0  0  0  0
  188.4770  177.9790  141.1940 N   0  0  0  0  0  0  0  0  0  0  0  0
  187.6580  178.0540  142.3790 C   0  0  0  0  0  0  0  0  0  0  0  0
  187.6210  178.1950  137.6940 C   0  0  1  0  0  3  0  0  0  0  0  0
  186.6020  178.4110  139.8430 N   0  0  0  0  0  0  0  0  0  0  0  0
  185.4750  178.2470  143.3950 C   0  0  0  0  0  3  0  0  0  0  0  0
  188.3290  177.4780  146.0850 C   0  0  0  0  0  0  0  0  0  0  0  0
  189.7170  177.6290  146.1290 C   0  0  0  0  0  3  0  0  0  0  0  0
  188.3540  177.8680  143.6810 C   0  0  0  0  0  0  0  0  0  0  0  0
  190.4250  177.9090  144.9580 C   0  0  0  0  0  3  0  0  0  0  0  0
  187.6500  177.6050  144.8690 C   0  0  0  0  0  3  0  0  0  0  0  0
  189.7460  178.0340  143.7430 C   0  0  0  0  0  3  0  0  0  0  0  0
  187.6390  177.2140  147.2200 F   0  0  0  0  0  0  0  0  0  0  0  0
  187.5790  177.0270  136.8310 N   0  0  0  0  0  2  0  0  0  0  0  0
  186.1820  176.7730  136.5200 C   0  0  0  0  0  2  0  0  0  0  0  0
  183.4050  176.0890  137.3410 C   0  0  0  0  0  1  0  0  0  0  0  0
  185.8090  175.3970  136.9620 C   0  0  0  0  0  0  0  0  0  0  0  0
  184.4940  175.0690  137.3370 C   0  0  0  0  0  0  0  0  0  0  0  0
  185.2010  172.7950  137.7200 C   0  0  0  0  0  3  0  0  0  0  0  0
  186.4650  173.1290  137.3470 N   0  0  0  0  0  0  0  0  0  0  0  0
  186.7850  174.3960  136.9690 C   0  0  0  0  0  3  0  0  0  0  0  0
  184.1930  173.7610  137.7210 C   0  0  0  0  0  3  0  0  0  0  0  0
  1 12  1  0  0  0  0
  2 13  1  1  0  0  0
  2  6  1  0  0  0  0
  2  8  1  0  0  0  0
  3 11  1  0  0  0  0
  4 14  2  0  0  0  0
  5 10  1  0  0  0  0
  6  5  2  0  0  0  0
  7 17  1  0  0  0  0
  8  3  2  0  0  0  0
  8  1  1  0  0  0  0
  9  4  1  0  0  0  0
 10  1  2  0  0  0  0
 11 15  2  0  0  0  0
 11 18  1  0  0  0  0
 12 18  2  0  0  0  0
 14 15  1  0  0  0  0
 15 21  1  0  0  0  0
 16 26  1  6  0  0  0
 16  7  1  0  0  0  0
 16  9  1  0  0  0  0
 17  4  1  0  0  0  0
 17  3  1  0  0  0  0
 19 20  1  0  0  0  0
 19 25  1  0  0  0  0
 21 24  2  0  0  0  0
 21 23  1  0  0  0  0
 22 20  2  0  0  0  0
 23 19  2  0  0  0  0
 24 22  1  0  0  0  0
 27 26  1  0  0  0  0
 27 29  1  0  0  0  0
 29 33  2  0  0  0  0
 29 30  1  0  0  0  0
 30 28  1  0  0  0  0
 30 34  2  0  0  0  0
 31 34  1  0  0  0  0
 32 31  2  0  0  0  0
 33 32  1  0  0  0  0
M  END
>  <MODEL>
9

>  <REMARK>
 VINA RESULT:      -9.8      3.002      4.498
  Name = 
  4 active torsions:
  status: ('A' for Active; 'I' for Inactive)
    1  A    between atoms: C_3  and  C_13
    2  A    between atoms: C_3  and  N_17
    3  A    between atoms: C_12  and  C_28
    4  A    between atoms: N_17  and  C_29
                            x       y       z     vdW  Elec       q    Type
                         _______ _______ _______ _____ _____    ______ ____

>  <TORSDO>
F 4

$$$$
