=
 OpenBabel10272401213D

 55 61  0  0  1  0  0  0  0  0999 V2000
  180.5000  177.8160  142.2240 O   0  0  0  0  0  0  0  0  0  0  0  0
  185.7960  178.4200  138.5710 C   0  0  0  0  0  2  0  0  0  0  0  0
  185.0160  175.1560  136.6240 C   0  0  0  0  0  2  0  0  0  0  0  0
  182.6660  174.4030  135.1210 C   0  0  0  0  0  3  0  0  0  0  0  0
  181.5230  174.1930  134.3490 C   0  0  0  0  0  3  0  0  0  0  0  0
  181.3060  174.5080  137.1280 C   0  0  0  0  0  0  0  0  0  0  0  0
  180.1670  174.2740  136.3460 C   0  0  0  0  0  3  0  0  0  0  0  0
  183.9420  173.9710  138.5410 C   0  0  0  0  0  1  0  0  0  0  0  0
  180.2750  174.1190  134.9620 C   0  0  0  0  0  3  0  0  0  0  0  0
  181.8720  178.7940  143.9590 C   0  0  0  0  0  3  0  0  0  0  0  0
  182.5840  174.5450  136.5170 C   0  0  0  0  0  0  0  0  0  0  0  0
  183.8640  179.3860  142.0850 C   0  0  0  0  0  0  0  0  0  0  0  0
  180.1920  177.5220  140.8640 C   0  0  0  0  0  2  0  0  0  0  0  0
  182.6850  178.7590  141.6860 C   0  0  0  0  0  3  0  0  0  0  0  0
  180.6400  176.1110  140.4780 C   0  0  2  0  0  3  0  0  0  0  0  0
  185.5080  177.1630  140.8050 C   0  0  0  0  0  2  0  0  0  0  0  0
  181.1310  174.7300  138.4980 O   0  0  0  0  0  0  0  0  0  0  0  0
  184.9910  177.3560  137.8230 C   0  0  0  0  0  2  0  0  0  0  0  0
  185.8180  176.1290  137.4870 C   0  0  0  0  0  2  0  0  0  0  0  0
  183.0510  179.4320  144.3660 C   0  0  0  0  0  3  0  0  0  0  0  0
  186.4390  177.9000  139.8660 C   0  0  2  0  0  0  0  0  0  0  0  0
  181.6840  178.4520  142.6160 C   0  0  0  0  0  0  0  0  0  0  0  0
  183.7950  174.6940  137.2860 N   0  0  0  0  0  0  0  0  0  0  0  0
  182.1510  176.0320  140.3140 C   0  0  0  0  0  2  0  0  0  0  0  0
  186.0390  178.5440  141.1980 C   0  0  1  0  0  3  0  0  0  0  0  0
  181.2720  176.0220  139.0850 C   0  0  2  0  0  0  0  0  0  0  0  0
  184.9430  179.6060  141.0730 C   0  0  0  0  0  2  0  0  0  0  0  0
  184.0500  179.7230  143.4290 C   0  0  0  0  0  3  0  0  0  0  0  0
  181.5490  180.9180  138.1790 C   0  0  0  0  0  0  0  0  0  0  0  0
  181.2870  177.2450  138.1380 C   0  0  1  0  0  3  0  0  0  0  0  0
  182.8670  181.3590  138.7130 C   0  0  0  0  0  1  0  0  0  0  0  0
  181.1790  179.5330  138.1910 N   0  0  0  0  0  0  0  0  0  0  0  0
  179.9840  177.6050  137.7280 O   0  0  0  0  0  0  0  0  0  0  0  0
  179.9820  179.0100  137.5760 C   0  0  0  0  0  2  0  0  0  0  0  0
  180.7650  181.7760  137.6960 O   0  0  0  0  0  0  0  0  0  0  0  0
  182.0150  178.4640  138.6490 C   0  0  0  0  0  2  0  0  0  0  0  0
  187.8930  177.4130  139.7700 C   0  0  0  0  0  2  0  0  0  0  0  0
  188.8970  176.9290  144.5290 O   0  0  0  0  0  0  0  0  0  0  0  0
  189.9260  179.2860  142.4330 C   0  0  0  0  0  2  0  0  0  0  0  0
  188.8930  178.2590  140.5020 C   0  0  0  0  0  3  0  0  0  0  0  0
  187.8760  177.7410  143.9980 C   0  0  1  0  0  3  0  0  0  0  0  0
  188.8760  178.3980  141.8200 C   0  0  0  0  0  0  0  0  0  0  0  0
  191.6140  179.5530  144.2760 C   0  0  0  0  0  1  0  0  0  0  0  0
  187.9150  177.7250  142.5750 O   0  0  0  0  0  0  0  0  0  0  0  0
  190.1990  177.4460  144.2680 C   0  0  2  0  0  3  0  0  0  0  0  0
  190.2830  178.9460  143.8930 C   0  0  2  0  0  3  0  0  0  0  0  0
  191.9540  177.1150  142.6180 O   0  0  0  0  0  1  0  0  0  0  0  0
  191.0640  176.4460  143.4570 C   0  0  0  0  0  0  0  0  0  0  0  0
  190.2440  175.6310  142.6700 O   0  0  0  0  0  1  0  0  0  0  0  0
  191.8880  175.5740  144.4060 C   0  0  0  0  0  2  0  0  0  0  0  0
  192.5790  175.1170  146.7020 N   0  0  0  0  0  1  0  0  0  0  0  0
  191.7580  175.9730  145.8710 C   0  0  0  0  0  2  0  0  0  0  0  0
  186.5260  177.2190  144.4690 C   0  0  0  0  0  2  0  0  0  0  0  0
  186.3740  178.6840  146.4420 C   0  0  0  0  0  2  0  0  0  0  0  0
  186.3370  177.4580  145.9310 C   0  0  0  0  0  3  0  0  0  0  0  0
  1 22  1  0  0  0  0
  2 21  1  0  0  0  0
  3 23  1  0  0  0  0
  3 19  1  0  0  0  0
  4 11  1  0  0  0  0
  5  9  1  0  0  0  0
  5  4  2  0  0  0  0
  6 17  1  0  0  0  0
  7  6  1  0  0  0  0
  9  7  2  0  0  0  0
 10 20  1  0  0  0  0
 11  6  2  0  0  0  0
 11 23  1  0  0  0  0
 12 28  1  0  0  0  0
 13  1  1  0  0  0  0
 14 12  2  0  0  0  0
 14 22  1  0  0  0  0
 15 24  1  1  0  0  0
 15 13  1  0  0  0  0
 17 26  1  0  0  0  0
 18  2  1  0  0  0  0
 19 18  1  0  0  0  0
 21 37  1  6  0  0  0
 21 16  1  0  0  0  0
 21 25  1  0  0  0  0
 22 10  2  0  0  0  0
 23  8  1  0  0  0  0
 25 16  1  1  0  0  0
 26 24  1  1  0  0  0
 26 15  1  0  0  0  0
 27 25  1  0  0  0  0
 27 12  1  0  0  0  0
 28 20  2  0  0  0  0
 29 32  1  0  0  0  0
 29 31  1  0  0  0  0
 30 36  1  1  0  0  0
 30 26  1  0  0  0  0
 32 36  1  0  0  0  0
 33 30  1  0  0  0  0
 34 33  1  0  0  0  0
 34 32  1  0  0  0  0
 35 29  2  0  0  0  0
 37 40  1  0  0  0  0
 39 46  1  0  0  0  0
 40 42  2  0  0  0  0
 41 53  1  6  0  0  0
 41 38  1  0  0  0  0
 42 39  1  0  0  0  0
 42 44  1  0  0  0  0
 44 41  1  0  0  0  0
 45 48  1  6  0  0  0
 45 38  1  0  0  0  0
 46 45  1  0  0  0  0
 46 43  1  6  0  0  0
 47 48  1  0  0  0  0
 48 50  1  0  0  0  0
 49 48  1  0  0  0  0
 50 52  1  0  0  0  0
 52 51  1  0  0  0  0
 53 55  1  0  0  0  0
 55 54  2  0  0  0  0
M  END
>  <MODEL>
1

>  <REMARK>
 VINA RESULT:      -3.5      0.000      0.000
  Name = 
  8 active torsions:
  status: ('A' for Active; 'I' for Inactive)
    1  A    between atoms: C_6  and  C_25
    2  A    between atoms: C_6  and  C_46
    3  A    between atoms: C_8  and  C_22
    4  A    between atoms: C_12  and  C_30
    5  A    between atoms: C_13  and  C_52
    6  A    between atoms: C_22  and  C_43
    7  A    between atoms: C_25  and  C_38
    8  A    between atoms: C_30  and  C_50
                            x       y       z     vdW  Elec       q    Type
                         _______ _______ _______ _____ _____    ______ ____

>  <TORSDO>
F 8

$$$$
=
 OpenBabel10272401213D

 55 61  0  0  1  0  0  0  0  0999 V2000
  184.2120  177.7110  142.3320 O   0  0  0  0  0  0  0  0  0  0  0  0
  187.4490  178.7150  136.8300 C   0  0  0  0  0  2  0  0  0  0  0  0
  185.0690  176.4010  134.8230 C   0  0  0  0  0  2  0  0  0  0  0  0
  182.1990  176.5120  134.5030 C   0  0  0  0  0  3  0  0  0  0  0  0
  180.8300  176.7260  134.3460 C   0  0  0  0  0  3  0  0  0  0  0  0
  181.8840  176.1520  136.8820 C   0  0  0  0  0  0  0  0  0  0  0  0
  180.5070  176.3460  136.7100 C   0  0  0  0  0  3  0  0  0  0  0  0
  184.6110  174.8220  136.7030 C   0  0  0  0  0  1  0  0  0  0  0  0
  179.9820  176.6320  135.4480 C   0  0  0  0  0  3  0  0  0  0  0  0
  186.3920  177.8740  143.3680 C   0  0  0  0  0  3  0  0  0  0  0  0
  182.7480  176.2050  135.7600 C   0  0  0  0  0  0  0  0  0  0  0  0
  187.5010  178.7540  140.9550 C   0  0  0  0  0  0  0  0  0  0  0  0
  183.2990  177.9200  141.2580 C   0  0  0  0  0  2  0  0  0  0  0  0
  186.1420  178.4620  141.0400 C   0  0  0  0  0  3  0  0  0  0  0  0
  183.1400  176.6610  140.4030 C   0  0  2  0  0  3  0  0  0  0  0  0
  187.7850  176.8570  138.5870 C   0  0  0  0  0  2  0  0  0  0  0  0
  182.3640  175.9400  138.1790 O   0  0  0  0  0  0  0  0  0  0  0  0
  186.1480  178.0750  136.3430 C   0  0  0  0  0  2  0  0  0  0  0  0
  186.3890  176.9190  135.3900 C   0  0  0  0  0  2  0  0  0  0  0  0
  187.7590  178.1730  143.2920 C   0  0  0  0  0  3  0  0  0  0  0  0
  188.4040  177.7200  137.5080 C   0  0  2  0  0  0  0  0  0  0  0  0
  185.5760  178.0150  142.2410 C   0  0  0  0  0  0  0  0  0  0  0  0
  184.1590  175.9250  135.8670 N   0  0  0  0  0  0  0  0  0  0  0  0
  184.3600  176.4280  139.5230 C   0  0  0  0  0  2  0  0  0  0  0  0
  188.7870  177.9480  138.9740 C   0  0  1  0  0  3  0  0  0  0  0  0
  183.0840  176.9400  138.8970 C   0  0  2  0  0  0  0  0  0  0  0  0
  188.0760  179.1360  139.6280 C   0  0  0  0  0  2  0  0  0  0  0  0
  188.3150  178.6090  142.0830 C   0  0  0  0  0  3  0  0  0  0  0  0
  180.7350  181.2280  137.9160 C   0  0  0  0  0  0  0  0  0  0  0  0
  183.0380  178.3890  138.3570 C   0  0  1  0  0  3  0  0  0  0  0  0
  180.2520  181.7400  139.2280 C   0  0  0  0  0  1  0  0  0  0  0  0
  181.5410  180.0460  137.8420 N   0  0  0  0  0  0  0  0  0  0  0  0
  182.9250  178.4190  136.9490 O   0  0  0  0  0  0  0  0  0  0  0  0
  182.1570  179.5600  136.6290 C   0  0  0  0  0  2  0  0  0  0  0  0
  180.4430  181.8590  136.8670 O   0  0  0  0  0  0  0  0  0  0  0  0
  181.9930  179.2870  138.9700 C   0  0  0  0  0  2  0  0  0  0  0  0
  189.4910  177.0920  136.6230 C   0  0  0  0  0  2  0  0  0  0  0  0
  192.4110  173.6660  134.7180 O   0  0  0  0  0  0  0  0  0  0  0  0
  192.2600  174.7370  137.8540 C   0  0  0  0  0  2  0  0  0  0  0  0
  190.6210  176.4480  137.3710 C   0  0  0  0  0  3  0  0  0  0  0  0
  191.1920  173.4130  135.3760 C   0  0  1  0  0  3  0  0  0  0  0  0
  191.1370  175.2820  137.0130 C   0  0  0  0  0  0  0  0  0  0  0  0
  194.5260  173.6490  137.8580 C   0  0  0  0  0  1  0  0  0  0  0  0
  190.6400  174.6210  135.8890 O   0  0  0  0  0  0  0  0  0  0  0  0
  193.4350  174.0970  135.6110 C   0  0  2  0  0  3  0  0  0  0  0  0
  193.2180  173.7860  137.1120 C   0  0  2  0  0  3  0  0  0  0  0  0
  194.1330  176.3010  136.3610 O   0  0  0  0  0  1  0  0  0  0  0  0
  193.9760  175.5000  135.2310 C   0  0  0  0  0  0  0  0  0  0  0  0
  193.0870  176.1380  134.3590 O   0  0  0  0  0  1  0  0  0  0  0  0
  195.3440  175.3730  134.5600 C   0  0  0  0  0  2  0  0  0  0  0  0
  196.8880  177.1480  135.2130 N   0  0  0  0  0  1  0  0  0  0  0  0
  196.5070  175.7730  135.4610 C   0  0  0  0  0  2  0  0  0  0  0  0
  190.2110  172.7920  134.3920 C   0  0  0  0  0  2  0  0  0  0  0  0
  187.9610  172.0660  135.0780 C   0  0  0  0  0  2  0  0  0  0  0  0
  188.7980  173.0580  134.7980 C   0  0  0  0  0  3  0  0  0  0  0  0
  2 21  1  0  0  0  0
  3 19  1  0  0  0  0
  3 23  1  0  0  0  0
  4 11  1  0  0  0  0
  5  4  2  0  0  0  0
  5  9  1  0  0  0  0
  6 17  1  0  0  0  0
  7  6  1  0  0  0  0
  9  7  2  0  0  0  0
 11 23  1  0  0  0  0
 11  6  2  0  0  0  0
 12 14  2  0  0  0  0
 12 28  1  0  0  0  0
 13  1  1  0  0  0  0
 14 22  1  0  0  0  0
 15 24  1  6  0  0  0
 15 13  1  0  0  0  0
 17 26  1  0  0  0  0
 18  2  1  0  0  0  0
 19 18  1  0  0  0  0
 20 10  1  0  0  0  0
 21 37  1  6  0  0  0
 21 16  1  0  0  0  0
 21 25  1  0  0  0  0
 22  1  1  0  0  0  0
 22 10  2  0  0  0  0
 23  8  1  0  0  0  0
 25 16  1  1  0  0  0
 25 27  1  0  0  0  0
 26 24  1  6  0  0  0
 26 15  1  0  0  0  0
 27 12  1  0  0  0  0
 28 20  2  0  0  0  0
 29 31  1  0  0  0  0
 30 26  1  0  0  0  0
 30 36  1  1  0  0  0
 32 29  1  0  0  0  0
 32 36  1  0  0  0  0
 33 30  1  0  0  0  0
 34 33  1  0  0  0  0
 34 32  1  0  0  0  0
 35 29  2  0  0  0  0
 37 40  1  0  0  0  0
 38 41  1  0  0  0  0
 38 45  1  0  0  0  0
 41 53  1  6  0  0  0
 41 44  1  0  0  0  0
 42 40  2  0  0  0  0
 42 39  1  0  0  0  0
 44 42  1  0  0  0  0
 45 48  1  1  0  0  0
 45 46  1  0  0  0  0
 46 39  1  0  0  0  0
 46 43  1  1  0  0  0
 48 47  1  0  0  0  0
 49 48  1  0  0  0  0
 50 48  1  0  0  0  0
 50 52  1  0  0  0  0
 51 52  1  0  0  0  0
 53 55  1  0  0  0  0
 55 54  2  0  0  0  0
M  END
>  <MODEL>
2

>  <REMARK>
 VINA RESULT:      -2.4      4.477      6.032
  Name = 
  8 active torsions:
  status: ('A' for Active; 'I' for Inactive)
    1  A    between atoms: C_6  and  C_25
    2  A    between atoms: C_6  and  C_46
    3  A    between atoms: C_8  and  C_22
    4  A    between atoms: C_12  and  C_30
    5  A    between atoms: C_13  and  C_52
    6  A    between atoms: C_22  and  C_43
    7  A    between atoms: C_25  and  C_38
    8  A    between atoms: C_30  and  C_50
                            x       y       z     vdW  Elec       q    Type
                         _______ _______ _______ _____ _____    ______ ____

>  <TORSDO>
F 8

$$$$
=
 OpenBabel10272401213D

 55 61  0  0  1  0  0  0  0  0999 V2000
  180.4540  178.0550  142.2500 O   0  0  0  0  0  0  0  0  0  0  0  0
  185.8400  178.7290  138.7450 C   0  0  0  0  0  2  0  0  0  0  0  0
  185.1180  175.4960  136.7250 C   0  0  0  0  0  2  0  0  0  0  0  0
  182.8090  174.7630  135.1510 C   0  0  0  0  0  3  0  0  0  0  0  0
  181.6870  174.5640  134.3460 C   0  0  0  0  0  3  0  0  0  0  0  0
  181.3980  174.8330  137.1230 C   0  0  0  0  0  0  0  0  0  0  0  0
  180.2790  174.6100  136.3090 C   0  0  0  0  0  3  0  0  0  0  0  0
  183.9980  174.2780  138.5950 C   0  0  0  0  0  1  0  0  0  0  0  0
  180.4230  174.4770  134.9260 C   0  0  0  0  0  3  0  0  0  0  0  0
  181.7780  179.0080  144.0360 C   0  0  0  0  0  3  0  0  0  0  0  0
  182.6910  174.8820  136.5470 C   0  0  0  0  0  0  0  0  0  0  0  0
  183.8170  179.6340  142.2230 C   0  0  0  0  0  0  0  0  0  0  0  0
  180.1820  177.7830  140.8780 C   0  0  0  0  0  2  0  0  0  0  0  0
  182.6500  179.0120  141.7840 C   0  0  0  0  0  3  0  0  0  0  0  0
  180.6420  176.3790  140.4810 C   0  0  2  0  0  3  0  0  0  0  0  0
  185.4980  177.4350  140.9500 C   0  0  0  0  0  2  0  0  0  0  0  0
  181.1870  175.0320  138.4920 O   0  0  0  0  0  0  0  0  0  0  0  0
  185.0570  177.6760  137.9590 C   0  0  0  0  0  2  0  0  0  0  0  0
  185.8950  176.4560  137.6240 C   0  0  0  0  0  2  0  0  0  0  0  0
  182.9460  179.6420  144.4830 C   0  0  0  0  0  3  0  0  0  0  0  0
  186.4520  178.1900  140.0470 C   0  0  2  0  0  0  0  0  0  0  0  0
  181.6250  178.6880  142.6830 C   0  0  0  0  0  0  0  0  0  0  0  0
  183.8820  175.0210  137.3480 N   0  0  0  0  0  0  0  0  0  0  0  0
  182.1580  176.3060  140.3550 C   0  0  0  0  0  2  0  0  0  0  0  0
  186.0150  178.8110  141.3790 C   0  0  1  0  0  3  0  0  0  0  0  0
  181.3100  176.3140  139.1040 C   0  0  2  0  0  0  0  0  0  0  0  0
  184.9210  179.8730  141.2430 C   0  0  0  0  0  2  0  0  0  0  0  0
  183.9680  179.9500  143.5770 C   0  0  0  0  0  3  0  0  0  0  0  0
  181.2880  181.2330  138.2830 C   0  0  0  0  0  0  0  0  0  0  0  0
  181.3470  177.5530  138.1770 C   0  0  1  0  0  3  0  0  0  0  0  0
  182.4800  181.7720  138.9920 C   0  0  0  0  0  1  0  0  0  0  0  0
  181.0380  179.8230  138.2340 N   0  0  0  0  0  0  0  0  0  0  0  0
  180.0840  177.8110  137.5990 O   0  0  0  0  0  0  0  0  0  0  0  0
  179.9820  179.2140  137.4600 C   0  0  0  0  0  2  0  0  0  0  0  0
  180.5040  182.0320  137.7070 O   0  0  0  0  0  0  0  0  0  0  0  0
  181.8940  178.8180  138.7910 C   0  0  0  0  0  2  0  0  0  0  0  0
  187.9080  177.7070  139.9800 C   0  0  0  0  0  2  0  0  0  0  0  0
  192.4130  177.8560  141.8710 O   0  0  0  0  0  0  0  0  0  0  0  0
  189.9430  175.7610  142.5890 C   0  0  0  0  0  2  0  0  0  0  0  0
  188.3520  176.8740  141.1460 C   0  0  0  0  0  3  0  0  0  0  0  0
  192.0110  177.0230  140.8090 C   0  0  1  0  0  3  0  0  0  0  0  0
  189.6290  176.6230  141.3950 C   0  0  0  0  0  0  0  0  0  0  0  0
  191.3970  175.4560  144.6170 C   0  0  0  0  0  1  0  0  0  0  0  0
  190.6150  177.1620  140.5670 O   0  0  0  0  0  0  0  0  0  0  0  0
  191.8600  177.4540  143.1220 C   0  0  2  0  0  3  0  0  0  0  0  0
  191.3340  176.0000  143.2070 C   0  0  2  0  0  3  0  0  0  0  0  0
  190.0670  179.0720  142.8470 O   0  0  0  0  0  1  0  0  0  0  0  0
  191.0000  178.5770  143.7580 C   0  0  0  0  0  0  0  0  0  0  0  0
  191.8180  179.6330  144.1710 O   0  0  0  0  0  1  0  0  0  0  0  0
  190.2270  178.0300  144.9590 C   0  0  0  0  0  2  0  0  0  0  0  0
  188.0700  177.8270  146.0830 N   0  0  0  0  0  1  0  0  0  0  0  0
  188.7160  178.1920  144.8400 C   0  0  0  0  0  2  0  0  0  0  0  0
  192.7780  177.4090  139.5520 C   0  0  0  0  0  2  0  0  0  0  0  0
  192.5760  175.9470  137.5810 C   0  0  0  0  0  2  0  0  0  0  0  0
  192.0760  176.9290  138.3240 C   0  0  0  0  0  3  0  0  0  0  0  0
  1 22  1  0  0  0  0
  2 21  1  0  0  0  0
  3 23  1  0  0  0  0
  3 19  1  0  0  0  0
  4 11  1  0  0  0  0
  5  9  1  0  0  0  0
  5  4  2  0  0  0  0
  6 17  1  0  0  0  0
  7  6  1  0  0  0  0
  9  7  2  0  0  0  0
 10 20  1  0  0  0  0
 11  6  2  0  0  0  0
 11 23  1  0  0  0  0
 12 28  1  0  0  0  0
 13  1  1  0  0  0  0
 14 12  2  0  0  0  0
 14 22  1  0  0  0  0
 15 24  1  1  0  0  0
 15 13  1  0  0  0  0
 17 26  1  0  0  0  0
 18  2  1  0  0  0  0
 19 18  1  0  0  0  0
 21 37  1  6  0  0  0
 21 16  1  0  0  0  0
 21 25  1  0  0  0  0
 22 10  2  0  0  0  0
 23  8  1  0  0  0  0
 25 16  1  1  0  0  0
 26 24  1  1  0  0  0
 26 15  1  0  0  0  0
 27 25  1  0  0  0  0
 27 12  1  0  0  0  0
 28 20  2  0  0  0  0
 29 31  1  0  0  0  0
 30 36  1  1  0  0  0
 30 26  1  0  0  0  0
 32 29  1  0  0  0  0
 32 36  1  0  0  0  0
 33 30  1  0  0  0  0
 34 33  1  0  0  0  0
 34 32  1  0  0  0  0
 35 29  2  0  0  0  0
 37 40  1  0  0  0  0
 38 45  1  0  0  0  0
 39 46  1  0  0  0  0
 40 42  2  0  0  0  0
 41 53  1  6  0  0  0
 41 38  1  0  0  0  0
 42 39  1  0  0  0  0
 44 41  1  0  0  0  0
 44 42  1  0  0  0  0
 45 46  1  0  0  0  0
 45 48  1  6  0  0  0
 46 43  1  1  0  0  0
 47 48  1  0  0  0  0
 48 49  1  0  0  0  0
 48 50  1  0  0  0  0
 52 50  1  0  0  0  0
 52 51  1  0  0  0  0
 54 55  2  0  0  0  0
 55 53  1  0  0  0  0
M  END
>  <MODEL>
3

>  <REMARK>
 VINA RESULT:      -2.3      1.585      2.949
  Name = 
  8 active torsions:
  status: ('A' for Active; 'I' for Inactive)
    1  A    between atoms: C_6  and  C_25
    2  A    between atoms: C_6  and  C_46
    3  A    between atoms: C_8  and  C_22
    4  A    between atoms: C_12  and  C_30
    5  A    between atoms: C_13  and  C_52
    6  A    between atoms: C_22  and  C_43
    7  A    between atoms: C_25  and  C_38
    8  A    between atoms: C_30  and  C_50
                            x       y       z     vdW  Elec       q    Type
                         _______ _______ _______ _____ _____    ______ ____

>  <TORSDO>
F 8

$$$$
=
 OpenBabel10272401213D

 55 61  0  0  1  0  0  0  0  0999 V2000
  190.7480  175.2550  134.5670 O   0  0  0  0  0  0  0  0  0  0  0  0
  188.1740  176.9890  140.2340 C   0  0  0  0  0  2  0  0  0  0  0  0
  184.9640  178.3570  138.5360 C   0  0  0  0  0  2  0  0  0  0  0  0
  183.0860  177.0430  136.7770 C   0  0  0  0  0  3  0  0  0  0  0  0
  182.2020  176.2770  136.0170 C   0  0  0  0  0  3  0  0  0  0  0  0
  184.8210  176.7140  135.1120 C   0  0  0  0  0  0  0  0  0  0  0  0
  183.9180  175.9650  134.3460 C   0  0  0  0  0  3  0  0  0  0  0  0
  186.0950  179.1290  136.4480 C   0  0  0  0  0  1  0  0  0  0  0  0
  182.6150  175.7460  134.7970 C   0  0  0  0  0  3  0  0  0  0  0  0
  192.8470  175.8720  135.5990 C   0  0  0  0  0  3  0  0  0  0  0  0
  184.3970  177.2910  136.3350 C   0  0  0  0  0  0  0  0  0  0  0  0
  191.5820  176.1120  138.0840 C   0  0  0  0  0  0  0  0  0  0  0  0
  189.3710  174.8910  134.6100 C   0  0  0  0  0  2  0  0  0  0  0  0
  190.8540  175.7390  136.9560 C   0  0  0  0  0  3  0  0  0  0  0  0
  188.4630  176.0940  134.3460 C   0  0  2  0  0  3  0  0  0  0  0  0
  189.6270  178.3850  138.6250 C   0  0  0  0  0  2  0  0  0  0  0  0
  186.1340  176.8400  134.6480 O   0  0  0  0  0  0  0  0  0  0  0  0
  186.9770  177.0650  139.2840 C   0  0  0  0  0  2  0  0  0  0  0  0
  186.2250  178.3780  139.3990 C   0  0  0  0  0  2  0  0  0  0  0  0
  193.5870  176.2400  136.7310 C   0  0  0  0  0  3  0  0  0  0  0  0
  189.1750  178.1390  140.0490 C   0  0  2  0  0  0  0  0  0  0  0  0
  191.4750  175.6220  135.7060 C   0  0  0  0  0  0  0  0  0  0  0  0
  185.2580  178.1440  137.1180 N   0  0  0  0  0  0  0  0  0  0  0  0
  188.4130  177.0280  135.5470 C   0  0  0  0  0  2  0  0  0  0  0  0
  190.6140  177.8040  139.6410 C   0  0  1  0  0  3  0  0  0  0  0  0
  187.2250  176.1430  135.2470 C   0  0  2  0  0  0  0  0  0  0  0  0
  190.8580  176.3160  139.3760 C   0  0  0  0  0  2  0  0  0  0  0  0
  192.9530  176.3650  137.9730 C   0  0  0  0  0  3  0  0  0  0  0  0
  184.5040  172.2110  136.6660 C   0  0  0  0  0  0  0  0  0  0  0  0
  186.8920  174.9760  136.2090 C   0  0  1  0  0  3  0  0  0  0  0  0
  184.6040  171.2230  135.5580 C   0  0  0  0  0  1  0  0  0  0  0  0
  185.2500  173.4340  136.6290 N   0  0  0  0  0  0  0  0  0  0  0  0
  186.1900  175.4230  137.3500 O   0  0  0  0  0  0  0  0  0  0  0  0
  185.3120  174.3800  137.7180 C   0  0  0  0  0  2  0  0  0  0  0  0
  183.7670  171.9530  137.6540 O   0  0  0  0  0  0  0  0  0  0  0  0
  186.1710  173.8030  135.5940 C   0  0  0  0  0  2  0  0  0  0  0  0
  189.0080  179.3580  140.9680 C   0  0  0  0  0  2  0  0  0  0  0  0
  188.6010  176.1240  144.6110 O   0  0  0  0  0  0  0  0  0  0  0  0
  190.4970  178.8420  144.4680 C   0  0  0  0  0  2  0  0  0  0  0  0
  189.8850  179.3560  142.1850 C   0  0  0  0  0  3  0  0  0  0  0  0
  187.8950  177.3390  144.5280 C   0  0  1  0  0  3  0  0  0  0  0  0
  189.5330  178.7600  143.3150 C   0  0  0  0  0  0  0  0  0  0  0  0
  191.6430  177.5900  146.3230 C   0  0  0  0  0  1  0  0  0  0  0  0
  188.3140  178.0840  143.3900 O   0  0  0  0  0  0  0  0  0  0  0  0
  189.9870  176.3140  144.8840 C   0  0  2  0  0  3  0  0  0  0  0  0
  190.3900  177.6840  145.4790 C   0  0  2  0  0  3  0  0  0  0  0  0
  191.9180  176.5860  143.4330 O   0  0  0  0  0  1  0  0  0  0  0  0
  190.8800  175.7170  143.7650 C   0  0  0  0  0  0  0  0  0  0  0  0
  190.1180  175.4800  142.6160 O   0  0  0  0  0  1  0  0  0  0  0  0
  191.5090  174.4050  144.2380 C   0  0  0  0  0  2  0  0  0  0  0  0
  192.3270  174.6800  146.5210 N   0  0  0  0  0  1  0  0  0  0  0  0
  192.7280  174.5990  145.1320 C   0  0  0  0  0  2  0  0  0  0  0  0
  186.4050  177.0460  144.4140 C   0  0  0  0  0  2  0  0  0  0  0  0
  184.5900  178.6930  144.1850 C   0  0  0  0  0  2  0  0  0  0  0  0
  185.5900  178.1980  144.9050 C   0  0  0  0  0  3  0  0  0  0  0  0
  1 13  1  0  0  0  0
  1 22  1  0  0  0  0
  3 19  1  0  0  0  0
  5  4  2  0  0  0  0
  6 11  2  0  0  0  0
  7  9  2  0  0  0  0
  7  6  1  0  0  0  0
  8 23  1  0  0  0  0
  9  5  1  0  0  0  0
 10 22  2  0  0  0  0
 10 20  1  0  0  0  0
 11  4  1  0  0  0  0
 11 23  1  0  0  0  0
 12 27  1  0  0  0  0
 14 12  2  0  0  0  0
 15 13  1  1  0  0  0
 15 26  1  0  0  0  0
 15 24  1  0  0  0  0
 16 21  1  0  0  0  0
 17  6  1  0  0  0  0
 17 26  1  0  0  0  0
 18 19  1  0  0  0  0
 18  2  1  0  0  0  0
 20 28  2  0  0  0  0
 21  2  1  0  0  0  0
 21 37  1  1  0  0  0
 22 14  1  0  0  0  0
 23  3  1  0  0  0  0
 25 16  1  6  0  0  0
 25 21  1  0  0  0  0
 26 24  1  1  0  0  0
 26 30  1  0  0  0  0
 27 25  1  0  0  0  0
 28 12  1  0  0  0  0
 29 35  2  0  0  0  0
 30 36  1  6  0  0  0
 30 33  1  0  0  0  0
 31 29  1  0  0  0  0
 32 29  1  0  0  0  0
 32 34  1  0  0  0  0
 33 34  1  0  0  0  0
 36 32  1  0  0  0  0
 37 40  1  0  0  0  0
 38 45  1  0  0  0  0
 39 46  1  0  0  0  0
 40 42  2  0  0  0  0
 41 53  1  6  0  0  0
 41 38  1  0  0  0  0
 42 44  1  0  0  0  0
 42 39  1  0  0  0  0
 44 41  1  0  0  0  0
 45 48  1  6  0  0  0
 45 46  1  0  0  0  0
 46 43  1  6  0  0  0
 47 48  1  0  0  0  0
 48 50  1  0  0  0  0
 49 48  1  0  0  0  0
 50 52  1  0  0  0  0
 52 51  1  0  0  0  0
 53 55  1  0  0  0  0
 54 55  2  0  0  0  0
M  END
>  <MODEL>
4

>  <REMARK>
 VINA RESULT:      -1.6      3.041      6.412
  Name = 
  8 active torsions:
  status: ('A' for Active; 'I' for Inactive)
    1  A    between atoms: C_6  and  C_25
    2  A    between atoms: C_6  and  C_46
    3  A    between atoms: C_8  and  C_22
    4  A    between atoms: C_12  and  C_30
    5  A    between atoms: C_13  and  C_52
    6  A    between atoms: C_22  and  C_43
    7  A    between atoms: C_25  and  C_38
    8  A    between atoms: C_30  and  C_50
                            x       y       z     vdW  Elec       q    Type
                         _______ _______ _______ _____ _____    ______ ____

>  <TORSDO>
F 8

$$$$
