=
 OpenBabel10272400583D

 27 31  0  0  1  0  0  0  0  0999 V2000
  187.2010  177.6320  143.9430 N   0  0  2  0  0  0  0  0  0  0  0  0
  187.1670  178.6710  141.9580 C   0  0  1  0  0  3  0  0  0  0  0  0
  188.5170  177.4110  143.3540 C   0  0  1  0  0  3  0  0  0  0  0  0
  189.0240  177.2180  138.0820 C   0  0  0  0  0  3  0  0  0  0  0  0
  191.2540  176.1460  138.3880 C   0  0  0  0  0  1  0  0  0  0  0  0
  186.7070  178.7390  140.6050 N   0  0  0  0  0  2  0  0  0  0  0  0
  189.9640  177.1170  140.3400 C   0  0  0  0  0  0  0  0  0  0  0  0
  191.0540  176.7390  141.2850 C   0  0  0  0  0  1  0  0  0  0  0  0
  188.8140  177.7750  140.7930 C   0  0  0  0  0  0  0  0  0  0  0  0
  186.4150  178.3640  143.0020 C   0  0  1  0  0  3  0  0  0  0  0  0
  190.0620  176.8390  138.9570 C   0  0  0  0  0  0  0  0  0  0  0  0
  187.8800  177.8730  138.5630 C   0  0  0  0  0  3  0  0  0  0  0  0
  187.2610  178.0240  145.3390 C   0  0  0  0  0  2  0  0  0  0  0  0
  188.4900  178.1870  142.1170 N   0  0  0  0  0  0  0  0  0  0  0  0
  187.8080  178.1450  139.9250 C   0  0  0  0  0  0  0  0  0  0  0  0
  188.7340  178.0050  145.7110 C   0  0  2  0  0  3  0  0  0  0  0  0
  189.4770  178.0220  144.3600 C   0  0  1  0  0  3  0  0  0  0  0  0
  182.1570  178.7800  143.2900 C   0  0  0  0  0  3  0  0  0  0  0  0
  184.9430  178.4970  143.0920 C   0  0  0  0  0  0  0  0  0  0  0  0
  184.1330  178.3750  141.9530 C   0  0  0  0  0  3  0  0  0  0  0  0
  182.7460  178.5140  142.0510 C   0  0  0  0  0  3  0  0  0  0  0  0
  182.9560  178.9090  144.4290 C   0  0  0  0  0  3  0  0  0  0  0  0
  184.3430  178.7680  144.3300 C   0  0  0  0  0  3  0  0  0  0  0  0
  191.8510  178.2820  144.3820 O   0  0  0  0  0  1  0  0  0  0  0  0
  190.8340  177.3290  144.3550 C   0  0  0  0  0  2  0  0  0  0  0  0
  188.4040  176.8690  147.7930 O   0  0  0  0  0  1  0  0  0  0  0  0
  188.9880  176.7430  146.5330 C   0  0  0  0  0  2  0  0  0  0  0  0
  1 13  1  1  0  0  0
  2  6  1  6  0  0  0
  2 14  1  0  0  0  0
  2 10  1  0  0  0  0
  3 14  1  6  0  0  0
  3  1  1  0  0  0  0
  3 17  1  0  0  0  0
  4 12  2  0  0  0  0
  4 11  1  0  0  0  0
  5 11  1  0  0  0  0
  7  9  1  0  0  0  0
  7  8  1  0  0  0  0
  9 14  1  0  0  0  0
 10 19  1  6  0  0  0
 10  1  1  0  0  0  0
 11  7  2  0  0  0  0
 12 15  1  0  0  0  0
 13 16  1  0  0  0  0
 15  6  1  0  0  0  0
 15  9  2  0  0  0  0
 16 27  1  6  0  0  0
 17 25  1  1  0  0  0
 17 16  1  0  0  0  0
 18 22  1  0  0  0  0
 19 23  1  0  0  0  0
 20 21  1  0  0  0  0
 20 19  2  0  0  0  0
 21 18  2  0  0  0  0
 23 22  2  0  0  0  0
 25 24  1  0  0  0  0
 27 26  1  0  0  0  0
M  END
>  <MODEL>
1

>  <REMARK>
 VINA RESULT:      -9.3      0.000      0.000
  Name = 
  3 active torsions:
  status: ('A' for Active; 'I' for Inactive)
    1  A    between atoms: C_9  and  C_15
    2  A    between atoms: C_20  and  C_26
    3  A    between atoms: C_22  and  C_24
                            x       y       z     vdW  Elec       q    Type
                         _______ _______ _______ _____ _____    ______ ____

>  <TORSDO>
F 3

$$$$
=
 OpenBabel10272400583D

 27 31  0  0  1  0  0  0  0  0999 V2000
  187.7330  178.0290  144.2220 N   0  0  2  0  0  0  0  0  0  0  0  0
  188.9990  176.6550  142.9840 C   0  0  1  0  0  3  0  0  0  0  0  0
  187.2650  178.1830  142.8490 C   0  0  1  0  0  3  0  0  0  0  0  0
  190.6490  177.4590  138.8340 C   0  0  0  0  0  3  0  0  0  0  0  0
  189.0420  178.6370  137.3360 C   0  0  0  0  0  1  0  0  0  0  0  0
  190.2600  176.3360  142.3890 N   0  0  0  0  0  2  0  0  0  0  0  0
  188.4220  177.9850  139.7050 C   0  0  0  0  0  0  0  0  0  0  0  0
  187.0560  178.5580  139.5340 C   0  0  0  0  0  1  0  0  0  0  0  0
  188.8060  177.3830  140.9090 C   0  0  0  0  0  0  0  0  0  0  0  0
  188.8340  177.1190  144.2120 C   0  0  1  0  0  3  0  0  0  0  0  0
  189.3680  178.0180  138.6540 C   0  0  0  0  0  0  0  0  0  0  0  0
  191.0090  176.8640  140.0530 C   0  0  0  0  0  3  0  0  0  0  0  0
  186.6520  177.8910  145.1790 C   0  0  0  0  0  2  0  0  0  0  0  0
  188.0390  177.2010  142.0950 N   0  0  0  0  0  0  0  0  0  0  0  0
  190.0610  176.8340  141.0710 C   0  0  0  0  0  0  0  0  0  0  0  0
  185.3680  178.0210  144.3760 C   0  0  2  0  0  3  0  0  0  0  0  0
  185.8000  177.7890  142.9140 C   0  0  1  0  0  3  0  0  0  0  0  0
  191.5250  176.6400  147.5150 C   0  0  0  0  0  3  0  0  0  0  0  0
  189.7730  176.9570  145.3440 C   0  0  0  0  0  0  0  0  0  0  0  0
  191.0610  176.4360  145.1490 C   0  0  0  0  0  3  0  0  0  0  0  0
  191.9350  176.2790  146.2280 C   0  0  0  0  0  3  0  0  0  0  0  0
  190.2430  177.1560  147.7200 C   0  0  0  0  0  3  0  0  0  0  0  0
  189.3710  177.3130  146.6400 C   0  0  0  0  0  3  0  0  0  0  0  0
  183.8850  177.7110  141.4870 O   0  0  0  0  0  1  0  0  0  0  0  0
  184.9620  178.5120  141.8660 C   0  0  0  0  0  2  0  0  0  0  0  0
  183.6960  179.3320  145.4790 O   0  0  0  0  0  1  0  0  0  0  0  0
  184.8010  179.4150  144.6320 C   0  0  0  0  0  2  0  0  0  0  0  0
  1 13  1  1  0  0  0
  2  6  1  6  0  0  0
  2 10  1  0  0  0  0
  3 14  1  6  0  0  0
  3 17  1  0  0  0  0
  3  1  1  0  0  0  0
  4 12  1  0  0  0  0
  5 11  1  0  0  0  0
  7  9  2  0  0  0  0
  8  7  1  0  0  0  0
  9 15  1  0  0  0  0
  9 14  1  0  0  0  0
 10  1  1  0  0  0  0
 10 19  1  6  0  0  0
 11  4  2  0  0  0  0
 11  7  1  0  0  0  0
 12 15  2  0  0  0  0
 14  2  1  0  0  0  0
 15  6  1  0  0  0  0
 16 27  1  6  0  0  0
 16 13  1  0  0  0  0
 17 25  1  6  0  0  0
 17 16  1  0  0  0  0
 18 22  1  0  0  0  0
 19 23  1  0  0  0  0
 20 19  2  0  0  0  0
 20 21  1  0  0  0  0
 21 18  2  0  0  0  0
 23 22  2  0  0  0  0
 24 25  1  0  0  0  0
 27 26  1  0  0  0  0
M  END
>  <MODEL>
2

>  <REMARK>
 VINA RESULT:      -9.2      2.334      5.173
  Name = 
  3 active torsions:
  status: ('A' for Active; 'I' for Inactive)
    1  A    between atoms: C_9  and  C_15
    2  A    between atoms: C_20  and  C_26
    3  A    between atoms: C_22  and  C_24
                            x       y       z     vdW  Elec       q    Type
                         _______ _______ _______ _____ _____    ______ ____

>  <TORSDO>
F 3

$$$$
=
 OpenBabel10272400583D

 27 31  0  0  1  0  0  0  0  0999 V2000
  188.4000  177.8710  142.1420 N   0  0  2  0  0  0  0  0  0  0  0  0
  187.0890  177.2520  143.8500 C   0  0  1  0  0  3  0  0  0  0  0  0
  189.3000  177.5900  143.2550 C   0  0  1  0  0  3  0  0  0  0  0  0
  187.6180  178.3230  148.2270 C   0  0  0  0  0  3  0  0  0  0  0  0
  189.9930  178.2770  148.9820 C   0  0  0  0  0  1  0  0  0  0  0  0
  186.1360  177.5890  144.8630 N   0  0  0  0  0  2  0  0  0  0  0  0
  189.3380  177.6760  146.6100 C   0  0  0  0  0  0  0  0  0  0  0  0
  190.7610  177.4070  146.2560 C   0  0  0  0  0  1  0  0  0  0  0  0
  188.3170  177.5170  145.6650 C   0  0  0  0  0  0  0  0  0  0  0  0
  187.0600  177.6950  142.6040 C   0  0  1  0  0  3  0  0  0  0  0  0
  188.9710  178.0870  147.9130 C   0  0  0  0  0  0  0  0  0  0  0  0
  186.6150  178.1590  147.2600 C   0  0  0  0  0  3  0  0  0  0  0  0
  188.8470  177.2900  140.8900 C   0  0  0  0  0  2  0  0  0  0  0  0
  188.4210  177.0930  144.3090 N   0  0  0  0  0  0  0  0  0  0  0  0
  186.9950  177.7460  145.9870 C   0  0  0  0  0  0  0  0  0  0  0  0
  190.1760  176.6200  141.1940 C   0  0  2  0  0  3  0  0  0  0  0  0
  190.2010  176.4860  142.7310 C   0  0  1  0  0  3  0  0  0  0  0  0
  183.6300  179.1230  140.4650 C   0  0  0  0  0  3  0  0  0  0  0  0
  185.8710  178.1930  141.8770 C   0  0  0  0  0  0  0  0  0  0  0  0
  184.5930  178.1380  142.4540 C   0  0  0  0  0  3  0  0  0  0  0  0
  183.4770  178.6020  141.7520 C   0  0  0  0  0  3  0  0  0  0  0  0
  184.8980  179.1790  139.8800 C   0  0  0  0  0  3  0  0  0  0  0  0
  186.0130  178.7150  140.5830 C   0  0  0  0  0  3  0  0  0  0  0  0
  191.9070  175.2640  143.8710 O   0  0  0  0  0  1  0  0  0  0  0  0
  191.5860  176.5220  143.3640 C   0  0  0  0  0  2  0  0  0  0  0  0
  191.8000  176.9640  139.4680 O   0  0  0  0  0  1  0  0  0  0  0  0
  191.2830  177.5150  140.6410 C   0  0  0  0  0  2  0  0  0  0  0  0
  1 13  1  6  0  0  0
  1 10  1  0  0  0  0
  1  3  1  0  0  0  0
  2 14  1  0  0  0  0
  2  6  1  1  0  0  0
  3 14  1  1  0  0  0
  6 15  1  0  0  0  0
  7 11  2  0  0  0  0
  8  7  1  0  0  0  0
  9 15  2  0  0  0  0
  9  7  1  0  0  0  0
 10 19  1  1  0  0  0
 10  2  1  0  0  0  0
 11  4  1  0  0  0  0
 11  5  1  0  0  0  0
 12  4  2  0  0  0  0
 13 16  1  0  0  0  0
 14  9  1  0  0  0  0
 15 12  1  0  0  0  0
 16 27  1  1  0  0  0
 16 17  1  0  0  0  0
 17  3  1  0  0  0  0
 17 25  1  1  0  0  0
 18 21  1  0  0  0  0
 19 20  1  0  0  0  0
 21 20  2  0  0  0  0
 22 18  2  0  0  0  0
 22 23  1  0  0  0  0
 23 19  2  0  0  0  0
 25 24  1  0  0  0  0
 26 27  1  0  0  0  0
M  END
>  <MODEL>
3

>  <REMARK>
 VINA RESULT:      -9.1      1.968      5.411
  Name = 
  3 active torsions:
  status: ('A' for Active; 'I' for Inactive)
    1  A    between atoms: C_9  and  C_15
    2  A    between atoms: C_20  and  C_26
    3  A    between atoms: C_22  and  C_24
                            x       y       z     vdW  Elec       q    Type
                         _______ _______ _______ _____ _____    ______ ____

>  <TORSDO>
F 3

$$$$
=
 OpenBabel10272400583D

 27 31  0  0  1  0  0  0  0  0999 V2000
  187.2390  178.4040  141.8580 N   0  0  2  0  0  0  0  0  0  0  0  0
  186.8950  177.1580  143.6890 C   0  0  1  0  0  3  0  0  0  0  0  0
  188.5500  177.9020  142.2530 C   0  0  1  0  0  3  0  0  0  0  0  0
  189.5460  176.9120  147.3630 C   0  0  0  0  0  3  0  0  0  0  0  0
  191.9810  176.9030  146.8340 C   0  0  0  0  0  1  0  0  0  0  0  0
  186.5760  177.0670  145.0810 N   0  0  0  0  0  2  0  0  0  0  0  0
  190.2220  176.9770  145.0120 C   0  0  0  0  0  0  0  0  0  0  0  0
  191.2760  176.9850  143.9560 C   0  0  0  0  0  1  0  0  0  0  0  0
  188.8640  176.9980  144.6740 C   0  0  0  0  0  0  0  0  0  0  0  0
  186.2870  177.9500  142.8210 C   0  0  1  0  0  3  0  0  0  0  0  0
  190.5590  176.9320  146.3840 C   0  0  0  0  0  0  0  0  0  0  0  0
  188.1910  176.9370  146.9970 C   0  0  0  0  0  3  0  0  0  0  0  0
  186.9870  178.2800  140.4350 C   0  0  0  0  0  2  0  0  0  0  0  0
  188.2710  177.0160  143.3790 N   0  0  0  0  0  0  0  0  0  0  0  0
  187.8810  176.9720  145.6420 C   0  0  0  0  0  0  0  0  0  0  0  0
  188.2580  177.7010  139.8380 C   0  0  2  0  0  3  0  0  0  0  0  0
  189.0210  177.1140  141.0430 C   0  0  1  0  0  3  0  0  0  0  0  0
  182.3200  179.5380  143.1810 C   0  0  0  0  0  3  0  0  0  0  0  0
  184.9220  178.5100  142.9510 C   0  0  0  0  0  0  0  0  0  0  0  0
  184.5500  179.2570  144.0780 C   0  0  0  0  0  3  0  0  0  0  0  0
  183.2550  179.7710  144.1930 C   0  0  0  0  0  3  0  0  0  0  0  0
  182.6800  178.7910  142.0570 C   0  0  0  0  0  3  0  0  0  0  0  0
  183.9750  178.2780  141.9430 C   0  0  0  0  0  3  0  0  0  0  0  0
  190.9300  176.1620  139.9670 O   0  0  0  0  0  1  0  0  0  0  0  0
  190.5390  177.1100  140.9120 C   0  0  0  0  0  2  0  0  0  0  0  0
  188.3630  179.1590  137.9420 O   0  0  0  0  0  1  0  0  0  0  0  0
  189.0010  178.8370  139.1390 C   0  0  0  0  0  2  0  0  0  0  0  0
  1 13  1  6  0  0  0
  1  3  1  0  0  0  0
  1 10  1  0  0  0  0
  2  6  1  1  0  0  0
  3 14  1  1  0  0  0
  6 15  1  0  0  0  0
  7 11  1  0  0  0  0
  8  7  1  0  0  0  0
  9  7  2  0  0  0  0
  9 15  1  0  0  0  0
 10 19  1  1  0  0  0
 10  2  1  0  0  0  0
 11  5  1  0  0  0  0
 11  4  2  0  0  0  0
 12  4  1  0  0  0  0
 14  2  1  0  0  0  0
 14  9  1  0  0  0  0
 15 12  2  0  0  0  0
 16 27  1  1  0  0  0
 16 13  1  0  0  0  0
 16 17  1  0  0  0  0
 17 25  1  6  0  0  0
 17  3  1  0  0  0  0
 18 21  1  0  0  0  0
 19 20  1  0  0  0  0
 20 21  2  0  0  0  0
 22 18  2  0  0  0  0
 23 22  1  0  0  0  0
 23 19  2  0  0  0  0
 24 25  1  0  0  0  0
 26 27  1  0  0  0  0
M  END
>  <MODEL>
4

>  <REMARK>
 VINA RESULT:      -9.0      2.195      5.080
  Name = 
  3 active torsions:
  status: ('A' for Active; 'I' for Inactive)
    1  A    between atoms: C_9  and  C_15
    2  A    between atoms: C_20  and  C_26
    3  A    between atoms: C_22  and  C_24
                            x       y       z     vdW  Elec       q    Type
                         _______ _______ _______ _____ _____    ______ ____

>  <TORSDO>
F 3

$$$$
=
 OpenBabel10272400583D

 27 31  0  0  1  0  0  0  0  0999 V2000
  186.9570  177.8380  141.2860 N   0  0  2  0  0  0  0  0  0  0  0  0
  188.8650  178.4130  142.3100 C   0  0  1  0  0  3  0  0  0  0  0  0
  186.6310  177.9550  142.7030 C   0  0  1  0  0  3  0  0  0  0  0  0
  190.3540  176.9450  146.3370 C   0  0  0  0  0  3  0  0  0  0  0  0
  188.5540  176.7450  148.0500 C   0  0  0  0  0  1  0  0  0  0  0  0
  190.1770  178.0680  142.7650 N   0  0  0  0  0  2  0  0  0  0  0  0
  188.0770  177.5890  145.7090 C   0  0  0  0  0  0  0  0  0  0  0  0
  186.6350  177.7770  146.0400 C   0  0  0  0  0  1  0  0  0  0  0  0
  188.5720  177.9050  144.4380 C   0  0  0  0  0  0  0  0  0  0  0  0
  188.3570  178.0780  141.1360 C   0  0  1  0  0  3  0  0  0  0  0  0
  188.9930  177.1020  146.6700 C   0  0  0  0  0  0  0  0  0  0  0  0
  190.8220  177.2660  145.0540 C   0  0  0  0  0  3  0  0  0  0  0  0
  185.9860  178.4850  140.4230 C   0  0  0  0  0  2  0  0  0  0  0  0
  187.8670  178.4300  143.3170 N   0  0  0  0  0  0  0  0  0  0  0  0
  189.9070  177.7520  144.1260 C   0  0  0  0  0  0  0  0  0  0  0  0
  184.9050  179.0230  141.3460 C   0  0  2  0  0  3  0  0  0  0  0  0
  185.5550  179.0260  142.7450 C   0  0  1  0  0  3  0  0  0  0  0  0
  190.5640  177.0450  137.6080 C   0  0  0  0  0  3  0  0  0  0  0  0
  189.1200  177.7350  139.9140 C   0  0  0  0  0  0  0  0  0  0  0  0
  188.9140  178.4290  138.7130 C   0  0  0  0  0  3  0  0  0  0  0  0
  189.6340  178.0870  137.5640 C   0  0  0  0  0  3  0  0  0  0  0  0
  190.7720  176.3460  138.7990 C   0  0  0  0  0  3  0  0  0  0  0  0
  190.0530  176.6880  139.9470 C   0  0  0  0  0  3  0  0  0  0  0  0
  183.8500  179.9950  144.1100 O   0  0  0  0  0  1  0  0  0  0  0  0
  184.5920  178.8310  143.9100 C   0  0  0  0  0  2  0  0  0  0  0  0
  182.5410  178.8410  141.0160 O   0  0  0  0  0  1  0  0  0  0  0  0
  183.6980  178.0940  141.2360 C   0  0  0  0  0  2  0  0  0  0  0  0
  1 13  1  6  0  0  0
  1  3  1  0  0  0  0
  2  6  1  1  0  0  0
  2 14  1  0  0  0  0
  3 17  1  0  0  0  0
  3 14  1  1  0  0  0
  4 11  1  0  0  0  0
  6 15  1  0  0  0  0
  7  8  1  0  0  0  0
  7 11  2  0  0  0  0
  9  7  1  0  0  0  0
 10 19  1  1  0  0  0
 10  1  1  0  0  0  0
 10  2  1  0  0  0  0
 11  5  1  0  0  0  0
 12  4  2  0  0  0  0
 13 16  1  0  0  0  0
 14  9  1  0  0  0  0
 15  9  2  0  0  0  0
 15 12  1  0  0  0  0
 16 27  1  1  0  0  0
 16 17  1  0  0  0  0
 17 25  1  1  0  0  0
 18 22  1  0  0  0  0
 19 23  1  0  0  0  0
 20 19  2  0  0  0  0
 21 18  2  0  0  0  0
 21 20  1  0  0  0  0
 22 23  2  0  0  0  0
 25 24  1  0  0  0  0
 26 27  1  0  0  0  0
M  END
>  <MODEL>
5

>  <REMARK>
 VINA RESULT:      -8.8      2.421      6.544
  Name = 
  3 active torsions:
  status: ('A' for Active; 'I' for Inactive)
    1  A    between atoms: C_9  and  C_15
    2  A    between atoms: C_20  and  C_26
    3  A    between atoms: C_22  and  C_24
                            x       y       z     vdW  Elec       q    Type
                         _______ _______ _______ _____ _____    ______ ____

>  <TORSDO>
F 3

$$$$
=
 OpenBabel10272400583D

 27 31  0  0  1  0  0  0  0  0999 V2000
  187.9600  177.4370  142.6610 N   0  0  2  0  0  0  0  0  0  0  0  0
  186.8770  178.7000  141.1600 C   0  0  1  0  0  3  0  0  0  0  0  0
  188.6590  177.2420  141.3960 C   0  0  1  0  0  3  0  0  0  0  0  0
  185.9830  177.6440  136.8390 C   0  0  0  0  0  3  0  0  0  0  0  0
  187.8600  176.4700  135.6940 C   0  0  0  0  0  1  0  0  0  0  0  0
  185.7240  178.9390  140.3470 N   0  0  0  0  0  2  0  0  0  0  0  0
  188.0460  177.2520  138.0960 C   0  0  0  0  0  0  0  0  0  0  0  0
  189.4410  176.7300  138.1870 C   0  0  0  0  0  1  0  0  0  0  0  0
  187.4430  177.8900  139.1870 C   0  0  0  0  0  0  0  0  0  0  0  0
  186.8470  178.2990  142.4200 C   0  0  1  0  0  3  0  0  0  0  0  0
  187.2940  177.1320  136.9040 C   0  0  0  0  0  0  0  0  0  0  0  0
  185.4010  178.2770  137.9480 C   0  0  0  0  0  3  0  0  0  0  0  0
  188.8580  177.6630  143.7780 C   0  0  0  0  0  2  0  0  0  0  0  0
  187.9920  178.1560  140.4740 N   0  0  0  0  0  0  0  0  0  0  0  0
  186.1610  178.3920  139.1080 C   0  0  0  0  0  0  0  0  0  0  0  0
  190.2630  177.5510  143.2100 C   0  0  2  0  0  3  0  0  0  0  0  0
  190.0780  177.7000  141.6860 C   0  0  1  0  0  3  0  0  0  0  0  0
  183.6170  178.8190  145.1920 C   0  0  0  0  0  3  0  0  0  0  0  0
  185.7240  178.4710  143.3690 C   0  0  0  0  0  0  0  0  0  0  0  0
  184.4070  178.6310  142.9120 C   0  0  0  0  0  3  0  0  0  0  0  0
  183.3570  178.8020  143.8190 C   0  0  0  0  0  3  0  0  0  0  0  0
  184.9260  178.6640  145.6560 C   0  0  0  0  0  3  0  0  0  0  0  0
  185.9740  178.4920  144.7490 C   0  0  0  0  0  3  0  0  0  0  0  0
  192.2560  177.7450  140.7050 O   0  0  0  0  0  1  0  0  0  0  0  0
  191.1060  176.9670  140.8320 C   0  0  0  0  0  2  0  0  0  0  0  0
  191.6450  176.3430  144.7470 O   0  0  0  0  0  1  0  0  0  0  0  0
  190.8260  176.1950  143.6280 C   0  0  0  0  0  2  0  0  0  0  0  0
  1 13  1  1  0  0  0
  2  6  1  6  0  0  0
  2 10  1  0  0  0  0
  3 14  1  6  0  0  0
  3 17  1  0  0  0  0
  3  1  1  0  0  0  0
  4 11  2  0  0  0  0
  4 12  1  0  0  0  0
  5 11  1  0  0  0  0
  7  8  1  0  0  0  0
  7  9  2  0  0  0  0
  9 14  1  0  0  0  0
 10  1  1  0  0  0  0
 10 19  1  6  0  0  0
 11  7  1  0  0  0  0
 12 15  2  0  0  0  0
 14  2  1  0  0  0  0
 15  9  1  0  0  0  0
 15  6  1  0  0  0  0
 16 27  1  6  0  0  0
 16 13  1  0  0  0  0
 17 25  1  6  0  0  0
 17 16  1  0  0  0  0
 18 22  1  0  0  0  0
 19 23  1  0  0  0  0
 20 19  2  0  0  0  0
 20 21  1  0  0  0  0
 21 18  2  0  0  0  0
 23 22  2  0  0  0  0
 24 25  1  0  0  0  0
 27 26  1  0  0  0  0
M  END
>  <MODEL>
6

>  <REMARK>
 VINA RESULT:      -8.7      1.571      2.642
  Name = 
  3 active torsions:
  status: ('A' for Active; 'I' for Inactive)
    1  A    between atoms: C_9  and  C_15
    2  A    between atoms: C_20  and  C_26
    3  A    between atoms: C_22  and  C_24
                            x       y       z     vdW  Elec       q    Type
                         _______ _______ _______ _____ _____    ______ ____

>  <TORSDO>
F 3

$$$$
=
 OpenBabel10272400583D

 27 31  0  0  1  0  0  0  0  0999 V2000
  189.4140  176.8430  143.0670 N   0  0  2  0  0  0  0  0  0  0  0  0
  188.5980  178.0850  144.7450 C   0  0  1  0  0  3  0  0  0  0  0  0
  188.1730  177.4240  142.5680 C   0  0  1  0  0  3  0  0  0  0  0  0
  184.2470  178.5190  145.9550 C   0  0  0  0  0  3  0  0  0  0  0  0
  182.6860  178.6640  144.0180 C   0  0  0  0  0  1  0  0  0  0  0  0
  187.9790  178.1710  146.0320 N   0  0  0  0  0  2  0  0  0  0  0  0
  185.1910  178.4710  143.6970 C   0  0  0  0  0  0  0  0  0  0  0  0
  185.0330  178.5130  142.2150 C   0  0  0  0  0  1  0  0  0  0  0  0
  186.4580  178.3680  144.2840 C   0  0  0  0  0  0  0  0  0  0  0  0
  189.5750  177.2500  144.4270 C   0  0  1  0  0  3  0  0  0  0  0  0
  184.0710  178.5480  144.5570 C   0  0  0  0  0  0  0  0  0  0  0  0
  185.5290  178.4120  146.5180 C   0  0  0  0  0  3  0  0  0  0  0  0
  190.5090  176.9380  142.1200 C   0  0  0  0  0  2  0  0  0  0  0  0
  187.7300  178.3030  143.6460 N   0  0  0  0  0  0  0  0  0  0  0  0
  186.6170  178.3470  145.6540 C   0  0  0  0  0  0  0  0  0  0  0  0
  189.9240  177.5850  140.8750 C   0  0  2  0  0  3  0  0  0  0  0  0
  188.6060  178.2260  141.3530 C   0  0  1  0  0  3  0  0  0  0  0  0
  192.3570  175.4080  147.1190 C   0  0  0  0  0  3  0  0  0  0  0  0
  190.5250  176.6140  145.3660 C   0  0  0  0  0  0  0  0  0  0  0  0
  190.5390  176.9560  146.7260 C   0  0  0  0  0  3  0  0  0  0  0  0
  191.4490  176.3540  147.6000 C   0  0  0  0  0  3  0  0  0  0  0  0
  192.3540  175.0640  145.7650 C   0  0  0  0  0  3  0  0  0  0  0  0
  191.4430  175.6650  144.8920 C   0  0  0  0  0  3  0  0  0  0  0  0
  188.0390  178.7910  139.1020 O   0  0  0  0  0  1  0  0  0  0  0  0
  187.5080  178.3170  140.3010 C   0  0  0  0  0  2  0  0  0  0  0  0
  190.9620  176.0680  139.3400 O   0  0  0  0  0  1  0  0  0  0  0  0
  189.7260  176.4870  139.8330 C   0  0  0  0  0  2  0  0  0  0  0  0
  1 13  1  6  0  0  0
  1 10  1  0  0  0  0
  2  6  1  1  0  0  0
  3  1  1  0  0  0  0
  3 14  1  1  0  0  0
  4 12  1  0  0  0  0
  5 11  1  0  0  0  0
  7  9  2  0  0  0  0
  7 11  1  0  0  0  0
  8  7  1  0  0  0  0
  9 15  1  0  0  0  0
 10  2  1  0  0  0  0
 10 19  1  1  0  0  0
 11  4  2  0  0  0  0
 14  9  1  0  0  0  0
 14  2  1  0  0  0  0
 15  6  1  0  0  0  0
 15 12  2  0  0  0  0
 16 27  1  6  0  0  0
 16 17  1  0  0  0  0
 16 13  1  0  0  0  0
 17 25  1  6  0  0  0
 17  3  1  0  0  0  0
 18 21  1  0  0  0  0
 19 20  1  0  0  0  0
 20 21  2  0  0  0  0
 22 18  2  0  0  0  0
 23 19  2  0  0  0  0
 23 22  1  0  0  0  0
 24 25  1  0  0  0  0
 26 27  1  0  0  0  0
M  END
>  <MODEL>
7

>  <REMARK>
 VINA RESULT:      -8.7      2.412      6.925
  Name = 
  3 active torsions:
  status: ('A' for Active; 'I' for Inactive)
    1  A    between atoms: C_9  and  C_15
    2  A    between atoms: C_20  and  C_26
    3  A    between atoms: C_22  and  C_24
                            x       y       z     vdW  Elec       q    Type
                         _______ _______ _______ _____ _____    ______ ____

>  <TORSDO>
F 3

$$$$
=
 OpenBabel10272400583D

 27 31  0  0  1  0  0  0  0  0999 V2000
  188.9810  177.2310  141.0310 N   0  0  2  0  0  0  0  0  0  0  0  0
  187.3220  178.6690  141.4790 C   0  0  1  0  0  3  0  0  0  0  0  0
  188.2920  177.4540  139.7650 C   0  0  1  0  0  3  0  0  0  0  0  0
  183.1200  178.6120  139.7670 C   0  0  0  0  0  3  0  0  0  0  0  0
  183.0410  178.0250  137.3460 C   0  0  0  0  0  1  0  0  0  0  0  0
  186.0520  178.9450  142.0790 N   0  0  0  0  0  2  0  0  0  0  0  0
  185.2340  178.2010  138.6030 C   0  0  0  0  0  0  0  0  0  0  0  0
  186.0000  177.8670  137.3670 C   0  0  0  0  0  1  0  0  0  0  0  0
  185.8910  178.4610  139.8110 C   0  0  0  0  0  0  0  0  0  0  0  0
  188.2910  177.9670  142.0430 C   0  0  1  0  0  3  0  0  0  0  0  0
  183.8220  178.2820  138.5900 C   0  0  0  0  0  0  0  0  0  0  0  0
  183.8040  178.8640  140.9670 C   0  0  0  0  0  3  0  0  0  0  0  0
  190.4250  177.2910  140.9110 C   0  0  0  0  0  2  0  0  0  0  0  0
  187.2910  178.4700  140.0760 N   0  0  0  0  0  0  0  0  0  0  0  0
  185.1930  178.7880  140.9550 C   0  0  0  0  0  0  0  0  0  0  0  0
  190.7100  177.5160  139.4360 C   0  0  2  0  0  3  0  0  0  0  0  0
  189.3710  178.0120  138.8540 C   0  0  1  0  0  3  0  0  0  0  0  0
  188.8700  177.3510  146.2460 C   0  0  0  0  0  3  0  0  0  0  0  0
  188.4830  177.7430  143.4930 C   0  0  0  0  0  0  0  0  0  0  0  0
  187.4310  177.2880  144.3020 C   0  0  0  0  0  3  0  0  0  0  0  0
  187.6230  177.0910  145.6720 C   0  0  0  0  0  3  0  0  0  0  0  0
  189.9230  177.8080  145.4500 C   0  0  0  0  0  3  0  0  0  0  0  0
  189.7300  178.0040  144.0800 C   0  0  0  0  0  3  0  0  0  0  0  0
  189.3310  178.7880  136.5950 O   0  0  0  0  0  1  0  0  0  0  0  0
  189.1280  177.6620  137.3910 C   0  0  0  0  0  2  0  0  0  0  0  0
  192.3830  176.3640  138.1680 O   0  0  0  0  0  1  0  0  0  0  0  0
  191.1770  176.1870  138.8460 C   0  0  0  0  0  2  0  0  0  0  0  0
  1 13  1  6  0  0  0
  1 10  1  0  0  0  0
  2 10  1  0  0  0  0
  2  6  1  1  0  0  0
  3 14  1  1  0  0  0
  3  1  1  0  0  0  0
  4 12  1  0  0  0  0
  5 11  1  0  0  0  0
  7  9  2  0  0  0  0
  8  7  1  0  0  0  0
  9 14  1  0  0  0  0
  9 15  1  0  0  0  0
 10 19  1  1  0  0  0
 11  7  1  0  0  0  0
 11  4  2  0  0  0  0
 14  2  1  0  0  0  0
 15 12  2  0  0  0  0
 15  6  1  0  0  0  0
 16 27  1  6  0  0  0
 16 13  1  0  0  0  0
 17 25  1  6  0  0  0
 17 16  1  0  0  0  0
 17  3  1  0  0  0  0
 19 23  2  0  0  0  0
 19 20  1  0  0  0  0
 20 21  2  0  0  0  0
 21 18  1  0  0  0  0
 22 18  2  0  0  0  0
 23 22  1  0  0  0  0
 24 25  1  0  0  0  0
 26 27  1  0  0  0  0
M  END
>  <MODEL>
8

>  <REMARK>
 VINA RESULT:      -8.5      2.835      5.783
  Name = 
  3 active torsions:
  status: ('A' for Active; 'I' for Inactive)
    1  A    between atoms: C_9  and  C_15
    2  A    between atoms: C_20  and  C_26
    3  A    between atoms: C_22  and  C_24
                            x       y       z     vdW  Elec       q    Type
                         _______ _______ _______ _____ _____    ______ ____

>  <TORSDO>
F 3

$$$$
=
 OpenBabel10272400583D

 27 31  0  0  1  0  0  0  0  0999 V2000
  189.6570  176.9990  141.1570 N   0  0  2  0  0  0  0  0  0  0  0  0
  188.5270  178.2280  142.6530 C   0  0  1  0  0  3  0  0  0  0  0  0
  188.4850  177.5080  140.4540 C   0  0  1  0  0  3  0  0  0  0  0  0
  184.0240  178.4630  143.1510 C   0  0  0  0  0  3  0  0  0  0  0  0
  182.7850  178.4930  140.9880 C   0  0  0  0  0  1  0  0  0  0  0  0
  187.7080  178.3050  143.8230 N   0  0  0  0  0  2  0  0  0  0  0  0
  185.3160  178.4220  141.0720 C   0  0  0  0  0  0  0  0  0  0  0  0
  185.3930  178.4300  139.5820 C   0  0  0  0  0  1  0  0  0  0  0  0
  186.4770  178.3940  141.8540 C   0  0  0  0  0  0  0  0  0  0  0  0
  189.5800  177.4390  142.5140 C   0  0  1  0  0  3  0  0  0  0  0  0
  184.0710  178.4580  141.7420 C   0  0  0  0  0  0  0  0  0  0  0  0
  185.2030  178.4310  143.9100 C   0  0  0  0  0  3  0  0  0  0  0  0
  190.8820  177.1330  140.3920 C   0  0  0  0  0  2  0  0  0  0  0  0
  187.8350  178.3820  141.4260 N   0  0  0  0  0  0  0  0  0  0  0  0
  186.4170  178.4050  143.2320 C   0  0  0  0  0  0  0  0  0  0  0  0
  190.4730  177.7260  139.0540 C   0  0  2  0  0  3  0  0  0  0  0  0
  189.0660  178.3090  139.3020 C   0  0  1  0  0  3  0  0  0  0  0  0
  191.9810  175.7780  145.6550 C   0  0  0  0  0  3  0  0  0  0  0  0
  190.3990  176.8680  143.6070 C   0  0  0  0  0  0  0  0  0  0  0  0
  190.4160  177.4540  144.8820 C   0  0  0  0  0  3  0  0  0  0  0  0
  191.2020  176.9110  145.9020 C   0  0  0  0  0  3  0  0  0  0  0  0
  191.9740  175.1890  144.3880 C   0  0  0  0  0  3  0  0  0  0  0  0
  191.1870  175.7330  143.3680 C   0  0  0  0  0  3  0  0  0  0  0  0
  188.3610  179.4860  137.3470 O   0  0  0  0  0  1  0  0  0  0  0  0
  188.1460  178.3250  138.0880 C   0  0  0  0  0  2  0  0  0  0  0  0
  190.9310  175.4170  138.6160 O   0  0  0  0  0  1  0  0  0  0  0  0
  190.4950  176.6020  138.0220 C   0  0  0  0  0  2  0  0  0  0  0  0
  1 13  1  6  0  0  0
  1 10  1  0  0  0  0
  2  6  1  1  0  0  0
  3  1  1  0  0  0  0
  3 14  1  1  0  0  0
  4 12  1  0  0  0  0
  5 11  1  0  0  0  0
  7 11  1  0  0  0  0
  7  9  2  0  0  0  0
  8  7  1  0  0  0  0
  9 15  1  0  0  0  0
 10  2  1  0  0  0  0
 10 19  1  1  0  0  0
 11  4  2  0  0  0  0
 14  9  1  0  0  0  0
 14  2  1  0  0  0  0
 15  6  1  0  0  0  0
 15 12  2  0  0  0  0
 16 27  1  6  0  0  0
 16 17  1  0  0  0  0
 16 13  1  0  0  0  0
 17 25  1  6  0  0  0
 17  3  1  0  0  0  0
 18 21  1  0  0  0  0
 19 20  1  0  0  0  0
 20 21  2  0  0  0  0
 22 18  2  0  0  0  0
 23 19  2  0  0  0  0
 23 22  1  0  0  0  0
 24 25  1  0  0  0  0
 27 26  1  0  0  0  0
M  END
>  <MODEL>
9

>  <REMARK>
 VINA RESULT:      -8.5      2.539      6.589
  Name = 
  3 active torsions:
  status: ('A' for Active; 'I' for Inactive)
    1  A    between atoms: C_9  and  C_15
    2  A    between atoms: C_20  and  C_26
    3  A    between atoms: C_22  and  C_24
                            x       y       z     vdW  Elec       q    Type
                         _______ _______ _______ _____ _____    ______ ____

>  <TORSDO>
F 3

$$$$
