=
 OpenBabel10262423573D

 34 38  0  0  1  0  0  0  0  0999 V2000
  190.8820  175.3030  137.0930 C   0  0  1  0  0  3  0  0  0  0  0  0
  193.6550  177.0010  138.8290 N   0  0  0  0  0  0  0  0  0  0  0  0
  190.8310  176.6970  139.3560 C   0  0  0  0  0  2  0  0  0  0  0  0
  193.1190  177.3820  140.1070 C   0  0  0  0  0  3  0  0  0  0  0  0
  192.0250  175.0720  136.0930 C   0  0  0  0  0  2  0  0  0  0  0  0
  192.7230  176.6820  137.7550 C   0  0  1  0  0  3  0  0  0  0  0  0
  193.2610  175.8220  136.6190 C   0  0  1  0  0  3  0  0  0  0  0  0
  191.8030  177.2560  140.3760 C   0  0  2  0  0  3  0  0  0  0  0  0
  191.5870  175.8820  138.3110 C   0  0  2  0  0  3  0  0  0  0  0  0
  189.2140  177.1670  137.3980 N   0  0  0  0  0  0  0  0  0  0  0  0
  188.7700  175.3990  135.6560 C   0  0  0  0  0  0  0  0  0  0  0  0
  186.8820  176.4460  136.9190 C   0  0  0  0  0  2  0  0  0  0  0  0
  187.3870  175.4380  136.0040 N   0  0  0  0  0  2  0  0  0  0  0  0
  189.7840  176.1820  136.4570 C   0  0  2  0  0  3  0  0  0  0  0  0
  187.9310  176.7500  137.9850 C   0  0  0  0  0  2  0  0  0  0  0  0
  189.2550  174.4530  134.4140 S   0  0  0  0  0  0  0  0  0  0  0  0
  189.0550  178.4360  136.6990 C   0  0  0  0  0  2  0  0  0  0  0  0
  189.0220  179.4820  137.6240 O   0  0  0  0  0  1  0  0  0  0  0  0
  196.6480  174.1560  137.1350 C   0  0  0  0  0  0  0  0  0  0  0  0
  196.2730  173.0410  137.8180 N   0  0  0  0  0  0  0  0  0  0  0  0
  194.3390  174.8600  137.0400 C   0  0  0  0  0  0  0  0  0  0  0  0
  194.9700  172.8010  138.1260 C   0  0  0  0  0  3  0  0  0  0  0  0
  195.6890  175.0860  136.7320 C   0  0  0  0  0  3  0  0  0  0  0  0
  193.9800  173.7070  137.7410 C   0  0  0  0  0  3  0  0  0  0  0  0
  198.0810  174.3830  136.8150 C   0  0  0  0  0  1  0  0  0  0  0  0
  191.2770  177.6680  141.7080 C   0  0  0  0  0  2  0  0  0  0  0  0
  191.5660  176.5990  142.7490 C   0  0  0  0  0  2  0  0  0  0  0  0
  191.3770  177.2470  145.6490 O   0  0  0  0  0  1  0  0  0  0  0  0
  190.3560  176.3890  143.6440 C   0  0  1  0  0  3  0  0  0  0  0  0
  190.3160  177.4390  144.7640 C   0  0  1  0  0  3  0  0  0  0  0  0
  187.8250  177.4190  144.5700 C   0  0  0  0  0  2  0  0  0  0  0  0
  187.9040  176.3140  143.6160 N   0  0  0  0  0  2  0  0  0  0  0  0
  189.0950  176.5050  142.7900 C   0  0  0  0  0  2  0  0  0  0  0  0
  189.0020  177.3510  145.5380 C   0  0  0  0  0  2  0  0  0  0  0  0
  1  5  1  6  0  0  0
  1  9  1  0  0  0  0
  2  4  2  0  0  0  0
  3  8  1  0  0  0  0
  4  8  1  0  0  0  0
  5  7  1  0  0  0  0
  6  9  1  0  0  0  0
  6  2  1  1  0  0  0
  7 21  1  1  0  0  0
  7  6  1  0  0  0  0
  8 26  1  1  0  0  0
  9  3  1  6  0  0  0
 10 15  1  0  0  0  0
 11 13  1  0  0  0  0
 12 15  1  0  0  0  0
 13 12  1  0  0  0  0
 14 11  1  1  0  0  0
 14  1  1  0  0  0  0
 14 10  1  0  0  0  0
 16 11  2  0  0  0  0
 17 10  1  0  0  0  0
 17 18  1  0  0  0  0
 19 20  1  0  0  0  0
 20 22  2  0  0  0  0
 21 24  2  0  0  0  0
 23 21  1  0  0  0  0
 23 19  2  0  0  0  0
 24 22  1  0  0  0  0
 25 19  1  0  0  0  0
 26 27  1  0  0  0  0
 29 27  1  6  0  0  0
 29 30  1  0  0  0  0
 30 34  1  0  0  0  0
 30 28  1  1  0  0  0
 31 34  1  0  0  0  0
 32 31  1  0  0  0  0
 33 32  1  0  0  0  0
 33 29  1  0  0  0  0
M  END
>  <MODEL>
1

>  <REMARK>
 VINA RESULT:      -7.7      0.000      0.000
  Name = 
  6 active torsions:
  status: ('A' for Active; 'I' for Inactive)
    1  A    between atoms: N_1  and  C_24
    2  A    between atoms: C_3  and  C_13
    3  A    between atoms: C_3  and  C_17
    4  A    between atoms: C_4  and  C_15
    5  A    between atoms: C_12  and  C_28
    6  A    between atoms: C_17  and  C_29
                            x       y       z     vdW  Elec       q    Type
                         _______ _______ _______ _____ _____    ______ ____

>  <TORSDO>
F 6

$$$$
=
 OpenBabel10262423573D

 34 38  0  0  1  0  0  0  0  0999 V2000
  182.6970  177.2810  138.6830 C   0  0  1  0  0  3  0  0  0  0  0  0
  185.6240  179.0090  140.1090 N   0  0  0  0  0  0  0  0  0  0  0  0
  183.1010  178.0950  141.1810 C   0  0  0  0  0  2  0  0  0  0  0  0
  185.4130  178.9890  141.5310 C   0  0  0  0  0  3  0  0  0  0  0  0
  183.5450  177.4890  137.4190 C   0  0  0  0  0  2  0  0  0  0  0  0
  184.4780  178.7800  139.2370 C   0  0  1  0  0  3  0  0  0  0  0  0
  184.7830  178.3090  137.8210 C   0  0  1  0  0  3  0  0  0  0  0  0
  184.2430  178.5730  142.0570 C   0  0  2  0  0  3  0  0  0  0  0  0
  183.6340  177.6860  139.8120 C   0  0  2  0  0  3  0  0  0  0  0  0
  181.5660  179.4610  138.1180 N   0  0  0  0  0  0  0  0  0  0  0  0
  180.4740  177.9090  139.7790 C   0  0  0  0  0  0  0  0  0  0  0  0
  180.2770  180.3910  140.0320 C   0  0  0  0  0  2  0  0  0  0  0  0
  180.0830  179.0460  140.5470 N   0  0  0  0  0  2  0  0  0  0  0  0
  181.3750  178.0700  138.5770 C   0  0  2  0  0  3  0  0  0  0  0  0
  181.5610  180.4490  139.2090 C   0  0  0  0  0  2  0  0  0  0  0  0
  179.9820  176.4210  140.2460 S   0  0  0  0  0  0  0  0  0  0  0  0
  180.5220  179.7770  137.1510 C   0  0  0  0  0  2  0  0  0  0  0  0
  180.9620  180.7920  136.2990 O   0  0  0  0  0  1  0  0  0  0  0  0
  188.4230  177.1910  137.9530 C   0  0  0  0  0  0  0  0  0  0  0  0
  188.3120  175.9300  137.4540 N   0  0  0  0  0  0  0  0  0  0  0  0
  186.0380  177.4850  137.7090 C   0  0  0  0  0  0  0  0  0  0  0  0
  187.1090  175.4180  137.0780 C   0  0  0  0  0  3  0  0  0  0  0  0
  187.2890  177.9920  138.0890 C   0  0  0  0  0  3  0  0  0  0  0  0
  185.9510  176.1880  137.1980 C   0  0  0  0  0  3  0  0  0  0  0  0
  189.7550  177.7170  138.3510 C   0  0  0  0  0  1  0  0  0  0  0  0
  184.0540  178.5740  143.5340 C   0  0  0  0  0  2  0  0  0  0  0  0
  185.2320  179.2450  144.2220 C   0  0  0  0  0  2  0  0  0  0  0  0
  187.2510  177.1280  143.6720 O   0  0  0  0  0  1  0  0  0  0  0  0
  185.8570  178.3080  145.2410 C   0  0  1  0  0  3  0  0  0  0  0  0
  187.2820  177.9170  144.8220 C   0  0  1  0  0  3  0  0  0  0  0  0
  187.9000  177.9290  147.2430 C   0  0  0  0  0  2  0  0  0  0  0  0
  186.5010  178.1530  147.6030 N   0  0  0  0  0  2  0  0  0  0  0  0
  185.9000  179.0200  146.5920 C   0  0  0  0  0  2  0  0  0  0  0  0
  187.9780  177.1420  145.9380 C   0  0  0  0  0  2  0  0  0  0  0  0
  1  5  1  6  0  0  0
  1  9  1  0  0  0  0
  2  4  2  0  0  0  0
  3  8  1  0  0  0  0
  4  8  1  0  0  0  0
  5  7  1  0  0  0  0
  6  9  1  0  0  0  0
  6  2  1  1  0  0  0
  7 21  1  1  0  0  0
  7  6  1  0  0  0  0
  8 26  1  1  0  0  0
  9  3  1  1  0  0  0
 10 14  1  0  0  0  0
 10 15  1  0  0  0  0
 11 16  2  0  0  0  0
 11 13  1  0  0  0  0
 12 13  1  0  0  0  0
 14  1  1  0  0  0  0
 14 11  1  1  0  0  0
 15 12  1  0  0  0  0
 17 10  1  0  0  0  0
 18 17  1  0  0  0  0
 19 23  1  0  0  0  0
 19 25  1  0  0  0  0
 20 19  2  0  0  0  0
 21 23  2  0  0  0  0
 22 24  2  0  0  0  0
 22 20  1  0  0  0  0
 24 21  1  0  0  0  0
 26 27  1  0  0  0  0
 29 27  1  6  0  0  0
 29 33  1  0  0  0  0
 30 28  1  6  0  0  0
 30 29  1  0  0  0  0
 30 34  1  0  0  0  0
 31 32  1  0  0  0  0
 33 32  1  0  0  0  0
 34 31  1  0  0  0  0
M  END
>  <MODEL>
2

>  <REMARK>
 VINA RESULT:      -7.7      5.031      7.866
  Name = 
  6 active torsions:
  status: ('A' for Active; 'I' for Inactive)
    1  A    between atoms: N_1  and  C_24
    2  A    between atoms: C_3  and  C_13
    3  A    between atoms: C_3  and  C_17
    4  A    between atoms: C_4  and  C_15
    5  A    between atoms: C_12  and  C_28
    6  A    between atoms: C_17  and  C_29
                            x       y       z     vdW  Elec       q    Type
                         _______ _______ _______ _____ _____    ______ ____

>  <TORSDO>
F 6

$$$$
=
 OpenBabel10262423573D

 34 38  0  0  1  0  0  0  0  0999 V2000
  187.5250  177.4350  143.2560 C   0  0  1  0  0  3  0  0  0  0  0  0
  187.8320  178.6930  139.8070 N   0  0  0  0  0  0  0  0  0  0  0  0
  189.5230  177.1110  141.5350 C   0  0  0  0  0  2  0  0  0  0  0  0
  188.9860  178.0260  139.2670 C   0  0  0  0  0  3  0  0  0  0  0  0
  186.2430  178.2750  143.1480 C   0  0  0  0  0  2  0  0  0  0  0  0
  187.6730  178.7360  141.2550 C   0  0  1  0  0  3  0  0  0  0  0  0
  186.2630  178.9750  141.7780 C   0  0  1  0  0  3  0  0  0  0  0  0
  189.7950  177.2870  140.0530 C   0  0  2  0  0  3  0  0  0  0  0  0
  188.0570  177.4100  141.8320 C   0  0  2  0  0  3  0  0  0  0  0  0
  189.8950  177.8440  144.0090 N   0  0  0  0  0  0  0  0  0  0  0  0
  188.0720  177.6730  145.7430 C   0  0  0  0  0  0  0  0  0  0  0  0
  190.3780  176.8340  146.2300 C   0  0  0  0  0  2  0  0  0  0  0  0
  188.9750  176.9620  146.5870 N   0  0  0  0  0  2  0  0  0  0  0  0
  188.4640  178.0280  144.3280 C   0  0  2  0  0  3  0  0  0  0  0  0
  190.5170  176.7130  144.7150 C   0  0  0  0  0  2  0  0  0  0  0  0
  186.5830  178.0510  146.3040 S   0  0  0  0  0  0  0  0  0  0  0  0
  190.6020  179.0790  144.3220 C   0  0  0  0  0  2  0  0  0  0  0  0
  191.9450  178.9570  143.9640 O   0  0  0  0  0  1  0  0  0  0  0  0
  184.3040  177.8730  138.7010 C   0  0  0  0  0  0  0  0  0  0  0  0
  183.1430  177.4660  139.2810 N   0  0  0  0  0  0  0  0  0  0  0  0
  185.1800  178.4380  140.8800 C   0  0  0  0  0  0  0  0  0  0  0  0
  182.9610  177.5270  140.6280 C   0  0  0  0  0  3  0  0  0  0  0  0
  185.3440  178.3670  139.4890 C   0  0  0  0  0  3  0  0  0  0  0  0
  183.9770  178.0150  141.4510 C   0  0  0  0  0  3  0  0  0  0  0  0
  184.4650  177.7930  137.2260 C   0  0  0  0  0  1  0  0  0  0  0  0
  190.9880  176.6160  139.4650 C   0  0  0  0  0  2  0  0  0  0  0  0
  190.6050  175.8580  138.2040 C   0  0  0  0  0  2  0  0  0  0  0  0
  190.7000  174.9120  135.3820 O   0  0  0  0  0  1  0  0  0  0  0  0
  191.8480  175.4560  137.4280 C   0  0  1  0  0  3  0  0  0  0  0  0
  191.6750  175.7460  135.9300 C   0  0  1  0  0  3  0  0  0  0  0  0
  194.1040  176.3270  135.8550 C   0  0  0  0  0  2  0  0  0  0  0  0
  194.2540  175.8970  137.2430 N   0  0  0  0  0  2  0  0  0  0  0  0
  193.0360  176.2510  137.9680 C   0  0  0  0  0  2  0  0  0  0  0  0
  192.9900  175.5290  135.1840 C   0  0  0  0  0  2  0  0  0  0  0  0
  1  5  1  6  0  0  0
  1 14  1  0  0  0  0
  4  2  2  0  0  0  0
  4  8  1  0  0  0  0
  6  2  1  6  0  0  0
  6  7  1  0  0  0  0
  6  9  1  0  0  0  0
  7 21  1  6  0  0  0
  7  5  1  0  0  0  0
  8 26  1  6  0  0  0
  8  3  1  0  0  0  0
  9  3  1  1  0  0  0
  9  1  1  0  0  0  0
 10 17  1  0  0  0  0
 10 14  1  0  0  0  0
 10 15  1  0  0  0  0
 11 16  2  0  0  0  0
 11 13  1  0  0  0  0
 12 13  1  0  0  0  0
 14 11  1  1  0  0  0
 15 12  1  0  0  0  0
 18 17  1  0  0  0  0
 19 20  2  0  0  0  0
 19 23  1  0  0  0  0
 20 22  1  0  0  0  0
 21 24  1  0  0  0  0
 22 24  2  0  0  0  0
 23 21  2  0  0  0  0
 25 19  1  0  0  0  0
 27 26  1  0  0  0  0
 29 33  1  0  0  0  0
 29 27  1  1  0  0  0
 30 28  1  6  0  0  0
 30 29  1  0  0  0  0
 31 32  1  0  0  0  0
 32 33  1  0  0  0  0
 34 31  1  0  0  0  0
 34 30  1  0  0  0  0
M  END
>  <MODEL>
3

>  <REMARK>
 VINA RESULT:      -7.6      3.515      9.165
  Name = 
  6 active torsions:
  status: ('A' for Active; 'I' for Inactive)
    1  A    between atoms: N_1  and  C_24
    2  A    between atoms: C_3  and  C_13
    3  A    between atoms: C_3  and  C_17
    4  A    between atoms: C_4  and  C_15
    5  A    between atoms: C_12  and  C_28
    6  A    between atoms: C_17  and  C_29
                            x       y       z     vdW  Elec       q    Type
                         _______ _______ _______ _____ _____    ______ ____

>  <TORSDO>
F 6

$$$$
=
 OpenBabel10262423573D

 34 38  0  0  1  0  0  0  0  0999 V2000
  190.6040  175.2850  137.3120 C   0  0  1  0  0  3  0  0  0  0  0  0
  193.4160  176.8170  139.1340 N   0  0  0  0  0  0  0  0  0  0  0  0
  190.5520  176.7710  139.5150 C   0  0  0  0  0  2  0  0  0  0  0  0
  192.8480  177.2940  140.3670 C   0  0  0  0  0  3  0  0  0  0  0  0
  191.7730  174.9180  136.3860 C   0  0  0  0  0  2  0  0  0  0  0  0
  192.5170  176.5320  138.0230 C   0  0  1  0  0  3  0  0  0  0  0  0
  193.0390  175.5850  136.9510 C   0  0  1  0  0  3  0  0  0  0  0  0
  191.5140  177.2890  140.5670 C   0  0  2  0  0  3  0  0  0  0  0  0
  191.2900  175.8530  138.5450 C   0  0  2  0  0  3  0  0  0  0  0  0
  189.0180  177.2360  137.4760 N   0  0  0  0  0  0  0  0  0  0  0  0
  188.6410  175.4990  135.6870 C   0  0  0  0  0  0  0  0  0  0  0  0
  186.7040  176.6460  136.7790 C   0  0  0  0  0  2  0  0  0  0  0  0
  187.2370  175.6130  135.9060 N   0  0  0  0  0  2  0  0  0  0  0  0
  189.6180  176.2230  136.5840 C   0  0  2  0  0  3  0  0  0  0  0  0
  187.6650  176.8890  137.9400 C   0  0  0  0  0  2  0  0  0  0  0  0
  189.1870  174.5310  134.4880 S   0  0  0  0  0  0  0  0  0  0  0  0
  188.9940  178.5140  136.7750 C   0  0  0  0  0  2  0  0  0  0  0  0
  188.9810  179.5590  137.7010 O   0  0  0  0  0  1  0  0  0  0  0  0
  194.8720  172.3010  137.5630 C   0  0  0  0  0  0  0  0  0  0  0  0
  195.8020  172.7030  138.4700 N   0  0  0  0  0  0  0  0  0  0  0  0
  194.0090  174.5550  137.4660 C   0  0  0  0  0  0  0  0  0  0  0  0
  195.8700  173.9940  138.8950 C   0  0  0  0  0  3  0  0  0  0  0  0
  193.9570  173.2190  137.0450 C   0  0  0  0  0  3  0  0  0  0  0  0
  194.9730  174.9430  138.4000 C   0  0  0  0  0  3  0  0  0  0  0  0
  194.8280  170.8820  137.1250 C   0  0  0  0  0  1  0  0  0  0  0  0
  190.9570  177.7980  141.8510 C   0  0  0  0  0  2  0  0  0  0  0  0
  190.7510  176.6550  142.8330 C   0  0  0  0  0  2  0  0  0  0  0  0
  188.2420  177.6870  144.0600 O   0  0  0  0  0  1  0  0  0  0  0  0
  190.5910  177.1910  144.2460 C   0  0  1  0  0  3  0  0  0  0  0  0
  189.1720  176.9290  144.7720 C   0  0  1  0  0  3  0  0  0  0  0  0
  190.1740  176.5740  147.0320 C   0  0  0  0  0  2  0  0  0  0  0  0
  191.4830  176.9760  146.5210 N   0  0  0  0  0  2  0  0  0  0  0  0
  191.6070  176.4920  145.1470 C   0  0  0  0  0  2  0  0  0  0  0  0
  189.0730  177.2860  146.2530 C   0  0  0  0  0  2  0  0  0  0  0  0
  1  5  1  6  0  0  0
  1  9  1  0  0  0  0
  2  4  2  0  0  0  0
  3  8  1  0  0  0  0
  4  8  1  0  0  0  0
  5  7  1  0  0  0  0
  6  9  1  0  0  0  0
  6  2  1  1  0  0  0
  7 21  1  1  0  0  0
  7  6  1  0  0  0  0
  8 26  1  1  0  0  0
  9  3  1  6  0  0  0
 10 15  1  0  0  0  0
 11 13  1  0  0  0  0
 12 15  1  0  0  0  0
 13 12  1  0  0  0  0
 14 11  1  1  0  0  0
 14  1  1  0  0  0  0
 14 10  1  0  0  0  0
 16 11  2  0  0  0  0
 17 10  1  0  0  0  0
 17 18  1  0  0  0  0
 19 20  1  0  0  0  0
 20 22  2  0  0  0  0
 21 24  2  0  0  0  0
 23 21  1  0  0  0  0
 23 19  2  0  0  0  0
 24 22  1  0  0  0  0
 25 19  1  0  0  0  0
 26 27  1  0  0  0  0
 29 27  1  6  0  0  0
 29 30  1  0  0  0  0
 29 33  1  0  0  0  0
 30 28  1  6  0  0  0
 30 34  1  0  0  0  0
 32 31  1  0  0  0  0
 33 32  1  0  0  0  0
 34 31  1  0  0  0  0
M  END
>  <MODEL>
4

>  <REMARK>
 VINA RESULT:      -7.5      1.354      1.777
  Name = 
  6 active torsions:
  status: ('A' for Active; 'I' for Inactive)
    1  A    between atoms: N_1  and  C_24
    2  A    between atoms: C_3  and  C_13
    3  A    between atoms: C_3  and  C_17
    4  A    between atoms: C_4  and  C_15
    5  A    between atoms: C_12  and  C_28
    6  A    between atoms: C_17  and  C_29
                            x       y       z     vdW  Elec       q    Type
                         _______ _______ _______ _____ _____    ______ ____

>  <TORSDO>
F 6

$$$$
=
 OpenBabel10262423573D

 34 38  0  0  1  0  0  0  0  0999 V2000
  184.3070  179.0420  142.7510 C   0  0  1  0  0  3  0  0  0  0  0  0
  187.4450  177.1850  143.2910 N   0  0  0  0  0  2  0  0  0  0  0  0
  186.3740  178.7440  141.1070 C   0  0  0  0  0  2  0  0  0  0  0  0
  188.2940  177.5570  142.1910 C   0  0  0  0  0  3  0  0  0  0  0  0
  184.0290  178.4120  144.1240 C   0  0  0  0  0  2  0  0  0  0  0  0
  186.0110  177.4140  143.1660 C   0  0  1  0  0  3  0  0  0  0  0  0
  185.2180  177.4960  144.4630 C   0  0  1  0  0  3  0  0  0  0  0  0
  187.8170  178.2800  141.1570 C   0  0  0  0  0  0  0  0  0  0  0  0
  185.7790  178.7390  142.5110 C   0  0  2  0  0  3  0  0  0  0  0  0
  183.8620  178.5090  140.3280 N   0  0  0  0  0  0  0  0  0  0  0  0
  181.9180  179.0480  141.8410 C   0  0  0  0  0  0  0  0  0  0  0  0
  181.8860  179.7250  139.4320 C   0  0  0  0  0  2  0  0  0  0  0  0
  181.3140  179.7680  140.7680 N   0  0  0  0  0  2  0  0  0  0  0  0
  183.3170  178.4950  141.7010 C   0  0  2  0  0  3  0  0  0  0  0  0
  183.4070  179.6550  139.5230 C   0  0  0  0  0  2  0  0  0  0  0  0
  181.1020  178.8760  143.2470 S   0  0  0  0  0  0  0  0  0  0  0  0
  183.4980  177.2600  139.6720 C   0  0  0  0  0  2  0  0  0  0  0  0
  184.0900  177.2020  138.4090 O   0  0  0  0  0  1  0  0  0  0  0  0
  187.8670  177.9590  147.1640 C   0  0  0  0  0  0  0  0  0  0  0  0
  187.3950  179.0740  147.7840 N   0  0  0  0  0  0  0  0  0  0  0  0
  186.0050  178.0410  145.6250 C   0  0  0  0  0  0  0  0  0  0  0  0
  186.2560  179.6910  147.3670 C   0  0  0  0  0  3  0  0  0  0  0  0
  187.1810  177.4210  146.0740 C   0  0  0  0  0  3  0  0  0  0  0  0
  185.5410  179.1840  146.2800 C   0  0  0  0  0  3  0  0  0  0  0  0
  189.1130  177.3110  147.6490 C   0  0  0  0  0  1  0  0  0  0  0  0
  188.7200  178.6410  140.0280 C   0  0  0  0  0  2  0  0  0  0  0  0
  189.7440  177.5420  139.7930 C   0  0  0  0  0  2  0  0  0  0  0  0
  190.8750  175.1260  138.4710 O   0  0  0  0  0  1  0  0  0  0  0  0
  189.9990  177.3630  138.3060 C   0  0  1  0  0  3  0  0  0  0  0  0
  189.8560  175.8890  137.9000 C   0  0  1  0  0  3  0  0  0  0  0  0
  188.8990  176.6730  135.7300 C   0  0  0  0  0  2  0  0  0  0  0  0
  189.1920  178.0570  136.0960 N   0  0  0  0  0  2  0  0  0  0  0  0
  188.9850  178.2050  137.5350 C   0  0  0  0  0  2  0  0  0  0  0  0
  189.9150  175.7400  136.3820 C   0  0  0  0  0  2  0  0  0  0  0  0
  1  5  1  1  0  0  0
  3  8  1  0  0  0  0
  4  2  1  0  0  0  0
  5  7  1  0  0  0  0
  6  2  1  1  0  0  0
  6  7  1  0  0  0  0
  7 21  1  1  0  0  0
  8  4  2  0  0  0  0
  9  3  1  6  0  0  0
  9  1  1  0  0  0  0
  9  6  1  0  0  0  0
 10 14  1  0  0  0  0
 11 16  2  0  0  0  0
 12 15  1  0  0  0  0
 12 13  1  0  0  0  0
 13 11  1  0  0  0  0
 14 11  1  6  0  0  0
 14  1  1  0  0  0  0
 15 10  1  0  0  0  0
 17 10  1  0  0  0  0
 18 17  1  0  0  0  0
 19 25  1  0  0  0  0
 19 20  1  0  0  0  0
 21 23  1  0  0  0  0
 21 24  2  0  0  0  0
 22 20  2  0  0  0  0
 23 19  2  0  0  0  0
 24 22  1  0  0  0  0
 26  8  1  0  0  0  0
 27 26  1  0  0  0  0
 29 27  1  1  0  0  0
 30 29  1  0  0  0  0
 30 28  1  1  0  0  0
 31 32  1  0  0  0  0
 31 34  1  0  0  0  0
 32 33  1  0  0  0  0
 33 29  1  0  0  0  0
 34 30  1  0  0  0  0
M  END
>  <MODEL>
5

>  <REMARK>
 VINA RESULT:      -7.2      4.525      9.322
  Name = 
  6 active torsions:
  status: ('A' for Active; 'I' for Inactive)
    1  A    between atoms: N_1  and  C_24
    2  A    between atoms: C_3  and  C_13
    3  A    between atoms: C_3  and  C_17
    4  A    between atoms: C_4  and  C_15
    5  A    between atoms: C_12  and  C_28
    6  A    between atoms: C_17  and  C_29
                            x       y       z     vdW  Elec       q    Type
                         _______ _______ _______ _____ _____    ______ ____

>  <TORSDO>
F 6

$$$$
=
 OpenBabel10262423573D

 34 38  0  0  1  0  0  0  0  0999 V2000
  188.2390  177.3320  143.6310 C   0  0  1  0  0  3  0  0  0  0  0  0
  187.9760  178.7920  140.2570 N   0  0  0  0  0  2  0  0  0  0  0  0
  189.7920  176.9280  141.5120 C   0  0  0  0  0  2  0  0  0  0  0  0
  188.9110  178.0500  139.4550 C   0  0  0  0  0  3  0  0  0  0  0  0
  187.0680  178.3050  143.8350 C   0  0  0  0  0  2  0  0  0  0  0  0
  188.1230  178.7490  141.7070 C   0  0  1  0  0  3  0  0  0  0  0  0
  186.8870  179.0940  142.5270 C   0  0  1  0  0  3  0  0  0  0  0  0
  189.7740  177.1780  140.0170 C   0  0  0  0  0  0  0  0  0  0  0  0
  188.4630  177.3540  142.1260 C   0  0  2  0  0  3  0  0  0  0  0  0
  190.7440  177.4960  143.8600 N   0  0  0  0  0  0  0  0  0  0  0  0
  189.3350  177.2860  145.9410 C   0  0  0  0  0  0  0  0  0  0  0  0
  191.6060  176.2410  145.8260 C   0  0  0  0  0  2  0  0  0  0  0  0
  190.3330  176.4340  146.5000 N   0  0  0  0  0  2  0  0  0  0  0  0
  189.4400  177.7490  144.5060 C   0  0  2  0  0  3  0  0  0  0  0  0
  191.3990  176.2590  144.3150 C   0  0  0  0  0  2  0  0  0  0  0  0
  188.0460  177.7130  146.8510 S   0  0  0  0  0  0  0  0  0  0  0  0
  191.6120  178.6410  144.1020 C   0  0  0  0  0  2  0  0  0  0  0  0
  190.8570  179.8150  144.0970 O   0  0  0  0  0  1  0  0  0  0  0  0
  184.2160  178.4510  139.8860 C   0  0  0  0  0  0  0  0  0  0  0  0
  183.1700  178.0890  140.6770 N   0  0  0  0  0  0  0  0  0  0  0  0
  185.5890  178.7350  141.8540 C   0  0  0  0  0  0  0  0  0  0  0  0
  183.2860  178.0380  142.0320 C   0  0  0  0  0  3  0  0  0  0  0  0
  185.4450  178.7820  140.4600 C   0  0  0  0  0  3  0  0  0  0  0  0
  184.4990  178.3610  142.6430 C   0  0  0  0  0  3  0  0  0  0  0  0
  184.0490  178.4970  138.4110 C   0  0  0  0  0  1  0  0  0  0  0  0
  190.7360  176.4320  139.1590 C   0  0  0  0  0  2  0  0  0  0  0  0
  190.6490  176.9130  137.7190 C   0  0  0  0  0  2  0  0  0  0  0  0
  192.4330  174.6400  137.0000 O   0  0  0  0  0  1  0  0  0  0  0  0
  190.3100  175.7580  136.7920 C   0  0  1  0  0  3  0  0  0  0  0  0
  191.0620  174.4850  137.2080 C   0  0  1  0  0  3  0  0  0  0  0  0
  189.0520  173.1780  136.5050 C   0  0  0  0  0  2  0  0  0  0  0  0
  188.4350  174.3960  135.9860 N   0  0  0  0  0  2  0  0  0  0  0  0
  188.8050  175.5070  136.8610 C   0  0  0  0  0  2  0  0  0  0  0  0
  190.5710  173.2830  136.4040 C   0  0  0  0  0  2  0  0  0  0  0  0
  1  5  1  6  0  0  0
  1 14  1  0  0  0  0
  4  8  2  0  0  0  0
  4  2  1  0  0  0  0
  6  2  1  6  0  0  0
  6  9  1  0  0  0  0
  6  7  1  0  0  0  0
  7 21  1  6  0  0  0
  7  5  1  0  0  0  0
  8  3  1  0  0  0  0
  9  3  1  1  0  0  0
  9  1  1  0  0  0  0
 10 17  1  0  0  0  0
 10 15  1  0  0  0  0
 10 14  1  0  0  0  0
 11 13  1  0  0  0  0
 11 16  2  0  0  0  0
 12 13  1  0  0  0  0
 14 11  1  1  0  0  0
 15 12  1  0  0  0  0
 18 17  1  0  0  0  0
 19 23  2  0  0  0  0
 19 20  1  0  0  0  0
 20 22  2  0  0  0  0
 21 24  2  0  0  0  0
 22 24  1  0  0  0  0
 23 21  1  0  0  0  0
 25 19  1  0  0  0  0
 26  8  1  0  0  0  0
 27 26  1  0  0  0  0
 29 33  1  0  0  0  0
 29 30  1  0  0  0  0
 29 27  1  1  0  0  0
 30 28  1  6  0  0  0
 32 31  1  0  0  0  0
 32 33  1  0  0  0  0
 34 31  1  0  0  0  0
 34 30  1  0  0  0  0
M  END
>  <MODEL>
6

>  <REMARK>
 VINA RESULT:      -7.2      3.949      9.104
  Name = 
  6 active torsions:
  status: ('A' for Active; 'I' for Inactive)
    1  A    between atoms: N_1  and  C_24
    2  A    between atoms: C_3  and  C_13
    3  A    between atoms: C_3  and  C_17
    4  A    between atoms: C_4  and  C_15
    5  A    between atoms: C_12  and  C_28
    6  A    between atoms: C_17  and  C_29
                            x       y       z     vdW  Elec       q    Type
                         _______ _______ _______ _____ _____    ______ ____

>  <TORSDO>
F 6

$$$$
=
 OpenBabel10262423573D

 34 38  0  0  1  0  0  0  0  0999 V2000
  186.5250  177.6580  144.3930 C   0  0  1  0  0  3  0  0  0  0  0  0
  186.1260  179.2410  141.0890 N   0  0  0  0  0  2  0  0  0  0  0  0
  188.1420  177.5520  142.2870 C   0  0  0  0  0  2  0  0  0  0  0  0
  187.1550  178.6590  140.2690 C   0  0  0  0  0  3  0  0  0  0  0  0
  185.2400  178.4690  144.6220 C   0  0  0  0  0  2  0  0  0  0  0  0
  186.2580  179.1450  142.5370 C   0  0  1  0  0  3  0  0  0  0  0  0
  184.9800  179.2940  143.3500 C   0  0  1  0  0  3  0  0  0  0  0  0
  188.1110  177.8720  140.8050 C   0  0  0  0  0  0  0  0  0  0  0  0
  186.7620  177.7820  142.8960 C   0  0  2  0  0  3  0  0  0  0  0  0
  188.9890  177.6820  144.9170 N   0  0  0  0  0  0  0  0  0  0  0  0
  187.3380  178.0670  146.7830 C   0  0  0  0  0  0  0  0  0  0  0  0
  189.4850  176.8550  147.2100 C   0  0  0  0  0  2  0  0  0  0  0  0
  188.1700  177.2940  147.6460 N   0  0  0  0  0  2  0  0  0  0  0  0
  187.6540  178.1760  145.3090 C   0  0  2  0  0  3  0  0  0  0  0  0
  189.4560  176.5380  145.7180 C   0  0  0  0  0  2  0  0  0  0  0  0
  186.0040  178.7880  147.3940 S   0  0  0  0  0  0  0  0  0  0  0  0
  189.9390  178.7830  145.0170 C   0  0  0  0  0  2  0  0  0  0  0  0
  191.1550  178.4100  144.4440 O   0  0  0  0  0  1  0  0  0  0  0  0
  182.6450  177.6290  140.8400 C   0  0  0  0  0  0  0  0  0  0  0  0
  181.4370  177.9820  141.3560 N   0  0  0  0  0  0  0  0  0  0  0  0
  183.7440  178.8130  142.6360 C   0  0  0  0  0  0  0  0  0  0  0  0
  181.3380  178.7340  142.4850 C   0  0  0  0  0  3  0  0  0  0  0  0
  183.8210  178.0380  141.4700 C   0  0  0  0  0  3  0  0  0  0  0  0
  182.4910  179.1640  143.1450 C   0  0  0  0  0  3  0  0  0  0  0  0
  182.7130  176.8080  139.6040 C   0  0  0  0  0  1  0  0  0  0  0  0
  189.1680  177.2930  139.9300 C   0  0  0  0  0  2  0  0  0  0  0  0
  189.3840  178.1670  138.7050 C   0  0  0  0  0  2  0  0  0  0  0  0
  187.1260  178.8370  136.8830 O   0  0  0  0  0  1  0  0  0  0  0  0
  188.9910  177.4200  137.4420 C   0  0  1  0  0  3  0  0  0  0  0  0
  188.3570  178.3720  136.4180 C   0  0  1  0  0  3  0  0  0  0  0  0
  189.4550  177.0270  134.6220 C   0  0  0  0  0  2  0  0  0  0  0  0
  189.9130  176.0610  135.6190 N   0  0  0  0  0  2  0  0  0  0  0  0
  190.2460  176.7880  136.8420 C   0  0  0  0  0  2  0  0  0  0  0  0
  188.1470  177.6640  135.0820 C   0  0  0  0  0  2  0  0  0  0  0  0
  1  5  1  1  0  0  0
  1 14  1  0  0  0  0
  4  8  2  0  0  0  0
  4  2  1  0  0  0  0
  6  2  1  6  0  0  0
  6  9  1  0  0  0  0
  6  7  1  0  0  0  0
  7 21  1  6  0  0  0
  7  5  1  0  0  0  0
  8  3  1  0  0  0  0
  9  3  1  1  0  0  0
  9  1  1  0  0  0  0
 10 17  1  0  0  0  0
 10 14  1  0  0  0  0
 10 15  1  0  0  0  0
 11 16  2  0  0  0  0
 11 13  1  0  0  0  0
 12 13  1  0  0  0  0
 14 11  1  1  0  0  0
 15 12  1  0  0  0  0
 18 17  1  0  0  0  0
 19 20  2  0  0  0  0
 19 23  1  0  0  0  0
 20 22  1  0  0  0  0
 21 24  1  0  0  0  0
 22 24  2  0  0  0  0
 23 21  2  0  0  0  0
 25 19  1  0  0  0  0
 26  8  1  0  0  0  0
 27 26  1  0  0  0  0
 29 27  1  1  0  0  0
 30 28  1  1  0  0  0
 30 29  1  0  0  0  0
 31 34  1  0  0  0  0
 31 32  1  0  0  0  0
 32 33  1  0  0  0  0
 33 29  1  0  0  0  0
 34 30  1  0  0  0  0
M  END
>  <MODEL>
7

>  <REMARK>
 VINA RESULT:      -7.2      4.325     10.220
  Name = 
  6 active torsions:
  status: ('A' for Active; 'I' for Inactive)
    1  A    between atoms: N_1  and  C_24
    2  A    between atoms: C_3  and  C_13
    3  A    between atoms: C_3  and  C_17
    4  A    between atoms: C_4  and  C_15
    5  A    between atoms: C_12  and  C_28
    6  A    between atoms: C_17  and  C_29
                            x       y       z     vdW  Elec       q    Type
                         _______ _______ _______ _____ _____    ______ ____

>  <TORSDO>
F 6

$$$$
=
 OpenBabel10262423573D

 34 38  0  0  1  0  0  0  0  0999 V2000
  186.8500  177.5410  144.1970 C   0  0  1  0  0  3  0  0  0  0  0  0
  186.6390  179.0400  140.8370 N   0  0  0  0  0  2  0  0  0  0  0  0
  188.5580  177.3410  142.1710 C   0  0  0  0  0  2  0  0  0  0  0  0
  187.6900  178.4130  140.0810 C   0  0  0  0  0  3  0  0  0  0  0  0
  185.5750  178.3860  144.3450 C   0  0  0  0  0  2  0  0  0  0  0  0
  186.7030  178.9810  142.2920 C   0  0  1  0  0  3  0  0  0  0  0  0
  185.3920  179.1810  143.0400 C   0  0  1  0  0  3  0  0  0  0  0  0
  188.6020  177.6210  140.6810 C   0  0  0  0  0  0  0  0  0  0  0  0
  187.1580  177.6180  142.7090 C   0  0  2  0  0  3  0  0  0  0  0  0
  189.3080  177.6580  144.7380 N   0  0  0  0  0  0  0  0  0  0  0  0
  187.6330  177.8440  146.6130 C   0  0  0  0  0  0  0  0  0  0  0  0
  189.8380  176.7200  146.9800 C   0  0  0  0  0  2  0  0  0  0  0  0
  188.5000  177.0640  147.4330 N   0  0  0  0  0  2  0  0  0  0  0  0
  187.9480  178.0580  145.1500 C   0  0  2  0  0  3  0  0  0  0  0  0
  189.8300  176.4930  145.4710 C   0  0  0  0  0  2  0  0  0  0  0  0
  186.2610  178.4580  147.2570 S   0  0  0  0  0  0  0  0  0  0  0  0
  190.1990  178.7980  144.9100 C   0  0  0  0  0  2  0  0  0  0  0  0
  191.1430  178.8180  143.8820 O   0  0  0  0  0  1  0  0  0  0  0  0
  181.7910  178.4440  142.0360 C   0  0  0  0  0  0  0  0  0  0  0  0
  181.9920  177.7900  140.8600 N   0  0  0  0  0  0  0  0  0  0  0  0
  184.1800  178.7070  142.2840 C   0  0  0  0  0  0  0  0  0  0  0  0
  183.2430  177.5770  140.3700 C   0  0  0  0  0  3  0  0  0  0  0  0
  182.8810  178.9140  142.7700 C   0  0  0  0  0  3  0  0  0  0  0  0
  184.3590  178.0310  141.0750 C   0  0  0  0  0  3  0  0  0  0  0  0
  180.4100  178.6570  142.5410 C   0  0  0  0  0  1  0  0  0  0  0  0
  189.6850  176.9950  139.8720 C   0  0  0  0  0  2  0  0  0  0  0  0
  189.7730  177.6500  138.5030 C   0  0  0  0  0  2  0  0  0  0  0  0
  192.4610  176.5180  137.9050 O   0  0  0  0  0  1  0  0  0  0  0  0
  190.1010  176.6150  137.4390 C   0  0  1  0  0  3  0  0  0  0  0  0
  191.2970  175.7520  137.8670 C   0  0  1  0  0  3  0  0  0  0  0  0
  190.1920  173.8200  136.7310 C   0  0  0  0  0  2  0  0  0  0  0  0
  189.1520  174.7100  136.2190 N   0  0  0  0  0  2  0  0  0  0  0  0
  188.8760  175.7260  137.2330 C   0  0  0  0  0  2  0  0  0  0  0  0
  191.4980  174.5910  136.8950 C   0  0  0  0  0  2  0  0  0  0  0  0
  1  5  1  6  0  0  0
  1 14  1  0  0  0  0
  4  8  2  0  0  0  0
  4  2  1  0  0  0  0
  6  2  1  6  0  0  0
  6  9  1  0  0  0  0
  6  7  1  0  0  0  0
  7 21  1  6  0  0  0
  7  5  1  0  0  0  0
  8  3  1  0  0  0  0
  9  3  1  1  0  0  0
  9  1  1  0  0  0  0
 10 17  1  0  0  0  0
 10 14  1  0  0  0  0
 10 15  1  0  0  0  0
 11 16  2  0  0  0  0
 11 13  1  0  0  0  0
 12 13  1  0  0  0  0
 14 11  1  1  0  0  0
 15 12  1  0  0  0  0
 18 17  1  0  0  0  0
 19 25  1  0  0  0  0
 19 23  1  0  0  0  0
 20 19  2  0  0  0  0
 21 23  2  0  0  0  0
 22 20  1  0  0  0  0
 22 24  2  0  0  0  0
 24 21  1  0  0  0  0
 26  8  1  0  0  0  0
 27 26  1  0  0  0  0
 29 30  1  0  0  0  0
 29 27  1  1  0  0  0
 30 28  1  6  0  0  0
 31 34  1  0  0  0  0
 32 31  1  0  0  0  0
 32 33  1  0  0  0  0
 33 29  1  0  0  0  0
 34 30  1  0  0  0  0
M  END
>  <MODEL>
8

>  <REMARK>
 VINA RESULT:      -7.1      4.111      9.917
  Name = 
  6 active torsions:
  status: ('A' for Active; 'I' for Inactive)
    1  A    between atoms: N_1  and  C_24
    2  A    between atoms: C_3  and  C_13
    3  A    between atoms: C_3  and  C_17
    4  A    between atoms: C_4  and  C_15
    5  A    between atoms: C_12  and  C_28
    6  A    between atoms: C_17  and  C_29
                            x       y       z     vdW  Elec       q    Type
                         _______ _______ _______ _____ _____    ______ ____

>  <TORSDO>
F 6

$$$$
=
 OpenBabel10262423573D

 34 38  0  0  1  0  0  0  0  0999 V2000
  183.1480  178.0140  141.0640 C   0  0  1  0  0  3  0  0  0  0  0  0
  186.5700  178.7110  139.8870 N   0  0  0  0  0  0  0  0  0  0  0  0
  185.4160  178.0380  142.4490 C   0  0  0  0  0  2  0  0  0  0  0  0
  187.4240  178.3510  140.9870 C   0  0  0  0  0  3  0  0  0  0  0  0
  182.8720  178.3890  139.6000 C   0  0  0  0  0  2  0  0  0  0  0  0
  185.1570  178.9440  140.1570 C   0  0  1  0  0  3  0  0  0  0  0  0
  184.2080  178.8220  138.9720 C   0  0  1  0  0  3  0  0  0  0  0  0
  186.9110  178.0380  142.1940 C   0  0  2  0  0  3  0  0  0  0  0  0
  184.6650  177.9170  141.1270 C   0  0  2  0  0  3  0  0  0  0  0  0
  182.6140  178.6720  143.4370 N   0  0  0  0  0  0  0  0  0  0  0  0
  181.1040  179.4630  141.5780 C   0  0  0  0  0  0  0  0  0  0  0  0
  180.1700  178.9120  143.8330 C   0  0  0  0  0  2  0  0  0  0  0  0
  179.9820  179.2490  142.4320 N   0  0  0  0  0  2  0  0  0  0  0  0
  182.4880  179.0380  142.0120 C   0  0  2  0  0  3  0  0  0  0  0  0
  181.4090  178.0350  143.9930 C   0  0  0  0  0  2  0  0  0  0  0  0
  180.8700  180.1200  140.1000 S   0  0  0  0  0  0  0  0  0  0  0  0
  182.9410  179.8720  144.1970 C   0  0  0  0  0  2  0  0  0  0  0  0
  183.7630  179.5380  145.2740 O   0  0  0  0  0  1  0  0  0  0  0  0
  184.4230  175.7620  136.7110 C   0  0  0  0  0  0  0  0  0  0  0  0
  185.5550  176.0500  136.0140 N   0  0  0  0  0  0  0  0  0  0  0  0
  184.6600  177.8360  137.9280 C   0  0  0  0  0  0  0  0  0  0  0  0
  186.2570  177.1940  136.2390 C   0  0  0  0  0  3  0  0  0  0  0  0
  183.9540  176.6490  137.6810 C   0  0  0  0  0  3  0  0  0  0  0  0
  185.8210  178.1070  137.2010 C   0  0  0  0  0  3  0  0  0  0  0  0
  183.6850  174.5020  136.4400 C   0  0  0  0  0  1  0  0  0  0  0  0
  187.8230  177.6790  143.3160 C   0  0  0  0  0  2  0  0  0  0  0  0
  187.1080  177.8190  144.6500 C   0  0  0  0  0  2  0  0  0  0  0  0
  186.4800  178.5130  147.4770 O   0  0  0  0  0  1  0  0  0  0  0  0
  188.1110  178.0380  145.7700 C   0  0  1  0  0  3  0  0  0  0  0  0
  187.5110  177.6410  147.1270 C   0  0  1  0  0  3  0  0  0  0  0  0
  189.7790  176.8320  147.7910 C   0  0  0  0  0  2  0  0  0  0  0  0
  190.3370  177.3610  146.5480 N   0  0  0  0  0  2  0  0  0  0  0  0
  189.3460  177.1840  145.4890 C   0  0  0  0  0  2  0  0  0  0  0  0
  188.5790  177.6710  148.2180 C   0  0  0  0  0  2  0  0  0  0  0  0
  1  5  1  6  0  0  0
  1  9  1  0  0  0  0
  1 14  1  0  0  0  0
  2  4  2  0  0  0  0
  4  8  1  0  0  0  0
  6  2  1  6  0  0  0
  6  9  1  0  0  0  0
  7 21  1  6  0  0  0
  7  5  1  0  0  0  0
  7  6  1  0  0  0  0
  8  3  1  0  0  0  0
  8 26  1  6  0  0  0
  9  3  1  1  0  0  0
 10 15  1  0  0  0  0
 10 17  1  0  0  0  0
 11 13  1  0  0  0  0
 12 15  1  0  0  0  0
 13 12  1  0  0  0  0
 14 11  1  6  0  0  0
 14 10  1  0  0  0  0
 16 11  2  0  0  0  0
 17 18  1  0  0  0  0
 19 23  1  0  0  0  0
 20 22  1  0  0  0  0
 20 19  2  0  0  0  0
 22 24  2  0  0  0  0
 23 21  2  0  0  0  0
 24 21  1  0  0  0  0
 25 19  1  0  0  0  0
 26 27  1  0  0  0  0
 29 27  1  6  0  0  0
 29 30  1  0  0  0  0
 30 28  1  1  0  0  0
 30 34  1  0  0  0  0
 31 34  1  0  0  0  0
 32 31  1  0  0  0  0
 33 29  1  0  0  0  0
 33 32  1  0  0  0  0
M  END
>  <MODEL>
9

>  <REMARK>
 VINA RESULT:      -6.8      6.422      8.607
  Name = 
  6 active torsions:
  status: ('A' for Active; 'I' for Inactive)
    1  A    between atoms: N_1  and  C_24
    2  A    between atoms: C_3  and  C_13
    3  A    between atoms: C_3  and  C_17
    4  A    between atoms: C_4  and  C_15
    5  A    between atoms: C_12  and  C_28
    6  A    between atoms: C_17  and  C_29
                            x       y       z     vdW  Elec       q    Type
                         _______ _______ _______ _____ _____    ______ ____

>  <TORSDO>
F 6

$$$$
