=
 OpenBabel10272401513D

 28 33  0  0  1  0  0  0  0  0999 V2000
  189.0000  177.4430  145.7500 C   0  0  2  0  0  3  0  0  0  0  0  0
  189.6250  176.6250  144.5910 C   0  0  1  0  0  3  0  0  0  0  0  0
  187.6210  177.2650  143.1080 C   0  0  2  0  0  3  0  0  0  0  0  0
  183.7190  178.4130  142.5580 C   0  0  0  0  0  3  0  0  0  0  0  0
  188.1200  179.0720  148.6080 O   0  0  0  0  0  1  0  0  0  0  0  0
  191.7830  176.9310  143.3890 O   0  0  0  0  0  0  0  0  0  0  0  0
  189.1410  177.0760  143.1910 C   0  0  1  0  0  3  0  0  0  0  0  0
  191.8120  177.2210  145.7330 N   0  0  0  0  0  1  0  0  0  0  0  0
  185.7660  178.7040  140.3050 C   0  0  0  0  0  3  0  0  0  0  0  0
  185.6450  178.6220  144.0770 C   0  0  2  0  0  3  0  0  0  0  0  0
  191.1850  176.5340  144.6090 C   0  0  1  0  0  3  0  0  0  0  0  0
  183.3170  179.1760  140.2540 C   0  0  0  0  0  0  0  0  0  0  0  0
  185.0510  178.4220  142.6960 C   0  0  0  0  0  0  0  0  0  0  0  0
  187.2550  177.7310  141.8130 O   0  0  0  0  0  0  0  0  0  0  0  0
  184.5500  179.3600  139.7880 C   0  0  0  0  0  3  0  0  0  0  0  0
  186.8510  178.4490  146.6730 C   0  0  1  0  0  3  0  0  0  0  0  0
  187.1520  178.2380  144.1920 C   0  0  1  0  0  3  0  0  0  0  0  0
  185.9940  178.2660  141.5530 C   0  0  0  0  0  0  0  0  0  0  0  0
  188.1060  176.7320  148.0780 C   0  0  0  0  0  2  0  0  0  0  0  0
  185.3190  178.4000  146.5910 C   0  0  0  0  0  2  0  0  0  0  0  0
  187.3300  178.0520  148.0750 C   0  0  1  0  0  3  0  0  0  0  0  0
  191.3810  178.2530  143.1140 C   0  0  0  0  0  2  0  0  0  0  0  0
  182.2930  179.8620  139.6920 F   0  0  0  0  0  0  0  0  0  0  0  0
  183.0100  178.1380  141.2760 C   0  0  0  0  0  2  0  0  0  0  0  0
  184.7940  178.0040  145.2020 C   0  0  0  0  0  2  0  0  0  0  0  0
  189.2910  176.7580  147.1020 C   0  0  0  0  0  2  0  0  0  0  0  0
  187.4900  177.6220  145.5500 C   0  0  1  0  0  3  0  0  0  0  0  0
  189.9120  178.3040  142.6870 C   0  0  0  0  0  2  0  0  0  0  0  0
  1 26  1  1  0  0  0
  2 11  1  0  0  0  0
  2  1  1  0  0  0  0
  3  7  1  0  0  0  0
  3 17  1  0  0  0  0
  4 13  2  0  0  0  0
  6 11  1  0  0  0  0
  7  2  1  0  0  0  0
  9 18  2  0  0  0  0
 10 17  1  0  0  0  0
 10 25  1  0  0  0  0
 11  8  1  0  0  0  0
 12 24  1  0  0  0  0
 13 10  1  0  0  0  0
 14  3  1  0  0  0  0
 15 12  2  0  0  0  0
 15  9  1  0  0  0  0
 16 21  1  0  0  0  0
 17 27  1  0  0  0  0
 18 14  1  0  0  0  0
 18 13  1  0  0  0  0
 20 16  1  0  0  0  0
 21 19  1  0  0  0  0
 21  5  1  0  0  0  0
 22  6  1  0  0  0  0
 23 12  1  0  0  0  0
 24  4  1  0  0  0  0
 25 20  1  0  0  0  0
 26 19  1  0  0  0  0
 27  1  1  0  0  0  0
 27 16  1  0  0  0  0
 28 22  1  0  0  0  0
 28  7  1  0  0  0  0
M  END
>  <MODEL>
1

>  <REMARK>
 VINA RESULT:     -10.7      0.000      0.000
  Name = 
  0 active torsions:
  status: ('A' for Active; 'I' for Inactive)
                            x       y       z     vdW  Elec       q    Type
                         _______ _______ _______ _____ _____    ______ ____

>  <TORSDO>
F 0

$$$$
=
 OpenBabel10272401513D

 28 33  0  0  1  0  0  0  0  0999 V2000
  187.9300  177.7960  145.0070 C   0  0  2  0  0  3  0  0  0  0  0  0
  189.0990  176.8350  144.6690 C   0  0  1  0  0  3  0  0  0  0  0  0
  188.6430  177.2220  142.1660 C   0  0  2  0  0  3  0  0  0  0  0  0
  186.1960  178.2050  139.0200 C   0  0  0  0  0  3  0  0  0  0  0  0
  185.5100  179.7950  146.3280 O   0  0  0  0  0  1  0  0  0  0  0  0
  191.5260  177.0100  145.1910 O   0  0  0  0  0  0  0  0  0  0  0  0
  189.7040  177.0750  143.2650 C   0  0  1  0  0  3  0  0  0  0  0  0
  190.0160  177.6280  146.8990 N   0  0  0  0  0  1  0  0  0  0  0  0
  189.2370  178.2150  138.6980 C   0  0  0  0  0  3  0  0  0  0  0  0
  186.6380  178.6630  141.3980 C   0  0  2  0  0  3  0  0  0  0  0  0
  190.2400  176.7780  145.7350 C   0  0  1  0  0  3  0  0  0  0  0  0
  187.4870  178.6270  136.9690 C   0  0  0  0  0  0  0  0  0  0  0  0
  187.0970  178.2590  140.0100 C   0  0  0  0  0  0  0  0  0  0  0  0
  189.2670  177.4930  140.9150 O   0  0  0  0  0  0  0  0  0  0  0  0
  188.7280  178.7680  137.4280 C   0  0  0  0  0  3  0  0  0  0  0  0
  185.7990  178.8810  144.1320 C   0  0  1  0  0  3  0  0  0  0  0  0
  187.6530  178.3280  142.5340 C   0  0  1  0  0  3  0  0  0  0  0  0
  188.5440  177.9620  139.8180 C   0  0  0  0  0  0  0  0  0  0  0  0
  185.6640  177.4040  146.2040 C   0  0  0  0  0  2  0  0  0  0  0  0
  184.7100  178.7920  143.0530 C   0  0  0  0  0  2  0  0  0  0  0  0
  185.1940  178.6940  145.5280 C   0  0  1  0  0  3  0  0  0  0  0  0
  191.5150  178.2730  144.5650 C   0  0  0  0  0  2  0  0  0  0  0  0
  187.1530  179.2080  135.7910 F   0  0  0  0  0  0  0  0  0  0  0  0
  186.4980  177.7380  137.6370 C   0  0  0  0  0  2  0  0  0  0  0  0
  185.2090  178.1940  141.7290 C   0  0  0  0  0  2  0  0  0  0  0  0
  187.1960  177.3150  146.2760 C   0  0  0  0  0  2  0  0  0  0  0  0
  186.9530  177.9160  143.8310 C   0  0  1  0  0  3  0  0  0  0  0  0
  190.7090  178.2340  143.2640 C   0  0  0  0  0  2  0  0  0  0  0  0
  1 26  1  1  0  0  0
  2  1  1  0  0  0  0
  2 11  1  0  0  0  0
  3 17  1  0  0  0  0
  3  7  1  0  0  0  0
  4 13  2  0  0  0  0
  6 11  1  0  0  0  0
  7  2  1  0  0  0  0
  9 18  2  0  0  0  0
 10 25  1  0  0  0  0
 10 17  1  0  0  0  0
 11  8  1  0  0  0  0
 12 15  2  0  0  0  0
 12 24  1  0  0  0  0
 13 10  1  0  0  0  0
 14  3  1  0  0  0  0
 15  9  1  0  0  0  0
 16 21  1  0  0  0  0
 17 27  1  0  0  0  0
 18 13  1  0  0  0  0
 18 14  1  0  0  0  0
 19 26  1  0  0  0  0
 20 16  1  0  0  0  0
 21 19  1  0  0  0  0
 21  5  1  0  0  0  0
 22  6  1  0  0  0  0
 23 12  1  0  0  0  0
 24  4  1  0  0  0  0
 25 20  1  0  0  0  0
 27 16  1  0  0  0  0
 27  1  1  0  0  0  0
 28  7  1  0  0  0  0
 28 22  1  0  0  0  0
M  END
>  <MODEL>
2

>  <REMARK>
 VINA RESULT:     -10.4      2.276      3.167
  Name = 
  0 active torsions:
  status: ('A' for Active; 'I' for Inactive)
                            x       y       z     vdW  Elec       q    Type
                         _______ _______ _______ _____ _____    ______ ____

>  <TORSDO>
F 0

$$$$
=
 OpenBabel10272401513D

 28 33  0  0  1  0  0  0  0  0999 V2000
  187.1840  178.2050  141.2810 C   0  0  2  0  0  3  0  0  0  0  0  0
  188.5380  178.6490  140.6710 C   0  0  1  0  0  3  0  0  0  0  0  0
  189.7160  177.8790  142.8260 C   0  0  2  0  0  3  0  0  0  0  0  0
  189.7740  177.0400  146.8440 C   0  0  0  0  0  3  0  0  0  0  0  0
  183.9720  177.4150  142.0910 O   0  0  0  0  0  1  0  0  0  0  0  0
  189.7310  177.8410  138.6410 O   0  0  0  0  0  0  0  0  0  0  0  0
  189.7570  177.9250  141.2930 C   0  0  1  0  0  3  0  0  0  0  0  0
  187.3920  178.1250  138.4690 N   0  0  0  0  0  1  0  0  0  0  0  0
  191.9820  176.0040  144.9990 C   0  0  0  0  0  3  0  0  0  0  0  0
  188.3470  177.0080  144.8380 C   0  0  2  0  0  3  0  0  0  0  0  0
  188.6190  178.5810  139.1120 C   0  0  1  0  0  3  0  0  0  0  0  0
  191.7950  175.7880  147.4770 C   0  0  0  0  0  0  0  0  0  0  0  0
  189.7040  176.9280  145.5110 C   0  0  0  0  0  0  0  0  0  0  0  0
  190.8360  177.1540  143.3240 O   0  0  0  0  0  0  0  0  0  0  0  0
  192.2600  175.3710  146.3020 C   0  0  0  0  0  3  0  0  0  0  0  0
  185.9370  177.6790  143.4370 C   0  0  1  0  0  3  0  0  0  0  0  0
  188.4050  177.2510  143.2990 C   0  0  1  0  0  3  0  0  0  0  0  0
  190.8940  176.7050  144.6430 C   0  0  0  0  0  0  0  0  0  0  0  0
  185.0640  179.5450  141.9370 C   0  0  0  0  0  2  0  0  0  0  0  0
  185.9540  177.8640  144.9610 C   0  0  0  0  0  2  0  0  0  0  0  0
  184.7020  178.3520  142.8240 C   0  0  1  0  0  3  0  0  0  0  0  0
  189.6500  176.5400  139.1770 C   0  0  0  0  0  2  0  0  0  0  0  0
  192.1190  175.0960  148.5950 F   0  0  0  0  0  0  0  0  0  0  0  0
  191.0490  177.0690  147.6160 C   0  0  0  0  0  2  0  0  0  0  0  0
  187.3700  177.9640  145.5480 C   0  0  0  0  0  2  0  0  0  0  0  0
  186.0600  179.1630  140.8330 C   0  0  0  0  0  2  0  0  0  0  0  0
  187.2590  178.1390  142.8110 C   0  0  1  0  0  3  0  0  0  0  0  0
  189.9780  176.5390  140.6720 C   0  0  0  0  0  2  0  0  0  0  0  0
  1 26  1  1  0  0  0
  1 27  1  0  0  0  0
  2  1  1  0  0  0  0
  2  7  1  0  0  0  0
  3 17  1  0  0  0  0
  3 14  1  0  0  0  0
  4 24  1  0  0  0  0
  5 21  1  0  0  0  0
  6 11  1  0  0  0  0
  6 22  1  0  0  0  0
  7  3  1  0  0  0  0
  8 11  1  0  0  0  0
  9 15  1  0  0  0  0
 10 13  1  0  0  0  0
 10 25  1  0  0  0  0
 11  2  1  0  0  0  0
 12 24  1  0  0  0  0
 12 23  1  0  0  0  0
 13  4  2  0  0  0  0
 14 18  1  0  0  0  0
 15 12  2  0  0  0  0
 16 20  1  0  0  0  0
 17 10  1  0  0  0  0
 18  9  2  0  0  0  0
 18 13  1  0  0  0  0
 19 21  1  0  0  0  0
 20 25  1  0  0  0  0
 21 16  1  0  0  0  0
 22 28  1  0  0  0  0
 26 19  1  0  0  0  0
 27 17  1  0  0  0  0
 27 16  1  0  0  0  0
 28  7  1  0  0  0  0
M  END
>  <MODEL>
3

>  <REMARK>
 VINA RESULT:      -9.9      3.630      6.658
  Name = 
  0 active torsions:
  status: ('A' for Active; 'I' for Inactive)
                            x       y       z     vdW  Elec       q    Type
                         _______ _______ _______ _____ _____    ______ ____

>  <TORSDO>
F 0

$$$$
=
 OpenBabel10272401513D

 28 33  0  0  1  0  0  0  0  0999 V2000
  186.4760  178.2280  140.3300 C   0  0  2  0  0  3  0  0  0  0  0  0
  187.9490  178.7070  140.2690 C   0  0  1  0  0  3  0  0  0  0  0  0
  188.0820  178.4990  142.8310 C   0  0  2  0  0  3  0  0  0  0  0  0
  186.3930  178.4420  146.5720 C   0  0  0  0  0  3  0  0  0  0  0  0
  183.2550  177.2290  139.8580 O   0  0  0  0  0  1  0  0  0  0  0  0
  189.9300  177.6790  139.1670 O   0  0  0  0  0  0  0  0  0  0  0  0
  188.7900  178.2620  141.4910 C   0  0  1  0  0  3  0  0  0  0  0  0
  187.8980  177.6480  137.9640 N   0  0  0  0  0  1  0  0  0  0  0  0
  189.2110  177.3460  146.1120 C   0  0  0  0  0  3  0  0  0  0  0  0
  185.9910  177.8650  144.2130 C   0  0  2  0  0  3  0  0  0  0  0  0
  188.7070  178.3580  138.9480 C   0  0  1  0  0  3  0  0  0  0  0  0
  187.9630  177.5780  148.2590 C   0  0  0  0  0  0  0  0  0  0  0  0
  186.9170  178.0740  145.3950 C   0  0  0  0  0  0  0  0  0  0  0  0
  188.8880  178.0180  143.9020 O   0  0  0  0  0  0  0  0  0  0  0  0
  188.9050  177.0060  147.5150 C   0  0  0  0  0  3  0  0  0  0  0  0
  184.4230  177.9720  141.8140 C   0  0  1  0  0  3  0  0  0  0  0  0
  186.7110  177.8210  142.8300 C   0  0  1  0  0  3  0  0  0  0  0  0
  188.3730  177.8340  145.1850 C   0  0  0  0  0  0  0  0  0  0  0  0
  184.2500  179.4070  139.7150 C   0  0  0  0  0  2  0  0  0  0  0  0
  183.7660  178.4390  143.1200 C   0  0  0  0  0  2  0  0  0  0  0  0
  183.5660  178.3670  140.6050 C   0  0  1  0  0  3  0  0  0  0  0  0
  189.6550  176.5020  139.8900 C   0  0  0  0  0  2  0  0  0  0  0  0
  187.7800  177.1510  149.5310 F   0  0  0  0  0  0  0  0  0  0  0  0
  187.1990  178.7650  147.7840 C   0  0  0  0  0  2  0  0  0  0  0  0
  184.7780  178.8150  144.2130 C   0  0  0  0  0  2  0  0  0  0  0  0
  185.6390  178.9450  139.2500 C   0  0  0  0  0  2  0  0  0  0  0  0
  185.8740  178.4600  141.7210 C   0  0  1  0  0  3  0  0  0  0  0  0
  189.2940  176.8200  141.3430 C   0  0  0  0  0  2  0  0  0  0  0  0
  1 26  1  6  0  0  0
  1 27  1  0  0  0  0
  2  1  1  0  0  0  0
  2  7  1  0  0  0  0
  3 14  1  0  0  0  0
  4 24  1  0  0  0  0
  5 21  1  0  0  0  0
  6 22  1  0  0  0  0
  7  3  1  0  0  0  0
  8 11  1  0  0  0  0
  9 15  1  0  0  0  0
 10 25  1  0  0  0  0
 10 13  1  0  0  0  0
 11  6  1  0  0  0  0
 11  2  1  0  0  0  0
 12 23  1  0  0  0  0
 13  4  2  0  0  0  0
 14 18  1  0  0  0  0
 15 12  2  0  0  0  0
 16 20  1  0  0  0  0
 17  3  1  0  0  0  0
 17 10  1  0  0  0  0
 18 13  1  0  0  0  0
 18  9  2  0  0  0  0
 19 21  1  0  0  0  0
 20 25  1  0  0  0  0
 21 16  1  0  0  0  0
 22 28  1  0  0  0  0
 24 12  1  0  0  0  0
 26 19  1  0  0  0  0
 27 16  1  0  0  0  0
 27 17  1  0  0  0  0
 28  7  1  0  0  0  0
M  END
>  <MODEL>
4

>  <REMARK>
 VINA RESULT:      -9.9      3.255      6.311
  Name = 
  0 active torsions:
  status: ('A' for Active; 'I' for Inactive)
                            x       y       z     vdW  Elec       q    Type
                         _______ _______ _______ _____ _____    ______ ____

>  <TORSDO>
F 0

$$$$
=
 OpenBabel10272401513D

 28 33  0  0  1  0  0  0  0  0999 V2000
  187.7910  177.9100  145.1640 C   0  0  2  0  0  3  0  0  0  0  0  0
  188.4720  177.0290  144.0860 C   0  0  1  0  0  3  0  0  0  0  0  0
  186.5720  177.6230  142.4540 C   0  0  2  0  0  3  0  0  0  0  0  0
  182.7280  178.7930  141.6130 C   0  0  0  0  0  3  0  0  0  0  0  0
  186.7660  179.6870  147.8820 O   0  0  0  0  0  1  0  0  0  0  0  0
  190.7040  177.2480  143.0040 O   0  0  0  0  0  0  0  0  0  0  0  0
  188.0810  177.4170  142.6390 C   0  0  1  0  0  3  0  0  0  0  0  0
  190.5950  177.6510  145.3290 N   0  0  0  0  0  1  0  0  0  0  0  0
  184.9130  178.9480  139.4780 C   0  0  0  0  0  3  0  0  0  0  0  0
  184.5630  179.0500  143.2350 C   0  0  2  0  0  3  0  0  0  0  0  0
  190.0270  176.9180  144.2030 C   0  0  1  0  0  3  0  0  0  0  0  0
  182.4790  179.4480  139.2550 C   0  0  0  0  0  0  0  0  0  0  0  0
  184.0510  178.7910  141.8310 C   0  0  0  0  0  0  0  0  0  0  0  0
  186.2930  178.0290  141.1190 O   0  0  0  0  0  0  0  0  0  0  0  0
  183.7410  179.5940  138.8570 C   0  0  0  0  0  3  0  0  0  0  0  0
  185.6070  178.9870  145.9050 C   0  0  1  0  0  3  0  0  0  0  0  0
  186.0540  178.6520  143.4600 C   0  0  1  0  0  3  0  0  0  0  0  0
  185.0580  178.5680  140.7570 C   0  0  0  0  0  0  0  0  0  0  0  0
  186.7470  177.3250  147.4640 C   0  0  0  0  0  2  0  0  0  0  0  0
  184.0820  178.9550  145.7320 C   0  0  0  0  0  2  0  0  0  0  0  0
  185.9940  178.6520  147.3510 C   0  0  1  0  0  3  0  0  0  0  0  0
  190.3400  178.5610  142.6430 C   0  0  0  0  0  2  0  0  0  0  0  0
  181.5020  180.1190  138.5990 F   0  0  0  0  0  0  0  0  0  0  0  0
  182.0950  178.4650  140.3040 C   0  0  0  0  0  2  0  0  0  0  0  0
  183.6360  178.4990  144.3340 C   0  0  0  0  0  2  0  0  0  0  0  0
  187.9900  177.2880  146.5620 C   0  0  0  0  0  2  0  0  0  0  0  0
  186.2990  178.0990  144.8640 C   0  0  1  0  0  3  0  0  0  0  0  0
  188.9000  178.6100  142.1250 C   0  0  0  0  0  2  0  0  0  0  0  0
  1 26  1  1  0  0  0
  2 11  1  0  0  0  0
  2  1  1  0  0  0  0
  3  7  1  0  0  0  0
  3 17  1  0  0  0  0
  4 13  2  0  0  0  0
  6 11  1  0  0  0  0
  7  2  1  0  0  0  0
  9 18  2  0  0  0  0
 10 17  1  0  0  0  0
 10 25  1  0  0  0  0
 11  8  1  0  0  0  0
 12 24  1  0  0  0  0
 13 10  1  0  0  0  0
 14  3  1  0  0  0  0
 15 12  2  0  0  0  0
 15  9  1  0  0  0  0
 16 21  1  0  0  0  0
 17 27  1  0  0  0  0
 18 14  1  0  0  0  0
 18 13  1  0  0  0  0
 20 16  1  0  0  0  0
 21 19  1  0  0  0  0
 21  5  1  0  0  0  0
 22  6  1  0  0  0  0
 23 12  1  0  0  0  0
 24  4  1  0  0  0  0
 25 20  1  0  0  0  0
 26 19  1  0  0  0  0
 27  1  1  0  0  0  0
 27 16  1  0  0  0  0
 28  7  1  0  0  0  0
 28 22  1  0  0  0  0
M  END
>  <MODEL>
5

>  <REMARK>
 VINA RESULT:      -9.2      1.122      1.389
  Name = 
  0 active torsions:
  status: ('A' for Active; 'I' for Inactive)
                            x       y       z     vdW  Elec       q    Type
                         _______ _______ _______ _____ _____    ______ ____

>  <TORSDO>
F 0

$$$$
=
 OpenBabel10272401513D

 28 33  0  0  1  0  0  0  0  0999 V2000
  186.6660  178.1710  144.6660 C   0  0  2  0  0  3  0  0  0  0  0  0
  187.5580  176.9740  145.0810 C   0  0  1  0  0  3  0  0  0  0  0  0
  188.4020  176.8120  142.6550 C   0  0  2  0  0  3  0  0  0  0  0  0
  188.0000  177.4020  138.6130 C   0  0  0  0  0  3  0  0  0  0  0  0
  184.5390  180.8110  144.3400 O   0  0  0  0  0  1  0  0  0  0  0  0
  189.4370  176.8560  146.7100 O   0  0  0  0  0  0  0  0  0  0  0  0
  188.7710  176.7590  144.1430 C   0  0  1  0  0  3  0  0  0  0  0  0
  187.5430  178.1170  147.3460 N   0  0  0  0  0  1  0  0  0  0  0  0
  190.7390  176.8180  139.8420 C   0  0  0  0  0  3  0  0  0  0  0  0
  187.4250  178.3420  140.8140 C   0  0  2  0  0  3  0  0  0  0  0  0
  188.0340  176.9840  146.5690 C   0  0  1  0  0  3  0  0  0  0  0  0
  190.1380  177.0890  137.4360 C   0  0  0  0  0  0  0  0  0  0  0  0
  188.3350  177.5410  139.9030 C   0  0  0  0  0  0  0  0  0  0  0  0
  189.5710  176.6620  141.8550 O   0  0  0  0  0  0  0  0  0  0  0  0
  191.0250  177.1250  138.4280 C   0  0  0  0  0  3  0  0  0  0  0  0
  185.5340  179.3560  142.7170 C   0  0  1  0  0  3  0  0  0  0  0  0
  187.6870  178.1260  142.3360 C   0  0  1  0  0  3  0  0  0  0  0  0
  189.5750  176.9660  140.4940 C   0  0  0  0  0  0  0  0  0  0  0  0
  184.0910  178.4710  144.6220 C   0  0  0  0  0  2  0  0  0  0  0  0
  185.0690  179.1930  141.2630 C   0  0  0  0  0  2  0  0  0  0  0  0
  184.3390  179.6190  143.6410 C   0  0  1  0  0  3  0  0  0  0  0  0
  190.0450  177.9120  146.0020 C   0  0  0  0  0  2  0  0  0  0  0  0
  190.5390  177.4140  136.1840 F   0  0  0  0  0  0  0  0  0  0  0  0
  188.7570  176.5690  137.6360 C   0  0  0  0  0  2  0  0  0  0  0  0
  185.9330  178.2160  140.4510 C   0  0  0  0  0  2  0  0  0  0  0  0
  185.3390  178.1440  145.4540 C   0  0  0  0  0  2  0  0  0  0  0  0
  186.3960  178.1660  143.1560 C   0  0  1  0  0  3  0  0  0  0  0  0
  189.9360  177.6960  144.4910 C   0  0  0  0  0  2  0  0  0  0  0  0
  1  2  1  0  0  0  0
  1 26  1  1  0  0  0
  2 11  1  0  0  0  0
  3  7  1  0  0  0  0
  4 13  2  0  0  0  0
  7 28  1  0  0  0  0
  7  2  1  0  0  0  0
  9 18  2  0  0  0  0
 10 17  1  0  0  0  0
 11  6  1  0  0  0  0
 11  8  1  0  0  0  0
 12 24  1  0  0  0  0
 12 15  2  0  0  0  0
 13 18  1  0  0  0  0
 13 10  1  0  0  0  0
 14  3  1  0  0  0  0
 15  9  1  0  0  0  0
 16 27  1  0  0  0  0
 16 21  1  0  0  0  0
 17  3  1  0  0  0  0
 17 27  1  0  0  0  0
 18 14  1  0  0  0  0
 19 26  1  0  0  0  0
 20 16  1  0  0  0  0
 21  5  1  0  0  0  0
 21 19  1  0  0  0  0
 22  6  1  0  0  0  0
 23 12  1  0  0  0  0
 24  4  1  0  0  0  0
 25 10  1  0  0  0  0
 25 20  1  0  0  0  0
 27  1  1  0  0  0  0
 28 22  1  0  0  0  0
M  END
>  <MODEL>
6

>  <REMARK>
 VINA RESULT:      -9.1      3.128      4.781
  Name = 
  0 active torsions:
  status: ('A' for Active; 'I' for Inactive)
                            x       y       z     vdW  Elec       q    Type
                         _______ _______ _______ _____ _____    ______ ____

>  <TORSDO>
F 0

$$$$
=
 OpenBabel10272401513D

 28 33  0  0  1  0  0  0  0  0999 V2000
  189.4230  177.4100  145.3280 C   0  0  2  0  0  3  0  0  0  0  0  0
  189.0080  178.3660  146.4750 C   0  0  1  0  0  3  0  0  0  0  0  0
  186.7300  178.6970  145.3230 C   0  0  2  0  0  3  0  0  0  0  0  0
  184.2900  178.7300  142.0220 C   0  0  0  0  0  3  0  0  0  0  0  0
  190.8570  175.2530  143.1160 O   0  0  0  0  0  1  0  0  0  0  0  0
  188.7430  177.9330  148.9120 O   0  0  0  0  0  0  0  0  0  0  0  0
  187.4750  178.4860  146.6480 C   0  0  1  0  0  3  0  0  0  0  0  0
  190.6090  176.9520  147.8460 N   0  0  0  0  0  1  0  0  0  0  0  0
  183.1060  178.6530  144.8410 C   0  0  0  0  0  3  0  0  0  0  0  0
  186.2490  177.6220  143.0220 C   0  0  2  0  0  3  0  0  0  0  0  0
  189.6770  178.0750  147.8570 C   0  0  1  0  0  3  0  0  0  0  0  0
  181.9140  178.8150  142.6560 C   0  0  0  0  0  0  0  0  0  0  0  0
  184.9310  178.3640  143.1410 C   0  0  0  0  0  0  0  0  0  0  0  0
  185.3260  178.7450  145.5520 O   0  0  0  0  0  0  0  0  0  0  0  0
  181.9450  178.4920  143.9470 C   0  0  0  0  0  3  0  0  0  0  0  0
  188.9670  176.7130  142.9220 C   0  0  1  0  0  3  0  0  0  0  0  0
  187.0870  177.5840  144.3360 C   0  0  1  0  0  3  0  0  0  0  0  0
  184.4060  178.6280  144.5100 C   0  0  0  0  0  0  0  0  0  0  0  0
  191.2850  177.5770  143.5310 C   0  0  0  0  0  2  0  0  0  0  0  0
  188.3080  177.1470  141.6050 C   0  0  0  0  0  2  0  0  0  0  0  0
  190.4800  176.5440  142.7400 C   0  0  1  0  0  3  0  0  0  0  0  0
  187.8570  176.8910  148.5760 C   0  0  0  0  0  2  0  0  0  0  0  0
  180.7800  178.5930  141.9500 F   0  0  0  0  0  0  0  0  0  0  0  0
  183.0380  179.5380  142.0010 C   0  0  0  0  0  2  0  0  0  0  0  0
  187.0850  178.0550  141.8040 C   0  0  0  0  0  2  0  0  0  0  0  0
  190.9290  177.5660  145.0250 C   0  0  0  0  0  2  0  0  0  0  0  0
  188.5900  177.6630  144.0650 C   0  0  1  0  0  3  0  0  0  0  0  0
  186.8970  177.3210  147.4640 C   0  0  0  0  0  2  0  0  0  0  0  0
  1 26  1  6  0  0  0
  1  2  1  0  0  0  0
  2  7  1  0  0  0  0
  2 11  1  0  0  0  0
  3 14  1  0  0  0  0
  3  7  1  0  0  0  0
  4 13  2  0  0  0  0
  7 28  1  0  0  0  0
  8 11  1  0  0  0  0
 10 13  1  0  0  0  0
 10 17  1  0  0  0  0
 11  6  1  0  0  0  0
 12 15  2  0  0  0  0
 13 18  1  0  0  0  0
 15  9  1  0  0  0  0
 16 27  1  0  0  0  0
 17  3  1  0  0  0  0
 18  9  2  0  0  0  0
 18 14  1  0  0  0  0
 19 26  1  0  0  0  0
 20 25  1  0  0  0  0
 20 16  1  0  0  0  0
 21 16  1  0  0  0  0
 21  5  1  0  0  0  0
 21 19  1  0  0  0  0
 22  6  1  0  0  0  0
 23 12  1  0  0  0  0
 24  4  1  0  0  0  0
 24 12  1  0  0  0  0
 25 10  1  0  0  0  0
 27 17  1  0  0  0  0
 27  1  1  0  0  0  0
 28 22  1  0  0  0  0
M  END
>  <MODEL>
7

>  <REMARK>
 VINA RESULT:      -9.0      1.673      4.165
  Name = 
  0 active torsions:
  status: ('A' for Active; 'I' for Inactive)
                            x       y       z     vdW  Elec       q    Type
                         _______ _______ _______ _____ _____    ______ ____

>  <TORSDO>
F 0

$$$$
=
 OpenBabel10272401513D

 28 33  0  0  1  0  0  0  0  0999 V2000
  186.4900  178.3220  145.5950 C   0  0  2  0  0  3  0  0  0  0  0  0
  185.8180  179.3220  144.6200 C   0  0  1  0  0  3  0  0  0  0  0  0
  187.5620  178.6920  142.8340 C   0  0  2  0  0  3  0  0  0  0  0  0
  191.2380  177.2850  141.6710 C   0  0  0  0  0  3  0  0  0  0  0  0
  187.5300  176.2950  148.1270 O   0  0  0  0  0  1  0  0  0  0  0  0
  183.5150  179.3480  143.6760 O   0  0  0  0  0  0  0  0  0  0  0  0
  186.0880  179.0010  143.1300 C   0  0  1  0  0  3  0  0  0  0  0  0
  183.7320  178.7860  145.9600 N   0  0  0  0  0  1  0  0  0  0  0  0
  188.9230  177.4410  139.6790 C   0  0  0  0  0  3  0  0  0  0  0  0
  189.4910  177.0640  143.3920 C   0  0  2  0  0  3  0  0  0  0  0  0
  184.2890  179.5450  144.8460 C   0  0  1  0  0  3  0  0  0  0  0  0
  191.2890  176.7690  139.2660 C   0  0  0  0  0  0  0  0  0  0  0  0
  189.9360  177.3750  141.9760 C   0  0  0  0  0  0  0  0  0  0  0  0
  187.7250  178.3530  141.4600 O   0  0  0  0  0  0  0  0  0  0  0  0
  189.9980  176.7480  138.9450 C   0  0  0  0  0  3  0  0  0  0  0  0
  188.6200  177.0320  146.1240 C   0  0  1  0  0  3  0  0  0  0  0  0
  188.0540  177.5610  143.7380 C   0  0  1  0  0  3  0  0  0  0  0  0
  188.8870  177.7460  140.9860 C   0  0  0  0  0  0  0  0  0  0  0  0
  187.7160  178.6710  147.8530 C   0  0  0  0  0  2  0  0  0  0  0  0
  190.1290  176.9570  145.8530 C   0  0  0  0  0  2  0  0  0  0  0  0
  188.3500  177.3000  147.6090 C   0  0  1  0  0  3  0  0  0  0  0  0
  183.7480  178.0380  143.2120 C   0  0  0  0  0  2  0  0  0  0  0  0
  192.1670  176.0690  138.5080 F   0  0  0  0  0  0  0  0  0  0  0  0
  191.8160  177.6480  140.3460 C   0  0  0  0  0  2  0  0  0  0  0  0
  190.5250  177.4680  144.4590 C   0  0  0  0  0  2  0  0  0  0  0  0
  186.4280  178.8640  147.0390 C   0  0  0  0  0  2  0  0  0  0  0  0
  187.9410  178.0380  145.1870 C   0  0  1  0  0  3  0  0  0  0  0  0
  185.1450  177.9120  142.5990 C   0  0  0  0  0  2  0  0  0  0  0  0
  1 26  1  1  0  0  0
  2 11  1  0  0  0  0
  2  1  1  0  0  0  0
  3  7  1  0  0  0  0
  3 17  1  0  0  0  0
  4 13  2  0  0  0  0
  6 11  1  0  0  0  0
  7  2  1  0  0  0  0
  9 18  2  0  0  0  0
 10 17  1  0  0  0  0
 10 25  1  0  0  0  0
 11  8  1  0  0  0  0
 12 24  1  0  0  0  0
 13 10  1  0  0  0  0
 14  3  1  0  0  0  0
 15 12  2  0  0  0  0
 15  9  1  0  0  0  0
 16 21  1  0  0  0  0
 17 27  1  0  0  0  0
 18 14  1  0  0  0  0
 18 13  1  0  0  0  0
 20 16  1  0  0  0  0
 21 19  1  0  0  0  0
 21  5  1  0  0  0  0
 22  6  1  0  0  0  0
 23 12  1  0  0  0  0
 24  4  1  0  0  0  0
 25 20  1  0  0  0  0
 26 19  1  0  0  0  0
 27  1  1  0  0  0  0
 27 16  1  0  0  0  0
 28  7  1  0  0  0  0
 28 22  1  0  0  0  0
M  END
>  <MODEL>
8

>  <REMARK>
 VINA RESULT:      -9.0      3.194      5.479
  Name = 
  0 active torsions:
  status: ('A' for Active; 'I' for Inactive)
                            x       y       z     vdW  Elec       q    Type
                         _______ _______ _______ _____ _____    ______ ____

>  <TORSDO>
F 0

$$$$
=
 OpenBabel10272401513D

 28 33  0  0  1  0  0  0  0  0999 V2000
  187.0050  178.2950  141.1130 C   0  0  2  0  0  3  0  0  0  0  0  0
  185.8690  177.7430  142.0120 C   0  0  1  0  0  3  0  0  0  0  0  0
  187.6180  177.1860  143.8160 C   0  0  2  0  0  3  0  0  0  0  0  0
  191.4320  176.2820  145.0330 C   0  0  0  0  0  3  0  0  0  0  0  0
  189.0560  179.6290  138.7440 O   0  0  0  0  0  1  0  0  0  0  0  0
  183.8880  178.8930  142.9860 O   0  0  0  0  0  0  0  0  0  0  0  0
  186.2210  177.7480  143.5190 C   0  0  1  0  0  3  0  0  0  0  0  0
  184.4470  179.4280  140.7540 N   0  0  0  0  0  1  0  0  0  0  0  0
  189.3380  177.2470  147.0420 C   0  0  0  0  0  3  0  0  0  0  0  0
  190.1380  177.5490  143.3660 C   0  0  2  0  0  3  0  0  0  0  0  0
  184.4690  178.4030  141.7920 C   0  0  1  0  0  3  0  0  0  0  0  0
  191.6770  176.4950  147.4720 C   0  0  0  0  0  0  0  0  0  0  0  0
  190.2990  176.9350  144.7430 C   0  0  0  0  0  0  0  0  0  0  0  0
  187.8940  177.2720  145.2100 O   0  0  0  0  0  0  0  0  0  0  0  0
  190.5930  177.1860  147.8150 C   0  0  0  0  0  3  0  0  0  0  0  0
  189.5100  178.2630  140.6600 C   0  0  1  0  0  3  0  0  0  0  0  0
  188.6720  177.9380  143.0020 C   0  0  1  0  0  3  0  0  0  0  0  0
  189.1840  177.1140  145.7160 C   0  0  0  0  0  0  0  0  0  0  0  0
  187.9190  177.5170  138.8150 C   0  0  0  0  0  2  0  0  0  0  0  0
  190.8110  177.4870  140.9130 C   0  0  0  0  0  2  0  0  0  0  0  0
  189.1860  178.3030  139.1620 C   0  0  1  0  0  3  0  0  0  0  0  0
  184.7770  179.8270  143.5550 C   0  0  0  0  0  2  0  0  0  0  0  0
  192.7690  176.5470  148.2720 F   0  0  0  0  0  0  0  0  0  0  0  0
  191.6790  175.5600  146.3140 C   0  0  0  0  0  2  0  0  0  0  0  0
  190.8230  176.7350  142.2520 C   0  0  0  0  0  2  0  0  0  0  0  0
  186.7060  177.9880  139.6300 C   0  0  0  0  0  2  0  0  0  0  0  0
  188.3650  177.7150  141.5200 C   0  0  1  0  0  3  0  0  0  0  0  0
  186.0000  179.1280  144.1540 C   0  0  0  0  0  2  0  0  0  0  0  0
  1 26  1  6  0  0  0
  1 27  1  0  0  0  0
  1  2  1  0  0  0  0
  2  7  1  0  0  0  0
  3 14  1  0  0  0  0
  4 24  1  0  0  0  0
  5 21  1  0  0  0  0
  6 22  1  0  0  0  0
  7  3  1  0  0  0  0
  7 28  1  0  0  0  0
  8 11  1  0  0  0  0
  9 15  1  0  0  0  0
 10 13  1  0  0  0  0
 11  2  1  0  0  0  0
 11  6  1  0  0  0  0
 12 15  2  0  0  0  0
 12 23  1  0  0  0  0
 13  4  2  0  0  0  0
 13 18  1  0  0  0  0
 14 18  1  0  0  0  0
 16 20  1  0  0  0  0
 16 27  1  0  0  0  0
 17 10  1  0  0  0  0
 17  3  1  0  0  0  0
 18  9  2  0  0  0  0
 19 21  1  0  0  0  0
 19 26  1  0  0  0  0
 20 25  1  0  0  0  0
 21 16  1  0  0  0  0
 22 28  1  0  0  0  0
 24 12  1  0  0  0  0
 25 10  1  0  0  0  0
 27 17  1  0  0  0  0
M  END
>  <MODEL>
9

>  <REMARK>
 VINA RESULT:      -8.9      3.697      7.556
  Name = 
  0 active torsions:
  status: ('A' for Active; 'I' for Inactive)
                            x       y       z     vdW  Elec       q    Type
                         _______ _______ _______ _____ _____    ______ ____

>  <TORSDO>
F 0

$$$$
