=
 OpenBabel10272400123D

 34 38  0  0  1  0  0  0  0  0999 V2000
  192.3050  174.0560  137.3240 C   0  0  1  0  0  3  0  0  0  0  0  0
  194.3470  175.6150  137.8630 C   0  0  0  0  0  2  0  0  0  0  0  0
  191.8370  178.7120  144.0850 O   0  0  0  0  0  0  0  0  0  0  0  0
  191.9440  176.5430  138.0950 C   0  0  1  0  0  3  0  0  0  0  0  0
  190.4460  176.2340  140.1860 C   0  0  1  0  0  3  0  0  0  0  0  0
  192.6210  177.6470  140.2610 C   0  0  0  0  0  2  0  0  0  0  0  0
  192.8760  175.4740  137.5270 C   0  0  0  0  0  0  0  0  0  0  0  0
  191.7970  178.3970  141.3060 C   0  0  0  0  0  2  0  0  0  0  0  0
  190.4250  176.2980  141.7140 C   0  0  0  0  0  2  0  0  0  0  0  0
  190.5720  176.4940  137.3920 C   0  0  2  0  0  3  0  0  0  0  0  0
  190.9670  174.1340  136.5930 C   0  0  0  0  0  2  0  0  0  0  0  0
  193.8340  175.9990  136.4770 C   0  0  0  0  0  2  0  0  0  0  0  0
  189.3990  177.1870  139.5900 C   0  0  0  0  0  2  0  0  0  0  0  0
  189.6130  177.4670  138.0940 C   0  0  2  0  0  3  0  0  0  0  0  0
  191.1710  177.4530  142.2290 N   0  0  0  0  0  0  0  0  0  0  0  0
  191.8700  176.4620  139.6320 C   0  0  2  0  0  3  0  0  0  0  0  0
  190.0080  175.0640  137.3280 C   0  0  0  0  0  2  0  0  0  0  0  0
  191.2380  177.6940  143.6430 C   0  0  0  0  0  0  0  0  0  0  0  0
  185.9390  178.0040  137.3850 C   0  0  0  0  0  0  0  0  0  0  0  0
  185.9410  178.1250  136.0310 N   0  0  0  0  0  0  0  0  0  0  0  0
  188.3300  177.6850  137.3520 C   0  0  0  0  0  0  0  0  0  0  0  0
  187.0910  178.0380  135.3100 C   0  0  0  0  0  3  0  0  0  0  0  0
  187.1360  177.7830  138.0700 C   0  0  0  0  0  3  0  0  0  0  0  0
  188.3080  177.8180  135.9570 C   0  0  0  0  0  3  0  0  0  0  0  0
  184.7750  178.0990  138.0720 F   0  0  0  0  0  0  0  0  0  0  0  0
  193.2280  173.0870  136.6470 C   0  0  0  0  0  0  0  0  0  0  0  0
  194.2640  172.4840  137.3510 O   0  0  0  0  0  1  0  0  0  0  0  0
  193.0470  172.8000  135.4350 O   0  0  0  0  0  0  0  0  0  0  0  0
  190.6330  176.7360  144.6200 C   0  0  0  0  0  2  0  0  0  0  0  0
  189.5890  177.4330  145.4850 C   0  0  0  0  0  3  0  0  0  0  0  0
  188.1720  177.2610  144.9260 C   0  0  0  0  0  2  0  0  0  0  0  0
  187.0980  177.6160  145.9440 C   0  0  0  0  0  1  0  0  0  0  0  0
  189.6960  176.9420  146.9220 C   0  0  0  0  0  2  0  0  0  0  0  0
  191.1160  176.5080  147.2290 C   0  0  0  0  0  1  0  0  0  0  0  0
  1 26  1  6  0  0  0
  1  7  1  0  0  0  0
  4  7  1  6  0  0  0
  4 16  1  0  0  0  0
  5 13  1  6  0  0  0
  5  9  1  0  0  0  0
  6  8  1  0  0  0  0
  7  2  1  0  0  0  0
  8 15  1  0  0  0  0
  9 15  1  0  0  0  0
 10 17  1  1  0  0  0
 10 14  1  0  0  0  0
 10  4  1  0  0  0  0
 11  1  1  0  0  0  0
 11 17  1  0  0  0  0
 12  7  1  0  0  0  0
 12  2  1  0  0  0  0
 14 21  1  6  0  0  0
 14 13  1  0  0  0  0
 15 18  1  0  0  0  0
 16  5  1  0  0  0  0
 16  6  1  1  0  0  0
 18  3  2  0  0  0  0
 18 29  1  0  0  0  0
 19 23  1  0  0  0  0
 19 25  1  0  0  0  0
 20 19  2  0  0  0  0
 21 23  2  0  0  0  0
 22 24  2  0  0  0  0
 22 20  1  0  0  0  0
 24 21  1  0  0  0  0
 26 27  1  0  0  0  0
 28 26  2  0  0  0  0
 29 30  1  0  0  0  0
 30 33  1  0  0  0  0
 31 30  1  0  0  0  0
 31 32  1  0  0  0  0
 33 34  1  0  0  0  0
M  END
>  <MODEL>
1

>  <REMARK>
 VINA RESULT:      -6.4      0.000      0.000
  Name = 
  6 active torsions:
  status: ('A' for Active; 'I' for Inactive)
    1  A    between atoms: C_1  and  C_6
    2  A    between atoms: C_11  and  C_20
    3  A    between atoms: C_12  and  C_28
    4  A    between atoms: C_13  and  C_20
    5  A    between atoms: C_13  and  C_33
    6  A    between atoms: C_14  and  C_20
                            x       y       z     vdW  Elec       q    Type
                         _______ _______ _______ _____ _____    ______ ____

>  <TORSDO>
F 6

$$$$
=
 OpenBabel10272400123D

 34 38  0  0  1  0  0  0  0  0999 V2000
  191.1870  174.2870  137.3010 C   0  0  1  0  0  3  0  0  0  0  0  0
  193.2950  175.8410  137.4740 C   0  0  0  0  0  2  0  0  0  0  0  0
  192.2150  178.5130  144.2780 O   0  0  0  0  0  0  0  0  0  0  0  0
  191.0010  176.7160  138.2870 C   0  0  1  0  0  3  0  0  0  0  0  0
  190.0010  176.2570  140.6330 C   0  0  1  0  0  3  0  0  0  0  0  0
  192.1380  177.6950  140.3160 C   0  0  0  0  0  2  0  0  0  0  0  0
  191.7870  175.6980  137.4620 C   0  0  0  0  0  0  0  0  0  0  0  0
  191.5630  178.3680  141.5620 C   0  0  0  0  0  2  0  0  0  0  0  0
  190.3180  176.2270  142.1290 C   0  0  0  0  0  2  0  0  0  0  0  0
  189.5080  176.6890  137.9020 C   0  0  2  0  0  3  0  0  0  0  0  0
  189.7200  174.3880  136.8880 C   0  0  0  0  0  2  0  0  0  0  0  0
  192.4880  176.3010  136.2620 C   0  0  0  0  0  2  0  0  0  0  0  0
  188.8480  177.2280  140.3430 C   0  0  0  0  0  2  0  0  0  0  0  0
  188.7260  177.6020  138.8570 C   0  0  2  0  0  3  0  0  0  0  0  0
  191.1570  177.3590  142.5390 N   0  0  0  0  0  0  0  0  0  0  0  0
  191.2680  176.5400  139.7950 C   0  0  2  0  0  3  0  0  0  0  0  0
  188.9450  175.2570  137.8740 C   0  0  0  0  0  2  0  0  0  0  0  0
  191.5340  177.5150  143.9160 C   0  0  0  0  0  0  0  0  0  0  0  0
  185.5960  177.7040  136.7390 C   0  0  0  0  0  0  0  0  0  0  0  0
  184.6990  178.2380  137.6100 N   0  0  0  0  0  0  0  0  0  0  0  0
  187.3110  177.8450  138.4310 C   0  0  0  0  0  0  0  0  0  0  0  0
  185.0540  178.5810  138.8770 C   0  0  0  0  0  3  0  0  0  0  0  0
  186.9200  177.4960  137.1370 C   0  0  0  0  0  3  0  0  0  0  0  0
  186.3660  178.3900  139.3130 C   0  0  0  0  0  3  0  0  0  0  0  0
  185.2070  177.3710  135.4850 F   0  0  0  0  0  0  0  0  0  0  0  0
  191.9400  173.3750  136.3770 C   0  0  0  0  0  0  0  0  0  0  0  0
  191.5330  173.2090  135.0580 O   0  0  0  0  0  0  0  0  0  0  0  0
  192.9620  172.7740  136.7950 O   0  0  0  0  0  1  0  0  0  0  0  0
  191.1610  176.4890  144.9390 C   0  0  0  0  0  2  0  0  0  0  0  0
  190.5490  177.1510  146.1690 C   0  0  0  0  0  3  0  0  0  0  0  0
  189.0540  177.4350  145.9830 C   0  0  0  0  0  2  0  0  0  0  0  0
  188.3200  177.5770  147.3090 C   0  0  0  0  0  1  0  0  0  0  0  0
  190.8160  176.3000  147.4020 C   0  0  0  0  0  2  0  0  0  0  0  0
  192.2510  175.8080  147.4050 C   0  0  0  0  0  1  0  0  0  0  0  0
  1 26  1  6  0  0  0
  1  7  1  0  0  0  0
  4  7  1  6  0  0  0
  4 16  1  0  0  0  0
  5 13  1  1  0  0  0
  5  9  1  0  0  0  0
  6  8  1  0  0  0  0
  7  2  1  0  0  0  0
  8 15  1  0  0  0  0
  9 15  1  0  0  0  0
 10 17  1  1  0  0  0
 10  4  1  0  0  0  0
 10 14  1  0  0  0  0
 11  1  1  0  0  0  0
 11 17  1  0  0  0  0
 12  7  1  0  0  0  0
 12  2  1  0  0  0  0
 14 21  1  6  0  0  0
 14 13  1  0  0  0  0
 15 18  1  0  0  0  0
 16  6  1  1  0  0  0
 16  5  1  0  0  0  0
 18  3  2  0  0  0  0
 18 29  1  0  0  0  0
 19 23  2  0  0  0  0
 19 20  1  0  0  0  0
 20 22  2  0  0  0  0
 21 24  2  0  0  0  0
 22 24  1  0  0  0  0
 23 21  1  0  0  0  0
 25 19  1  0  0  0  0
 26 28  1  0  0  0  0
 27 26  2  0  0  0  0
 29 30  1  0  0  0  0
 30 33  1  0  0  0  0
 31 30  1  0  0  0  0
 31 32  1  0  0  0  0
 33 34  1  0  0  0  0
M  END
>  <MODEL>
2

>  <REMARK>
 VINA RESULT:      -6.0      1.161      1.637
  Name = 
  6 active torsions:
  status: ('A' for Active; 'I' for Inactive)
    1  A    between atoms: C_1  and  C_6
    2  A    between atoms: C_11  and  C_20
    3  A    between atoms: C_12  and  C_28
    4  A    between atoms: C_13  and  C_20
    5  A    between atoms: C_13  and  C_33
    6  A    between atoms: C_14  and  C_20
                            x       y       z     vdW  Elec       q    Type
                         _______ _______ _______ _____ _____    ______ ____

>  <TORSDO>
F 6

$$$$
=
 OpenBabel10272400123D

 34 38  0  0  1  0  0  0  0  0999 V2000
  186.7190  175.4760  136.9400 C   0  0  1  0  0  3  0  0  0  0  0  0
  186.5990  178.0250  136.3280 C   0  0  0  0  0  2  0  0  0  0  0  0
  181.2020  180.0750  140.9400 O   0  0  0  0  0  0  0  0  0  0  0  0
  184.4080  176.6800  136.6060 C   0  0  1  0  0  3  0  0  0  0  0  0
  183.2410  176.2220  138.8730 C   0  0  1  0  0  3  0  0  0  0  0  0
  183.4270  178.6170  137.8920 C   0  0  0  0  0  2  0  0  0  0  0  0
  185.9190  176.6720  136.3870 C   0  0  0  0  0  0  0  0  0  0  0  0
  182.1060  178.7560  138.6450 C   0  0  0  0  0  2  0  0  0  0  0  0
  182.8030  176.8630  140.1910 C   0  0  0  0  0  2  0  0  0  0  0  0
  183.8060  175.2970  136.2820 C   0  0  2  0  0  3  0  0  0  0  0  0
  186.0480  174.1660  136.5310 C   0  0  0  0  0  2  0  0  0  0  0  0
  186.3430  177.2360  135.0470 C   0  0  0  0  0  2  0  0  0  0  0  0
  182.0380  175.6090  138.1430 C   0  0  0  0  0  2  0  0  0  0  0  0
  182.3190  175.2940  136.6650 C   0  0  2  0  0  3  0  0  0  0  0  0
  182.2310  178.2010  139.9920 N   0  0  0  0  0  0  0  0  0  0  0  0
  184.0460  177.2160  138.0050 C   0  0  2  0  0  3  0  0  0  0  0  0
  184.5850  174.1570  136.9610 C   0  0  0  0  0  2  0  0  0  0  0  0
  181.7370  178.9470  141.1150 C   0  0  0  0  0  0  0  0  0  0  0  0
  180.4180  172.0260  136.6470 C   0  0  0  0  0  0  0  0  0  0  0  0
  180.1640  171.8700  135.3200 N   0  0  0  0  0  0  0  0  0  0  0  0
  181.5750  174.0900  136.1740 C   0  0  0  0  0  0  0  0  0  0  0  0
  180.5850  172.7810  134.4020 C   0  0  0  0  0  3  0  0  0  0  0  0
  181.1280  173.1420  137.0970 C   0  0  0  0  0  3  0  0  0  0  0  0
  181.2970  173.9100  134.8120 C   0  0  0  0  0  3  0  0  0  0  0  0
  179.9820  171.1000  137.5330 F   0  0  0  0  0  0  0  0  0  0  0  0
  188.1760  175.4620  136.5840 C   0  0  0  0  0  0  0  0  0  0  0  0
  189.1020  176.1520  137.3590 O   0  0  0  0  0  1  0  0  0  0  0  0
  188.5660  174.8000  135.5880 O   0  0  0  0  0  0  0  0  0  0  0  0
  181.8730  178.4240  142.5100 C   0  0  0  0  0  2  0  0  0  0  0  0
  183.1170  178.9950  143.1810 C   0  0  0  0  0  3  0  0  0  0  0  0
  183.0090  178.9670  144.7100 C   0  0  0  0  0  2  0  0  0  0  0  0
  184.3670  178.8420  145.3880 C   0  0  0  0  0  1  0  0  0  0  0  0
  184.3560  178.2620  142.6860 C   0  0  0  0  0  2  0  0  0  0  0  0
  185.2320  179.1940  141.8710 C   0  0  0  0  0  1  0  0  0  0  0  0
  1 26  1  6  0  0  0
  2  7  1  0  0  0  0
  3 18  2  0  0  0  0
  4  7  1  1  0  0  0
  4 16  1  0  0  0  0
  5 13  1  6  0  0  0
  5  9  1  0  0  0  0
  6  8  1  0  0  0  0
  7  1  1  0  0  0  0
  8 15  1  0  0  0  0
 10  4  1  0  0  0  0
 10 14  1  0  0  0  0
 10 17  1  1  0  0  0
 11  1  1  0  0  0  0
 11 17  1  0  0  0  0
 12  2  1  0  0  0  0
 12  7  1  0  0  0  0
 14 21  1  1  0  0  0
 14 13  1  0  0  0  0
 15  9  1  0  0  0  0
 15 18  1  0  0  0  0
 16  6  1  6  0  0  0
 16  5  1  0  0  0  0
 18 29  1  0  0  0  0
 19 23  1  0  0  0  0
 19 25  1  0  0  0  0
 20 19  2  0  0  0  0
 21 23  2  0  0  0  0
 22 24  2  0  0  0  0
 22 20  1  0  0  0  0
 24 21  1  0  0  0  0
 26 27  1  0  0  0  0
 28 26  2  0  0  0  0
 29 30  1  0  0  0  0
 30 31  1  0  0  0  0
 31 32  1  0  0  0  0
 33 30  1  0  0  0  0
 34 33  1  0  0  0  0
M  END
>  <MODEL>
3

>  <REMARK>
 VINA RESULT:      -5.4      5.280      7.720
  Name = 
  6 active torsions:
  status: ('A' for Active; 'I' for Inactive)
    1  A    between atoms: C_1  and  C_6
    2  A    between atoms: C_11  and  C_20
    3  A    between atoms: C_12  and  C_28
    4  A    between atoms: C_13  and  C_20
    5  A    between atoms: C_13  and  C_33
    6  A    between atoms: C_14  and  C_20
                            x       y       z     vdW  Elec       q    Type
                         _______ _______ _______ _____ _____    ______ ____

>  <TORSDO>
F 6

$$$$
=
 OpenBabel10272400123D

 34 38  0  0  1  0  0  0  0  0999 V2000
  186.8360  175.7630  137.1020 C   0  0  1  0  0  3  0  0  0  0  0  0
  189.0100  177.1780  136.7050 C   0  0  0  0  0  2  0  0  0  0  0  0
  190.3800  179.1890  143.6820 O   0  0  0  0  0  0  0  0  0  0  0  0
  187.1760  178.0830  138.2870 C   0  0  1  0  0  3  0  0  0  0  0  0
  186.9410  177.4390  140.7860 C   0  0  1  0  0  3  0  0  0  0  0  0
  188.9770  178.7890  139.9080 C   0  0  0  0  0  2  0  0  0  0  0  0
  187.5700  177.1170  137.1720 C   0  0  0  0  0  0  0  0  0  0  0  0
  188.8870  179.3590  141.3230 C   0  0  0  0  0  2  0  0  0  0  0  0
  187.7150  177.2380  142.0900 C   0  0  0  0  0  2  0  0  0  0  0  0
  185.6400  178.1750  138.4080 C   0  0  2  0  0  3  0  0  0  0  0  0
  185.3280  175.9820  137.1980 C   0  0  0  0  0  2  0  0  0  0  0  0
  187.9000  177.8020  135.8620 C   0  0  0  0  0  2  0  0  0  0  0  0
  185.8400  178.4930  140.9660 C   0  0  0  0  0  2  0  0  0  0  0  0
  185.2820  179.0240  139.6360 C   0  0  2  0  0  3  0  0  0  0  0  0
  188.7320  178.2780  142.2950 N   0  0  0  0  0  0  0  0  0  0  0  0
  187.8940  177.7400  139.6070 C   0  0  2  0  0  3  0  0  0  0  0  0
  184.9820  176.7850  138.4490 C   0  0  0  0  0  2  0  0  0  0  0  0
  189.5390  178.2710  143.4820 C   0  0  0  0  0  0  0  0  0  0  0  0
  181.9450  180.6150  138.8490 C   0  0  0  0  0  0  0  0  0  0  0  0
  181.1470  180.0490  139.7920 N   0  0  0  0  0  0  0  0  0  0  0  0
  183.8300  179.3840  139.7140 C   0  0  0  0  0  0  0  0  0  0  0  0
  181.6360  179.1590  140.6980 C   0  0  0  0  0  3  0  0  0  0  0  0
  183.3020  180.2900  138.7920 C   0  0  0  0  0  3  0  0  0  0  0  0
  182.9870  178.8090  140.6750 C   0  0  0  0  0  3  0  0  0  0  0  0
  181.4230  181.4950  137.9610 F   0  0  0  0  0  0  0  0  0  0  0  0
  187.1770  174.9130  135.9140 C   0  0  0  0  0  0  0  0  0  0  0  0
  188.2740  174.0600  135.9430 O   0  0  0  0  0  1  0  0  0  0  0  0
  186.4460  174.9550  134.8910 O   0  0  0  0  0  0  0  0  0  0  0  0
  189.4290  177.1660  144.4850 C   0  0  0  0  0  2  0  0  0  0  0  0
  188.7170  177.6490  145.7440 C   0  0  0  0  0  3  0  0  0  0  0  0
  187.2380  177.2450  145.7580 C   0  0  0  0  0  2  0  0  0  0  0  0
  186.3120  178.4160  145.4570 C   0  0  0  0  0  1  0  0  0  0  0  0
  189.4530  177.1500  146.9790 C   0  0  0  0  0  2  0  0  0  0  0  0
  188.9830  177.8980  148.2130 C   0  0  0  0  0  1  0  0  0  0  0  0
  1 26  1  6  0  0  0
  1  7  1  0  0  0  0
  1 11  1  0  0  0  0
  2  7  1  0  0  0  0
  4  7  1  6  0  0  0
  4 10  1  0  0  0  0
  4 16  1  0  0  0  0
  5 13  1  1  0  0  0
  5  9  1  0  0  0  0
  6  8  1  0  0  0  0
  8 15  1  0  0  0  0
  9 15  1  0  0  0  0
 10 17  1  1  0  0  0
 10 14  1  0  0  0  0
 11 17  1  0  0  0  0
 12  2  1  0  0  0  0
 12  7  1  0  0  0  0
 14 21  1  1  0  0  0
 14 13  1  0  0  0  0
 15 18  1  0  0  0  0
 16  6  1  1  0  0  0
 16  5  1  0  0  0  0
 18  3  2  0  0  0  0
 18 29  1  0  0  0  0
 19 20  1  0  0  0  0
 20 22  2  0  0  0  0
 21 24  2  0  0  0  0
 23 19  2  0  0  0  0
 23 21  1  0  0  0  0
 24 22  1  0  0  0  0
 25 19  1  0  0  0  0
 26 27  1  0  0  0  0
 28 26  2  0  0  0  0
 29 30  1  0  0  0  0
 30 31  1  0  0  0  0
 30 33  1  0  0  0  0
 32 31  1  0  0  0  0
 33 34  1  0  0  0  0
M  END
>  <MODEL>
4

>  <REMARK>
 VINA RESULT:      -5.0      3.323      4.735
  Name = 
  6 active torsions:
  status: ('A' for Active; 'I' for Inactive)
    1  A    between atoms: C_1  and  C_6
    2  A    between atoms: C_11  and  C_20
    3  A    between atoms: C_12  and  C_28
    4  A    between atoms: C_13  and  C_20
    5  A    between atoms: C_13  and  C_33
    6  A    between atoms: C_14  and  C_20
                            x       y       z     vdW  Elec       q    Type
                         _______ _______ _______ _____ _____    ______ ____

>  <TORSDO>
F 6

$$$$
=
 OpenBabel10272400123D

 34 38  0  0  1  0  0  0  0  0999 V2000
  186.8540  175.8020  136.9410 C   0  0  1  0  0  3  0  0  0  0  0  0
  189.0210  177.2340  136.5640 C   0  0  0  0  0  2  0  0  0  0  0  0
  190.3600  179.1830  143.5650 O   0  0  0  0  0  0  0  0  0  0  0  0
  187.1770  178.1130  138.1500 C   0  0  1  0  0  3  0  0  0  0  0  0
  186.9390  177.4420  140.6410 C   0  0  1  0  0  3  0  0  0  0  0  0
  188.9700  178.8120  139.7830 C   0  0  0  0  0  2  0  0  0  0  0  0
  187.5800  177.1590  137.0260 C   0  0  0  0  0  0  0  0  0  0  0  0
  188.8730  179.3670  141.2030 C   0  0  0  0  0  2  0  0  0  0  0  0
  187.7100  177.2330  141.9450 C   0  0  0  0  0  2  0  0  0  0  0  0
  185.6410  178.1950  138.2670 C   0  0  2  0  0  3  0  0  0  0  0  0
  185.3440  176.0120  137.0350 C   0  0  0  0  0  2  0  0  0  0  0  0
  187.9090  177.8590  135.7240 C   0  0  0  0  0  2  0  0  0  0  0  0
  185.8320  178.4890  140.8290 C   0  0  0  0  0  2  0  0  0  0  0  0
  185.2750  179.0300  139.5020 C   0  0  2  0  0  3  0  0  0  0  0  0
  188.7210  178.2760  142.1630 N   0  0  0  0  0  0  0  0  0  0  0  0
  187.8940  177.7610  139.4680 C   0  0  2  0  0  3  0  0  0  0  0  0
  184.9900  176.8000  138.2920 C   0  0  0  0  0  2  0  0  0  0  0  0
  189.5250  178.2620  143.3530 C   0  0  0  0  0  0  0  0  0  0  0  0
  181.6790  179.1340  140.6640 C   0  0  0  0  0  0  0  0  0  0  0  0
  181.1390  180.0240  139.7890 N   0  0  0  0  0  0  0  0  0  0  0  0
  183.8200  179.3800  139.5800 C   0  0  0  0  0  0  0  0  0  0  0  0
  181.8870  180.6090  138.8150 C   0  0  0  0  0  3  0  0  0  0  0  0
  183.0320  178.7980  140.5750 C   0  0  0  0  0  3  0  0  0  0  0  0
  183.2430  180.2990  138.6930 C   0  0  0  0  0  3  0  0  0  0  0  0
  180.9040  178.5740  141.6230 F   0  0  0  0  0  0  0  0  0  0  0  0
  187.2020  174.9660  135.7450 C   0  0  0  0  0  0  0  0  0  0  0  0
  186.5290  175.1350  134.5410 O   0  0  0  0  0  0  0  0  0  0  0  0
  188.1290  174.1190  135.8280 O   0  0  0  0  0  1  0  0  0  0  0  0
  189.4180  177.1470  144.3440 C   0  0  0  0  0  2  0  0  0  0  0  0
  188.6980  177.6120  145.6050 C   0  0  0  0  0  3  0  0  0  0  0  0
  187.2250  177.1900  145.6150 C   0  0  0  0  0  2  0  0  0  0  0  0
  186.2870  178.3400  145.2740 C   0  0  0  0  0  1  0  0  0  0  0  0
  189.4390  177.1160  146.8380 C   0  0  0  0  0  2  0  0  0  0  0  0
  188.9680  177.8590  148.0740 C   0  0  0  0  0  1  0  0  0  0  0  0
  1 26  1  6  0  0  0
  1  7  1  0  0  0  0
  1 11  1  0  0  0  0
  2  7  1  0  0  0  0
  4  7  1  6  0  0  0
  4 10  1  0  0  0  0
  4 16  1  0  0  0  0
  5 13  1  1  0  0  0
  5  9  1  0  0  0  0
  6  8  1  0  0  0  0
  8 15  1  0  0  0  0
  9 15  1  0  0  0  0
 10 17  1  1  0  0  0
 10 14  1  0  0  0  0
 11 17  1  0  0  0  0
 12  2  1  0  0  0  0
 12  7  1  0  0  0  0
 14 21  1  1  0  0  0
 14 13  1  0  0  0  0
 15 18  1  0  0  0  0
 16  6  1  1  0  0  0
 16  5  1  0  0  0  0
 18  3  2  0  0  0  0
 18 29  1  0  0  0  0
 19 25  1  0  0  0  0
 20 19  2  0  0  0  0
 21 23  2  0  0  0  0
 22 20  1  0  0  0  0
 23 19  1  0  0  0  0
 24 22  2  0  0  0  0
 24 21  1  0  0  0  0
 26 28  1  0  0  0  0
 27 26  2  0  0  0  0
 29 30  1  0  0  0  0
 30 31  1  0  0  0  0
 30 33  1  0  0  0  0
 32 31  1  0  0  0  0
 33 34  1  0  0  0  0
M  END
>  <MODEL>
5

>  <REMARK>
 VINA RESULT:      -5.0      3.376      4.729
  Name = 
  6 active torsions:
  status: ('A' for Active; 'I' for Inactive)
    1  A    between atoms: C_1  and  C_6
    2  A    between atoms: C_11  and  C_20
    3  A    between atoms: C_12  and  C_28
    4  A    between atoms: C_13  and  C_20
    5  A    between atoms: C_13  and  C_33
    6  A    between atoms: C_14  and  C_20
                            x       y       z     vdW  Elec       q    Type
                         _______ _______ _______ _____ _____    ______ ____

>  <TORSDO>
F 6

$$$$
=
 OpenBabel10272400123D

 34 38  0  0  1  0  0  0  0  0999 V2000
  183.5400  172.6330  136.8700 C   0  0  1  0  0  3  0  0  0  0  0  0
  184.2360  172.4470  134.3460 C   0  0  0  0  0  2  0  0  0  0  0  0
  190.7040  176.0060  134.6590 O   0  0  0  0  0  0  0  0  0  0  0  0
  184.5380  174.6960  135.5850 C   0  0  1  0  0  3  0  0  0  0  0  0
  186.5800  175.2990  137.0610 C   0  0  1  0  0  3  0  0  0  0  0  0
  186.8030  174.9460  134.5000 C   0  0  0  0  0  2  0  0  0  0  0  0
  183.8780  173.3200  135.5320 C   0  0  0  0  0  0  0  0  0  0  0  0
  187.9070  175.9800  134.7090 C   0  0  0  0  0  2  0  0  0  0  0  0
  188.1070  175.2580  137.1370 C   0  0  0  0  0  2  0  0  0  0  0  0
  183.8240  175.6000  136.6120 C   0  0  2  0  0  3  0  0  0  0  0  0
  182.8100  173.6110  137.7870 C   0  0  0  0  0  2  0  0  0  0  0  0
  182.8890  173.1630  134.3960 C   0  0  0  0  0  2  0  0  0  0  0  0
  186.0690  176.7400  137.2000 C   0  0  0  0  0  2  0  0  0  0  0  0
  184.6080  176.9130  136.7560 C   0  0  2  0  0  3  0  0  0  0  0  0
  188.7340  175.6120  135.8570 N   0  0  0  0  0  0  0  0  0  0  0  0
  186.0600  174.5810  135.7950 C   0  0  2  0  0  3  0  0  0  0  0  0
  183.6220  174.8900  137.9620 C   0  0  0  0  0  2  0  0  0  0  0  0
  190.1650  175.6560  135.7440 C   0  0  0  0  0  0  0  0  0  0  0  0
  181.8610  179.2120  137.9660 C   0  0  0  0  0  0  0  0  0  0  0  0
  182.4840  179.8630  138.9840 N   0  0  0  0  0  0  0  0  0  0  0  0
  183.8810  177.9620  137.5400 C   0  0  0  0  0  0  0  0  0  0  0  0
  183.7780  179.6000  139.3120 C   0  0  0  0  0  3  0  0  0  0  0  0
  182.5500  178.2460  137.2270 C   0  0  0  0  0  3  0  0  0  0  0  0
  184.5000  178.6430  138.5970 C   0  0  0  0  0  3  0  0  0  0  0  0
  180.5710  179.4970  137.6690 F   0  0  0  0  0  0  0  0  0  0  0  0
  182.7800  171.3440  136.7520 C   0  0  0  0  0  0  0  0  0  0  0  0
  183.4490  170.1430  136.5450 O   0  0  0  0  0  0  0  0  0  0  0  0
  181.5270  171.3490  136.8650 O   0  0  0  0  0  1  0  0  0  0  0  0
  191.0430  175.2590  136.8880 C   0  0  0  0  0  2  0  0  0  0  0  0
  191.5980  176.4910  137.5950 C   0  0  0  0  0  3  0  0  0  0  0  0
  191.1720  176.5490  139.0670 C   0  0  0  0  0  2  0  0  0  0  0  0
  190.1790  177.6690  139.3420 C   0  0  0  0  0  1  0  0  0  0  0  0
  193.1110  176.5400  137.4400 C   0  0  0  0  0  2  0  0  0  0  0  0
  193.7430  175.2870  138.0170 C   0  0  0  0  0  1  0  0  0  0  0  0
  1 26  1  6  0  0  0
  1 11  1  0  0  0  0
  2 12  1  0  0  0  0
  2  7  1  0  0  0  0
  3 18  2  0  0  0  0
  4  7  1  1  0  0  0
  4 16  1  0  0  0  0
  4 10  1  0  0  0  0
  5  9  1  6  0  0  0
  5 13  1  0  0  0  0
  6  8  1  0  0  0  0
  7  1  1  0  0  0  0
  8 15  1  0  0  0  0
 10 14  1  0  0  0  0
 10 17  1  1  0  0  0
 11 17  1  0  0  0  0
 12  7  1  0  0  0  0
 14 13  1  0  0  0  0
 14 21  1  1  0  0  0
 15  9  1  0  0  0  0
 16  6  1  6  0  0  0
 16  5  1  0  0  0  0
 18 15  1  0  0  0  0
 18 29  1  0  0  0  0
 19 20  1  0  0  0  0
 20 22  2  0  0  0  0
 21 24  2  0  0  0  0
 23 21  1  0  0  0  0
 23 19  2  0  0  0  0
 24 22  1  0  0  0  0
 25 19  1  0  0  0  0
 26 28  1  0  0  0  0
 27 26  2  0  0  0  0
 29 30  1  0  0  0  0
 30 31  1  0  0  0  0
 31 32  1  0  0  0  0
 33 30  1  0  0  0  0
 33 34  1  0  0  0  0
M  END
>  <MODEL>
6

>  <REMARK>
 VINA RESULT:      -4.9      4.492      7.856
  Name = 
  6 active torsions:
  status: ('A' for Active; 'I' for Inactive)
    1  A    between atoms: C_1  and  C_6
    2  A    between atoms: C_11  and  C_20
    3  A    between atoms: C_12  and  C_28
    4  A    between atoms: C_13  and  C_20
    5  A    between atoms: C_13  and  C_33
    6  A    between atoms: C_14  and  C_20
                            x       y       z     vdW  Elec       q    Type
                         _______ _______ _______ _____ _____    ______ ____

>  <TORSDO>
F 6

$$$$
=
 OpenBabel10272400123D

 34 38  0  0  1  0  0  0  0  0999 V2000
  189.8180  176.7690  140.0410 C   0  0  1  0  0  3  0  0  0  0  0  0
  187.7880  178.1560  139.1240 C   0  0  0  0  0  2  0  0  0  0  0  0
  185.0230  173.1900  134.4020 O   0  0  0  0  0  0  0  0  0  0  0  0
  189.2630  176.8210  137.4730 C   0  0  1  0  0  3  0  0  0  0  0  0
  188.9690  174.3020  136.9450 C   0  0  1  0  0  3  0  0  0  0  0  0
  187.1730  176.0540  136.2850 C   0  0  0  0  0  2  0  0  0  0  0  0
  189.0990  177.4460  138.8570 C   0  0  0  0  0  0  0  0  0  0  0  0
  186.9730  175.0500  135.1520 C   0  0  0  0  0  2  0  0  0  0  0  0
  187.9400  173.2170  136.6220 C   0  0  0  0  0  2  0  0  0  0  0  0
  190.7410  176.4640  137.2110 C   0  0  2  0  0  3  0  0  0  0  0  0
  191.2760  176.4950  139.6770 C   0  0  0  0  0  2  0  0  0  0  0  0
  189.0550  178.9600  138.8400 C   0  0  0  0  0  2  0  0  0  0  0  0
  190.0200  174.4010  135.8300 C   0  0  0  0  0  2  0  0  0  0  0  0
  190.8450  175.6960  135.8850 C   0  0  2  0  0  3  0  0  0  0  0  0
  186.9130  173.6900  135.6860 N   0  0  0  0  0  0  0  0  0  0  0  0
  188.2840  175.6490  137.2660 C   0  0  2  0  0  3  0  0  0  0  0  0
  191.3630  175.6880  138.3850 C   0  0  0  0  0  2  0  0  0  0  0  0
  185.8770  172.8000  135.2430 C   0  0  0  0  0  0  0  0  0  0  0  0
  194.5080  176.3480  135.2110 C   0  0  0  0  0  0  0  0  0  0  0  0
  194.8750  175.1990  134.5830 N   0  0  0  0  0  0  0  0  0  0  0  0
  192.2530  175.5110  135.4090 C   0  0  0  0  0  0  0  0  0  0  0  0
  193.9840  174.1970  134.3540 C   0  0  0  0  0  3  0  0  0  0  0  0
  193.1890  176.5220  135.6370 C   0  0  0  0  0  3  0  0  0  0  0  0
  192.6560  174.3330  134.7640 C   0  0  0  0  0  3  0  0  0  0  0  0
  195.4220  177.3240  135.4250 F   0  0  0  0  0  0  0  0  0  0  0  0
  189.7230  177.4990  141.3480 C   0  0  0  0  0  0  0  0  0  0  0  0
  188.5130  177.5820  142.0270 O   0  0  0  0  0  1  0  0  0  0  0  0
  190.7550  178.0210  141.8440 O   0  0  0  0  0  0  0  0  0  0  0  0
  185.7670  171.4110  135.7880 C   0  0  0  0  0  2  0  0  0  0  0  0
  184.4180  170.7970  135.4340 C   0  0  0  0  0  3  0  0  0  0  0  0
  184.5580  169.3590  134.9220 C   0  0  0  0  0  2  0  0  0  0  0  0
  183.8910  168.3460  135.8420 C   0  0  0  0  0  1  0  0  0  0  0  0
  183.4780  170.8860  136.6280 C   0  0  0  0  0  2  0  0  0  0  0  0
  182.2420  171.6890  136.2700 C   0  0  0  0  0  1  0  0  0  0  0  0
  1 26  1  1  0  0  0
  3 18  2  0  0  0  0
  4  7  1  1  0  0  0
  5 13  1  6  0  0  0
  5 16  1  0  0  0  0
  7  2  1  0  0  0  0
  7  1  1  0  0  0  0
  8 15  1  0  0  0  0
  8  6  1  0  0  0  0
  9  5  1  0  0  0  0
 10  4  1  0  0  0  0
 10 17  1  1  0  0  0
 11  1  1  0  0  0  0
 12  7  1  0  0  0  0
 12  2  1  0  0  0  0
 13 14  1  0  0  0  0
 14 21  1  1  0  0  0
 14 10  1  0  0  0  0
 15  9  1  0  0  0  0
 16  6  1  6  0  0  0
 16  4  1  0  0  0  0
 17 11  1  0  0  0  0
 18 15  1  0  0  0  0
 18 29  1  0  0  0  0
 19 25  1  0  0  0  0
 19 23  1  0  0  0  0
 20 19  2  0  0  0  0
 21 23  2  0  0  0  0
 22 20  1  0  0  0  0
 22 24  2  0  0  0  0
 24 21  1  0  0  0  0
 26 28  2  0  0  0  0
 26 27  1  0  0  0  0
 30 29  1  0  0  0  0
 30 33  1  0  0  0  0
 31 30  1  0  0  0  0
 31 32  1  0  0  0  0
 34 33  1  0  0  0  0
M  END
>  <MODEL>
7

>  <REMARK>
 VINA RESULT:      -4.9      4.683      8.570
  Name = 
  6 active torsions:
  status: ('A' for Active; 'I' for Inactive)
    1  A    between atoms: C_1  and  C_6
    2  A    between atoms: C_11  and  C_20
    3  A    between atoms: C_12  and  C_28
    4  A    between atoms: C_13  and  C_20
    5  A    between atoms: C_13  and  C_33
    6  A    between atoms: C_14  and  C_20
                            x       y       z     vdW  Elec       q    Type
                         _______ _______ _______ _____ _____    ______ ____

>  <TORSDO>
F 6

$$$$
=
 OpenBabel10272400123D

 34 38  0  0  1  0  0  0  0  0999 V2000
  182.3480  175.2300  136.5370 C   0  0  1  0  0  3  0  0  0  0  0  0
  182.5500  176.6610  134.3460 C   0  0  0  0  0  2  0  0  0  0  0  0
  189.8570  177.7630  134.3460 O   0  0  0  0  0  0  0  0  0  0  0  0
  183.8580  177.3790  136.4580 C   0  0  1  0  0  3  0  0  0  0  0  0
  186.1660  176.4280  137.1520 C   0  0  1  0  0  3  0  0  0  0  0  0
  185.8660  177.8550  135.0050 C   0  0  0  0  0  2  0  0  0  0  0  0
  182.7250  176.5560  135.8470 C   0  0  0  0  0  0  0  0  0  0  0  0
  187.2980  178.2440  135.3680 C   0  0  0  0  0  2  0  0  0  0  0  0
  187.5570  176.0570  136.6360 C   0  0  0  0  0  2  0  0  0  0  0  0
  183.6970  177.4710  137.9900 C   0  0  2  0  0  3  0  0  0  0  0  0
  182.1840  175.4510  138.0390 C   0  0  0  0  0  2  0  0  0  0  0  0
  181.5980  177.3970  135.2860 C   0  0  0  0  0  2  0  0  0  0  0  0
  186.2660  177.4630  138.2810 C   0  0  0  0  0  2  0  0  0  0  0  0
  184.9320  178.1630  138.5850 C   0  0  2  0  0  3  0  0  0  0  0  0
  188.0790  177.0510  135.6900 N   0  0  0  0  0  0  0  0  0  0  0  0
  185.2360  176.8650  135.9970 C   0  0  2  0  0  3  0  0  0  0  0  0
  183.4380  176.0940  138.6250 C   0  0  0  0  0  2  0  0  0  0  0  0
  189.3880  176.8860  135.1210 C   0  0  0  0  0  0  0  0  0  0  0  0
  183.3700  178.7650  141.9740 C   0  0  0  0  0  0  0  0  0  0  0  0
  184.4510  179.1440  142.7060 N   0  0  0  0  0  0  0  0  0  0  0  0
  184.7780  178.5250  140.0300 C   0  0  0  0  0  0  0  0  0  0  0  0
  185.6920  179.2240  142.1540 C   0  0  0  0  0  3  0  0  0  0  0  0
  183.5160  178.4460  140.6220 C   0  0  0  0  0  3  0  0  0  0  0  0
  185.8800  178.9140  140.8060 C   0  0  0  0  0  3  0  0  0  0  0  0
  182.1490  178.6940  142.5570 F   0  0  0  0  0  0  0  0  0  0  0  0
  181.1480  174.5320  135.9660 C   0  0  0  0  0  0  0  0  0  0  0  0
  181.2660  173.7250  134.8410 O   0  0  0  0  0  0  0  0  0  0  0  0
  180.0300  174.6620  136.5280 O   0  0  0  0  0  1  0  0  0  0  0  0
  190.2050  175.6650  135.4040 C   0  0  0  0  0  2  0  0  0  0  0  0
  191.3170  175.9790  136.3980 C   0  0  0  0  0  3  0  0  0  0  0  0
  190.9720  175.5060  137.8150 C   0  0  0  0  0  2  0  0  0  0  0  0
  190.8800  176.6570  138.8070 C   0  0  0  0  0  1  0  0  0  0  0  0
  192.6320  175.3890  135.9080 C   0  0  0  0  0  2  0  0  0  0  0  0
  193.8000  176.0130  136.6470 C   0  0  0  0  0  1  0  0  0  0  0  0
  1 26  1  6  0  0  0
  1 11  1  0  0  0  0
  2 12  1  0  0  0  0
  2  7  1  0  0  0  0
  3 18  2  0  0  0  0
  4  7  1  1  0  0  0
  4 10  1  0  0  0  0
  5  9  1  6  0  0  0
  5 13  1  0  0  0  0
  6  8  1  0  0  0  0
  7  1  1  0  0  0  0
  8 15  1  0  0  0  0
 10 14  1  0  0  0  0
 10 17  1  1  0  0  0
 11 17  1  0  0  0  0
 12  7  1  0  0  0  0
 13 14  1  0  0  0  0
 14 21  1  1  0  0  0
 15  9  1  0  0  0  0
 16  6  1  1  0  0  0
 16  4  1  0  0  0  0
 16  5  1  0  0  0  0
 18 29  1  0  0  0  0
 18 15  1  0  0  0  0
 19 25  1  0  0  0  0
 19 20  1  0  0  0  0
 21 23  1  0  0  0  0
 21 24  2  0  0  0  0
 22 20  2  0  0  0  0
 23 19  2  0  0  0  0
 24 22  1  0  0  0  0
 26 28  1  0  0  0  0
 27 26  2  0  0  0  0
 29 30  1  0  0  0  0
 30 31  1  0  0  0  0
 31 32  1  0  0  0  0
 33 30  1  0  0  0  0
 33 34  1  0  0  0  0
M  END
>  <MODEL>
8

>  <REMARK>
 VINA RESULT:      -4.8      4.552      8.654
  Name = 
  6 active torsions:
  status: ('A' for Active; 'I' for Inactive)
    1  A    between atoms: C_1  and  C_6
    2  A    between atoms: C_11  and  C_20
    3  A    between atoms: C_12  and  C_28
    4  A    between atoms: C_13  and  C_20
    5  A    between atoms: C_13  and  C_33
    6  A    between atoms: C_14  and  C_20
                            x       y       z     vdW  Elec       q    Type
                         _______ _______ _______ _____ _____    ______ ____

>  <TORSDO>
F 6

$$$$
=
 OpenBabel10272400123D

 34 38  0  0  1  0  0  0  0  0999 V2000
  189.0250  175.6730  137.1500 C   0  0  1  0  0  3  0  0  0  0  0  0
  188.5480  177.6890  135.5370 C   0  0  0  0  0  2  0  0  0  0  0  0
  181.2920  178.4330  136.7250 O   0  0  0  0  0  0  0  0  0  0  0  0
  186.9210  175.6780  135.5750 C   0  0  1  0  0  3  0  0  0  0  0  0
  184.9890  175.3830  137.2760 C   0  0  1  0  0  3  0  0  0  0  0  0
  184.9840  177.2950  135.5220 C   0  0  0  0  0  2  0  0  0  0  0  0
  188.3000  176.2420  135.9140 C   0  0  0  0  0  0  0  0  0  0  0  0
  183.4790  177.0630  135.6460 C   0  0  0  0  0  2  0  0  0  0  0  0
  183.8320  176.1020  137.9720 C   0  0  0  0  0  2  0  0  0  0  0  0
  186.9270  174.1380  135.6690 C   0  0  2  0  0  3  0  0  0  0  0  0
  188.9940  174.1470  137.1160 C   0  0  0  0  0  2  0  0  0  0  0  0
  189.1410  176.5620  134.6960 C   0  0  0  0  0  2  0  0  0  0  0  0
  184.4790  174.1590  136.5020 C   0  0  0  0  0  2  0  0  0  0  0  0
  185.4940  173.6180  135.4820 C   0  0  2  0  0  3  0  0  0  0  0  0
  183.0950  176.9800  137.0540 N   0  0  0  0  0  0  0  0  0  0  0  0
  185.8180  176.3580  136.4100 C   0  0  2  0  0  3  0  0  0  0  0  0
  187.5610  173.6430  136.9800 C   0  0  0  0  0  2  0  0  0  0  0  0
  181.9550  177.7170  137.5230 C   0  0  0  0  0  0  0  0  0  0  0  0
  184.3080  170.0420  135.7920 C   0  0  0  0  0  0  0  0  0  0  0  0
  185.1970  169.3930  134.9950 N   0  0  0  0  0  0  0  0  0  0  0  0
  185.4130  172.1320  135.3110 C   0  0  0  0  0  0  0  0  0  0  0  0
  186.1900  170.0590  134.3460 C   0  0  0  0  0  3  0  0  0  0  0  0
  184.3990  171.4260  135.9620 C   0  0  0  0  0  3  0  0  0  0  0  0
  186.3160  171.4420  134.4900 C   0  0  0  0  0  3  0  0  0  0  0  0
  183.3300  169.3470  136.4210 F   0  0  0  0  0  0  0  0  0  0  0  0
  190.4250  176.1740  137.3560 C   0  0  0  0  0  0  0  0  0  0  0  0
  190.6660  177.3080  138.1220 O   0  0  0  0  0  1  0  0  0  0  0  0
  191.3890  175.5450  136.8490 O   0  0  0  0  0  0  0  0  0  0  0  0
  181.5490  177.6790  138.9620 C   0  0  0  0  0  2  0  0  0  0  0  0
  181.9270  178.9780  139.6640 C   0  0  0  0  0  3  0  0  0  0  0  0
  180.7960  180.0120  139.6050 C   0  0  0  0  0  2  0  0  0  0  0  0
  181.1510  181.2130  138.7390 C   0  0  0  0  0  1  0  0  0  0  0  0
  182.3570  178.6890  141.0950 C   0  0  0  0  0  2  0  0  0  0  0  0
  183.7620  178.1190  141.1200 C   0  0  0  0  0  1  0  0  0  0  0  0
  1 26  1  6  0  0  0
  2  7  1  0  0  0  0
  3 18  2  0  0  0  0
  4 10  1  0  0  0  0
  4  7  1  1  0  0  0
  4 16  1  0  0  0  0
  5 13  1  6  0  0  0
  5  9  1  0  0  0  0
  6  8  1  0  0  0  0
  7  1  1  0  0  0  0
  8 15  1  0  0  0  0
 10 17  1  1  0  0  0
 11  1  1  0  0  0  0
 12  2  1  0  0  0  0
 12  7  1  0  0  0  0
 14 21  1  1  0  0  0
 14 10  1  0  0  0  0
 14 13  1  0  0  0  0
 15 18  1  0  0  0  0
 15  9  1  0  0  0  0
 16  6  1  6  0  0  0
 16  5  1  0  0  0  0
 17 11  1  0  0  0  0
 18 29  1  0  0  0  0
 19 23  1  0  0  0  0
 19 25  1  0  0  0  0
 20 19  2  0  0  0  0
 21 23  2  0  0  0  0
 22 24  2  0  0  0  0
 22 20  1  0  0  0  0
 24 21  1  0  0  0  0
 26 27  1  0  0  0  0
 28 26  2  0  0  0  0
 29 30  1  0  0  0  0
 30 33  1  0  0  0  0
 31 30  1  0  0  0  0
 32 31  1  0  0  0  0
 33 34  1  0  0  0  0
M  END
>  <MODEL>
9

>  <REMARK>
 VINA RESULT:      -4.5      5.106      7.768
  Name = 
  6 active torsions:
  status: ('A' for Active; 'I' for Inactive)
    1  A    between atoms: C_1  and  C_6
    2  A    between atoms: C_11  and  C_20
    3  A    between atoms: C_12  and  C_28
    4  A    between atoms: C_13  and  C_20
    5  A    between atoms: C_13  and  C_33
    6  A    between atoms: C_14  and  C_20
                            x       y       z     vdW  Elec       q    Type
                         _______ _______ _______ _____ _____    ______ ____

>  <TORSDO>
F 6

$$$$
