=
 OpenBabel10272415283D

 34 40  0  0  1  0  0  0  0  0999 V2000
  189.0830  176.3710  143.2480 C   0  0  1  0  0  3  0  0  0  0  0  0
  186.7460  177.5840  145.9260 C   0  0  0  0  0  3  0  0  0  0  0  0
  190.1560  174.9030  138.2950 C   0  0  0  0  0  2  0  0  0  0  0  0
  189.1740  177.4960  145.9780 C   0  0  0  0  0  2  0  0  0  0  0  0
  191.5620  177.5250  138.8060 C   0  0  0  0  0  2  0  0  0  0  0  0
  193.1990  174.6340  136.0490 C   0  0  0  0  0  0  0  0  0  0  0  0
  190.2260  177.0690  141.0220 C   0  0  2  0  0  0  0  0  0  0  0  0
  189.2060  176.1440  141.7220 C   0  0  0  0  0  2  0  0  0  0  0  0
  191.4410  177.4690  143.1040 C   0  0  0  0  0  0  0  0  0  0  0  0
  192.3460  178.1900  144.0420 C   0  0  0  0  0  2  0  0  0  0  0  0
  191.9830  174.3630  136.6880 C   0  0  0  0  0  3  0  0  0  0  0  0
  191.4270  175.2800  137.5850 C   0  0  0  0  0  0  0  0  0  0  0  0
  191.4310  177.5630  141.7800 C   0  0  0  0  0  2  0  0  0  0  0  0
  189.5530  178.1760  140.2240 C   0  0  0  0  0  2  0  0  0  0  0  0
  190.3660  177.4760  145.0630 C   0  0  0  0  0  0  0  0  0  0  0  0
  190.3130  176.9740  143.8480 C   0  0  0  0  0  0  0  0  0  0  0  0
  191.5670  178.2150  145.2830 N   0  0  0  0  0  0  0  0  0  0  0  0
  185.3790  177.4200  145.3530 C   0  0  0  0  0  2  0  0  0  0  0  0
  185.1030  178.4390  144.2950 C   0  0  0  0  0  0  0  0  0  0  0  0
  193.3280  176.7500  137.2330 C   0  0  0  0  0  3  0  0  0  0  0  0
  185.8060  178.4600  143.1580 C   0  0  0  0  0  3  0  0  0  0  0  0
  192.1160  176.4820  137.8730 C   0  0  0  0  0  0  0  0  0  0  0  0
  193.8680  175.8330  136.3270 C   0  0  0  0  0  3  0  0  0  0  0  0
  190.2830  177.0620  139.5000 C   0  0  1  0  0  0  0  0  0  0  0  0
  189.3610  176.1270  138.7320 C   0  0  0  0  0  2  0  0  0  0  0  0
  187.8650  177.4460  145.2130 C   0  0  0  0  0  0  0  0  0  0  0  0
  186.9880  177.6260  142.8620 C   0  0  0  0  0  3  0  0  0  0  0  0
  187.8730  177.1300  143.7430 C   0  0  0  0  0  0  0  0  0  0  0  0
  183.9660  179.3600  144.4720 C   0  0  0  0  0  0  0  0  0  0  0  0
  183.1120  179.2100  145.5580 O   0  0  0  0  0  1  0  0  0  0  0  0
  183.7590  180.2920  143.6490 O   0  0  0  0  0  0  0  0  0  0  0  0
  193.7560  173.6920  135.1240 N   0  0  0  0  0  0  0  0  0  0  0  0
  193.0130  172.6550  134.6690 O   0  0  0  0  0  0  0  0  0  0  0  0
  195.0330  173.8270  134.6930 O   0  0  0  0  0  0  0  0  0  0  0  0
  1  8  1  6  0  0  0
  1 28  1  0  0  0  0
  1 16  1  0  0  0  0
  3 25  1  0  0  0  0
  5 24  1  0  0  0  0
  6 23  2  0  0  0  0
  6 11  1  0  0  0  0
  7 14  1  1  0  0  0
  7  8  1  0  0  0  0
  7 13  1  0  0  0  0
  9 16  2  0  0  0  0
  9 10  1  0  0  0  0
 10 17  1  0  0  0  0
 11 12  2  0  0  0  0
 12 22  1  0  0  0  0
 12  3  1  0  0  0  0
 13  9  1  0  0  0  0
 15 17  2  0  0  0  0
 15  4  1  0  0  0  0
 16 15  1  0  0  0  0
 18  2  1  0  0  0  0
 19 29  1  0  0  0  0
 19 18  1  0  0  0  0
 20 22  2  0  0  0  0
 21 19  2  0  0  0  0
 22  5  1  0  0  0  0
 23 20  1  0  0  0  0
 24 25  1  6  0  0  0
 24 14  1  0  0  0  0
 24  7  1  0  0  0  0
 26  2  2  0  0  0  0
 26  4  1  0  0  0  0
 27 21  1  0  0  0  0
 27 28  2  0  0  0  0
 28 26  1  0  0  0  0
 29 30  1  0  0  0  0
 31 29  2  0  0  0  0
 32  6  1  0  0  0  0
 33 32  2  0  0  0  0
 34 32  2  0  0  0  0
M  END
>  <MODEL>
1

>  <REMARK>
 VINA RESULT:      -7.4      0.000      0.000
  Name = 
  2 active torsions:
  status: ('A' for Active; 'I' for Inactive)
    1  A    between atoms: C_3  and  C_25
    2  A    between atoms: C_7  and  N_11
                            x       y       z     vdW  Elec       q    Type
                         _______ _______ _______ _____ _____    ______ ____

>  <TORSDO>
F 2

$$$$
=
 OpenBabel10272415283D

 34 40  0  0  1  0  0  0  0  0999 V2000
  187.9800  174.6990  137.2780 C   0  0  1  0  0  3  0  0  0  0  0  0
  184.3370  173.7890  137.3310 C   0  0  0  0  0  3  0  0  0  0  0  0
  193.0940  173.4840  136.8160 C   0  0  0  0  0  2  0  0  0  0  0  0
  185.3310  176.0010  137.1630 C   0  0  0  0  0  2  0  0  0  0  0  0
  192.3080  175.1050  134.3930 C   0  0  0  0  0  2  0  0  0  0  0  0
  196.3290  175.2630  135.9550 C   0  0  0  0  0  0  0  0  0  0  0  0
  190.0650  174.8180  135.7320 C   0  0  2  0  0  0  0  0  0  0  0  0
  189.3890  174.1480  136.9490 C   0  0  0  0  0  2  0  0  0  0  0  0
  188.6830  176.8230  135.9440 C   0  0  0  0  0  0  0  0  0  0  0  0
  188.0150  178.0760  135.4960 C   0  0  0  0  0  3  0  0  0  0  0  0
  195.3890  174.4230  136.5620 C   0  0  0  0  0  3  0  0  0  0  0  0
  194.0790  174.3490  136.0790 C   0  0  0  0  0  0  0  0  0  0  0  0
  189.7530  176.2550  135.4000 C   0  0  0  0  0  2  0  0  0  0  0  0
  190.0550  173.9270  134.4990 C   0  0  0  0  0  2  0  0  0  0  0  0
  186.5970  176.6870  136.7330 C   0  0  0  0  0  0  0  0  0  0  0  0
  187.7710  176.0950  136.7870 C   0  0  1  0  0  3  0  0  0  0  0  0
  186.6450  177.9030  135.9870 N   0  0  0  0  0  0  0  0  0  0  0  0
  184.3080  172.3020  137.4370 C   0  0  0  0  0  2  0  0  0  0  0  0
  184.7130  171.6530  136.1530 C   0  0  0  0  0  0  0  0  0  0  0  0
  194.6330  175.9910  134.3770 C   0  0  0  0  0  3  0  0  0  0  0  0
  185.9470  171.8060  135.6630 C   0  0  0  0  0  3  0  0  0  0  0  0
  193.6920  175.1550  134.9820 C   0  0  0  0  0  0  0  0  0  0  0  0
  195.9440  176.0470  134.8590 C   0  0  0  0  0  3  0  0  0  0  0  0
  191.3640  174.2210  135.2070 C   0  0  1  0  0  0  0  0  0  0  0  0
  191.9600  173.0140  135.9150 C   0  0  0  0  0  2  0  0  0  0  0  0
  185.4460  174.4900  137.0900 C   0  0  0  0  0  0  0  0  0  0  0  0
  186.9840  172.7050  136.2070 C   0  0  0  0  0  3  0  0  0  0  0  0
  186.7920  173.8550  136.8750 C   0  0  0  0  0  0  0  0  0  0  0  0
  183.7630  170.7490  135.4820 C   0  0  0  0  0  0  0  0  0  0  0  0
  183.9580  169.3740  135.5300 O   0  0  0  0  0  1  0  0  0  0  0  0
  182.7650  171.2090  134.8640 O   0  0  0  0  0  0  0  0  0  0  0  0
  197.6720  175.3250  136.4510 N   0  0  0  0  0  0  0  0  0  0  0  0
  198.7220  175.2760  135.5970 O   0  0  0  0  0  0  0  0  0  0  0  0
  197.9080  175.4330  137.7800 O   0  0  0  0  0  0  0  0  0  0  0  0
  1  8  1  6  0  0  0
  2 18  1  0  0  0  0
  5 22  1  0  0  0  0
  6 32  1  0  0  0  0
  6 11  1  0  0  0  0
  7 14  1  6  0  0  0
  7  8  1  0  0  0  0
 10  9  2  0  0  0  0
 10 17  1  0  0  0  0
 12 11  2  0  0  0  0
 12  3  1  0  0  0  0
 13  7  1  0  0  0  0
 13  9  1  0  0  0  0
 14 24  1  0  0  0  0
 15 16  1  0  0  0  0
 15  4  1  0  0  0  0
 16  9  1  6  0  0  0
 16  1  1  0  0  0  0
 17 15  2  0  0  0  0
 19 18  1  0  0  0  0
 20 23  1  0  0  0  0
 20 22  2  0  0  0  0
 21 19  2  0  0  0  0
 21 27  1  0  0  0  0
 22 12  1  0  0  0  0
 23  6  2  0  0  0  0
 24  5  1  6  0  0  0
 24  7  1  0  0  0  0
 24 25  1  0  0  0  0
 25  3  1  0  0  0  0
 26  4  1  0  0  0  0
 26  2  2  0  0  0  0
 27 28  2  0  0  0  0
 28 26  1  0  0  0  0
 28  1  1  0  0  0  0
 29 30  1  0  0  0  0
 29 19  1  0  0  0  0
 31 29  2  0  0  0  0
 32 34  2  0  0  0  0
 33 32  2  0  0  0  0
M  END
>  <MODEL>
2

>  <REMARK>
 VINA RESULT:      -6.0      6.763      7.756
  Name = 
  2 active torsions:
  status: ('A' for Active; 'I' for Inactive)
    1  A    between atoms: C_3  and  C_25
    2  A    between atoms: C_7  and  N_11
                            x       y       z     vdW  Elec       q    Type
                         _______ _______ _______ _____ _____    ______ ____

>  <TORSDO>
F 2

$$$$
=
 OpenBabel10272415283D

 34 40  0  0  1  0  0  0  0  0999 V2000
  188.6500  176.4100  143.1660 C   0  0  1  0  0  3  0  0  0  0  0  0
  191.3940  176.1580  145.7170 C   0  0  0  0  0  3  0  0  0  0  0  0
  183.6400  177.2870  141.7630 C   0  0  0  0  0  2  0  0  0  0  0  0
  191.5980  176.2710  143.2980 C   0  0  0  0  0  2  0  0  0  0  0  0
  185.3120  179.5570  140.6830 C   0  0  0  0  0  2  0  0  0  0  0  0
  181.7370  178.2690  138.6340 C   0  0  0  0  0  0  0  0  0  0  0  0
  187.0190  178.0860  142.0350 C   0  0  2  0  0  0  0  0  0  0  0  0
  187.1840  176.8640  142.9660 C   0  0  0  0  0  2  0  0  0  0  0  0
  189.1660  177.6690  140.9450 C   0  0  0  0  0  0  0  0  0  0  0  0
  190.3890  178.0000  140.1610 C   0  0  0  0  0  3  0  0  0  0  0  0
  182.1050  177.6450  139.8330 C   0  0  0  0  0  3  0  0  0  0  0  0
  183.2560  178.0410  140.5200 C   0  0  0  0  0  0  0  0  0  0  0  0
  188.0080  178.3160  140.9200 C   0  0  0  0  0  2  0  0  0  0  0  0
  186.7080  179.3620  142.8010 C   0  0  0  0  0  2  0  0  0  0  0  0
  190.8560  176.7480  142.0800 C   0  0  0  0  0  0  0  0  0  0  0  0
  189.5430  176.8070  142.0350 C   0  0  1  0  0  3  0  0  0  0  0  0
  191.4610  177.4260  140.9800 N   0  0  0  0  0  0  0  0  0  0  0  0
  190.6990  176.1320  147.0360 C   0  0  0  0  0  2  0  0  0  0  0  0
  190.1470  177.4750  147.3900 C   0  0  0  0  0  0  0  0  0  0  0  0
  183.7040  179.6830  138.7870 C   0  0  0  0  0  3  0  0  0  0  0  0
  189.1840  178.0390  146.6550 C   0  0  0  0  0  3  0  0  0  0  0  0
  184.0750  179.0620  139.9820 C   0  0  0  0  0  0  0  0  0  0  0  0
  182.5440  179.2900  138.1160 C   0  0  0  0  0  3  0  0  0  0  0  0
  185.6440  178.7310  141.9250 C   0  0  1  0  0  0  0  0  0  0  0  0
  184.4840  178.1330  142.7070 C   0  0  0  0  0  2  0  0  0  0  0  0
  190.7810  176.4350  144.5650 C   0  0  0  0  0  0  0  0  0  0  0  0
  188.6600  177.5190  145.3760 C   0  0  0  0  0  3  0  0  0  0  0  0
  189.3200  176.7760  144.4710 C   0  0  0  0  0  0  0  0  0  0  0  0
  190.6030  178.1280  148.6290 C   0  0  0  0  0  0  0  0  0  0  0  0
  191.9320  178.0270  149.0210 O   0  0  0  0  0  0  0  0  0  0  0  0
  189.7980  178.7870  149.3420 O   0  0  0  0  0  1  0  0  0  0  0  0
  180.5500  177.8630  137.9420 N   0  0  0  0  0  0  0  0  0  0  0  0
  179.9820  176.6610  138.2000 O   0  0  0  0  0  0  0  0  0  0  0  0
  179.9820  178.6760  137.0190 O   0  0  0  0  0  0  0  0  0  0  0  0
  1  8  1  6  0  0  0
  1 28  1  0  0  0  0
  2 18  1  0  0  0  0
  3 25  1  0  0  0  0
  4 26  1  0  0  0  0
  6 11  1  0  0  0  0
  7 13  1  6  0  0  0
  7 14  1  0  0  0  0
  7  8  1  0  0  0  0
 10  9  2  0  0  0  0
 10 17  1  0  0  0  0
 11 12  2  0  0  0  0
 12  3  1  0  0  0  0
 13  9  1  0  0  0  0
 15  4  1  0  0  0  0
 16  9  1  1  0  0  0
 16 15  1  0  0  0  0
 16  1  1  0  0  0  0
 17 15  2  0  0  0  0
 18 19  1  0  0  0  0
 19 29  1  0  0  0  0
 20 22  2  0  0  0  0
 21 19  2  0  0  0  0
 22 12  1  0  0  0  0
 22  5  1  0  0  0  0
 23  6  2  0  0  0  0
 23 20  1  0  0  0  0
 24  5  1  6  0  0  0
 24  7  1  0  0  0  0
 24 25  1  0  0  0  0
 24 14  1  0  0  0  0
 26  2  2  0  0  0  0
 27 21  1  0  0  0  0
 28 26  1  0  0  0  0
 28 27  2  0  0  0  0
 29 30  2  0  0  0  0
 29 31  1  0  0  0  0
 32 33  2  0  0  0  0
 32  6  1  0  0  0  0
 34 32  2  0  0  0  0
M  END
>  <MODEL>
3

>  <REMARK>
 VINA RESULT:      -5.9      4.917      7.663
  Name = 
  2 active torsions:
  status: ('A' for Active; 'I' for Inactive)
    1  A    between atoms: C_3  and  C_25
    2  A    between atoms: C_7  and  N_11
                            x       y       z     vdW  Elec       q    Type
                         _______ _______ _______ _____ _____    ______ ____

>  <TORSDO>
F 2

$$$$
=
 OpenBabel10272415283D

 34 40  0  0  1  0  0  0  0  0999 V2000
  190.6820  176.3940  136.5410 C   0  0  1  0  0  3  0  0  0  0  0  0
  194.1490  174.9950  136.8920 C   0  0  0  0  0  3  0  0  0  0  0  0
  185.8650  176.4640  134.3890 C   0  0  0  0  0  2  0  0  0  0  0  0
  192.9950  176.5380  138.3730 C   0  0  0  0  0  2  0  0  0  0  0  0
  185.5800  175.5750  137.2600 C   0  0  0  0  0  2  0  0  0  0  0  0
  182.4120  177.7460  135.2880 C   0  0  0  0  0  0  0  0  0  0  0  0
  188.1730  175.8370  136.9210 C   0  0  2  0  0  0  0  0  0  0  0  0
  189.2980  176.1270  135.9030 C   0  0  0  0  0  2  0  0  0  0  0  0
  189.3770  176.9680  138.7210 C   0  0  0  0  0  0  0  0  0  0  0  0
  189.7350  177.3000  140.1280 C   0  0  0  0  0  2  0  0  0  0  0  0
  183.5720  177.4220  134.5740 C   0  0  0  0  0  3  0  0  0  0  0  0
  184.6150  176.7200  135.1840 C   0  0  0  0  0  0  0  0  0  0  0  0
  188.2300  176.4550  138.2950 C   0  0  0  0  0  2  0  0  0  0  0  0
  187.7990  174.3630  136.9670 C   0  0  0  0  0  2  0  0  0  0  0  0
  191.6100  176.9660  138.7720 C   0  0  0  0  0  0  0  0  0  0  0  0
  190.5870  176.8950  137.9470 C   0  0  0  0  0  0  0  0  0  0  0  0
  191.1990  177.2250  140.1130 N   0  0  0  0  0  0  0  0  0  0  0  0
  194.3290  174.1010  135.7110 C   0  0  0  0  0  2  0  0  0  0  0  0
  193.5330  172.8430  135.8500 C   0  0  0  0  0  0  0  0  0  0  0  0
  183.3500  176.6790  137.2580 C   0  0  0  0  0  3  0  0  0  0  0  0
  192.1970  172.8740  135.8890 C   0  0  0  0  0  3  0  0  0  0  0  0
  184.5090  176.3570  136.5480 C   0  0  0  0  0  0  0  0  0  0  0  0
  182.3080  177.3700  136.6340 C   0  0  0  0  0  3  0  0  0  0  0  0
  186.8220  175.3720  136.3940 C   0  0  1  0  0  0  0  0  0  0  0  0
  186.6220  175.2410  134.8920 C   0  0  0  0  0  2  0  0  0  0  0  0
  192.9780  175.5330  137.2370 C   0  0  0  0  0  0  0  0  0  0  0  0
  191.3660  174.0930  135.9480 C   0  0  0  0  0  3  0  0  0  0  0  0
  191.7010  175.2790  136.4860 C   0  0  0  0  0  0  0  0  0  0  0  0
  194.2370  171.5500  135.8350 C   0  0  0  0  0  0  0  0  0  0  0  0
  195.6010  171.5020  135.5760 O   0  0  0  0  0  0  0  0  0  0  0  0
  193.6150  170.4760  136.0610 O   0  0  0  0  0  1  0  0  0  0  0  0
  181.3450  178.4580  134.6520 N   0  0  0  0  0  0  0  0  0  0  0  0
  181.4820  179.7710  134.3470 O   0  0  0  0  0  0  0  0  0  0  0  0
  180.1850  177.8290  134.3460 O   0  0  0  0  0  0  0  0  0  0  0  0
  1  8  1  1  0  0  0
  1 16  1  0  0  0  0
  2 26  2  0  0  0  0
  3 25  1  0  0  0  0
  3 12  1  0  0  0  0
  4 15  1  0  0  0  0
  6 23  1  0  0  0  0
  7  8  1  6  0  0  0
  7 14  1  0  0  0  0
  7 13  1  0  0  0  0
  9 10  1  0  0  0  0
 11 12  1  0  0  0  0
 11  6  2  0  0  0  0
 12 22  2  0  0  0  0
 13  9  1  0  0  0  0
 15 17  2  0  0  0  0
 16  9  2  0  0  0  0
 16 15  1  0  0  0  0
 17 10  1  0  0  0  0
 18 19  1  0  0  0  0
 18  2  1  0  0  0  0
 19 21  2  0  0  0  0
 21 27  1  0  0  0  0
 22 20  1  0  0  0  0
 22  5  1  0  0  0  0
 23 20  2  0  0  0  0
 24 25  1  6  0  0  0
 24  7  1  0  0  0  0
 24 14  1  0  0  0  0
 24  5  1  0  0  0  0
 26  4  1  0  0  0  0
 27 28  2  0  0  0  0
 28  1  1  0  0  0  0
 28 26  1  0  0  0  0
 29 19  1  0  0  0  0
 29 31  1  0  0  0  0
 30 29  2  0  0  0  0
 32  6  1  0  0  0  0
 33 32  2  0  0  0  0
 34 32  2  0  0  0  0
M  END
>  <MODEL>
4

>  <REMARK>
 VINA RESULT:      -5.3      4.927      9.911
  Name = 
  2 active torsions:
  status: ('A' for Active; 'I' for Inactive)
    1  A    between atoms: C_3  and  C_25
    2  A    between atoms: C_7  and  N_11
                            x       y       z     vdW  Elec       q    Type
                         _______ _______ _______ _____ _____    ______ ____

>  <TORSDO>
F 2

$$$$
=
 OpenBabel10272415283D

 34 40  0  0  1  0  0  0  0  0999 V2000
  188.0160  178.3340  138.8740 C   0  0  1  0  0  3  0  0  0  0  0  0
  185.1110  179.1600  141.1060 C   0  0  0  0  0  3  0  0  0  0  0  0
  193.1160  177.2670  138.0430 C   0  0  0  0  0  2  0  0  0  0  0  0
  185.0640  178.4180  138.7920 C   0  0  0  0  0  2  0  0  0  0  0  0
  191.5450  174.7480  137.4960 C   0  0  0  0  0  2  0  0  0  0  0  0
  195.2270  175.5630  135.3950 C   0  0  0  0  0  0  0  0  0  0  0  0
  189.7370  176.4700  138.3150 C   0  0  2  0  0  0  0  0  0  0  0  0
  189.4970  177.8850  138.8850 C   0  0  0  0  0  2  0  0  0  0  0  0
  187.6580  176.5280  137.0320 C   0  0  0  0  0  0  0  0  0  0  0  0
  186.4930  175.9700  136.2910 C   0  0  0  0  0  3  0  0  0  0  0  0
  194.7760  176.4650  136.3660 C   0  0  0  0  0  3  0  0  0  0  0  0
  193.5870  176.2290  137.0640 C   0  0  0  0  0  0  0  0  0  0  0  0
  188.8240  175.9300  137.2430 C   0  0  0  0  0  2  0  0  0  0  0  0
  190.0140  175.4450  139.4050 C   0  0  0  0  0  2  0  0  0  0  0  0
  185.8880  177.6630  137.7860 C   0  0  0  0  0  0  0  0  0  0  0  0
  187.2020  177.6320  137.8350 C   0  0  1  0  0  3  0  0  0  0  0  0
  185.3630  176.7050  136.8680 N   0  0  0  0  0  0  0  0  0  0  0  0
  185.7200  179.5470  142.4110 C   0  0  0  0  0  2  0  0  0  0  0  0
  186.2660  178.3580  143.1340 C   0  0  0  0  0  0  0  0  0  0  0  0
  193.2720  174.1810  135.7960 C   0  0  0  0  0  3  0  0  0  0  0  0
  187.2810  177.6500  142.6290 C   0  0  0  0  0  3  0  0  0  0  0  0
  192.8170  175.0790  136.7640 C   0  0  0  0  0  0  0  0  0  0  0  0
  194.4680  174.4200  135.1140 C   0  0  0  0  0  3  0  0  0  0  0  0
  191.1240  175.8580  138.4580 C   0  0  1  0  0  0  0  0  0  0  0  0
  192.2240  176.6710  139.1240 C   0  0  0  0  0  2  0  0  0  0  0  0
  185.8000  178.6120  140.1040 C   0  0  0  0  0  0  0  0  0  0  0  0
  187.8790  177.8360  141.2920 C   0  0  0  0  0  3  0  0  0  0  0  0
  187.2690  178.3000  140.1870 C   0  0  0  0  0  0  0  0  0  0  0  0
  185.7400  178.0350  144.4720 C   0  0  0  0  0  0  0  0  0  0  0  0
  186.5130  177.3070  145.3670 O   0  0  0  0  0  1  0  0  0  0  0  0
  184.5900  178.4180  144.8200 O   0  0  0  0  0  0  0  0  0  0  0  0
  196.4500  175.8090  134.6910 N   0  0  0  0  0  0  0  0  0  0  0  0
  197.2700  174.7840  134.3610 O   0  0  0  0  0  0  0  0  0  0  0  0
  196.8020  177.0720  134.3470 O   0  0  0  0  0  0  0  0  0  0  0  0
  1  8  1  1  0  0  0
  1 28  1  0  0  0  0
  2 18  1  0  0  0  0
  3 25  1  0  0  0  0
  4 26  1  0  0  0  0
  6 11  1  0  0  0  0
  7 13  1  6  0  0  0
  7 24  1  0  0  0  0
  7  8  1  0  0  0  0
  7 14  1  0  0  0  0
  9 13  1  0  0  0  0
 10 17  1  0  0  0  0
 10  9  2  0  0  0  0
 11 12  2  0  0  0  0
 12  3  1  0  0  0  0
 15 16  1  0  0  0  0
 15  4  1  0  0  0  0
 16  9  1  1  0  0  0
 16  1  1  0  0  0  0
 17 15  2  0  0  0  0
 18 19  1  0  0  0  0
 19 29  1  0  0  0  0
 20 22  2  0  0  0  0
 21 19  2  0  0  0  0
 22 12  1  0  0  0  0
 22  5  1  0  0  0  0
 23  6  2  0  0  0  0
 23 20  1  0  0  0  0
 24  5  1  6  0  0  0
 24 25  1  0  0  0  0
 24 14  1  0  0  0  0
 26 28  1  0  0  0  0
 26  2  2  0  0  0  0
 27 21  1  0  0  0  0
 28 27  2  0  0  0  0
 29 31  2  0  0  0  0
 29 30  1  0  0  0  0
 32  6  1  0  0  0  0
 33 32  2  0  0  0  0
 34 32  2  0  0  0  0
M  END
>  <MODEL>
5

>  <REMARK>
 VINA RESULT:      -5.0      2.958      4.789
  Name = 
  2 active torsions:
  status: ('A' for Active; 'I' for Inactive)
    1  A    between atoms: C_3  and  C_25
    2  A    between atoms: C_7  and  N_11
                            x       y       z     vdW  Elec       q    Type
                         _______ _______ _______ _____ _____    ______ ____

>  <TORSDO>
F 2

$$$$
=
 OpenBabel10272415283D

 34 40  0  0  1  0  0  0  0  0999 V2000
  186.5360  179.1780  143.6490 C   0  0  1  0  0  3  0  0  0  0  0  0
  189.2550  177.6010  145.7040 C   0  0  0  0  0  3  0  0  0  0  0  0
  184.2990  180.4470  139.0420 C   0  0  0  0  0  2  0  0  0  0  0  0
  187.0690  178.3670  146.4390 C   0  0  0  0  0  2  0  0  0  0  0  0
  182.5540  178.3760  140.3760 C   0  0  0  0  0  2  0  0  0  0  0  0
  180.8500  181.3560  137.7580 C   0  0  0  0  0  0  0  0  0  0  0  0
  184.6040  178.6340  142.0000 C   0  0  2  0  0  0  0  0  0  0  0  0
  185.9840  179.2960  142.2080 C   0  0  0  0  0  2  0  0  0  0  0  0
  184.0700  178.7720  144.3810 C   0  0  0  0  0  0  0  0  0  0  0  0
  183.3730  178.4170  145.6480 C   0  0  0  0  0  2  0  0  0  0  0  0
  182.2340  181.3320  137.9630 C   0  0  0  0  0  3  0  0  0  0  0  0
  182.8170  180.3790  138.8040 C   0  0  0  0  0  0  0  0  0  0  0  0
  183.6270  178.5640  143.1470 C   0  0  0  0  0  2  0  0  0  0  0  0
  184.7000  177.3180  141.2430 C   0  0  0  0  0  2  0  0  0  0  0  0
  185.6850  178.6370  145.9180 C   0  0  0  0  0  0  0  0  0  0  0  0
  185.4610  178.9960  144.6720 C   0  0  0  0  0  0  0  0  0  0  0  0
  184.4820  178.2850  146.5980 N   0  0  0  0  0  0  0  0  0  0  0  0
  190.3620  177.3270  144.7420 C   0  0  0  0  0  2  0  0  0  0  0  0
  190.0300  176.1830  143.8390 C   0  0  0  0  0  0  0  0  0  0  0  0
  180.6120  179.4720  139.2710 C   0  0  0  0  0  3  0  0  0  0  0  0
  189.0140  176.2590  142.9750 C   0  0  0  0  0  3  0  0  0  0  0  0
  181.9930  179.4470  139.4800 C   0  0  0  0  0  0  0  0  0  0  0  0
  180.0420  180.4200  138.4180 C   0  0  0  0  0  3  0  0  0  0  0  0
  184.0610  178.5240  140.5810 C   0  0  1  0  0  0  0  0  0  0  0  0
  184.8780  179.0940  139.4330 C   0  0  0  0  0  2  0  0  0  0  0  0
  188.0320  177.9830  145.3320 C   0  0  0  0  0  0  0  0  0  0  0  0
  188.0330  177.3600  142.8940 C   0  0  0  0  0  3  0  0  0  0  0  0
  187.6240  178.1580  143.8960 C   0  0  0  0  0  0  0  0  0  0  0  0
  190.9100  175.0010  143.8350 C   0  0  0  0  0  0  0  0  0  0  0  0
  192.1910  175.0850  144.3670 O   0  0  0  0  0  1  0  0  0  0  0  0
  190.5120  173.9050  143.3550 O   0  0  0  0  0  0  0  0  0  0  0  0
  180.2630  182.3310  136.8880 N   0  0  0  0  0  0  0  0  0  0  0  0
  179.9820  182.0200  135.6000 O   0  0  0  0  0  0  0  0  0  0  0  0
  179.9830  183.5760  137.3410 O   0  0  0  0  0  0  0  0  0  0  0  0
  1  8  1  6  0  0  0
  1 28  1  0  0  0  0
  1 16  1  0  0  0  0
  3 25  1  0  0  0  0
  5 24  1  0  0  0  0
  6 11  2  0  0  0  0
  6 23  1  0  0  0  0
  7 14  1  1  0  0  0
  7  8  1  0  0  0  0
  7 13  1  0  0  0  0
  9 16  2  0  0  0  0
  9 10  1  0  0  0  0
 10 17  1  0  0  0  0
 11 12  1  0  0  0  0
 12  3  1  0  0  0  0
 12 22  2  0  0  0  0
 13  9  1  0  0  0  0
 15  4  1  0  0  0  0
 15 17  2  0  0  0  0
 16 15  1  0  0  0  0
 18  2  1  0  0  0  0
 19 18  1  0  0  0  0
 20 22  1  0  0  0  0
 21 19  2  0  0  0  0
 22  5  1  0  0  0  0
 23 20  2  0  0  0  0
 24 25  1  6  0  0  0
 24 14  1  0  0  0  0
 24  7  1  0  0  0  0
 26  2  2  0  0  0  0
 26  4  1  0  0  0  0
 27 21  1  0  0  0  0
 27 28  2  0  0  0  0
 28 26  1  0  0  0  0
 29 19  1  0  0  0  0
 29 30  1  0  0  0  0
 31 29  2  0  0  0  0
 32 34  2  0  0  0  0
 32  6  1  0  0  0  0
 33 32  2  0  0  0  0
M  END
>  <MODEL>
6

>  <REMARK>
 VINA RESULT:      -4.9      5.571      9.014
  Name = 
  2 active torsions:
  status: ('A' for Active; 'I' for Inactive)
    1  A    between atoms: C_3  and  C_25
    2  A    between atoms: C_7  and  N_11
                            x       y       z     vdW  Elec       q    Type
                         _______ _______ _______ _____ _____    ______ ____

>  <TORSDO>
F 2

$$$$
=
 OpenBabel10272415283D

 34 40  0  0  1  0  0  0  0  0999 V2000
  182.9380  177.6590  138.5420 C   0  0  1  0  0  3  0  0  0  0  0  0
  180.6390  178.6610  135.7470 C   0  0  0  0  0  3  0  0  0  0  0  0
  186.8890  178.6020  141.9100 C   0  0  0  0  0  2  0  0  0  0  0  0
  180.4370  176.7630  137.2510 C   0  0  0  0  0  2  0  0  0  0  0  0
  184.3320  178.4490  143.5070 C   0  0  0  0  0  2  0  0  0  0  0  0
  188.1040  177.2740  145.2460 C   0  0  0  0  0  0  0  0  0  0  0  0
  183.5500  178.1830  141.0120 C   0  0  2  0  0  0  0  0  0  0  0  0
  183.9940  178.2060  139.5330 C   0  0  0  0  0  2  0  0  0  0  0  0
  181.8980  176.4330  140.5910 C   0  0  0  0  0  0  0  0  0  0  0  0
  180.6800  175.6120  140.8440 C   0  0  0  0  0  2  0  0  0  0  0  0
  188.0750  177.7640  143.9350 C   0  0  0  0  0  3  0  0  0  0  0  0
  186.8690  178.1530  143.3440 C   0  0  0  0  0  0  0  0  0  0  0  0
  182.5900  177.1230  141.4890 C   0  0  0  0  0  2  0  0  0  0  0  0
  183.1840  179.5660  141.5290 C   0  0  0  0  0  2  0  0  0  0  0  0
  180.8630  176.2980  138.6150 C   0  0  0  0  0  0  0  0  0  0  0  0
  181.9790  176.7060  139.1810 C   0  0  0  0  0  0  0  0  0  0  0  0
  180.0180  175.6100  139.5360 N   0  0  0  0  0  0  0  0  0  0  0  0
  181.2400  179.9000  135.1730 C   0  0  0  0  0  2  0  0  0  0  0  0
  181.0570  181.0700  136.0840 C   0  0  0  0  0  0  0  0  0  0  0  0
  185.6940  177.5360  145.3790 C   0  0  0  0  0  3  0  0  0  0  0  0
  181.6280  181.0990  137.2920 C   0  0  0  0  0  3  0  0  0  0  0  0
  185.6610  178.0220  144.0700 C   0  0  0  0  0  0  0  0  0  0  0  0
  186.9060  177.1620  145.9640 C   0  0  0  0  0  3  0  0  0  0  0  0
  184.4320  178.8750  142.0430 C   0  0  1  0  0  0  0  0  0  0  0  0
  185.7260  179.5310  141.5850 C   0  0  0  0  0  2  0  0  0  0  0  0
  181.0520  178.1000  136.8850 C   0  0  0  0  0  0  0  0  0  0  0  0
  182.3570  179.9830  137.9270 C   0  0  0  0  0  3  0  0  0  0  0  0
  182.1580  178.6680  137.7300 C   0  0  0  0  0  0  0  0  0  0  0  0
  180.3240  182.2490  135.5900 C   0  0  0  0  0  0  0  0  0  0  0  0
  179.9820  183.2730  136.4650 O   0  0  0  0  0  1  0  0  0  0  0  0
  180.0030  182.3440  134.3750 O   0  0  0  0  0  0  0  0  0  0  0  0
  189.3460  176.8860  145.8460 N   0  0  0  0  0  0  0  0  0  0  0  0
  189.3930  176.5180  147.1490 O   0  0  0  0  0  0  0  0  0  0  0  0
  190.4890  176.8830  145.1190 O   0  0  0  0  0  0  0  0  0  0  0  0
  1 16  1  0  0  0  0
  1  8  1  1  0  0  0
  2 26  2  0  0  0  0
  3 12  1  0  0  0  0
  4 15  1  0  0  0  0
  5 22  1  0  0  0  0
  6 32  1  0  0  0  0
  6 23  1  0  0  0  0
  7  8  1  6  0  0  0
  7 13  1  0  0  0  0
  7 14  1  0  0  0  0
  7 24  1  0  0  0  0
  9 10  1  0  0  0  0
  9 13  1  0  0  0  0
 11  6  2  0  0  0  0
 12 11  1  0  0  0  0
 12 22  2  0  0  0  0
 15 16  1  0  0  0  0
 15 17  2  0  0  0  0
 16  9  2  0  0  0  0
 17 10  1  0  0  0  0
 18  2  1  0  0  0  0
 18 19  1  0  0  0  0
 19 21  2  0  0  0  0
 20 23  2  0  0  0  0
 21 27  1  0  0  0  0
 22 20  1  0  0  0  0
 24 14  1  1  0  0  0
 24  5  1  0  0  0  0
 25  3  1  0  0  0  0
 25 24  1  0  0  0  0
 26  4  1  0  0  0  0
 26 28  1  0  0  0  0
 28 27  2  0  0  0  0
 28  1  1  0  0  0  0
 29 19  1  0  0  0  0
 29 30  1  0  0  0  0
 31 29  2  0  0  0  0
 32 33  2  0  0  0  0
 34 32  2  0  0  0  0
M  END
>  <MODEL>
7

>  <REMARK>
 VINA RESULT:      -4.8      6.249      9.861
  Name = 
  2 active torsions:
  status: ('A' for Active; 'I' for Inactive)
    1  A    between atoms: C_3  and  C_25
    2  A    between atoms: C_7  and  N_11
                            x       y       z     vdW  Elec       q    Type
                         _______ _______ _______ _____ _____    ______ ____

>  <TORSDO>
F 2

$$$$
=
 OpenBabel10272415283D

 34 40  0  0  1  0  0  0  0  0999 V2000
  187.6050  178.8070  141.4460 C   0  0  1  0  0  3  0  0  0  0  0  0
  184.9400  179.1450  138.8230 C   0  0  0  0  0  3  0  0  0  0  0  0
  189.1970  178.2410  146.4450 C   0  0  0  0  0  2  0  0  0  0  0  0
  187.3030  178.6710  138.5110 C   0  0  0  0  0  2  0  0  0  0  0  0
  189.8490  175.6860  144.9730 C   0  0  0  0  0  2  0  0  0  0  0  0
  192.2810  177.0190  148.2820 C   0  0  0  0  0  0  0  0  0  0  0  0
  188.6020  177.1580  143.1890 C   0  0  2  0  0  0  0  0  0  0  0  0
  187.8360  178.4760  142.9410 C   0  0  0  0  0  2  0  0  0  0  0  0
  189.5960  177.2010  140.9570 C   0  0  0  0  0  0  0  0  0  0  0  0
  190.2470  176.6420  139.7390 C   0  0  0  0  0  3  0  0  0  0  0  0
  191.1570  177.7660  147.9100 C   0  0  0  0  0  3  0  0  0  0  0  0
  190.3490  177.3600  146.8440 C   0  0  0  0  0  0  0  0  0  0  0  0
  189.6090  176.6750  142.1750 C   0  0  0  0  0  2  0  0  0  0  0  0
  187.6900  176.0400  143.6730 C   0  0  0  0  0  2  0  0  0  0  0  0
  188.4900  178.1010  139.2370 C   0  0  0  0  0  0  0  0  0  0  0  0
  188.6120  178.1670  140.5460 C   0  0  1  0  0  3  0  0  0  0  0  0
  189.4460  177.2180  138.6540 N   0  0  0  0  0  0  0  0  0  0  0  0
  183.6840  179.4270  139.5770 C   0  0  0  0  0  2  0  0  0  0  0  0
  183.1880  178.2090  140.2870 C   0  0  0  0  0  0  0  0  0  0  0  0
  191.8100  175.4520  146.4880 C   0  0  0  0  0  3  0  0  0  0  0  0
  183.9000  177.6440  141.2670 C   0  0  0  0  0  3  0  0  0  0  0  0
  190.6890  176.1970  146.1130 C   0  0  0  0  0  0  0  0  0  0  0  0
  192.6020  175.8600  147.5640 C   0  0  0  0  0  3  0  0  0  0  0  0
  188.7120  176.6430  144.6180 C   0  0  1  0  0  0  0  0  0  0  0  0
  188.0950  177.4570  145.7440 C   0  0  0  0  0  2  0  0  0  0  0  0
  186.0800  178.7700  139.4040 C   0  0  0  0  0  0  0  0  0  0  0  0
  185.2690  178.0270  141.6670 C   0  0  0  0  0  3  0  0  0  0  0  0
  186.2220  178.5650  140.8860 C   0  0  0  0  0  0  0  0  0  0  0  0
  181.8440  177.6960  139.9670 C   0  0  0  0  0  0  0  0  0  0  0  0
  180.7970  177.8820  140.8600 O   0  0  0  0  0  1  0  0  0  0  0  0
  181.6290  177.0890  138.8830 O   0  0  0  0  0  0  0  0  0  0  0  0
  193.0970  177.4380  149.3820 N   0  0  0  0  0  0  0  0  0  0  0  0
  194.2160  176.7480  149.7080 O   0  0  0  0  0  0  0  0  0  0  0  0
  192.7610  178.5300  150.1100 O   0  0  0  0  0  0  0  0  0  0  0  0
  1  8  1  1  0  0  0
  2 26  2  0  0  0  0
  2 18  1  0  0  0  0
  3 12  1  0  0  0  0
  4 15  1  0  0  0  0
  4 26  1  0  0  0  0
  5 22  1  0  0  0  0
  6 32  1  0  0  0  0
  7 13  1  6  0  0  0
  7 14  1  0  0  0  0
  7 24  1  0  0  0  0
  8  7  1  0  0  0  0
  9 13  1  0  0  0  0
 10  9  2  0  0  0  0
 11  6  1  0  0  0  0
 12 11  2  0  0  0  0
 16 15  1  6  0  0  0
 16  9  1  0  0  0  0
 16  1  1  0  0  0  0
 17 15  2  0  0  0  0
 17 10  1  0  0  0  0
 18 19  1  0  0  0  0
 19 21  2  0  0  0  0
 20 23  1  0  0  0  0
 21 27  1  0  0  0  0
 22 20  2  0  0  0  0
 22 12  1  0  0  0  0
 23  6  2  0  0  0  0
 24 14  1  6  0  0  0
 24  5  1  0  0  0  0
 24 25  1  0  0  0  0
 25  3  1  0  0  0  0
 26 28  1  0  0  0  0
 28  1  1  0  0  0  0
 28 27  2  0  0  0  0
 29 19  1  0  0  0  0
 29 30  1  0  0  0  0
 31 29  2  0  0  0  0
 32 33  2  0  0  0  0
 32 34  2  0  0  0  0
M  END
>  <MODEL>
8

>  <REMARK>
 VINA RESULT:      -4.7      4.417      7.910
  Name = 
  2 active torsions:
  status: ('A' for Active; 'I' for Inactive)
    1  A    between atoms: C_3  and  C_25
    2  A    between atoms: C_7  and  N_11
                            x       y       z     vdW  Elec       q    Type
                         _______ _______ _______ _____ _____    ______ ____

>  <TORSDO>
F 2

$$$$
=
 OpenBabel10272415283D

 34 40  0  0  1  0  0  0  0  0999 V2000
  183.0160  177.8270  141.2220 C   0  0  1  0  0  3  0  0  0  0  0  0
  180.0700  179.0980  139.2710 C   0  0  0  0  0  3  0  0  0  0  0  0
  188.1770  176.9100  141.8290 C   0  0  0  0  0  2  0  0  0  0  0  0
  180.1660  178.4940  141.6230 C   0  0  0  0  0  2  0  0  0  0  0  0
  187.3880  179.0740  143.7810 C   0  0  0  0  0  2  0  0  0  0  0  0
  190.6050  176.3400  144.6840 C   0  0  0  0  0  0  0  0  0  0  0  0
  185.1850  178.5880  142.4330 C   0  0  2  0  0  0  0  0  0  0  0  0
  184.5640  177.8060  141.2550 C   0  0  0  0  0  2  0  0  0  0  0  0
  183.1390  178.4130  143.7570 C   0  0  0  0  0  0  0  0  0  0  0  0
  182.1630  178.7820  144.8200 C   0  0  0  0  0  2  0  0  0  0  0  0
  189.9430  176.2400  143.4540 C   0  0  0  0  0  3  0  0  0  0  0  0
  188.8980  177.1110  143.1320 C   0  0  0  0  0  0  0  0  0  0  0  0
  184.4350  178.7010  143.7360 C   0  0  0  0  0  2  0  0  0  0  0  0
  185.7830  179.9170  141.9950 C   0  0  0  0  0  2  0  0  0  0  0  0
  181.1410  178.3590  142.7590 C   0  0  0  0  0  0  0  0  0  0  0  0
  182.4090  178.0630  142.5680 C   0  0  0  0  0  0  0  0  0  0  0  0
  180.8880  178.7880  144.0960 N   0  0  0  0  0  0  0  0  0  0  0  0
  180.5830  179.3110  137.8860 C   0  0  0  0  0  2  0  0  0  0  0  0
  181.4730  180.5090  137.8110 C   0  0  0  0  0  0  0  0  0  0  0  0
  189.1500  178.1840  145.2970 C   0  0  0  0  0  3  0  0  0  0  0  0
  182.6330  180.5490  138.4730 C   0  0  0  0  0  3  0  0  0  0  0  0
  188.4850  178.0860  144.0720 C   0  0  0  0  0  0  0  0  0  0  0  0
  190.2020  177.3170  145.6030 C   0  0  0  0  0  3  0  0  0  0  0  0
  186.6940  178.7930  142.4490 C   0  0  1  0  0  0  0  0  0  0  0  0
  187.5310  178.1960  141.3280 C   0  0  0  0  0  2  0  0  0  0  0  0
  180.8570  178.8330  140.3160 C   0  0  0  0  0  0  0  0  0  0  0  0
  183.1080  179.5380  139.4390 C   0  0  0  0  0  3  0  0  0  0  0  0
  182.3540  178.7430  140.2180 C   0  0  0  0  0  0  0  0  0  0  0  0
  181.1070  181.6120  136.9050 C   0  0  0  0  0  0  0  0  0  0  0  0
  181.1720  182.9280  137.3480 O   0  0  0  0  0  1  0  0  0  0  0  0
  180.7360  181.3780  135.7230 O   0  0  0  0  0  0  0  0  0  0  0  0
  191.6810  175.4490  145.0010 N   0  0  0  0  0  0  0  0  0  0  0  0
  192.1150  174.5460  144.0900 O   0  0  0  0  0  0  0  0  0  0  0  0
  192.2770  175.4970  146.2170 O   0  0  0  0  0  0  0  0  0  0  0  0
  1  8  1  1  0  0  0
  1 16  1  0  0  0  0
  2 26  2  0  0  0  0
  3 12  1  0  0  0  0
  4 15  1  0  0  0  0
  5 22  1  0  0  0  0
  6 32  1  0  0  0  0
  6 23  1  0  0  0  0
  7  8  1  6  0  0  0
  7 24  1  0  0  0  0
  7 13  1  0  0  0  0
  9 10  1  0  0  0  0
 11  6  2  0  0  0  0
 12 11  1  0  0  0  0
 12 22  2  0  0  0  0
 13  9  1  0  0  0  0
 14  7  1  0  0  0  0
 14 24  1  0  0  0  0
 15 17  2  0  0  0  0
 16 15  1  0  0  0  0
 16  9  2  0  0  0  0
 17 10  1  0  0  0  0
 18  2  1  0  0  0  0
 19 18  1  0  0  0  0
 19 21  2  0  0  0  0
 20 23  2  0  0  0  0
 21 27  1  0  0  0  0
 22 20  1  0  0  0  0
 24 25  1  6  0  0  0
 24  5  1  0  0  0  0
 25  3  1  0  0  0  0
 26  4  1  0  0  0  0
 27 28  2  0  0  0  0
 28 26  1  0  0  0  0
 28  1  1  0  0  0  0
 29 30  1  0  0  0  0
 29 19  1  0  0  0  0
 31 29  2  0  0  0  0
 32 34  2  0  0  0  0
 33 32  2  0  0  0  0
M  END
>  <MODEL>
9

>  <REMARK>
 VINA RESULT:      -4.7      5.009      8.104
  Name = 
  2 active torsions:
  status: ('A' for Active; 'I' for Inactive)
    1  A    between atoms: C_3  and  C_25
    2  A    between atoms: C_7  and  N_11
                            x       y       z     vdW  Elec       q    Type
                         _______ _______ _______ _____ _____    ______ ____

>  <TORSDO>
F 2

$$$$
