=
 OpenBabel10272400463D

 25 28  0  0  1  0  0  0  0  0999 V2000
  187.4310  177.7930  145.7510 C   0  0  0  0  0  0  0  0  0  0  0  0
  188.7670  177.4910  145.4750 C   0  0  0  0  0  0  0  0  0  0  0  0
  187.8470  177.9330  148.1240 C   0  0  0  0  0  3  0  0  0  0  0  0
  186.3120  178.2310  144.8800 C   0  0  2  0  0  3  0  0  0  0  0  0
  183.7200  178.7380  143.8790 C   0  0  0  0  0  2  0  0  0  0  0  0
  189.1830  177.5640  147.8880 C   0  0  0  0  0  3  0  0  0  0  0  0
  185.1330  178.1640  145.7410 N   0  0  2  0  0  0  0  0  0  0  0  0
  184.2220  179.1900  145.2660 C   0  0  0  0  0  2  0  0  0  0  0  0
  191.0620  176.9910  146.3230 C   0  0  0  0  0  0  0  0  0  0  0  0
  191.8700  176.8600  147.2810 O   0  0  0  0  0  0  0  0  0  0  0  0
  189.2370  177.2760  144.0630 C   0  0  0  0  0  2  0  0  0  0  0  0
  184.8870  178.3920  142.9170 C   0  0  0  0  0  2  0  0  0  0  0  0
  187.0010  178.0420  147.0250 C   0  0  0  0  0  0  0  0  0  0  0  0
  185.6380  178.4310  147.0270 N   0  0  0  0  0  2  0  0  0  0  0  0
  191.5370  176.7480  144.9220 C   0  0  0  0  0  2  0  0  0  0  0  0
  185.9890  177.5390  143.5760 C   0  0  0  0  0  2  0  0  0  0  0  0
  190.7290  177.5840  143.9260 C   0  0  1  0  0  3  0  0  0  0  0  0
  189.6480  177.3340  146.5720 C   0  0  0  0  0  0  0  0  0  0  0  0
  191.1740  177.2870  142.5060 C   0  0  0  0  0  2  0  0  0  0  0  0
  190.0220  176.7090  141.7000 C   0  0  0  0  0  2  0  0  0  0  0  0
  188.9670  178.3380  140.1010 C   0  0  0  0  0  0  0  0  0  0  0  0
  188.9100  178.8680  138.9600 O   0  0  0  0  0  0  0  0  0  0  0  0
  188.0580  178.7280  141.0780 O   0  0  0  0  0  1  0  0  0  0  0  0
  189.9580  177.3410  140.3920 N   0  0  0  0  0  0  0  0  0  0  0  0
  190.8480  176.8610  139.3480 C   0  0  0  0  0  1  0  0  0  0  0  0
  1 13  1  0  0  0  0
  2  1  2  0  0  0  0
  2 18  1  0  0  0  0
  4 16  1  6  0  0  0
  4  7  1  0  0  0  0
  4  1  1  0  0  0  0
  5  8  1  0  0  0  0
  6  3  1  0  0  0  0
  7  8  1  6  0  0  0
  7 14  1  0  0  0  0
  9 18  1  0  0  0  0
  9 10  2  0  0  0  0
 11  2  1  0  0  0  0
 12 16  1  0  0  0  0
 12  5  1  0  0  0  0
 13 14  1  0  0  0  0
 13  3  2  0  0  0  0
 15  9  1  0  0  0  0
 17 19  1  6  0  0  0
 17 11  1  0  0  0  0
 17 15  1  0  0  0  0
 18  6  2  0  0  0  0
 20 19  1  0  0  0  0
 21 24  1  0  0  0  0
 21 23  1  0  0  0  0
 22 21  2  0  0  0  0
 24 20  1  0  0  0  0
 25 24  1  0  0  0  0
M  END
>  <MODEL>
1

>  <REMARK>
 VINA RESULT:     -10.7      0.000      0.000
  Name = 
  3 active torsions:
  status: ('A' for Active; 'I' for Inactive)
    1  A    between atoms: C_6  and  C_15
    2  A    between atoms: C_6  and  C_23
    3  A    between atoms: C_15  and  N_21
                            x       y       z     vdW  Elec       q    Type
                         _______ _______ _______ _____ _____    ______ ____

>  <TORSDO>
F 3

$$$$
=
 OpenBabel10272400463D

 25 28  0  0  1  0  0  0  0  0999 V2000
  187.4400  177.7920  145.7110 C   0  0  0  0  0  0  0  0  0  0  0  0
  188.7650  177.5200  145.3670 C   0  0  0  0  0  0  0  0  0  0  0  0
  187.9530  177.8280  148.0690 C   0  0  0  0  0  3  0  0  0  0  0  0
  186.2810  178.2560  144.9080 C   0  0  2  0  0  3  0  0  0  0  0  0
  183.6440  178.7770  144.0390 C   0  0  0  0  0  2  0  0  0  0  0  0
  189.2810  177.4870  147.7610 C   0  0  0  0  0  3  0  0  0  0  0  0
  185.1400  178.1350  145.8130 N   0  0  2  0  0  0  0  0  0  0  0  0
  184.1980  179.1700  145.4230 C   0  0  0  0  0  2  0  0  0  0  0  0
  191.0990  177.0090  146.0950 C   0  0  0  0  0  0  0  0  0  0  0  0
  191.9480  176.8440  147.0120 O   0  0  0  0  0  0  0  0  0  0  0  0
  189.1790  177.3760  143.9280 C   0  0  0  0  0  2  0  0  0  0  0  0
  184.7730  178.4890  143.0140 C   0  0  0  0  0  2  0  0  0  0  0  0
  187.0610  177.9770  147.0110 C   0  0  0  0  0  0  0  0  0  0  0  0
  185.6940  178.3500  147.0880 N   0  0  0  0  0  2  0  0  0  0  0  0
  191.5180  176.8360  144.6660 C   0  0  0  0  0  2  0  0  0  0  0  0
  185.9110  177.6210  143.5870 C   0  0  0  0  0  2  0  0  0  0  0  0
  190.6600  177.7070  143.7440 C   0  0  1  0  0  3  0  0  0  0  0  0
  189.6940  177.3240  146.4180 C   0  0  0  0  0  0  0  0  0  0  0  0
  191.0490  177.4810  142.2950 C   0  0  0  0  0  2  0  0  0  0  0  0
  190.0470  176.5620  141.6150 C   0  0  0  0  0  2  0  0  0  0  0  0
  190.0400  176.7730  139.1090 C   0  0  0  0  0  0  0  0  0  0  0  0
  189.6120  177.3240  138.0600 O   0  0  0  0  0  0  0  0  0  0  0  0
  190.9960  175.7690  139.0090 O   0  0  0  0  0  1  0  0  0  0  0  0
  189.5480  177.1780  140.3950 N   0  0  0  0  0  0  0  0  0  0  0  0
  188.6210  178.2910  140.5130 C   0  0  0  0  0  1  0  0  0  0  0  0
  1 13  1  0  0  0  0
  2  1  2  0  0  0  0
  2 18  1  0  0  0  0
  4 16  1  6  0  0  0
  4  1  1  0  0  0  0
  4  7  1  0  0  0  0
  5  8  1  0  0  0  0
  6  3  1  0  0  0  0
  7  8  1  6  0  0  0
  7 14  1  0  0  0  0
  9 18  1  0  0  0  0
  9 10  2  0  0  0  0
 11  2  1  0  0  0  0
 12 16  1  0  0  0  0
 12  5  1  0  0  0  0
 13 14  1  0  0  0  0
 13  3  2  0  0  0  0
 15  9  1  0  0  0  0
 17 19  1  6  0  0  0
 17 11  1  0  0  0  0
 17 15  1  0  0  0  0
 18  6  2  0  0  0  0
 20 19  1  0  0  0  0
 21 24  1  0  0  0  0
 22 21  2  0  0  0  0
 23 21  1  0  0  0  0
 24 25  1  0  0  0  0
 24 20  1  0  0  0  0
M  END
>  <MODEL>
2

>  <REMARK>
 VINA RESULT:     -10.2      0.883      1.251
  Name = 
  3 active torsions:
  status: ('A' for Active; 'I' for Inactive)
    1  A    between atoms: C_6  and  C_15
    2  A    between atoms: C_6  and  C_23
    3  A    between atoms: C_15  and  N_21
                            x       y       z     vdW  Elec       q    Type
                         _______ _______ _______ _____ _____    ______ ____

>  <TORSDO>
F 3

$$$$
=
 OpenBabel10272400463D

 25 28  0  0  1  0  0  0  0  0999 V2000
  186.8290  178.0660  145.1650 C   0  0  0  0  0  0  0  0  0  0  0  0
  188.1520  177.7000  144.9110 C   0  0  0  0  0  0  0  0  0  0  0  0
  187.2280  178.2470  147.5390 C   0  0  0  0  0  3  0  0  0  0  0  0
  185.7380  178.5310  144.2720 C   0  0  2  0  0  3  0  0  0  0  0  0
  183.1800  179.1240  143.2320 C   0  0  0  0  0  2  0  0  0  0  0  0
  188.5490  177.8150  147.3250 C   0  0  0  0  0  3  0  0  0  0  0  0
  184.5490  178.5360  145.1220 N   0  0  2  0  0  0  0  0  0  0  0  0
  183.6880  179.5880  144.6120 C   0  0  0  0  0  2  0  0  0  0  0  0
  190.4150  177.1220  145.7950 C   0  0  0  0  0  0  0  0  0  0  0  0
  191.2080  176.9800  146.7640 O   0  0  0  0  0  0  0  0  0  0  0  0
  188.6270  177.4300  143.5090 C   0  0  0  0  0  2  0  0  0  0  0  0
  184.3390  178.7040  142.2900 C   0  0  0  0  0  2  0  0  0  0  0  0
  186.3980  178.3650  146.4280 C   0  0  0  0  0  0  0  0  0  0  0  0
  185.0530  178.8130  146.4060 N   0  0  0  0  0  2  0  0  0  0  0  0
  190.8930  176.8240  144.4050 C   0  0  0  0  0  2  0  0  0  0  0  0
  185.3970  177.8210  142.9820 C   0  0  0  0  0  2  0  0  0  0  0  0
  190.1310  177.6690  143.3800 C   0  0  1  0  0  3  0  0  0  0  0  0
  189.0160  177.5330  146.0200 C   0  0  0  0  0  0  0  0  0  0  0  0
  190.5760  177.3180  141.9730 C   0  0  0  0  0  2  0  0  0  0  0  0
  189.4460  177.5560  140.9850 C   0  0  0  0  0  2  0  0  0  0  0  0
  189.1950  178.2750  138.5880 C   0  0  0  0  0  0  0  0  0  0  0  0
  189.6590  178.3640  137.4200 O   0  0  0  0  0  0  0  0  0  0  0  0
  187.9180  178.7570  138.8530 O   0  0  0  0  0  1  0  0  0  0  0  0
  189.9760  177.6820  139.6360 N   0  0  0  0  0  0  0  0  0  0  0  0
  191.2710  177.0900  139.3460 C   0  0  0  0  0  1  0  0  0  0  0  0
  1 13  1  0  0  0  0
  2  1  2  0  0  0  0
  2 18  1  0  0  0  0
  4 16  1  6  0  0  0
  4  7  1  0  0  0  0
  4  1  1  0  0  0  0
  5  8  1  0  0  0  0
  6  3  1  0  0  0  0
  7  8  1  6  0  0  0
  7 14  1  0  0  0  0
  9 18  1  0  0  0  0
  9 10  2  0  0  0  0
 11  2  1  0  0  0  0
 12 16  1  0  0  0  0
 12  5  1  0  0  0  0
 13  3  2  0  0  0  0
 14 13  1  0  0  0  0
 15  9  1  0  0  0  0
 17 19  1  6  0  0  0
 17 11  1  0  0  0  0
 17 15  1  0  0  0  0
 18  6  2  0  0  0  0
 20 19  1  0  0  0  0
 21 23  1  0  0  0  0
 21 24  1  0  0  0  0
 22 21  2  0  0  0  0
 24 20  1  0  0  0  0
 25 24  1  0  0  0  0
M  END
>  <MODEL>
3

>  <REMARK>
 VINA RESULT:      -9.6      0.948      1.051
  Name = 
  3 active torsions:
  status: ('A' for Active; 'I' for Inactive)
    1  A    between atoms: C_6  and  C_15
    2  A    between atoms: C_6  and  C_23
    3  A    between atoms: C_15  and  N_21
                            x       y       z     vdW  Elec       q    Type
                         _______ _______ _______ _____ _____    ______ ____

>  <TORSDO>
F 3

$$$$
=
 OpenBabel10272400463D

 25 28  0  0  1  0  0  0  0  0999 V2000
  189.4150  177.5790  144.2640 C   0  0  0  0  0  0  0  0  0  0  0  0
  188.4660  177.8150  145.2600 C   0  0  0  0  0  0  0  0  0  0  0  0
  191.0600  176.8320  145.8640 C   0  0  0  0  0  3  0  0  0  0  0  0
  189.2990  177.4700  142.7880 C   0  0  2  0  0  3  0  0  0  0  0  0
  189.9200  177.4600  140.0320 C   0  0  0  0  0  2  0  0  0  0  0  0
  190.1520  177.1230  146.8980 C   0  0  0  0  0  3  0  0  0  0  0  0
  190.6820  177.4340  142.3160 N   0  0  2  0  0  0  0  0  0  0  0  0
  190.6770  176.6430  141.0990 C   0  0  0  0  0  2  0  0  0  0  0  0
  187.8930  177.8830  147.6910 C   0  0  0  0  0  0  0  0  0  0  0  0
  188.2140  177.7030  148.8960 O   0  0  0  0  0  0  0  0  0  0  0  0
  187.0920  178.3210  144.9190 C   0  0  0  0  0  2  0  0  0  0  0  0
  188.5240  177.9210  140.5280 C   0  0  0  0  0  2  0  0  0  0  0  0
  190.6500  177.0710  144.5560 C   0  0  0  0  0  0  0  0  0  0  0  0
  191.3830  176.8190  143.3680 N   0  0  0  0  0  2  0  0  0  0  0  0
  186.5290  178.4130  147.3640 C   0  0  0  0  0  2  0  0  0  0  0  0
  188.5400  178.4830  141.9630 C   0  0  0  0  0  2  0  0  0  0  0  0
  186.0750  177.9210  145.9870 C   0  0  1  0  0  3  0  0  0  0  0  0
  188.8600  177.6200  146.6070 C   0  0  0  0  0  0  0  0  0  0  0  0
  184.7210  178.5100  145.6380 C   0  0  0  0  0  2  0  0  0  0  0  0
  184.7910  179.2450  144.3090 C   0  0  0  0  0  2  0  0  0  0  0  0
  183.8190  178.6840  142.0580 C   0  0  0  0  0  0  0  0  0  0  0  0
  182.8300  178.3800  141.3400 O   0  0  0  0  0  0  0  0  0  0  0  0
  185.0680  178.8350  141.4670 O   0  0  0  0  0  1  0  0  0  0  0  0
  183.6600  178.8750  143.4720 N   0  0  0  0  0  0  0  0  0  0  0  0
  182.3410  178.8140  144.0800 C   0  0  0  0  0  1  0  0  0  0  0  0
  1 13  2  0  0  0  0
  1  2  1  0  0  0  0
  2 18  2  0  0  0  0
  3  6  2  0  0  0  0
  4 16  1  6  0  0  0
  4  1  1  0  0  0  0
  5 12  1  0  0  0  0
  5  8  1  0  0  0  0
  7  8  1  6  0  0  0
  7  4  1  0  0  0  0
  7 14  1  0  0  0  0
  9 10  2  0  0  0  0
 11  2  1  0  0  0  0
 11 17  1  0  0  0  0
 12 16  1  0  0  0  0
 13  3  1  0  0  0  0
 14 13  1  0  0  0  0
 15  9  1  0  0  0  0
 17 19  1  6  0  0  0
 17 15  1  0  0  0  0
 18  6  1  0  0  0  0
 18  9  1  0  0  0  0
 20 19  1  0  0  0  0
 21 24  1  0  0  0  0
 22 21  2  0  0  0  0
 23 21  1  0  0  0  0
 24 25  1  0  0  0  0
 24 20  1  0  0  0  0
M  END
>  <MODEL>
4

>  <REMARK>
 VINA RESULT:      -9.6      1.962      5.379
  Name = 
  3 active torsions:
  status: ('A' for Active; 'I' for Inactive)
    1  A    between atoms: C_6  and  C_15
    2  A    between atoms: C_6  and  C_23
    3  A    between atoms: C_15  and  N_21
                            x       y       z     vdW  Elec       q    Type
                         _______ _______ _______ _____ _____    ______ ____

>  <TORSDO>
F 3

$$$$
=
 OpenBabel10272400463D

 25 28  0  0  1  0  0  0  0  0999 V2000
  186.9990  178.0460  142.4110 C   0  0  0  0  0  0  0  0  0  0  0  0
  186.4550  178.1020  143.6960 C   0  0  0  0  0  0  0  0  0  0  0  0
  185.0910  179.1670  141.4460 C   0  0  0  0  0  3  0  0  0  0  0  0
  188.3710  177.7600  141.9240 C   0  0  2  0  0  3  0  0  0  0  0  0
  190.5440  177.0220  140.2770 C   0  0  0  0  0  2  0  0  0  0  0  0
  184.4850  179.1780  142.7150 C   0  0  0  0  0  3  0  0  0  0  0  0
  188.2270  177.6450  140.4750 N   0  0  2  0  0  0  0  0  0  0  0  0
  189.4880  178.0820  139.9030 C   0  0  0  0  0  2  0  0  0  0  0  0
  184.5350  178.6960  145.1790 C   0  0  0  0  0  0  0  0  0  0  0  0
  183.3850  179.1850  145.3370 O   0  0  0  0  0  0  0  0  0  0  0  0
  187.2010  177.5460  144.8780 C   0  0  0  0  0  2  0  0  0  0  0  0
  190.5730  176.7340  141.8020 C   0  0  0  0  0  2  0  0  0  0  0  0
  186.3540  178.5940  141.3370 C   0  0  0  0  0  0  0  0  0  0  0  0
  187.1580  178.5070  140.1710 N   0  0  0  0  0  2  0  0  0  0  0  0
  185.2580  178.1200  146.3610 C   0  0  0  0  0  2  0  0  0  0  0  0
  189.1690  176.5750  142.4200 C   0  0  0  0  0  2  0  0  0  0  0  0
  186.7730  178.2340  146.1740 C   0  0  1  0  0  3  0  0  0  0  0  0
  185.1550  178.6430  143.8400 C   0  0  0  0  0  0  0  0  0  0  0  0
  187.4970  177.5960  147.3440 C   0  0  0  0  0  2  0  0  0  0  0  0
  188.7680  176.9100  146.8700 C   0  0  0  0  0  2  0  0  0  0  0  0
  191.2070  176.7820  147.4700 C   0  0  0  0  0  0  0  0  0  0  0  0
  192.1780  177.1530  148.1810 O   0  0  0  0  0  1  0  0  0  0  0  0
  191.4120  175.8220  146.4850 O   0  0  0  0  0  0  0  0  0  0  0  0
  189.9020  177.3430  147.6730 N   0  0  0  0  0  0  0  0  0  0  0  0
  189.6600  178.2750  148.7610 C   0  0  0  0  0  1  0  0  0  0  0  0
  1  2  1  0  0  0  0
  2 18  2  0  0  0  0
  2 11  1  0  0  0  0
  3  6  2  0  0  0  0
  4  1  1  0  0  0  0
  4 16  1  1  0  0  0
  5 12  1  0  0  0  0
  6 18  1  0  0  0  0
  7  8  1  6  0  0  0
  7  4  1  0  0  0  0
  8  5  1  0  0  0  0
  9 10  2  0  0  0  0
  9 15  1  0  0  0  0
 11 17  1  0  0  0  0
 12 16  1  0  0  0  0
 13  3  1  0  0  0  0
 13  1  2  0  0  0  0
 14  7  1  0  0  0  0
 14 13  1  0  0  0  0
 17 15  1  0  0  0  0
 17 19  1  1  0  0  0
 18  9  1  0  0  0  0
 20 19  1  0  0  0  0
 20 24  1  0  0  0  0
 21 24  1  0  0  0  0
 21 22  1  0  0  0  0
 23 21  2  0  0  0  0
 24 25  1  0  0  0  0
M  END
>  <MODEL>
5

>  <REMARK>
 VINA RESULT:      -9.5      2.784      6.554
  Name = 
  3 active torsions:
  status: ('A' for Active; 'I' for Inactive)
    1  A    between atoms: C_6  and  C_15
    2  A    between atoms: C_6  and  C_23
    3  A    between atoms: C_15  and  N_21
                            x       y       z     vdW  Elec       q    Type
                         _______ _______ _______ _____ _____    ______ ____

>  <TORSDO>
F 3

$$$$
=
 OpenBabel10272400463D

 25 28  0  0  1  0  0  0  0  0999 V2000
  186.9610  178.0770  142.4160 C   0  0  0  0  0  0  0  0  0  0  0  0
  186.5900  178.0460  143.7620 C   0  0  0  0  0  0  0  0  0  0  0  0
  184.9500  179.2520  141.7830 C   0  0  0  0  0  3  0  0  0  0  0  0
  188.2570  177.8270  141.7380 C   0  0  2  0  0  3  0  0  0  0  0  0
  190.1930  177.2060  139.7770 C   0  0  0  0  0  2  0  0  0  0  0  0
  184.5150  179.1790  143.1180 C   0  0  0  0  0  3  0  0  0  0  0  0
  187.9250  177.8070  140.3150 N   0  0  2  0  0  0  0  0  0  0  0  0
  189.1040  178.2850  139.6140 C   0  0  0  0  0  2  0  0  0  0  0  0
  184.8820  178.5360  145.5180 C   0  0  0  0  0  0  0  0  0  0  0  0
  183.7650  179.0100  145.8560 O   0  0  0  0  0  0  0  0  0  0  0  0
  187.4800  177.4160  144.7980 C   0  0  0  0  0  2  0  0  0  0  0  0
  190.4180  176.8190  141.2630 C   0  0  0  0  0  2  0  0  0  0  0  0
  186.1850  178.6920  141.4730 C   0  0  0  0  0  0  0  0  0  0  0  0
  186.8310  178.6840  140.2100 N   0  0  0  0  0  2  0  0  0  0  0  0
  185.7490  177.8860  146.5550 C   0  0  0  0  0  2  0  0  0  0  0  0
  189.1060  176.6160  142.0460 C   0  0  0  0  0  2  0  0  0  0  0  0
  187.2280  178.0170  146.1810 C   0  0  1  0  0  3  0  0  0  0  0  0
  185.3220  178.5720  144.1090 C   0  0  0  0  0  0  0  0  0  0  0  0
  188.0940  177.3050  147.2030 C   0  0  0  0  0  2  0  0  0  0  0  0
  189.4460  177.9920  147.3200 C   0  0  0  0  0  2  0  0  0  0  0  0
  190.9460  177.4890  145.3660 C   0  0  0  0  0  0  0  0  0  0  0  0
  191.8280  176.7730  144.8200 O   0  0  0  0  0  1  0  0  0  0  0  0
  190.4310  178.5790  144.6740 O   0  0  0  0  0  0  0  0  0  0  0  0
  190.4760  177.1830  146.6870 N   0  0  0  0  0  0  0  0  0  0  0  0
  190.9400  175.9910  147.3770 C   0  0  0  0  0  1  0  0  0  0  0  0
  1  2  1  0  0  0  0
  2 18  2  0  0  0  0
  2 11  1  0  0  0  0
  3  6  2  0  0  0  0
  4 16  1  1  0  0  0
  4  1  1  0  0  0  0
  5 12  1  0  0  0  0
  6 18  1  0  0  0  0
  7  8  1  6  0  0  0
  7  4  1  0  0  0  0
  8  5  1  0  0  0  0
  9 10  2  0  0  0  0
  9 15  1  0  0  0  0
 11 17  1  0  0  0  0
 12 16  1  0  0  0  0
 13  3  1  0  0  0  0
 13  1  2  0  0  0  0
 14  7  1  0  0  0  0
 14 13  1  0  0  0  0
 17 15  1  0  0  0  0
 17 19  1  1  0  0  0
 18  9  1  0  0  0  0
 19 20  1  0  0  0  0
 21 24  1  0  0  0  0
 22 21  1  0  0  0  0
 23 21  2  0  0  0  0
 24 20  1  0  0  0  0
 24 25  1  0  0  0  0
M  END
>  <MODEL>
6

>  <REMARK>
 VINA RESULT:      -9.5      2.387      5.937
  Name = 
  3 active torsions:
  status: ('A' for Active; 'I' for Inactive)
    1  A    between atoms: C_6  and  C_15
    2  A    between atoms: C_6  and  C_23
    3  A    between atoms: C_15  and  N_21
                            x       y       z     vdW  Elec       q    Type
                         _______ _______ _______ _____ _____    ______ ____

>  <TORSDO>
F 3

$$$$
=
 OpenBabel10272400463D

 25 28  0  0  1  0  0  0  0  0999 V2000
  187.9220  177.7970  143.6410 C   0  0  0  0  0  0  0  0  0  0  0  0
  186.6250  178.1280  144.0410 C   0  0  0  0  0  0  0  0  0  0  0  0
  188.5950  177.2750  145.9000 C   0  0  0  0  0  3  0  0  0  0  0  0
  188.5070  177.5140  142.3070 C   0  0  2  0  0  3  0  0  0  0  0  0
  190.3470  177.1960  140.1870 C   0  0  0  0  0  2  0  0  0  0  0  0
  187.3200  177.6650  146.3450 C   0  0  0  0  0  3  0  0  0  0  0  0
  189.9470  177.4520  142.5480 N   0  0  2  0  0  0  0  0  0  0  0  0
  190.4850  176.5240  141.5680 C   0  0  0  0  0  2  0  0  0  0  0  0
  184.9830  178.4660  145.8920 C   0  0  0  0  0  0  0  0  0  0  0  0
  184.6940  178.4350  147.1180 O   0  0  0  0  0  0  0  0  0  0  0  0
  185.5910  178.5630  143.0390 C   0  0  0  0  0  2  0  0  0  0  0  0
  188.8990  177.6830  139.9130 C   0  0  0  0  0  2  0  0  0  0  0  0
  188.8550  177.3510  144.5350 C   0  0  0  0  0  0  0  0  0  0  0  0
  190.0500  176.9770  143.8670 N   0  0  0  0  0  2  0  0  0  0  0  0
  183.9520  178.9270  144.9060 C   0  0  0  0  0  2  0  0  0  0  0  0
  188.2610  178.4090  141.1140 C   0  0  0  0  0  2  0  0  0  0  0  0
  184.1780  178.2690  143.5420 C   0  0  1  0  0  3  0  0  0  0  0  0
  186.3340  178.0990  145.4270 C   0  0  0  0  0  0  0  0  0  0  0  0
  183.1690  178.7860  142.5340 C   0  0  0  0  0  2  0  0  0  0  0  0
  183.5360  178.3250  141.1330 C   0  0  0  0  0  2  0  0  0  0  0  0
  183.1030  179.8980  139.2190 C   0  0  0  0  0  0  0  0  0  0  0  0
  182.3100  180.4160  138.3890 O   0  0  0  0  0  0  0  0  0  0  0  0
  184.4380  180.2870  139.2200 O   0  0  0  0  0  1  0  0  0  0  0  0
  182.6350  178.9170  140.1570 N   0  0  0  0  0  0  0  0  0  0  0  0
  181.2230  178.5770  140.2260 C   0  0  0  0  0  1  0  0  0  0  0  0
  1  2  2  0  0  0  0
  1 13  1  0  0  0  0
  2 18  1  0  0  0  0
  3  6  1  0  0  0  0
  4 16  1  6  0  0  0
  4  7  1  0  0  0  0
  4  1  1  0  0  0  0
  5  8  1  0  0  0  0
  7  8  1  6  0  0  0
  7 14  1  0  0  0  0
  9 10  2  0  0  0  0
 11 17  1  0  0  0  0
 11  2  1  0  0  0  0
 12  5  1  0  0  0  0
 12 16  1  0  0  0  0
 13  3  2  0  0  0  0
 14 13  1  0  0  0  0
 15  9  1  0  0  0  0
 17 19  1  6  0  0  0
 17 15  1  0  0  0  0
 18  9  1  0  0  0  0
 18  6  2  0  0  0  0
 20 19  1  0  0  0  0
 21 23  1  0  0  0  0
 21 24  1  0  0  0  0
 22 21  2  0  0  0  0
 24 25  1  0  0  0  0
 24 20  1  0  0  0  0
M  END
>  <MODEL>
7

>  <REMARK>
 VINA RESULT:      -9.4      2.997      5.876
  Name = 
  3 active torsions:
  status: ('A' for Active; 'I' for Inactive)
    1  A    between atoms: C_6  and  C_15
    2  A    between atoms: C_6  and  C_23
    3  A    between atoms: C_15  and  N_21
                            x       y       z     vdW  Elec       q    Type
                         _______ _______ _______ _____ _____    ______ ____

>  <TORSDO>
F 3

$$$$
=
 OpenBabel10272400463D

 25 28  0  0  1  0  0  0  0  0999 V2000
  187.0520  178.1380  142.0320 C   0  0  0  0  0  0  0  0  0  0  0  0
  186.8900  178.0310  143.4150 C   0  0  0  0  0  0  0  0  0  0  0  0
  184.8740  179.1400  141.7530 C   0  0  0  0  0  3  0  0  0  0  0  0
  188.2490  178.0320  141.1610 C   0  0  2  0  0  3  0  0  0  0  0  0
  189.9170  177.6560  138.9130 C   0  0  0  0  0  2  0  0  0  0  0  0
  184.6510  178.9840  143.1320 C   0  0  0  0  0  3  0  0  0  0  0  0
  187.7110  178.0260  139.8020 N   0  0  2  0  0  0  0  0  0  0  0  0
  188.7250  178.6330  138.9590 C   0  0  0  0  0  2  0  0  0  0  0  0
  185.4270  178.3030  145.4210 C   0  0  0  0  0  0  0  0  0  0  0  0
  184.3360  178.6610  145.9400 O   0  0  0  0  0  0  0  0  0  0  0  0
  187.9760  177.4540  144.2800 C   0  0  0  0  0  2  0  0  0  0  0  0
  190.3950  177.2450  140.3310 C   0  0  0  0  0  2  0  0  0  0  0  0
  186.0930  178.7080  141.2410 C   0  0  0  0  0  0  0  0  0  0  0  0
  186.5410  178.8000  139.8980 N   0  0  0  0  0  2  0  0  0  0  0  0
  186.4930  177.7050  146.2910 C   0  0  0  0  0  2  0  0  0  0  0  0
  189.2370  176.8950  141.2880 C   0  0  0  0  0  2  0  0  0  0  0  0
  187.8820  177.9850  145.7110 C   0  0  1  0  0  3  0  0  0  0  0  0
  185.6470  178.4250  143.9670 C   0  0  0  0  0  0  0  0  0  0  0  0
  188.9500  177.3250  146.5620 C   0  0  0  0  0  2  0  0  0  0  0  0
  190.3310  177.8020  146.1420 C   0  0  0  0  0  2  0  0  0  0  0  0
  192.0400  176.1240  146.9100 C   0  0  0  0  0  0  0  0  0  0  0  0
  192.7980  175.1470  146.6690 O   0  0  0  0  0  0  0  0  0  0  0  0
  192.0290  176.6770  148.1860 O   0  0  0  0  0  1  0  0  0  0  0  0
  191.1980  176.6620  145.8810 N   0  0  0  0  0  0  0  0  0  0  0  0
  191.2750  176.1510  144.5220 C   0  0  0  0  0  1  0  0  0  0  0  0
  1  2  1  0  0  0  0
  2 18  2  0  0  0  0
  2 11  1  0  0  0  0
  3  6  2  0  0  0  0
  4 16  1  1  0  0  0
  4  1  1  0  0  0  0
  5  8  1  0  0  0  0
  5 12  1  0  0  0  0
  6 18  1  0  0  0  0
  7  8  1  6  0  0  0
  7 14  1  0  0  0  0
  7  4  1  0  0  0  0
  9 10  2  0  0  0  0
  9 15  1  0  0  0  0
 11 17  1  0  0  0  0
 12 16  1  0  0  0  0
 13  3  1  0  0  0  0
 13  1  2  0  0  0  0
 14 13  1  0  0  0  0
 17 15  1  0  0  0  0
 17 19  1  1  0  0  0
 18  9  1  0  0  0  0
 20 19  1  0  0  0  0
 21 23  1  0  0  0  0
 22 21  2  0  0  0  0
 24 20  1  0  0  0  0
 24 21  1  0  0  0  0
 25 24  1  0  0  0  0
M  END
>  <MODEL>
8

>  <REMARK>
 VINA RESULT:      -9.4      2.939      6.087
  Name = 
  3 active torsions:
  status: ('A' for Active; 'I' for Inactive)
    1  A    between atoms: C_6  and  C_15
    2  A    between atoms: C_6  and  C_23
    3  A    between atoms: C_15  and  N_21
                            x       y       z     vdW  Elec       q    Type
                         _______ _______ _______ _____ _____    ______ ____

>  <TORSDO>
F 3

$$$$
=
 OpenBabel10272400463D

 25 28  0  0  1  0  0  0  0  0999 V2000
  186.7440  177.9290  144.9810 C   0  0  0  0  0  0  0  0  0  0  0  0
  188.0180  177.5390  144.5620 C   0  0  0  0  0  0  0  0  0  0  0  0
  187.4290  178.0460  147.2930 C   0  0  0  0  0  3  0  0  0  0  0  0
  185.5660  178.4390  144.2360 C   0  0  2  0  0  3  0  0  0  0  0  0
  182.9170  179.1140  143.5240 C   0  0  0  0  0  2  0  0  0  0  0  0
  188.7030  177.5890  146.9140 C   0  0  0  0  0  3  0  0  0  0  0  0
  184.4880  178.4510  145.2230 N   0  0  2  0  0  0  0  0  0  0  0  0
  183.5990  179.5340  144.8420 C   0  0  0  0  0  2  0  0  0  0  0  0
  190.3550  176.8900  145.1560 C   0  0  0  0  0  0  0  0  0  0  0  0
  191.2550  176.7080  146.0190 O   0  0  0  0  0  0  0  0  0  0  0  0
  188.3140  177.2910  143.1090 C   0  0  0  0  0  2  0  0  0  0  0  0
  183.9450  178.6890  142.4410 C   0  0  0  0  0  2  0  0  0  0  0  0
  186.4750  178.2080  146.2930 C   0  0  0  0  0  0  0  0  0  0  0  0
  185.1480  178.6870  146.4420 N   0  0  0  0  0  2  0  0  0  0  0  0
  190.6550  176.6130  143.7130 C   0  0  0  0  0  2  0  0  0  0  0  0
  185.0560  177.7670  142.9820 C   0  0  0  0  0  2  0  0  0  0  0  0
  189.7970  177.4990  142.8050 C   0  0  1  0  0  3  0  0  0  0  0  0
  189.0040  177.3270  145.5570 C   0  0  0  0  0  0  0  0  0  0  0  0
  190.0620  177.1700  141.3480 C   0  0  0  0  0  2  0  0  0  0  0  0
  191.5310  177.3780  141.0160 C   0  0  0  0  0  2  0  0  0  0  0  0
  193.1050  176.9120  139.1110 C   0  0  0  0  0  0  0  0  0  0  0  0
  193.3040  176.6860  137.8880 O   0  0  0  0  0  0  0  0  0  0  0  0
  194.1920  176.9780  139.9760 O   0  0  0  0  0  1  0  0  0  0  0  0
  191.7720  177.0990  139.6090 N   0  0  0  0  0  0  0  0  0  0  0  0
  190.6420  177.1270  138.6960 C   0  0  0  0  0  1  0  0  0  0  0  0
  1 13  1  0  0  0  0
  2  1  2  0  0  0  0
  2 18  1  0  0  0  0
  4 16  1  6  0  0  0
  4  1  1  0  0  0  0
  4  7  1  0  0  0  0
  5  8  1  0  0  0  0
  6  3  1  0  0  0  0
  7  8  1  6  0  0  0
  7 14  1  0  0  0  0
  9 18  1  0  0  0  0
  9 10  2  0  0  0  0
 11  2  1  0  0  0  0
 12 16  1  0  0  0  0
 12  5  1  0  0  0  0
 13 14  1  0  0  0  0
 13  3  2  0  0  0  0
 15  9  1  0  0  0  0
 17 19  1  6  0  0  0
 17 11  1  0  0  0  0
 17 15  1  0  0  0  0
 18  6  2  0  0  0  0
 20 19  1  0  0  0  0
 21 24  1  0  0  0  0
 21 23  1  0  0  0  0
 22 21  2  0  0  0  0
 24 20  1  0  0  0  0
 25 24  1  0  0  0  0
M  END
>  <MODEL>
9

>  <REMARK>
 VINA RESULT:      -9.2      1.924      2.199
  Name = 
  3 active torsions:
  status: ('A' for Active; 'I' for Inactive)
    1  A    between atoms: C_6  and  C_15
    2  A    between atoms: C_6  and  C_23
    3  A    between atoms: C_15  and  N_21
                            x       y       z     vdW  Elec       q    Type
                         _______ _______ _______ _____ _____    ______ ____

>  <TORSDO>
F 3

$$$$
