=
 OpenBabel10272413423D

 30 34  0  0  1  0  0  0  0  0999 V2000
  184.4030  177.6110  138.2890 C   0  0  0  0  0  0  0  0  0  0  0  0
  184.5550  176.5340  137.3500 C   0  0  0  0  0  0  0  0  0  0  0  0
  185.5260  178.3670  138.6630 C   0  0  0  0  0  3  0  0  0  0  0  0
  188.3470  176.9890  136.7880 C   0  0  0  0  0  2  0  0  0  0  0  0
  186.9150  177.0750  137.1910 C   0  0  0  0  0  0  0  0  0  0  0  0
  187.9520  178.7040  138.3730 O   0  0  0  0  0  0  0  0  0  0  0  0
  186.7590  178.0720  138.1020 C   0  0  0  0  0  0  0  0  0  0  0  0
  185.8370  176.2810  136.7860 C   0  0  0  0  0  0  0  0  0  0  0  0
  190.0530  177.5440  138.5300 C   0  0  0  0  0  1  0  0  0  0  0  0
  189.0020  178.1230  137.6030 C   0  0  1  0  0  3  0  0  0  0  0  0
  182.6360  179.4440  138.5310 C   0  0  1  0  0  3  0  0  0  0  0  0
  181.2710  179.7060  139.1610 C   0  0  0  0  0  2  0  0  0  0  0  0
  183.5440  180.4210  138.9410 O   0  0  0  0  0  1  0  0  0  0  0  0
  182.9270  177.7290  140.4130 C   0  0  0  0  0  2  0  0  0  0  0  0
  180.4230  177.2950  140.5180 C   0  0  0  0  0  1  0  0  0  0  0  0
  183.1040  178.0410  138.9270 C   0  0  2  0  0  3  0  0  0  0  0  0
  181.3260  179.5770  140.5680 O   0  0  0  0  0  0  0  0  0  0  0  0
  181.5670  178.2250  140.9140 C   0  0  2  0  0  3  0  0  0  0  0  0
  186.0650  175.5160  134.4150 C   0  0  0  0  0  1  0  0  0  0  0  0
  186.0400  175.2220  135.8400 N   0  0  0  0  0  0  0  0  0  0  0  0
  186.5050  173.9230  136.2990 C   0  0  0  0  0  2  0  0  0  0  0  0
  186.2930  173.7990  137.6600 F   0  0  0  0  0  0  0  0  0  0  0  0
  183.4230  175.7550  136.9030 N   0  0  0  0  0  0  0  0  0  0  0  0
  183.0100  177.4150  135.3110 C   0  0  0  0  0  2  0  0  0  0  0  0
  181.7300  176.8880  135.7550 C   0  0  1  0  0  3  0  0  0  0  0  0
  180.8160  176.7090  134.5620 C   0  0  0  0  0  1  0  0  0  0  0  0
  182.8840  175.9790  135.6170 N   0  0  0  0  0  0  0  0  0  0  0  0
  182.9860  174.5870  137.6740 C   0  0  1  0  0  3  0  0  0  0  0  0
  181.8270  174.0390  137.0870 O   0  0  0  0  0  0  0  0  0  0  0  0
  183.0320  173.3530  136.8530 C   0  0  0  0  0  2  0  0  0  0  0  0
  1  3  1  0  0  0  0
  2  1  2  0  0  0  0
  4  5  1  0  0  0  0
  4 10  1  0  0  0  0
  5  7  1  0  0  0  0
  7  6  1  0  0  0  0
  7  3  2  0  0  0  0
  8  5  2  0  0  0  0
  8  2  1  0  0  0  0
 10  6  1  0  0  0  0
 10  9  1  1  0  0  0
 11 16  1  0  0  0  0
 11 13  1  1  0  0  0
 11 12  1  0  0  0  0
 12 17  1  0  0  0  0
 14 18  1  0  0  0  0
 16  1  1  1  0  0  0
 16 14  1  0  0  0  0
 17 18  1  0  0  0  0
 18 15  1  6  0  0  0
 19 20  1  0  0  0  0
 20 21  1  0  0  0  0
 20  8  1  0  0  0  0
 21 22  1  0  0  0  0
 23  2  1  0  0  0  0
 24 27  1  0  0  0  0
 24 25  1  0  0  0  0
 25 26  1  6  0  0  0
 27 25  1  0  0  0  0
 27 23  1  0  0  0  0
 28 23  1  6  0  0  0
 29 28  1  0  0  0  0
 30 29  1  0  0  0  0
 30 28  1  0  0  0  0
M  END
>  <MODEL>
1

>  <REMARK>
 VINA RESULT:      -4.6      0.000      0.000
  Name = 
  6 active torsions:
  status: ('A' for Active; 'I' for Inactive)
    1  A    between atoms: C_1  and  C_22
    2  A    between atoms: C_4  and  N_23
    3  A    between atoms: C_7  and  N_30
    4  A    between atoms: C_10  and  N_23
    5  A    between atoms: C_13  and  N_30
    6  A    between atoms: N_23  and  N_25
                            x       y       z     vdW  Elec       q    Type
                         _______ _______ _______ _____ _____    ______ ____

>  <TORSDO>
F 6

$$$$
=
 OpenBabel10272413423D

 30 34  0  0  1  0  0  0  0  0999 V2000
  187.2310  174.6990  136.9040 C   0  0  0  0  0  0  0  0  0  0  0  0
  187.3120  176.0940  137.2390 C   0  0  0  0  0  0  0  0  0  0  0  0
  188.3950  173.9140  136.9280 C   0  0  0  0  0  3  0  0  0  0  0  0
  191.1010  176.1420  137.9680 C   0  0  0  0  0  2  0  0  0  0  0  0
  189.6870  175.8070  137.6430 C   0  0  0  0  0  0  0  0  0  0  0  0
  190.8240  173.8710  137.3540 O   0  0  0  0  0  0  0  0  0  0  0  0
  189.5990  174.4960  137.2950 C   0  0  0  0  0  0  0  0  0  0  0  0
  188.5650  176.6430  137.6290 C   0  0  0  0  0  0  0  0  0  0  0  0
  192.8780  174.9320  136.6900 C   0  0  0  0  0  1  0  0  0  0  0  0
  191.8260  174.7940  137.7730 C   0  0  1  0  0  3  0  0  0  0  0  0
  185.1690  173.4250  137.7210 C   0  0  1  0  0  3  0  0  0  0  0  0
  183.8780  172.7940  137.2070 C   0  0  0  0  0  2  0  0  0  0  0  0
  185.9000  172.4850  138.4490 O   0  0  0  0  0  1  0  0  0  0  0  0
  186.0660  172.9760  135.3620 C   0  0  0  0  0  2  0  0  0  0  0  0
  183.7450  173.2100  134.3460 C   0  0  0  0  0  1  0  0  0  0  0  0
  185.9700  173.9580  136.5300 C   0  0  2  0  0  3  0  0  0  0  0  0
  184.1500  171.7580  136.2840 O   0  0  0  0  0  0  0  0  0  0  0  0
  184.7130  172.3050  135.1040 C   0  0  2  0  0  3  0  0  0  0  0  0
  188.7180  178.4240  139.3790 C   0  0  0  0  0  1  0  0  0  0  0  0
  188.6960  178.0280  137.9790 N   0  0  0  0  0  0  0  0  0  0  0  0
  189.0960  178.9940  136.9680 C   0  0  0  0  0  2  0  0  0  0  0  0
  189.4520  178.3390  135.8040 F   0  0  0  0  0  0  0  0  0  0  0  0
  186.1350  176.9330  137.2690 N   0  0  0  0  0  0  0  0  0  0  0  0
  184.1230  177.7200  138.1620 C   0  0  0  0  0  2  0  0  0  0  0  0
  185.2030  178.5350  138.6950 C   0  0  1  0  0  3  0  0  0  0  0  0
  184.9700  178.7800  140.1700 C   0  0  0  0  0  1  0  0  0  0  0  0
  185.4200  177.0920  138.4760 N   0  0  0  0  0  0  0  0  0  0  0  0
  185.8210  177.7980  136.1260 C   0  0  1  0  0  3  0  0  0  0  0  0
  186.5520  177.3740  134.9980 O   0  0  0  0  0  0  0  0  0  0  0  0
  185.1900  177.0270  135.0270 C   0  0  0  0  0  2  0  0  0  0  0  0
  1  3  2  0  0  0  0
  1  2  1  0  0  0  0
  2 23  1  0  0  0  0
  2  8  2  0  0  0  0
  3  7  1  0  0  0  0
  5  4  1  0  0  0  0
  6 10  1  0  0  0  0
  7  6  1  0  0  0  0
  7  5  2  0  0  0  0
  8  5  1  0  0  0  0
  8 20  1  0  0  0  0
 10  9  1  6  0  0  0
 10  4  1  0  0  0  0
 11 13  1  6  0  0  0
 12 11  1  0  0  0  0
 14 16  1  0  0  0  0
 16  1  1  1  0  0  0
 16 11  1  0  0  0  0
 17 12  1  0  0  0  0
 18 15  1  1  0  0  0
 18 14  1  0  0  0  0
 18 17  1  0  0  0  0
 20 19  1  0  0  0  0
 21 20  1  0  0  0  0
 22 21  1  0  0  0  0
 23 27  1  0  0  0  0
 24 27  1  0  0  0  0
 24 25  1  0  0  0  0
 25 26  1  1  0  0  0
 27 25  1  0  0  0  0
 28 23  1  1  0  0  0
 29 30  1  0  0  0  0
 29 28  1  0  0  0  0
 30 28  1  0  0  0  0
M  END
>  <MODEL>
2

>  <REMARK>
 VINA RESULT:      -4.4      3.175      5.728
  Name = 
  6 active torsions:
  status: ('A' for Active; 'I' for Inactive)
    1  A    between atoms: C_1  and  C_22
    2  A    between atoms: C_4  and  N_23
    3  A    between atoms: C_7  and  N_30
    4  A    between atoms: C_10  and  N_23
    5  A    between atoms: C_13  and  N_30
    6  A    between atoms: N_23  and  N_25
                            x       y       z     vdW  Elec       q    Type
                         _______ _______ _______ _____ _____    ______ ____

>  <TORSDO>
F 6

$$$$
=
 OpenBabel10272413423D

 30 34  0  0  1  0  0  0  0  0999 V2000
  186.2870  177.7850  138.6720 C   0  0  0  0  0  0  0  0  0  0  0  0
  187.0410  177.0390  137.7030 C   0  0  0  0  0  0  0  0  0  0  0  0
  186.9010  178.1800  139.8720 C   0  0  0  0  0  3  0  0  0  0  0  0
  190.3470  176.9700  139.6930 C   0  0  0  0  0  2  0  0  0  0  0  0
  188.9680  177.1790  139.1700 C   0  0  0  0  0  0  0  0  0  0  0  0
  188.9720  178.1570  141.2110 O   0  0  0  0  0  0  0  0  0  0  0  0
  188.2330  177.8590  140.0890 C   0  0  0  0  0  0  0  0  0  0  0  0
  188.4100  176.7500  137.9610 C   0  0  0  0  0  0  0  0  0  0  0  0
  190.5920  176.6550  142.1620 C   0  0  0  0  0  1  0  0  0  0  0  0
  190.3020  177.6650  141.0690 C   0  0  1  0  0  3  0  0  0  0  0  0
  184.5230  179.5700  139.1630 C   0  0  1  0  0  3  0  0  0  0  0  0
  183.0740  179.9320  138.8450 C   0  0  0  0  0  2  0  0  0  0  0  0
  184.7120  179.5380  140.5450 O   0  0  0  0  0  1  0  0  0  0  0  0
  183.7770  177.1540  138.7450 C   0  0  0  0  0  2  0  0  0  0  0  0
  182.0000  177.9020  137.0850 C   0  0  0  0  0  1  0  0  0  0  0  0
  184.8490  178.2200  138.5190 C   0  0  2  0  0  3  0  0  0  0  0  0
  182.1870  178.9330  139.3050 O   0  0  0  0  0  0  0  0  0  0  0  0
  182.3760  177.7450  138.5560 C   0  0  2  0  0  3  0  0  0  0  0  0
  189.2360  174.5610  137.0760 C   0  0  0  0  0  1  0  0  0  0  0  0
  189.2080  176.0140  137.0230 N   0  0  0  0  0  0  0  0  0  0  0  0
  189.7490  176.6870  135.8530 C   0  0  0  0  0  2  0  0  0  0  0  0
  189.7230  178.0570  136.0400 F   0  0  0  0  0  0  0  0  0  0  0  0
  186.4660  176.6470  136.4360 N   0  0  0  0  0  0  0  0  0  0  0  0
  184.8100  175.1020  135.8550 C   0  0  0  0  0  2  0  0  0  0  0  0
  185.3060  174.7560  137.1780 C   0  0  1  0  0  3  0  0  0  0  0  0
  185.4750  173.2560  137.2780 C   0  0  0  0  0  1  0  0  0  0  0  0
  186.2410  175.2790  136.1640 N   0  0  0  0  0  0  0  0  0  0  0  0
  185.9020  177.6620  135.5410 C   0  0  1  0  0  3  0  0  0  0  0  0
  186.7920  178.7510  135.4410 O   0  0  0  0  0  0  0  0  0  0  0  0
  186.7630  177.8660  134.3500 C   0  0  0  0  0  2  0  0  0  0  0  0
  1  3  1  0  0  0  0
  2  8  1  0  0  0  0
  2  1  2  0  0  0  0
  3  7  2  0  0  0  0
  4 10  1  0  0  0  0
  5  4  1  0  0  0  0
  5  7  1  0  0  0  0
  7  6  1  0  0  0  0
  8  5  2  0  0  0  0
 10  6  1  0  0  0  0
 10  9  1  1  0  0  0
 11 13  1  1  0  0  0
 12 11  1  0  0  0  0
 12 17  1  0  0  0  0
 16  1  1  1  0  0  0
 16 14  1  0  0  0  0
 16 11  1  0  0  0  0
 18 15  1  6  0  0  0
 18 14  1  0  0  0  0
 18 17  1  0  0  0  0
 20 19  1  0  0  0  0
 20  8  1  0  0  0  0
 21 22  1  0  0  0  0
 21 20  1  0  0  0  0
 23  2  1  0  0  0  0
 24 27  1  0  0  0  0
 24 25  1  0  0  0  0
 25 26  1  6  0  0  0
 27 23  1  0  0  0  0
 27 25  1  0  0  0  0
 28 23  1  1  0  0  0
 29 28  1  0  0  0  0
 30 29  1  0  0  0  0
 30 28  1  0  0  0  0
M  END
>  <MODEL>
3

>  <REMARK>
 VINA RESULT:      -4.3      2.376      3.717
  Name = 
  6 active torsions:
  status: ('A' for Active; 'I' for Inactive)
    1  A    between atoms: C_1  and  C_22
    2  A    between atoms: C_4  and  N_23
    3  A    between atoms: C_7  and  N_30
    4  A    between atoms: C_10  and  N_23
    5  A    between atoms: C_13  and  N_30
    6  A    between atoms: N_23  and  N_25
                            x       y       z     vdW  Elec       q    Type
                         _______ _______ _______ _____ _____    ______ ____

>  <TORSDO>
F 6

$$$$
=
 OpenBabel10272413423D

 30 34  0  0  1  0  0  0  0  0999 V2000
  185.6380  177.6630  137.6740 C   0  0  0  0  0  0  0  0  0  0  0  0
  184.6460  176.7790  137.1290 C   0  0  0  0  0  0  0  0  0  0  0  0
  185.2320  178.8020  138.3910 C   0  0  0  0  0  3  0  0  0  0  0  0
  181.5770  178.7230  138.4320 C   0  0  0  0  0  2  0  0  0  0  0  0
  182.9280  178.1970  138.0920 C   0  0  0  0  0  0  0  0  0  0  0  0
  183.3200  180.1100  139.2370 O   0  0  0  0  0  0  0  0  0  0  0  0
  183.8790  179.0390  138.5760 C   0  0  0  0  0  0  0  0  0  0  0  0
  183.2680  177.0530  137.3620 C   0  0  0  0  0  0  0  0  0  0  0  0
  181.3110  181.2090  138.5040 C   0  0  0  0  0  1  0  0  0  0  0  0
  181.8980  180.0100  139.2210 C   0  0  1  0  0  3  0  0  0  0  0  0
  187.8480  177.2890  138.9070 C   0  0  1  0  0  3  0  0  0  0  0  0
  189.3250  177.0110  138.6440 C   0  0  0  0  0  2  0  0  0  0  0  0
  187.7130  178.4130  139.7220 O   0  0  0  0  0  1  0  0  0  0  0  0
  187.8750  178.3980  136.5970 C   0  0  0  0  0  2  0  0  0  0  0  0
  189.7200  176.8480  135.7820 C   0  0  0  0  0  1  0  0  0  0  0  0
  187.1330  177.4790  137.5660 C   0  0  2  0  0  3  0  0  0  0  0  0
  189.9180  178.0620  137.9070 O   0  0  0  0  0  0  0  0  0  0  0  0
  189.3760  178.0910  136.5980 C   0  0  2  0  0  3  0  0  0  0  0  0
  181.6290  175.1950  137.7040 C   0  0  0  0  0  1  0  0  0  0  0  0
  182.2400  176.1970  136.8450 N   0  0  0  0  0  0  0  0  0  0  0  0
  181.6080  176.5140  135.5740 C   0  0  0  0  0  2  0  0  0  0  0  0
  182.1880  177.6440  135.0270 F   0  0  0  0  0  0  0  0  0  0  0  0
  185.0140  175.5740  136.4220 N   0  0  0  0  0  0  0  0  0  0  0  0
  185.8970  173.4150  136.2740 C   0  0  0  0  0  2  0  0  0  0  0  0
  184.4520  173.3040  136.3920 C   0  0  1  0  0  3  0  0  0  0  0  0
  184.1070  172.1820  137.3460 C   0  0  0  0  0  1  0  0  0  0  0  0
  185.1640  174.3630  137.1330 N   0  0  0  0  0  0  0  0  0  0  0  0
  185.0010  175.5520  134.9550 C   0  0  1  0  0  3  0  0  0  0  0  0
  185.1650  176.8620  134.4600 O   0  0  0  0  0  0  0  0  0  0  0  0
  186.2930  176.0240  134.3990 C   0  0  0  0  0  2  0  0  0  0  0  0
  1  3  1  0  0  0  0
  2  8  1  0  0  0  0
  2  1  2  0  0  0  0
  3  7  2  0  0  0  0
  4 10  1  0  0  0  0
  5  4  1  0  0  0  0
  5  7  1  0  0  0  0
  7  6  1  0  0  0  0
  8  5  2  0  0  0  0
 10  9  1  6  0  0  0
 10  6  1  0  0  0  0
 11 13  1  1  0  0  0
 12 11  1  0  0  0  0
 14 18  1  0  0  0  0
 14 16  1  0  0  0  0
 16  1  1  1  0  0  0
 16 11  1  0  0  0  0
 17 12  1  0  0  0  0
 18 15  1  1  0  0  0
 18 17  1  0  0  0  0
 20  8  1  0  0  0  0
 20 19  1  0  0  0  0
 21 20  1  0  0  0  0
 22 21  1  0  0  0  0
 23  2  1  0  0  0  0
 23 27  1  0  0  0  0
 24 25  1  0  0  0  0
 24 27  1  0  0  0  0
 25 27  1  0  0  0  0
 25 26  1  1  0  0  0
 28 23  1  1  0  0  0
 29 28  1  0  0  0  0
 30 29  1  0  0  0  0
 30 28  1  0  0  0  0
M  END
>  <MODEL>
4

>  <REMARK>
 VINA RESULT:      -4.3      1.997      5.752
  Name = 
  6 active torsions:
  status: ('A' for Active; 'I' for Inactive)
    1  A    between atoms: C_1  and  C_22
    2  A    between atoms: C_4  and  N_23
    3  A    between atoms: C_7  and  N_30
    4  A    between atoms: C_10  and  N_23
    5  A    between atoms: C_13  and  N_30
    6  A    between atoms: N_23  and  N_25
                            x       y       z     vdW  Elec       q    Type
                         _______ _______ _______ _____ _____    ______ ____

>  <TORSDO>
F 6

$$$$
=
 OpenBabel10272413423D

 30 34  0  0  1  0  0  0  0  0999 V2000
  190.3100  174.4940  136.1390 C   0  0  0  0  0  0  0  0  0  0  0  0
  188.9700  175.0080  136.2070 C   0  0  0  0  0  0  0  0  0  0  0  0
  190.5300  173.1970  135.6450 C   0  0  0  0  0  3  0  0  0  0  0  0
  187.2400  171.8890  134.7320 C   0  0  0  0  0  2  0  0  0  0  0  0
  188.1780  172.9270  135.2410 C   0  0  0  0  0  0  0  0  0  0  0  0
  189.4930  171.1610  134.7180 O   0  0  0  0  0  0  0  0  0  0  0  0
  189.4490  172.4450  135.2120 C   0  0  0  0  0  0  0  0  0  0  0  0
  187.8940  174.2060  135.7320 C   0  0  0  0  0  0  0  0  0  0  0  0
  187.8200  169.5030  135.2040 C   0  0  0  0  0  1  0  0  0  0  0  0
  188.1810  170.7200  134.3760 C   0  0  1  0  0  3  0  0  0  0  0  0
  192.4310  175.7030  135.3770 C   0  0  1  0  0  3  0  0  0  0  0  0
  193.5940  176.5270  135.9230 C   0  0  0  0  0  2  0  0  0  0  0  0
  192.9190  174.6200  134.6430 O   0  0  0  0  0  1  0  0  0  0  0  0
  192.3530  174.6700  137.7200 C   0  0  0  0  0  2  0  0  0  0  0  0
  193.2410  176.8050  138.7810 C   0  0  0  0  0  1  0  0  0  0  0  0
  191.5580  175.2400  136.5460 C   0  0  2  0  0  3  0  0  0  0  0  0
  194.3560  175.7800  136.8500 O   0  0  0  0  0  0  0  0  0  0  0  0
  193.5850  175.5320  138.0120 C   0  0  2  0  0  3  0  0  0  0  0  0
  185.8870  175.1130  134.5470 C   0  0  0  0  0  1  0  0  0  0  0  0
  186.5400  174.6770  135.7710 N   0  0  0  0  0  0  0  0  0  0  0  0
  185.7310  174.4490  136.9580 C   0  0  0  0  0  2  0  0  0  0  0  0
  186.2900  173.4440  137.7250 F   0  0  0  0  0  0  0  0  0  0  0  0
  188.6980  176.3500  136.6680 N   0  0  0  0  0  0  0  0  0  0  0  0
  188.2800  178.0280  138.2410 C   0  0  0  0  0  2  0  0  0  0  0  0
  189.4950  177.3340  138.6340 C   0  0  1  0  0  3  0  0  0  0  0  0
  189.4870  177.1090  140.1300 C   0  0  0  0  0  1  0  0  0  0  0  0
  188.3860  176.5730  138.0270 N   0  0  0  0  0  0  0  0  0  0  0  0
  188.9730  177.4960  135.7940 C   0  0  1  0  0  3  0  0  0  0  0  0
  188.8190  177.1110  134.4470 O   0  0  0  0  0  0  0  0  0  0  0  0
  187.7740  177.8690  135.0040 C   0  0  0  0  0  2  0  0  0  0  0  0
  1  2  1  0  0  0  0
  2 23  1  0  0  0  0
  3  1  2  0  0  0  0
  4  5  1  0  0  0  0
  5  8  1  0  0  0  0
  6  7  1  0  0  0  0
  7  5  2  0  0  0  0
  7  3  1  0  0  0  0
  8 20  1  0  0  0  0
  8  2  2  0  0  0  0
 10  6  1  0  0  0  0
 10  4  1  0  0  0  0
 10  9  1  1  0  0  0
 11 13  1  1  0  0  0
 11 12  1  0  0  0  0
 11 16  1  0  0  0  0
 12 17  1  0  0  0  0
 14 18  1  0  0  0  0
 16  1  1  6  0  0  0
 16 14  1  0  0  0  0
 17 18  1  0  0  0  0
 18 15  1  6  0  0  0
 19 20  1  0  0  0  0
 20 21  1  0  0  0  0
 21 22  1  0  0  0  0
 23 27  1  0  0  0  0
 24 25  1  0  0  0  0
 25 26  1  1  0  0  0
 27 24  1  0  0  0  0
 27 25  1  0  0  0  0
 28 23  1  1  0  0  0
 29 30  1  0  0  0  0
 29 28  1  0  0  0  0
 30 28  1  0  0  0  0
M  END
>  <MODEL>
5

>  <REMARK>
 VINA RESULT:      -4.1      4.581      8.267
  Name = 
  6 active torsions:
  status: ('A' for Active; 'I' for Inactive)
    1  A    between atoms: C_1  and  C_22
    2  A    between atoms: C_4  and  N_23
    3  A    between atoms: C_7  and  N_30
    4  A    between atoms: C_10  and  N_23
    5  A    between atoms: C_13  and  N_30
    6  A    between atoms: N_23  and  N_25
                            x       y       z     vdW  Elec       q    Type
                         _______ _______ _______ _____ _____    ______ ____

>  <TORSDO>
F 6

$$$$
=
 OpenBabel10272413423D

 30 34  0  0  1  0  0  0  0  0999 V2000
  186.6390  178.0600  143.3960 C   0  0  0  0  0  0  0  0  0  0  0  0
  187.7410  177.9690  142.4780 C   0  0  0  0  0  0  0  0  0  0  0  0
  185.3420  178.2770  142.9000 C   0  0  0  0  0  3  0  0  0  0  0  0
  185.6600  178.4380  139.2610 C   0  0  0  0  0  2  0  0  0  0  0  0
  186.1750  178.2670  140.6480 C   0  0  0  0  0  0  0  0  0  0  0  0
  183.9500  178.6050  140.8910 O   0  0  0  0  0  0  0  0  0  0  0  0
  185.1480  178.3800  141.5310 C   0  0  0  0  0  0  0  0  0  0  0  0
  187.4900  178.0610  141.0800 C   0  0  0  0  0  0  0  0  0  0  0  0
  183.7380  180.0060  138.9480 C   0  0  0  0  0  1  0  0  0  0  0  0
  184.1480  178.6470  139.4800 C   0  0  1  0  0  3  0  0  0  0  0  0
  185.4620  178.3230  145.6510 C   0  0  1  0  0  3  0  0  0  0  0  0
  185.6600  178.0380  147.1370 C   0  0  0  0  0  2  0  0  0  0  0  0
  185.1570  179.6720  145.4610 O   0  0  0  0  0  1  0  0  0  0  0  0
  188.0220  178.4130  145.5560 C   0  0  0  0  0  2  0  0  0  0  0  0
  188.2350  176.7630  147.4800 C   0  0  0  0  0  1  0  0  0  0  0  0
  186.7330  177.9230  144.8960 C   0  0  2  0  0  3  0  0  0  0  0  0
  186.7810  178.7340  147.6440 O   0  0  0  0  0  0  0  0  0  0  0  0
  187.9670  178.2100  147.0730 C   0  0  2  0  0  3  0  0  0  0  0  0
  188.9910  176.6680  139.6440 C   0  0  0  0  0  1  0  0  0  0  0  0
  188.5550  177.9700  140.1230 N   0  0  0  0  0  0  0  0  0  0  0  0
  188.9970  179.1640  139.4200 C   0  0  0  0  0  2  0  0  0  0  0  0
  188.9880  178.9390  138.0560 F   0  0  0  0  0  0  0  0  0  0  0  0
  189.0860  177.7050  142.9360 N   0  0  0  0  0  0  0  0  0  0  0  0
  191.3750  178.1480  142.7650 C   0  0  0  0  0  2  0  0  0  0  0  0
  190.9380  178.5380  144.0960 C   0  0  1  0  0  3  0  0  0  0  0  0
  191.5750  179.8580  144.4710 C   0  0  0  0  0  1  0  0  0  0  0  0
  190.0390  178.7470  142.9440 N   0  0  0  0  0  0  0  0  0  0  0  0
  189.3970  176.4380  143.6060 C   0  0  1  0  0  3  0  0  0  0  0  0
  188.7070  175.3850  142.9720 O   0  0  0  0  0  0  0  0  0  0  0  0
  190.0780  175.4960  142.6840 C   0  0  0  0  0  2  0  0  0  0  0  0
  2 23  1  0  0  0  0
  2  1  2  0  0  0  0
  3  1  1  0  0  0  0
  4 10  1  0  0  0  0
  4  5  1  0  0  0  0
  5  8  2  0  0  0  0
  5  7  1  0  0  0  0
  6  7  1  0  0  0  0
  7  3  2  0  0  0  0
  8  2  1  0  0  0  0
 10  9  1  1  0  0  0
 10  6  1  0  0  0  0
 11 13  1  1  0  0  0
 11 12  1  0  0  0  0
 12 17  1  0  0  0  0
 14 18  1  0  0  0  0
 16  1  1  6  0  0  0
 16 14  1  0  0  0  0
 16 11  1  0  0  0  0
 18 15  1  6  0  0  0
 18 17  1  0  0  0  0
 19 20  1  0  0  0  0
 20  8  1  0  0  0  0
 21 20  1  0  0  0  0
 22 21  1  0  0  0  0
 23 27  1  0  0  0  0
 24 27  1  0  0  0  0
 24 25  1  0  0  0  0
 25 26  1  6  0  0  0
 27 25  1  0  0  0  0
 28 23  1  6  0  0  0
 29 28  1  0  0  0  0
 30 29  1  0  0  0  0
 30 28  1  0  0  0  0
M  END
>  <MODEL>
6

>  <REMARK>
 VINA RESULT:      -4.1      5.551      7.967
  Name = 
  6 active torsions:
  status: ('A' for Active; 'I' for Inactive)
    1  A    between atoms: C_1  and  C_22
    2  A    between atoms: C_4  and  N_23
    3  A    between atoms: C_7  and  N_30
    4  A    between atoms: C_10  and  N_23
    5  A    between atoms: C_13  and  N_30
    6  A    between atoms: N_23  and  N_25
                            x       y       z     vdW  Elec       q    Type
                         _______ _______ _______ _____ _____    ______ ____

>  <TORSDO>
F 6

$$$$
=
 OpenBabel10272413423D

 30 34  0  0  1  0  0  0  0  0999 V2000
  190.1500  176.6660  138.9380 C   0  0  0  0  0  0  0  0  0  0  0  0
  189.6070  176.4960  137.6180 C   0  0  0  0  0  0  0  0  0  0  0  0
  191.5360  176.5500  139.1350 C   0  0  0  0  0  3  0  0  0  0  0  0
  192.9760  175.8740  135.8430 C   0  0  0  0  0  2  0  0  0  0  0  0
  191.8620  176.1600  136.7880 C   0  0  0  0  0  0  0  0  0  0  0  0
  193.7240  176.1380  138.0750 O   0  0  0  0  0  0  0  0  0  0  0  0
  192.3570  176.2940  138.0470 C   0  0  0  0  0  0  0  0  0  0  0  0
  190.4900  176.2540  136.5290 C   0  0  0  0  0  0  0  0  0  0  0  0
  194.8950  174.5320  136.7210 C   0  0  0  0  0  1  0  0  0  0  0  0
  194.2160  175.8870  136.7610 C   0  0  1  0  0  3  0  0  0  0  0  0
  188.3470  178.1260  140.0140 C   0  0  1  0  0  3  0  0  0  0  0  0
  187.5460  178.2710  141.3050 C   0  0  0  0  0  2  0  0  0  0  0  0
  188.9850  179.3310  139.7130 O   0  0  0  0  0  1  0  0  0  0  0  0
  190.1220  177.0270  141.5010 C   0  0  0  0  0  2  0  0  0  0  0  0
  188.3540  176.1610  143.1130 C   0  0  0  0  0  1  0  0  0  0  0  0
  189.3540  176.9850  140.1800 C   0  0  2  0  0  3  0  0  0  0  0  0
  188.3960  178.5120  142.4080 O   0  0  0  0  0  0  0  0  0  0  0  0
  189.1830  177.3620  142.6650 C   0  0  2  0  0  3  0  0  0  0  0  0
  189.7760  177.2480  134.3470 C   0  0  0  0  0  1  0  0  0  0  0  0
  189.9980  176.0850  135.1920 N   0  0  0  0  0  0  0  0  0  0  0  0
  189.9960  174.7630  134.5860 C   0  0  0  0  0  2  0  0  0  0  0  0
  190.4440  173.8250  135.4970 F   0  0  0  0  0  0  0  0  0  0  0  0
  188.1930  176.6470  137.3580 N   0  0  0  0  0  0  0  0  0  0  0  0
  187.9520  174.3240  137.4530 C   0  0  0  0  0  2  0  0  0  0  0  0
  186.9670  174.8420  136.5160 C   0  0  1  0  0  3  0  0  0  0  0  0
  185.6460  174.1360  136.7300 C   0  0  0  0  0  1  0  0  0  0  0  0
  187.3000  175.6180  137.7270 N   0  0  0  0  0  0  0  0  0  0  0  0
  187.6600  177.9460  136.9340 C   0  0  1  0  0  3  0  0  0  0  0  0
  186.6120  177.7500  136.0120 O   0  0  0  0  0  0  0  0  0  0  0  0
  186.2360  178.0960  137.3220 C   0  0  0  0  0  2  0  0  0  0  0  0
  1  3  1  0  0  0  0
  2  1  2  0  0  0  0
  4 10  1  0  0  0  0
  4  5  1  0  0  0  0
  5  7  1  0  0  0  0
  7  6  1  0  0  0  0
  7  3  2  0  0  0  0
  8  5  2  0  0  0  0
  8  2  1  0  0  0  0
 10  9  1  1  0  0  0
 10  6  1  0  0  0  0
 11 13  1  1  0  0  0
 11 16  1  0  0  0  0
 11 12  1  0  0  0  0
 12 17  1  0  0  0  0
 14 18  1  0  0  0  0
 16  1  1  6  0  0  0
 16 14  1  0  0  0  0
 17 18  1  0  0  0  0
 18 15  1  6  0  0  0
 19 20  1  0  0  0  0
 20  8  1  0  0  0  0
 21 20  1  0  0  0  0
 21 22  1  0  0  0  0
 23  2  1  0  0  0  0
 23 27  1  0  0  0  0
 24 27  1  0  0  0  0
 25 26  1  1  0  0  0
 25 24  1  0  0  0  0
 25 27  1  0  0  0  0
 28 30  1  0  0  0  0
 28 23  1  1  0  0  0
 29 28  1  0  0  0  0
 29 30  1  0  0  0  0
M  END
>  <MODEL>
7

>  <REMARK>
 VINA RESULT:      -4.1      3.927      5.885
  Name = 
  6 active torsions:
  status: ('A' for Active; 'I' for Inactive)
    1  A    between atoms: C_1  and  C_22
    2  A    between atoms: C_4  and  N_23
    3  A    between atoms: C_7  and  N_30
    4  A    between atoms: C_10  and  N_23
    5  A    between atoms: C_13  and  N_30
    6  A    between atoms: N_23  and  N_25
                            x       y       z     vdW  Elec       q    Type
                         _______ _______ _______ _____ _____    ______ ____

>  <TORSDO>
F 6

$$$$
=
 OpenBabel10272413423D

 30 34  0  0  1  0  0  0  0  0999 V2000
  187.9260  174.5630  136.2690 C   0  0  0  0  0  0  0  0  0  0  0  0
  187.0210  175.6580  136.4860 C   0  0  0  0  0  0  0  0  0  0  0  0
  187.4120  173.2760  136.0380 C   0  0  0  0  0  3  0  0  0  0  0  0
  183.7720  173.6110  136.1050 C   0  0  0  0  0  2  0  0  0  0  0  0
  185.1690  174.1210  136.1770 C   0  0  0  0  0  0  0  0  0  0  0  0
  185.3800  171.8990  135.8040 O   0  0  0  0  0  0  0  0  0  0  0  0
  186.0380  173.0910  136.0040 C   0  0  0  0  0  0  0  0  0  0  0  0
  185.6190  175.4230  136.4220 C   0  0  0  0  0  0  0  0  0  0  0  0
  183.3600  171.2990  136.9640 C   0  0  0  0  0  1  0  0  0  0  0  0
  183.9700  172.1050  135.8340 C   0  0  1  0  0  3  0  0  0  0  0  0
  190.0610  174.4750  134.8630 C   0  0  1  0  0  3  0  0  0  0  0  0
  191.5660  174.7000  134.9690 C   0  0  0  0  0  2  0  0  0  0  0  0
  189.8050  173.2010  134.3530 O   0  0  0  0  0  1  0  0  0  0  0  0
  190.1880  173.9470  137.3680 C   0  0  0  0  0  2  0  0  0  0  0  0
  192.1710  175.5100  137.6800 C   0  0  0  0  0  1  0  0  0  0  0  0
  189.4330  174.6610  136.2470 C   0  0  2  0  0  3  0  0  0  0  0  0
  192.1500  173.8150  135.9050 O   0  0  0  0  0  0  0  0  0  0  0  0
  191.7000  174.1360  137.2100 C   0  0  2  0  0  3  0  0  0  0  0  0
  184.0210  177.1020  135.4820 C   0  0  0  0  0  1  0  0  0  0  0  0
  184.6750  176.4840  136.6240 N   0  0  0  0  0  0  0  0  0  0  0  0
  184.1560  176.7440  137.9580 C   0  0  0  0  0  2  0  0  0  0  0  0
  182.8820  176.2200  138.0800 F   0  0  0  0  0  0  0  0  0  0  0  0
  187.5010  177.0060  136.6860 N   0  0  0  0  0  0  0  0  0  0  0  0
  188.6080  178.6050  137.9830 C   0  0  0  0  0  2  0  0  0  0  0  0
  188.9810  177.2890  138.4750 C   0  0  1  0  0  3  0  0  0  0  0  0
  188.9850  177.2970  139.9880 C   0  0  0  0  0  1  0  0  0  0  0  0
  187.6050  177.5250  137.9960 N   0  0  0  0  0  0  0  0  0  0  0  0
  188.0960  177.7470  135.5690 C   0  0  1  0  0  3  0  0  0  0  0  0
  187.6540  177.1970  134.3480 O   0  0  0  0  0  0  0  0  0  0  0  0
  187.0530  178.4050  134.7440 C   0  0  0  0  0  2  0  0  0  0  0  0
  1  2  1  0  0  0  0
  2 23  1  0  0  0  0
  3  1  2  0  0  0  0
  4  5  1  0  0  0  0
  5  8  1  0  0  0  0
  6 10  1  0  0  0  0
  6  7  1  0  0  0  0
  7  3  1  0  0  0  0
  7  5  2  0  0  0  0
  8  2  2  0  0  0  0
  8 20  1  0  0  0  0
 10  4  1  0  0  0  0
 10  9  1  1  0  0  0
 11 13  1  1  0  0  0
 11 12  1  0  0  0  0
 11 16  1  0  0  0  0
 12 17  1  0  0  0  0
 16  1  1  6  0  0  0
 16 14  1  0  0  0  0
 17 18  1  0  0  0  0
 18 14  1  0  0  0  0
 18 15  1  6  0  0  0
 19 20  1  0  0  0  0
 20 21  1  0  0  0  0
 21 22  1  0  0  0  0
 23 27  1  0  0  0  0
 24 27  1  0  0  0  0
 24 25  1  0  0  0  0
 25 26  1  1  0  0  0
 27 25  1  0  0  0  0
 28 23  1  1  0  0  0
 29 30  1  0  0  0  0
 29 28  1  0  0  0  0
 30 28  1  0  0  0  0
M  END
>  <MODEL>
8

>  <REMARK>
 VINA RESULT:      -4.0      3.284      7.592
  Name = 
  6 active torsions:
  status: ('A' for Active; 'I' for Inactive)
    1  A    between atoms: C_1  and  C_22
    2  A    between atoms: C_4  and  N_23
    3  A    between atoms: C_7  and  N_30
    4  A    between atoms: C_10  and  N_23
    5  A    between atoms: C_13  and  N_30
    6  A    between atoms: N_23  and  N_25
                            x       y       z     vdW  Elec       q    Type
                         _______ _______ _______ _____ _____    ______ ____

>  <TORSDO>
F 6

$$$$
=
 OpenBabel10272413423D

 30 34  0  0  1  0  0  0  0  0999 V2000
  185.1150  176.0400  137.3290 C   0  0  0  0  0  0  0  0  0  0  0  0
  183.8040  176.2710  137.8700 C   0  0  0  0  0  0  0  0  0  0  0  0
  185.3760  174.8470  136.6340 C   0  0  0  0  0  3  0  0  0  0  0  0
  182.2380  172.9700  136.6270 C   0  0  0  0  0  2  0  0  0  0  0  0
  183.1020  174.1400  136.9460 C   0  0  0  0  0  0  0  0  0  0  0  0
  184.4510  172.7080  135.8270 O   0  0  0  0  0  0  0  0  0  0  0  0
  184.3550  173.9230  136.4660 C   0  0  0  0  0  0  0  0  0  0  0  0
  182.7830  175.3030  137.6550 C   0  0  0  0  0  0  0  0  0  0  0  0
  183.3330  170.7220  136.5960 C   0  0  0  0  0  1  0  0  0  0  0  0
  183.1940  172.0370  135.8550 C   0  0  1  0  0  3  0  0  0  0  0  0
  186.3190  178.0590  136.3230 C   0  0  1  0  0  3  0  0  0  0  0  0
  187.4820  179.0090  136.5950 C   0  0  0  0  0  2  0  0  0  0  0  0
  186.4580  177.4870  135.0570 O   0  0  0  0  0  1  0  0  0  0  0  0
  187.6490  176.3830  137.7320 C   0  0  0  0  0  2  0  0  0  0  0  0
  188.7040  178.2470  139.1040 C   0  0  0  0  0  1  0  0  0  0  0  0
  186.2830  176.9920  137.4200 C   0  0  2  0  0  3  0  0  0  0  0  0
  188.7090  178.3090  136.6500 O   0  0  0  0  0  0  0  0  0  0  0  0
  188.7280  177.4690  137.7920 C   0  0  2  0  0  3  0  0  0  0  0  0
  180.3400  175.6600  137.2510 C   0  0  0  0  0  1  0  0  0  0  0  0
  181.4570  175.4910  138.1680 N   0  0  0  0  0  0  0  0  0  0  0  0
  181.1820  175.2260  139.5710 C   0  0  0  0  0  2  0  0  0  0  0  0
  180.7370  176.3780  140.1920 F   0  0  0  0  0  0  0  0  0  0  0  0
  183.4760  177.5000  138.5550 N   0  0  0  0  0  0  0  0  0  0  0  0
  183.1730  178.9060  140.3980 C   0  0  0  0  0  2  0  0  0  0  0  0
  184.6020  178.7730  140.1620 C   0  0  1  0  0  3  0  0  0  0  0  0
  185.3190  178.6040  141.4830 C   0  0  0  0  0  1  0  0  0  0  0  0
  183.7160  177.6140  139.9420 N   0  0  0  0  0  0  0  0  0  0  0  0
  183.1200  178.6970  137.7850 C   0  0  1  0  0  3  0  0  0  0  0  0
  182.4570  178.3180  136.6010 O   0  0  0  0  0  0  0  0  0  0  0  0
  181.6500  178.8220  137.6350 C   0  0  0  0  0  2  0  0  0  0  0  0
  1  2  1  0  0  0  0
  2 23  1  0  0  0  0
  3  1  2  0  0  0  0
  4  5  1  0  0  0  0
  5  8  1  0  0  0  0
  6 10  1  0  0  0  0
  6  7  1  0  0  0  0
  7  3  1  0  0  0  0
  7  5  2  0  0  0  0
  8  2  2  0  0  0  0
  8 20  1  0  0  0  0
 10  9  1  1  0  0  0
 10  4  1  0  0  0  0
 11 13  1  6  0  0  0
 11 12  1  0  0  0  0
 11 16  1  0  0  0  0
 12 17  1  0  0  0  0
 14 18  1  0  0  0  0
 16  1  1  6  0  0  0
 16 14  1  0  0  0  0
 17 18  1  0  0  0  0
 18 15  1  1  0  0  0
 19 20  1  0  0  0  0
 20 21  1  0  0  0  0
 21 22  1  0  0  0  0
 23 27  1  0  0  0  0
 25 24  1  0  0  0  0
 25 26  1  1  0  0  0
 27 25  1  0  0  0  0
 27 24  1  0  0  0  0
 28 23  1  1  0  0  0
 29 30  1  0  0  0  0
 29 28  1  0  0  0  0
 30 28  1  0  0  0  0
M  END
>  <MODEL>
9

>  <REMARK>
 VINA RESULT:      -3.9      2.468      6.015
  Name = 
  6 active torsions:
  status: ('A' for Active; 'I' for Inactive)
    1  A    between atoms: C_1  and  C_22
    2  A    between atoms: C_4  and  N_23
    3  A    between atoms: C_7  and  N_30
    4  A    between atoms: C_10  and  N_23
    5  A    between atoms: C_13  and  N_30
    6  A    between atoms: N_23  and  N_25
                            x       y       z     vdW  Elec       q    Type
                         _______ _______ _______ _____ _____    ______ ____

>  <TORSDO>
F 6

$$$$
