=
 OpenBabel10272413483D

 30 35  0  0  1  0  0  0  0  0999 V2000
  185.0930  178.1430  139.2460 C   0  0  2  0  0  3  0  0  0  0  0  0
  181.1660  180.7660  138.5480 S   0  0  0  0  0  1  0  0  0  0  0  0
  183.7270  178.9220  139.1690 C   0  0  1  0  0  0  0  0  0  0  0  0
  185.9660  178.4880  140.4810 C   0  0  0  0  0  2  0  0  0  0  0  0
  183.3100  178.7840  143.0800 C   0  0  0  0  0  2  0  0  0  0  0  0
  180.9030  177.7580  139.2850 C   0  0  1  0  0  3  0  0  0  0  0  0
  183.8160  178.4220  141.6950 C   0  0  2  0  0  3  0  0  0  0  0  0
  185.6620  179.1640  142.8550 O   0  0  0  0  0  0  0  0  0  0  0  0
  181.5610  178.0080  137.9430 C   0  0  2  0  0  0  0  0  0  0  0  0
  181.7720  179.4330  137.4480 C   0  0  1  0  0  0  0  0  0  0  0  0
  185.1230  179.1660  141.5510 C   0  0  1  0  0  3  0  0  0  0  0  0
  182.9010  178.6370  140.4820 C   0  0  2  0  0  3  0  0  0  0  0  0
  181.1550  176.9570  136.9850 C   0  0  0  0  0  3  0  0  0  0  0  0
  179.9820  176.5670  139.0010 C   0  0  0  0  0  2  0  0  0  0  0  0
  184.7720  179.1240  145.0680 C   0  0  0  0  0  2  0  0  0  0  0  0
  184.6140  179.0350  143.7560 C   0  0  0  0  0  0  0  0  0  0  0  0
  184.0230  180.2880  139.1450 O   0  0  0  0  0  1  0  0  0  0  0  0
  181.6460  179.6690  135.9530 C   0  0  0  0  0  1  0  0  0  0  0  0
  182.9870  178.5600  137.8420 C   0  0  1  0  0  3  0  0  0  0  0  0
  180.2750  176.1620  137.5830 C   0  0  0  0  0  3  0  0  0  0  0  0
  182.6730  176.1270  140.1330 C   0  0  0  0  0  1  0  0  0  0  0  0
  181.9380  177.4510  140.3630 C   0  0  2  0  0  3  0  0  0  0  0  0
  185.3740  177.3040  136.7500 C   0  0  1  0  0  3  0  0  0  0  0  0
  186.1720  177.5670  135.6100 O   0  0  0  0  0  0  0  0  0  0  0  0
  185.1260  175.8070  136.9260 C   0  0  0  0  0  1  0  0  0  0  0  0
  188.5150  179.1640  136.5960 C   0  0  0  0  0  1  0  0  0  0  0  0
  187.4680  177.0230  135.7990 C   0  0  0  0  0  2  0  0  0  0  0  0
  185.9660  178.0040  137.9860 C   0  0  2  0  0  3  0  0  0  0  0  0
  188.2200  177.7140  136.9420 C   0  0  2  0  0  3  0  0  0  0  0  0
  187.4180  177.6160  138.2400 C   0  0  0  0  0  2  0  0  0  0  0  0
  1  4  1  1  0  0  0
  3 17  1  6  0  0  0
  3  1  1  0  0  0  0
  3 12  1  0  0  0  0
  5 16  1  0  0  0  0
  6 14  1  6  0  0  0
  6 22  1  0  0  0  0
  7  5  1  1  0  0  0
  8 16  1  0  0  0  0
  9 13  1  6  0  0  0
  9  6  1  0  0  0  0
 10 18  1  6  0  0  0
 10 19  1  0  0  0  0
 10  9  1  0  0  0  0
 10  2  1  0  0  0  0
 11  4  1  6  0  0  0
 11  7  1  0  0  0  0
 11  8  1  0  0  0  0
 12  7  1  0  0  0  0
 13 20  2  0  0  0  0
 16 15  2  0  0  0  0
 19  9  1  0  0  0  0
 19  3  1  0  0  0  0
 20 14  1  0  0  0  0
 21 22  1  0  0  0  0
 22 12  1  0  0  0  0
 23 25  1  0  0  0  0
 23 28  1  0  0  0  0
 24 27  1  0  0  0  0
 24 23  1  0  0  0  0
 26 29  1  0  0  0  0
 27 29  1  0  0  0  0
 28 30  1  0  0  0  0
 28  1  1  0  0  0  0
 29 30  1  0  0  0  0
M  END
>  <MODEL>
1

>  <REMARK>
 VINA RESULT:      -6.4      0.000      0.000
  Name = 
  1 active torsions:
  status: ('A' for Active; 'I' for Inactive)
    1  A    between atoms: C_1  and  C_22
                            x       y       z     vdW  Elec       q    Type
                         _______ _______ _______ _____ _____    ______ ____

>  <TORSDO>
F 1

$$$$
=
 OpenBabel10272413483D

 30 35  0  0  1  0  0  0  0  0999 V2000
  190.7290  176.5840  138.5410 C   0  0  2  0  0  3  0  0  0  0  0  0
  188.5890  173.2420  135.8880 S   0  0  0  0  0  1  0  0  0  0  0  0
  190.0920  175.5740  137.5160 C   0  0  1  0  0  0  0  0  0  0  0  0
  192.2800  176.5630  138.5940 C   0  0  0  0  0  2  0  0  0  0  0  0
  193.0390  176.1450  134.9680 C   0  0  0  0  0  2  0  0  0  0  0  0
  188.4300  176.2270  135.0360 C   0  0  1  0  0  3  0  0  0  0  0  0
  192.1030  176.4060  136.1350 C   0  0  2  0  0  3  0  0  0  0  0  0
  194.1970  176.1590  137.0620 O   0  0  0  0  0  0  0  0  0  0  0  0
  187.7380  175.9240  136.3490 C   0  0  2  0  0  0  0  0  0  0  0  0
  187.7410  174.5060  136.9060 C   0  0  1  0  0  0  0  0  0  0  0  0
  192.8410  175.8930  137.3490 C   0  0  1  0  0  3  0  0  0  0  0  0
  190.6640  175.8770  136.0770 C   0  0  2  0  0  3  0  0  0  0  0  0
  186.5190  176.7520  136.4740 C   0  0  0  0  0  3  0  0  0  0  0  0
  187.4570  177.1890  134.3470 C   0  0  0  0  0  2  0  0  0  0  0  0
  195.5200  176.3300  135.0840 C   0  0  0  0  0  2  0  0  0  0  0  0
  194.3440  176.2180  135.6840 C   0  0  0  0  0  0  0  0  0  0  0  0
  190.5140  174.2900  137.8740 O   0  0  0  0  0  1  0  0  0  0  0  0
  186.4990  174.0590  137.6590 C   0  0  0  0  0  1  0  0  0  0  0  0
  188.5360  175.6240  137.6230 C   0  0  1  0  0  3  0  0  0  0  0  0
  186.3720  177.4520  135.3540 C   0  0  0  0  0  3  0  0  0  0  0  0
  189.7380  178.2400  135.8990 C   0  0  0  0  0  1  0  0  0  0  0  0
  189.8040  176.8490  135.2610 C   0  0  2  0  0  3  0  0  0  0  0  0
  188.7200  177.2820  140.1190 C   0  0  1  0  0  3  0  0  0  0  0  0
  188.2280  177.0090  141.4190 O   0  0  0  0  0  0  0  0  0  0  0  0
  188.5890  178.7640  139.7710 C   0  0  0  0  0  1  0  0  0  0  0  0
  190.4750  175.6630  142.8840 C   0  0  0  0  0  1  0  0  0  0  0  0
  189.0370  177.6620  142.3820 C   0  0  0  0  0  2  0  0  0  0  0  0
  190.1390  176.7100  139.9570 C   0  0  2  0  0  3  0  0  0  0  0  0
  190.4660  177.1050  142.4050 C   0  0  2  0  0  3  0  0  0  0  0  0
  191.1040  177.2230  141.0210 C   0  0  0  0  0  2  0  0  0  0  0  0
  1  4  1  1  0  0  0
  1 28  1  0  0  0  0
  2 10  1  0  0  0  0
  3 19  1  0  0  0  0
  3 17  1  1  0  0  0
  3  1  1  0  0  0  0
  5 16  1  0  0  0  0
  6 14  1  6  0  0  0
  6 22  1  0  0  0  0
  6  9  1  0  0  0  0
  7  5  1  6  0  0  0
  7 11  1  0  0  0  0
  8 11  1  0  0  0  0
  9 13  1  1  0  0  0
  9 10  1  0  0  0  0
  9 19  1  0  0  0  0
 10 19  1  0  0  0  0
 10 18  1  1  0  0  0
 11  4  1  1  0  0  0
 12  7  1  0  0  0  0
 12  3  1  0  0  0  0
 14 20  1  0  0  0  0
 15 16  2  0  0  0  0
 16  8  1  0  0  0  0
 20 13  2  0  0  0  0
 22 21  1  0  0  0  0
 22 12  1  0  0  0  0
 23 24  1  0  0  0  0
 24 27  1  0  0  0  0
 25 23  1  0  0  0  0
 27 29  1  0  0  0  0
 28 23  1  0  0  0  0
 28 30  1  0  0  0  0
 29 26  1  0  0  0  0
 30 29  1  0  0  0  0
M  END
>  <MODEL>
2

>  <REMARK>
 VINA RESULT:      -6.1      4.983      8.465
  Name = 
  1 active torsions:
  status: ('A' for Active; 'I' for Inactive)
    1  A    between atoms: C_1  and  C_22
                            x       y       z     vdW  Elec       q    Type
                         _______ _______ _______ _____ _____    ______ ____

>  <TORSDO>
F 1

$$$$
=
 OpenBabel10272413483D

 30 35  0  0  1  0  0  0  0  0999 V2000
  185.0050  175.8770  136.8670 C   0  0  2  0  0  3  0  0  0  0  0  0
  180.8650  176.7870  139.0630 S   0  0  0  0  0  1  0  0  0  0  0  0
  183.5590  176.0660  137.4600 C   0  0  1  0  0  0  0  0  0  0  0  0
  185.5740  174.4390  136.9940 C   0  0  0  0  0  2  0  0  0  0  0  0
  182.4940  172.4650  136.2820 C   0  0  0  0  0  2  0  0  0  0  0  0
  181.0060  176.8160  135.9580 C   0  0  1  0  0  3  0  0  0  0  0  0
  183.2900  173.7560  136.3510 C   0  0  2  0  0  3  0  0  0  0  0  0
  184.7460  172.0940  137.0010 O   0  0  0  0  0  0  0  0  0  0  0  0
  181.8340  177.8960  136.6220 C   0  0  2  0  0  0  0  0  0  0  0  0
  181.8780  178.0030  138.1410 C   0  0  1  0  0  0  0  0  0  0  0  0
  184.4520  173.4490  137.2650 C   0  0  1  0  0  3  0  0  0  0  0  0
  182.5780  175.0560  136.7490 C   0  0  2  0  0  3  0  0  0  0  0  0
  181.7920  179.1290  135.8060 C   0  0  0  0  0  3  0  0  0  0  0  0
  180.3700  177.5480  134.7720 C   0  0  0  0  0  2  0  0  0  0  0  0
  183.5030  170.1870  136.2870 C   0  0  0  0  0  2  0  0  0  0  0  0
  183.5960  171.4890  136.5160 C   0  0  0  0  0  0  0  0  0  0  0  0
  183.6120  175.7200  138.8140 O   0  0  0  0  0  1  0  0  0  0  0  0
  181.9770  179.3990  138.7310 C   0  0  0  0  0  1  0  0  0  0  0  0
  183.1380  177.5660  137.3570 C   0  0  1  0  0  3  0  0  0  0  0  0
  180.9730  178.9250  134.7800 C   0  0  0  0  0  3  0  0  0  0  0  0
  182.8560  175.9990  134.4030 C   0  0  0  0  0  1  0  0  0  0  0  0
  181.8720  175.6390  135.5200 C   0  0  2  0  0  3  0  0  0  0  0  0
  186.3370  178.0490  136.1450 C   0  0  1  0  0  3  0  0  0  0  0  0
  187.1130  179.0790  136.7290 O   0  0  0  0  0  0  0  0  0  0  0  0
  186.9310  177.5860  134.8150 C   0  0  0  0  0  1  0  0  0  0  0  0
  187.8190  178.1160  139.4830 C   0  0  0  0  0  1  0  0  0  0  0  0
  188.3910  178.5730  137.0800 C   0  0  0  0  0  2  0  0  0  0  0  0
  186.0960  176.9210  137.1630 C   0  0  2  0  0  3  0  0  0  0  0  0
  188.3050  177.5070  138.1790 C   0  0  2  0  0  3  0  0  0  0  0  0
  187.3930  176.3620  137.7380 C   0  0  0  0  0  2  0  0  0  0  0  0
  1  4  1  1  0  0  0
  1 28  1  0  0  0  0
  1  3  1  0  0  0  0
  3 17  1  1  0  0  0
  5 16  1  0  0  0  0
  6 14  1  6  0  0  0
  6  9  1  0  0  0  0
  7  5  1  1  0  0  0
  7 12  1  0  0  0  0
  7 11  1  0  0  0  0
  8 11  1  0  0  0  0
  9 13  1  6  0  0  0
  9 19  1  0  0  0  0
  9 10  1  0  0  0  0
 10 18  1  1  0  0  0
 10  2  1  0  0  0  0
 11  4  1  6  0  0  0
 12  3  1  0  0  0  0
 14 20  1  0  0  0  0
 15 16  2  0  0  0  0
 16  8  1  0  0  0  0
 19  3  1  0  0  0  0
 19 10  1  0  0  0  0
 20 13  2  0  0  0  0
 21 22  1  0  0  0  0
 22  6  1  0  0  0  0
 22 12  1  0  0  0  0
 23 24  1  0  0  0  0
 23 28  1  0  0  0  0
 24 27  1  0  0  0  0
 25 23  1  0  0  0  0
 27 29  1  0  0  0  0
 28 30  1  0  0  0  0
 29 26  1  0  0  0  0
 30 29  1  0  0  0  0
M  END
>  <MODEL>
3

>  <REMARK>
 VINA RESULT:      -5.2      2.849      5.233
  Name = 
  1 active torsions:
  status: ('A' for Active; 'I' for Inactive)
    1  A    between atoms: C_1  and  C_22
                            x       y       z     vdW  Elec       q    Type
                         _______ _______ _______ _____ _____    ______ ____

>  <TORSDO>
F 1

$$$$
=
 OpenBabel10272413483D

 30 35  0  0  1  0  0  0  0  0999 V2000
  195.1800  172.2590  136.7020 C   0  0  2  0  0  3  0  0  0  0  0  0
  198.3780  174.9740  138.9800 S   0  0  0  0  0  1  0  0  0  0  0  0
  196.1630  173.3000  137.3560 C   0  0  1  0  0  0  0  0  0  0  0  0
  193.6880  172.4470  137.0860 C   0  0  0  0  0  2  0  0  0  0  0  0
  193.4830  176.1690  137.0610 C   0  0  0  0  0  2  0  0  0  0  0  0
  197.8860  175.3880  135.9390 C   0  0  1  0  0  3  0  0  0  0  0  0
  194.1820  174.8480  136.7890 C   0  0  2  0  0  3  0  0  0  0  0  0
  192.1230  174.2930  137.6590 O   0  0  0  0  0  0  0  0  0  0  0  0
  198.4750  174.0380  136.2890 C   0  0  2  0  0  0  0  0  0  0  0  0
  198.7610  173.6800  137.7420 C   0  0  1  0  0  0  0  0  0  0  0  0
  193.4600  173.8410  137.6510 C   0  0  1  0  0  3  0  0  0  0  0  0
  195.7050  174.7560  136.9580 C   0  0  2  0  0  3  0  0  0  0  0  0
  199.4250  173.6190  135.2360 C   0  0  0  0  0  3  0  0  0  0  0  0
  198.6620  175.7880  134.6800 C   0  0  0  0  0  2  0  0  0  0  0  0
  191.0380  176.4090  137.4700 C   0  0  0  0  0  2  0  0  0  0  0  0
  192.1270  175.6570  137.4070 C   0  0  0  0  0  0  0  0  0  0  0  0
  196.0360  173.1840  138.7440 O   0  0  0  0  0  1  0  0  0  0  0  0
  199.9790  172.8130  138.0120 C   0  0  0  0  0  1  0  0  0  0  0  0
  197.6350  172.9510  136.9700 C   0  0  1  0  0  3  0  0  0  0  0  0
  199.5230  174.6010  134.3460 C   0  0  0  0  0  3  0  0  0  0  0  0
  196.0270  174.4760  134.4500 C   0  0  0  0  0  1  0  0  0  0  0  0
  196.3840  175.2950  135.6940 C   0  0  2  0  0  3  0  0  0  0  0  0
  195.7790  170.0800  135.3230 C   0  0  1  0  0  3  0  0  0  0  0  0
  196.4300  168.8350  135.5060 O   0  0  0  0  0  0  0  0  0  0  0  0
  194.5210  169.9320  134.4680 C   0  0  0  0  0  1  0  0  0  0  0  0
  196.6790  168.4660  138.4740 C   0  0  0  0  0  1  0  0  0  0  0  0
  195.5990  167.9690  136.2610 C   0  0  0  0  0  2  0  0  0  0  0  0
  195.5510  170.7660  136.6810 C   0  0  2  0  0  3  0  0  0  0  0  0
  195.3790  168.4830  137.6890 C   0  0  2  0  0  3  0  0  0  0  0  0
  194.7780  169.8890  137.6600 C   0  0  0  0  0  2  0  0  0  0  0  0
  1  4  1  1  0  0  0
  1  3  1  0  0  0  0
  3 17  1  1  0  0  0
  5 16  1  0  0  0  0
  6 14  1  6  0  0  0
  6  9  1  0  0  0  0
  7 12  1  0  0  0  0
  7  5  1  1  0  0  0
  7 11  1  0  0  0  0
  9 13  1  6  0  0  0
  9 19  1  0  0  0  0
  9 10  1  0  0  0  0
 10 18  1  1  0  0  0
 10  2  1  0  0  0  0
 11  4  1  6  0  0  0
 11  8  1  0  0  0  0
 12  3  1  0  0  0  0
 16 15  2  0  0  0  0
 16  8  1  0  0  0  0
 19  3  1  0  0  0  0
 19 10  1  0  0  0  0
 20 14  1  0  0  0  0
 20 13  2  0  0  0  0
 21 22  1  0  0  0  0
 22  6  1  0  0  0  0
 22 12  1  0  0  0  0
 23 24  1  0  0  0  0
 23 28  1  0  0  0  0
 24 27  1  0  0  0  0
 25 23  1  0  0  0  0
 27 29  1  0  0  0  0
 28  1  1  0  0  0  0
 28 30  1  0  0  0  0
 29 26  1  0  0  0  0
 30 29  1  0  0  0  0
M  END
>  <MODEL>
4

>  <REMARK>
 VINA RESULT:      -4.9     10.279     14.355
  Name = 
  1 active torsions:
  status: ('A' for Active; 'I' for Inactive)
    1  A    between atoms: C_1  and  C_22
                            x       y       z     vdW  Elec       q    Type
                         _______ _______ _______ _____ _____    ______ ____

>  <TORSDO>
F 1

$$$$
=
 OpenBabel10272413483D

 30 35  0  0  1  0  0  0  0  0999 V2000
  187.1980  177.4610  139.0070 C   0  0  2  0  0  3  0  0  0  0  0  0
  187.1840  178.4910  134.3460 S   0  0  0  0  0  1  0  0  0  0  0  0
  187.0140  177.7420  137.4690 C   0  0  1  0  0  0  0  0  0  0  0  0
  186.3550  178.3730  139.9370 C   0  0  0  0  0  2  0  0  0  0  0  0
  183.1940  178.5480  137.9710 C   0  0  0  0  0  2  0  0  0  0  0  0
  185.8690  175.8600  135.3500 C   0  0  1  0  0  3  0  0  0  0  0  0
  184.5760  177.9950  138.2670 C   0  0  2  0  0  3  0  0  0  0  0  0
  184.1600  179.5420  139.9210 O   0  0  0  0  0  0  0  0  0  0  0  0
  187.3660  175.9240  135.5720 C   0  0  2  0  0  0  0  0  0  0  0  0
  188.1520  177.1570  135.1440 C   0  0  1  0  0  0  0  0  0  0  0  0
  185.2280  179.0290  139.1540 C   0  0  1  0  0  3  0  0  0  0  0  0
  185.4880  177.5880  137.1010 C   0  0  2  0  0  3  0  0  0  0  0  0
  187.9570  174.5810  135.3800 C   0  0  0  0  0  3  0  0  0  0  0  0
  185.6500  174.4170  134.8830 C   0  0  0  0  0  2  0  0  0  0  0  0
  181.8150  179.8360  139.5970 C   0  0  0  0  0  2  0  0  0  0  0  0
  182.9850  179.3520  139.2080 C   0  0  0  0  0  0  0  0  0  0  0  0
  187.3710  179.0740  137.2390 O   0  0  0  0  0  1  0  0  0  0  0  0
  189.5620  176.9310  134.6270 C   0  0  0  0  0  1  0  0  0  0  0  0
  187.9780  176.8300  136.6470 C   0  0  1  0  0  3  0  0  0  0  0  0
  186.9940  173.7510  134.9950 C   0  0  0  0  0  3  0  0  0  0  0  0
  185.2930  175.1300  137.7260 C   0  0  0  0  0  1  0  0  0  0  0  0
  185.1020  176.1810  136.6290 C   0  0  2  0  0  3  0  0  0  0  0  0
  188.7770  177.1290  141.1070 C   0  0  1  0  0  3  0  0  0  0  0  0
  190.0590  176.6140  141.4190 O   0  0  0  0  0  0  0  0  0  0  0  0
  188.4840  178.4110  141.8860 C   0  0  0  0  0  1  0  0  0  0  0  0
  191.4990  176.3520  138.7990 C   0  0  0  0  0  1  0  0  0  0  0  0
  191.0570  177.5200  140.9790 C   0  0  0  0  0  2  0  0  0  0  0  0
  188.6100  177.2550  139.5830 C   0  0  2  0  0  3  0  0  0  0  0  0
  191.0760  177.6570  139.4510 C   0  0  2  0  0  3  0  0  0  0  0  0
  189.7050  178.1010  138.9410 C   0  0  0  0  0  2  0  0  0  0  0  0
  1 28  1  0  0  0  0
  1  4  1  1  0  0  0
  2 10  1  0  0  0  0
  3 17  1  6  0  0  0
  3  1  1  0  0  0  0
  5 16  1  0  0  0  0
  6 14  1  1  0  0  0
  6  9  1  0  0  0  0
  6 22  1  0  0  0  0
  7  5  1  6  0  0  0
  7 11  1  0  0  0  0
  9 13  1  6  0  0  0
  9 19  1  0  0  0  0
 10 18  1  6  0  0  0
 10  9  1  0  0  0  0
 10 19  1  0  0  0  0
 11  8  1  0  0  0  0
 11  4  1  1  0  0  0
 12  3  1  0  0  0  0
 12  7  1  0  0  0  0
 14 20  1  0  0  0  0
 16 15  2  0  0  0  0
 16  8  1  0  0  0  0
 19  3  1  0  0  0  0
 20 13  2  0  0  0  0
 22 12  1  0  0  0  0
 22 21  1  0  0  0  0
 23 24  1  0  0  0  0
 23 25  1  0  0  0  0
 26 29  1  0  0  0  0
 27 24  1  0  0  0  0
 28 23  1  0  0  0  0
 29 27  1  0  0  0  0
 30 29  1  0  0  0  0
 30 28  1  0  0  0  0
M  END
>  <MODEL>
5

>  <REMARK>
 VINA RESULT:      -4.3      2.789      5.457
  Name = 
  1 active torsions:
  status: ('A' for Active; 'I' for Inactive)
    1  A    between atoms: C_1  and  C_22
                            x       y       z     vdW  Elec       q    Type
                         _______ _______ _______ _____ _____    ______ ____

>  <TORSDO>
F 1

$$$$
=
 OpenBabel10272413483D

 30 35  0  0  1  0  0  0  0  0999 V2000
  184.1330  174.7440  137.1080 C   0  0  2  0  0  3  0  0  0  0  0  0
  182.2150  178.1330  134.3460 S   0  0  0  0  0  1  0  0  0  0  0  0
  183.5820  175.9870  136.3130 C   0  0  1  0  0  0  0  0  0  0  0  0
  185.6730  174.5680  137.0480 C   0  0  0  0  0  2  0  0  0  0  0  0
  186.7360  178.1330  137.2830 C   0  0  0  0  0  2  0  0  0  0  0  0
  182.1390  178.4340  137.4380 C   0  0  1  0  0  3  0  0  0  0  0  0
  185.7060  177.0190  137.3450 C   0  0  2  0  0  3  0  0  0  0  0  0
  187.7120  175.9830  136.8940 O   0  0  0  0  0  0  0  0  0  0  0  0
  181.3370  177.2610  136.9140 C   0  0  2  0  0  0  0  0  0  0  0  0
  181.2870  176.9740  135.4180 C   0  0  1  0  0  0  0  0  0  0  0  0
  186.3360  175.8630  136.6060 C   0  0  1  0  0  3  0  0  0  0  0  0
  184.2750  177.2930  136.8630 C   0  0  2  0  0  3  0  0  0  0  0  0
  180.1150  177.0880  137.7290 C   0  0  0  0  0  3  0  0  0  0  0  0
  181.2310  179.0140  138.5280 C   0  0  0  0  0  2  0  0  0  0  0  0
  189.1990  177.7790  137.3980 C   0  0  0  0  0  2  0  0  0  0  0  0
  187.9760  177.3100  137.2010 C   0  0  0  0  0  0  0  0  0  0  0  0
  183.9680  175.8350  134.9770 O   0  0  0  0  0  1  0  0  0  0  0  0
  179.9850  176.4220  134.8650 C   0  0  0  0  0  1  0  0  0  0  0  0
  182.0220  176.0020  136.3720 C   0  0  1  0  0  3  0  0  0  0  0  0
  180.0650  178.0690  138.6230 C   0  0  0  0  0  3  0  0  0  0  0  0
  183.3750  177.1110  139.2360 C   0  0  0  0  0  1  0  0  0  0  0  0
  183.4910  177.9850  137.9840 C   0  0  2  0  0  3  0  0  0  0  0  0
  184.2730  172.1330  136.6940 C   0  0  1  0  0  3  0  0  0  0  0  0
  183.5200  170.9600  136.9500 O   0  0  0  0  0  0  0  0  0  0  0  0
  184.9010  172.1010  135.3010 C   0  0  0  0  0  1  0  0  0  0  0  0
  180.7680  171.8970  137.6980 C   0  0  0  0  0  1  0  0  0  0  0  0
  182.4080  170.9060  136.0720 C   0  0  0  0  0  2  0  0  0  0  0  0
  183.4250  173.3830  136.9840 C   0  0  2  0  0  3  0  0  0  0  0  0
  181.4150  172.0450  136.3310 C   0  0  2  0  0  3  0  0  0  0  0  0
  182.1150  173.3980  136.2040 C   0  0  0  0  0  2  0  0  0  0  0  0
  1  4  1  6  0  0  0
  2 10  1  0  0  0  0
  3 17  1  6  0  0  0
  3 19  1  0  0  0  0
  3 12  1  0  0  0  0
  3  1  1  0  0  0  0
  6 22  1  0  0  0  0
  6 14  1  1  0  0  0
  7  5  1  6  0  0  0
  8 16  1  0  0  0  0
  9  6  1  0  0  0  0
  9 13  1  1  0  0  0
 10 18  1  6  0  0  0
 10 19  1  0  0  0  0
 10  9  1  0  0  0  0
 11  8  1  0  0  0  0
 11  4  1  1  0  0  0
 11  7  1  0  0  0  0
 12  7  1  0  0  0  0
 12 22  1  0  0  0  0
 13 20  2  0  0  0  0
 14 20  1  0  0  0  0
 16  5  1  0  0  0  0
 16 15  2  0  0  0  0
 19  9  1  0  0  0  0
 22 21  1  0  0  0  0
 23 24  1  0  0  0  0
 23 28  1  0  0  0  0
 25 23  1  0  0  0  0
 27 29  1  0  0  0  0
 27 24  1  0  0  0  0
 28  1  1  0  0  0  0
 29 26  1  0  0  0  0
 30 29  1  0  0  0  0
 30 28  1  0  0  0  0
M  END
>  <MODEL>
6

>  <REMARK>
 VINA RESULT:      -4.1      3.003      5.578
  Name = 
  1 active torsions:
  status: ('A' for Active; 'I' for Inactive)
    1  A    between atoms: C_1  and  C_22
                            x       y       z     vdW  Elec       q    Type
                         _______ _______ _______ _____ _____    ______ ____

>  <TORSDO>
F 1

$$$$
=
 OpenBabel10272413483D

 30 35  0  0  1  0  0  0  0  0999 V2000
  185.0090  178.1600  139.6800 C   0  0  2  0  0  3  0  0  0  0  0  0
  186.5220  177.7760  135.1700 S   0  0  0  0  0  1  0  0  0  0  0  0
  185.3290  177.9920  138.1490 C   0  0  1  0  0  0  0  0  0  0  0  0
  184.1050  179.3730  140.0250 C   0  0  0  0  0  2  0  0  0  0  0  0
  181.7280  179.2340  137.1570 C   0  0  0  0  0  2  0  0  0  0  0  0
  184.5380  175.6770  136.3170 C   0  0  1  0  0  3  0  0  0  0  0  0
  182.8480  178.6760  138.0170 C   0  0  2  0  0  3  0  0  0  0  0  0
  182.2470  180.6690  139.0000 O   0  0  0  0  0  0  0  0  0  0  0  0
  185.8940  175.6750  136.9910 C   0  0  2  0  0  0  0  0  0  0  0  0
  186.9710  176.6570  136.5480 C   0  0  1  0  0  0  0  0  0  0  0  0
  183.3840  179.8640  138.7790 C   0  0  1  0  0  3  0  0  0  0  0  0
  183.9720  177.8690  137.3540 C   0  0  2  0  0  3  0  0  0  0  0  0
  186.2720  174.2900  137.3460 C   0  0  0  0  0  3  0  0  0  0  0  0
  184.2160  174.1860  136.1820 C   0  0  0  0  0  2  0  0  0  0  0  0
  180.1830  181.0550  137.8660 C   0  0  0  0  0  2  0  0  0  0  0  0
  181.3140  180.3800  138.0150 C   0  0  0  0  0  0  0  0  0  0  0  0
  185.9630  179.1630  137.7210 O   0  0  0  0  0  1  0  0  0  0  0  0
  188.4090  176.1690  136.5940 C   0  0  0  0  0  1  0  0  0  0  0  0
  186.3160  176.8000  137.9430 C   0  0  1  0  0  3  0  0  0  0  0  0
  185.3330  173.4690  136.8900 C   0  0  0  0  0  3  0  0  0  0  0  0
  183.1820  175.7280  138.4780 C   0  0  0  0  0  1  0  0  0  0  0  0
  183.5020  176.4240  137.1520 C   0  0  2  0  0  3  0  0  0  0  0  0
  185.7750  178.0380  142.2130 C   0  0  1  0  0  3  0  0  0  0  0  0
  186.8580  177.5570  142.9880 O   0  0  0  0  0  0  0  0  0  0  0  0
  185.2810  179.3920  142.7220 C   0  0  0  0  0  1  0  0  0  0  0  0
  189.0880  177.0330  141.0480 C   0  0  0  0  0  1  0  0  0  0  0  0
  187.9770  178.4130  142.8290 C   0  0  0  0  0  2  0  0  0  0  0  0
  186.1370  178.0120  140.7180 C   0  0  2  0  0  3  0  0  0  0  0  0
  188.5140  178.3960  141.3930 C   0  0  2  0  0  3  0  0  0  0  0  0
  187.4120  178.7890  140.4090 C   0  0  0  0  0  2  0  0  0  0  0  0
  1  4  1  6  0  0  0
  1 28  1  0  0  0  0
  2 10  1  0  0  0  0
  3 17  1  6  0  0  0
  3  1  1  0  0  0  0
  5 16  1  0  0  0  0
  6 14  1  1  0  0  0
  6  9  1  0  0  0  0
  6 22  1  0  0  0  0
  7  5  1  6  0  0  0
  7 11  1  0  0  0  0
  9 13  1  1  0  0  0
  9 19  1  0  0  0  0
 10 18  1  6  0  0  0
 10  9  1  0  0  0  0
 10 19  1  0  0  0  0
 11  8  1  0  0  0  0
 11  4  1  1  0  0  0
 12  7  1  0  0  0  0
 12  3  1  0  0  0  0
 14 20  1  0  0  0  0
 15 16  2  0  0  0  0
 16  8  1  0  0  0  0
 19  3  1  0  0  0  0
 20 13  2  0  0  0  0
 22 12  1  0  0  0  0
 22 21  1  0  0  0  0
 23 25  1  0  0  0  0
 23 24  1  0  0  0  0
 26 29  1  0  0  0  0
 27 24  1  0  0  0  0
 28 23  1  0  0  0  0
 29 27  1  0  0  0  0
 30 28  1  0  0  0  0
 30 29  1  0  0  0  0
M  END
>  <MODEL>
7

>  <REMARK>
 VINA RESULT:      -3.9      2.231      5.191
  Name = 
  1 active torsions:
  status: ('A' for Active; 'I' for Inactive)
    1  A    between atoms: C_1  and  C_22
                            x       y       z     vdW  Elec       q    Type
                         _______ _______ _______ _____ _____    ______ ____

>  <TORSDO>
F 1

$$$$
=
 OpenBabel10272413483D

 30 35  0  0  1  0  0  0  0  0999 V2000
  189.6710  173.9100  136.7200 C   0  0  2  0  0  3  0  0  0  0  0  0
  189.3570  178.0390  134.3460 S   0  0  0  0  0  1  0  0  0  0  0  0
  189.6980  175.3380  136.0580 C   0  0  1  0  0  0  0  0  0  0  0  0
  190.9830  173.0970  136.5580 C   0  0  0  0  0  2  0  0  0  0  0  0
  193.4870  175.8210  137.0080 C   0  0  0  0  0  2  0  0  0  0  0  0
  189.4750  178.0480  137.4520 C   0  0  1  0  0  3  0  0  0  0  0  0
  192.0780  175.2560  137.0430 C   0  0  2  0  0  3  0  0  0  0  0  0
  193.4300  173.5080  136.3970 O   0  0  0  0  0  0  0  0  0  0  0  0
  188.2360  177.3890  136.8850 C   0  0  2  0  0  0  0  0  0  0  0  0
  188.0390  177.2950  135.3770 C   0  0  1  0  0  0  0  0  0  0  0  0
  192.1330  174.0180  136.1800 C   0  0  1  0  0  3  0  0  0  0  0  0
  190.8970  176.1620  136.6670 C   0  0  2  0  0  3  0  0  0  0  0  0
  187.0740  177.6800  137.7530 C   0  0  0  0  0  3  0  0  0  0  0  0
  188.9290  178.8550  138.6340 C   0  0  0  0  0  2  0  0  0  0  0  0
  195.5560  174.4360  136.9520 C   0  0  0  0  0  2  0  0  0  0  0  0
  194.2470  174.5580  136.7900 C   0  0  0  0  0  0  0  0  0  0  0  0
  189.9550  175.1640  134.6950 O   0  0  0  0  0  1  0  0  0  0  0  0
  186.6160  177.4100  134.8590 C   0  0  0  0  0  1  0  0  0  0  0  0
  188.2990  176.0150  136.2080 C   0  0  1  0  0  3  0  0  0  0  0  0
  187.4700  178.4970  138.7230 C   0  0  0  0  0  3  0  0  0  0  0  0
  190.0510  176.1590  139.0660 C   0  0  0  0  0  1  0  0  0  0  0  0
  190.5110  177.0130  137.8810 C   0  0  2  0  0  3  0  0  0  0  0  0
  188.6260  171.6450  135.8330 C   0  0  1  0  0  3  0  0  0  0  0  0
  187.4930  170.8240  136.0520 O   0  0  0  0  0  0  0  0  0  0  0  0
  188.9710  171.7380  134.3470 C   0  0  0  0  0  1  0  0  0  0  0  0
  185.5410  172.5100  137.5880 C   0  0  0  0  0  1  0  0  0  0  0  0
  186.3480  171.4260  135.4700 C   0  0  0  0  0  2  0  0  0  0  0  0
  188.4430  173.0030  136.5330 C   0  0  2  0  0  3  0  0  0  0  0  0
  185.9830  172.7490  136.1540 C   0  0  2  0  0  3  0  0  0  0  0  0
  187.1660  173.7160  136.1030 C   0  0  0  0  0  2  0  0  0  0  0  0
  1  4  1  6  0  0  0
  2 10  1  0  0  0  0
  3 17  1  6  0  0  0
  3 19  1  0  0  0  0
  3 12  1  0  0  0  0
  3  1  1  0  0  0  0
  6 22  1  0  0  0  0
  6 14  1  1  0  0  0
  7  5  1  6  0  0  0
  8 16  1  0  0  0  0
  9  6  1  0  0  0  0
  9 13  1  1  0  0  0
 10 18  1  6  0  0  0
 10 19  1  0  0  0  0
 10  9  1  0  0  0  0
 11  8  1  0  0  0  0
 11  4  1  1  0  0  0
 11  7  1  0  0  0  0
 12  7  1  0  0  0  0
 12 22  1  0  0  0  0
 13 20  2  0  0  0  0
 14 20  1  0  0  0  0
 16 15  2  0  0  0  0
 16  5  1  0  0  0  0
 19  9  1  0  0  0  0
 22 21  1  0  0  0  0
 23 24  1  0  0  0  0
 23 28  1  0  0  0  0
 25 23  1  0  0  0  0
 27 24  1  0  0  0  0
 27 29  1  0  0  0  0
 28  1  1  0  0  0  0
 29 26  1  0  0  0  0
 30 29  1  0  0  0  0
 30 28  1  0  0  0  0
M  END
>  <MODEL>
8

>  <REMARK>
 VINA RESULT:      -3.9      5.333      8.443
  Name = 
  1 active torsions:
  status: ('A' for Active; 'I' for Inactive)
    1  A    between atoms: C_1  and  C_22
                            x       y       z     vdW  Elec       q    Type
                         _______ _______ _______ _____ _____    ______ ____

>  <TORSDO>
F 1

$$$$
=
 OpenBabel10272413483D

 30 35  0  0  1  0  0  0  0  0999 V2000
  188.2980  176.9480  138.9860 C   0  0  2  0  0  3  0  0  0  0  0  0
  189.2520  177.5400  134.3470 S   0  0  0  0  0  1  0  0  0  0  0  0
  188.4400  177.0740  137.4240 C   0  0  1  0  0  0  0  0  0  0  0  0
  187.2430  177.8930  139.6200 C   0  0  0  0  0  2  0  0  0  0  0  0
  184.5750  177.7050  137.0230 C   0  0  0  0  0  2  0  0  0  0  0  0
  187.8470  174.9420  135.3160 C   0  0  1  0  0  3  0  0  0  0  0  0
  185.8800  177.2610  137.6590 C   0  0  2  0  0  3  0  0  0  0  0  0
  185.0620  178.9280  139.0210 O   0  0  0  0  0  0  0  0  0  0  0  0
  189.2580  175.1120  135.8410 C   0  0  2  0  0  0  0  0  0  0  0  0
  190.0730  176.3430  135.4640 C   0  0  1  0  0  0  0  0  0  0  0  0
  186.2870  178.4080  138.5530 C   0  0  1  0  0  3  0  0  0  0  0  0
  187.0350  176.8010  136.7600 C   0  0  2  0  0  3  0  0  0  0  0  0
  189.9240  173.7930  135.9160 C   0  0  0  0  0  3  0  0  0  0  0  0
  187.7850  173.4530  134.9640 C   0  0  0  0  0  2  0  0  0  0  0  0
  182.8330  179.0570  138.1810 C   0  0  0  0  0  2  0  0  0  0  0  0
  184.0760  178.6070  138.0990 C   0  0  0  0  0  0  0  0  0  0  0  0
  188.7900  178.3980  137.1390 O   0  0  0  0  0  1  0  0  0  0  0  0
  191.5680  176.1500  135.2820 C   0  0  0  0  0  1  0  0  0  0  0  0
  189.5900  176.1470  136.9210 C   0  0  1  0  0  3  0  0  0  0  0  0
  189.0960  172.8770  135.4240 C   0  0  0  0  0  3  0  0  0  0  0  0
  186.7990  174.4040  137.5790 C   0  0  0  0  0  1  0  0  0  0  0  0
  186.8110  175.3370  136.3640 C   0  0  2  0  0  3  0  0  0  0  0  0
  189.4040  176.5300  141.3560 C   0  0  1  0  0  3  0  0  0  0  0  0
  190.6600  176.1810  141.9110 O   0  0  0  0  0  0  0  0  0  0  0  0
  188.7030  177.6030  142.1880 C   0  0  0  0  0  1  0  0  0  0  0  0
  192.6690  176.5860  139.7180 C   0  0  0  0  0  1  0  0  0  0  0  0
  191.5360  177.2940  141.8460 C   0  0  0  0  0  2  0  0  0  0  0  0
  189.5600  176.8770  139.8650 C   0  0  2  0  0  3  0  0  0  0  0  0
  191.8670  177.6810  140.4000 C   0  0  2  0  0  3  0  0  0  0  0  0
  190.5840  177.9810  139.6240 C   0  0  0  0  0  2  0  0  0  0  0  0
  1  4  1  1  0  0  0
  1 28  1  0  0  0  0
  2 10  1  0  0  0  0
  3 17  1  6  0  0  0
  3  1  1  0  0  0  0
  5 16  1  0  0  0  0
  6 14  1  1  0  0  0
  6  9  1  0  0  0  0
  6 22  1  0  0  0  0
  7  5  1  6  0  0  0
  7 11  1  0  0  0  0
  9 13  1  1  0  0  0
  9 19  1  0  0  0  0
 10 18  1  6  0  0  0
 10  9  1  0  0  0  0
 10 19  1  0  0  0  0
 11  8  1  0  0  0  0
 11  4  1  1  0  0  0
 12  3  1  0  0  0  0
 12  7  1  0  0  0  0
 14 20  1  0  0  0  0
 16 15  2  0  0  0  0
 16  8  1  0  0  0  0
 19  3  1  0  0  0  0
 20 13  2  0  0  0  0
 22 12  1  0  0  0  0
 22 21  1  0  0  0  0
 23 24  1  0  0  0  0
 23 25  1  0  0  0  0
 26 29  1  0  0  0  0
 27 24  1  0  0  0  0
 28 23  1  0  0  0  0
 29 27  1  0  0  0  0
 30 28  1  0  0  0  0
 30 29  1  0  0  0  0
M  END
>  <MODEL>
9

>  <REMARK>
 VINA RESULT:      -3.8      3.549      6.793
  Name = 
  1 active torsions:
  status: ('A' for Active; 'I' for Inactive)
    1  A    between atoms: C_1  and  C_22
                            x       y       z     vdW  Elec       q    Type
                         _______ _______ _______ _____ _____    ______ ____

>  <TORSDO>
F 1

$$$$
