=
 OpenBabel10272400523D

 25 27  0  0  1  0  0  0  0  0999 V2000
  184.2900  178.6500  142.4230 C   0  0  0  0  0  0  0  0  0  0  0  0
  185.2250  178.3760  143.4080 C   0  0  0  0  0  0  0  0  0  0  0  0
  182.8650  179.0940  143.2020 S   0  0  0  0  0  0  0  0  0  0  0  0
  183.4110  178.9750  144.7970 C   0  0  0  0  0  3  0  0  0  0  0  0
  185.5730  178.3310  145.8160 C   0  0  0  0  0  0  0  0  0  0  0  0
  185.1110  178.5150  147.1130 O   0  0  0  0  0  1  0  0  0  0  0  0
  186.5360  177.9490  143.1860 C   0  0  0  0  0  3  0  0  0  0  0  0
  186.8900  177.9040  145.5950 C   0  0  0  0  0  3  0  0  0  0  0  0
  187.3680  177.7070  144.2880 C   0  0  0  0  0  0  0  0  0  0  0  0
  184.7410  178.5640  144.7150 C   0  0  0  0  0  0  0  0  0  0  0  0
  184.4770  178.4760  140.9470 C   0  0  2  0  0  3  0  0  0  0  0  0
  185.0610  179.6120  140.3850 O   0  0  0  0  0  1  0  0  0  0  0  0
  183.1780  178.1650  140.2700 C   0  0  0  0  0  0  0  0  0  0  0  0
  181.0420  177.4730  138.5020 C   0  0  0  0  0  2  0  0  0  0  0  0
  182.7990  176.8780  140.1840 C   0  0  0  0  0  3  0  0  0  0  0  0
  181.5080  176.4550  139.5350 C   0  0  0  0  0  2  0  0  0  0  0  0
  181.0020  178.8480  139.1530 C   0  0  0  0  0  2  0  0  0  0  0  0
  182.4100  179.2670  139.5700 C   0  0  0  0  0  2  0  0  0  0  0  0
  188.7750  177.2760  144.0720 C   0  0  0  0  0  2  0  0  0  0  0  0
  189.3860  176.9390  145.3480 N   0  0  0  0  0  2  0  0  0  0  0  0
  190.8020  176.9650  145.5380 C   0  0  0  0  0  0  0  0  0  0  0  0
  191.5660  177.2870  144.5880 O   0  0  0  0  0  0  0  0  0  0  0  0
  191.3650  176.6170  146.8470 C   0  0  0  0  0  0  0  0  0  0  0  0
  192.3810  175.6750  146.9400 O   0  0  0  0  0  0  0  0  0  0  0  0
  190.9300  177.1690  147.8920 O   0  0  0  0  0  1  0  0  0  0  0  0
  1  3  1  0  0  0  0
  1  2  2  0  0  0  0
  2 10  1  0  0  0  0
  3  4  1  0  0  0  0
  5  6  1  0  0  0  0
  7  2  1  0  0  0  0
  7  9  2  0  0  0  0
  8  5  2  0  0  0  0
  9  8  1  0  0  0  0
 10  4  2  0  0  0  0
 10  5  1  0  0  0  0
 11 12  1  6  0  0  0
 11  1  1  0  0  0  0
 13 11  1  0  0  0  0
 14 17  1  0  0  0  0
 14 16  1  0  0  0  0
 15 13  2  0  0  0  0
 16 15  1  0  0  0  0
 17 18  1  0  0  0  0
 18 13  1  0  0  0  0
 19  9  1  0  0  0  0
 19 20  1  0  0  0  0
 20 21  1  0  0  0  0
 21 23  1  0  0  0  0
 22 21  2  0  0  0  0
 23 24  2  0  0  0  0
 23 25  1  0  0  0  0
M  END
>  <MODEL>
1

>  <REMARK>
 VINA RESULT:      -8.3      0.000      0.000
  Name = 
  5 active torsions:
  status: ('A' for Active; 'I' for Inactive)
    1  A    between atoms: C_1  and  C_18
    2  A    between atoms: C_2  and  C_21
    3  A    between atoms: C_5  and  C_18
    4  A    between atoms: C_6  and  N_15
    5  A    between atoms: C_6  and  C_23
                            x       y       z     vdW  Elec       q    Type
                         _______ _______ _______ _____ _____    ______ ____

>  <TORSDO>
F 5

$$$$
=
 OpenBabel10272400523D

 25 27  0  0  1  0  0  0  0  0999 V2000
  184.3670  178.6340  142.4490 C   0  0  0  0  0  0  0  0  0  0  0  0
  185.2400  178.3400  143.4840 C   0  0  0  0  0  0  0  0  0  0  0  0
  182.9160  179.1240  143.1500 S   0  0  0  0  0  0  0  0  0  0  0  0
  183.3730  179.0010  144.7720 C   0  0  0  0  0  3  0  0  0  0  0  0
  185.4590  178.3020  145.9070 C   0  0  0  0  0  0  0  0  0  0  0  0
  184.9350  178.5090  147.1770 O   0  0  0  0  0  1  0  0  0  0  0  0
  186.5480  177.8750  143.3340 C   0  0  0  0  0  3  0  0  0  0  0  0
  186.7730  177.8370  145.7580 C   0  0  0  0  0  3  0  0  0  0  0  0
  187.3140  177.6170  144.4800 C   0  0  0  0  0  0  0  0  0  0  0  0
  184.6930  178.5510  144.7630 C   0  0  0  0  0  0  0  0  0  0  0  0
  184.6260  178.4440  140.9870 C   0  0  2  0  0  3  0  0  0  0  0  0
  185.3030  179.5430  140.4570 O   0  0  0  0  0  1  0  0  0  0  0  0
  183.3510  178.2040  140.2380 C   0  0  0  0  0  0  0  0  0  0  0  0
  181.2820  177.6010  138.3610 C   0  0  0  0  0  2  0  0  0  0  0  0
  182.8760  176.9480  140.1780 C   0  0  0  0  0  3  0  0  0  0  0  0
  181.5990  176.5970  139.4620 C   0  0  0  0  0  2  0  0  0  0  0  0
  181.3110  179.0020  138.9530 C   0  0  0  0  0  2  0  0  0  0  0  0
  182.7200  179.3300  139.4450 C   0  0  0  0  0  2  0  0  0  0  0  0
  188.7160  177.1440  144.3410 C   0  0  0  0  0  2  0  0  0  0  0  0
  189.2210  177.4850  143.0200 N   0  0  0  0  0  2  0  0  0  0  0  0
  189.9990  176.5700  142.2480 C   0  0  0  0  0  0  0  0  0  0  0  0
  190.2700  175.4250  142.7010 O   0  0  0  0  0  0  0  0  0  0  0  0
  190.4810  176.9670  140.9210 C   0  0  0  0  0  0  0  0  0  0  0  0
  191.7470  177.5190  140.7760 O   0  0  0  0  0  1  0  0  0  0  0  0
  189.7510  176.8090  139.9070 O   0  0  0  0  0  0  0  0  0  0  0  0
  1  3  1  0  0  0  0
  1  2  2  0  0  0  0
  2 10  1  0  0  0  0
  3  4  1  0  0  0  0
  5  6  1  0  0  0  0
  7  2  1  0  0  0  0
  7  9  2  0  0  0  0
  8  5  2  0  0  0  0
  9  8  1  0  0  0  0
 10  4  2  0  0  0  0
 10  5  1  0  0  0  0
 11 12  1  6  0  0  0
 11  1  1  0  0  0  0
 13 11  1  0  0  0  0
 14 17  1  0  0  0  0
 14 16  1  0  0  0  0
 15 13  2  0  0  0  0
 16 15  1  0  0  0  0
 17 18  1  0  0  0  0
 18 13  1  0  0  0  0
 19  9  1  0  0  0  0
 20 19  1  0  0  0  0
 21 22  2  0  0  0  0
 21 20  1  0  0  0  0
 23 21  1  0  0  0  0
 24 23  1  0  0  0  0
 25 23  2  0  0  0  0
M  END
>  <MODEL>
2

>  <REMARK>
 VINA RESULT:      -8.3      1.872      2.608
  Name = 
  5 active torsions:
  status: ('A' for Active; 'I' for Inactive)
    1  A    between atoms: C_1  and  C_18
    2  A    between atoms: C_2  and  C_21
    3  A    between atoms: C_5  and  C_18
    4  A    between atoms: C_6  and  N_15
    5  A    between atoms: C_6  and  C_23
                            x       y       z     vdW  Elec       q    Type
                         _______ _______ _______ _____ _____    ______ ____

>  <TORSDO>
F 5

$$$$
=
 OpenBabel10272400523D

 25 27  0  0  1  0  0  0  0  0999 V2000
  189.2960  177.2750  147.0790 C   0  0  0  0  0  0  0  0  0  0  0  0
  188.2270  177.5700  146.2480 C   0  0  0  0  0  0  0  0  0  0  0  0
  188.8820  177.8010  148.6240 S   0  0  0  0  0  0  0  0  0  0  0  0
  187.3350  178.3850  148.2780 C   0  0  0  0  0  3  0  0  0  0  0  0
  185.9900  178.5260  146.2040 C   0  0  0  0  0  0  0  0  0  0  0  0
  184.9110  179.1210  146.8460 O   0  0  0  0  0  1  0  0  0  0  0  0
  188.1730  177.3170  144.8760 C   0  0  0  0  0  3  0  0  0  0  0  0
  185.9330  178.2710  144.8270 C   0  0  0  0  0  3  0  0  0  0  0  0
  187.0200  177.6780  144.1640 C   0  0  0  0  0  0  0  0  0  0  0  0
  187.1440  178.1750  146.9130 C   0  0  0  0  0  0  0  0  0  0  0  0
  190.6140  176.7000  146.6610 C   0  0  2  0  0  3  0  0  0  0  0  0
  191.6020  176.9910  147.6030 O   0  0  0  0  0  1  0  0  0  0  0  0
  191.0170  177.1990  145.3080 C   0  0  0  0  0  0  0  0  0  0  0  0
  191.1990  178.2130  142.6420 C   0  0  0  0  0  2  0  0  0  0  0  0
  191.1200  178.5270  145.1250 C   0  0  0  0  0  3  0  0  0  0  0  0
  191.5270  179.1360  143.8100 C   0  0  0  0  0  2  0  0  0  0  0  0
  191.7970  176.8420  142.9170 C   0  0  0  0  0  2  0  0  0  0  0  0
  191.1420  176.2270  144.1520 C   0  0  0  0  0  2  0  0  0  0  0  0
  186.9320  177.3940  142.7070 C   0  0  0  0  0  2  0  0  0  0  0  0
  185.7280  177.9980  142.1600 N   0  0  0  0  0  2  0  0  0  0  0  0
  185.7160  178.6410  140.8850 C   0  0  0  0  0  0  0  0  0  0  0  0
  186.7670  178.7010  140.1920 O   0  0  0  0  0  0  0  0  0  0  0  0
  184.4710  179.2330  140.3820 C   0  0  0  0  0  0  0  0  0  0  0  0
  184.4970  180.0780  139.2810 O   0  0  0  0  0  0  0  0  0  0  0  0
  183.3740  178.9770  140.9450 O   0  0  0  0  0  1  0  0  0  0  0  0
  1  3  1  0  0  0  0
  2 10  1  0  0  0  0
  2  1  2  0  0  0  0
  4  3  1  0  0  0  0
  5  6  1  0  0  0  0
  5 10  1  0  0  0  0
  7  2  1  0  0  0  0
  8  5  2  0  0  0  0
  9  8  1  0  0  0  0
  9  7  2  0  0  0  0
 10  4  2  0  0  0  0
 11  1  1  0  0  0  0
 11 12  1  1  0  0  0
 13 11  1  0  0  0  0
 14 17  1  0  0  0  0
 14 16  1  0  0  0  0
 15 13  2  0  0  0  0
 16 15  1  0  0  0  0
 17 18  1  0  0  0  0
 18 13  1  0  0  0  0
 19  9  1  0  0  0  0
 20 19  1  0  0  0  0
 21 20  1  0  0  0  0
 22 21  2  0  0  0  0
 23 21  1  0  0  0  0
 23 25  1  0  0  0  0
 24 23  2  0  0  0  0
M  END
>  <MODEL>
3

>  <REMARK>
 VINA RESULT:      -8.2      2.777      7.740
  Name = 
  5 active torsions:
  status: ('A' for Active; 'I' for Inactive)
    1  A    between atoms: C_1  and  C_18
    2  A    between atoms: C_2  and  C_21
    3  A    between atoms: C_5  and  C_18
    4  A    between atoms: C_6  and  N_15
    5  A    between atoms: C_6  and  C_23
                            x       y       z     vdW  Elec       q    Type
                         _______ _______ _______ _____ _____    ______ ____

>  <TORSDO>
F 5

$$$$
=
 OpenBabel10272400523D

 25 27  0  0  1  0  0  0  0  0999 V2000
  186.9490  177.5700  144.2290 C   0  0  0  0  0  0  0  0  0  0  0  0
  185.6890  178.0130  143.8610 C   0  0  0  0  0  0  0  0  0  0  0  0
  187.0590  177.7250  145.9030 S   0  0  0  0  0  0  0  0  0  0  0  0
  185.5090  178.3300  146.1950 C   0  0  0  0  0  3  0  0  0  0  0  0
  183.5940  178.8930  144.7300 C   0  0  0  0  0  0  0  0  0  0  0  0
  182.7950  179.3000  145.7920 O   0  0  0  0  0  1  0  0  0  0  0  0
  185.2000  178.0730  142.5540 C   0  0  0  0  0  3  0  0  0  0  0  0
  183.1000  178.9510  143.4190 C   0  0  0  0  0  3  0  0  0  0  0  0
  183.9000  178.5510  142.3360 C   0  0  0  0  0  0  0  0  0  0  0  0
  184.8940  178.4240  144.9470 C   0  0  0  0  0  0  0  0  0  0  0  0
  188.0450  177.1390  143.3040 C   0  0  2  0  0  3  0  0  0  0  0  0
  188.0350  175.7540  143.1360 O   0  0  0  0  0  1  0  0  0  0  0  0
  189.3820  177.5960  143.8010 C   0  0  0  0  0  0  0  0  0  0  0  0
  192.1230  178.2950  144.2100 C   0  0  0  0  0  2  0  0  0  0  0  0
  189.7910  178.8350  143.4740 C   0  0  0  0  0  3  0  0  0  0  0  0
  191.1110  179.3990  143.9280 C   0  0  0  0  0  2  0  0  0  0  0  0
  191.4990  177.2930  145.1700 C   0  0  0  0  0  2  0  0  0  0  0  0
  190.2970  176.6200  144.5110 C   0  0  0  0  0  2  0  0  0  0  0  0
  183.3530  178.5980  140.9540 C   0  0  0  0  0  2  0  0  0  0  0  0
  184.3370  178.0800  140.0180 N   0  0  0  0  0  2  0  0  0  0  0  0
  184.9210  178.8990  139.0030 C   0  0  0  0  0  0  0  0  0  0  0  0
  184.5900  180.1110  138.8960 O   0  0  0  0  0  0  0  0  0  0  0  0
  185.9100  178.3240  138.0860 C   0  0  0  0  0  0  0  0  0  0  0  0
  185.4940  177.6270  136.9600 O   0  0  0  0  0  0  0  0  0  0  0  0
  187.1420  178.4590  138.3150 O   0  0  0  0  0  1  0  0  0  0  0  0
  1  3  1  0  0  0  0
  2  1  2  0  0  0  0
  2 10  1  0  0  0  0
  3  4  1  0  0  0  0
  5 10  1  0  0  0  0
  5  6  1  0  0  0  0
  7  2  1  0  0  0  0
  8  5  2  0  0  0  0
  9  7  2  0  0  0  0
  9  8  1  0  0  0  0
 10  4  2  0  0  0  0
 11 12  1  1  0  0  0
 11 13  1  0  0  0  0
 11  1  1  0  0  0  0
 13 18  1  0  0  0  0
 14 17  1  0  0  0  0
 15 13  2  0  0  0  0
 15 16  1  0  0  0  0
 16 14  1  0  0  0  0
 18 17  1  0  0  0  0
 19  9  1  0  0  0  0
 20 19  1  0  0  0  0
 21 20  1  0  0  0  0
 22 21  2  0  0  0  0
 23 25  1  0  0  0  0
 23 21  1  0  0  0  0
 24 23  2  0  0  0  0
M  END
>  <MODEL>
4

>  <REMARK>
 VINA RESULT:      -7.9      3.001      7.528
  Name = 
  5 active torsions:
  status: ('A' for Active; 'I' for Inactive)
    1  A    between atoms: C_1  and  C_18
    2  A    between atoms: C_2  and  C_21
    3  A    between atoms: C_5  and  C_18
    4  A    between atoms: C_6  and  N_15
    5  A    between atoms: C_6  and  C_23
                            x       y       z     vdW  Elec       q    Type
                         _______ _______ _______ _____ _____    ______ ____

>  <TORSDO>
F 5

$$$$
=
 OpenBabel10272400523D

 25 27  0  0  1  0  0  0  0  0999 V2000
  185.5420  178.4780  144.0180 C   0  0  0  0  0  0  0  0  0  0  0  0
  186.7190  177.9900  144.5600 C   0  0  0  0  0  0  0  0  0  0  0  0
  184.5380  178.8910  145.3050 S   0  0  0  0  0  0  0  0  0  0  0  0
  185.5820  178.4860  146.5700 C   0  0  0  0  0  3  0  0  0  0  0  0
  187.8690  177.5420  146.6580 C   0  0  0  0  0  0  0  0  0  0  0  0
  187.9090  177.5510  148.0460 O   0  0  0  0  0  1  0  0  0  0  0  0
  187.8120  177.5140  143.8320 C   0  0  0  0  0  3  0  0  0  0  0  0
  188.9680  177.0670  145.9280 C   0  0  0  0  0  3  0  0  0  0  0  0
  188.9380  177.0450  144.5230 C   0  0  0  0  0  0  0  0  0  0  0  0
  186.7420  178.0020  145.9670 C   0  0  0  0  0  0  0  0  0  0  0  0
  185.1850  178.5260  142.5640 C   0  0  2  0  0  3  0  0  0  0  0  0
  185.7730  179.6310  141.9470 O   0  0  0  0  0  1  0  0  0  0  0  0
  183.7000  178.5470  142.3720 C   0  0  0  0  0  0  0  0  0  0  0  0
  180.9680  179.1180  141.7560 C   0  0  0  0  0  2  0  0  0  0  0  0
  183.2080  178.1540  141.1850 C   0  0  0  0  0  3  0  0  0  0  0  0
  181.7320  178.1260  140.8870 C   0  0  0  0  0  2  0  0  0  0  0  0
  181.3260  178.8680  143.2140 C   0  0  0  0  0  2  0  0  0  0  0  0
  182.8100  179.1480  143.4410 C   0  0  0  0  0  2  0  0  0  0  0  0
  190.1210  176.5590  143.7650 C   0  0  0  0  0  2  0  0  0  0  0  0
  189.8080  176.5070  142.3460 N   0  0  0  0  0  2  0  0  0  0  0  0
  190.6830  177.0520  141.3580 C   0  0  0  0  0  0  0  0  0  0  0  0
  191.7660  177.6000  141.7000 O   0  0  0  0  0  0  0  0  0  0  0  0
  190.3170  176.9710  139.9400 C   0  0  0  0  0  0  0  0  0  0  0  0
  189.7420  178.0640  139.3050 O   0  0  0  0  0  1  0  0  0  0  0  0
  190.5220  175.9110  139.2910 O   0  0  0  0  0  0  0  0  0  0  0  0
  1  2  2  0  0  0  0
  1  3  1  0  0  0  0
  2 10  1  0  0  0  0
  3  4  1  0  0  0  0
  5  6  1  0  0  0  0
  7  9  2  0  0  0  0
  7  2  1  0  0  0  0
  8  5  2  0  0  0  0
  9  8  1  0  0  0  0
 10  4  2  0  0  0  0
 10  5  1  0  0  0  0
 11 12  1  1  0  0  0
 11  1  1  0  0  0  0
 13 11  1  0  0  0  0
 13 18  1  0  0  0  0
 14 17  1  0  0  0  0
 15 13  2  0  0  0  0
 16 15  1  0  0  0  0
 16 14  1  0  0  0  0
 17 18  1  0  0  0  0
 19  9  1  0  0  0  0
 20 19  1  0  0  0  0
 21 22  2  0  0  0  0
 21 20  1  0  0  0  0
 23 21  1  0  0  0  0
 24 23  1  0  0  0  0
 25 23  2  0  0  0  0
M  END
>  <MODEL>
5

>  <REMARK>
 VINA RESULT:      -7.8      2.494      3.755
  Name = 
  5 active torsions:
  status: ('A' for Active; 'I' for Inactive)
    1  A    between atoms: C_1  and  C_18
    2  A    between atoms: C_2  and  C_21
    3  A    between atoms: C_5  and  C_18
    4  A    between atoms: C_6  and  N_15
    5  A    between atoms: C_6  and  C_23
                            x       y       z     vdW  Elec       q    Type
                         _______ _______ _______ _____ _____    ______ ____

>  <TORSDO>
F 5

$$$$
=
 OpenBabel10272400523D

 25 27  0  0  1  0  0  0  0  0999 V2000
  189.8010  177.6740  143.0210 C   0  0  0  0  0  0  0  0  0  0  0  0
  189.6230  177.5140  144.3860 C   0  0  0  0  0  0  0  0  0  0  0  0
  191.4490  177.5160  142.7140 S   0  0  0  0  0  0  0  0  0  0  0  0
  191.9650  177.2170  144.2940 C   0  0  0  0  0  3  0  0  0  0  0  0
  190.7950  177.0650  146.4710 C   0  0  0  0  0  0  0  0  0  0  0  0
  191.9640  176.8050  147.1750 O   0  0  0  0  0  1  0  0  0  0  0  0
  188.4030  177.5940  145.0610 C   0  0  0  0  0  3  0  0  0  0  0  0
  189.5710  177.1440  147.1500 C   0  0  0  0  0  3  0  0  0  0  0  0
  188.3820  177.4130  146.4510 C   0  0  0  0  0  0  0  0  0  0  0  0
  190.8170  177.2540  145.0850 C   0  0  0  0  0  0  0  0  0  0  0  0
  188.7420  178.0290  142.0230 C   0  0  2  0  0  3  0  0  0  0  0  0
  187.5690  177.3140  142.2690 O   0  0  0  0  0  1  0  0  0  0  0  0
  189.2170  177.7910  140.6230 C   0  0  0  0  0  0  0  0  0  0  0  0
  189.6230  177.0180  137.9020 C   0  0  0  0  0  2  0  0  0  0  0  0
  188.7380  178.5810  139.6470 C   0  0  0  0  0  3  0  0  0  0  0  0
  189.1560  178.4360  138.2080 C   0  0  0  0  0  2  0  0  0  0  0  0
  190.6890  176.6250  138.9130 C   0  0  0  0  0  2  0  0  0  0  0  0
  190.0870  176.5890  140.3170 C   0  0  0  0  0  2  0  0  0  0  0  0
  187.0900  177.4700  147.1840 C   0  0  0  0  0  2  0  0  0  0  0  0
  185.9910  177.5580  146.2350 N   0  0  0  0  0  2  0  0  0  0  0  0
  185.2800  178.7770  146.0120 C   0  0  0  0  0  0  0  0  0  0  0  0
  185.5950  179.8220  146.6420 O   0  0  0  0  0  0  0  0  0  0  0  0
  184.1800  178.8080  145.0420 C   0  0  0  0  0  0  0  0  0  0  0  0
  184.3780  178.3400  143.7490 O   0  0  0  0  0  0  0  0  0  0  0  0
  183.0520  179.2590  145.3750 O   0  0  0  0  0  1  0  0  0  0  0  0
  1  2  2  0  0  0  0
  2  7  1  0  0  0  0
  2 10  1  0  0  0  0
  3  1  1  0  0  0  0
  3  4  1  0  0  0  0
  4 10  2  0  0  0  0
  5  8  2  0  0  0  0
  5  6  1  0  0  0  0
  7  9  2  0  0  0  0
  9  8  1  0  0  0  0
  9 19  1  0  0  0  0
 10  5  1  0  0  0  0
 11 12  1  1  0  0  0
 11  1  1  0  0  0  0
 13 11  1  0  0  0  0
 14 16  1  0  0  0  0
 14 17  1  0  0  0  0
 15 13  2  0  0  0  0
 16 15  1  0  0  0  0
 17 18  1  0  0  0  0
 18 13  1  0  0  0  0
 20 19  1  0  0  0  0
 21 20  1  0  0  0  0
 21 22  2  0  0  0  0
 23 25  1  0  0  0  0
 23 21  1  0  0  0  0
 24 23  2  0  0  0  0
M  END
>  <MODEL>
6

>  <REMARK>
 VINA RESULT:      -7.5      3.927      6.572
  Name = 
  5 active torsions:
  status: ('A' for Active; 'I' for Inactive)
    1  A    between atoms: C_1  and  C_18
    2  A    between atoms: C_2  and  C_21
    3  A    between atoms: C_5  and  C_18
    4  A    between atoms: C_6  and  N_15
    5  A    between atoms: C_6  and  C_23
                            x       y       z     vdW  Elec       q    Type
                         _______ _______ _______ _____ _____    ______ ____

>  <TORSDO>
F 5

$$$$
=
 OpenBabel10272400523D

 25 27  0  0  1  0  0  0  0  0999 V2000
  189.1620  177.1220  141.3360 C   0  0  0  0  0  0  0  0  0  0  0  0
  187.9560  177.6250  141.7970 C   0  0  0  0  0  0  0  0  0  0  0  0
  189.2750  177.5240  139.7050 S   0  0  0  0  0  0  0  0  0  0  0  0
  187.8170  178.3650  139.5580 C   0  0  0  0  0  3  0  0  0  0  0  0
  185.9830  178.8870  141.1360 C   0  0  0  0  0  0  0  0  0  0  0  0
  185.2460  179.5760  140.1810 O   0  0  0  0  0  1  0  0  0  0  0  0
  187.4640  177.4900  143.0970 C   0  0  0  0  0  3  0  0  0  0  0  0
  185.4880  178.7530  142.4420 C   0  0  0  0  0  3  0  0  0  0  0  0
  186.2200  178.0530  143.4150 C   0  0  0  0  0  0  0  0  0  0  0  0
  187.2210  178.3170  140.8170 C   0  0  0  0  0  0  0  0  0  0  0  0
  190.1290  176.2820  142.1120 C   0  0  2  0  0  3  0  0  0  0  0  0
  189.5130  175.1200  142.5770 O   0  0  0  0  0  1  0  0  0  0  0  0
  190.7210  177.0530  143.2520 C   0  0  0  0  0  0  0  0  0  0  0  0
  191.2810  178.6010  145.5880 C   0  0  0  0  0  2  0  0  0  0  0  0
  190.9050  176.4170  144.4220 C   0  0  0  0  0  3  0  0  0  0  0  0
  191.5010  177.0930  145.6280 C   0  0  0  0  0  2  0  0  0  0  0  0
  191.7790  179.1340  144.2530 C   0  0  0  0  0  2  0  0  0  0  0  0
  190.9470  178.5450  143.1150 C   0  0  0  0  0  2  0  0  0  0  0  0
  185.6910  177.9400  144.8000 C   0  0  0  0  0  2  0  0  0  0  0  0
  186.7480  177.4980  145.6960 N   0  0  0  0  0  2  0  0  0  0  0  0
  186.9210  178.0620  146.9970 C   0  0  0  0  0  0  0  0  0  0  0  0
  186.1480  178.9700  147.4050 O   0  0  0  0  0  0  0  0  0  0  0  0
  188.0040  177.5770  147.8590 C   0  0  0  0  0  0  0  0  0  0  0  0
  188.2830  178.2220  149.0570 O   0  0  0  0  0  1  0  0  0  0  0  0
  188.6860  176.5740  147.5180 O   0  0  0  0  0  0  0  0  0  0  0  0
  1  2  2  0  0  0  0
  1 11  1  0  0  0  0
  2  7  1  0  0  0  0
  3  1  1  0  0  0  0
  4  3  1  0  0  0  0
  4 10  2  0  0  0  0
  5  8  2  0  0  0  0
  6  5  1  0  0  0  0
  7  9  2  0  0  0  0
  8  9  1  0  0  0  0
  9 19  1  0  0  0  0
 10  5  1  0  0  0  0
 10  2  1  0  0  0  0
 11 12  1  1  0  0  0
 11 13  1  0  0  0  0
 13 15  2  0  0  0  0
 14 16  1  0  0  0  0
 15 16  1  0  0  0  0
 17 14  1  0  0  0  0
 18 13  1  0  0  0  0
 18 17  1  0  0  0  0
 19 20  1  0  0  0  0
 20 21  1  0  0  0  0
 21 22  2  0  0  0  0
 21 23  1  0  0  0  0
 23 24  1  0  0  0  0
 25 23  2  0  0  0  0
M  END
>  <MODEL>
7

>  <REMARK>
 VINA RESULT:      -7.5      3.165      6.718
  Name = 
  5 active torsions:
  status: ('A' for Active; 'I' for Inactive)
    1  A    between atoms: C_1  and  C_18
    2  A    between atoms: C_2  and  C_21
    3  A    between atoms: C_5  and  C_18
    4  A    between atoms: C_6  and  N_15
    5  A    between atoms: C_6  and  C_23
                            x       y       z     vdW  Elec       q    Type
                         _______ _______ _______ _____ _____    ______ ____

>  <TORSDO>
F 5

$$$$
=
 OpenBabel10272400523D

 25 27  0  0  1  0  0  0  0  0999 V2000
  187.0900  177.5830  142.9620 C   0  0  0  0  0  0  0  0  0  0  0  0
  186.6070  177.8360  144.2350 C   0  0  0  0  0  0  0  0  0  0  0  0
  185.9070  178.0880  141.8740 S   0  0  0  0  0  0  0  0  0  0  0  0
  184.7750  178.6590  142.9900 C   0  0  0  0  0  3  0  0  0  0  0  0
  184.7180  178.7550  145.4640 C   0  0  0  0  0  0  0  0  0  0  0  0
  183.4630  179.3510  145.4940 O   0  0  0  0  0  1  0  0  0  0  0  0
  187.2710  177.5430  145.4280 C   0  0  0  0  0  3  0  0  0  0  0  0
  185.3850  178.4640  146.6620 C   0  0  0  0  0  3  0  0  0  0  0  0
  186.6510  177.8540  146.6460 C   0  0  0  0  0  0  0  0  0  0  0  0
  185.3340  178.4360  144.2480 C   0  0  0  0  0  0  0  0  0  0  0  0
  188.3730  176.8910  142.6190 C   0  0  2  0  0  3  0  0  0  0  0  0
  188.3160  175.5410  142.9690 O   0  0  0  0  0  1  0  0  0  0  0  0
  189.5400  177.5550  143.2830 C   0  0  0  0  0  0  0  0  0  0  0  0
  192.0230  178.7650  144.0150 C   0  0  0  0  0  2  0  0  0  0  0  0
  189.6810  178.8840  143.1390 C   0  0  0  0  0  3  0  0  0  0  0  0
  190.8100  179.6530  143.7710 C   0  0  0  0  0  2  0  0  0  0  0  0
  191.5810  177.5350  144.7940 C   0  0  0  0  0  2  0  0  0  0  0  0
  190.6040  176.7120  143.9560 C   0  0  0  0  0  2  0  0  0  0  0  0
  187.3530  177.5730  147.9260 C   0  0  0  0  0  2  0  0  0  0  0  0
  188.5840  176.8460  147.6620 N   0  0  0  0  0  2  0  0  0  0  0  0
  189.8560  177.3280  148.0980 C   0  0  0  0  0  0  0  0  0  0  0  0
  189.9410  178.4130  148.7340 O   0  0  0  0  0  0  0  0  0  0  0  0
  191.0660  176.5520  147.8040 C   0  0  0  0  0  0  0  0  0  0  0  0
  192.3130  177.0420  148.1700 O   0  0  0  0  0  1  0  0  0  0  0  0
  190.9800  175.4400  147.2200 O   0  0  0  0  0  0  0  0  0  0  0  0
  1  2  2  0  0  0  0
  2 10  1  0  0  0  0
  2  7  1  0  0  0  0
  3  1  1  0  0  0  0
  3  4  1  0  0  0  0
  4 10  2  0  0  0  0
  5  6  1  0  0  0  0
  5  8  2  0  0  0  0
  7  9  2  0  0  0  0
  9  8  1  0  0  0  0
  9 19  1  0  0  0  0
 10  5  1  0  0  0  0
 11  1  1  0  0  0  0
 11 12  1  1  0  0  0
 11 13  1  0  0  0  0
 13 18  1  0  0  0  0
 14 17  1  0  0  0  0
 15 13  2  0  0  0  0
 15 16  1  0  0  0  0
 16 14  1  0  0  0  0
 18 17  1  0  0  0  0
 20 19  1  0  0  0  0
 20 21  1  0  0  0  0
 21 22  2  0  0  0  0
 23 21  1  0  0  0  0
 23 24  1  0  0  0  0
 25 23  2  0  0  0  0
M  END
>  <MODEL>
8

>  <REMARK>
 VINA RESULT:      -7.5      2.942      5.593
  Name = 
  5 active torsions:
  status: ('A' for Active; 'I' for Inactive)
    1  A    between atoms: C_1  and  C_18
    2  A    between atoms: C_2  and  C_21
    3  A    between atoms: C_5  and  C_18
    4  A    between atoms: C_6  and  N_15
    5  A    between atoms: C_6  and  C_23
                            x       y       z     vdW  Elec       q    Type
                         _______ _______ _______ _____ _____    ______ ____

>  <TORSDO>
F 5

$$$$
=
 OpenBabel10272400523D

 25 27  0  0  1  0  0  0  0  0999 V2000
  186.9720  177.6760  144.5030 C   0  0  0  0  0  0  0  0  0  0  0  0
  185.9130  178.0960  143.7160 C   0  0  0  0  0  0  0  0  0  0  0  0
  186.4630  177.7600  146.1060 S   0  0  0  0  0  0  0  0  0  0  0  0
  184.8870  178.3020  145.8340 C   0  0  0  0  0  3  0  0  0  0  0  0
  183.6070  178.8710  143.7930 C   0  0  0  0  0  0  0  0  0  0  0  0
  182.4610  179.2040  144.5040 O   0  0  0  0  0  1  0  0  0  0  0  0
  185.9260  178.1990  142.3240 C   0  0  0  0  0  3  0  0  0  0  0  0
  183.6180  178.9730  142.3940 C   0  0  0  0  0  3  0  0  0  0  0  0
  184.7730  178.6460  141.6630 C   0  0  0  0  0  0  0  0  0  0  0  0
  184.7610  178.4330  144.4520 C   0  0  0  0  0  0  0  0  0  0  0  0
  188.3470  177.3210  144.0260 C   0  0  2  0  0  3  0  0  0  0  0  0
  188.3260  176.1310  143.2980 O   0  0  0  0  0  1  0  0  0  0  0  0
  189.3070  177.2180  145.1710 C   0  0  0  0  0  0  0  0  0  0  0  0
  191.0520  176.4340  147.2950 C   0  0  0  0  0  2  0  0  0  0  0  0
  190.6030  176.9940  144.8960 C   0  0  0  0  0  3  0  0  0  0  0  0
  191.6530  176.8830  145.9690 C   0  0  0  0  0  2  0  0  0  0  0  0
  189.8880  177.3520  147.6400 C   0  0  0  0  0  2  0  0  0  0  0  0
  188.7840  177.2090  146.5930 C   0  0  0  0  0  2  0  0  0  0  0  0
  184.7600  178.7380  140.1790 C   0  0  0  0  0  2  0  0  0  0  0  0
  186.1230  178.7260  139.6750 N   0  0  0  0  0  2  0  0  0  0  0  0
  186.4680  178.0880  138.4430 C   0  0  0  0  0  0  0  0  0  0  0  0
  185.5830  177.5120  137.7550 O   0  0  0  0  0  0  0  0  0  0  0  0
  187.8600  178.1070  137.9810 C   0  0  0  0  0  0  0  0  0  0  0  0
  188.7280  179.0970  138.4250 O   0  0  0  0  0  1  0  0  0  0  0  0
  188.2760  177.2280  137.1810 O   0  0  0  0  0  0  0  0  0  0  0  0
  1  3  1  0  0  0  0
  2 10  1  0  0  0  0
  2  1  2  0  0  0  0
  4  3  1  0  0  0  0
  5 10  1  0  0  0  0
  5  6  1  0  0  0  0
  7  2  1  0  0  0  0
  8  5  2  0  0  0  0
  9  7  2  0  0  0  0
  9  8  1  0  0  0  0
 10  4  2  0  0  0  0
 11 12  1  1  0  0  0
 11  1  1  0  0  0  0
 11 13  1  0  0  0  0
 13 18  1  0  0  0  0
 14 17  1  0  0  0  0
 15 13  2  0  0  0  0
 15 16  1  0  0  0  0
 16 14  1  0  0  0  0
 18 17  1  0  0  0  0
 19  9  1  0  0  0  0
 20 19  1  0  0  0  0
 21 20  1  0  0  0  0
 22 21  2  0  0  0  0
 23 24  1  0  0  0  0
 23 21  1  0  0  0  0
 25 23  2  0  0  0  0
M  END
>  <MODEL>
9

>  <REMARK>
 VINA RESULT:      -7.4      3.098      7.532
  Name = 
  5 active torsions:
  status: ('A' for Active; 'I' for Inactive)
    1  A    between atoms: C_1  and  C_18
    2  A    between atoms: C_2  and  C_21
    3  A    between atoms: C_5  and  C_18
    4  A    between atoms: C_6  and  N_15
    5  A    between atoms: C_6  and  C_23
                            x       y       z     vdW  Elec       q    Type
                         _______ _______ _______ _____ _____    ______ ____

>  <TORSDO>
F 5

$$$$
