=
 OpenBabel10272413143D

 32 37  0  0  1  0  0  0  0  0999 V2000
  186.7500  178.3490  139.9290 C   0  0  0  0  0  0  0  0  0  0  0  0
  187.5370  178.3810  142.3130 C   0  0  2  0  0  3  0  0  0  0  0  0
  187.0200  178.2390  138.5960 N   0  0  0  0  0  0  0  0  0  0  0  0
  187.7910  178.1490  140.8560 C   0  0  0  0  0  0  0  0  0  0  0  0
  188.5780  177.7290  143.1930 C   0  0  0  0  0  0  0  0  0  0  0  0
  184.7920  178.8940  146.2250 C   0  0  0  0  0  2  0  0  0  0  0  0
  186.1150  177.9840  142.6710 C   0  0  2  0  0  3  0  0  0  0  0  0
  187.0060  177.7740  146.4450 C   0  0  0  0  0  2  0  0  0  0  0  0
  186.9720  177.3400  144.9820 C   0  0  2  0  0  3  0  0  0  0  0  0
  189.0750  177.8130  140.4010 C   0  0  0  0  0  0  0  0  0  0  0  0
  188.3110  177.3680  144.4070 N   0  0  0  0  0  0  0  0  0  0  0  0
  190.1170  177.5620  141.3040 O   0  0  0  0  0  0  0  0  0  0  0  0
  189.3070  177.7000  139.0300 C   0  0  0  0  0  3  0  0  0  0  0  0
  185.1610  178.8410  141.8350 C   0  0  0  0  0  2  0  0  0  0  0  0
  185.4070  178.6350  140.4000 N   0  0  0  0  0  0  0  0  0  0  0  0
  185.9630  178.1150  144.1580 C   0  0  0  0  0  0  0  0  0  0  0  0
  190.0090  177.7440  142.7230 C   0  0  1  0  0  3  0  0  0  0  0  0
  188.2600  177.9260  138.1350 C   0  0  0  0  0  3  0  0  0  0  0  0
  185.5810  177.8280  146.9820 C   0  0  0  0  0  2  0  0  0  0  0  0
  184.9170  178.7400  144.7310 C   0  0  0  0  0  3  0  0  0  0  0  0
  183.1310  177.8370  137.4110 C   0  0  1  0  0  3  0  0  0  0  0  0
  180.1800  180.1690  138.2080 C   0  0  0  0  0  1  0  0  0  0  0  0
  183.2000  176.5910  136.5480 C   0  0  0  0  0  1  0  0  0  0  0  0
  182.6310  180.4460  138.4590 C   0  0  0  0  0  2  0  0  0  0  0  0
  184.2950  178.8110  139.5010 C   0  0  0  0  0  0  0  0  0  0  0  0
  181.6830  178.3350  137.4870 C   0  0  0  0  0  2  0  0  0  0  0  0
  183.7520  180.0380  139.3700 C   0  0  0  0  0  3  0  0  0  0  0  0
  183.7740  177.5810  138.7810 C   0  0  1  0  0  3  0  0  0  0  0  0
  182.9200  176.7200  139.7030 C   0  0  0  0  0  1  0  0  0  0  0  0
  181.4800  179.4540  138.5060 C   0  0  2  0  0  3  0  0  0  0  0  0
  190.7250  179.0180  143.1560 C   0  0  0  0  0  2  0  0  0  0  0  0
  191.7170  178.7350  144.0970 O   0  0  0  0  0  1  0  0  0  0  0  0
  1 15  1  0  0  0  0
  1  4  1  0  0  0  0
  2  4  1  6  0  0  0
  2  7  1  0  0  0  0
  2  5  1  0  0  0  0
  3  1  2  0  0  0  0
  5 11  2  0  0  0  0
  6 19  1  0  0  0  0
  7 14  1  6  0  0  0
  7 16  1  0  0  0  0
  8 19  1  0  0  0  0
  9  8  1  1  0  0  0
 10  4  2  0  0  0  0
 10 12  1  0  0  0  0
 11  9  1  0  0  0  0
 12 17  1  0  0  0  0
 13 10  1  0  0  0  0
 15 14  1  0  0  0  0
 16 20  2  0  0  0  0
 16  9  1  0  0  0  0
 17 31  1  6  0  0  0
 17  5  1  0  0  0  0
 18  3  1  0  0  0  0
 18 13  2  0  0  0  0
 20  6  1  0  0  0  0
 21 23  1  6  0  0  0
 21 26  1  0  0  0  0
 21 28  1  0  0  0  0
 24 30  1  0  0  0  0
 24 27  1  0  0  0  0
 25 15  1  0  0  0  0
 26 30  1  0  0  0  0
 27 25  2  0  0  0  0
 28 25  1  0  0  0  0
 28 29  1  1  0  0  0
 30 22  1  6  0  0  0
 31 32  1  0  0  0  0
M  END
>  <MODEL>
1

>  <REMARK>
 VINA RESULT:      -9.4      0.000      0.000
  Name = 
  2 active torsions:
  status: ('A' for Active; 'I' for Inactive)
    1  A    between atoms: C_13  and  C_29
    2  A    between atoms: C_16  and  N_27
                            x       y       z     vdW  Elec       q    Type
                         _______ _______ _______ _____ _____    ______ ____

>  <TORSDO>
F 2

$$$$
=
 OpenBabel10272413143D

 32 37  0  0  1  0  0  0  0  0999 V2000
  189.2730  177.4170  142.0340 C   0  0  0  0  0  0  0  0  0  0  0  0
  187.4600  177.6360  140.3120 C   0  0  2  0  0  3  0  0  0  0  0  0
  190.5880  177.2430  142.3510 N   0  0  0  0  0  0  0  0  0  0  0  0
  188.9080  177.5620  140.6830 C   0  0  0  0  0  0  0  0  0  0  0  0
  187.2450  178.2100  138.9310 C   0  0  0  0  0  0  0  0  0  0  0  0
  182.7820  178.3490  141.1560 C   0  0  0  0  0  2  0  0  0  0  0  0
  186.6740  178.3610  141.3920 C   0  0  2  0  0  3  0  0  0  0  0  0
  183.7270  179.0300  138.9550 C   0  0  0  0  0  2  0  0  0  0  0  0
  185.1150  179.2070  139.5640 C   0  0  2  0  0  3  0  0  0  0  0  0
  189.8990  177.5560  139.6890 C   0  0  0  0  0  0  0  0  0  0  0  0
  186.1470  178.8180  138.6120 N   0  0  0  0  0  0  0  0  0  0  0  0
  189.5680  177.7460  138.3400 O   0  0  0  0  0  0  0  0  0  0  0  0
  191.2340  177.3850  140.0550 C   0  0  0  0  0  3  0  0  0  0  0  0
  186.8360  177.5800  142.6980 C   0  0  0  0  0  2  0  0  0  0  0  0
  188.2560  177.4860  143.0690 N   0  0  0  0  0  0  0  0  0  0  0  0
  185.2640  178.5170  140.9060 C   0  0  0  0  0  0  0  0  0  0  0  0
  188.2220  177.8330  137.8490 C   0  0  1  0  0  3  0  0  0  0  0  0
  191.5620  177.2210  141.4020 C   0  0  0  0  0  3  0  0  0  0  0  0
  182.6750  179.3510  140.0090 C   0  0  0  0  0  2  0  0  0  0  0  0
  184.1940  178.2190  141.6680 C   0  0  0  0  0  3  0  0  0  0  0  0
  190.4180  176.6960  146.1450 C   0  0  1  0  0  3  0  0  0  0  0  0
  188.2980  178.3850  148.8720 C   0  0  0  0  0  1  0  0  0  0  0  0
  191.8880  176.3240  146.1260 C   0  0  0  0  0  1  0  0  0  0  0  0
  187.6790  177.0960  146.8470 C   0  0  0  0  0  2  0  0  0  0  0  0
  188.5740  177.3820  144.4710 C   0  0  0  0  0  0  0  0  0  0  0  0
  190.0910  177.4550  147.4360 C   0  0  0  0  0  2  0  0  0  0  0  0
  187.5670  177.2650  145.3590 C   0  0  0  0  0  3  0  0  0  0  0  0
  190.0380  177.4540  144.8660 C   0  0  1  0  0  3  0  0  0  0  0  0
  190.5490  178.8890  144.8330 C   0  0  0  0  0  1  0  0  0  0  0  0
  188.6900  178.0600  147.4460 C   0  0  2  0  0  3  0  0  0  0  0  0
  187.8180  176.5360  137.1590 C   0  0  0  0  0  2  0  0  0  0  0  0
  188.9440  175.7930  136.8000 O   0  0  0  0  0  1  0  0  0  0  0  0
  1  3  1  0  0  0  0
  1 15  1  0  0  0  0
  2  5  1  6  0  0  0
  2  4  1  0  0  0  0
  2  7  1  0  0  0  0
  4  1  2  0  0  0  0
  6 20  1  0  0  0  0
  7 14  1  1  0  0  0
  8 19  1  0  0  0  0
  9  8  1  6  0  0  0
  9 16  1  0  0  0  0
 10 13  2  0  0  0  0
 10  4  1  0  0  0  0
 11  5  2  0  0  0  0
 11  9  1  0  0  0  0
 12 10  1  0  0  0  0
 13 18  1  0  0  0  0
 14 15  1  0  0  0  0
 15 25  1  0  0  0  0
 16  7  1  0  0  0  0
 16 20  2  0  0  0  0
 17 31  1  1  0  0  0
 17 12  1  0  0  0  0
 17  5  1  0  0  0  0
 18  3  2  0  0  0  0
 19  6  1  0  0  0  0
 21 23  1  6  0  0  0
 21 26  1  0  0  0  0
 24 30  1  0  0  0  0
 25 28  1  0  0  0  0
 25 27  2  0  0  0  0
 26 30  1  0  0  0  0
 27 24  1  0  0  0  0
 28 29  1  1  0  0  0
 28 21  1  0  0  0  0
 30 22  1  1  0  0  0
 32 31  1  0  0  0  0
M  END
>  <MODEL>
2

>  <REMARK>
 VINA RESULT:      -8.7      2.130      7.269
  Name = 
  2 active torsions:
  status: ('A' for Active; 'I' for Inactive)
    1  A    between atoms: C_13  and  C_29
    2  A    between atoms: C_16  and  N_27
                            x       y       z     vdW  Elec       q    Type
                         _______ _______ _______ _____ _____    ______ ____

>  <TORSDO>
F 2

$$$$
=
 OpenBabel10272413143D

 32 37  0  0  1  0  0  0  0  0999 V2000
  185.7150  178.3400  142.8350 C   0  0  0  0  0  0  0  0  0  0  0  0
  185.7550  178.8050  140.3680 C   0  0  2  0  0  3  0  0  0  0  0  0
  185.0340  178.2750  144.0150 N   0  0  0  0  0  0  0  0  0  0  0  0
  185.0060  178.6150  141.6510 C   0  0  0  0  0  0  0  0  0  0  0  0
  184.8670  178.6630  139.1540 C   0  0  0  0  0  0  0  0  0  0  0  0
  189.5450  178.4010  137.4400 C   0  0  0  0  0  2  0  0  0  0  0  0
  186.9740  177.8990  140.3290 C   0  0  2  0  0  3  0  0  0  0  0  0
  187.2540  178.2560  136.4730 C   0  0  0  0  0  2  0  0  0  0  0  0
  186.6840  177.7670  137.8020 C   0  0  2  0  0  3  0  0  0  0  0  0
  183.6140  178.7880  141.6960 C   0  0  0  0  0  0  0  0  0  0  0  0
  185.3400  178.2900  138.0070 N   0  0  0  0  0  0  0  0  0  0  0  0
  182.8770  179.0160  140.5250 O   0  0  0  0  0  0  0  0  0  0  0  0
  182.9540  178.7050  142.9220 C   0  0  0  0  0  3  0  0  0  0  0  0
  187.8720  178.2660  141.5130 C   0  0  0  0  0  2  0  0  0  0  0  0
  187.1460  178.0990  142.7810 N   0  0  0  0  0  0  0  0  0  0  0  0
  187.6050  178.0380  138.9760 C   0  0  0  0  0  0  0  0  0  0  0  0
  183.4680  179.2150  139.2320 C   0  0  1  0  0  3  0  0  0  0  0  0
  183.6880  178.4520  144.0820 C   0  0  0  0  0  3  0  0  0  0  0  0
  188.6930  177.7730  136.3390 C   0  0  0  0  0  2  0  0  0  0  0  0
  188.9270  178.2290  138.8050 C   0  0  0  0  0  3  0  0  0  0  0  0
  190.1120  176.6810  144.7690 C   0  0  1  0  0  3  0  0  0  0  0  0
  189.3570  178.1980  148.2210 C   0  0  0  0  0  1  0  0  0  0  0  0
  191.4100  176.1630  144.1810 C   0  0  0  0  0  1  0  0  0  0  0  0
  187.8840  177.2660  146.4580 C   0  0  0  0  0  2  0  0  0  0  0  0
  187.9180  177.7750  143.9540 C   0  0  0  0  0  0  0  0  0  0  0  0
  190.3750  177.2880  146.1520 C   0  0  0  0  0  2  0  0  0  0  0  0
  187.2820  177.6450  145.1360 C   0  0  0  0  0  3  0  0  0  0  0  0
  189.4210  177.6400  143.7900 C   0  0  1  0  0  3  0  0  0  0  0  0
  190.0920  179.0050  143.6990 C   0  0  0  0  0  1  0  0  0  0  0  0
  189.1710  178.0290  146.7280 C   0  0  2  0  0  3  0  0  0  0  0  0
  183.4280  180.6890  138.8460 C   0  0  0  0  0  2  0  0  0  0  0  0
  182.1380  181.0690  138.4710 O   0  0  0  0  0  1  0  0  0  0  0  0
  1  3  1  0  0  0  0
  2  5  1  6  0  0  0
  2  4  1  0  0  0  0
  3 18  2  0  0  0  0
  4 10  1  0  0  0  0
  4  1  2  0  0  0  0
  5 17  1  0  0  0  0
  6 20  1  0  0  0  0
  7  2  1  0  0  0  0
  7 14  1  1  0  0  0
  9  8  1  6  0  0  0
  9 11  1  0  0  0  0
  9 16  1  0  0  0  0
 10 13  2  0  0  0  0
 11  5  2  0  0  0  0
 12 10  1  0  0  0  0
 13 18  1  0  0  0  0
 14 15  1  0  0  0  0
 15  1  1  0  0  0  0
 15 25  1  0  0  0  0
 16  7  1  0  0  0  0
 17 31  1  1  0  0  0
 17 12  1  0  0  0  0
 19  8  1  0  0  0  0
 19  6  1  0  0  0  0
 20 16  2  0  0  0  0
 21 23  1  6  0  0  0
 21 26  1  0  0  0  0
 24 30  1  0  0  0  0
 25 27  2  0  0  0  0
 26 30  1  0  0  0  0
 27 24  1  0  0  0  0
 28 29  1  1  0  0  0
 28 25  1  0  0  0  0
 28 21  1  0  0  0  0
 30 22  1  1  0  0  0
 32 31  1  0  0  0  0
M  END
>  <MODEL>
3

>  <REMARK>
 VINA RESULT:      -8.6      2.735      8.092
  Name = 
  2 active torsions:
  status: ('A' for Active; 'I' for Inactive)
    1  A    between atoms: C_13  and  C_29
    2  A    between atoms: C_16  and  N_27
                            x       y       z     vdW  Elec       q    Type
                         _______ _______ _______ _____ _____    ______ ____

>  <TORSDO>
F 2

$$$$
=
 OpenBabel10272413143D

 32 37  0  0  1  0  0  0  0  0999 V2000
  187.8020  178.1150  140.7910 C   0  0  0  0  0  0  0  0  0  0  0  0
  188.7360  177.7270  138.4930 C   0  0  2  0  0  3  0  0  0  0  0  0
  186.7740  178.5050  141.5990 N   0  0  0  0  0  0  0  0  0  0  0  0
  187.5870  178.0380  139.4020 C   0  0  0  0  0  0  0  0  0  0  0  0
  188.2840  177.2620  137.1280 C   0  0  0  0  0  0  0  0  0  0  0  0
  193.1150  176.0560  137.4290 C   0  0  0  0  0  2  0  0  0  0  0  0
  189.6970  176.7610  139.1670 C   0  0  2  0  0  3  0  0  0  0  0  0
  191.2850  175.7890  135.7610 C   0  0  0  0  0  2  0  0  0  0  0  0
  190.2280  175.8200  136.8610 C   0  0  2  0  0  3  0  0  0  0  0  0
  186.3210  178.3320  138.8750 C   0  0  0  0  0  0  0  0  0  0  0  0
  189.0220  176.4910  136.3950 N   0  0  0  0  0  0  0  0  0  0  0  0
  186.0670  178.2160  137.5000 O   0  0  0  0  0  0  0  0  0  0  0  0
  185.2930  178.7170  139.7360 C   0  0  0  0  0  3  0  0  0  0  0  0
  190.2120  177.4260  140.4460 C   0  0  0  0  0  2  0  0  0  0  0  0
  189.0940  177.7520  141.3450 N   0  0  0  0  0  0  0  0  0  0  0  0
  190.7490  176.3890  138.1660 C   0  0  0  0  0  0  0  0  0  0  0  0
  187.0750  177.9240  136.5210 C   0  0  1  0  0  3  0  0  0  0  0  0
  185.5430  178.8050  141.1070 C   0  0  0  0  0  3  0  0  0  0  0  0
  192.5630  175.1700  136.3140 C   0  0  0  0  0  2  0  0  0  0  0  0
  192.0650  176.4010  138.4540 C   0  0  0  0  0  3  0  0  0  0  0  0
  188.2600  178.0130  145.0850 C   0  0  1  0  0  3  0  0  0  0  0  0
  191.6070  176.8450  146.5740 C   0  0  0  0  0  1  0  0  0  0  0  0
  186.8670  178.0380  145.6850 C   0  0  0  0  0  1  0  0  0  0  0  0
  191.0650  178.2490  144.6040 C   0  0  0  0  0  2  0  0  0  0  0  0
  189.3610  177.7740  142.7610 C   0  0  0  0  0  0  0  0  0  0  0  0
  189.2330  177.3440  146.0620 C   0  0  0  0  0  2  0  0  0  0  0  0
  190.5940  178.1160  143.1850 C   0  0  0  0  0  3  0  0  0  0  0  0
  188.2340  177.3670  143.6930 C   0  0  1  0  0  3  0  0  0  0  0  0
  188.0650  175.8530  143.7270 C   0  0  0  0  0  1  0  0  0  0  0  0
  190.6100  177.0770  145.4580 C   0  0  2  0  0  3  0  0  0  0  0  0
  187.4550  179.1820  135.7510 C   0  0  0  0  0  2  0  0  0  0  0  0
  187.4820  180.2930  136.5960 O   0  0  0  0  0  1  0  0  0  0  0  0
  1 15  1  0  0  0  0
  1  3  1  0  0  0  0
  2  5  1  6  0  0  0
  2  7  1  0  0  0  0
  2  4  1  0  0  0  0
  4  1  2  0  0  0  0
  6 20  1  0  0  0  0
  7 14  1  1  0  0  0
  8 19  1  0  0  0  0
  9  8  1  6  0  0  0
  9 16  1  0  0  0  0
 10  4  1  0  0  0  0
 10 13  2  0  0  0  0
 11  9  1  0  0  0  0
 11  5  2  0  0  0  0
 12 10  1  0  0  0  0
 13 18  1  0  0  0  0
 14 15  1  0  0  0  0
 15 25  1  0  0  0  0
 16 20  2  0  0  0  0
 16  7  1  0  0  0  0
 17 31  1  1  0  0  0
 17  5  1  0  0  0  0
 17 12  1  0  0  0  0
 18  3  2  0  0  0  0
 19  6  1  0  0  0  0
 21 23  1  1  0  0  0
 21 26  1  0  0  0  0
 24 30  1  0  0  0  0
 25 27  2  0  0  0  0
 25 28  1  0  0  0  0
 27 24  1  0  0  0  0
 28 29  1  1  0  0  0
 28 21  1  0  0  0  0
 30 26  1  0  0  0  0
 30 22  1  1  0  0  0
 31 32  1  0  0  0  0
M  END
>  <MODEL>
4

>  <REMARK>
 VINA RESULT:      -8.3      2.981      8.167
  Name = 
  2 active torsions:
  status: ('A' for Active; 'I' for Inactive)
    1  A    between atoms: C_13  and  C_29
    2  A    between atoms: C_16  and  N_27
                            x       y       z     vdW  Elec       q    Type
                         _______ _______ _______ _____ _____    ______ ____

>  <TORSDO>
F 2

$$$$
=
 OpenBabel10272413143D

 32 37  0  0  1  0  0  0  0  0999 V2000
  187.5850  177.9870  141.8430 C   0  0  0  0  0  0  0  0  0  0  0  0
  188.7260  177.8530  139.6110 C   0  0  2  0  0  3  0  0  0  0  0  0
  186.4850  178.2860  142.5920 N   0  0  0  0  0  0  0  0  0  0  0  0
  187.4970  178.0630  140.4400 C   0  0  0  0  0  0  0  0  0  0  0  0
  188.4030  177.5420  138.1670 C   0  0  0  0  0  0  0  0  0  0  0  0
  193.1990  176.3070  138.7710 C   0  0  0  0  0  2  0  0  0  0  0  0
  189.6310  176.8190  140.2590 C   0  0  2  0  0  3  0  0  0  0  0  0
  191.5300  176.2260  136.9250 C   0  0  0  0  0  2  0  0  0  0  0  0
  190.3770  176.1360  137.9210 C   0  0  2  0  0  3  0  0  0  0  0  0
  186.2800  178.4130  139.8350 C   0  0  0  0  0  0  0  0  0  0  0  0
  189.2110  176.8550  137.4240 N   0  0  0  0  0  0  0  0  0  0  0  0
  186.1530  178.4500  138.4390 O   0  0  0  0  0  0  0  0  0  0  0  0
  185.1760  178.7020  140.6370 C   0  0  0  0  0  3  0  0  0  0  0  0
  190.0230  177.3390  141.6450 C   0  0  0  0  0  2  0  0  0  0  0  0
  188.8260  177.5650  142.4680 N   0  0  0  0  0  0  0  0  0  0  0  0
  190.7730  176.5580  139.3230 C   0  0  0  0  0  0  0  0  0  0  0  0
  187.2470  178.2660  137.5290 C   0  0  1  0  0  3  0  0  0  0  0  0
  185.3000  178.6390  142.0260 C   0  0  0  0  0  3  0  0  0  0  0  0
  192.7580  175.5500  137.5210 C   0  0  0  0  0  2  0  0  0  0  0  0
  192.0570  176.5380  139.7280 C   0  0  0  0  0  3  0  0  0  0  0  0
  190.5450  176.6230  145.7710 C   0  0  1  0  0  3  0  0  0  0  0  0
  188.2090  178.4130  148.2460 C   0  0  0  0  0  1  0  0  0  0  0  0
  191.9820  176.1630  145.9260 C   0  0  0  0  0  1  0  0  0  0  0  0
  187.7680  177.1800  146.1400 C   0  0  0  0  0  2  0  0  0  0  0  0
  188.9630  177.4310  143.8960 C   0  0  0  0  0  0  0  0  0  0  0  0
  190.1070  177.3890  147.0250 C   0  0  0  0  0  2  0  0  0  0  0  0
  187.8490  177.3670  144.6530 C   0  0  0  0  0  3  0  0  0  0  0  0
  190.3690  177.4130  144.4670 C   0  0  1  0  0  3  0  0  0  0  0  0
  190.9630  178.8140  144.5190 C   0  0  0  0  0  1  0  0  0  0  0  0
  188.7530  178.0770  146.8740 C   0  0  2  0  0  3  0  0  0  0  0  0
  187.6840  179.6010  136.9390 C   0  0  0  0  0  2  0  0  0  0  0  0
  188.9790  179.9250  137.3460 O   0  0  0  0  0  1  0  0  0  0  0  0
  1 15  1  0  0  0  0
  1  3  1  0  0  0  0
  2  5  1  6  0  0  0
  2  7  1  0  0  0  0
  2  4  1  0  0  0  0
  4  1  2  0  0  0  0
  6 20  1  0  0  0  0
  7 14  1  1  0  0  0
  8 19  1  0  0  0  0
  9  8  1  6  0  0  0
  9 16  1  0  0  0  0
 10  4  1  0  0  0  0
 10 13  2  0  0  0  0
 11  9  1  0  0  0  0
 11  5  2  0  0  0  0
 12 10  1  0  0  0  0
 13 18  1  0  0  0  0
 14 15  1  0  0  0  0
 15 25  1  0  0  0  0
 16 20  2  0  0  0  0
 16  7  1  0  0  0  0
 17 31  1  1  0  0  0
 17  5  1  0  0  0  0
 17 12  1  0  0  0  0
 18  3  2  0  0  0  0
 19  6  1  0  0  0  0
 21 23  1  1  0  0  0
 21 26  1  0  0  0  0
 24 30  1  0  0  0  0
 25 28  1  0  0  0  0
 25 27  2  0  0  0  0
 27 24  1  0  0  0  0
 28 29  1  1  0  0  0
 28 21  1  0  0  0  0
 30 26  1  0  0  0  0
 30 22  1  1  0  0  0
 31 32  1  0  0  0  0
M  END
>  <MODEL>
5

>  <REMARK>
 VINA RESULT:      -8.3      2.972      8.053
  Name = 
  2 active torsions:
  status: ('A' for Active; 'I' for Inactive)
    1  A    between atoms: C_13  and  C_29
    2  A    between atoms: C_16  and  N_27
                            x       y       z     vdW  Elec       q    Type
                         _______ _______ _______ _____ _____    ______ ____

>  <TORSDO>
F 2

$$$$
=
 OpenBabel10272413143D

 32 37  0  0  1  0  0  0  0  0999 V2000
  189.2410  177.6620  140.0540 C   0  0  0  0  0  0  0  0  0  0  0  0
  189.1910  177.9920  142.5420 C   0  0  2  0  0  3  0  0  0  0  0  0
  189.9400  177.4380  138.9050 N   0  0  0  0  0  0  0  0  0  0  0  0
  189.9220  177.6330  141.2860 C   0  0  0  0  0  0  0  0  0  0  0  0
  189.9050  177.5100  143.7840 C   0  0  0  0  0  0  0  0  0  0  0  0
  185.2890  178.6970  145.2590 C   0  0  0  0  0  2  0  0  0  0  0  0
  187.7450  177.5310  142.4640 C   0  0  2  0  0  3  0  0  0  0  0  0
  187.3430  177.7690  146.3180 C   0  0  0  0  0  2  0  0  0  0  0  0
  187.8110  177.1880  144.9870 C   0  0  2  0  0  3  0  0  0  0  0  0
  191.2950  177.3470  141.3160 C   0  0  0  0  0  0  0  0  0  0  0  0
  189.2630  177.2540  144.8790 N   0  0  0  0  0  0  0  0  0  0  0  0
  191.9870  177.2650  142.5330 O   0  0  0  0  0  0  0  0  0  0  0  0
  191.9720  177.1140  140.1190 C   0  0  0  0  0  3  0  0  0  0  0  0
  187.0930  178.2280  141.2670 C   0  0  0  0  0  2  0  0  0  0  0  0
  187.8080  177.8970  140.0250 N   0  0  0  0  0  0  0  0  0  0  0  0
  187.1050  177.8010  143.7930 C   0  0  0  0  0  0  0  0  0  0  0  0
  191.4090  177.5810  143.8070 C   0  0  1  0  0  3  0  0  0  0  0  0
  191.2730  177.1710  138.9120 C   0  0  0  0  0  3  0  0  0  0  0  0
  185.8200  177.7730  146.3520 C   0  0  0  0  0  2  0  0  0  0  0  0
  185.9070  178.4020  143.9160 C   0  0  0  0  0  3  0  0  0  0  0  0
  187.2550  177.8720  136.2240 C   0  0  1  0  0  3  0  0  0  0  0  0
  183.4780  177.1590  136.1270 C   0  0  0  0  0  1  0  0  0  0  0  0
  188.3260  177.6630  135.1710 C   0  0  0  0  0  1  0  0  0  0  0  0
  184.8680  178.5470  137.6400 C   0  0  0  0  0  2  0  0  0  0  0  0
  187.0510  177.8990  138.7990 C   0  0  0  0  0  0  0  0  0  0  0  0
  185.9180  177.3180  135.7200 C   0  0  0  0  0  2  0  0  0  0  0  0
  185.8010  178.4040  138.8070 C   0  0  0  0  0  3  0  0  0  0  0  0
  187.7020  177.2890  137.5720 C   0  0  1  0  0  3  0  0  0  0  0  0
  187.6570  175.7670  137.6210 C   0  0  0  0  0  1  0  0  0  0  0  0
  184.8320  177.2860  136.7930 C   0  0  2  0  0  3  0  0  0  0  0  0
  191.8950  178.9400  144.2940 C   0  0  0  0  0  2  0  0  0  0  0  0
  190.9920  179.9460  143.9440 O   0  0  0  0  0  1  0  0  0  0  0  0
  1  4  1  0  0  0  0
  2  4  1  6  0  0  0
  2  5  1  0  0  0  0
  3 18  1  0  0  0  0
  3  1  2  0  0  0  0
  4 10  2  0  0  0  0
  5 17  1  0  0  0  0
  5 11  2  0  0  0  0
  6 19  1  0  0  0  0
  7 14  1  6  0  0  0
  7  2  1  0  0  0  0
  7 16  1  0  0  0  0
  8 19  1  0  0  0  0
  9  8  1  1  0  0  0
 10 12  1  0  0  0  0
 11  9  1  0  0  0  0
 12 17  1  0  0  0  0
 13 10  1  0  0  0  0
 15  1  1  0  0  0  0
 15 14  1  0  0  0  0
 16 20  2  0  0  0  0
 16  9  1  0  0  0  0
 17 31  1  6  0  0  0
 18 13  2  0  0  0  0
 20  6  1  0  0  0  0
 21 23  1  6  0  0  0
 21 28  1  0  0  0  0
 24 27  1  0  0  0  0
 25 27  2  0  0  0  0
 25 15  1  0  0  0  0
 26 21  1  0  0  0  0
 26 30  1  0  0  0  0
 28 29  1  6  0  0  0
 28 25  1  0  0  0  0
 30 22  1  6  0  0  0
 30 24  1  0  0  0  0
 32 31  1  0  0  0  0
M  END
>  <MODEL>
6

>  <REMARK>
 VINA RESULT:      -8.1      1.907      2.892
  Name = 
  2 active torsions:
  status: ('A' for Active; 'I' for Inactive)
    1  A    between atoms: C_13  and  C_29
    2  A    between atoms: C_16  and  N_27
                            x       y       z     vdW  Elec       q    Type
                         _______ _______ _______ _____ _____    ______ ____

>  <TORSDO>
F 2

$$$$
=
 OpenBabel10272413143D

 32 37  0  0  1  0  0  0  0  0999 V2000
  185.0960  178.5960  143.1440 C   0  0  0  0  0  0  0  0  0  0  0  0
  182.9490  178.7380  141.8500 C   0  0  2  0  0  3  0  0  0  0  0  0
  185.7690  178.6600  144.3280 N   0  0  0  0  0  0  0  0  0  0  0  0
  183.6920  178.6890  143.1490 C   0  0  0  0  0  0  0  0  0  0  0  0
  181.4830  178.4070  142.0090 C   0  0  0  0  0  0  0  0  0  0  0  0
  182.4110  178.0960  137.1170 C   0  0  0  0  0  2  0  0  0  0  0  0
  183.6480  177.8800  140.8090 C   0  0  2  0  0  3  0  0  0  0  0  0
  180.4500  177.7440  138.6120 C   0  0  0  0  0  2  0  0  0  0  0  0
  181.3610  177.4110  139.7900 C   0  0  2  0  0  3  0  0  0  0  0  0
  183.0070  178.8160  144.3670 C   0  0  0  0  0  0  0  0  0  0  0  0
  180.7920  177.9060  141.0360 N   0  0  0  0  0  0  0  0  0  0  0  0
  181.6050  178.8620  144.4050 O   0  0  0  0  0  0  0  0  0  0  0  0
  183.7310  178.8680  145.5580 C   0  0  0  0  0  3  0  0  0  0  0  0
  185.0640  178.4300  140.6190 C   0  0  0  0  0  2  0  0  0  0  0  0
  185.8030  178.4020  141.8900 N   0  0  0  0  0  0  0  0  0  0  0  0
  182.7930  177.8660  139.5780 C   0  0  0  0  0  0  0  0  0  0  0  0
  180.7740  178.9140  143.2370 C   0  0  1  0  0  3  0  0  0  0  0  0
  185.1250  178.7950  145.5180 C   0  0  0  0  0  3  0  0  0  0  0  0
  181.1240  177.3000  137.3190 C   0  0  0  0  0  2  0  0  0  0  0  0
  183.2870  178.0810  138.3440 C   0  0  0  0  0  3  0  0  0  0  0  0
  189.3940  178.2490  143.2440 C   0  0  1  0  0  3  0  0  0  0  0  0
  191.1970  176.8830  140.1350 C   0  0  0  0  0  1  0  0  0  0  0  0
  189.7920  178.2230  144.7080 C   0  0  0  0  0  1  0  0  0  0  0  0
  189.3420  178.5060  140.4000 C   0  0  0  0  0  2  0  0  0  0  0  0
  187.2360  178.2620  141.8260 C   0  0  0  0  0  0  0  0  0  0  0  0
  190.4170  177.4640  142.4150 C   0  0  0  0  0  2  0  0  0  0  0  0
  187.8650  178.5390  140.6660 C   0  0  0  0  0  3  0  0  0  0  0  0
  187.9480  177.7650  143.0700 C   0  0  1  0  0  3  0  0  0  0  0  0
  187.7860  176.2600  143.2360 C   0  0  0  0  0  1  0  0  0  0  0  0
  189.9860  177.2510  140.9660 C   0  0  2  0  0  3  0  0  0  0  0  0
  180.2310  180.3220  143.0270 C   0  0  0  0  0  2  0  0  0  0  0  0
  179.9840  180.5630  141.6740 O   0  0  0  0  0  1  0  0  0  0  0  0
  1  4  2  0  0  0  0
  1  3  1  0  0  0  0
  2  5  1  1  0  0  0
  2  4  1  0  0  0  0
  3 18  2  0  0  0  0
  4 10  1  0  0  0  0
  5 17  1  0  0  0  0
  6 19  1  0  0  0  0
  6 20  1  0  0  0  0
  7 14  1  6  0  0  0
  7  2  1  0  0  0  0
  9  8  1  6  0  0  0
  9 11  1  0  0  0  0
 10 12  1  0  0  0  0
 10 13  2  0  0  0  0
 11  5  2  0  0  0  0
 14 15  1  0  0  0  0
 15  1  1  0  0  0  0
 16  9  1  0  0  0  0
 16  7  1  0  0  0  0
 17 31  1  6  0  0  0
 17 12  1  0  0  0  0
 18 13  1  0  0  0  0
 19  8  1  0  0  0  0
 20 16  2  0  0  0  0
 21 23  1  1  0  0  0
 24 27  1  0  0  0  0
 24 30  1  0  0  0  0
 25 15  1  0  0  0  0
 25 28  1  0  0  0  0
 26 21  1  0  0  0  0
 27 25  2  0  0  0  0
 28 29  1  6  0  0  0
 28 21  1  0  0  0  0
 30 22  1  6  0  0  0
 30 26  1  0  0  0  0
 32 31  1  0  0  0  0
M  END
>  <MODEL>
7

>  <REMARK>
 VINA RESULT:      -7.8      3.203      7.818
  Name = 
  2 active torsions:
  status: ('A' for Active; 'I' for Inactive)
    1  A    between atoms: C_13  and  C_29
    2  A    between atoms: C_16  and  N_27
                            x       y       z     vdW  Elec       q    Type
                         _______ _______ _______ _____ _____    ______ ____

>  <TORSDO>
F 2

$$$$
=
 OpenBabel10272413143D

 32 37  0  0  1  0  0  0  0  0999 V2000
  185.7570  178.5390  142.7570 C   0  0  0  0  0  0  0  0  0  0  0  0
  185.5610  178.8360  140.2720 C   0  0  2  0  0  3  0  0  0  0  0  0
  185.1840  178.5260  143.9950 N   0  0  0  0  0  0  0  0  0  0  0  0
  184.9360  178.7020  141.6260 C   0  0  0  0  0  0  0  0  0  0  0  0
  184.5800  178.5720  139.1530 C   0  0  0  0  0  0  0  0  0  0  0  0
  189.1010  178.3980  137.0500 C   0  0  0  0  0  2  0  0  0  0  0  0
  186.8160  177.9830  140.1830 C   0  0  2  0  0  3  0  0  0  0  0  0
  186.7450  178.0880  136.3020 C   0  0  0  0  0  2  0  0  0  0  0  0
  186.3170  177.6670  137.7050 C   0  0  2  0  0  3  0  0  0  0  0  0
  183.5460  178.8170  141.7840 C   0  0  0  0  0  0  0  0  0  0  0  0
  184.9710  178.1430  137.9960 N   0  0  0  0  0  0  0  0  0  0  0  0
  182.7010  178.9310  140.6700 O   0  0  0  0  0  0  0  0  0  0  0  0
  182.9980  178.7880  143.0660 C   0  0  0  0  0  3  0  0  0  0  0  0
  187.7930  178.4690  141.2560 C   0  0  0  0  0  2  0  0  0  0  0  0
  187.1880  178.3570  142.5920 N   0  0  0  0  0  0  0  0  0  0  0  0
  187.3210  178.0570  138.7730 C   0  0  0  0  0  0  0  0  0  0  0  0
  183.1680  179.0670  139.3200 C   0  0  1  0  0  3  0  0  0  0  0  0
  183.8410  178.6480  144.1700 C   0  0  0  0  0  3  0  0  0  0  0  0
  188.1890  177.6600  136.0720 C   0  0  0  0  0  2  0  0  0  0  0  0
  188.6120  178.2930  138.4720 C   0  0  0  0  0  3  0  0  0  0  0  0
  188.1920  178.0760  146.2890 C   0  0  1  0  0  3  0  0  0  0  0  0
  191.6940  176.5380  145.8900 C   0  0  0  0  0  1  0  0  0  0  0  0
  187.2410  178.0730  147.4710 C   0  0  0  0  0  1  0  0  0  0  0  0
  190.4730  178.2540  144.5800 C   0  0  0  0  0  2  0  0  0  0  0  0
  188.0730  178.1480  143.7100 C   0  0  0  0  0  0  0  0  0  0  0  0
  189.4220  177.2200  146.6120 C   0  0  0  0  0  2  0  0  0  0  0  0
  189.3940  178.3630  143.5430 C   0  0  0  0  0  3  0  0  0  0  0  0
  187.4600  177.6550  145.0070 C   0  0  1  0  0  3  0  0  0  0  0  0
  187.1550  176.1630  144.9420 C   0  0  0  0  0  1  0  0  0  0  0  0
  190.3300  176.9860  145.4070 C   0  0  2  0  0  3  0  0  0  0  0  0
  183.0220  180.5080  138.8450 C   0  0  0  0  0  2  0  0  0  0  0  0
  181.8520  180.6690  138.1000 O   0  0  0  0  0  1  0  0  0  0  0  0
  1  3  1  0  0  0  0
  2  5  1  6  0  0  0
  2  4  1  0  0  0  0
  3 18  2  0  0  0  0
  4 10  1  0  0  0  0
  4  1  2  0  0  0  0
  5 17  1  0  0  0  0
  6 20  1  0  0  0  0
  7  2  1  0  0  0  0
  7 14  1  1  0  0  0
  9  8  1  6  0  0  0
  9 11  1  0  0  0  0
  9 16  1  0  0  0  0
 10 13  2  0  0  0  0
 11  5  2  0  0  0  0
 12 10  1  0  0  0  0
 13 18  1  0  0  0  0
 14 15  1  0  0  0  0
 15  1  1  0  0  0  0
 15 25  1  0  0  0  0
 16  7  1  0  0  0  0
 17 31  1  1  0  0  0
 17 12  1  0  0  0  0
 19  8  1  0  0  0  0
 19  6  1  0  0  0  0
 20 16  2  0  0  0  0
 21 26  1  0  0  0  0
 21 23  1  1  0  0  0
 24 30  1  0  0  0  0
 25 28  1  0  0  0  0
 27 25  2  0  0  0  0
 27 24  1  0  0  0  0
 28 29  1  6  0  0  0
 28 21  1  0  0  0  0
 30 22  1  1  0  0  0
 30 26  1  0  0  0  0
 32 31  1  0  0  0  0
M  END
>  <MODEL>
8

>  <REMARK>
 VINA RESULT:      -7.8      2.722      8.154
  Name = 
  2 active torsions:
  status: ('A' for Active; 'I' for Inactive)
    1  A    between atoms: C_13  and  C_29
    2  A    between atoms: C_16  and  N_27
                            x       y       z     vdW  Elec       q    Type
                         _______ _______ _______ _____ _____    ______ ____

>  <TORSDO>
F 2

$$$$
=
 OpenBabel10272413143D

 32 37  0  0  1  0  0  0  0  0999 V2000
  186.1120  178.0440  144.8690 C   0  0  0  0  0  0  0  0  0  0  0  0
  188.5360  177.4850  144.5320 C   0  0  2  0  0  3  0  0  0  0  0  0
  185.0640  178.3090  145.7010 N   0  0  0  0  0  0  0  0  0  0  0  0
  187.3990  177.8900  145.4180 C   0  0  0  0  0  0  0  0  0  0  0  0
  189.8840  177.7760  145.1520 C   0  0  0  0  0  0  0  0  0  0  0  0
  190.7820  176.9030  140.3220 C   0  0  0  0  0  2  0  0  0  0  0  0
  188.3690  178.0890  143.1480 C   0  0  2  0  0  3  0  0  0  0  0  0
  192.1220  177.5240  142.3280 C   0  0  0  0  0  2  0  0  0  0  0  0
  190.9100  178.1820  142.9800 C   0  0  2  0  0  3  0  0  0  0  0  0
  187.5900  178.0390  146.8000 C   0  0  0  0  0  0  0  0  0  0  0  0
  190.9340  177.9860  144.4240 N   0  0  0  0  0  0  0  0  0  0  0  0
  188.8690  177.9370  147.3660 O   0  0  0  0  0  0  0  0  0  0  0  0
  186.4940  178.3190  147.6160 C   0  0  0  0  0  3  0  0  0  0  0  0
  187.0500  177.5750  142.5660 C   0  0  0  0  0  2  0  0  0  0  0  0
  185.9230  177.9530  143.4320 N   0  0  0  0  0  0  0  0  0  0  0  0
  189.5960  177.7560  142.3520 C   0  0  0  0  0  0  0  0  0  0  0  0
  190.0420  177.5580  146.6330 C   0  0  1  0  0  3  0  0  0  0  0  0
  185.2260  178.4440  147.0440 C   0  0  0  0  0  3  0  0  0  0  0  0
  192.0110  177.6630  140.8150 C   0  0  0  0  0  2  0  0  0  0  0  0
  189.5410  177.2640  141.1000 C   0  0  0  0  0  3  0  0  0  0  0  0
  182.1090  178.3760  143.2810 C   0  0  1  0  0  3  0  0  0  0  0  0
  181.7290  179.4900  139.6200 C   0  0  0  0  0  1  0  0  0  0  0  0
  181.1870  178.5640  144.4710 C   0  0  0  0  0  1  0  0  0  0  0  0
  183.2190  177.8330  140.7060 C   0  0  0  0  0  2  0  0  0  0  0  0
  184.6370  178.1400  142.8100 C   0  0  0  0  0  0  0  0  0  0  0  0
  181.5390  179.1120  142.0630 C   0  0  0  0  0  2  0  0  0  0  0  0
  184.4770  177.7710  141.5230 C   0  0  0  0  0  3  0  0  0  0  0  0
  183.5430  178.7860  143.6400 C   0  0  1  0  0  3  0  0  0  0  0  0
  183.7400  180.2930  143.7370 C   0  0  0  0  0  1  0  0  0  0  0  0
  182.5030  179.1620  140.8800 C   0  0  2  0  0  3  0  0  0  0  0  0
  190.4280  176.1180  146.9470 C   0  0  0  0  0  2  0  0  0  0  0  0
  191.7890  176.0220  147.2440 O   0  0  0  0  0  1  0  0  0  0  0  0
  1  4  2  0  0  0  0
  1  3  1  0  0  0  0
  2  5  1  1  0  0  0
  2  4  1  0  0  0  0
  3 18  2  0  0  0  0
  4 10  1  0  0  0  0
  5 17  1  0  0  0  0
  6 19  1  0  0  0  0
  6 20  1  0  0  0  0
  7 14  1  6  0  0  0
  7  2  1  0  0  0  0
  9  8  1  6  0  0  0
  9 11  1  0  0  0  0
 10 12  1  0  0  0  0
 10 13  2  0  0  0  0
 11  5  2  0  0  0  0
 14 15  1  0  0  0  0
 15  1  1  0  0  0  0
 16  9  1  0  0  0  0
 16  7  1  0  0  0  0
 17 31  1  6  0  0  0
 17 12  1  0  0  0  0
 18 13  1  0  0  0  0
 19  8  1  0  0  0  0
 20 16  2  0  0  0  0
 21 28  1  0  0  0  0
 21 23  1  1  0  0  0
 24 30  1  0  0  0  0
 24 27  1  0  0  0  0
 25 15  1  0  0  0  0
 25 28  1  0  0  0  0
 26 21  1  0  0  0  0
 27 25  2  0  0  0  0
 28 29  1  6  0  0  0
 30 22  1  6  0  0  0
 30 26  1  0  0  0  0
 31 32  1  0  0  0  0
M  END
>  <MODEL>
9

>  <REMARK>
 VINA RESULT:      -7.7      2.458      5.443
  Name = 
  2 active torsions:
  status: ('A' for Active; 'I' for Inactive)
    1  A    between atoms: C_13  and  C_29
    2  A    between atoms: C_16  and  N_27
                            x       y       z     vdW  Elec       q    Type
                         _______ _______ _______ _____ _____    ______ ____

>  <TORSDO>
F 2

$$$$
