=
 OpenBabel10272401503D

 28 33  0  0  1  0  0  0  0  0999 V2000
  187.9410  176.8310  143.8900 C   0  0  1  0  0  3  0  0  0  0  0  0
  189.4820  176.7200  143.8940 C   0  0  1  0  0  3  0  0  0  0  0  0
  189.1180  177.0810  141.3710 C   0  0  2  0  0  3  0  0  0  0  0  0
  186.4520  177.7890  138.3980 C   0  0  0  0  0  3  0  0  0  0  0  0
  184.0980  178.4940  144.3340 N   0  0  0  0  0  1  0  0  0  0  0  0
  191.3110  178.2190  143.9100 C   0  0  2  0  0  3  0  0  0  0  0  0
  190.1330  176.8980  142.5120 C   0  0  1  0  0  3  0  0  0  0  0  0
  190.6170  177.1760  146.0440 C   0  0  0  0  0  1  0  0  0  0  0  0
  189.4350  177.8350  137.7270 C   0  0  0  0  0  3  0  0  0  0  0  0
  187.1520  178.4060  140.6080 N   0  0  0  0  0  0  0  0  0  0  0  0
  190.1330  177.7790  144.7390 C   0  0  2  0  0  3  0  0  0  0  0  0
  187.4890  178.0550  136.1840 C   0  0  0  0  0  0  0  0  0  0  0  0
  187.4580  177.9750  139.2650 C   0  0  0  0  0  0  0  0  0  0  0  0
  189.8300  177.3310  140.0450 C   0  0  0  0  0  2  0  0  0  0  0  0
  188.7680  178.2640  136.4840 C   0  0  0  0  0  3  0  0  0  0  0  0
  186.2960  178.6200  143.2790 C   0  0  0  0  0  0  0  0  0  0  0  0
  188.1420  178.2230  141.6890 C   0  0  1  0  0  3  0  0  0  0  0  0
  188.8760  177.6440  138.9320 C   0  0  0  0  0  0  0  0  0  0  0  0
  185.8410  177.0480  145.2080 C   0  0  0  0  0  2  0  0  0  0  0  0
  185.8330  179.6680  142.3050 C   0  0  0  0  0  2  0  0  0  0  0  0
  185.5300  178.3990  144.5680 C   0  0  2  0  0  3  0  0  0  0  0  0
  191.5780  179.6950  144.1330 C   0  0  0  0  0  1  0  0  0  0  0  0
  187.0040  178.5240  135.0090 F   0  0  0  0  0  0  0  0  0  0  0  0
  186.6110  177.2060  137.0350 C   0  0  0  0  0  2  0  0  0  0  0  0
  185.8850  179.1100  140.8800 C   0  0  0  0  0  2  0  0  0  0  0  0
  187.3450  176.8520  145.2980 C   0  0  0  0  0  2  0  0  0  0  0  0
  187.4430  177.9600  143.0070 C   0  0  0  0  0  0  0  0  0  0  0  0
  191.0210  177.9930  142.5560 O   0  0  0  0  0  0  0  0  0  0  0  0
  1  2  1  0  0  0  0
  1 26  1  1  0  0  0
  2 11  1  0  0  0  0
  3 17  1  0  0  0  0
  3  7  1  0  0  0  0
  4 13  2  0  0  0  0
  5 21  1  0  0  0  0
  6 22  1  0  0  0  0
  6 11  1  0  0  0  0
  7 28  1  0  0  0  0
  7  2  1  0  0  0  0
  9 18  2  0  0  0  0
 10 25  1  0  0  0  0
 10 17  1  0  0  0  0
 11  8  1  0  0  0  0
 12 15  2  0  0  0  0
 12 24  1  0  0  0  0
 13 10  1  0  0  0  0
 14  3  1  0  0  0  0
 15  9  1  0  0  0  0
 16 21  1  0  0  0  0
 17 27  1  0  0  0  0
 18 13  1  0  0  0  0
 18 14  1  0  0  0  0
 19 26  1  0  0  0  0
 20 16  1  0  0  0  0
 21 19  1  0  0  0  0
 23 12  1  0  0  0  0
 24  4  1  0  0  0  0
 25 20  1  0  0  0  0
 27 16  2  0  0  0  0
 27  1  1  0  0  0  0
 28  6  1  0  0  0  0
M  END
>  <MODEL>
1

>  <REMARK>
 VINA RESULT:      -9.1      0.000      0.000
  Name = 
  0 active torsions:
  status: ('A' for Active; 'I' for Inactive)
                            x       y       z     vdW  Elec       q    Type
                         _______ _______ _______ _____ _____    ______ ____

>  <TORSDO>
F 0

$$$$
=
 OpenBabel10272401503D

 28 33  0  0  1  0  0  0  0  0999 V2000
  183.7030  177.2530  138.4030 C   0  0  1  0  0  3  0  0  0  0  0  0
  182.3270  177.8860  138.7030 C   0  0  1  0  0  3  0  0  0  0  0  0
  183.3820  178.1120  141.0400 C   0  0  2  0  0  3  0  0  0  0  0  0
  186.6790  177.5640  143.3370 C   0  0  0  0  0  3  0  0  0  0  0  0
  187.6650  176.8800  137.0260 N   0  0  0  0  0  1  0  0  0  0  0  0
  181.4310  180.0710  138.8260 C   0  0  2  0  0  3  0  0  0  0  0  0
  182.1640  178.3960  140.1440 C   0  0  1  0  0  3  0  0  0  0  0  0
  181.0650  178.7580  136.7610 C   0  0  0  0  0  1  0  0  0  0  0  0
  184.2860  179.0410  144.5420 C   0  0  0  0  0  3  0  0  0  0  0  0
  185.8510  178.3690  141.2340 N   0  0  0  0  0  0  0  0  0  0  0  0
  182.0550  179.1000  137.8580 C   0  0  2  0  0  3  0  0  0  0  0  0
  186.4150  178.3600  145.6500 C   0  0  0  0  0  0  0  0  0  0  0  0
  185.6990  178.1770  142.6570 C   0  0  0  0  0  0  0  0  0  0  0  0
  183.1860  178.7110  142.4290 C   0  0  0  0  0  2  0  0  0  0  0  0
  185.3400  179.1420  145.5690 C   0  0  0  0  0  3  0  0  0  0  0  0
  186.0740  178.0670  138.4470 C   0  0  0  0  0  0  0  0  0  0  0  0
  184.6690  178.6440  140.3930 C   0  0  1  0  0  3  0  0  0  0  0  0
  184.4040  178.5690  143.2910 C   0  0  0  0  0  0  0  0  0  0  0  0
  185.3070  176.4070  136.6990 C   0  0  0  0  0  2  0  0  0  0  0  0
  187.1720  178.8010  139.1660 C   0  0  0  0  0  2  0  0  0  0  0  0
  186.3360  177.4680  137.0800 C   0  0  2  0  0  3  0  0  0  0  0  0
  181.8230  181.4900  138.4570 C   0  0  0  0  0  1  0  0  0  0  0  0
  187.3140  178.5800  146.6380 F   0  0  0  0  0  0  0  0  0  0  0  0
  186.5880  177.1700  144.7720 C   0  0  0  0  0  2  0  0  0  0  0  0
  187.1990  178.3800  140.6370 C   0  0  0  0  0  2  0  0  0  0  0  0
  183.9030  176.9450  136.9190 C   0  0  0  0  0  2  0  0  0  0  0  0
  184.8480  178.0390  139.0160 C   0  0  0  0  0  0  0  0  0  0  0  0
  181.8880  179.7790  140.1190 O   0  0  0  0  0  0  0  0  0  0  0  0
  1 26  1  6  0  0  0
  1  2  1  0  0  0  0
  1 27  1  0  0  0  0
  2  7  1  0  0  0  0
  3 14  1  0  0  0  0
  4 24  1  0  0  0  0
  5 21  1  0  0  0  0
  6 28  1  0  0  0  0
  7  3  1  0  0  0  0
  8 11  1  0  0  0  0
  9 15  1  0  0  0  0
 10 13  1  0  0  0  0
 11  2  1  0  0  0  0
 11  6  1  0  0  0  0
 12 23  1  0  0  0  0
 13 18  1  0  0  0  0
 13  4  2  0  0  0  0
 14 18  1  0  0  0  0
 15 12  2  0  0  0  0
 16 27  2  0  0  0  0
 16 20  1  0  0  0  0
 17  3  1  0  0  0  0
 17 10  1  0  0  0  0
 18  9  2  0  0  0  0
 19 26  1  0  0  0  0
 19 21  1  0  0  0  0
 20 25  1  0  0  0  0
 21 16  1  0  0  0  0
 22  6  1  0  0  0  0
 24 12  1  0  0  0  0
 25 10  1  0  0  0  0
 27 17  1  0  0  0  0
 28  7  1  0  0  0  0
M  END
>  <MODEL>
2

>  <REMARK>
 VINA RESULT:      -8.1      3.948      8.067
  Name = 
  0 active torsions:
  status: ('A' for Active; 'I' for Inactive)
                            x       y       z     vdW  Elec       q    Type
                         _______ _______ _______ _____ _____    ______ ____

>  <TORSDO>
F 0

$$$$
=
 OpenBabel10272401503D

 28 33  0  0  1  0  0  0  0  0999 V2000
  185.5200  179.2050  143.3800 C   0  0  1  0  0  3  0  0  0  0  0  0
  184.6380  179.4280  142.1320 C   0  0  1  0  0  3  0  0  0  0  0  0
  186.8100  178.7020  140.9570 C   0  0  2  0  0  3  0  0  0  0  0  0
  190.6280  177.4040  141.3920 C   0  0  0  0  0  3  0  0  0  0  0  0
  187.1440  177.3410  146.7890 N   0  0  0  0  0  1  0  0  0  0  0  0
  183.3330  178.0840  140.6890 C   0  0  2  0  0  3  0  0  0  0  0  0
  185.3360  179.1120  140.7990 C   0  0  1  0  0  3  0  0  0  0  0  0
  182.1900  179.3530  142.4800 C   0  0  0  0  0  1  0  0  0  0  0  0
  189.4240  177.4860  138.5820 C   0  0  0  0  0  3  0  0  0  0  0  0
  188.3600  177.1460  142.1310 N   0  0  0  0  0  0  0  0  0  0  0  0
  183.4230  178.5440  142.1210 C   0  0  2  0  0  3  0  0  0  0  0  0
  191.7550  176.9160  139.2600 C   0  0  0  0  0  0  0  0  0  0  0  0
  189.3220  177.4120  141.0880 C   0  0  0  0  0  0  0  0  0  0  0  0
  187.4180  178.3280  139.6090 C   0  0  0  0  0  2  0  0  0  0  0  0
  190.7390  176.8440  138.4030 C   0  0  0  0  0  3  0  0  0  0  0  0
  186.6910  177.2340  144.3930 C   0  0  0  0  0  0  0  0  0  0  0  0
  186.9490  177.5450  141.9570 C   0  0  1  0  0  3  0  0  0  0  0  0
  188.8150  177.7970  139.7360 C   0  0  0  0  0  0  0  0  0  0  0  0
  185.6540  179.0160  145.8580 C   0  0  0  0  0  2  0  0  0  0  0  0
  187.5780  176.0320  144.2180 C   0  0  0  0  0  2  0  0  0  0  0  0
  186.1400  177.5720  145.7630 C   0  0  2  0  0  3  0  0  0  0  0  0
  182.7740  176.6750  140.6340 C   0  0  0  0  0  1  0  0  0  0  0  0
  192.9040  176.2590  138.9750 F   0  0  0  0  0  0  0  0  0  0  0  0
  191.7140  177.8070  140.4530 C   0  0  0  0  0  2  0  0  0  0  0  0
  188.7710  176.3940  143.3310 C   0  0  0  0  0  2  0  0  0  0  0  0
  184.7370  179.3310  144.6880 C   0  0  0  0  0  2  0  0  0  0  0  0
  186.3420  177.9330  143.2900 C   0  0  0  0  0  0  0  0  0  0  0  0
  184.6180  178.1020  140.1270 O   0  0  0  0  0  0  0  0  0  0  0  0
  1 26  1  1  0  0  0
  2  1  1  0  0  0  0
  3 17  1  0  0  0  0
  6 11  1  0  0  0  0
  7  3  1  0  0  0  0
  7  2  1  0  0  0  0
  9 18  2  0  0  0  0
 10 25  1  0  0  0  0
 11  2  1  0  0  0  0
 11  8  1  0  0  0  0
 12 24  1  0  0  0  0
 13  4  2  0  0  0  0
 13 10  1  0  0  0  0
 14 18  1  0  0  0  0
 14  3  1  0  0  0  0
 15  9  1  0  0  0  0
 15 12  2  0  0  0  0
 16 21  1  0  0  0  0
 17 10  1  0  0  0  0
 17 27  1  0  0  0  0
 18 13  1  0  0  0  0
 20 16  1  0  0  0  0
 21 19  1  0  0  0  0
 21  5  1  0  0  0  0
 22  6  1  0  0  0  0
 23 12  1  0  0  0  0
 24  4  1  0  0  0  0
 25 20  1  0  0  0  0
 26 19  1  0  0  0  0
 27  1  1  0  0  0  0
 27 16  2  0  0  0  0
 28  6  1  0  0  0  0
 28  7  1  0  0  0  0
M  END
>  <MODEL>
3

>  <REMARK>
 VINA RESULT:      -7.4      2.706      5.036
  Name = 
  0 active torsions:
  status: ('A' for Active; 'I' for Inactive)
                            x       y       z     vdW  Elec       q    Type
                         _______ _______ _______ _____ _____    ______ ____

>  <TORSDO>
F 0

$$$$
=
 OpenBabel10272401503D

 28 33  0  0  1  0  0  0  0  0999 V2000
  187.9170  176.9310  145.1850 C   0  0  1  0  0  3  0  0  0  0  0  0
  189.2840  176.8810  144.4690 C   0  0  1  0  0  3  0  0  0  0  0  0
  187.7910  177.3780  142.4330 C   0  0  2  0  0  3  0  0  0  0  0  0
  184.0450  178.1570  141.0860 C   0  0  0  0  0  3  0  0  0  0  0  0
  184.7050  178.4130  147.4710 N   0  0  0  0  0  1  0  0  0  0  0  0
  190.9020  178.4470  143.7450 C   0  0  2  0  0  3  0  0  0  0  0  0
  189.2200  177.1670  142.9600 C   0  0  1  0  0  3  0  0  0  0  0  0
  191.2830  177.2520  145.8780 C   0  0  0  0  0  1  0  0  0  0  0  0
  186.3780  178.3600  139.1180 C   0  0  0  0  0  3  0  0  0  0  0  0
  185.6860  178.6680  142.7600 N   0  0  0  0  0  0  0  0  0  0  0  0
  190.2450  177.9130  144.9910 C   0  0  2  0  0  3  0  0  0  0  0  0
  183.9360  178.5960  138.6680 C   0  0  0  0  0  0  0  0  0  0  0  0
  185.3370  178.3300  141.4010 C   0  0  0  0  0  0  0  0  0  0  0  0
  187.8050  177.7350  140.9490 C   0  0  0  0  0  2  0  0  0  0  0  0
  185.2080  178.8370  138.3570 C   0  0  0  0  0  3  0  0  0  0  0  0
  186.1630  178.6890  145.5320 C   0  0  0  0  0  0  0  0  0  0  0  0
  187.0650  178.4600  143.2450 C   0  0  1  0  0  3  0  0  0  0  0  0
  186.4420  178.0760  140.4270 C   0  0  0  0  0  0  0  0  0  0  0  0
  186.6650  176.9870  147.3350 C   0  0  0  0  0  2  0  0  0  0  0  0
  185.2940  179.7740  144.9590 C   0  0  0  0  0  2  0  0  0  0  0  0
  186.0830  178.3610  147.0090 C   0  0  2  0  0  3  0  0  0  0  0  0
  191.2320  179.9160  143.9250 C   0  0  0  0  0  1  0  0  0  0  0  0
  182.9590  179.1140  137.8860 F   0  0  0  0  0  0  0  0  0  0  0  0
  183.5590  177.6640  139.7650 C   0  0  0  0  0  2  0  0  0  0  0  0
  184.6840  179.3050  143.6360 C   0  0  0  0  0  2  0  0  0  0  0  0
  188.0410  176.8460  146.7070 C   0  0  0  0  0  2  0  0  0  0  0  0
  187.0580  178.0920  144.7150 C   0  0  0  0  0  0  0  0  0  0  0  0
  190.0200  178.2910  142.6670 O   0  0  0  0  0  0  0  0  0  0  0  0
  1 26  1  1  0  0  0
  2 11  1  0  0  0  0
  2  1  1  0  0  0  0
  3  7  1  0  0  0  0
  3 17  1  0  0  0  0
  4 13  2  0  0  0  0
  6 22  1  0  0  0  0
  6 11  1  0  0  0  0
  7  2  1  0  0  0  0
  9 18  2  0  0  0  0
 10 17  1  0  0  0  0
 10 25  1  0  0  0  0
 11  8  1  0  0  0  0
 12 24  1  0  0  0  0
 13 10  1  0  0  0  0
 14  3  1  0  0  0  0
 15 12  2  0  0  0  0
 15  9  1  0  0  0  0
 16 21  1  0  0  0  0
 17 27  1  0  0  0  0
 18 14  1  0  0  0  0
 18 13  1  0  0  0  0
 20 16  1  0  0  0  0
 21 19  1  0  0  0  0
 21  5  1  0  0  0  0
 23 12  1  0  0  0  0
 24  4  1  0  0  0  0
 25 20  1  0  0  0  0
 26 19  1  0  0  0  0
 27  1  1  0  0  0  0
 27 16  2  0  0  0  0
 28  7  1  0  0  0  0
 28  6  1  0  0  0  0
M  END
>  <MODEL>
4

>  <REMARK>
 VINA RESULT:      -7.0      1.959      2.622
  Name = 
  0 active torsions:
  status: ('A' for Active; 'I' for Inactive)
                            x       y       z     vdW  Elec       q    Type
                         _______ _______ _______ _____ _____    ______ ____

>  <TORSDO>
F 0

$$$$
=
 OpenBabel10272401503D

 28 33  0  0  1  0  0  0  0  0999 V2000
  190.9380  176.9130  138.2680 C   0  0  1  0  0  3  0  0  0  0  0  0
  190.5320  177.7510  139.5010 C   0  0  1  0  0  3  0  0  0  0  0  0
  188.2530  177.6770  138.3060 C   0  0  2  0  0  3  0  0  0  0  0  0
  186.1220  176.2670  135.1570 C   0  0  0  0  0  3  0  0  0  0  0  0
  191.8960  173.5550  135.9150 N   0  0  0  0  0  1  0  0  0  0  0  0
  189.5190  177.3410  141.5980 C   0  0  2  0  0  3  0  0  0  0  0  0
  189.0450  178.1380  139.5420 C   0  0  1  0  0  3  0  0  0  0  0  0
  191.9820  177.5550  141.4960 C   0  0  0  0  0  1  0  0  0  0  0  0
  184.6400  177.7760  137.3670 C   0  0  0  0  0  3  0  0  0  0  0  0
  187.6970  175.7130  136.8800 N   0  0  0  0  0  0  0  0  0  0  0  0
  190.7500  177.0160  140.7930 C   0  0  2  0  0  3  0  0  0  0  0  0
  183.7450  176.9000  135.2100 C   0  0  0  0  0  0  0  0  0  0  0  0
  186.5470  176.4510  136.4160 C   0  0  0  0  0  0  0  0  0  0  0  0
  186.7740  178.0220  138.4480 C   0  0  0  0  0  2  0  0  0  0  0  0
  183.5740  177.2880  136.4720 C   0  0  0  0  0  3  0  0  0  0  0  0
  190.2710  174.6790  137.3480 C   0  0  0  0  0  0  0  0  0  0  0  0
  188.4410  176.1710  138.0700 C   0  0  1  0  0  3  0  0  0  0  0  0
  185.9470  177.4740  137.3240 C   0  0  0  0  0  0  0  0  0  0  0  0
  192.6570  175.4980  137.1560 C   0  0  0  0  0  2  0  0  0  0  0  0
  189.1820  173.7130  136.9710 C   0  0  0  0  0  2  0  0  0  0  0  0
  191.7230  174.2900  137.1570 C   0  0  2  0  0  3  0  0  0  0  0  0
  189.1510  176.1630  142.4790 C   0  0  0  0  0  1  0  0  0  0  0  0
  182.6750  176.4550  134.5090 F   0  0  0  0  0  0  0  0  0  0  0  0
  185.0460  177.0680  134.5060 C   0  0  0  0  0  2  0  0  0  0  0  0
  188.0740  174.4510  136.2150 C   0  0  0  0  0  2  0  0  0  0  0  0
  192.3670  176.3770  138.3610 C   0  0  0  0  0  2  0  0  0  0  0  0
  189.9140  175.8450  137.9310 C   0  0  0  0  0  0  0  0  0  0  0  0
  188.4630  177.6170  140.7170 O   0  0  0  0  0  0  0  0  0  0  0  0
  1 26  1  1  0  0  0
  1  2  1  0  0  0  0
  2  7  1  0  0  0  0
  2 11  1  0  0  0  0
  3 14  1  0  0  0  0
  3  7  1  0  0  0  0
  4 13  2  0  0  0  0
  5 21  1  0  0  0  0
  6 22  1  0  0  0  0
  7 28  1  0  0  0  0
 10 17  1  0  0  0  0
 11  8  1  0  0  0  0
 11  6  1  0  0  0  0
 12 15  2  0  0  0  0
 13 10  1  0  0  0  0
 13 18  1  0  0  0  0
 15  9  1  0  0  0  0
 16 27  2  0  0  0  0
 17  3  1  0  0  0  0
 18  9  2  0  0  0  0
 18 14  1  0  0  0  0
 19 21  1  0  0  0  0
 19 26  1  0  0  0  0
 20 16  1  0  0  0  0
 21 16  1  0  0  0  0
 23 12  1  0  0  0  0
 24  4  1  0  0  0  0
 24 12  1  0  0  0  0
 25 10  1  0  0  0  0
 25 20  1  0  0  0  0
 27 17  1  0  0  0  0
 27  1  1  0  0  0  0
 28  6  1  0  0  0  0
M  END
>  <MODEL>
5

>  <REMARK>
 VINA RESULT:      -6.9      3.264      6.064
  Name = 
  0 active torsions:
  status: ('A' for Active; 'I' for Inactive)
                            x       y       z     vdW  Elec       q    Type
                         _______ _______ _______ _____ _____    ______ ____

>  <TORSDO>
F 0

$$$$
=
 OpenBabel10272401503D

 28 33  0  0  1  0  0  0  0  0999 V2000
  190.4540  175.7250  137.8310 C   0  0  1  0  0  3  0  0  0  0  0  0
  189.0480  176.3260  137.6120 C   0  0  1  0  0  3  0  0  0  0  0  0
  189.2590  176.7260  140.1460 C   0  0  2  0  0  3  0  0  0  0  0  0
  191.6070  176.4330  143.4400 C   0  0  0  0  0  3  0  0  0  0  0  0
  194.6530  175.4130  137.8770 N   0  0  0  0  0  1  0  0  0  0  0  0
  188.1330  178.4810  137.2830 C   0  0  2  0  0  3  0  0  0  0  0  0
  188.4060  176.9130  138.8800 C   0  0  1  0  0  3  0  0  0  0  0  0
  188.4950  177.0360  135.3080 C   0  0  0  0  0  1  0  0  0  0  0  0
  188.9290  177.8910  143.6790 C   0  0  0  0  0  3  0  0  0  0  0  0
  191.5170  177.0820  141.1320 N   0  0  0  0  0  0  0  0  0  0  0  0
  189.0570  177.4770  136.6460 C   0  0  2  0  0  3  0  0  0  0  0  0
  190.5750  177.3540  145.4740 C   0  0  0  0  0  0  0  0  0  0  0  0
  190.9020  176.9690  142.4330 C   0  0  0  0  0  0  0  0  0  0  0  0
  188.6030  177.3990  141.3480 C   0  0  0  0  0  2  0  0  0  0  0  0
  189.5790  178.0900  144.9880 C   0  0  0  0  0  3  0  0  0  0  0  0
  192.6630  176.6240  138.6040 C   0  0  0  0  0  0  0  0  0  0  0  0
  190.6800  177.2640  139.9300 C   0  0  1  0  0  3  0  0  0  0  0  0
  189.4650  177.3520  142.5730 C   0  0  0  0  0  0  0  0  0  0  0  0
  192.5470  174.8380  136.8170 C   0  0  0  0  0  2  0  0  0  0  0  0
  193.4480  177.4380  139.5960 C   0  0  0  0  0  2  0  0  0  0  0  0
  193.3750  175.9550  137.4460 C   0  0  2  0  0  3  0  0  0  0  0  0
  188.6050  179.8880  136.9710 C   0  0  0  0  0  1  0  0  0  0  0  0
  191.0900  177.6630  146.6880 F   0  0  0  0  0  0  0  0  0  0  0  0
  191.0480  176.1210  144.7870 C   0  0  0  0  0  2  0  0  0  0  0  0
  192.9880  177.1050  141.0180 C   0  0  0  0  0  2  0  0  0  0  0  0
  191.1430  175.3380  136.5210 C   0  0  0  0  0  2  0  0  0  0  0  0
  191.3180  176.5860  138.7340 C   0  0  0  0  0  0  0  0  0  0  0  0
  188.1350  178.2820  138.6710 O   0  0  0  0  0  0  0  0  0  0  0  0
  1 26  1  6  0  0  0
  1 27  1  0  0  0  0
  2  1  1  0  0  0  0
  2  7  1  0  0  0  0
  3 14  1  0  0  0  0
  4 24  1  0  0  0  0
  6 28  1  0  0  0  0
  7  3  1  0  0  0  0
  8 11  1  0  0  0  0
  9 15  1  0  0  0  0
 10 13  1  0  0  0  0
 11  6  1  0  0  0  0
 11  2  1  0  0  0  0
 12 23  1  0  0  0  0
 13 18  1  0  0  0  0
 13  4  2  0  0  0  0
 14 18  1  0  0  0  0
 15 12  2  0  0  0  0
 16 27  2  0  0  0  0
 16 20  1  0  0  0  0
 17  3  1  0  0  0  0
 17 10  1  0  0  0  0
 18  9  2  0  0  0  0
 19 21  1  0  0  0  0
 20 25  1  0  0  0  0
 21  5  1  0  0  0  0
 21 16  1  0  0  0  0
 22  6  1  0  0  0  0
 24 12  1  0  0  0  0
 25 10  1  0  0  0  0
 26 19  1  0  0  0  0
 27 17  1  0  0  0  0
 28  7  1  0  0  0  0
M  END
>  <MODEL>
6

>  <REMARK>
 VINA RESULT:      -6.8      3.718      7.820
  Name = 
  0 active torsions:
  status: ('A' for Active; 'I' for Inactive)
                            x       y       z     vdW  Elec       q    Type
                         _______ _______ _______ _____ _____    ______ ____

>  <TORSDO>
F 0

$$$$
=
 OpenBabel10272401503D

 28 33  0  0  1  0  0  0  0  0999 V2000
  188.5020  176.6310  145.9780 C   0  0  1  0  0  3  0  0  0  0  0  0
  189.2270  176.5800  144.6150 C   0  0  1  0  0  3  0  0  0  0  0  0
  186.9180  177.3780  143.8050 C   0  0  2  0  0  3  0  0  0  0  0  0
  183.1650  178.5090  144.8470 C   0  0  0  0  0  3  0  0  0  0  0  0
  187.2830  178.0380  149.7550 N   0  0  0  0  0  1  0  0  0  0  0  0
  190.3270  178.1200  143.1970 C   0  0  2  0  0  3  0  0  0  0  0  0
  188.3670  177.0300  143.4220 C   0  0  1  0  0  3  0  0  0  0  0  0
  191.6980  176.6830  144.6720 C   0  0  0  0  0  1  0  0  0  0  0  0
  184.0170  178.7900  141.9230 C   0  0  0  0  0  3  0  0  0  0  0  0
  185.5030  178.7420  145.3330 N   0  0  0  0  0  0  0  0  0  0  0  0
  190.4200  177.4930  144.5630 C   0  0  2  0  0  3  0  0  0  0  0  0
  181.7790  179.2110  142.9400 C   0  0  0  0  0  0  0  0  0  0  0  0
  184.4240  178.5730  144.3890 C   0  0  0  0  0  0  0  0  0  0  0  0
  186.1440  177.8900  142.5930 C   0  0  0  0  0  2  0  0  0  0  0  0
  182.6810  179.4110  141.9810 C   0  0  0  0  0  3  0  0  0  0  0  0
  187.4380  178.4370  147.3520 C   0  0  0  0  0  0  0  0  0  0  0  0
  186.8870  178.4050  144.9450 C   0  0  1  0  0  3  0  0  0  0  0  0
  184.7670  178.3630  142.9500 C   0  0  0  0  0  0  0  0  0  0  0  0
  188.6710  176.5260  148.4590 C   0  0  0  0  0  2  0  0  0  0  0  0
  186.5200  179.6260  147.4300 C   0  0  0  0  0  2  0  0  0  0  0  0
  188.1570  177.9570  148.5960 C   0  0  2  0  0  3  0  0  0  0  0  0
  190.8570  179.5400  143.2430 C   0  0  0  0  0  1  0  0  0  0  0  0
  180.5950  179.8650  142.8750 F   0  0  0  0  0  0  0  0  0  0  0  0
  181.9780  178.1890  144.0030 C   0  0  0  0  0  2  0  0  0  0  0  0
  185.2320  179.3370  146.6550 C   0  0  0  0  0  2  0  0  0  0  0  0
  189.4410  176.3750  147.1580 C   0  0  0  0  0  2  0  0  0  0  0  0
  187.6580  177.8820  146.1390 C   0  0  0  0  0  0  0  0  0  0  0  0
  188.9840  178.1320  142.7950 O   0  0  0  0  0  0  0  0  0  0  0  0
  1 27  1  0  0  0  0
  1 26  1  1  0  0  0
  2  1  1  0  0  0  0
  3 17  1  0  0  0  0
  6 22  1  0  0  0  0
  6 11  1  0  0  0  0
  7  3  1  0  0  0  0
  7  2  1  0  0  0  0
  9 15  1  0  0  0  0
  9 18  2  0  0  0  0
 10 25  1  0  0  0  0
 11  2  1  0  0  0  0
 11  8  1  0  0  0  0
 12 24  1  0  0  0  0
 13  4  2  0  0  0  0
 13 10  1  0  0  0  0
 14 18  1  0  0  0  0
 14  3  1  0  0  0  0
 15 12  2  0  0  0  0
 16 20  1  0  0  0  0
 16 21  1  0  0  0  0
 17 10  1  0  0  0  0
 17 27  1  0  0  0  0
 18 13  1  0  0  0  0
 19 21  1  0  0  0  0
 21  5  1  0  0  0  0
 23 12  1  0  0  0  0
 24  4  1  0  0  0  0
 25 20  1  0  0  0  0
 26 19  1  0  0  0  0
 27 16  2  0  0  0  0
 28  6  1  0  0  0  0
 28  7  1  0  0  0  0
M  END
>  <MODEL>
7

>  <REMARK>
 VINA RESULT:      -6.5      3.696      5.213
  Name = 
  0 active torsions:
  status: ('A' for Active; 'I' for Inactive)
                            x       y       z     vdW  Elec       q    Type
                         _______ _______ _______ _____ _____    ______ ____

>  <TORSDO>
F 0

$$$$
=
 OpenBabel10272401503D

 28 33  0  0  1  0  0  0  0  0999 V2000
  190.6130  175.7450  138.6480 C   0  0  1  0  0  3  0  0  0  0  0  0
  191.6170  174.9900  137.7500 C   0  0  1  0  0  3  0  0  0  0  0  0
  189.4550  173.8080  137.0040 C   0  0  2  0  0  3  0  0  0  0  0  0
  185.4200  173.5940  137.3450 C   0  0  0  0  0  3  0  0  0  0  0  0
  188.0630  178.8010  140.0220 N   0  0  0  0  0  1  0  0  0  0  0  0
  192.3780  175.1460  135.5160 C   0  0  2  0  0  3  0  0  0  0  0  0
  190.9750  173.9510  136.8150 C   0  0  1  0  0  3  0  0  0  0  0  0
  193.7740  176.1190  137.3120 C   0  0  0  0  0  1  0  0  0  0  0  0
  186.8010  171.8750  135.2260 C   0  0  0  0  0  3  0  0  0  0  0  0
  187.3030  175.0570  137.0850 N   0  0  0  0  0  0  0  0  0  0  0  0
  192.3560  175.9070  136.8160 C   0  0  2  0  0  3  0  0  0  0  0  0
  184.3910  171.9190  135.8660 C   0  0  0  0  0  0  0  0  0  0  0  0
  186.6350  173.8060  136.8190 C   0  0  0  0  0  0  0  0  0  0  0  0
  188.8720  172.8230  135.9950 C   0  0  0  0  0  2  0  0  0  0  0  0
  185.3590  171.6710  134.9880 C   0  0  0  0  0  3  0  0  0  0  0  0
  188.6470  177.2440  138.2350 C   0  0  0  0  0  0  0  0  0  0  0  0
  188.7620  175.1740  136.8950 C   0  0  1  0  0  3  0  0  0  0  0  0
  187.3760  172.7530  136.0600 C   0  0  0  0  0  0  0  0  0  0  0  0
  190.1880  177.6430  140.2010 C   0  0  0  0  0  2  0  0  0  0  0  0
  187.3640  177.5140  137.4990 C   0  0  0  0  0  2  0  0  0  0  0  0
  189.1620  178.2480  139.2470 C   0  0  2  0  0  3  0  0  0  0  0  0
  192.3100  176.1140  134.3500 C   0  0  0  0  0  1  0  0  0  0  0  0
  183.1040  171.7020  135.5030 F   0  0  0  0  0  0  0  0  0  0  0  0
  184.6860  172.2970  137.2750 C   0  0  0  0  0  2  0  0  0  0  0  0
  186.5110  176.2440  137.4620 C   0  0  0  0  0  2  0  0  0  0  0  0
  191.2550  176.9040  139.4110 C   0  0  0  0  0  2  0  0  0  0  0  0
  189.3510  176.1400  137.9020 C   0  0  0  0  0  0  0  0  0  0  0  0
  191.2720  174.2850  135.4770 O   0  0  0  0  0  0  0  0  0  0  0  0
  1 26  1  6  0  0  0
  2  1  1  0  0  0  0
  6 11  1  0  0  0  0
  7  3  1  0  0  0  0
  7  2  1  0  0  0  0
  9 18  2  0  0  0  0
 10 25  1  0  0  0  0
 11  8  1  0  0  0  0
 11  2  1  0  0  0  0
 12 24  1  0  0  0  0
 13 10  1  0  0  0  0
 13  4  2  0  0  0  0
 14 18  1  0  0  0  0
 14  3  1  0  0  0  0
 15  9  1  0  0  0  0
 15 12  2  0  0  0  0
 16 21  1  0  0  0  0
 17  3  1  0  0  0  0
 17 10  1  0  0  0  0
 17 27  1  0  0  0  0
 18 13  1  0  0  0  0
 20 16  1  0  0  0  0
 21  5  1  0  0  0  0
 21 19  1  0  0  0  0
 22  6  1  0  0  0  0
 23 12  1  0  0  0  0
 24  4  1  0  0  0  0
 25 20  1  0  0  0  0
 26 19  1  0  0  0  0
 27 16  2  0  0  0  0
 27  1  1  0  0  0  0
 28  6  1  0  0  0  0
 28  7  1  0  0  0  0
M  END
>  <MODEL>
8

>  <REMARK>
 VINA RESULT:      -6.5      4.284      6.728
  Name = 
  0 active torsions:
  status: ('A' for Active; 'I' for Inactive)
                            x       y       z     vdW  Elec       q    Type
                         _______ _______ _______ _____ _____    ______ ____

>  <TORSDO>
F 0

$$$$
