=
 OpenBabel10272400513D

 25 27  0  0  1  0  0  0  0  0999 V2000
  188.9170  177.5900  140.6730 C   0  0  0  0  0  0  0  0  0  0  0  0
  187.7980  177.8430  141.4400 C   0  0  0  0  0  0  0  0  0  0  0  0
  188.7080  178.1050  139.4370 N   0  0  0  0  0  0  0  0  0  0  0  0
  187.4980  178.6540  139.3900 N   0  0  0  0  0  0  0  0  0  0  0  0
  185.6950  178.9460  141.0350 C   0  0  2  0  0  3  0  0  0  0  0  0
  184.8280  179.6090  140.1760 O   0  0  0  0  0  1  0  0  0  0  0  0
  187.4910  177.6130  142.7810 C   0  0  0  0  0  3  0  0  0  0  0  0
  185.3420  178.7120  142.3750 C   0  0  0  0  0  3  0  0  0  0  0  0
  186.2380  178.0480  143.2530 C   0  0  0  0  0  0  0  0  0  0  0  0
  186.9410  178.4980  140.6020 C   0  0  0  0  0  0  0  0  0  0  0  0
  190.1850  176.9550  141.0850 C   0  0  0  0  0  0  0  0  0  0  0  0
  190.7920  176.2340  140.2470 O   0  0  0  0  0  0  0  0  0  0  0  0
  190.7520  177.1100  142.4420 C   0  0  0  0  0  0  0  0  0  0  0  0
  191.7550  177.3860  145.0500 C   0  0  0  0  0  3  0  0  0  0  0  0
  190.8740  175.9900  143.2790 C   0  0  0  0  0  3  0  0  0  0  0  0
  191.3780  176.1270  144.5760 C   0  0  0  0  0  3  0  0  0  0  0  0
  191.6230  178.5090  144.2290 C   0  0  0  0  0  3  0  0  0  0  0  0
  191.1180  178.3720  142.9340 C   0  0  0  0  0  3  0  0  0  0  0  0
  185.9080  177.8110  144.5900 O   0  0  0  0  0  0  0  0  0  0  0  0
  186.8560  177.4370  145.5460 C   0  0  0  0  0  3  0  0  0  0  0  0
  186.8870  177.9990  146.7530 C   0  0  0  0  0  0  0  0  0  0  0  0
  185.8950  179.0560  147.1160 C   0  0  0  0  0  1  0  0  0  0  0  0
  187.9010  177.5810  147.7380 C   0  0  0  0  0  0  0  0  0  0  0  0
  188.9870  176.7420  147.3520 N   0  0  0  0  0  1  0  0  0  0  0  0
  187.8160  177.9630  148.9350 O   0  0  0  0  0  0  0  0  0  0  0  0
  1 11  1  0  0  0  0
  1  2  1  0  0  0  0
  2  7  2  0  0  0  0
  3  1  2  0  0  0  0
  4  3  1  0  0  0  0
  4 10  2  0  0  0  0
  5  6  1  1  0  0  0
  5  8  1  0  0  0  0
  7  9  1  0  0  0  0
  8  9  2  0  0  0  0
  9 19  1  0  0  0  0
 10  5  1  0  0  0  0
 10  2  1  0  0  0  0
 11 13  1  0  0  0  0
 12 11  2  0  0  0  0
 13 18  2  0  0  0  0
 13 15  1  0  0  0  0
 15 16  2  0  0  0  0
 16 14  1  0  0  0  0
 17 14  2  0  0  0  0
 18 17  1  0  0  0  0
 19 20  1  0  0  0  0
 20 21  2  0  0  0  0
 21 22  1  0  0  0  0
 21 23  1  0  0  0  0
 23 25  2  0  0  0  0
 24 23  1  0  0  0  0
M  END
>  <MODEL>
1

>  <REMARK>
 VINA RESULT:      -8.8      0.000      0.000
  Name = 
  5 active torsions:
  status: ('A' for Active; 'I' for Inactive)
    1  A    between atoms: C_1  and  C_18
    2  A    between atoms: C_2  and  C_21
    3  A    between atoms: C_5  and  C_18
    4  A    between atoms: O_6  and  C_15
    5  A    between atoms: O_6  and  C_23
                            x       y       z     vdW  Elec       q    Type
                         _______ _______ _______ _____ _____    ______ ____

>  <TORSDO>
F 5

$$$$
=
 OpenBabel10272400513D

 25 27  0  0  0  0  0  0  0  0999 V2000
  187.6420  177.7740  146.2190 C   0  0  0  0  0  0  0  0  0  0  0  0
  186.7460  178.0160  145.1970 C   0  0  0  0  0  0  0  0  0  0  0  0
  187.0260  178.0450  147.3950 N   0  0  0  0  0  2  0  0  0  0  0  0
  185.7880  178.4650  147.1540 N   0  0  0  0  0  0  0  0  0  0  0  0
  184.4610  178.7730  145.1080 C   0  0  0  0  0  0  0  0  0  0  0  0
  183.3130  179.2160  145.7510 O   0  0  0  0  0  1  0  0  0  0  0  0
  186.8090  177.8410  143.8150 C   0  0  0  0  0  3  0  0  0  0  0  0
  184.4940  178.6300  143.7100 C   0  0  0  0  0  3  0  0  0  0  0  0
  185.6660  178.1620  143.0590 C   0  0  0  0  0  0  0  0  0  0  0  0
  185.6120  178.4500  145.8230 C   0  0  0  0  0  0  0  0  0  0  0  0
  189.0120  177.2320  146.1250 C   0  0  0  0  0  0  0  0  0  0  0  0
  189.4810  176.6170  147.1210 O   0  0  0  0  0  0  0  0  0  0  0  0
  189.8600  177.4050  144.9260 C   0  0  0  0  0  0  0  0  0  0  0  0
  191.5250  177.6840  142.6820 C   0  0  0  0  0  3  0  0  0  0  0  0
  190.0740  176.3210  144.0610 C   0  0  0  0  0  3  0  0  0  0  0  0
  190.8990  176.4620  142.9400 C   0  0  0  0  0  3  0  0  0  0  0  0
  191.3290  178.7640  143.5460 C   0  0  0  0  0  3  0  0  0  0  0  0
  190.5060  178.6240  144.6660 C   0  0  0  0  0  3  0  0  0  0  0  0
  185.7170  178.0080  141.6710 O   0  0  0  0  0  0  0  0  0  0  0  0
  185.1620  178.9370  140.7880 C   0  0  0  0  0  3  0  0  0  0  0  0
  184.0260  178.6890  140.1380 C   0  0  0  0  0  0  0  0  0  0  0  0
  183.3110  177.3930  140.3430 C   0  0  0  0  0  1  0  0  0  0  0  0
  183.4690  179.6920  139.2130 C   0  0  0  0  0  0  0  0  0  0  0  0
  182.1410  179.5600  138.7110 N   0  0  0  0  0  1  0  0  0  0  0  0
  184.1650  180.6790  138.8580 O   0  0  0  0  0  0  0  0  0  0  0  0
  1  3  1  0  0  0  0
  2 10  1  0  0  0  0
  2  1  2  0  0  0  0
  4  3  1  0  0  0  0
  5  6  1  0  0  0  0
  5 10  1  0  0  0  0
  7  2  1  0  0  0  0
  8  5  2  0  0  0  0
  9  8  1  0  0  0  0
  9  7  2  0  0  0  0
 10  4  2  0  0  0  0
 11  1  1  0  0  0  0
 11 12  2  0  0  0  0
 13 11  1  0  0  0  0
 14 16  2  0  0  0  0
 14 17  1  0  0  0  0
 15 13  2  0  0  0  0
 16 15  1  0  0  0  0
 17 18  2  0  0  0  0
 18 13  1  0  0  0  0
 19  9  1  0  0  0  0
 20 19  1  0  0  0  0
 21 22  1  0  0  0  0
 21 20  2  0  0  0  0
 23 21  1  0  0  0  0
 24 23  1  0  0  0  0
 25 23  2  0  0  0  0
M  END
>  <MODEL>
2

>  <REMARK>
 VINA RESULT:      -8.5      2.632      5.838
  Name = 
  5 active torsions:
  status: ('A' for Active; 'I' for Inactive)
    1  A    between atoms: C_1  and  C_18
    2  A    between atoms: C_2  and  C_21
    3  A    between atoms: C_5  and  C_18
    4  A    between atoms: O_6  and  C_15
    5  A    between atoms: O_6  and  C_23
                            x       y       z     vdW  Elec       q    Type
                         _______ _______ _______ _____ _____    ______ ____

>  <TORSDO>
F 5

$$$$
=
 OpenBabel10272400513D

 25 27  0  0  0  0  0  0  0  0999 V2000
  187.6970  177.7080  146.2150 C   0  0  0  0  0  0  0  0  0  0  0  0
  186.8890  178.0320  145.1440 C   0  0  0  0  0  0  0  0  0  0  0  0
  186.9800  177.8740  147.3520 N   0  0  0  0  0  2  0  0  0  0  0  0
  185.7610  178.3070  147.0420 N   0  0  0  0  0  0  0  0  0  0  0  0
  184.6100  178.7810  144.9220 C   0  0  0  0  0  0  0  0  0  0  0  0
  183.4060  179.1610  145.4990 O   0  0  0  0  0  1  0  0  0  0  0  0
  187.0720  177.9760  143.7630 C   0  0  0  0  0  3  0  0  0  0  0  0
  184.7650  178.7580  143.5250 C   0  0  0  0  0  3  0  0  0  0  0  0
  185.9940  178.3540  142.9400 C   0  0  0  0  0  0  0  0  0  0  0  0
  185.7000  178.4050  145.7040 C   0  0  0  0  0  0  0  0  0  0  0  0
  189.0780  177.1840  146.1950 C   0  0  0  0  0  0  0  0  0  0  0  0
  189.5010  176.5760  147.2150 O   0  0  0  0  0  0  0  0  0  0  0  0
  189.9850  177.3670  145.0410 C   0  0  0  0  0  0  0  0  0  0  0  0
  191.6490  177.7620  142.8150 C   0  0  0  0  0  3  0  0  0  0  0  0
  190.5430  178.6290  144.7860 C   0  0  0  0  0  3  0  0  0  0  0  0
  191.3770  178.8240  143.6800 C   0  0  0  0  0  3  0  0  0  0  0  0
  191.0860  176.5060  143.0520 C   0  0  0  0  0  3  0  0  0  0  0  0
  190.2520  176.3110  144.1560 C   0  0  0  0  0  3  0  0  0  0  0  0
  186.1650  178.3190  141.5540 O   0  0  0  0  0  0  0  0  0  0  0  0
  187.4160  178.4400  140.9460 C   0  0  0  0  0  3  0  0  0  0  0  0
  187.5630  178.3370  139.6250 C   0  0  0  0  0  0  0  0  0  0  0  0
  186.3740  178.0860  138.7560 C   0  0  0  0  0  1  0  0  0  0  0  0
  188.8980  178.4700  139.0170 C   0  0  0  0  0  0  0  0  0  0  0  0
  189.0860  179.2490  137.8370 N   0  0  0  0  0  1  0  0  0  0  0  0
  189.8900  177.8930  139.5360 O   0  0  0  0  0  0  0  0  0  0  0  0
  1  3  1  0  0  0  0
  2 10  1  0  0  0  0
  2  1  2  0  0  0  0
  4  3  1  0  0  0  0
  5  6  1  0  0  0  0
  5 10  1  0  0  0  0
  7  2  1  0  0  0  0
  8  5  2  0  0  0  0
  9  8  1  0  0  0  0
  9  7  2  0  0  0  0
 10  4  2  0  0  0  0
 11  1  1  0  0  0  0
 11 12  2  0  0  0  0
 13 11  1  0  0  0  0
 14 17  2  0  0  0  0
 14 16  1  0  0  0  0
 15 13  1  0  0  0  0
 16 15  2  0  0  0  0
 17 18  1  0  0  0  0
 18 13  2  0  0  0  0
 19  9  1  0  0  0  0
 20 19  1  0  0  0  0
 21 20  2  0  0  0  0
 22 21  1  0  0  0  0
 23 25  2  0  0  0  0
 23 21  1  0  0  0  0
 24 23  1  0  0  0  0
M  END
>  <MODEL>
3

>  <REMARK>
 VINA RESULT:      -8.5      1.805      5.634
  Name = 
  5 active torsions:
  status: ('A' for Active; 'I' for Inactive)
    1  A    between atoms: C_1  and  C_18
    2  A    between atoms: C_2  and  C_21
    3  A    between atoms: C_5  and  C_18
    4  A    between atoms: O_6  and  C_15
    5  A    between atoms: O_6  and  C_23
                            x       y       z     vdW  Elec       q    Type
                         _______ _______ _______ _____ _____    ______ ____

>  <TORSDO>
F 5

$$$$
=
 OpenBabel10272400513D

 25 27  0  0  0  0  0  0  0  0999 V2000
  185.0390  178.7850  144.6960 C   0  0  0  0  0  0  0  0  0  0  0  0
  186.2480  178.1680  144.9460 C   0  0  0  0  0  0  0  0  0  0  0  0
  184.5180  179.1920  145.8780 N   0  0  0  0  0  2  0  0  0  0  0  0
  185.3380  178.8400  146.8630 N   0  0  0  0  0  0  0  0  0  0  0  0
  187.5200  177.7090  146.9400 C   0  0  0  0  0  0  0  0  0  0  0  0
  187.6560  177.7610  148.3210 O   0  0  0  0  0  1  0  0  0  0  0  0
  187.2340  177.6350  144.1180 C   0  0  0  0  0  3  0  0  0  0  0  0
  188.5260  177.1430  146.1380 C   0  0  0  0  0  3  0  0  0  0  0  0
  188.3890  177.1060  144.7260 C   0  0  0  0  0  0  0  0  0  0  0  0
  186.3900  178.2180  146.3040 C   0  0  0  0  0  0  0  0  0  0  0  0
  184.4070  179.0640  143.3900 C   0  0  0  0  0  0  0  0  0  0  0  0
  185.1210  179.5540  142.4740 O   0  0  0  0  0  0  0  0  0  0  0  0
  182.9730  178.8170  143.1280 C   0  0  0  0  0  0  0  0  0  0  0  0
  180.2450  178.4210  142.5930 C   0  0  0  0  0  3  0  0  0  0  0  0
  182.5230  178.6590  141.8080 C   0  0  0  0  0  3  0  0  0  0  0  0
  181.1650  178.4560  141.5430 C   0  0  0  0  0  3  0  0  0  0  0  0
  180.6820  178.5930  143.9090 C   0  0  0  0  0  3  0  0  0  0  0  0
  182.0390  178.7960  144.1740 C   0  0  0  0  0  3  0  0  0  0  0  0
  189.3800  176.5530  143.9110 O   0  0  0  0  0  0  0  0  0  0  0  0
  189.2960  176.5500  142.5170 C   0  0  0  0  0  3  0  0  0  0  0  0
  190.3110  176.9590  141.7560 C   0  0  0  0  0  0  0  0  0  0  0  0
  191.5790  177.4340  142.3880 C   0  0  0  0  0  1  0  0  0  0  0  0
  190.1870  176.9430  140.2880 C   0  0  0  0  0  0  0  0  0  0  0  0
  189.4570  177.9620  139.6080 N   0  0  0  0  0  1  0  0  0  0  0  0
  190.7290  176.0240  139.6180 O   0  0  0  0  0  0  0  0  0  0  0  0
  1  2  2  0  0  0  0
  1  3  1  0  0  0  0
  2 10  1  0  0  0  0
  3  4  1  0  0  0  0
  5  6  1  0  0  0  0
  7  9  2  0  0  0  0
  7  2  1  0  0  0  0
  8  5  2  0  0  0  0
  9  8  1  0  0  0  0
 10  4  2  0  0  0  0
 10  5  1  0  0  0  0
 11  1  1  0  0  0  0
 12 11  2  0  0  0  0
 13 11  1  0  0  0  0
 13 18  1  0  0  0  0
 14 17  1  0  0  0  0
 15 13  2  0  0  0  0
 16 15  1  0  0  0  0
 16 14  2  0  0  0  0
 17 18  2  0  0  0  0
 19  9  1  0  0  0  0
 20 19  1  0  0  0  0
 21 22  1  0  0  0  0
 21 20  2  0  0  0  0
 23 21  1  0  0  0  0
 24 23  1  0  0  0  0
 25 23  2  0  0  0  0
M  END
>  <MODEL>
4

>  <REMARK>
 VINA RESULT:      -8.4      2.720      7.479
  Name = 
  5 active torsions:
  status: ('A' for Active; 'I' for Inactive)
    1  A    between atoms: C_1  and  C_18
    2  A    between atoms: C_2  and  C_21
    3  A    between atoms: C_5  and  C_18
    4  A    between atoms: O_6  and  C_15
    5  A    between atoms: O_6  and  C_23
                            x       y       z     vdW  Elec       q    Type
                         _______ _______ _______ _____ _____    ______ ____

>  <TORSDO>
F 5

$$$$
=
 OpenBabel10272400513D

 25 27  0  0  1  0  0  0  0  0999 V2000
  186.7010  178.3590  142.5530 C   0  0  0  0  0  0  0  0  0  0  0  0
  186.4880  178.1990  143.9070 C   0  0  1  0  0  3  0  0  0  0  0  0
  185.5920  178.9190  142.0130 N   0  0  0  0  0  0  0  0  0  0  0  0
  184.6830  179.1000  142.9670 N   0  0  0  0  0  0  0  0  0  0  0  0
  184.6540  178.6900  145.3900 C   0  0  0  0  0  0  0  0  0  0  0  0
  183.3650  179.1630  145.5970 O   0  0  0  0  0  1  0  0  0  0  0  0
  187.2960  177.7520  144.9510 C   0  0  0  0  0  3  0  0  0  0  0  0
  185.4320  178.2260  146.4650 C   0  0  0  0  0  3  0  0  0  0  0  0
  186.7550  177.7570  146.2510 C   0  0  0  0  0  0  0  0  0  0  0  0
  185.2210  178.6650  144.1180 C   0  0  0  0  0  0  0  0  0  0  0  0
  187.9260  178.0740  141.7790 C   0  0  0  0  0  0  0  0  0  0  0  0
  187.8910  178.2260  140.5280 O   0  0  0  0  0  0  0  0  0  0  0  0
  189.1750  177.5950  142.4090 C   0  0  0  0  0  0  0  0  0  0  0  0
  191.5900  176.7190  143.5420 C   0  0  0  0  0  3  0  0  0  0  0  0
  190.0990  178.5210  142.9170 C   0  0  0  0  0  3  0  0  0  0  0  0
  191.2990  178.0840  143.4860 C   0  0  0  0  0  3  0  0  0  0  0  0
  190.6830  175.7900  143.0250 C   0  0  0  0  0  3  0  0  0  0  0  0
  189.4840  176.2270  142.4550 C   0  0  0  0  0  3  0  0  0  0  0  0
  187.5460  177.2970  147.3070 O   0  0  0  0  0  0  0  0  0  0  0  0
  188.8070  176.7290  147.1130 C   0  0  0  0  0  3  0  0  0  0  0  0
  189.8930  177.2250  147.7050 C   0  0  0  0  0  0  0  0  0  0  0  0
  189.7830  178.4140  148.6020 C   0  0  0  0  0  1  0  0  0  0  0  0
  191.2090  176.6000  147.4770 C   0  0  0  0  0  0  0  0  0  0  0  0
  192.3200  176.9210  148.3100 N   0  0  0  0  0  1  0  0  0  0  0  0
  191.3620  175.7740  146.5390 O   0  0  0  0  0  0  0  0  0  0  0  0
  1  2  1  0  0  0  0
  2 10  1  0  0  0  0
  2  7  1  1  0  0  0
  3  1  2  0  0  0  0
  3  4  1  0  0  0  0
  4 10  2  0  0  0  0
  5  6  1  0  0  0  0
  5  8  2  0  0  0  0
  7  9  2  0  0  0  0
  9  8  1  0  0  0  0
  9 19  1  0  0  0  0
 10  5  1  0  0  0  0
 11 13  1  0  0  0  0
 11  1  1  0  0  0  0
 12 11  2  0  0  0  0
 13 18  2  0  0  0  0
 13 15  1  0  0  0  0
 15 16  2  0  0  0  0
 16 14  1  0  0  0  0
 17 14  2  0  0  0  0
 18 17  1  0  0  0  0
 20 19  1  0  0  0  0
 20 21  2  0  0  0  0
 21 22  1  0  0  0  0
 23 21  1  0  0  0  0
 23 24  1  0  0  0  0
 25 23  2  0  0  0  0
M  END
>  <MODEL>
5

>  <REMARK>
 VINA RESULT:      -8.3      2.253      3.463
  Name = 
  5 active torsions:
  status: ('A' for Active; 'I' for Inactive)
    1  A    between atoms: C_1  and  C_18
    2  A    between atoms: C_2  and  C_21
    3  A    between atoms: C_5  and  C_18
    4  A    between atoms: O_6  and  C_15
    5  A    between atoms: O_6  and  C_23
                            x       y       z     vdW  Elec       q    Type
                         _______ _______ _______ _____ _____    ______ ____

>  <TORSDO>
F 5

$$$$
=
 OpenBabel10272400513D

 25 27  0  0  0  0  0  0  0  0999 V2000
  187.2510  178.0810  146.9060 C   0  0  0  0  0  0  0  0  0  0  0  0
  188.3360  177.7200  146.1330 C   0  0  0  0  0  0  0  0  0  0  0  0
  187.4780  177.6650  148.1760 N   0  0  0  0  0  2  0  0  0  0  0  0
  188.6510  177.0410  148.2300 N   0  0  0  0  0  0  0  0  0  0  0  0
  190.4090  176.5750  146.5760 C   0  0  0  0  0  0  0  0  0  0  0  0
  191.2570  175.9140  147.4560 O   0  0  0  0  0  1  0  0  0  0  0  0
  188.6750  177.9510  144.8010 C   0  0  0  0  0  3  0  0  0  0  0  0
  190.7750  176.7690  145.2330 C   0  0  0  0  0  3  0  0  0  0  0  0
  189.9110  177.4590  144.3410 C   0  0  0  0  0  0  0  0  0  0  0  0
  189.1770  177.0710  146.9940 C   0  0  0  0  0  0  0  0  0  0  0  0
  186.0610  178.8590  146.5060 C   0  0  0  0  0  0  0  0  0  0  0  0
  185.6090  179.7160  147.3130 O   0  0  0  0  0  0  0  0  0  0  0  0
  185.3700  178.6540  145.2150 C   0  0  0  0  0  0  0  0  0  0  0  0
  184.0990  178.3270  142.7320 C   0  0  0  0  0  3  0  0  0  0  0  0
  186.0940  178.2050  144.1000 C   0  0  0  0  0  3  0  0  0  0  0  0
  185.4590  178.0380  142.8650 C   0  0  0  0  0  3  0  0  0  0  0  0
  183.3740  178.7890  143.8340 C   0  0  0  0  0  3  0  0  0  0  0  0
  184.0080  178.9570  145.0680 C   0  0  0  0  0  3  0  0  0  0  0  0
  190.2590  177.6680  143.0040 O   0  0  0  0  0  0  0  0  0  0  0  0
  189.3640  178.1820  142.0640 C   0  0  0  0  0  3  0  0  0  0  0  0
  189.4390  177.8490  140.7760 C   0  0  0  0  0  0  0  0  0  0  0  0
  190.4970  176.9050  140.3040 C   0  0  0  0  0  1  0  0  0  0  0  0
  188.4770  178.4110  139.8100 C   0  0  0  0  0  0  0  0  0  0  0  0
  188.9260  178.9630  138.5750 N   0  0  0  0  0  1  0  0  0  0  0  0
  187.2450  178.4070  140.0700 O   0  0  0  0  0  0  0  0  0  0  0  0
  1  3  1  0  0  0  0
  2  1  2  0  0  0  0
  2 10  1  0  0  0  0
  3  4  1  0  0  0  0
  5 10  1  0  0  0  0
  5  6  1  0  0  0  0
  7  2  1  0  0  0  0
  8  5  2  0  0  0  0
  9  7  2  0  0  0  0
  9  8  1  0  0  0  0
 10  4  2  0  0  0  0
 11  1  1  0  0  0  0
 11 12  2  0  0  0  0
 13 11  1  0  0  0  0
 14 16  2  0  0  0  0
 14 17  1  0  0  0  0
 15 13  2  0  0  0  0
 16 15  1  0  0  0  0
 17 18  2  0  0  0  0
 18 13  1  0  0  0  0
 19  9  1  0  0  0  0
 20 19  1  0  0  0  0
 21 20  2  0  0  0  0
 22 21  1  0  0  0  0
 23 25  2  0  0  0  0
 23 21  1  0  0  0  0
 24 23  1  0  0  0  0
M  END
>  <MODEL>
6

>  <REMARK>
 VINA RESULT:      -8.3      1.980      7.259
  Name = 
  5 active torsions:
  status: ('A' for Active; 'I' for Inactive)
    1  A    between atoms: C_1  and  C_18
    2  A    between atoms: C_2  and  C_21
    3  A    between atoms: C_5  and  C_18
    4  A    between atoms: O_6  and  C_15
    5  A    between atoms: O_6  and  C_23
                            x       y       z     vdW  Elec       q    Type
                         _______ _______ _______ _____ _____    ______ ____

>  <TORSDO>
F 5

$$$$
=
 OpenBabel10272400513D

 25 27  0  0  0  0  0  0  0  0999 V2000
  190.7250  177.9140  142.5590 C   0  0  0  0  0  0  0  0  0  0  0  0
  189.6470  177.9690  141.6980 C   0  0  0  0  0  0  0  0  0  0  0  0
  191.7410  177.2800  141.9250 N   0  0  0  0  0  2  0  0  0  0  0  0
  191.3410  176.9170  140.7100 N   0  0  0  0  0  0  0  0  0  0  0  0
  189.2530  177.2090  139.4460 C   0  0  0  0  0  0  0  0  0  0  0  0
  189.6910  176.5580  138.3000 O   0  0  0  0  0  1  0  0  0  0  0  0
  188.3870  178.5580  141.7880 C   0  0  0  0  0  3  0  0  0  0  0  0
  187.9660  177.7710  139.5080 C   0  0  0  0  0  3  0  0  0  0  0  0
  187.5290  178.4500  140.6760 C   0  0  0  0  0  0  0  0  0  0  0  0
  190.0720  177.3320  140.5660 C   0  0  0  0  0  0  0  0  0  0  0  0
  190.8480  178.4980  143.9100 C   0  0  0  0  0  0  0  0  0  0  0  0
  191.4750  179.5840  144.0370 O   0  0  0  0  0  0  0  0  0  0  0  0
  190.2890  177.8470  145.1150 C   0  0  0  0  0  0  0  0  0  0  0  0
  189.2150  176.6880  147.4360 C   0  0  0  0  0  3  0  0  0  0  0  0
  188.9270  177.9950  145.4180 C   0  0  0  0  0  3  0  0  0  0  0  0
  188.3910  177.4130  146.5720 C   0  0  0  0  0  3  0  0  0  0  0  0
  190.5760  176.5490  147.1500 C   0  0  0  0  0  3  0  0  0  0  0  0
  191.1110  177.1310  145.9980 C   0  0  0  0  0  3  0  0  0  0  0  0
  186.2560  179.0210  140.7550 O   0  0  0  0  0  0  0  0  0  0  0  0
  185.5770  179.1840  141.9640 C   0  0  0  0  0  3  0  0  0  0  0  0
  184.3440  178.7080  142.1400 C   0  0  0  0  0  0  0  0  0  0  0  0
  183.6550  177.9790  141.0330 C   0  0  0  0  0  1  0  0  0  0  0  0
  183.6560  178.8980  143.4300 C   0  0  0  0  0  0  0  0  0  0  0  0
  184.4000  179.0620  144.6350 N   0  0  0  0  0  1  0  0  0  0  0  0
  182.3980  178.9170  143.4780 O   0  0  0  0  0  0  0  0  0  0  0  0
  1 11  1  0  0  0  0
  2  7  1  0  0  0  0
  2  1  2  0  0  0  0
  3  1  1  0  0  0  0
  4  3  1  0  0  0  0
  5  8  2  0  0  0  0
  5 10  1  0  0  0  0
  6  5  1  0  0  0  0
  8  9  1  0  0  0  0
  9 19  1  0  0  0  0
  9  7  2  0  0  0  0
 10  4  2  0  0  0  0
 10  2  1  0  0  0  0
 11 12  2  0  0  0  0
 11 13  1  0  0  0  0
 13 15  2  0  0  0  0
 13 18  1  0  0  0  0
 15 16  1  0  0  0  0
 16 14  2  0  0  0  0
 17 14  1  0  0  0  0
 18 17  2  0  0  0  0
 19 20  1  0  0  0  0
 20 21  2  0  0  0  0
 21 23  1  0  0  0  0
 22 21  1  0  0  0  0
 23 25  2  0  0  0  0
 23 24  1  0  0  0  0
M  END
>  <MODEL>
7

>  <REMARK>
 VINA RESULT:      -8.3      2.562      4.405
  Name = 
  5 active torsions:
  status: ('A' for Active; 'I' for Inactive)
    1  A    between atoms: C_1  and  C_18
    2  A    between atoms: C_2  and  C_21
    3  A    between atoms: C_5  and  C_18
    4  A    between atoms: O_6  and  C_15
    5  A    between atoms: O_6  and  C_23
                            x       y       z     vdW  Elec       q    Type
                         _______ _______ _______ _____ _____    ______ ____

>  <TORSDO>
F 5

$$$$
=
 OpenBabel10272400513D

 25 27  0  0  1  0  0  0  0  0999 V2000
  185.7260  178.5270  142.4590 C   0  0  0  0  0  0  0  0  0  0  0  0
  186.9800  178.1230  142.0480 C   0  0  0  0  0  0  0  0  0  0  0  0
  185.1280  179.1700  141.4260 N   0  0  0  0  0  0  0  0  0  0  0  0
  185.9610  179.2030  140.3900 N   0  0  0  0  0  0  0  0  0  0  0  0
  188.2220  178.3250  139.9930 C   0  0  2  0  0  3  0  0  0  0  0  0
  188.3230  178.7840  138.6870 O   0  0  0  0  0  1  0  0  0  0  0  0
  187.9840  177.3720  142.6560 C   0  0  0  0  0  3  0  0  0  0  0  0
  189.2650  177.5890  140.5810 C   0  0  0  0  0  3  0  0  0  0  0  0
  189.1500  177.1080  141.9120 C   0  0  0  0  0  0  0  0  0  0  0  0
  187.0860  178.5700  140.7610 C   0  0  0  0  0  0  0  0  0  0  0  0
  185.0560  178.2650  143.7490 C   0  0  0  0  0  0  0  0  0  0  0  0
  183.8170  178.0330  143.7430 O   0  0  0  0  0  0  0  0  0  0  0  0
  185.7760  178.2880  145.0410 C   0  0  0  0  0  0  0  0  0  0  0  0
  187.1020  178.2630  147.5160 C   0  0  0  0  0  3  0  0  0  0  0  0
  186.7300  177.2990  145.3260 C   0  0  0  0  0  3  0  0  0  0  0  0
  187.3940  177.2900  146.5560 C   0  0  0  0  0  3  0  0  0  0  0  0
  186.1430  179.2420  147.2470 C   0  0  0  0  0  3  0  0  0  0  0  0
  185.4780  179.2510  146.0170 C   0  0  0  0  0  3  0  0  0  0  0  0
  190.1740  176.3700  142.5120 O   0  0  0  0  0  0  0  0  0  0  0  0
  190.2950  176.2360  143.8970 C   0  0  0  0  0  3  0  0  0  0  0  0
  191.0270  177.0840  144.6180 C   0  0  0  0  0  0  0  0  0  0  0  0
  191.7440  178.2130  143.9500 C   0  0  0  0  0  1  0  0  0  0  0  0
  191.1330  176.9130  146.0780 C   0  0  0  0  0  0  0  0  0  0  0  0
  191.9890  175.9180  146.6340 N   0  0  0  0  0  1  0  0  0  0  0  0
  190.4640  177.6490  146.8510 O   0  0  0  0  0  0  0  0  0  0  0  0
  1 11  1  0  0  0  0
  2  1  1  0  0  0  0
  2  7  2  0  0  0  0
  3  1  2  0  0  0  0
  4 10  2  0  0  0  0
  4  3  1  0  0  0  0
  5  6  1  6  0  0  0
  5  8  1  0  0  0  0
  5 10  1  0  0  0  0
  8  9  2  0  0  0  0
  9 19  1  0  0  0  0
  9  7  1  0  0  0  0
 10  2  1  0  0  0  0
 11 13  1  0  0  0  0
 12 11  2  0  0  0  0
 13 15  2  0  0  0  0
 13 18  1  0  0  0  0
 15 16  1  0  0  0  0
 16 14  2  0  0  0  0
 17 14  1  0  0  0  0
 18 17  2  0  0  0  0
 19 20  1  0  0  0  0
 20 21  2  0  0  0  0
 21 23  1  0  0  0  0
 22 21  1  0  0  0  0
 23 24  1  0  0  0  0
 23 25  2  0  0  0  0
M  END
>  <MODEL>
8

>  <REMARK>
 VINA RESULT:      -8.1      1.749      4.566
  Name = 
  5 active torsions:
  status: ('A' for Active; 'I' for Inactive)
    1  A    between atoms: C_1  and  C_18
    2  A    between atoms: C_2  and  C_21
    3  A    between atoms: C_5  and  C_18
    4  A    between atoms: O_6  and  C_15
    5  A    between atoms: O_6  and  C_23
                            x       y       z     vdW  Elec       q    Type
                         _______ _______ _______ _____ _____    ______ ____

>  <TORSDO>
F 5

$$$$
=
 OpenBabel10272400513D

 25 27  0  0  0  0  0  0  0  0999 V2000
  184.0630  178.8020  143.0200 C   0  0  0  0  0  0  0  0  0  0  0  0
  185.1500  178.4630  143.8000 C   0  0  0  0  0  0  0  0  0  0  0  0
  183.0730  179.2350  143.8370 N   0  0  0  0  0  2  0  0  0  0  0  0
  183.4850  179.1650  145.1000 N   0  0  0  0  0  0  0  0  0  0  0  0
  185.5940  178.4940  146.1680 C   0  0  0  0  0  0  0  0  0  0  0  0
  185.1740  178.7320  147.4700 O   0  0  0  0  0  1  0  0  0  0  0  0
  186.4430  178.0390  143.4990 C   0  0  0  0  0  3  0  0  0  0  0  0
  186.8990  178.0440  145.9040 C   0  0  0  0  0  3  0  0  0  0  0  0
  187.3300  177.8170  144.5700 C   0  0  0  0  0  0  0  0  0  0  0  0
  184.7440  178.6980  145.0840 C   0  0  0  0  0  0  0  0  0  0  0  0
  183.9580  178.8000  141.5470 C   0  0  0  0  0  0  0  0  0  0  0  0
  184.8460  179.4000  140.8840 O   0  0  0  0  0  0  0  0  0  0  0  0
  182.8440  178.1470  140.8260 C   0  0  0  0  0  0  0  0  0  0  0  0
  180.7690  176.9180  139.3870 C   0  0  0  0  0  3  0  0  0  0  0  0
  183.0490  176.9070  140.2020 C   0  0  0  0  0  3  0  0  0  0  0  0
  182.0140  176.2930  139.4900 C   0  0  0  0  0  3  0  0  0  0  0  0
  180.5600  178.1600  139.9920 C   0  0  0  0  0  3  0  0  0  0  0  0
  181.5950  178.7740  140.7030 C   0  0  0  0  0  3  0  0  0  0  0  0
  188.6250  177.3760  144.2860 O   0  0  0  0  0  0  0  0  0  0  0  0
  189.4610  176.8200  145.2560 C   0  0  0  0  0  3  0  0  0  0  0  0
  190.7560  177.1270  145.3190 C   0  0  0  0  0  0  0  0  0  0  0  0
  191.3480  178.0880  144.3400 C   0  0  0  0  0  1  0  0  0  0  0  0
  191.6100  176.5210  146.3560 C   0  0  0  0  0  0  0  0  0  0  0  0
  191.6090  177.0290  147.6880 N   0  0  0  0  0  1  0  0  0  0  0  0
  192.3520  175.5430  146.0720 O   0  0  0  0  0  0  0  0  0  0  0  0
  1  2  2  0  0  0  0
  1  3  1  0  0  0  0
  2 10  1  0  0  0  0
  3  4  1  0  0  0  0
  5  6  1  0  0  0  0
  7  2  1  0  0  0  0
  7  9  2  0  0  0  0
  8  5  2  0  0  0  0
  9  8  1  0  0  0  0
 10  4  2  0  0  0  0
 10  5  1  0  0  0  0
 11  1  1  0  0  0  0
 12 11  2  0  0  0  0
 13 11  1  0  0  0  0
 14 16  2  0  0  0  0
 14 17  1  0  0  0  0
 15 13  2  0  0  0  0
 16 15  1  0  0  0  0
 17 18  2  0  0  0  0
 18 13  1  0  0  0  0
 19  9  1  0  0  0  0
 19 20  1  0  0  0  0
 20 21  2  0  0  0  0
 21 23  1  0  0  0  0
 22 21  1  0  0  0  0
 23 24  1  0  0  0  0
 25 23  2  0  0  0  0
M  END
>  <MODEL>
9

>  <REMARK>
 VINA RESULT:      -8.0      3.369      6.720
  Name = 
  5 active torsions:
  status: ('A' for Active; 'I' for Inactive)
    1  A    between atoms: C_1  and  C_18
    2  A    between atoms: C_2  and  C_21
    3  A    between atoms: C_5  and  C_18
    4  A    between atoms: O_6  and  C_15
    5  A    between atoms: O_6  and  C_23
                            x       y       z     vdW  Elec       q    Type
                         _______ _______ _______ _____ _____    ______ ____

>  <TORSDO>
F 5

$$$$
