=
 OpenBabel10272413203D

 32 33  0  0  1  0  0  0  0  0999 V2000
  188.0450  176.3910  143.0880 C   0  0  0  0  0  2  0  0  0  0  0  0
  188.9530  176.7890  142.0260 N   0  0  0  0  0  2  0  0  0  0  0  0
  190.3070  176.5450  142.5070 C   0  0  1  0  0  3  0  0  0  0  0  0
  191.3780  176.8680  141.4590 C   0  0  2  0  0  3  0  0  0  0  0  0
  191.0650  177.8550  142.5640 C   0  0  0  0  0  2  0  0  0  0  0  0
  190.8240  177.3890  140.1350 C   0  0  0  0  0  2  0  0  0  0  0  0
  191.1050  176.4060  139.0090 C   0  0  2  0  0  3  0  0  0  0  0  0
  192.5190  176.5990  138.4720 C   0  0  0  0  0  1  0  0  0  0  0  0
  190.0300  176.5240  137.9200 C   0  0  1  0  0  3  0  0  0  0  0  0
  190.2680  174.0520  137.5170 O   0  0  0  0  0  1  0  0  0  0  0  0
  189.5260  175.2180  137.3740 C   0  0  0  0  0  0  0  0  0  0  0  0
  188.4210  175.1830  136.7730 O   0  0  0  0  0  0  0  0  0  0  0  0
  188.9210  177.5260  138.2400 C   0  0  0  0  0  2  0  0  0  0  0  0
  188.8570  178.6790  137.2450 C   0  0  0  0  0  2  0  0  0  0  0  0
  186.4490  178.0820  137.4450 C   0  0  0  0  0  1  0  0  0  0  0  0
  187.5040  178.7100  136.5570 C   0  0  0  0  0  2  0  0  0  0  0  0
  187.3350  177.6150  143.6610 C   0  0  2  0  0  3  0  0  0  0  0  0
  187.5820  177.7370  145.1340 C   0  0  0  0  0  0  0  0  0  0  0  0
  186.5650  178.1410  146.0110 C   0  0  0  0  0  3  0  0  0  0  0  0
  188.8440  177.4160  145.6440 C   0  0  0  0  0  3  0  0  0  0  0  0
  188.3100  178.0060  149.2560 O   0  0  0  0  0  1  0  0  0  0  0  0
  188.0770  177.9130  147.8890 C   0  0  0  0  0  0  0  0  0  0  0  0
  186.8130  178.2300  147.3830 C   0  0  0  0  0  3  0  0  0  0  0  0
  189.1020  177.5040  147.0210 C   0  0  0  0  0  0  0  0  0  0  0  0
  190.3910  177.1770  147.5510 N   0  0  0  0  0  2  0  0  0  0  0  0
  191.3370  176.2880  146.8880 C   0  0  0  0  0  2  0  0  0  0  0  0
  192.4110  175.8520  147.8650 C   0  0  0  0  0  1  0  0  0  0  0  0
  185.8390  177.5650  143.3720 C   0  0  0  0  0  2  0  0  0  0  0  0
  185.3650  178.8460  142.7020 C   0  0  2  0  0  3  0  0  0  0  0  0
  183.8670  178.7600  142.4790 C   0  0  0  0  0  1  0  0  0  0  0  0
  185.1800  179.5390  140.4200 O   0  0  0  0  0  1  0  0  0  0  0  0
  186.0700  179.0330  141.3660 C   0  0  0  0  0  2  0  0  0  0  0  0
  2  1  1  0  0  0  0
  3  2  1  6  0  0  0
  3  5  1  0  0  0  0
  4  6  1  6  0  0  0
  4  3  1  0  0  0  0
  4  5  1  0  0  0  0
  7  8  1  6  0  0  0
  7  6  1  0  0  0  0
  9 13  1  1  0  0  0
  9  7  1  0  0  0  0
 11 10  1  0  0  0  0
 11  9  1  0  0  0  0
 12 11  2  0  0  0  0
 14 13  1  0  0  0  0
 16 14  1  0  0  0  0
 16 15  1  0  0  0  0
 17  1  1  1  0  0  0
 17 18  1  0  0  0  0
 18 20  2  0  0  0  0
 18 19  1  0  0  0  0
 19 23  2  0  0  0  0
 20 24  1  0  0  0  0
 22 21  1  0  0  0  0
 23 22  1  0  0  0  0
 24 25  1  0  0  0  0
 24 22  2  0  0  0  0
 26 25  1  0  0  0  0
 26 27  1  0  0  0  0
 28 17  1  0  0  0  0
 29 30  1  6  0  0  0
 29 28  1  0  0  0  0
 31 32  1  0  0  0  0
 32 29  1  0  0  0  0
M  END
>  <MODEL>
1

>  <REMARK>
 VINA RESULT:      -7.4      0.000      0.000
  Name = 
  16 active torsions:
  status: ('A' for Active; 'I' for Inactive)
    1  A    between atoms: N_1  and  C_4
    2  A    between atoms: N_1  and  C_5
    3  A    between atoms: C_2  and  C_14
    4  A    between atoms: C_3  and  C_15
    5  A    between atoms: C_3  and  C_20
    6  A    between atoms: C_3  and  C_22
    7  A    between atoms: C_5  and  C_14
    8  A    between atoms: C_9  and  N_28
    9  A    between atoms: C_13  and  C_29
   10  A    between atoms: C_13  and  C_30
   11  A    between atoms: C_14  and  C_30
   12  A    between atoms: C_15  and  C_26
   13  A    between atoms: C_16  and  C_20
   14  A    between atoms: C_16  and  C_24
   15  A    between atoms: C_19  and  C_26
   16  A    between atoms: N_28  and  C_32
                            x       y       z     vdW  Elec       q    Type
                         _______ _______ _______ _____ _____    ______ ____

>  <TORSDO>
F 16

$$$$
=
 OpenBabel10272413203D

 32 33  0  0  1  0  0  0  0  0999 V2000
  188.4910  176.3840  143.0470 C   0  0  0  0  0  2  0  0  0  0  0  0
  189.2070  177.2800  142.1540 N   0  0  0  0  0  2  0  0  0  0  0  0
  190.2480  176.4950  141.5050 C   0  0  1  0  0  3  0  0  0  0  0  0
  190.4460  176.8730  140.0320 C   0  0  2  0  0  3  0  0  0  0  0  0
  191.3840  177.4080  141.0940 C   0  0  0  0  0  2  0  0  0  0  0  0
  189.5330  177.9950  139.5440 C   0  0  0  0  0  2  0  0  0  0  0  0
  189.1680  177.7940  138.0810 C   0  0  2  0  0  3  0  0  0  0  0  0
  189.1180  179.1330  137.3530 C   0  0  0  0  0  1  0  0  0  0  0  0
  187.8600  177.0000  137.9640 C   0  0  1  0  0  3  0  0  0  0  0  0
  186.0380  178.6380  138.5340 O   0  0  0  0  0  1  0  0  0  0  0  0
  186.6490  177.8110  137.6000 C   0  0  0  0  0  0  0  0  0  0  0  0
  186.1790  177.7340  136.4350 O   0  0  0  0  0  0  0  0  0  0  0  0
  187.9870  175.6960  137.1760 C   0  0  0  0  0  2  0  0  0  0  0  0
  189.0760  175.7480  136.1110 C   0  0  0  0  0  2  0  0  0  0  0  0
  190.8030  174.4180  137.3120 C   0  0  0  0  0  1  0  0  0  0  0  0
  189.8790  174.4600  136.1110 C   0  0  0  0  0  2  0  0  0  0  0  0
  188.4670  176.9580  144.4610 C   0  0  2  0  0  3  0  0  0  0  0  0
  187.1250  177.5440  144.7790 C   0  0  0  0  0  0  0  0  0  0  0  0
  186.7840  177.9140  146.0890 C   0  0  0  0  0  3  0  0  0  0  0  0
  186.2070  177.7490  143.7440 C   0  0  0  0  0  3  0  0  0  0  0  0
  183.3770  179.2360  145.6050 O   0  0  0  0  0  1  0  0  0  0  0  0
  184.6170  178.6760  145.3220 C   0  0  0  0  0  0  0  0  0  0  0  0
  185.5340  178.4760  146.3580 C   0  0  0  0  0  3  0  0  0  0  0  0
  184.9480  178.3120  144.0070 C   0  0  0  0  0  0  0  0  0  0  0  0
  184.0020  178.5260  142.9540 N   0  0  0  0  0  2  0  0  0  0  0  0
  184.3590  178.5620  141.5410 C   0  0  0  0  0  2  0  0  0  0  0  0
  183.2560  177.9350  140.7110 C   0  0  0  0  0  1  0  0  0  0  0  0
  189.5640  178.0000  144.6480 C   0  0  0  0  0  2  0  0  0  0  0  0
  190.6310  177.5090  145.6150 C   0  0  2  0  0  3  0  0  0  0  0  0
  191.5750  176.5810  144.8760 C   0  0  0  0  0  1  0  0  0  0  0  0
  189.8160  177.6220  147.8600 O   0  0  0  0  0  1  0  0  0  0  0  0
  189.9860  176.7650  146.7750 C   0  0  0  0  0  2  0  0  0  0  0  0
  2  1  1  0  0  0  0
  3  2  1  1  0  0  0
  4  6  1  1  0  0  0
  4  5  1  0  0  0  0
  4  3  1  0  0  0  0
  5  3  1  0  0  0  0
  7  8  1  1  0  0  0
  7  6  1  0  0  0  0
  9 13  1  6  0  0  0
  9  7  1  0  0  0  0
 11  9  1  0  0  0  0
 11 10  1  0  0  0  0
 12 11  2  0  0  0  0
 14 13  1  0  0  0  0
 16 14  1  0  0  0  0
 16 15  1  0  0  0  0
 17  1  1  6  0  0  0
 17 28  1  0  0  0  0
 17 18  1  0  0  0  0
 18 19  1  0  0  0  0
 19 23  2  0  0  0  0
 20 24  1  0  0  0  0
 20 18  2  0  0  0  0
 22 21  1  0  0  0  0
 22 23  1  0  0  0  0
 24 22  2  0  0  0  0
 25 24  1  0  0  0  0
 26 25  1  0  0  0  0
 27 26  1  0  0  0  0
 28 29  1  0  0  0  0
 29 30  1  6  0  0  0
 29 32  1  0  0  0  0
 32 31  1  0  0  0  0
M  END
>  <MODEL>
2

>  <REMARK>
 VINA RESULT:      -7.1      2.035      5.060
  Name = 
  16 active torsions:
  status: ('A' for Active; 'I' for Inactive)
    1  A    between atoms: N_1  and  C_4
    2  A    between atoms: N_1  and  C_5
    3  A    between atoms: C_2  and  C_14
    4  A    between atoms: C_3  and  C_15
    5  A    between atoms: C_3  and  C_20
    6  A    between atoms: C_3  and  C_22
    7  A    between atoms: C_5  and  C_14
    8  A    between atoms: C_9  and  N_28
    9  A    between atoms: C_13  and  C_29
   10  A    between atoms: C_13  and  C_30
   11  A    between atoms: C_14  and  C_30
   12  A    between atoms: C_15  and  C_26
   13  A    between atoms: C_16  and  C_20
   14  A    between atoms: C_16  and  C_24
   15  A    between atoms: C_19  and  C_26
   16  A    between atoms: N_28  and  C_32
                            x       y       z     vdW  Elec       q    Type
                         _______ _______ _______ _____ _____    ______ ____

>  <TORSDO>
F 16

$$$$
=
 OpenBabel10272413203D

 32 33  0  0  1  0  0  0  0  0999 V2000
  186.7710  178.7680  141.4630 C   0  0  0  0  0  2  0  0  0  0  0  0
  187.8170  178.3780  142.3940 N   0  0  0  0  0  2  0  0  0  0  0  0
  188.2000  177.0120  142.0580 C   0  0  1  0  0  3  0  0  0  0  0  0
  189.4790  176.5610  142.7730 C   0  0  2  0  0  3  0  0  0  0  0  0
  188.1210  176.1490  143.2990 C   0  0  0  0  0  2  0  0  0  0  0  0
  190.0870  177.6140  143.6960 C   0  0  0  0  0  2  0  0  0  0  0  0
  191.1740  177.0040  144.5670 C   0  0  2  0  0  3  0  0  0  0  0  0
  191.7580  175.7620  143.9030 C   0  0  0  0  0  1  0  0  0  0  0  0
  190.6330  176.7290  145.9770 C   0  0  1  0  0  3  0  0  0  0  0  0
  192.3570  175.2020  146.9890 O   0  0  0  0  0  0  0  0  0  0  0  0
  191.6740  176.4120  147.0130 C   0  0  0  0  0  0  0  0  0  0  0  0
  191.9260  177.2520  147.9150 O   0  0  0  0  0  1  0  0  0  0  0  0
  189.5800  177.7310  146.4510 C   0  0  0  0  0  2  0  0  0  0  0  0
  188.2570  177.0710  146.8250 C   0  0  0  0  0  2  0  0  0  0  0  0
  188.8020  178.4330  148.8350 C   0  0  0  0  0  1  0  0  0  0  0  0
  187.9410  177.3110  148.2890 C   0  0  0  0  0  2  0  0  0  0  0  0
  185.3970  178.5250  142.0820 C   0  0  2  0  0  3  0  0  0  0  0  0
  184.3120  178.6990  141.0630 C   0  0  0  0  0  0  0  0  0  0  0  0
  184.5420  179.3920  139.8650 C   0  0  0  0  0  3  0  0  0  0  0  0
  183.0550  178.1350  141.3010 C   0  0  0  0  0  3  0  0  0  0  0  0
  181.2580  179.1050  138.2170 O   0  0  0  0  0  1  0  0  0  0  0  0
  182.2640  178.9640  139.1650 C   0  0  0  0  0  0  0  0  0  0  0  0
  183.5210  179.5240  138.9210 C   0  0  0  0  0  3  0  0  0  0  0  0
  182.0230  178.2660  140.3580 C   0  0  0  0  0  0  0  0  0  0  0  0
  180.7320  177.6920  140.5950 N   0  0  0  0  0  2  0  0  0  0  0  0
  180.2420  176.4980  139.9170 C   0  0  0  0  0  2  0  0  0  0  0  0
  181.4010  175.5820  139.5760 C   0  0  0  0  0  1  0  0  0  0  0  0
  185.1640  179.4460  143.2740 C   0  0  0  0  0  2  0  0  0  0  0  0
  184.7200  178.6590  144.4990 C   0  0  2  0  0  3  0  0  0  0  0  0
  183.2320  178.8670  144.7040 C   0  0  0  0  0  1  0  0  0  0  0  0
  184.8890  178.6180  146.8840 O   0  0  0  0  0  1  0  0  0  0  0  0
  185.4770  179.1350  145.7310 C   0  0  0  0  0  2  0  0  0  0  0  0
  1  2  1  0  0  0  0
  3  2  1  1  0  0  0
  3  4  1  0  0  0  0
  3  5  1  0  0  0  0
  4  5  1  0  0  0  0
  4  6  1  1  0  0  0
  6  7  1  0  0  0  0
  7  8  1  6  0  0  0
  7  9  1  0  0  0  0
  9 13  1  1  0  0  0
  9 11  1  0  0  0  0
 10 11  2  0  0  0  0
 11 12  1  0  0  0  0
 13 14  1  0  0  0  0
 14 16  1  0  0  0  0
 16 15  1  0  0  0  0
 17  1  1  6  0  0  0
 17 28  1  0  0  0  0
 18 20  1  0  0  0  0
 18 17  1  0  0  0  0
 19 18  2  0  0  0  0
 21 22  1  0  0  0  0
 22 24  1  0  0  0  0
 23 22  2  0  0  0  0
 23 19  1  0  0  0  0
 24 25  1  0  0  0  0
 24 20  2  0  0  0  0
 26 25  1  0  0  0  0
 27 26  1  0  0  0  0
 28 29  1  0  0  0  0
 29 30  1  1  0  0  0
 29 32  1  0  0  0  0
 32 31  1  0  0  0  0
M  END
>  <MODEL>
3

>  <REMARK>
 VINA RESULT:      -7.1      3.708      8.146
  Name = 
  16 active torsions:
  status: ('A' for Active; 'I' for Inactive)
    1  A    between atoms: N_1  and  C_4
    2  A    between atoms: N_1  and  C_5
    3  A    between atoms: C_2  and  C_14
    4  A    between atoms: C_3  and  C_15
    5  A    between atoms: C_3  and  C_20
    6  A    between atoms: C_3  and  C_22
    7  A    between atoms: C_5  and  C_14
    8  A    between atoms: C_9  and  N_28
    9  A    between atoms: C_13  and  C_29
   10  A    between atoms: C_13  and  C_30
   11  A    between atoms: C_14  and  C_30
   12  A    between atoms: C_15  and  C_26
   13  A    between atoms: C_16  and  C_20
   14  A    between atoms: C_16  and  C_24
   15  A    between atoms: C_19  and  C_26
   16  A    between atoms: N_28  and  C_32
                            x       y       z     vdW  Elec       q    Type
                         _______ _______ _______ _____ _____    ______ ____

>  <TORSDO>
F 16

$$$$
=
 OpenBabel10272413203D

 32 33  0  0  1  0  0  0  0  0999 V2000
  188.4430  176.3400  143.1740 C   0  0  0  0  0  2  0  0  0  0  0  0
  189.1340  177.2270  142.2520 N   0  0  0  0  0  2  0  0  0  0  0  0
  190.2860  176.4960  141.7400 C   0  0  1  0  0  3  0  0  0  0  0  0
  190.4260  176.6000  140.2160 C   0  0  2  0  0  3  0  0  0  0  0  0
  191.2670  177.4720  141.1250 C   0  0  0  0  0  2  0  0  0  0  0  0
  189.3510  177.4490  139.5430 C   0  0  0  0  0  2  0  0  0  0  0  0
  189.7040  177.7110  138.0870 C   0  0  2  0  0  3  0  0  0  0  0  0
  189.1570  179.0620  137.6380 C   0  0  0  0  0  1  0  0  0  0  0  0
  189.2250  176.5490  137.2070 C   0  0  1  0  0  3  0  0  0  0  0  0
  190.0960  174.2170  137.5720 O   0  0  0  0  0  1  0  0  0  0  0  0
  190.2360  175.4630  136.9730 C   0  0  0  0  0  0  0  0  0  0  0  0
  191.2250  175.6880  136.2280 O   0  0  0  0  0  0  0  0  0  0  0  0
  187.8330  176.0260  137.5620 C   0  0  0  0  0  2  0  0  0  0  0  0
  186.7910  176.3370  136.4940 C   0  0  0  0  0  2  0  0  0  0  0  0
  185.7040  178.0650  137.9180 C   0  0  0  0  0  1  0  0  0  0  0  0
  185.4910  176.7840  137.1360 C   0  0  0  0  0  2  0  0  0  0  0  0
  188.3760  176.9730  144.5610 C   0  0  2  0  0  3  0  0  0  0  0  0
  187.0240  177.5700  144.8130 C   0  0  0  0  0  0  0  0  0  0  0  0
  186.6380  177.9790  146.0980 C   0  0  0  0  0  3  0  0  0  0  0  0
  186.1440  177.7450  143.7400 C   0  0  0  0  0  3  0  0  0  0  0  0
  183.2530  179.2910  145.4530 O   0  0  0  0  0  1  0  0  0  0  0  0
  184.5010  178.7210  145.2320 C   0  0  0  0  0  0  0  0  0  0  0  0
  185.3800  178.5510  146.3050 C   0  0  0  0  0  3  0  0  0  0  0  0
  184.8790  178.3170  143.9410 C   0  0  0  0  0  0  0  0  0  0  0  0
  183.9720  178.5010  142.8480 N   0  0  0  0  0  2  0  0  0  0  0  0
  184.3390  178.3080  141.4510 C   0  0  0  0  0  2  0  0  0  0  0  0
  183.2110  178.7710  140.5500 C   0  0  0  0  0  1  0  0  0  0  0  0
  189.4660  178.0230  144.7370 C   0  0  0  0  0  2  0  0  0  0  0  0
  190.5200  177.5610  145.7330 C   0  0  2  0  0  3  0  0  0  0  0  0
  191.5000  176.6460  145.0240 C   0  0  0  0  0  1  0  0  0  0  0  0
  189.6130  177.6840  147.9430 O   0  0  0  0  0  1  0  0  0  0  0  0
  189.8630  176.8120  146.8840 C   0  0  0  0  0  2  0  0  0  0  0  0
  2  1  1  0  0  0  0
  3  2  1  6  0  0  0
  4  6  1  6  0  0  0
  4  5  1  0  0  0  0
  4  3  1  0  0  0  0
  5  3  1  0  0  0  0
  7  8  1  6  0  0  0
  7  6  1  0  0  0  0
  9 13  1  1  0  0  0
  9  7  1  0  0  0  0
 11  9  1  0  0  0  0
 11 10  1  0  0  0  0
 12 11  2  0  0  0  0
 14 16  1  0  0  0  0
 14 13  1  0  0  0  0
 16 15  1  0  0  0  0
 17  1  1  6  0  0  0
 17 28  1  0  0  0  0
 17 18  1  0  0  0  0
 18 19  1  0  0  0  0
 19 23  2  0  0  0  0
 20 24  1  0  0  0  0
 20 18  2  0  0  0  0
 22 21  1  0  0  0  0
 22 23  1  0  0  0  0
 24 22  2  0  0  0  0
 25 24  1  0  0  0  0
 26 25  1  0  0  0  0
 27 26  1  0  0  0  0
 28 29  1  0  0  0  0
 29 30  1  6  0  0  0
 29 32  1  0  0  0  0
 32 31  1  0  0  0  0
M  END
>  <MODEL>
4

>  <REMARK>
 VINA RESULT:      -7.0      1.922      4.735
  Name = 
  16 active torsions:
  status: ('A' for Active; 'I' for Inactive)
    1  A    between atoms: N_1  and  C_4
    2  A    between atoms: N_1  and  C_5
    3  A    between atoms: C_2  and  C_14
    4  A    between atoms: C_3  and  C_15
    5  A    between atoms: C_3  and  C_20
    6  A    between atoms: C_3  and  C_22
    7  A    between atoms: C_5  and  C_14
    8  A    between atoms: C_9  and  N_28
    9  A    between atoms: C_13  and  C_29
   10  A    between atoms: C_13  and  C_30
   11  A    between atoms: C_14  and  C_30
   12  A    between atoms: C_15  and  C_26
   13  A    between atoms: C_16  and  C_20
   14  A    between atoms: C_16  and  C_24
   15  A    between atoms: C_19  and  C_26
   16  A    between atoms: N_28  and  C_32
                            x       y       z     vdW  Elec       q    Type
                         _______ _______ _______ _____ _____    ______ ____

>  <TORSDO>
F 16

$$$$
=
 OpenBabel10272413203D

 32 33  0  0  1  0  0  0  0  0999 V2000
  188.8410  176.6430  142.6610 C   0  0  0  0  0  2  0  0  0  0  0  0
  189.7230  177.5060  141.8930 N   0  0  0  0  0  2  0  0  0  0  0  0
  188.8970  178.5620  141.3220 C   0  0  1  0  0  3  0  0  0  0  0  0
  188.8610  178.5270  139.7900 C   0  0  2  0  0  3  0  0  0  0  0  0
  187.7200  177.9440  140.5970 C   0  0  0  0  0  2  0  0  0  0  0  0
  189.6780  177.3960  139.1690 C   0  0  0  0  0  2  0  0  0  0  0  0
  189.7650  177.5600  137.6600 C   0  0  2  0  0  3  0  0  0  0  0  0
  189.1040  178.8630  137.2240 C   0  0  0  0  0  1  0  0  0  0  0  0
  189.1800  176.3280  136.9570 C   0  0  1  0  0  3  0  0  0  0  0  0
  190.7420  174.6090  137.9230 O   0  0  0  0  0  1  0  0  0  0  0  0
  190.1210  175.1650  136.8120 C   0  0  0  0  0  0  0  0  0  0  0  0
  190.3530  174.6950  135.6680 O   0  0  0  0  0  0  0  0  0  0  0  0
  187.7850  175.9330  137.4410 C   0  0  0  0  0  2  0  0  0  0  0  0
  186.7070  176.1450  136.3840 C   0  0  0  0  0  2  0  0  0  0  0  0
  185.5530  177.8940  137.7280 C   0  0  0  0  0  1  0  0  0  0  0  0
  185.3990  176.5540  137.0370 C   0  0  0  0  0  2  0  0  0  0  0  0
  189.0150  176.9060  144.1540 C   0  0  2  0  0  3  0  0  0  0  0  0
  187.7470  177.4290  144.7580 C   0  0  0  0  0  0  0  0  0  0  0  0
  187.6520  177.6970  146.1320 C   0  0  0  0  0  3  0  0  0  0  0  0
  186.6480  177.6780  143.9300 C   0  0  0  0  0  3  0  0  0  0  0  0
  184.1930  178.9470  146.3890 O   0  0  0  0  0  1  0  0  0  0  0  0
  185.3670  178.4450  145.8400 C   0  0  0  0  0  0  0  0  0  0  0  0
  186.4650  178.2020  146.6690 C   0  0  0  0  0  3  0  0  0  0  0  0
  185.4520  178.1830  144.4630 C   0  0  0  0  0  0  0  0  0  0  0  0
  184.3220  178.4410  143.6220 N   0  0  0  0  0  2  0  0  0  0  0  0
  184.4240  178.9930  142.2770 C   0  0  0  0  0  2  0  0  0  0  0  0
  183.8660  178.0070  141.2680 C   0  0  0  0  0  1  0  0  0  0  0  0
  190.1670  177.8730  144.4090 C   0  0  0  0  0  2  0  0  0  0  0  0
  191.3150  177.1820  145.1290 C   0  0  2  0  0  3  0  0  0  0  0  0
  191.6770  175.9150  144.3780 C   0  0  0  0  0  1  0  0  0  0  0  0
  192.0240  176.8430  147.3880 O   0  0  0  0  0  1  0  0  0  0  0  0
  190.9080  176.8330  146.5540 C   0  0  0  0  0  2  0  0  0  0  0  0
  2  1  1  0  0  0  0
  3  2  1  1  0  0  0
  4  6  1  1  0  0  0
  4  5  1  0  0  0  0
  4  3  1  0  0  0  0
  5  3  1  0  0  0  0
  7  8  1  6  0  0  0
  7  6  1  0  0  0  0
  9 13  1  1  0  0  0
  9  7  1  0  0  0  0
 11  9  1  0  0  0  0
 11 10  1  0  0  0  0
 12 11  2  0  0  0  0
 14 16  1  0  0  0  0
 14 13  1  0  0  0  0
 16 15  1  0  0  0  0
 17  1  1  6  0  0  0
 17 28  1  0  0  0  0
 17 18  1  0  0  0  0
 18 19  1  0  0  0  0
 19 23  2  0  0  0  0
 20 24  1  0  0  0  0
 20 18  2  0  0  0  0
 22 21  1  0  0  0  0
 22 23  1  0  0  0  0
 24 22  2  0  0  0  0
 25 24  1  0  0  0  0
 26 25  1  0  0  0  0
 27 26  1  0  0  0  0
 28 29  1  0  0  0  0
 29 30  1  6  0  0  0
 29 32  1  0  0  0  0
 32 31  1  0  0  0  0
M  END
>  <MODEL>
5

>  <REMARK>
 VINA RESULT:      -6.9      2.188      4.725
  Name = 
  16 active torsions:
  status: ('A' for Active; 'I' for Inactive)
    1  A    between atoms: N_1  and  C_4
    2  A    between atoms: N_1  and  C_5
    3  A    between atoms: C_2  and  C_14
    4  A    between atoms: C_3  and  C_15
    5  A    between atoms: C_3  and  C_20
    6  A    between atoms: C_3  and  C_22
    7  A    between atoms: C_5  and  C_14
    8  A    between atoms: C_9  and  N_28
    9  A    between atoms: C_13  and  C_29
   10  A    between atoms: C_13  and  C_30
   11  A    between atoms: C_14  and  C_30
   12  A    between atoms: C_15  and  C_26
   13  A    between atoms: C_16  and  C_20
   14  A    between atoms: C_16  and  C_24
   15  A    between atoms: C_19  and  C_26
   16  A    between atoms: N_28  and  C_32
                            x       y       z     vdW  Elec       q    Type
                         _______ _______ _______ _____ _____    ______ ____

>  <TORSDO>
F 16

$$$$
=
 OpenBabel10272413203D

 32 33  0  0  1  0  0  0  0  0999 V2000
  189.9770  176.6070  140.5050 C   0  0  0  0  0  2  0  0  0  0  0  0
  189.5640  177.2460  141.7430 N   0  0  0  0  0  2  0  0  0  0  0  0
  189.0900  176.1920  142.6300 C   0  0  1  0  0  3  0  0  0  0  0  0
  188.8530  176.6830  144.0640 C   0  0  2  0  0  3  0  0  0  0  0  0
  187.6910  176.5250  143.1050 C   0  0  0  0  0  2  0  0  0  0  0  0
  189.1440  178.1670  144.2740 C   0  0  0  0  0  2  0  0  0  0  0  0
  190.2860  178.3570  145.2610 C   0  0  2  0  0  3  0  0  0  0  0  0
  191.6240  178.3860  144.5310 C   0  0  0  0  0  1  0  0  0  0  0  0
  190.2250  177.2840  146.3570 C   0  0  1  0  0  3  0  0  0  0  0  0
  192.1940  176.6890  147.8050 O   0  0  0  0  0  1  0  0  0  0  0  0
  191.5100  176.5470  146.6040 C   0  0  0  0  0  0  0  0  0  0  0  0
  191.9750  175.7950  145.7080 O   0  0  0  0  0  0  0  0  0  0  0  0
  189.5190  177.7350  147.6360 C   0  0  0  0  0  2  0  0  0  0  0  0
  188.0960  177.2000  147.7490 C   0  0  0  0  0  2  0  0  0  0  0  0
  186.2150  178.0420  146.3540 C   0  0  0  0  0  1  0  0  0  0  0  0
  187.0920  178.3220  147.5580 C   0  0  0  0  0  2  0  0  0  0  0  0
  189.8130  177.5710  139.3340 C   0  0  2  0  0  3  0  0  0  0  0  0
  188.3700  177.7090  138.9520 C   0  0  0  0  0  0  0  0  0  0  0  0
  187.8710  177.1350  137.7730 C   0  0  0  0  0  3  0  0  0  0  0  0
  187.5020  178.4020  139.8020 C   0  0  0  0  0  3  0  0  0  0  0  0
  184.3120  178.0750  137.9590 O   0  0  0  0  0  1  0  0  0  0  0  0
  185.6540  177.9580  138.2960 C   0  0  0  0  0  0  0  0  0  0  0  0
  186.5190  177.2610  137.4470 C   0  0  0  0  0  3  0  0  0  0  0  0
  186.1420  178.5340  139.4800 C   0  0  0  0  0  0  0  0  0  0  0  0
  185.2460  179.2410  140.3450 N   0  0  0  0  0  2  0  0  0  0  0  0
  184.5110  178.6140  141.4360 C   0  0  0  0  0  2  0  0  0  0  0  0
  185.0590  179.0850  142.7690 C   0  0  0  0  0  1  0  0  0  0  0  0
  190.6430  177.1240  138.1360 C   0  0  0  0  0  2  0  0  0  0  0  0
  191.6170  176.0200  138.5220 C   0  0  2  0  0  3  0  0  0  0  0  0
  193.0330  176.5480  138.3960 C   0  0  0  0  0  1  0  0  0  0  0  0
  190.1340  174.3300  137.7050 O   0  0  0  0  0  1  0  0  0  0  0  0
  191.4370  174.8170  137.6060 C   0  0  0  0  0  2  0  0  0  0  0  0
  1  2  1  0  0  0  0
  3  2  1  6  0  0  0
  3  5  1  0  0  0  0
  3  4  1  0  0  0  0
  4  6  1  6  0  0  0
  5  4  1  0  0  0  0
  6  7  1  0  0  0  0
  7  8  1  6  0  0  0
  7  9  1  0  0  0  0
  9 11  1  0  0  0  0
  9 13  1  1  0  0  0
 11 10  1  0  0  0  0
 12 11  2  0  0  0  0
 13 14  1  0  0  0  0
 15 16  1  0  0  0  0
 16 14  1  0  0  0  0
 17 28  1  6  0  0  0
 17  1  1  0  0  0  0
 18 17  1  0  0  0  0
 18 20  1  0  0  0  0
 19 18  2  0  0  0  0
 21 22  1  0  0  0  0
 22 24  1  0  0  0  0
 23 19  1  0  0  0  0
 23 22  2  0  0  0  0
 24 20  2  0  0  0  0
 24 25  1  0  0  0  0
 25 26  1  0  0  0  0
 26 27  1  0  0  0  0
 28 29  1  0  0  0  0
 29 30  1  6  0  0  0
 32 31  1  0  0  0  0
 32 29  1  0  0  0  0
M  END
>  <MODEL>
6

>  <REMARK>
 VINA RESULT:      -6.8      1.955      8.088
  Name = 
  16 active torsions:
  status: ('A' for Active; 'I' for Inactive)
    1  A    between atoms: N_1  and  C_4
    2  A    between atoms: N_1  and  C_5
    3  A    between atoms: C_2  and  C_14
    4  A    between atoms: C_3  and  C_15
    5  A    between atoms: C_3  and  C_20
    6  A    between atoms: C_3  and  C_22
    7  A    between atoms: C_5  and  C_14
    8  A    between atoms: C_9  and  N_28
    9  A    between atoms: C_13  and  C_29
   10  A    between atoms: C_13  and  C_30
   11  A    between atoms: C_14  and  C_30
   12  A    between atoms: C_15  and  C_26
   13  A    between atoms: C_16  and  C_20
   14  A    between atoms: C_16  and  C_24
   15  A    between atoms: C_19  and  C_26
   16  A    between atoms: N_28  and  C_32
                            x       y       z     vdW  Elec       q    Type
                         _______ _______ _______ _____ _____    ______ ____

>  <TORSDO>
F 16

$$$$
=
 OpenBabel10272413203D

 32 33  0  0  1  0  0  0  0  0999 V2000
  188.5530  177.5850  141.7420 C   0  0  0  0  0  2  0  0  0  0  0  0
  189.9240  178.0460  141.8900 N   0  0  0  0  0  2  0  0  0  0  0  0
  190.7420  176.8730  142.1690 C   0  0  1  0  0  3  0  0  0  0  0  0
  191.1900  176.7960  143.6340 C   0  0  2  0  0  3  0  0  0  0  0  0
  190.0140  175.9750  143.1480 C   0  0  0  0  0  2  0  0  0  0  0  0
  190.6860  177.9440  144.5050 C   0  0  0  0  0  2  0  0  0  0  0  0
  190.6490  177.5320  145.9690 C   0  0  2  0  0  3  0  0  0  0  0  0
  191.5250  176.3060  146.2030 C   0  0  0  0  0  1  0  0  0  0  0  0
  189.1990  177.3270  146.4270 C   0  0  1  0  0  3  0  0  0  0  0  0
  187.9900  176.8350  148.5770 O   0  0  0  0  0  1  0  0  0  0  0  0
  188.9480  177.5690  147.8880 C   0  0  0  0  0  0  0  0  0  0  0  0
  189.6100  178.4510  148.4930 O   0  0  0  0  0  0  0  0  0  0  0  0
  188.1560  177.9650  145.5100 C   0  0  0  0  0  2  0  0  0  0  0  0
  186.9370  177.0770  145.2860 C   0  0  0  0  0  2  0  0  0  0  0  0
  185.8270  179.1590  146.0760 C   0  0  0  0  0  1  0  0  0  0  0  0
  185.7270  177.6490  146.0010 C   0  0  0  0  0  2  0  0  0  0  0  0
  187.8310  178.4130  140.6840 C   0  0  2  0  0  3  0  0  0  0  0  0
  186.3650  178.5060  140.9850 C   0  0  0  0  0  0  0  0  0  0  0  0
  185.8840  178.4010  142.2990 C   0  0  0  0  0  3  0  0  0  0  0  0
  185.4650  178.7290  139.9380 C   0  0  0  0  0  3  0  0  0  0  0  0
  182.2600  178.8330  141.7810 O   0  0  0  0  0  1  0  0  0  0  0  0
  183.6180  178.7280  141.5080 C   0  0  0  0  0  0  0  0  0  0  0  0
  184.5160  178.5110  142.5570 C   0  0  0  0  0  3  0  0  0  0  0  0
  184.0890  178.8370  140.1900 C   0  0  0  0  0  0  0  0  0  0  0  0
  183.1610  179.0650  139.1230 N   0  0  0  0  0  2  0  0  0  0  0  0
  182.7040  180.3880  138.7160 C   0  0  0  0  0  2  0  0  0  0  0  0
  181.2140  180.3600  138.4400 C   0  0  0  0  0  1  0  0  0  0  0  0
  188.0550  177.8370  139.2900 C   0  0  0  0  0  2  0  0  0  0  0  0
  189.2820  178.4490  138.6320 C   0  0  2  0  0  3  0  0  0  0  0  0
  188.8730  179.0740  137.3120 C   0  0  0  0  0  1  0  0  0  0  0  0
  189.7220  176.1590  138.1030 O   0  0  0  0  0  1  0  0  0  0  0  0
  190.3350  177.3780  138.3860 C   0  0  0  0  0  2  0  0  0  0  0  0
  1  2  1  0  0  0  0
  3  2  1  1  0  0  0
  3  5  1  0  0  0  0
  3  4  1  0  0  0  0
  4  6  1  1  0  0  0
  5  4  1  0  0  0  0
  6  7  1  0  0  0  0
  7  8  1  6  0  0  0
  7  9  1  0  0  0  0
  9 13  1  6  0  0  0
  9 11  1  0  0  0  0
 11 12  2  0  0  0  0
 11 10  1  0  0  0  0
 14 13  1  0  0  0  0
 14 16  1  0  0  0  0
 16 15  1  0  0  0  0
 17 28  1  6  0  0  0
 17 18  1  0  0  0  0
 17  1  1  0  0  0  0
 18 19  1  0  0  0  0
 19 23  2  0  0  0  0
 20 24  1  0  0  0  0
 20 18  2  0  0  0  0
 22 21  1  0  0  0  0
 22 23  1  0  0  0  0
 24 22  2  0  0  0  0
 25 24  1  0  0  0  0
 26 25  1  0  0  0  0
 27 26  1  0  0  0  0
 29 30  1  6  0  0  0
 29 28  1  0  0  0  0
 31 32  1  0  0  0  0
 32 29  1  0  0  0  0
M  END
>  <MODEL>
7

>  <REMARK>
 VINA RESULT:      -6.8      2.175      7.813
  Name = 
  16 active torsions:
  status: ('A' for Active; 'I' for Inactive)
    1  A    between atoms: N_1  and  C_4
    2  A    between atoms: N_1  and  C_5
    3  A    between atoms: C_2  and  C_14
    4  A    between atoms: C_3  and  C_15
    5  A    between atoms: C_3  and  C_20
    6  A    between atoms: C_3  and  C_22
    7  A    between atoms: C_5  and  C_14
    8  A    between atoms: C_9  and  N_28
    9  A    between atoms: C_13  and  C_29
   10  A    between atoms: C_13  and  C_30
   11  A    between atoms: C_14  and  C_30
   12  A    between atoms: C_15  and  C_26
   13  A    between atoms: C_16  and  C_20
   14  A    between atoms: C_16  and  C_24
   15  A    between atoms: C_19  and  C_26
   16  A    between atoms: N_28  and  C_32
                            x       y       z     vdW  Elec       q    Type
                         _______ _______ _______ _____ _____    ______ ____

>  <TORSDO>
F 16

$$$$
=
 OpenBabel10272413203D

 32 33  0  0  1  0  0  0  0  0999 V2000
  188.3530  176.3350  143.2800 C   0  0  0  0  0  2  0  0  0  0  0  0
  189.1210  177.1830  142.3830 N   0  0  0  0  0  2  0  0  0  0  0  0
  190.2380  176.3860  141.8940 C   0  0  1  0  0  3  0  0  0  0  0  0
  190.6050  176.7060  140.4390 C   0  0  2  0  0  3  0  0  0  0  0  0
  191.4070  177.2960  141.5800 C   0  0  0  0  0  2  0  0  0  0  0  0
  189.7460  177.7950  139.8010 C   0  0  0  0  0  2  0  0  0  0  0  0
  190.0040  177.8760  138.3050 C   0  0  2  0  0  3  0  0  0  0  0  0
  188.9770  178.7820  137.6330 C   0  0  0  0  0  1  0  0  0  0  0  0
  190.0490  176.4680  137.6960 C   0  0  1  0  0  3  0  0  0  0  0  0
  187.7100  175.5430  137.7020 O   0  0  0  0  0  1  0  0  0  0  0  0
  188.7960  176.0350  136.9890 C   0  0  0  0  0  0  0  0  0  0  0  0
  188.7340  176.1140  135.7350 O   0  0  0  0  0  0  0  0  0  0  0  0
  191.3300  176.1610  136.9210 C   0  0  0  0  0  2  0  0  0  0  0  0
  192.5930  176.5360  137.6880 C   0  0  0  0  0  2  0  0  0  0  0  0
  193.8540  175.4640  135.8290 C   0  0  0  0  0  1  0  0  0  0  0  0
  193.7280  175.5920  137.3340 C   0  0  0  0  0  2  0  0  0  0  0  0
  188.2210  176.9980  144.6480 C   0  0  2  0  0  3  0  0  0  0  0  0
  186.8550  177.5870  144.8300 C   0  0  0  0  0  0  0  0  0  0  0  0
  186.3490  177.8710  146.1070 C   0  0  0  0  0  3  0  0  0  0  0  0
  186.0830  177.8810  143.7020 C   0  0  0  0  0  3  0  0  0  0  0  0
  183.0490  179.2900  145.2800 O   0  0  0  0  0  1  0  0  0  0  0  0
  184.3090  178.7270  145.1220 C   0  0  0  0  0  0  0  0  0  0  0  0
  185.0810  178.4380  146.2500 C   0  0  0  0  0  3  0  0  0  0  0  0
  184.8060  178.4490  143.8380 C   0  0  0  0  0  0  0  0  0  0  0  0
  184.0090  178.7530  142.6880 N   0  0  0  0  0  2  0  0  0  0  0  0
  184.2140  178.1470  141.3790 C   0  0  0  0  0  2  0  0  0  0  0  0
  184.8450  179.1530  140.4350 C   0  0  0  0  0  1  0  0  0  0  0  0
  189.2940  178.0630  144.8460 C   0  0  0  0  0  2  0  0  0  0  0  0
  190.2690  177.6660  145.9430 C   0  0  2  0  0  3  0  0  0  0  0  0
  191.3440  176.7760  145.3490 C   0  0  0  0  0  1  0  0  0  0  0  0
  189.3460  177.7500  148.1480 O   0  0  0  0  0  1  0  0  0  0  0  0
  189.5390  176.9160  147.0480 C   0  0  0  0  0  2  0  0  0  0  0  0
  2  1  1  0  0  0  0
  3  2  1  1  0  0  0
  4  6  1  1  0  0  0
  4  5  1  0  0  0  0
  4  3  1  0  0  0  0
  5  3  1  0  0  0  0
  7  8  1  6  0  0  0
  7  6  1  0  0  0  0
  9 13  1  6  0  0  0
  9  7  1  0  0  0  0
 11  9  1  0  0  0  0
 11 10  1  0  0  0  0
 12 11  2  0  0  0  0
 13 14  1  0  0  0  0
 15 16  1  0  0  0  0
 16 14  1  0  0  0  0
 17  1  1  6  0  0  0
 17 18  1  0  0  0  0
 17 28  1  0  0  0  0
 18 19  1  0  0  0  0
 19 23  2  0  0  0  0
 20 24  1  0  0  0  0
 20 18  2  0  0  0  0
 22 21  1  0  0  0  0
 22 23  1  0  0  0  0
 24 22  2  0  0  0  0
 25 24  1  0  0  0  0
 26 25  1  0  0  0  0
 27 26  1  0  0  0  0
 28 29  1  0  0  0  0
 29 30  1  6  0  0  0
 29 32  1  0  0  0  0
 32 31  1  0  0  0  0
M  END
>  <MODEL>
8

>  <REMARK>
 VINA RESULT:      -6.8      1.899      5.060
  Name = 
  16 active torsions:
  status: ('A' for Active; 'I' for Inactive)
    1  A    between atoms: N_1  and  C_4
    2  A    between atoms: N_1  and  C_5
    3  A    between atoms: C_2  and  C_14
    4  A    between atoms: C_3  and  C_15
    5  A    between atoms: C_3  and  C_20
    6  A    between atoms: C_3  and  C_22
    7  A    between atoms: C_5  and  C_14
    8  A    between atoms: C_9  and  N_28
    9  A    between atoms: C_13  and  C_29
   10  A    between atoms: C_13  and  C_30
   11  A    between atoms: C_14  and  C_30
   12  A    between atoms: C_15  and  C_26
   13  A    between atoms: C_16  and  C_20
   14  A    between atoms: C_16  and  C_24
   15  A    between atoms: C_19  and  C_26
   16  A    between atoms: N_28  and  C_32
                            x       y       z     vdW  Elec       q    Type
                         _______ _______ _______ _____ _____    ______ ____

>  <TORSDO>
F 16

$$$$
=
 OpenBabel10272413203D

 32 33  0  0  1  0  0  0  0  0999 V2000
  191.5290  177.3120  140.2960 C   0  0  0  0  0  2  0  0  0  0  0  0
  190.7880  177.2410  141.5440 N   0  0  0  0  0  2  0  0  0  0  0  0
  191.7680  177.2510  142.6230 C   0  0  1  0  0  3  0  0  0  0  0  0
  191.2060  177.8220  143.9310 C   0  0  2  0  0  3  0  0  0  0  0  0
  191.3080  176.3250  143.7290 C   0  0  0  0  0  2  0  0  0  0  0  0
  189.7420  178.2500  143.8510 C   0  0  0  0  0  2  0  0  0  0  0  0
  188.8630  177.3130  144.6650 C   0  0  2  0  0  3  0  0  0  0  0  0
  187.8280  176.6390  143.7710 C   0  0  0  0  0  1  0  0  0  0  0  0
  188.2340  178.0660  145.8450 C   0  0  1  0  0  3  0  0  0  0  0  0
  185.9760  179.0820  145.4020 O   0  0  0  0  0  0  0  0  0  0  0  0
  186.7340  178.0300  145.9030 C   0  0  0  0  0  0  0  0  0  0  0  0
  186.1570  177.0370  146.4170 O   0  0  0  0  0  1  0  0  0  0  0  0
  188.9080  177.7960  147.1910 C   0  0  0  0  0  2  0  0  0  0  0  0
  189.7710  176.5390  147.1820 C   0  0  0  0  0  2  0  0  0  0  0  0
  192.0980  175.6700  147.3390 C   0  0  0  0  0  1  0  0  0  0  0  0
  191.2070  176.8810  147.5330 C   0  0  0  0  0  2  0  0  0  0  0  0
  190.6390  176.8890  139.1310 C   0  0  2  0  0  3  0  0  0  0  0  0
  191.4630  176.4600  137.9550 C   0  0  0  0  0  0  0  0  0  0  0  0
  190.8970  176.3280  136.6780 C   0  0  0  0  0  3  0  0  0  0  0  0
  192.8280  176.2110  138.1320 C   0  0  0  0  0  3  0  0  0  0  0  0
  193.8270  175.3120  134.6860 O   0  0  0  0  0  1  0  0  0  0  0  0
  193.0520  175.6930  135.7740 C   0  0  0  0  0  0  0  0  0  0  0  0
  191.6890  175.9450  135.5940 C   0  0  0  0  0  3  0  0  0  0  0  0
  193.6300  175.8240  137.0470 C   0  0  0  0  0  0  0  0  0  0  0  0
  195.0280  175.5670  137.2200 N   0  0  0  0  0  2  0  0  0  0  0  0
  195.5720  174.2680  137.5950 C   0  0  0  0  0  2  0  0  0  0  0  0
  195.8970  174.2500  139.0760 C   0  0  0  0  0  1  0  0  0  0  0  0
  189.6860  178.0110  138.7340 C   0  0  0  0  0  2  0  0  0  0  0  0
  188.2380  177.6210  138.9920 C   0  0  2  0  0  3  0  0  0  0  0  0
  187.4130  177.9480  137.7620 C   0  0  0  0  0  1  0  0  0  0  0  0
  186.3700  178.7580  139.9600 O   0  0  0  0  0  1  0  0  0  0  0  0
  187.6930  178.3840  140.1900 C   0  0  0  0  0  2  0  0  0  0  0  0
  1  2  1  0  0  0  0
  3  2  1  6  0  0  0
  3  5  1  0  0  0  0
  3  4  1  0  0  0  0
  4  6  1  6  0  0  0
  5  4  1  0  0  0  0
  6  7  1  0  0  0  0
  7  8  1  6  0  0  0
  7  9  1  0  0  0  0
  9 11  1  0  0  0  0
  9 13  1  1  0  0  0
 10 11  2  0  0  0  0
 11 12  1  0  0  0  0
 14 13  1  0  0  0  0
 14 16  1  0  0  0  0
 15 16  1  0  0  0  0
 17 28  1  6  0  0  0
 17  1  1  0  0  0  0
 18 20  1  0  0  0  0
 18 17  1  0  0  0  0
 19 18  2  0  0  0  0
 21 22  1  0  0  0  0
 22 24  1  0  0  0  0
 23 22  2  0  0  0  0
 23 19  1  0  0  0  0
 24 25  1  0  0  0  0
 24 20  2  0  0  0  0
 25 26  1  0  0  0  0
 26 27  1  0  0  0  0
 28 29  1  0  0  0  0
 29 30  1  6  0  0  0
 29 32  1  0  0  0  0
 31 32  1  0  0  0  0
M  END
>  <MODEL>
9

>  <REMARK>
 VINA RESULT:      -6.8      2.530      8.655
  Name = 
  16 active torsions:
  status: ('A' for Active; 'I' for Inactive)
    1  A    between atoms: N_1  and  C_4
    2  A    between atoms: N_1  and  C_5
    3  A    between atoms: C_2  and  C_14
    4  A    between atoms: C_3  and  C_15
    5  A    between atoms: C_3  and  C_20
    6  A    between atoms: C_3  and  C_22
    7  A    between atoms: C_5  and  C_14
    8  A    between atoms: C_9  and  N_28
    9  A    between atoms: C_13  and  C_29
   10  A    between atoms: C_13  and  C_30
   11  A    between atoms: C_14  and  C_30
   12  A    between atoms: C_15  and  C_26
   13  A    between atoms: C_16  and  C_20
   14  A    between atoms: C_16  and  C_24
   15  A    between atoms: C_19  and  C_26
   16  A    between atoms: N_28  and  C_32
                            x       y       z     vdW  Elec       q    Type
                         _______ _______ _______ _____ _____    ______ ____

>  <TORSDO>
F 16

$$$$
