=
 OpenBabel10272413583D

 30 33  0  0  1  0  0  0  0  0999 V2000
  183.6630  178.5540  141.9920 C   0  0  0  0  0  0  0  0  0  0  0  0
  184.8070  180.0060  143.7780 C   0  0  0  0  0  2  0  0  0  0  0  0
  188.3120  177.4540  142.4890 C   0  0  0  0  0  2  0  0  0  0  0  0
  185.6350  179.3030  139.5640 C   0  0  0  0  0  2  0  0  0  0  0  0
  183.7830  177.3900  141.1750 N   0  0  0  0  0  2  0  0  0  0  0  0
  183.5020  178.1870  138.7550 C   0  0  2  0  0  3  0  0  0  0  0  0
  182.4170  175.8590  139.5290 S   0  0  0  0  0  0  0  0  0  0  0  0
  188.0110  177.8120  138.6870 N   0  0  0  0  0  0  0  0  0  0  0  0
  188.4610  177.0880  141.0110 C   0  0  2  0  0  3  0  0  0  0  0  0
  183.1380  177.2760  139.9030 C   0  0  0  0  0  0  0  0  0  0  0  0
  184.9390  178.4410  138.6180 N   0  0  0  0  0  0  0  0  0  0  0  0
  184.5520  179.0230  144.9250 C   0  0  0  0  0  2  0  0  0  0  0  0
  186.9620  176.9210  138.1530 C   0  0  0  0  0  2  0  0  0  0  0  0
  182.5160  178.9730  142.3010 O   0  0  0  0  0  0  0  0  0  0  0  0
  186.8520  177.7010  142.8680 C   0  0  1  0  0  3  0  0  0  0  0  0
  185.3810  177.7410  144.8680 C   0  0  0  0  0  2  0  0  0  0  0  0
  184.8790  179.3540  142.3960 C   0  0  1  0  0  3  0  0  0  0  0  0
  186.3900  178.4170  140.5340 C   0  0  1  0  0  3  0  0  0  0  0  0
  189.9360  176.9120  140.7030 C   0  0  0  0  0  1  0  0  0  0  0  0
  187.8460  178.1690  140.1090 C   0  0  2  0  0  3  0  0  0  0  0  0
  185.2330  177.3660  136.5710 O   0  0  0  0  0  0  0  0  0  0  0  0
  186.7930  177.9850  144.3630 C   0  0  0  0  0  2  0  0  0  0  0  0
  186.2890  178.8470  142.0020 C   0  0  2  0  0  3  0  0  0  0  0  0
  185.6890  177.6130  137.7180 C   0  0  0  0  0  0  0  0  0  0  0  0
  182.5880  179.3840  138.4850 C   0  0  0  0  0  2  0  0  0  0  0  0
  181.8230  178.0790  136.3540 C   0  0  0  0  0  1  0  0  0  0  0  0
  180.9990  178.9530  137.7120 S   0  0  0  0  0  0  0  0  0  0  0  0
  188.2060  179.0130  137.8770 C   0  0  0  0  0  2  0  0  0  0  0  0
  190.0160  177.5340  137.0160 C   0  0  0  0  0  1  0  0  0  0  0  0
  189.1200  178.7160  136.7000 C   0  0  0  0  0  2  0  0  0  0  0  0
  1 14  2  0  0  0  0
  1 17  1  0  0  0  0
  2 12  1  0  0  0  0
  5  1  1  0  0  0  0
  6 25  1  1  0  0  0
  6 10  1  0  0  0  0
  7 10  2  0  0  0  0
  9 19  1  6  0  0  0
  9  3  1  0  0  0  0
 10  5  1  0  0  0  0
 11  6  1  0  0  0  0
 11  4  1  0  0  0  0
 13  8  1  0  0  0  0
 15  3  1  6  0  0  0
 15 22  1  0  0  0  0
 16 12  1  0  0  0  0
 17  2  1  1  0  0  0
 18  4  1  6  0  0  0
 18 23  1  0  0  0  0
 20  8  1  6  0  0  0
 20 18  1  0  0  0  0
 20  9  1  0  0  0  0
 21 24  2  0  0  0  0
 22 16  1  0  0  0  0
 23 17  1  0  0  0  0
 23 15  1  0  0  0  0
 24 13  1  0  0  0  0
 24 11  1  0  0  0  0
 26 27  1  0  0  0  0
 27 25  1  0  0  0  0
 28  8  1  0  0  0  0
 30 29  1  0  0  0  0
 30 28  1  0  0  0  0
M  END
>  <MODEL>
1

>  <REMARK>
 VINA RESULT:      -5.5      0.000      0.000
  Name = 
  4 active torsions:
  status: ('A' for Active; 'I' for Inactive)
    1  A    between atoms: C_6  and  C_8
    2  A    between atoms: C_6  and  S_21
    3  A    between atoms: C_7  and  N_10
    4  A    between atoms: C_7  and  C_26
                            x       y       z     vdW  Elec       q    Type
                         _______ _______ _______ _____ _____    ______ ____

>  <TORSDO>
F 4

$$$$
=
 OpenBabel10272413583D

 30 33  0  0  1  0  0  0  0  0999 V2000
  188.4650  177.9540  144.8250 C   0  0  0  0  0  0  0  0  0  0  0  0
  186.0780  177.0010  144.8200 C   0  0  0  0  0  2  0  0  0  0  0  0
  186.2740  178.6270  140.6040 C   0  0  0  0  0  2  0  0  0  0  0  0
  189.5540  176.2820  142.3020 C   0  0  0  0  0  2  0  0  0  0  0  0
  189.3940  178.7910  144.1360 N   0  0  0  0  0  2  0  0  0  0  0  0
  191.4400  177.3270  143.6430 C   0  0  2  0  0  3  0  0  0  0  0  0
  191.7740  179.8860  144.3740 S   0  0  0  0  0  0  0  0  0  0  0  0
  189.6340  177.1580  139.4970 N   0  0  0  0  0  0  0  0  0  0  0  0
  187.5810  178.5040  139.8200 C   0  0  2  0  0  3  0  0  0  0  0  0
  190.8090  178.5810  144.1990 C   0  0  0  0  0  0  0  0  0  0  0  0
  190.8790  176.8850  142.3630 N   0  0  0  0  0  0  0  0  0  0  0  0
  185.4160  178.3100  145.2620 C   0  0  0  0  0  2  0  0  0  0  0  0
  190.7590  177.9530  140.0260 C   0  0  0  0  0  2  0  0  0  0  0  0
  188.5960  177.7800  146.0660 O   0  0  0  0  0  0  0  0  0  0  0  0
  186.5190  178.6730  142.1120 C   0  0  1  0  0  3  0  0  0  0  0  0
  185.4040  179.4120  144.2040 C   0  0  0  0  0  2  0  0  0  0  0  0
  187.4020  177.1850  144.0760 C   0  0  1  0  0  3  0  0  0  0  0  0
  188.5860  177.3320  141.7950 C   0  0  1  0  0  3  0  0  0  0  0  0
  187.2510  178.4120  138.3420 C   0  0  0  0  0  1  0  0  0  0  0  0
  188.3830  177.2740  140.2730 C   0  0  2  0  0  3  0  0  0  0  0  0
  192.7830  177.2410  141.0670 O   0  0  0  0  0  0  0  0  0  0  0  0
  185.1760  178.8690  142.8030 C   0  0  0  0  0  2  0  0  0  0  0  0
  187.2510  177.3870  142.5470 C   0  0  2  0  0  3  0  0  0  0  0  0
  191.5290  177.3080  141.1560 C   0  0  0  0  0  0  0  0  0  0  0  0
  191.7950  176.2150  144.6320 C   0  0  0  0  0  2  0  0  0  0  0  0
  192.4250  175.1560  146.9360 C   0  0  0  0  0  1  0  0  0  0  0  0
  191.6350  176.6900  146.3800 S   0  0  0  0  0  0  0  0  0  0  0  0
  189.9770  175.7520  139.2880 C   0  0  0  0  0  2  0  0  0  0  0  0
  191.8100  175.0740  137.7430 C   0  0  0  0  0  1  0  0  0  0  0  0
  190.3600  175.5100  137.8380 C   0  0  0  0  0  2  0  0  0  0  0  0
  1 14  2  0  0  0  0
  2 12  1  0  0  0  0
  4 11  1  0  0  0  0
  5 10  1  0  0  0  0
  5  1  1  0  0  0  0
  6 10  1  0  0  0  0
  6 25  1  1  0  0  0
  8 13  1  0  0  0  0
  9 19  1  6  0  0  0
  9 20  1  0  0  0  0
  9  3  1  0  0  0  0
 10  7  2  0  0  0  0
 11  6  1  0  0  0  0
 13 24  1  0  0  0  0
 15  3  1  6  0  0  0
 15 23  1  0  0  0  0
 15 22  1  0  0  0  0
 16 12  1  0  0  0  0
 17  2  1  1  0  0  0
 17  1  1  0  0  0  0
 18  4  1  1  0  0  0
 18 23  1  0  0  0  0
 20  8  1  6  0  0  0
 20 18  1  0  0  0  0
 21 24  2  0  0  0  0
 22 16  1  0  0  0  0
 23 17  1  0  0  0  0
 24 11  1  0  0  0  0
 25 27  1  0  0  0  0
 27 26  1  0  0  0  0
 28  8  1  0  0  0  0
 29 30  1  0  0  0  0
 30 28  1  0  0  0  0
M  END
>  <MODEL>
2

>  <REMARK>
 VINA RESULT:      -5.3      4.439      6.647
  Name = 
  4 active torsions:
  status: ('A' for Active; 'I' for Inactive)
    1  A    between atoms: C_6  and  C_8
    2  A    between atoms: C_6  and  S_21
    3  A    between atoms: C_7  and  N_10
    4  A    between atoms: C_7  and  C_26
                            x       y       z     vdW  Elec       q    Type
                         _______ _______ _______ _____ _____    ______ ____

>  <TORSDO>
F 4

$$$$
=
 OpenBabel10272413583D

 30 33  0  0  1  0  0  0  0  0999 V2000
  185.7840  178.0250  138.2400 C   0  0  0  0  0  0  0  0  0  0  0  0
  184.2760  179.8800  139.1850 C   0  0  0  0  0  2  0  0  0  0  0  0
  185.4800  177.8240  143.0290 C   0  0  0  0  0  2  0  0  0  0  0  0
  188.4180  178.7720  139.9290 C   0  0  0  0  0  2  0  0  0  0  0  0
  186.4580  176.8010  138.5300 N   0  0  0  0  0  2  0  0  0  0  0  0
  188.9320  177.2040  137.9980 C   0  0  2  0  0  3  0  0  0  0  0  0
  187.8020  174.8500  137.3890 S   0  0  0  0  0  0  0  0  0  0  0  0
  189.2670  177.6110  142.4920 N   0  0  0  0  0  0  0  0  0  0  0  0
  186.9080  177.2940  143.1730 C   0  0  2  0  0  3  0  0  0  0  0  0
  187.6580  176.4070  137.8580 C   0  0  0  0  0  0  0  0  0  0  0  0
  189.1990  177.6830  139.3570 N   0  0  0  0  0  0  0  0  0  0  0  0
  183.0010  179.0310  139.1650 C   0  0  0  0  0  2  0  0  0  0  0  0
  189.6120  176.4880  141.5980 C   0  0  0  0  0  2  0  0  0  0  0  0
  185.4510  178.2770  137.0520 O   0  0  0  0  0  0  0  0  0  0  0  0
  185.0340  177.8630  141.5680 C   0  0  1  0  0  3  0  0  0  0  0  0
  182.9560  177.9160  140.2080 C   0  0  0  0  0  2  0  0  0  0  0  0
  185.5680  179.0710  139.3080 C   0  0  1  0  0  3  0  0  0  0  0  0
  187.4000  178.1690  140.8760 C   0  0  1  0  0  3  0  0  0  0  0  0
  187.2930  177.3370  144.6400 C   0  0  0  0  0  1  0  0  0  0  0  0
  187.8920  178.1220  142.3320 C   0  0  2  0  0  3  0  0  0  0  0  0
  191.1130  176.4100  139.7460 O   0  0  0  0  0  0  0  0  0  0  0  0
  183.5850  178.3300  141.5280 C   0  0  0  0  0  2  0  0  0  0  0  0
  185.9930  178.7670  140.7680 C   0  0  2  0  0  3  0  0  0  0  0  0
  190.0400  176.8840  140.2030 C   0  0  0  0  0  0  0  0  0  0  0  0
  189.2840  178.1780  136.8710 C   0  0  0  0  0  2  0  0  0  0  0  0
  190.2750  176.5490  135.0830 C   0  0  0  0  0  1  0  0  0  0  0  0
  188.8070  177.6060  135.2120 S   0  0  0  0  0  0  0  0  0  0  0  0
  190.2310  178.7080  142.4290 C   0  0  0  0  0  2  0  0  0  0  0  0
  191.0910  177.8010  144.5840 C   0  0  0  0  0  1  0  0  0  0  0  0
  190.7250  179.0600  143.8220 C   0  0  0  0  0  2  0  0  0  0  0  0
  1  5  1  0  0  0  0
  1 17  1  0  0  0  0
  3  9  1  0  0  0  0
  6 25  1  6  0  0  0
  6 11  1  0  0  0  0
  7 10  2  0  0  0  0
  9 19  1  1  0  0  0
 10  6  1  0  0  0  0
 10  5  1  0  0  0  0
 11  4  1  0  0  0  0
 11 24  1  0  0  0  0
 12  2  1  0  0  0  0
 12 16  1  0  0  0  0
 13  8  1  0  0  0  0
 14  1  2  0  0  0  0
 15 22  1  1  0  0  0
 15  3  1  0  0  0  0
 16 22  1  0  0  0  0
 17  2  1  1  0  0  0
 17 23  1  0  0  0  0
 18  4  1  6  0  0  0
 18 20  1  0  0  0  0
 20  8  1  6  0  0  0
 20  9  1  0  0  0  0
 21 24  2  0  0  0  0
 23 18  1  0  0  0  0
 23 15  1  0  0  0  0
 24 13  1  0  0  0  0
 26 27  1  0  0  0  0
 27 25  1  0  0  0  0
 28  8  1  0  0  0  0
 28 30  1  0  0  0  0
 30 29  1  0  0  0  0
M  END
>  <MODEL>
3

>  <REMARK>
 VINA RESULT:      -5.2      2.676      5.129
  Name = 
  4 active torsions:
  status: ('A' for Active; 'I' for Inactive)
    1  A    between atoms: C_6  and  C_8
    2  A    between atoms: C_6  and  S_21
    3  A    between atoms: C_7  and  N_10
    4  A    between atoms: C_7  and  C_26
                            x       y       z     vdW  Elec       q    Type
                         _______ _______ _______ _____ _____    ______ ____

>  <TORSDO>
F 4

$$$$
=
 OpenBabel10272413583D

 30 33  0  0  1  0  0  0  0  0999 V2000
  189.4100  174.6680  135.1940 C   0  0  0  0  0  0  0  0  0  0  0  0
  190.9480  172.6840  135.7480 C   0  0  0  0  0  2  0  0  0  0  0  0
  193.0910  175.9770  137.9890 C   0  0  0  0  0  2  0  0  0  0  0  0
  188.7480  175.5020  138.2290 C   0  0  0  0  0  2  0  0  0  0  0  0
  189.2750  176.0890  135.2190 N   0  0  0  0  0  2  0  0  0  0  0  0
  187.1540  176.5800  136.5720 C   0  0  2  0  0  3  0  0  0  0  0  0
  187.7180  178.0410  134.3950 S   0  0  0  0  0  0  0  0  0  0  0  0
  190.1250  177.5320  139.8490 N   0  0  0  0  0  0  0  0  0  0  0  0
  192.2660  177.0490  138.7030 C   0  0  2  0  0  3  0  0  0  0  0  0
  188.0050  176.7380  135.3350 C   0  0  0  0  0  0  0  0  0  0  0  0
  187.9050  176.6210  137.8310 N   0  0  0  0  0  0  0  0  0  0  0  0
  191.8900  172.9180  134.5630 C   0  0  0  0  0  2  0  0  0  0  0  0
  189.3510  178.4220  138.9620 C   0  0  0  0  0  2  0  0  0  0  0  0
  188.7580  174.0030  134.3460 O   0  0  0  0  0  0  0  0  0  0  0  0
  192.3400  175.3830  136.7980 C   0  0  1  0  0  3  0  0  0  0  0  0
  192.7800  174.1540  134.6860 C   0  0  0  0  0  2  0  0  0  0  0  0
  190.2280  173.9420  136.2370 C   0  0  1  0  0  3  0  0  0  0  0  0
  190.1870  175.8750  137.9370 C   0  0  1  0  0  3  0  0  0  0  0  0
  193.0540  177.5480  139.8990 C   0  0  0  0  0  1  0  0  0  0  0  0
  190.9040  176.4930  139.1480 C   0  0  2  0  0  3  0  0  0  0  0  0
  186.9940  178.6040  138.6510 O   0  0  0  0  0  0  0  0  0  0  0  0
  193.2600  174.3850  136.1090 C   0  0  0  0  0  2  0  0  0  0  0  0
  191.0170  174.7600  137.2900 C   0  0  2  0  0  3  0  0  0  0  0  0
  188.0140  177.8790  138.5120 C   0  0  0  0  0  0  0  0  0  0  0  0
  186.0060  175.5690  136.5170 C   0  0  0  0  0  2  0  0  0  0  0  0
  183.8350  174.6850  137.6700 C   0  0  0  0  0  1  0  0  0  0  0  0
  184.3810  176.2580  136.9550 S   0  0  0  0  0  0  0  0  0  0  0  0
  189.3120  176.9340  140.9080 C   0  0  0  0  0  2  0  0  0  0  0  0
  190.2860  175.7930  142.8960 C   0  0  0  0  0  1  0  0  0  0  0  0
  189.9730  177.1340  142.2610 C   0  0  0  0  0  2  0  0  0  0  0  0
  1  5  1  0  0  0  0
  1 17  1  0  0  0  0
  3  9  1  0  0  0  0
  5 10  1  0  0  0  0
  6 25  1  6  0  0  0
  6 11  1  0  0  0  0
  7 10  2  0  0  0  0
  8 28  1  0  0  0  0
  9 20  1  0  0  0  0
  9 19  1  1  0  0  0
 10  6  1  0  0  0  0
 11  4  1  0  0  0  0
 11 24  1  0  0  0  0
 12 16  1  0  0  0  0
 12  2  1  0  0  0  0
 13  8  1  0  0  0  0
 14  1  2  0  0  0  0
 15 22  1  1  0  0  0
 15 23  1  0  0  0  0
 15  3  1  0  0  0  0
 16 22  1  0  0  0  0
 17  2  1  6  0  0  0
 17 23  1  0  0  0  0
 18  4  1  1  0  0  0
 18 20  1  0  0  0  0
 20  8  1  6  0  0  0
 23 18  1  0  0  0  0
 24 21  2  0  0  0  0
 24 13  1  0  0  0  0
 25 27  1  0  0  0  0
 27 26  1  0  0  0  0
 28 30  1  0  0  0  0
 30 29  1  0  0  0  0
M  END
>  <MODEL>
4

>  <REMARK>
 VINA RESULT:      -5.1      3.773      7.370
  Name = 
  4 active torsions:
  status: ('A' for Active; 'I' for Inactive)
    1  A    between atoms: C_6  and  C_8
    2  A    between atoms: C_6  and  S_21
    3  A    between atoms: C_7  and  N_10
    4  A    between atoms: C_7  and  C_26
                            x       y       z     vdW  Elec       q    Type
                         _______ _______ _______ _____ _____    ______ ____

>  <TORSDO>
F 4

$$$$
=
 OpenBabel10272413583D

 30 33  0  0  1  0  0  0  0  0999 V2000
  189.3850  177.4490  145.7630 C   0  0  0  0  0  0  0  0  0  0  0  0
  188.0100  176.1600  147.5110 C   0  0  0  0  0  2  0  0  0  0  0  0
  184.9120  179.1580  146.1420 C   0  0  0  0  0  2  0  0  0  0  0  0
  187.3960  176.9720  143.2800 C   0  0  0  0  0  2  0  0  0  0  0  0
  189.4420  178.6200  144.9480 N   0  0  0  0  0  2  0  0  0  0  0  0
  189.6800  177.7960  142.5320 C   0  0  2  0  0  3  0  0  0  0  0  0
  191.0430  179.9570  143.3460 S   0  0  0  0  0  0  0  0  0  0  0  0
  185.2640  178.7680  142.3480 N   0  0  0  0  0  0  0  0  0  0  0  0
  184.8530  179.5430  144.6630 C   0  0  2  0  0  3  0  0  0  0  0  0
  190.1310  178.6480  143.6930 C   0  0  0  0  0  0  0  0  0  0  0  0
  188.2260  177.7350  142.3560 N   0  0  0  0  0  0  0  0  0  0  0  0
  188.3630  177.0990  148.6690 C   0  0  0  0  0  2  0  0  0  0  0  0
  186.4360  179.5120  141.8450 C   0  0  0  0  0  2  0  0  0  0  0  0
  190.4570  176.8800  146.0990 O   0  0  0  0  0  0  0  0  0  0  0  0
  186.3160  178.7180  146.5580 C   0  0  1  0  0  3  0  0  0  0  0  0
  187.7140  178.4800  148.5960 C   0  0  0  0  0  2  0  0  0  0  0  0
  188.0630  176.8170  146.1300 C   0  0  1  0  0  3  0  0  0  0  0  0
  186.7400  177.9500  144.2340 C   0  0  1  0  0  3  0  0  0  0  0  0
  183.4230  179.9130  144.3170 C   0  0  0  0  0  1  0  0  0  0  0  0
  185.3420  178.3900  143.7720 C   0  0  2  0  0  3  0  0  0  0  0  0
  188.1320  178.8430  140.3080 O   0  0  0  0  0  0  0  0  0  0  0  0
  186.2960  178.4270  148.0530 C   0  0  0  0  0  2  0  0  0  0  0  0
  186.7440  177.5090  145.7020 C   0  0  2  0  0  3  0  0  0  0  0  0
  187.6160  178.6570  141.4410 C   0  0  0  0  0  0  0  0  0  0  0  0
  190.4330  176.4880  142.2810 C   0  0  0  0  0  2  0  0  0  0  0  0
  191.2400  177.2880  139.9280 C   0  0  0  0  0  1  0  0  0  0  0  0
  192.0350  176.6960  141.4460 S   0  0  0  0  0  0  0  0  0  0  0  0
  184.9330  177.6040  141.5270 C   0  0  0  0  0  2  0  0  0  0  0  0
  182.6060  178.4140  141.1550 C   0  0  0  0  0  1  0  0  0  0  0  0
  183.8910  177.9710  140.4830 C   0  0  0  0  0  2  0  0  0  0  0  0
  1 14  2  0  0  0  0
  1 17  1  0  0  0  0
  2 12  1  0  0  0  0
  5  1  1  0  0  0  0
  6 25  1  1  0  0  0
  6 10  1  0  0  0  0
  7 10  2  0  0  0  0
  9 19  1  6  0  0  0
  9  3  1  0  0  0  0
 10  5  1  0  0  0  0
 11  6  1  0  0  0  0
 11  4  1  0  0  0  0
 13  8  1  0  0  0  0
 15  3  1  6  0  0  0
 15 22  1  0  0  0  0
 16 12  1  0  0  0  0
 17  2  1  1  0  0  0
 18  4  1  6  0  0  0
 18 23  1  0  0  0  0
 20  8  1  6  0  0  0
 20 18  1  0  0  0  0
 20  9  1  0  0  0  0
 21 24  2  0  0  0  0
 22 16  1  0  0  0  0
 23 17  1  0  0  0  0
 23 15  1  0  0  0  0
 24 13  1  0  0  0  0
 24 11  1  0  0  0  0
 26 27  1  0  0  0  0
 27 25  1  0  0  0  0
 28  8  1  0  0  0  0
 30 29  1  0  0  0  0
 30 28  1  0  0  0  0
M  END
>  <MODEL>
5

>  <REMARK>
 VINA RESULT:      -4.7      4.032      6.653
  Name = 
  4 active torsions:
  status: ('A' for Active; 'I' for Inactive)
    1  A    between atoms: C_6  and  C_8
    2  A    between atoms: C_6  and  S_21
    3  A    between atoms: C_7  and  N_10
    4  A    between atoms: C_7  and  C_26
                            x       y       z     vdW  Elec       q    Type
                         _______ _______ _______ _____ _____    ______ ____

>  <TORSDO>
F 4

$$$$
=
 OpenBabel10272413583D

 30 33  0  0  1  0  0  0  0  0999 V2000
  185.5680  174.9010  136.7240 C   0  0  0  0  0  0  0  0  0  0  0  0
  184.8770  172.7340  137.9200 C   0  0  0  0  0  2  0  0  0  0  0  0
  187.9220  171.0810  135.0110 C   0  0  0  0  0  2  0  0  0  0  0  0
  188.7180  174.6970  137.3410 C   0  0  0  0  0  2  0  0  0  0  0  0
  186.2520  175.4530  135.5990 N   0  0  0  0  0  2  0  0  0  0  0  0
  188.0460  177.0160  136.5530 C   0  0  2  0  0  3  0  0  0  0  0  0
  186.6950  177.7220  134.3460 S   0  0  0  0  0  0  0  0  0  0  0  0
  190.7920  173.5470  135.6060 N   0  0  0  0  0  0  0  0  0  0  0  0
  189.1790  171.8970  134.7070 C   0  0  2  0  0  3  0  0  0  0  0  0
  186.8790  176.7390  135.6370 C   0  0  0  0  0  0  0  0  0  0  0  0
  189.0270  175.9290  136.6270 N   0  0  0  0  0  0  0  0  0  0  0  0
  183.7730  172.3810  136.9190 C   0  0  0  0  0  2  0  0  0  0  0  0
  190.5590  174.8150  134.8870 C   0  0  0  0  0  2  0  0  0  0  0  0
  184.6470  175.5660  137.2700 O   0  0  0  0  0  0  0  0  0  0  0  0
  186.7510  171.9740  135.4230 C   0  0  1  0  0  3  0  0  0  0  0  0
  184.2710  171.9330  135.5450 C   0  0  0  0  0  2  0  0  0  0  0  0
  186.0020  173.5920  137.3390 C   0  0  1  0  0  3  0  0  0  0  0  0
  188.3640  173.6390  136.3160 C   0  0  1  0  0  3  0  0  0  0  0  0
  190.3040  170.9400  134.3600 C   0  0  0  0  0  1  0  0  0  0  0  0
  189.5690  172.7770  135.9050 C   0  0  2  0  0  3  0  0  0  0  0  0
  190.8020  177.0660  135.6330 O   0  0  0  0  0  0  0  0  0  0  0  0
  185.5310  171.0870  135.6320 C   0  0  0  0  0  2  0  0  0  0  0  0
  187.1450  172.7820  136.6760 C   0  0  2  0  0  3  0  0  0  0  0  0
  190.1670  175.9860  135.7580 C   0  0  0  0  0  0  0  0  0  0  0  0
  187.7550  177.7380  137.8700 C   0  0  0  0  0  2  0  0  0  0  0  0
  188.9890  177.3340  140.1370 C   0  0  0  0  0  1  0  0  0  0  0  0
  189.2300  178.4080  138.6970 S   0  0  0  0  0  0  0  0  0  0  0  0
  191.5990  173.7160  136.8130 C   0  0  0  0  0  2  0  0  0  0  0  0
  194.0090  174.3270  136.9560 C   0  0  0  0  0  1  0  0  0  0  0  0
  193.0220  173.2420  136.5710 C   0  0  0  0  0  2  0  0  0  0  0  0
  1 14  2  0  0  0  0
  1 17  1  0  0  0  0
  5 10  1  0  0  0  0
  5  1  1  0  0  0  0
  6 11  1  0  0  0  0
  6 25  1  1  0  0  0
  7 10  2  0  0  0  0
  8 28  1  0  0  0  0
  9 19  1  1  0  0  0
  9  3  1  0  0  0  0
  9 20  1  0  0  0  0
 10  6  1  0  0  0  0
 11  4  1  0  0  0  0
 12  2  1  0  0  0  0
 13  8  1  0  0  0  0
 13 24  1  0  0  0  0
 15  3  1  1  0  0  0
 15 22  1  0  0  0  0
 15 23  1  0  0  0  0
 16 22  1  0  0  0  0
 16 12  1  0  0  0  0
 17  2  1  6  0  0  0
 18 23  1  0  0  0  0
 18  4  1  1  0  0  0
 20  8  1  6  0  0  0
 20 18  1  0  0  0  0
 21 24  2  0  0  0  0
 23 17  1  0  0  0  0
 24 11  1  0  0  0  0
 25 27  1  0  0  0  0
 27 26  1  0  0  0  0
 30 28  1  0  0  0  0
 30 29  1  0  0  0  0
M  END
>  <MODEL>
6

>  <REMARK>
 VINA RESULT:      -4.5      4.783      7.502
  Name = 
  4 active torsions:
  status: ('A' for Active; 'I' for Inactive)
    1  A    between atoms: C_6  and  C_8
    2  A    between atoms: C_6  and  S_21
    3  A    between atoms: C_7  and  N_10
    4  A    between atoms: C_7  and  C_26
                            x       y       z     vdW  Elec       q    Type
                         _______ _______ _______ _____ _____    ______ ____

>  <TORSDO>
F 4

$$$$
=
 OpenBabel10272413583D

 30 33  0  0  1  0  0  0  0  0999 V2000
  185.1960  177.9290  137.6770 C   0  0  0  0  0  0  0  0  0  0  0  0
  183.4210  177.9460  139.5370 C   0  0  0  0  0  2  0  0  0  0  0  0
  181.2020  175.6030  136.3680 C   0  0  0  0  0  2  0  0  0  0  0  0
  185.3770  174.7340  137.3460 C   0  0  0  0  0  2  0  0  0  0  0  0
  185.4440  177.6630  136.2970 N   0  0  0  0  0  2  0  0  0  0  0  0
  187.3260  175.9240  136.2330 C   0  0  2  0  0  3  0  0  0  0  0  0
  187.2830  177.9120  134.4340 S   0  0  0  0  0  0  0  0  0  0  0  0
  183.9120  173.0680  135.4190 N   0  0  0  0  0  0  0  0  0  0  0  0
  181.9750  174.6080  135.5010 C   0  0  2  0  0  3  0  0  0  0  0  0
  186.7240  177.2440  135.8140 C   0  0  0  0  0  0  0  0  0  0  0  0
  186.3700  174.8130  136.2820 N   0  0  0  0  0  0  0  0  0  0  0  0
  182.7270  179.2180  139.0410 C   0  0  0  0  0  2  0  0  0  0  0  0
  184.9030  173.6690  134.5050 C   0  0  0  0  0  2  0  0  0  0  0  0
  185.9290  178.7510  138.2880 O   0  0  0  0  0  0  0  0  0  0  0  0
  182.1000  176.7340  136.8720 C   0  0  1  0  0  3  0  0  0  0  0  0
  181.9380  179.0530  137.7440 C   0  0  0  0  0  2  0  0  0  0  0  0
  184.1480  177.1580  138.4450 C   0  0  1  0  0  3  0  0  0  0  0  0
  184.0490  175.1970  136.7800 C   0  0  1  0  0  3  0  0  0  0  0  0
  181.0330  173.4940  135.0870 C   0  0  0  0  0  1  0  0  0  0  0  0
  183.1840  174.0380  136.2590 C   0  0  2  0  0  3  0  0  0  0  0  0
  187.2850  173.5600  134.5430 O   0  0  0  0  0  0  0  0  0  0  0  0
  181.2340  177.7090  137.6580 C   0  0  0  0  0  2  0  0  0  0  0  0
  183.2560  176.1340  137.6980 C   0  0  2  0  0  3  0  0  0  0  0  0
  186.2480  173.9740  135.1250 C   0  0  0  0  0  0  0  0  0  0  0  0
  188.3750  175.9460  137.3470 C   0  0  0  0  0  2  0  0  0  0  0  0
  189.1080  177.4980  139.3160 C   0  0  0  0  0  1  0  0  0  0  0  0
  189.2590  177.5270  137.5100 S   0  0  0  0  0  0  0  0  0  0  0  0
  184.4700  171.9960  136.2410 C   0  0  0  0  0  2  0  0  0  0  0  0
  182.7600  170.2280  135.8460 C   0  0  0  0  0  1  0  0  0  0  0  0
  183.3570  171.1750  136.8700 C   0  0  0  0  0  2  0  0  0  0  0  0
  1 14  2  0  0  0  0
  1 17  1  0  0  0  0
  5  1  1  0  0  0  0
  6 11  1  0  0  0  0
  6 25  1  1  0  0  0
  7 10  2  0  0  0  0
  8 28  1  0  0  0  0
  9 19  1  1  0  0  0
  9 20  1  0  0  0  0
  9  3  1  0  0  0  0
 10  6  1  0  0  0  0
 10  5  1  0  0  0  0
 11  4  1  0  0  0  0
 12  2  1  0  0  0  0
 13 24  1  0  0  0  0
 13  8  1  0  0  0  0
 15  3  1  1  0  0  0
 15 22  1  0  0  0  0
 15 23  1  0  0  0  0
 16 12  1  0  0  0  0
 17  2  1  6  0  0  0
 18  4  1  1  0  0  0
 18 23  1  0  0  0  0
 20  8  1  6  0  0  0
 20 18  1  0  0  0  0
 21 24  2  0  0  0  0
 22 16  1  0  0  0  0
 23 17  1  0  0  0  0
 24 11  1  0  0  0  0
 25 27  1  0  0  0  0
 27 26  1  0  0  0  0
 28 30  1  0  0  0  0
 29 30  1  0  0  0  0
M  END
>  <MODEL>
7

>  <REMARK>
 VINA RESULT:      -4.5      4.054      7.046
  Name = 
  4 active torsions:
  status: ('A' for Active; 'I' for Inactive)
    1  A    between atoms: C_6  and  C_8
    2  A    between atoms: C_6  and  S_21
    3  A    between atoms: C_7  and  N_10
    4  A    between atoms: C_7  and  C_26
                            x       y       z     vdW  Elec       q    Type
                         _______ _______ _______ _____ _____    ______ ____

>  <TORSDO>
F 4

$$$$
=
 OpenBabel10272413583D

 30 33  0  0  1  0  0  0  0  0999 V2000
  186.4650  178.3900  137.4490 C   0  0  0  0  0  0  0  0  0  0  0  0
  187.2880  177.6660  135.1240 C   0  0  0  0  0  2  0  0  0  0  0  0
  185.8060  173.6930  136.6970 C   0  0  0  0  0  2  0  0  0  0  0  0
  183.4400  177.3470  137.1300 C   0  0  0  0  0  2  0  0  0  0  0  0
  186.0390  177.9400  138.7340 N   0  0  0  0  0  2  0  0  0  0  0  0
  183.7030  178.9300  139.0990 C   0  0  2  0  0  3  0  0  0  0  0  0
  185.4340  178.8060  141.1430 S   0  0  0  0  0  0  0  0  0  0  0  0
  182.3610  174.7520  137.9920 N   0  0  0  0  0  0  0  0  0  0  0  0
  184.5360  173.6580  137.5490 C   0  0  2  0  0  3  0  0  0  0  0  0
  185.1240  178.6850  139.5450 C   0  0  0  0  0  0  0  0  0  0  0  0
  183.0590  177.7720  138.4700 N   0  0  0  0  0  0  0  0  0  0  0  0
  188.6970  177.2940  135.5970 C   0  0  0  0  0  2  0  0  0  0  0  0
  182.4690  175.4130  139.3080 C   0  0  0  0  0  2  0  0  0  0  0  0
  186.9730  179.5380  137.3370 O   0  0  0  0  0  0  0  0  0  0  0  0
  186.5260  175.0370  136.8060 C   0  0  1  0  0  3  0  0  0  0  0  0
  188.7730  176.0320  136.4540 C   0  0  0  0  0  2  0  0  0  0  0  0
  186.2140  177.5660  136.2090 C   0  0  1  0  0  3  0  0  0  0  0  0
  184.3470  176.1410  137.2630 C   0  0  1  0  0  3  0  0  0  0  0  0
  183.8550  172.3170  137.3460 C   0  0  0  0  0  1  0  0  0  0  0  0
  183.5880  174.8070  137.1750 C   0  0  2  0  0  3  0  0  0  0  0  0
  181.4420  177.4100  140.1100 O   0  0  0  0  0  0  0  0  0  0  0  0
  187.8080  174.9540  135.9890 C   0  0  0  0  0  2  0  0  0  0  0  0
  185.5750  176.1610  136.3450 C   0  0  2  0  0  3  0  0  0  0  0  0
  182.2630  176.9100  139.2960 C   0  0  0  0  0  0  0  0  0  0  0  0
  183.3830  180.2880  138.4710 C   0  0  0  0  0  2  0  0  0  0  0  0
  181.1070  180.4480  137.1980 C   0  0  0  0  0  1  0  0  0  0  0  0
  181.7140  180.9090  138.8420 S   0  0  0  0  0  0  0  0  0  0  0  0
  181.2090  175.2120  137.2170 C   0  0  0  0  0  2  0  0  0  0  0  0
  180.1840  172.9760  137.6110 C   0  0  0  0  0  1  0  0  0  0  0  0
  180.5000  174.0330  136.5710 C   0  0  0  0  0  2  0  0  0  0  0  0
  1  5  1  0  0  0  0
  2 12  1  0  0  0  0
  3 15  1  0  0  0  0
  3  9  1  0  0  0  0
  4 11  1  0  0  0  0
  5 10  1  0  0  0  0
  6 25  1  6  0  0  0
  6 10  1  0  0  0  0
  8 13  1  0  0  0  0
  9 19  1  6  0  0  0
 10  7  2  0  0  0  0
 11  6  1  0  0  0  0
 11 24  1  0  0  0  0
 12 16  1  0  0  0  0
 14  1  2  0  0  0  0
 15 22  1  6  0  0  0
 17  2  1  1  0  0  0
 17 23  1  0  0  0  0
 17  1  1  0  0  0  0
 18  4  1  6  0  0  0
 20 18  1  0  0  0  0
 20  9  1  0  0  0  0
 20  8  1  1  0  0  0
 22 16  1  0  0  0  0
 23 15  1  0  0  0  0
 23 18  1  0  0  0  0
 24 13  1  0  0  0  0
 24 21  2  0  0  0  0
 25 27  1  0  0  0  0
 26 27  1  0  0  0  0
 28  8  1  0  0  0  0
 30 28  1  0  0  0  0
 30 29  1  0  0  0  0
M  END
>  <MODEL>
8

>  <REMARK>
 VINA RESULT:      -4.5      3.110      6.419
  Name = 
  4 active torsions:
  status: ('A' for Active; 'I' for Inactive)
    1  A    between atoms: C_6  and  C_8
    2  A    between atoms: C_6  and  S_21
    3  A    between atoms: C_7  and  N_10
    4  A    between atoms: C_7  and  C_26
                            x       y       z     vdW  Elec       q    Type
                         _______ _______ _______ _____ _____    ______ ____

>  <TORSDO>
F 4

$$$$
=
 OpenBabel10272413583D

 30 33  0  0  1  0  0  0  0  0999 V2000
  185.4140  178.2120  137.9320 C   0  0  0  0  0  0  0  0  0  0  0  0
  187.0110  177.7030  135.9840 C   0  0  0  0  0  2  0  0  0  0  0  0
  185.6400  173.5090  136.9830 C   0  0  0  0  0  2  0  0  0  0  0  0
  182.8030  176.8250  136.6640 C   0  0  0  0  0  2  0  0  0  0  0  0
  184.6680  177.6540  139.0140 N   0  0  0  0  0  2  0  0  0  0  0  0
  182.2280  178.3350  138.6240 C   0  0  2  0  0  3  0  0  0  0  0  0
  183.2320  178.3270  141.1110 S   0  0  0  0  0  0  0  0  0  0  0  0
  181.8550  174.0810  137.1250 N   0  0  0  0  0  0  0  0  0  0  0  0
  184.1830  173.2810  137.3880 C   0  0  2  0  0  3  0  0  0  0  0  0
  183.4570  178.2430  139.4960 C   0  0  0  0  0  0  0  0  0  0  0  0
  181.9690  177.1380  137.8180 N   0  0  0  0  0  0  0  0  0  0  0  0
  188.2360  177.4830  136.8770 C   0  0  0  0  0  2  0  0  0  0  0  0
  181.4590  174.6880  138.4120 C   0  0  0  0  0  2  0  0  0  0  0  0
  185.7770  179.4170  137.9930 O   0  0  0  0  0  0  0  0  0  0  0  0
  186.1080  174.9250  137.3220 C   0  0  1  0  0  3  0  0  0  0  0  0
  188.2030  176.2000  137.7070 C   0  0  0  0  0  2  0  0  0  0  0  0
  185.6730  177.4220  136.6710 C   0  0  1  0  0  3  0  0  0  0  0  0
  183.7720  175.7330  137.0720 C   0  0  1  0  0  3  0  0  0  0  0  0
  183.7800  171.8790  136.9720 C   0  0  0  0  0  1  0  0  0  0  0  0
  183.2590  174.3230  136.7400 C   0  0  2  0  0  3  0  0  0  0  0  0
  179.9820  176.5060  138.8580 O   0  0  0  0  0  0  0  0  0  0  0  0
  187.5810  175.0370  136.9530 C   0  0  0  0  0  2  0  0  0  0  0  0
  185.2120  175.9450  136.5900 C   0  0  2  0  0  3  0  0  0  0  0  0
  181.0740  176.1480  138.3440 C   0  0  0  0  0  0  0  0  0  0  0  0
  181.9470  179.6720  137.9360 C   0  0  0  0  0  2  0  0  0  0  0  0
  180.7180  181.1630  136.1770 C   0  0  0  0  0  1  0  0  0  0  0  0
  180.2370  179.8660  137.3490 S   0  0  0  0  0  0  0  0  0  0  0  0
  180.9550  174.4330  136.0280 C   0  0  0  0  0  2  0  0  0  0  0  0
  180.6590  172.2090  134.9470 C   0  0  0  0  0  1  0  0  0  0  0  0
  181.2620  173.5920  134.8000 C   0  0  0  0  0  2  0  0  0  0  0  0
  1 14  2  0  0  0  0
  1  5  1  0  0  0  0
  2 12  1  0  0  0  0
  3 15  1  0  0  0  0
  3  9  1  0  0  0  0
  4 11  1  0  0  0  0
  5 10  1  0  0  0  0
  6 25  1  6  0  0  0
  6 10  1  0  0  0  0
  8 13  1  0  0  0  0
  9 19  1  6  0  0  0
 10  7  2  0  0  0  0
 11 24  1  0  0  0  0
 11  6  1  0  0  0  0
 12 16  1  0  0  0  0
 15 22  1  6  0  0  0
 17  2  1  1  0  0  0
 17  1  1  0  0  0  0
 18  4  1  6  0  0  0
 20 18  1  0  0  0  0
 20  8  1  1  0  0  0
 20  9  1  0  0  0  0
 22 16  1  0  0  0  0
 23 17  1  0  0  0  0
 23 18  1  0  0  0  0
 23 15  1  0  0  0  0
 24 13  1  0  0  0  0
 24 21  2  0  0  0  0
 26 27  1  0  0  0  0
 27 25  1  0  0  0  0
 28  8  1  0  0  0  0
 30 29  1  0  0  0  0
 30 28  1  0  0  0  0
M  END
>  <MODEL>
9

>  <REMARK>
 VINA RESULT:      -4.2      3.289      6.301
  Name = 
  4 active torsions:
  status: ('A' for Active; 'I' for Inactive)
    1  A    between atoms: C_6  and  C_8
    2  A    between atoms: C_6  and  S_21
    3  A    between atoms: C_7  and  N_10
    4  A    between atoms: C_7  and  C_26
                            x       y       z     vdW  Elec       q    Type
                         _______ _______ _______ _____ _____    ______ ____

>  <TORSDO>
F 4

$$$$
