=
 OpenBabel10272401333D

 55 60  0  0  1  0  0  0  0  0999 V2000
  189.8460  176.9980  138.6830 C   0  0  0  0  0  2  0  0  0  0  0  0
  184.9550  178.5460  137.6140 C   0  0  0  0  0  2  0  0  0  0  0  0
  185.5570  177.8740  134.8680 F   0  0  0  0  0  0  0  0  0  0  0  0
  186.1860  173.9300  135.3230 C   0  0  0  0  0  3  0  0  0  0  0  0
  185.7200  172.6710  135.3380 C   0  0  0  0  0  3  0  0  0  0  0  0
  188.3550  173.1180  136.3210 C   0  0  2  0  0  3  0  0  0  0  0  0
  188.0770  171.7940  135.6240 C   0  0  0  0  0  2  0  0  0  0  0  0
  187.4570  176.7000  135.4680 N   0  0  0  0  0  2  0  0  0  0  0  0
  186.5790  171.4840  135.7050 C   0  0  0  0  0  2  0  0  0  0  0  0
  190.4750  177.2750  141.0860 C   0  0  0  0  0  3  0  0  0  0  0  0
  187.6410  174.2470  135.5610 C   0  0  2  0  0  3  0  0  0  0  0  0
  187.8140  177.8340  141.7690 C   0  0  0  0  0  0  0  0  0  0  0  0
  189.2930  175.7250  138.2570 N   0  0  0  0  0  2  0  0  0  0  0  0
  188.1540  177.5370  140.4420 C   0  0  0  0  0  3  0  0  0  0  0  0
  190.2260  174.7160  136.2000 C   0  0  1  0  0  3  0  0  0  0  0  0
  185.0940  179.3590  138.8910 C   0  0  0  0  0  2  0  0  0  0  0  0
  189.8060  173.3290  136.4580 N   0  0  0  0  0  2  0  0  0  0  0  0
  186.3190  178.1090  137.1120 C   0  0  0  0  0  2  0  0  0  0  0  0
  186.1580  177.1870  135.9090 C   0  0  1  0  0  3  0  0  0  0  0  0
  190.1360  177.5550  142.4130 C   0  0  0  0  0  3  0  0  0  0  0  0
  184.9990  178.4630  140.1190 C   0  0  1  0  0  3  0  0  0  0  0  0
  189.4830  177.2660  140.1000 C   0  0  0  0  0  0  0  0  0  0  0  0
  187.8240  175.5710  136.3130 C   0  0  1  0  0  3  0  0  0  0  0  0
  189.2660  175.7590  136.8030 C   0  0  1  0  0  3  0  0  0  0  0  0
  185.7460  179.1440  141.2600 C   0  0  0  0  0  2  0  0  0  0  0  0
  186.3960  178.1020  142.1610 C   0  0  0  0  0  2  0  0  0  0  0  0
  188.8070  177.8330  142.7540 C   0  0  0  0  0  3  0  0  0  0  0  0
  192.4020  176.1200  136.1280 C   0  0  0  0  0  3  0  0  0  0  0  0
  194.5030  174.9390  136.7060 C   0  0  1  0  0  3  0  0  0  0  0  0
  192.2660  174.0220  137.3630 C   0  0  0  0  0  3  0  0  0  0  0  0
  193.6870  174.2380  137.8110 C   0  0  0  0  0  2  0  0  0  0  0  0
  193.7360  176.1470  136.2080 C   0  0  0  0  0  3  0  0  0  0  0  0
  191.6480  174.9420  136.6140 C   0  0  0  0  0  0  0  0  0  0  0  0
  195.8400  175.3200  137.1880 N   0  0  0  0  0  0  0  0  0  0  0  0
  196.2880  174.3270  138.1540 C   0  0  0  0  0  1  0  0  0  0  0  0
  196.7800  175.2150  136.0810 C   0  0  0  0  0  1  0  0  0  0  0  0
  183.2680  178.8060  141.7550 O   0  0  0  0  0  1  0  0  0  0  0  0
  183.5320  178.2290  140.5120 C   0  0  2  0  0  3  0  0  0  0  0  0
  183.2510  176.8570  140.5800 O   0  0  0  0  0  0  0  0  0  0  0  0
  181.3380  177.0950  138.9260 C   0  0  2  0  0  0  0  0  0  0  0  0
  180.9740  175.6120  140.7830 F   0  0  0  0  0  0  0  0  0  0  0  0
  181.4140  175.6640  139.4680 C   0  0  2  0  0  3  0  0  0  0  0  0
  182.6810  176.5040  139.3430 C   0  0  2  0  0  0  0  0  0  0  0  0
  183.5460  176.0090  138.3630 O   0  0  0  0  0  1  0  0  0  0  0  0
  180.8140  178.0320  139.8190 O   0  0  0  0  0  1  0  0  0  0  0  0
  181.0660  177.3450  137.4220 C   0  0  1  0  0  3  0  0  0  0  0  0
  180.7080  178.7980  137.0760 C   0  0  2  0  0  3  0  0  0  0  0  0
  180.0900  178.8920  135.6920 C   0  0  0  0  0  1  0  0  0  0  0  0
  181.8390  179.5960  137.1120 F   0  0  0  0  0  0  0  0  0  0  0  0
  182.4590  177.6040  135.4620 O   0  0  0  0  0  1  0  0  0  0  0  0
  182.0200  176.6810  136.4140 C   0  0  2  0  0  3  0  0  0  0  0  0
  182.3410  174.3410  135.4710 N   0  0  0  0  0  2  0  0  0  0  0  0
  181.8700  173.1570  134.7750 C   0  0  0  0  0  1  0  0  0  0  0  0
  181.4770  175.4390  135.7670 C   0  0  0  0  0  0  0  0  0  0  0  0
  180.2500  175.3770  135.4810 O   0  0  0  0  0  0  0  0  0  0  0  0
  1 22  1  0  0  0  0
  2 16  1  0  0  0  0
  4  5  2  0  0  0  0
  5  9  1  0  0  0  0
  6  7  1  6  0  0  0
  6 17  1  0  0  0  0
  7  9  1  0  0  0  0
  8 19  1  0  0  0  0
 10 20  1  0  0  0  0
 11  4  1  1  0  0  0
 11 23  1  0  0  0  0
 11  6  1  0  0  0  0
 12 26  1  0  0  0  0
 12 27  1  0  0  0  0
 13  1  1  0  0  0  0
 14 12  2  0  0  0  0
 15 17  1  0  0  0  0
 15 33  1  1  0  0  0
 15 24  1  0  0  0  0
 16 21  1  0  0  0  0
 18  2  1  0  0  0  0
 19  3  1  6  0  0  0
 19 18  1  0  0  0  0
 20 27  2  0  0  0  0
 21 38  1  1  0  0  0
 21 25  1  0  0  0  0
 22 14  1  0  0  0  0
 22 10  2  0  0  0  0
 23  8  1  6  0  0  0
 23 24  1  0  0  0  0
 24 13  1  1  0  0  0
 25 26  1  0  0  0  0
 28 32  2  0  0  0  0
 28 33  1  0  0  0  0
 29 34  1  1  0  0  0
 29 31  1  0  0  0  0
 30 31  1  0  0  0  0
 32 29  1  0  0  0  0
 33 30  2  0  0  0  0
 34 35  1  0  0  0  0
 36 34  1  0  0  0  0
 38 39  1  0  0  0  0
 38 37  1  1  0  0  0
 40 43  1  0  0  0  0
 40 42  1  0  0  0  0
 40 45  1  1  0  0  0
 42 41  1  1  0  0  0
 43 44  1  6  0  0  0
 43 42  1  0  0  0  0
 43 39  1  0  0  0  0
 46 51  1  6  0  0  0
 46 40  1  0  0  0  0
 47 48  1  6  0  0  0
 47 49  1  0  0  0  0
 47 46  1  0  0  0  0
 51 50  1  6  0  0  0
 52 54  1  0  0  0  0
 53 52  1  0  0  0  0
 54 51  1  0  0  0  0
 55 54  2  0  0  0  0
M  END
>  <MODEL>
1

>  <REMARK>
 VINA RESULT:      -6.5      0.000      0.000
  Name = 
  9 active torsions:
  status: ('A' for Active; 'I' for Inactive)
    1  A    between atoms: C_1  and  C_53
    2  A    between atoms: C_6  and  C_53
    3  A    between atoms: C_8  and  O_22
    4  A    between atoms: C_8  and  C_43
    5  A    between atoms: N_10  and  C_32
    6  A    between atoms: C_20  and  O_22
    7  A    between atoms: C_29  and  C_38
    8  A    between atoms: C_33  and  C_52
    9  A    between atoms: C_38  and  C_53
                            x       y       z     vdW  Elec       q    Type
                         _______ _______ _______ _____ _____    ______ ____

>  <TORSDO>
F 9

$$$$
=
 OpenBabel10272401333D

 55 60  0  0  1  0  0  0  0  0999 V2000
  190.9840  176.9280  138.6180 C   0  0  0  0  0  2  0  0  0  0  0  0
  186.2950  178.6470  137.0290 C   0  0  0  0  0  2  0  0  0  0  0  0
  187.2380  178.1330  134.3460 F   0  0  0  0  0  0  0  0  0  0  0  0
  187.7480  174.1550  134.6250 C   0  0  0  0  0  3  0  0  0  0  0  0
  187.2660  172.9080  134.4990 C   0  0  0  0  0  3  0  0  0  0  0  0
  189.7580  173.2350  135.8390 C   0  0  2  0  0  3  0  0  0  0  0  0
  189.5540  171.9630  135.0290 C   0  0  0  0  0  2  0  0  0  0  0  0
  189.0280  176.8820  135.1100 N   0  0  0  0  0  2  0  0  0  0  0  0
  188.0540  171.6820  134.8970 C   0  0  0  0  0  2  0  0  0  0  0  0
  191.2990  177.0420  141.0930 C   0  0  0  0  0  3  0  0  0  0  0  0
  189.1640  174.4250  135.0680 C   0  0  2  0  0  3  0  0  0  0  0  0
  188.5800  177.6160  141.4630 C   0  0  0  0  0  0  0  0  0  0  0  0
  190.4720  175.6970  138.0430 N   0  0  0  0  0  2  0  0  0  0  0  0
  189.0850  177.3950  140.1750 C   0  0  0  0  0  3  0  0  0  0  0  0
  191.6510  174.7960  136.0630 C   0  0  1  0  0  3  0  0  0  0  0  0
  186.2780  179.3760  138.3630 C   0  0  0  0  0  2  0  0  0  0  0  0
  191.1810  173.4050  136.1750 N   0  0  0  0  0  2  0  0  0  0  0  0
  187.7050  178.2120  136.6800 C   0  0  0  0  0  2  0  0  0  0  0  0
  187.6890  177.3700  135.4100 C   0  0  1  0  0  3  0  0  0  0  0  0
  190.7940  177.2460  142.3820 C   0  0  0  0  0  3  0  0  0  0  0  0
  186.0120  178.4090  139.5090 C   0  0  1  0  0  3  0  0  0  0  0  0
  190.4430  177.1160  139.9900 C   0  0  0  0  0  0  0  0  0  0  0  0
  189.2670  175.6950  135.9200 C   0  0  1  0  0  3  0  0  0  0  0  0
  190.6350  175.8210  136.6030 C   0  0  1  0  0  3  0  0  0  0  0  0
  186.6140  179.0010  140.7780 C   0  0  0  0  0  2  0  0  0  0  0  0
  187.1270  177.8900  141.6860 C   0  0  0  0  0  2  0  0  0  0  0  0
  189.4370  177.5320  142.5650 C   0  0  0  0  0  3  0  0  0  0  0  0
  194.0830  175.6790  135.9410 C   0  0  0  0  0  3  0  0  0  0  0  0
  195.7390  174.5730  137.4180 C   0  0  1  0  0  3  0  0  0  0  0  0
  193.2780  174.3880  137.8460 C   0  0  0  0  0  3  0  0  0  0  0  0
  194.6290  174.5630  138.4870 C   0  0  0  0  0  2  0  0  0  0  0  0
  195.3590  175.5380  136.3120 C   0  0  0  0  0  3  0  0  0  0  0  0
  193.0100  174.9640  136.6690 C   0  0  0  0  0  0  0  0  0  0  0  0
  197.0440  174.9210  138.0020 N   0  0  0  0  0  0  0  0  0  0  0  0
  196.9890  174.6810  139.4380 C   0  0  0  0  0  1  0  0  0  0  0  0
  198.0410  173.9850  137.5040 C   0  0  0  0  0  1  0  0  0  0  0  0
  184.1300  178.4750  141.0060 O   0  0  0  0  0  1  0  0  0  0  0  0
  184.5030  178.1830  139.6940 C   0  0  2  0  0  3  0  0  0  0  0  0
  184.1630  176.8520  139.4110 O   0  0  0  0  0  0  0  0  0  0  0  0
  182.9040  175.5710  137.6170 C   0  0  2  0  0  0  0  0  0  0  0  0
  185.2980  175.6320  137.4120 F   0  0  0  0  0  0  0  0  0  0  0  0
  184.1300  176.2720  137.0240 C   0  0  2  0  0  3  0  0  0  0  0  0
  183.4070  176.8760  138.2250 C   0  0  2  0  0  0  0  0  0  0  0  0
  182.7640  178.0740  137.9040 O   0  0  0  0  0  1  0  0  0  0  0  0
  183.1890  174.4300  138.3710 O   0  0  0  0  0  1  0  0  0  0  0  0
  181.5580  175.5730  136.8510 C   0  0  1  0  0  3  0  0  0  0  0  0
  181.3780  174.3970  135.8810 C   0  0  2  0  0  3  0  0  0  0  0  0
  181.2640  174.8850  134.4470 C   0  0  0  0  0  1  0  0  0  0  0  0
  180.2370  173.6790  136.1960 F   0  0  0  0  0  0  0  0  0  0  0  0
  179.9820  177.2750  137.5400 O   0  0  0  0  0  1  0  0  0  0  0  0
  180.2910  175.9170  137.6540 C   0  0  2  0  0  3  0  0  0  0  0  0
  180.0370  174.1240  139.4410 N   0  0  0  0  0  2  0  0  0  0  0  0
  179.9820  173.6820  140.8230 C   0  0  0  0  0  1  0  0  0  0  0  0
  180.3260  175.4790  139.0900 C   0  0  0  0  0  0  0  0  0  0  0  0
  180.6050  176.3210  139.9870 O   0  0  0  0  0  0  0  0  0  0  0  0
  1 22  1  0  0  0  0
  2 16  1  0  0  0  0
  5  4  2  0  0  0  0
  5  9  1  0  0  0  0
  6  7  1  6  0  0  0
  6 17  1  0  0  0  0
  8 19  1  0  0  0  0
  9  7  1  0  0  0  0
 10 20  1  0  0  0  0
 11  4  1  1  0  0  0
 11  6  1  0  0  0  0
 11 23  1  0  0  0  0
 12 26  1  0  0  0  0
 12 27  1  0  0  0  0
 13  1  1  0  0  0  0
 14 12  2  0  0  0  0
 15 17  1  0  0  0  0
 15 24  1  0  0  0  0
 15 33  1  1  0  0  0
 16 21  1  0  0  0  0
 18  2  1  0  0  0  0
 19  3  1  6  0  0  0
 19 18  1  0  0  0  0
 20 27  2  0  0  0  0
 21 38  1  1  0  0  0
 21 25  1  0  0  0  0
 22 14  1  0  0  0  0
 22 10  2  0  0  0  0
 23  8  1  6  0  0  0
 23 24  1  0  0  0  0
 24 13  1  1  0  0  0
 25 26  1  0  0  0  0
 28 32  2  0  0  0  0
 28 33  1  0  0  0  0
 29 34  1  1  0  0  0
 29 31  1  0  0  0  0
 30 31  1  0  0  0  0
 32 29  1  0  0  0  0
 33 30  2  0  0  0  0
 34 35  1  0  0  0  0
 36 34  1  0  0  0  0
 38 37  1  1  0  0  0
 39 38  1  0  0  0  0
 40 43  1  0  0  0  0
 40 45  1  1  0  0  0
 42 41  1  1  0  0  0
 42 40  1  0  0  0  0
 42 43  1  0  0  0  0
 43 44  1  6  0  0  0
 43 39  1  0  0  0  0
 46 47  1  1  0  0  0
 46 40  1  0  0  0  0
 46 51  1  0  0  0  0
 47 48  1  6  0  0  0
 47 49  1  0  0  0  0
 51 50  1  1  0  0  0
 51 54  1  0  0  0  0
 52 53  1  0  0  0  0
 54 52  1  0  0  0  0
 54 55  2  0  0  0  0
M  END
>  <MODEL>
2

>  <REMARK>
 VINA RESULT:      -5.8      1.843      2.517
  Name = 
  9 active torsions:
  status: ('A' for Active; 'I' for Inactive)
    1  A    between atoms: C_1  and  C_53
    2  A    between atoms: C_6  and  C_53
    3  A    between atoms: C_8  and  O_22
    4  A    between atoms: C_8  and  C_43
    5  A    between atoms: N_10  and  C_32
    6  A    between atoms: C_20  and  O_22
    7  A    between atoms: C_29  and  C_38
    8  A    between atoms: C_33  and  C_52
    9  A    between atoms: C_38  and  C_53
                            x       y       z     vdW  Elec       q    Type
                         _______ _______ _______ _____ _____    ______ ____

>  <TORSDO>
F 9

$$$$
=
 OpenBabel10272401333D

 55 60  0  0  1  0  0  0  0  0999 V2000
  188.6150  176.6430  137.9870 C   0  0  0  0  0  2  0  0  0  0  0  0
  193.8060  175.9270  138.0580 C   0  0  0  0  0  2  0  0  0  0  0  0
  193.9020  178.2500  139.7750 F   0  0  0  0  0  0  0  0  0  0  0  0
  191.7980  176.8060  142.8810 C   0  0  0  0  0  3  0  0  0  0  0  0
  191.7530  176.1630  144.0590 C   0  0  0  0  0  3  0  0  0  0  0  0
  189.2850  176.6450  142.7210 C   0  0  2  0  0  3  0  0  0  0  0  0
  189.2770  176.6550  144.2430 C   0  0  0  0  0  2  0  0  0  0  0  0
  191.6220  178.1800  140.1620 N   0  0  0  0  0  2  0  0  0  0  0  0
  190.4580  175.8290  144.7610 C   0  0  0  0  0  2  0  0  0  0  0  0
  187.4060  175.0090  136.5350 C   0  0  0  0  0  3  0  0  0  0  0  0
  190.5560  177.3500  142.2200 C   0  0  2  0  0  3  0  0  0  0  0  0
  189.7300  173.4690  136.2460 C   0  0  0  0  0  0  0  0  0  0  0  0
  188.7820  176.3250  139.3940 N   0  0  0  0  0  2  0  0  0  0  0  0
  189.7430  174.6220  137.0420 C   0  0  0  0  0  3  0  0  0  0  0  0
  188.2480  178.1040  141.0290 C   0  0  1  0  0  3  0  0  0  0  0  0
  193.5720  175.1990  136.7440 C   0  0  0  0  0  2  0  0  0  0  0  0
  188.0420  177.2350  142.1990 N   0  0  0  0  0  2  0  0  0  0  0  0
  192.6090  176.7920  138.4060 C   0  0  0  0  0  2  0  0  0  0  0  0
  192.8000  177.4110  139.7850 C   0  0  1  0  0  3  0  0  0  0  0  0
  187.3860  173.8490  135.7540 C   0  0  0  0  0  3  0  0  0  0  0  0
  192.9490  173.8300  136.9840 C   0  0  1  0  0  3  0  0  0  0  0  0
  188.5850  175.3950  137.1800 C   0  0  0  0  0  0  0  0  0  0  0  0
  190.6300  177.2530  140.6910 C   0  0  1  0  0  3  0  0  0  0  0  0
  189.2760  177.5360  140.0300 C   0  0  1  0  0  3  0  0  0  0  0  0
  192.1760  173.4360  135.7310 C   0  0  0  0  0  2  0  0  0  0  0  0
  190.9490  172.6150  136.1050 C   0  0  0  0  0  2  0  0  0  0  0  0
  188.5460  173.0810  135.6100 C   0  0  0  0  0  3  0  0  0  0  0  0
  185.7590  178.8040  141.1840 C   0  0  0  0  0  3  0  0  0  0  0  0
  184.3430  178.3080  139.2100 C   0  0  1  0  0  3  0  0  0  0  0  0
  186.8420  178.3710  139.0430 C   0  0  0  0  0  3  0  0  0  0  0  0
  185.5530  178.7420  138.3590 C   0  0  0  0  0  2  0  0  0  0  0  0
  184.5400  178.7810  140.6370 C   0  0  0  0  0  3  0  0  0  0  0  0
  186.9480  178.4560  140.3730 C   0  0  0  0  0  0  0  0  0  0  0  0
  183.0820  178.8180  138.6500 N   0  0  0  0  0  0  0  0  0  0  0  0
  181.9770  178.3070  139.4490 C   0  0  0  0  0  1  0  0  0  0  0  0
  183.0420  180.2610  138.8350 C   0  0  0  0  0  1  0  0  0  0  0  0
  194.7260  173.1320  138.4490 O   0  0  0  0  0  1  0  0  0  0  0  0
  194.0320  172.7830  137.2890 C   0  0  2  0  0  3  0  0  0  0  0  0
  194.9430  172.6900  136.2270 O   0  0  0  0  0  0  0  0  0  0  0  0
  196.4750  170.6740  136.4170 C   0  0  2  0  0  0  0  0  0  0  0  0
  196.9040  172.1800  134.5930 F   0  0  0  0  0  0  0  0  0  0  0  0
  196.2200  171.0260  134.9480 C   0  0  2  0  0  3  0  0  0  0  0  0
  195.1560  171.3170  136.0020 C   0  0  2  0  0  0  0  0  0  0  0  0
  194.0230  170.5150  135.8410 O   0  0  0  0  0  1  0  0  0  0  0  0
  197.3570  171.5310  137.0800 O   0  0  0  0  0  1  0  0  0  0  0  0
  196.4740  169.1950  136.8760 C   0  0  1  0  0  3  0  0  0  0  0  0
  197.4220  168.2840  136.0830 C   0  0  2  0  0  3  0  0  0  0  0  0
  198.7390  168.9840  135.7970 C   0  0  0  0  0  1  0  0  0  0  0  0
  196.8460  167.9170  134.8790 F   0  0  0  0  0  0  0  0  0  0  0  0
  197.5080  168.0540  138.7420 O   0  0  0  0  0  1  0  0  0  0  0  0
  196.4760  168.9280  138.3920 C   0  0  2  0  0  3  0  0  0  0  0  0
  194.9120  168.5100  140.3530 N   0  0  0  0  0  2  0  0  0  0  0  0
  193.6810  168.0040  140.9340 C   0  0  0  0  0  1  0  0  0  0  0  0
  195.1570  168.4730  138.9460 C   0  0  0  0  0  0  0  0  0  0  0  0
  194.2680  168.0500  138.1580 O   0  0  0  0  0  0  0  0  0  0  0  0
  1 13  1  0  0  0  0
  2 18  1  0  0  0  0
  4  5  2  0  0  0  0
  5  9  1  0  0  0  0
  6  7  1  1  0  0  0
  7  9  1  0  0  0  0
 10 22  1  0  0  0  0
 11  6  1  0  0  0  0
 11  4  1  1  0  0  0
 12 14  1  0  0  0  0
 14 22  2  0  0  0  0
 15 33  1  6  0  0  0
 15 17  1  0  0  0  0
 16 21  1  0  0  0  0
 16  2  1  0  0  0  0
 17  6  1  0  0  0  0
 18 19  1  0  0  0  0
 19  3  1  6  0  0  0
 19  8  1  0  0  0  0
 20 10  2  0  0  0  0
 21 38  1  6  0  0  0
 22  1  1  0  0  0  0
 23  8  1  6  0  0  0
 23 11  1  0  0  0  0
 24 13  1  1  0  0  0
 24 23  1  0  0  0  0
 24 15  1  0  0  0  0
 25 26  1  0  0  0  0
 25 21  1  0  0  0  0
 26 12  1  0  0  0  0
 27 20  1  0  0  0  0
 27 12  2  0  0  0  0
 29 34  1  6  0  0  0
 29 32  1  0  0  0  0
 30 33  2  0  0  0  0
 31 30  1  0  0  0  0
 31 29  1  0  0  0  0
 32 28  2  0  0  0  0
 33 28  1  0  0  0  0
 34 36  1  0  0  0  0
 34 35  1  0  0  0  0
 38 37  1  1  0  0  0
 39 38  1  0  0  0  0
 40 46  1  0  0  0  0
 40 45  1  1  0  0  0
 42 41  1  1  0  0  0
 42 43  1  0  0  0  0
 42 40  1  0  0  0  0
 43 44  1  6  0  0  0
 43 39  1  0  0  0  0
 43 40  1  0  0  0  0
 46 47  1  6  0  0  0
 46 51  1  0  0  0  0
 47 48  1  6  0  0  0
 49 47  1  0  0  0  0
 51 50  1  6  0  0  0
 51 54  1  0  0  0  0
 52 53  1  0  0  0  0
 54 52  1  0  0  0  0
 55 54  2  0  0  0  0
M  END
>  <MODEL>
3

>  <REMARK>
 VINA RESULT:      -5.6      6.077     11.916
  Name = 
  9 active torsions:
  status: ('A' for Active; 'I' for Inactive)
    1  A    between atoms: C_1  and  C_53
    2  A    between atoms: C_6  and  C_53
    3  A    between atoms: C_8  and  O_22
    4  A    between atoms: C_8  and  C_43
    5  A    between atoms: N_10  and  C_32
    6  A    between atoms: C_20  and  O_22
    7  A    between atoms: C_29  and  C_38
    8  A    between atoms: C_33  and  C_52
    9  A    between atoms: C_38  and  C_53
                            x       y       z     vdW  Elec       q    Type
                         _______ _______ _______ _____ _____    ______ ____

>  <TORSDO>
F 9

$$$$
=
 OpenBabel10272401333D

 55 60  0  0  1  0  0  0  0  0999 V2000
  184.9340  176.5890  137.5900 C   0  0  0  0  0  2  0  0  0  0  0  0
  189.4640  175.7320  135.0970 C   0  0  0  0  0  2  0  0  0  0  0  0
  190.1510  178.4410  135.8340 F   0  0  0  0  0  0  0  0  0  0  0  0
  190.1350  178.0140  139.8300 C   0  0  0  0  0  3  0  0  0  0  0  0
  190.7810  177.7330  140.9740 C   0  0  0  0  0  3  0  0  0  0  0  0
  187.9400  177.9070  141.0670 C   0  0  2  0  0  3  0  0  0  0  0  0
  188.7150  178.3480  142.3000 C   0  0  0  0  0  2  0  0  0  0  0  0
  188.4230  178.5670  137.3670 N   0  0  0  0  0  2  0  0  0  0  0  0
  190.0820  177.6600  142.3110 C   0  0  0  0  0  2  0  0  0  0  0  0
  183.3550  174.6570  137.4760 C   0  0  0  0  0  3  0  0  0  0  0  0
  188.6760  178.3940  139.8090 C   0  0  2  0  0  3  0  0  0  0  0  0
  185.3630  173.0130  136.4170 C   0  0  0  0  0  0  0  0  0  0  0  0
  185.8380  176.6770  138.7230 N   0  0  0  0  0  2  0  0  0  0  0  0
  185.6460  174.3430  136.7550 C   0  0  0  0  0  3  0  0  0  0  0  0
  186.0140  178.8640  139.8660 C   0  0  1  0  0  3  0  0  0  0  0  0
  188.6750  174.6710  134.3460 C   0  0  0  0  0  2  0  0  0  0  0  0
  186.5450  178.3700  141.1470 N   0  0  0  0  0  2  0  0  0  0  0  0
  188.5230  176.7030  135.7850 C   0  0  0  0  0  2  0  0  0  0  0  0
  189.3210  177.6800  136.6400 C   0  0  1  0  0  3  0  0  0  0  0  0
  183.0740  173.3250  137.1550 C   0  0  0  0  0  3  0  0  0  0  0  0
  188.4330  173.4500  135.2230 C   0  0  1  0  0  3  0  0  0  0  0  0
  184.6420  175.1660  137.2770 C   0  0  0  0  0  0  0  0  0  0  0  0
  187.9640  177.8650  138.5580 C   0  0  1  0  0  3  0  0  0  0  0  0
  186.4400  178.0000  138.6630 C   0  0  1  0  0  3  0  0  0  0  0  0
  187.1790  172.7450  134.7190 C   0  0  0  0  0  2  0  0  0  0  0  0
  186.4280  172.1100  135.8820 C   0  0  0  0  0  2  0  0  0  0  0  0
  184.0770  172.5050  136.6270 C   0  0  0  0  0  3  0  0  0  0  0  0
  183.7400  178.5300  141.0630 C   0  0  0  0  0  3  0  0  0  0  0  0
  181.7090  178.7110  139.6540 C   0  0  1  0  0  3  0  0  0  0  0  0
  183.9050  179.6570  138.9070 C   0  0  0  0  0  3  0  0  0  0  0  0
  182.4190  179.8900  138.9580 C   0  0  0  0  0  2  0  0  0  0  0  0
  182.4140  178.4030  140.9590 C   0  0  0  0  0  3  0  0  0  0  0  0
  184.5310  179.0640  139.9290 C   0  0  0  0  0  0  0  0  0  0  0  0
  180.2830  178.9980  139.8740 N   0  0  0  0  0  0  0  0  0  0  0  0
  180.0130  178.9420  141.3040 C   0  0  0  0  0  1  0  0  0  0  0  0
  180.0240  180.3800  139.4980 C   0  0  0  0  0  1  0  0  0  0  0  0
  189.2150  171.1790  135.3820 O   0  0  0  0  0  1  0  0  0  0  0  0
  189.6350  172.4930  135.1710 C   0  0  2  0  0  3  0  0  0  0  0  0
  190.5790  172.8300  136.1510 O   0  0  0  0  0  0  0  0  0  0  0  0
  193.1010  173.1170  136.2340 C   0  0  2  0  0  0  0  0  0  0  0  0
  191.8520  174.8860  135.1890 F   0  0  0  0  0  0  0  0  0  0  0  0
  192.5290  173.7010  134.9380 C   0  0  2  0  0  3  0  0  0  0  0  0
  191.8420  172.5190  135.6150 C   0  0  2  0  0  0  0  0  0  0  0  0
  191.9400  171.3490  134.8570 O   0  0  0  0  0  1  0  0  0  0  0  0
  192.8750  173.8920  137.3740 O   0  0  0  0  0  1  0  0  0  0  0  0
  194.4120  172.2940  136.2060 C   0  0  1  0  0  3  0  0  0  0  0  0
  195.6590  173.0990  135.8150 C   0  0  2  0  0  3  0  0  0  0  0  0
  195.6980  174.4310  136.5430 C   0  0  0  0  0  1  0  0  0  0  0  0
  195.6710  173.3390  134.4510 F   0  0  0  0  0  0  0  0  0  0  0  0
  195.1810  171.9570  138.4750 O   0  0  0  0  0  1  0  0  0  0  0  0
  194.6460  171.3040  137.3620 C   0  0  2  0  0  3  0  0  0  0  0  0
  196.7800  169.9270  137.4980 N   0  0  0  0  0  2  0  0  0  0  0  0
  197.6210  168.8130  137.1000 C   0  0  0  0  0  1  0  0  0  0  0  0
  195.4540  170.0940  136.9920 C   0  0  0  0  0  0  0  0  0  0  0  0
  194.9540  169.2280  136.2240 O   0  0  0  0  0  0  0  0  0  0  0  0
  1 13  1  0  0  0  0
  2 18  1  0  0  0  0
  4  5  2  0  0  0  0
  5  9  1  0  0  0  0
  6 17  1  0  0  0  0
  6  7  1  1  0  0  0
  7  9  1  0  0  0  0
 11  4  1  1  0  0  0
 11  6  1  0  0  0  0
 12 27  2  0  0  0  0
 12 14  1  0  0  0  0
 14 22  2  0  0  0  0
 15 33  1  1  0  0  0
 15 17  1  0  0  0  0
 16  2  1  0  0  0  0
 16 21  1  0  0  0  0
 18 19  1  0  0  0  0
 19  3  1  6  0  0  0
 19  8  1  0  0  0  0
 20 10  2  0  0  0  0
 21 38  1  6  0  0  0
 22 10  1  0  0  0  0
 22  1  1  0  0  0  0
 23  8  1  6  0  0  0
 23 24  1  0  0  0  0
 23 11  1  0  0  0  0
 24 13  1  1  0  0  0
 24 15  1  0  0  0  0
 25 21  1  0  0  0  0
 25 26  1  0  0  0  0
 26 12  1  0  0  0  0
 27 20  1  0  0  0  0
 29 34  1  1  0  0  0
 29 32  1  0  0  0  0
 30 31  1  0  0  0  0
 30 33  2  0  0  0  0
 31 29  1  0  0  0  0
 32 28  2  0  0  0  0
 33 28  1  0  0  0  0
 34 35  1  0  0  0  0
 36 34  1  0  0  0  0
 38 37  1  1  0  0  0
 38 39  1  0  0  0  0
 40 45  1  1  0  0  0
 42 41  1  1  0  0  0
 42 43  1  0  0  0  0
 42 40  1  0  0  0  0
 43 44  1  6  0  0  0
 43 39  1  0  0  0  0
 43 40  1  0  0  0  0
 46 47  1  1  0  0  0
 46 40  1  0  0  0  0
 46 51  1  0  0  0  0
 47 48  1  1  0  0  0
 49 47  1  0  0  0  0
 51 50  1  1  0  0  0
 53 52  1  0  0  0  0
 54 51  1  0  0  0  0
 54 52  1  0  0  0  0
 55 54  2  0  0  0  0
M  END
>  <MODEL>
4

>  <REMARK>
 VINA RESULT:      -5.3      4.592     10.862
  Name = 
  9 active torsions:
  status: ('A' for Active; 'I' for Inactive)
    1  A    between atoms: C_1  and  C_53
    2  A    between atoms: C_6  and  C_53
    3  A    between atoms: C_8  and  O_22
    4  A    between atoms: C_8  and  C_43
    5  A    between atoms: N_10  and  C_32
    6  A    between atoms: C_20  and  O_22
    7  A    between atoms: C_29  and  C_38
    8  A    between atoms: C_33  and  C_52
    9  A    between atoms: C_38  and  C_53
                            x       y       z     vdW  Elec       q    Type
                         _______ _______ _______ _____ _____    ______ ____

>  <TORSDO>
F 9

$$$$
=
 OpenBabel10272401333D

 55 60  0  0  1  0  0  0  0  0999 V2000
  189.6850  176.6690  137.4720 C   0  0  0  0  0  2  0  0  0  0  0  0
  184.8680  178.4530  138.5100 C   0  0  0  0  0  2  0  0  0  0  0  0
  184.2340  177.7420  135.7810 F   0  0  0  0  0  0  0  0  0  0  0  0
  184.8240  173.7730  136.0270 C   0  0  0  0  0  3  0  0  0  0  0  0
  184.3530  172.5380  136.2650 C   0  0  0  0  0  3  0  0  0  0  0  0
  187.1740  172.8580  136.0450 C   0  0  2  0  0  3  0  0  0  0  0  0
  186.5720  171.5470  135.5600 C   0  0  0  0  0  2  0  0  0  0  0  0
  186.1580  176.4770  135.5600 N   0  0  0  0  0  2  0  0  0  0  0  0
  185.2350  171.3120  136.2680 C   0  0  0  0  0  2  0  0  0  0  0  0
  191.2730  176.9230  139.3840 C   0  0  0  0  0  3  0  0  0  0  0  0
  186.2570  174.0180  135.6260 C   0  0  2  0  0  3  0  0  0  0  0  0
  189.1710  177.6160  141.1030 C   0  0  0  0  0  0  0  0  0  0  0  0
  188.9490  175.4230  137.3470 N   0  0  0  0  0  2  0  0  0  0  0  0
  188.9100  177.2970  139.7640 C   0  0  0  0  0  3  0  0  0  0  0  0
  188.8900  174.3610  135.1130 C   0  0  1  0  0  3  0  0  0  0  0  0
  185.5650  179.2630  139.5920 C   0  0  0  0  0  2  0  0  0  0  0  0
  188.5560  172.9970  135.5570 N   0  0  0  0  0  2  0  0  0  0  0  0
  185.8750  177.9470  137.4940 C   0  0  0  0  0  2  0  0  0  0  0  0
  185.1860  177.0300  136.4920 C   0  0  1  0  0  3  0  0  0  0  0  0
  191.5340  177.2240  140.7240 C   0  0  0  0  0  3  0  0  0  0  0  0
  185.9540  178.3770  140.7680 C   0  0  1  0  0  3  0  0  0  0  0  0
  189.9600  176.9590  138.9040 C   0  0  0  0  0  0  0  0  0  0  0  0
  186.7960  175.3340  136.2000 C   0  0  1  0  0  3  0  0  0  0  0  0
  188.3170  175.4530  136.0380 C   0  0  1  0  0  3  0  0  0  0  0  0
  187.1390  179.0250  141.4750 C   0  0  0  0  0  2  0  0  0  0  0  0
  188.0610  177.9550  142.0460 C   0  0  0  0  0  2  0  0  0  0  0  0
  190.4840  177.5690  141.5820 C   0  0  0  0  0  3  0  0  0  0  0  0
  191.2850  173.3740  135.0750 C   0  0  0  0  0  3  0  0  0  0  0  0
  193.1530  174.9910  135.2760 C   0  0  1  0  0  3  0  0  0  0  0  0
  190.8560  175.7260  134.5990 C   0  0  0  0  0  3  0  0  0  0  0  0
  192.3290  175.9040  134.3460 C   0  0  0  0  0  2  0  0  0  0  0  0
  192.5980  173.5820  135.2120 C   0  0  0  0  0  3  0  0  0  0  0  0
  190.3620  174.5170  134.8890 C   0  0  0  0  0  0  0  0  0  0  0  0
  194.5820  175.0160  134.9230 N   0  0  0  0  0  0  0  0  0  0  0  0
  195.3490  175.3510  136.1140 C   0  0  0  0  0  1  0  0  0  0  0  0
  194.9980  173.6640  134.5780 C   0  0  0  0  0  1  0  0  0  0  0  0
  183.7250  177.5450  141.1240 O   0  0  0  0  0  1  0  0  0  0  0  0
  184.7780  178.2180  141.7440 C   0  0  2  0  0  3  0  0  0  0  0  0
  184.3220  179.4710  142.1790 O   0  0  0  0  0  0  0  0  0  0  0  0
  185.0410  178.3620  144.3480 C   0  0  2  0  0  0  0  0  0  0  0  0
  182.6790  178.4150  143.8990 F   0  0  0  0  0  0  0  0  0  0  0  0
  183.7100  179.0990  144.5280 C   0  0  2  0  0  3  0  0  0  0  0  0
  184.7350  179.6040  143.5170 C   0  0  2  0  0  0  0  0  0  0  0  0
  185.2840  180.8330  143.8940 O   0  0  0  0  0  1  0  0  0  0  0  0
  184.9520  177.1580  143.6450 O   0  0  0  0  0  1  0  0  0  0  0  0
  186.1330  178.4450  145.4420 C   0  0  1  0  0  3  0  0  0  0  0  0
  185.6730  179.1090  146.7480 C   0  0  2  0  0  3  0  0  0  0  0  0
  186.8550  179.4030  147.6550 C   0  0  0  0  0  1  0  0  0  0  0  0
  184.7900  178.2850  147.4250 F   0  0  0  0  0  0  0  0  0  0  0  0
  186.5530  176.4390  146.7280 O   0  0  0  0  0  1  0  0  0  0  0  0
  187.0150  177.2010  145.6520 C   0  0  2  0  0  3  0  0  0  0  0  0
  189.2730  176.8290  146.7620 N   0  0  0  0  0  2  0  0  0  0  0  0
  190.6770  177.1420  146.9620 C   0  0  0  0  0  1  0  0  0  0  0  0
  188.4830  177.4920  145.7730 C   0  0  0  0  0  0  0  0  0  0  0  0
  189.0130  178.3330  144.9960 O   0  0  0  0  0  0  0  0  0  0  0  0
  1 22  1  0  0  0  0
  2 16  1  0  0  0  0
  4  5  2  0  0  0  0
  5  9  1  0  0  0  0
  6  7  1  6  0  0  0
  7  9  1  0  0  0  0
  8 19  1  0  0  0  0
 10 20  1  0  0  0  0
 11  4  1  1  0  0  0
 11  6  1  0  0  0  0
 11 23  1  0  0  0  0
 12 27  1  0  0  0  0
 12 26  1  0  0  0  0
 13  1  1  0  0  0  0
 14 12  2  0  0  0  0
 15 33  1  1  0  0  0
 15 17  1  0  0  0  0
 15 24  1  0  0  0  0
 16 21  1  0  0  0  0
 17  6  1  0  0  0  0
 18  2  1  0  0  0  0
 19  3  1  6  0  0  0
 19 18  1  0  0  0  0
 20 27  2  0  0  0  0
 21 25  1  0  0  0  0
 21 38  1  1  0  0  0
 22 10  2  0  0  0  0
 22 14  1  0  0  0  0
 23  8  1  6  0  0  0
 24 23  1  0  0  0  0
 24 13  1  1  0  0  0
 25 26  1  0  0  0  0
 28 32  2  0  0  0  0
 29 34  1  6  0  0  0
 30 33  2  0  0  0  0
 31 30  1  0  0  0  0
 31 29  1  0  0  0  0
 32 29  1  0  0  0  0
 33 28  1  0  0  0  0
 34 35  1  0  0  0  0
 36 34  1  0  0  0  0
 38 37  1  6  0  0  0
 38 39  1  0  0  0  0
 39 43  1  0  0  0  0
 40 45  1  6  0  0  0
 40 42  1  0  0  0  0
 40 46  1  0  0  0  0
 42 41  1  6  0  0  0
 43 44  1  1  0  0  0
 43 40  1  0  0  0  0
 43 42  1  0  0  0  0
 46 51  1  1  0  0  0
 46 47  1  0  0  0  0
 47 49  1  0  0  0  0
 47 48  1  1  0  0  0
 51 54  1  0  0  0  0
 51 50  1  1  0  0  0
 52 53  1  0  0  0  0
 54 52  1  0  0  0  0
 55 54  2  0  0  0  0
M  END
>  <MODEL>
5

>  <REMARK>
 VINA RESULT:      -5.0      2.932      5.880
  Name = 
  9 active torsions:
  status: ('A' for Active; 'I' for Inactive)
    1  A    between atoms: C_1  and  C_53
    2  A    between atoms: C_6  and  C_53
    3  A    between atoms: C_8  and  O_22
    4  A    between atoms: C_8  and  C_43
    5  A    between atoms: N_10  and  C_32
    6  A    between atoms: C_20  and  O_22
    7  A    between atoms: C_29  and  C_38
    8  A    between atoms: C_33  and  C_52
    9  A    between atoms: C_38  and  C_53
                            x       y       z     vdW  Elec       q    Type
                         _______ _______ _______ _____ _____    ______ ____

>  <TORSDO>
F 9

$$$$
=
 OpenBabel10272401333D

 55 60  0  0  1  0  0  0  0  0999 V2000
  192.0410  176.3840  137.7060 C   0  0  0  0  0  2  0  0  0  0  0  0
  187.2870  178.5070  137.1170 C   0  0  0  0  0  2  0  0  0  0  0  0
  187.4940  177.7100  134.3470 F   0  0  0  0  0  0  0  0  0  0  0  0
  187.6850  173.7290  134.8650 C   0  0  0  0  0  3  0  0  0  0  0  0
  187.0730  172.5370  134.9730 C   0  0  0  0  0  3  0  0  0  0  0  0
  189.8360  172.6720  135.6510 C   0  0  2  0  0  3  0  0  0  0  0  0
  189.3230  171.3790  135.0330 C   0  0  0  0  0  2  0  0  0  0  0  0
  189.2920  176.3200  134.7790 N   0  0  0  0  0  2  0  0  0  0  0  0
  187.8170  171.2610  135.2860 C   0  0  0  0  0  2  0  0  0  0  0  0
  192.9610  176.6290  140.0160 C   0  0  0  0  0  3  0  0  0  0  0  0
  189.1850  173.8660  134.9340 C   0  0  2  0  0  3  0  0  0  0  0  0
  190.4810  177.5290  140.9620 C   0  0  0  0  0  0  0  0  0  0  0  0
  191.2930  175.1810  137.3850 N   0  0  0  0  0  2  0  0  0  0  0  0
  190.6330  177.1650  139.6180 C   0  0  0  0  0  3  0  0  0  0  0  0
  191.8630  174.0210  135.2750 C   0  0  1  0  0  3  0  0  0  0  0  0
  187.6640  179.3220  138.3440 C   0  0  0  0  0  2  0  0  0  0  0  0
  191.3080  172.7030  135.6240 N   0  0  0  0  0  2  0  0  0  0  0  0
  188.5230  177.8940  136.4870 C   0  0  0  0  0  2  0  0  0  0  0  0
  188.1190  176.9750  135.3400 C   0  0  1  0  0  3  0  0  0  0  0  0
  192.8080  176.9750  141.3620 C   0  0  0  0  0  3  0  0  0  0  0  0
  187.5980  178.4710  139.6050 C   0  0  1  0  0  3  0  0  0  0  0  0
  191.8720  176.7230  139.1440 C   0  0  0  0  0  0  0  0  0  0  0  0
  189.6100  175.1720  135.6170 C   0  0  1  0  0  3  0  0  0  0  0  0
  191.1090  175.1880  135.9430 C   0  0  1  0  0  3  0  0  0  0  0  0
  188.5440  179.0760  140.6350 C   0  0  0  0  0  2  0  0  0  0  0  0
  189.1580  177.9790  141.4950 C   0  0  0  0  0  2  0  0  0  0  0  0
  191.5690  177.4240  141.8340 C   0  0  0  0  0  3  0  0  0  0  0  0
  194.0040  173.0570  136.3700 C   0  0  0  0  0  3  0  0  0  0  0  0
  195.9010  174.6260  136.6630 C   0  0  1  0  0  3  0  0  0  0  0  0
  194.0460  175.1070  135.0500 C   0  0  0  0  0  3  0  0  0  0  0  0
  195.5340  175.1720  135.2690 C   0  0  0  0  0  2  0  0  0  0  0  0
  195.2220  173.2870  136.8690 C   0  0  0  0  0  3  0  0  0  0  0  0
  193.3380  174.0770  135.5260 C   0  0  0  0  0  0  0  0  0  0  0  0
  197.3590  174.5140  136.8270 N   0  0  0  0  0  0  0  0  0  0  0  0
  197.8200  173.3380  136.1020 C   0  0  0  0  0  1  0  0  0  0  0  0
  197.9900  175.6400  136.1550 C   0  0  0  0  0  1  0  0  0  0  0  0
  186.1400  177.7400  141.3730 O   0  0  0  0  0  1  0  0  0  0  0  0
  186.1660  178.4290  140.1610 C   0  0  2  0  0  3  0  0  0  0  0  0
  185.3030  177.7930  139.2580 O   0  0  0  0  0  0  0  0  0  0  0  0
  182.7750  177.8260  139.4990 C   0  0  2  0  0  0  0  0  0  0  0  0
  183.6410  177.1130  137.3730 F   0  0  0  0  0  0  0  0  0  0  0  0
  183.1910  178.2200  138.0780 C   0  0  2  0  0  3  0  0  0  0  0  0
  184.1060  178.5320  139.2590 C   0  0  2  0  0  0  0  0  0  0  0  0
  184.2060  179.9050  139.4980 O   0  0  0  0  0  1  0  0  0  0  0  0
  182.8840  176.4630  139.7840 O   0  0  0  0  0  1  0  0  0  0  0  0
  181.6410  178.5940  140.2210 C   0  0  1  0  0  3  0  0  0  0  0  0
  180.3640  178.7720  139.3870 C   0  0  2  0  0  3  0  0  0  0  0  0
  180.0170  177.4940  138.6430 C   0  0  0  0  0  1  0  0  0  0  0  0
  180.5270  179.7910  138.4640 F   0  0  0  0  0  0  0  0  0  0  0  0
  180.0120  178.2890  141.9840 O   0  0  0  0  0  1  0  0  0  0  0  0
  181.3780  178.2400  141.6960 C   0  0  2  0  0  3  0  0  0  0  0  0
  183.5240  178.6730  142.9890 N   0  0  0  0  0  2  0  0  0  0  0  0
  184.3020  179.3740  143.9960 C   0  0  0  0  0  1  0  0  0  0  0  0
  182.1780  179.0410  142.6820 C   0  0  0  0  0  0  0  0  0  0  0  0
  181.6490  180.0380  143.2430 O   0  0  0  0  0  0  0  0  0  0  0  0
  1 22  1  0  0  0  0
  2 16  1  0  0  0  0
  4  5  2  0  0  0  0
  5  9  1  0  0  0  0
  6  7  1  6  0  0  0
  7  9  1  0  0  0  0
  8 19  1  0  0  0  0
 10 20  1  0  0  0  0
 11  4  1  1  0  0  0
 11 23  1  0  0  0  0
 11  6  1  0  0  0  0
 12 26  1  0  0  0  0
 12 27  1  0  0  0  0
 13  1  1  0  0  0  0
 14 12  2  0  0  0  0
 15 33  1  1  0  0  0
 15 17  1  0  0  0  0
 15 24  1  0  0  0  0
 16 21  1  0  0  0  0
 17  6  1  0  0  0  0
 18  2  1  0  0  0  0
 19  3  1  6  0  0  0
 19 18  1  0  0  0  0
 20 27  2  0  0  0  0
 21 38  1  1  0  0  0
 21 25  1  0  0  0  0
 22 14  1  0  0  0  0
 22 10  2  0  0  0  0
 23  8  1  6  0  0  0
 23 24  1  0  0  0  0
 24 13  1  1  0  0  0
 25 26  1  0  0  0  0
 28 32  2  0  0  0  0
 29 34  1  6  0  0  0
 29 32  1  0  0  0  0
 30 31  1  0  0  0  0
 30 33  2  0  0  0  0
 31 29  1  0  0  0  0
 33 28  1  0  0  0  0
 35 34  1  0  0  0  0
 36 34  1  0  0  0  0
 38 37  1  1  0  0  0
 39 43  1  0  0  0  0
 39 38  1  0  0  0  0
 40 45  1  1  0  0  0
 40 46  1  0  0  0  0
 42 41  1  6  0  0  0
 42 43  1  0  0  0  0
 42 40  1  0  0  0  0
 43 44  1  1  0  0  0
 43 40  1  0  0  0  0
 46 47  1  6  0  0  0
 46 51  1  0  0  0  0
 47 48  1  6  0  0  0
 49 47  1  0  0  0  0
 51 50  1  1  0  0  0
 51 54  1  0  0  0  0
 52 53  1  0  0  0  0
 54 52  1  0  0  0  0
 54 55  2  0  0  0  0
M  END
>  <MODEL>
6

>  <REMARK>
 VINA RESULT:      -4.8      2.342      3.700
  Name = 
  9 active torsions:
  status: ('A' for Active; 'I' for Inactive)
    1  A    between atoms: C_1  and  C_53
    2  A    between atoms: C_6  and  C_53
    3  A    between atoms: C_8  and  O_22
    4  A    between atoms: C_8  and  C_43
    5  A    between atoms: N_10  and  C_32
    6  A    between atoms: C_20  and  O_22
    7  A    between atoms: C_29  and  C_38
    8  A    between atoms: C_33  and  C_52
    9  A    between atoms: C_38  and  C_53
                            x       y       z     vdW  Elec       q    Type
                         _______ _______ _______ _____ _____    ______ ____

>  <TORSDO>
F 9

$$$$
=
 OpenBabel10272401333D

 55 61  0  0  1  0  0  0  0  0999 V2000
  189.9530  176.9660  138.7710 C   0  0  0  0  0  2  0  0  0  0  0  0
  185.0780  178.6750  137.8920 C   0  0  0  0  0  2  0  0  0  0  0  0
  185.5020  177.8640  135.1500 F   0  0  0  0  0  0  0  0  0  0  0  0
  185.9950  173.9190  135.7460 C   0  0  0  0  0  3  0  0  0  0  0  0
  185.4800  172.6830  135.8410 C   0  0  0  0  0  3  0  0  0  0  0  0
  188.1800  173.0570  136.6640 C   0  0  2  0  0  3  0  0  0  0  0  0
  187.8110  171.7190  136.0420 C   0  0  0  0  0  2  0  0  0  0  0  0
  187.3830  176.6360  135.7020 N   0  0  0  0  0  2  0  0  0  0  0  0
  186.3090  171.4770  136.2150 C   0  0  0  0  0  2  0  0  0  0  0  0
  190.7210  177.3170  141.1220 C   0  0  0  0  0  3  0  0  0  0  0  0
  187.4720  174.1830  135.8930 C   0  0  2  0  0  3  0  0  0  0  0  0
  188.1270  178.0170  141.9190 C   0  0  0  0  0  0  0  0  0  0  0  0
  189.3260  175.7010  138.4310 N   0  0  0  0  0  2  0  0  0  0  0  0
  188.3810  177.6500  140.5910 C   0  0  0  0  0  3  0  0  0  0  0  0
  190.1050  174.5670  136.3750 C   0  0  1  0  0  3  0  0  0  0  0  0
  185.3190  179.5350  139.1230 C   0  0  0  0  0  2  0  0  0  0  0  0
  189.6430  173.2120  136.7150 N   0  0  0  0  0  2  0  0  0  0  0  0
  186.3930  178.1600  137.3390 C   0  0  0  0  0  2  0  0  0  0  0  0
  186.1300  177.1970  136.1880 C   0  0  1  0  0  3  0  0  0  0  0  0
  190.4660  177.6660  142.4520 C   0  0  0  0  0  3  0  0  0  0  0  0
  185.2540  178.6960  140.3930 C   0  0  1  0  0  3  0  0  0  0  0  0
  189.6780  177.3090  140.1910 C   0  0  0  0  0  0  0  0  0  0  0  0
  187.7500  175.5290  136.5750 C   0  0  1  0  0  3  0  0  0  0  0  0
  189.2220  175.6750  136.9810 C   0  0  1  0  0  3  0  0  0  0  0  0
  186.0890  179.3920  141.4620 C   0  0  0  0  0  2  0  0  0  0  0  0
  186.7440  178.3610  142.3720 C   0  0  0  0  0  2  0  0  0  0  0  0
  189.1700  178.0140  142.8490 C   0  0  0  0  0  3  0  0  0  0  0  0
  192.4870  173.5980  136.6920 C   0  0  0  0  0  3  0  0  0  0  0  0
  194.0440  174.9210  138.0960 C   0  0  1  0  0  3  0  0  0  0  0  0
  191.9930  175.9520  137.0920 C   0  0  0  0  0  3  0  0  0  0  0  0
  193.4500  176.1650  137.4040 C   0  0  0  0  0  2  0  0  0  0  0  0
  193.6720  173.6840  137.3030 C   0  0  0  0  0  3  0  0  0  0  0  0
  191.5550  174.7490  136.7030 C   0  0  0  0  0  0  0  0  0  0  0  0
  195.5030  175.0380  138.2470 N   0  0  0  0  0  0  0  0  0  0  0  0
  195.8320  174.9480  139.6630 C   0  0  0  0  0  1  0  0  0  0  0  0
  196.1270  173.8690  137.6430 C   0  0  0  0  0  1  0  0  0  0  0  0
  183.5870  177.2480  141.3480 O   0  0  0  0  0  0  0  0  0  0  0  0
  183.8020  178.5420  140.8720 C   0  0  2  0  0  3  0  0  0  0  0  0
  182.9060  178.7940  139.8230 O   0  0  0  0  0  0  0  0  0  0  0  0
  181.3670  177.4620  138.3040 C   0  0  2  0  0  0  0  0  0  0  0  0
  180.3110  178.7700  140.0230 F   0  0  0  0  0  0  0  0  0  0  0  0
  180.8140  177.5100  139.7320 C   0  0  2  0  0  3  0  0  0  0  0  0
  182.3200  177.5590  139.4920 C   0  0  2  0  0  0  0  0  0  0  0  0
  182.9630  176.4060  139.9500 O   0  0  0  0  0  0  0  0  0  0  0  0
  181.2200  178.6470  137.5800 O   0  0  0  0  0  1  0  0  0  0  0  0
  181.3170  176.1440  137.4920 C   0  0  1  0  0  3  0  0  0  0  0  0
  182.6930  175.5500  137.1610 C   0  0  2  0  0  3  0  0  0  0  0  0
  182.9570  175.5870  135.6660 C   0  0  0  0  0  1  0  0  0  0  0  0
  182.7690  174.2370  137.5920 F   0  0  0  0  0  0  0  0  0  0  0  0
  180.4910  174.6730  139.2260 O   0  0  0  0  0  1  0  0  0  0  0  0
  180.2710  175.0970  137.9140 C   0  0  2  0  0  3  0  0  0  0  0  0
  180.1970  172.5940  137.4680 N   0  0  0  0  0  2  0  0  0  0  0  0
  180.1550  171.4440  136.5820 C   0  0  0  0  0  1  0  0  0  0  0  0
  180.1400  173.9330  136.9740 C   0  0  0  0  0  0  0  0  0  0  0  0
  179.9870  174.1480  135.7400 O   0  0  0  0  0  0  0  0  0  0  0  0
  1 22  1  0  0  0  0
  2 16  1  0  0  0  0
  4  5  2  0  0  0  0
  5  9  1  0  0  0  0
  6  7  1  6  0  0  0
  6 17  1  0  0  0  0
  7  9  1  0  0  0  0
  8 19  1  0  0  0  0
 10 20  1  0  0  0  0
 11  4  1  1  0  0  0
 11 23  1  0  0  0  0
 11  6  1  0  0  0  0
 12 26  1  0  0  0  0
 12 27  1  0  0  0  0
 13  1  1  0  0  0  0
 14 12  2  0  0  0  0
 15 33  1  1  0  0  0
 15 17  1  0  0  0  0
 15 24  1  0  0  0  0
 18  2  1  0  0  0  0
 19  3  1  6  0  0  0
 19 18  1  0  0  0  0
 20 27  2  0  0  0  0
 21 16  1  6  0  0  0
 21 38  1  0  0  0  0
 21 25  1  0  0  0  0
 22 14  1  0  0  0  0
 22 10  2  0  0  0  0
 23  8  1  6  0  0  0
 23 24  1  0  0  0  0
 24 13  1  1  0  0  0
 25 26  1  0  0  0  0
 28 33  1  0  0  0  0
 28 32  2  0  0  0  0
 29 34  1  6  0  0  0
 30 31  1  0  0  0  0
 31 29  1  0  0  0  0
 32 29  1  0  0  0  0
 33 30  2  0  0  0  0
 34 35  1  0  0  0  0
 36 34  1  0  0  0  0
 38 39  1  6  0  0  0
 38 37  1  0  0  0  0
 40 45  1  6  0  0  0
 40 43  1  0  0  0  0
 40 42  1  0  0  0  0
 42 41  1  6  0  0  0
 43 42  1  0  0  0  0
 43 39  1  1  0  0  0
 43 44  1  0  0  0  0
 44 37  1  0  0  0  0
 46 47  1  1  0  0  0
 46 51  1  0  0  0  0
 46 40  1  0  0  0  0
 47 48  1  6  0  0  0
 47 49  1  0  0  0  0
 51 50  1  1  0  0  0
 53 52  1  0  0  0  0
 54 52  1  0  0  0  0
 54 51  1  0  0  0  0
 55 54  2  0  0  0  0
M  END
>  <MODEL>
7

>  <REMARK>
 VINA RESULT:      -4.7      1.371      1.890
  Name = 
  9 active torsions:
  status: ('A' for Active; 'I' for Inactive)
    1  A    between atoms: C_1  and  C_53
    2  A    between atoms: C_6  and  C_53
    3  A    between atoms: C_8  and  O_22
    4  A    between atoms: C_8  and  C_43
    5  A    between atoms: N_10  and  C_32
    6  A    between atoms: C_20  and  O_22
    7  A    between atoms: C_29  and  C_38
    8  A    between atoms: C_33  and  C_52
    9  A    between atoms: C_38  and  C_53
                            x       y       z     vdW  Elec       q    Type
                         _______ _______ _______ _____ _____    ______ ____

>  <TORSDO>
F 9

$$$$
=
 OpenBabel10272401333D

 55 60  0  0  1  0  0  0  0  0999 V2000
  191.3100  176.6440  138.5880 C   0  0  0  0  0  2  0  0  0  0  0  0
  186.5310  178.5550  137.5990 C   0  0  0  0  0  2  0  0  0  0  0  0
  187.0620  177.9040  134.8340 F   0  0  0  0  0  0  0  0  0  0  0  0
  187.4160  173.9160  135.1980 C   0  0  0  0  0  3  0  0  0  0  0  0
  186.8630  172.6930  135.1900 C   0  0  0  0  0  3  0  0  0  0  0  0
  189.5310  172.9310  136.1570 C   0  0  2  0  0  3  0  0  0  0  0  0
  189.1540  171.6460  135.4340 C   0  0  0  0  0  2  0  0  0  0  0  0
  188.8800  176.5860  135.3910 N   0  0  0  0  0  2  0  0  0  0  0  0
  187.6400  171.4410  135.5230 C   0  0  0  0  0  2  0  0  0  0  0  0
  191.9760  176.8230  140.9900 C   0  0  0  0  0  3  0  0  0  0  0  0
  188.8920  174.1250  135.4280 C   0  0  2  0  0  3  0  0  0  0  0  0
  189.3670  177.5520  141.7100 C   0  0  0  0  0  0  0  0  0  0  0  0
  190.6650  175.4230  138.1390 N   0  0  0  0  0  2  0  0  0  0  0  0
  189.6740  177.2610  140.3750 C   0  0  0  0  0  3  0  0  0  0  0  0
  191.5090  174.3970  136.0530 C   0  0  1  0  0  3  0  0  0  0  0  0
  186.7380  179.3270  138.8920 C   0  0  0  0  0  2  0  0  0  0  0  0
  190.9940  173.0370  136.2840 N   0  0  0  0  0  2  0  0  0  0  0  0
  187.8570  178.0350  137.0750 C   0  0  0  0  0  2  0  0  0  0  0  0
  187.6220  177.1540  135.8540 C   0  0  1  0  0  3  0  0  0  0  0  0
  191.6680  177.0960  142.3260 C   0  0  0  0  0  3  0  0  0  0  0  0
  186.5900  178.4130  140.1020 C   0  0  1  0  0  3  0  0  0  0  0  0
  190.9780  176.9050  140.0140 C   0  0  0  0  0  0  0  0  0  0  0  0
  189.1740  175.4160  136.2070 C   0  0  1  0  0  3  0  0  0  0  0  0
  190.6290  175.4910  136.6870 C   0  0  1  0  0  3  0  0  0  0  0  0
  187.3920  179.0140  141.2500 C   0  0  0  0  0  2  0  0  0  0  0  0
  187.9740  177.9090  142.1220 C   0  0  0  0  0  2  0  0  0  0  0  0
  190.3650  177.4580  142.6850 C   0  0  0  0  0  3  0  0  0  0  0  0
  193.8770  175.3890  135.7090 C   0  0  0  0  0  3  0  0  0  0  0  0
  195.7660  174.1110  136.6830 C   0  0  1  0  0  3  0  0  0  0  0  0
  193.4090  173.7520  137.4550 C   0  0  0  0  0  3  0  0  0  0  0  0
  194.8440  173.8680  137.8950 C   0  0  0  0  0  2  0  0  0  0  0  0
  195.1980  175.2380  135.8430 C   0  0  0  0  0  3  0  0  0  0  0  0
  192.9460  174.5130  136.4580 C   0  0  0  0  0  0  0  0  0  0  0  0
  197.1430  174.4060  137.1070 N   0  0  0  0  0  0  0  0  0  0  0  0
  197.9350  173.1900  136.9940 C   0  0  0  0  0  1  0  0  0  0  0  0
  197.7360  175.3300  136.1510 C   0  0  0  0  0  1  0  0  0  0  0  0
  185.0070  177.6090  141.7260 O   0  0  0  0  0  1  0  0  0  0  0  0
  185.1130  178.2740  140.5030 C   0  0  2  0  0  3  0  0  0  0  0  0
  184.4020  177.5550  139.5320 O   0  0  0  0  0  0  0  0  0  0  0  0
  182.2980  178.2900  138.3150 C   0  0  2  0  0  0  0  0  0  0  0  0
  184.0370  179.9350  138.5430 F   0  0  0  0  0  0  0  0  0  0  0  0
  182.8830  179.4440  139.1360 C   0  0  2  0  0  3  0  0  0  0  0  0
  183.0700  178.0020  139.5990 C   0  0  2  0  0  0  0  0  0  0  0  0
  182.3660  177.7320  140.7750 O   0  0  0  0  0  1  0  0  0  0  0  0
  182.9950  177.9960  137.1400 O   0  0  0  0  0  1  0  0  0  0  0  0
  180.7690  178.0460  138.2910 C   0  0  1  0  0  3  0  0  0  0  0  0
  179.9830  179.0340  137.4170 C   0  0  2  0  0  3  0  0  0  0  0  0
  180.5280  179.0600  135.9990 C   0  0  0  0  0  1  0  0  0  0  0  0
  180.0580  180.3120  137.9440 F   0  0  0  0  0  0  0  0  0  0  0  0
  180.0130  176.0490  139.4280 O   0  0  0  0  0  1  0  0  0  0  0  0
  180.2900  176.5890  138.1700 C   0  0  2  0  0  3  0  0  0  0  0  0
  182.2400  174.9620  138.0270 N   0  0  0  0  0  2  0  0  0  0  0  0
  183.1910  174.1530  137.2850 C   0  0  0  0  0  1  0  0  0  0  0  0
  181.2020  175.6970  137.3770 C   0  0  0  0  0  0  0  0  0  0  0  0
  181.0480  175.6090  136.1280 O   0  0  0  0  0  0  0  0  0  0  0  0
  1 22  1  0  0  0  0
  2 16  1  0  0  0  0
  5  4  2  0  0  0  0
  5  9  1  0  0  0  0
  6  7  1  6  0  0  0
  6 17  1  0  0  0  0
  7  9  1  0  0  0  0
  8 19  1  0  0  0  0
 10 20  1  0  0  0  0
 11  4  1  1  0  0  0
 11  6  1  0  0  0  0
 11 23  1  0  0  0  0
 12 26  1  0  0  0  0
 12 27  1  0  0  0  0
 13  1  1  0  0  0  0
 14 12  2  0  0  0  0
 15 17  1  0  0  0  0
 15 33  1  1  0  0  0
 15 24  1  0  0  0  0
 16 21  1  0  0  0  0
 18  2  1  0  0  0  0
 19  3  1  6  0  0  0
 19 18  1  0  0  0  0
 20 27  2  0  0  0  0
 21 38  1  1  0  0  0
 21 25  1  0  0  0  0
 22 14  1  0  0  0  0
 22 10  2  0  0  0  0
 23  8  1  6  0  0  0
 23 24  1  0  0  0  0
 24 13  1  1  0  0  0
 25 26  1  0  0  0  0
 28 32  2  0  0  0  0
 28 33  1  0  0  0  0
 29 34  1  1  0  0  0
 29 31  1  0  0  0  0
 30 31  1  0  0  0  0
 32 29  1  0  0  0  0
 33 30  2  0  0  0  0
 35 34  1  0  0  0  0
 36 34  1  0  0  0  0
 38 37  1  1  0  0  0
 39 43  1  0  0  0  0
 39 38  1  0  0  0  0
 40 45  1  6  0  0  0
 40 42  1  0  0  0  0
 40 43  1  0  0  0  0
 42 41  1  6  0  0  0
 42 43  1  0  0  0  0
 43 44  1  1  0  0  0
 46 47  1  6  0  0  0
 46 40  1  0  0  0  0
 47 48  1  6  0  0  0
 47 49  1  0  0  0  0
 51 46  1  0  0  0  0
 51 50  1  1  0  0  0
 53 52  1  0  0  0  0
 54 52  1  0  0  0  0
 54 51  1  0  0  0  0
 55 54  2  0  0  0  0
M  END
>  <MODEL>
8

>  <REMARK>
 VINA RESULT:      -4.6      1.566      2.008
  Name = 
  9 active torsions:
  status: ('A' for Active; 'I' for Inactive)
    1  A    between atoms: C_1  and  C_53
    2  A    between atoms: C_6  and  C_53
    3  A    between atoms: C_8  and  O_22
    4  A    between atoms: C_8  and  C_43
    5  A    between atoms: N_10  and  C_32
    6  A    between atoms: C_20  and  O_22
    7  A    between atoms: C_29  and  C_38
    8  A    between atoms: C_33  and  C_52
    9  A    between atoms: C_38  and  C_53
                            x       y       z     vdW  Elec       q    Type
                         _______ _______ _______ _____ _____    ______ ____

>  <TORSDO>
F 9

$$$$
=
 OpenBabel10272401333D

 55 60  0  0  1  0  0  0  0  0999 V2000
  185.1010  177.5060  136.8070 C   0  0  0  0  0  2  0  0  0  0  0  0
  190.2930  176.9080  137.1990 C   0  0  0  0  0  2  0  0  0  0  0  0
  190.2630  179.3790  138.6980 F   0  0  0  0  0  0  0  0  0  0  0  0
  188.0280  178.1810  141.8160 C   0  0  0  0  0  3  0  0  0  0  0  0
  187.9340  177.6470  143.0450 C   0  0  0  0  0  3  0  0  0  0  0  0
  185.5300  177.9530  141.5490 C   0  0  2  0  0  3  0  0  0  0  0  0
  185.4440  178.1010  143.0610 C   0  0  0  0  0  2  0  0  0  0  0  0
  187.9680  179.2970  138.9770 N   0  0  0  0  0  2  0  0  0  0  0  0
  186.6110  177.3510  143.7100 C   0  0  0  0  0  2  0  0  0  0  0  0
  183.9940  175.7210  135.4550 C   0  0  0  0  0  3  0  0  0  0  0  0
  186.8120  178.6360  141.0470 C   0  0  2  0  0  3  0  0  0  0  0  0
  186.3540  174.2100  135.4230 C   0  0  0  0  0  0  0  0  0  0  0  0
  185.2020  177.3210  138.2440 N   0  0  0  0  0  2  0  0  0  0  0  0
  186.3080  175.4310  136.1090 C   0  0  0  0  0  3  0  0  0  0  0  0
  184.5560  179.2300  139.6800 C   0  0  1  0  0  3  0  0  0  0  0  0
  190.1380  176.0590  135.9470 C   0  0  0  0  0  2  0  0  0  0  0  0
  184.3050  178.4670  140.9140 N   0  0  0  0  0  2  0  0  0  0  0  0
  189.0660  177.7750  137.4070 C   0  0  0  0  0  2  0  0  0  0  0  0
  189.1760  178.5220  138.7300 C   0  0  1  0  0  3  0  0  0  0  0  0
  184.0320  174.4950  134.7830 C   0  0  0  0  0  3  0  0  0  0  0  0
  189.5260  174.7040  136.2810 C   0  0  1  0  0  3  0  0  0  0  0  0
  185.1320  176.1890  136.1180 C   0  0  0  0  0  0  0  0  0  0  0  0
  186.9660  178.4010  139.5390 C   0  0  1  0  0  3  0  0  0  0  0  0
  185.6420  178.5950  138.7890 C   0  0  1  0  0  3  0  0  0  0  0  0
  188.8240  174.1820  135.0340 C   0  0  0  0  0  2  0  0  0  0  0  0
  187.5930  173.3720  135.4210 C   0  0  0  0  0  2  0  0  0  0  0  0
  185.2110  173.7410  134.7690 C   0  0  0  0  0  3  0  0  0  0  0  0
  182.7100  178.4690  138.0300 C   0  0  0  0  0  3  0  0  0  0  0  0
  181.4010  180.2630  136.9280 C   0  0  1  0  0  3  0  0  0  0  0  0
  182.7130  180.6980  139.0170 C   0  0  0  0  0  3  0  0  0  0  0  0
  181.4230  180.9790  138.2930 C   0  0  0  0  0  2  0  0  0  0  0  0
  181.7940  178.8120  137.1190 C   0  0  0  0  0  3  0  0  0  0  0  0
  183.2860  179.4930  138.9320 C   0  0  0  0  0  0  0  0  0  0  0  0
  180.0820  180.3760  136.2850 N   0  0  0  0  0  0  0  0  0  0  0  0
  179.9840  181.6850  135.6530 C   0  0  0  0  0  1  0  0  0  0  0  0
  180.0190  179.4240  135.1850 C   0  0  0  0  0  1  0  0  0  0  0  0
  190.1090  172.8760  137.7330 O   0  0  0  0  0  1  0  0  0  0  0  0
  190.6090  173.7130  136.7340 C   0  0  2  0  0  3  0  0  0  0  0  0
  191.7280  174.3960  137.2320 O   0  0  0  0  0  0  0  0  0  0  0  0
  194.2050  174.5150  136.6840 C   0  0  2  0  0  0  0  0  0  0  0  0
  192.7290  175.7790  135.2670 F   0  0  0  0  0  0  0  0  0  0  0  0
  193.3620  174.5520  135.4050 C   0  0  2  0  0  3  0  0  0  0  0  0
  192.8560  173.8040  136.6350 C   0  0  2  0  0  0  0  0  0  0  0  0
  192.8180  172.4220  136.4320 O   0  0  0  0  0  1  0  0  0  0  0  0
  194.2080  175.7050  137.4170 O   0  0  0  0  0  1  0  0  0  0  0  0
  195.4970  173.6650  136.7430 C   0  0  1  0  0  3  0  0  0  0  0  0
  196.6220  174.1540  135.8180 C   0  0  2  0  0  3  0  0  0  0  0  0
  196.2440  175.4630  135.1470 C   0  0  0  0  0  1  0  0  0  0  0  0
  196.8850  173.2130  134.8370 F   0  0  0  0  0  0  0  0  0  0  0  0
  194.9290  172.6960  138.8860 O   0  0  0  0  0  1  0  0  0  0  0  0
  195.9840  173.2180  138.1330 C   0  0  2  0  0  3  0  0  0  0  0  0
  198.1540  174.3970  138.7440 N   0  0  0  0  0  2  0  0  0  0  0  0
  198.9280  175.3450  139.5230 C   0  0  0  0  0  1  0  0  0  0  0  0
  196.7380  174.2680  138.8960 C   0  0  0  0  0  0  0  0  0  0  0  0
  196.1130  175.0330  139.6800 O   0  0  0  0  0  0  0  0  0  0  0  0
  1 13  1  0  0  0  0
  2 18  1  0  0  0  0
  4  5  2  0  0  0  0
  5  9  1  0  0  0  0
  6  7  1  1  0  0  0
  7  9  1  0  0  0  0
 10 22  1  0  0  0  0
 11  6  1  0  0  0  0
 11  4  1  1  0  0  0
 12 14  1  0  0  0  0
 14 22  2  0  0  0  0
 15 33  1  6  0  0  0
 15 17  1  0  0  0  0
 16 21  1  0  0  0  0
 16  2  1  0  0  0  0
 17  6  1  0  0  0  0
 18 19  1  0  0  0  0
 19  3  1  6  0  0  0
 19  8  1  0  0  0  0
 20 10  2  0  0  0  0
 21 38  1  6  0  0  0
 22  1  1  0  0  0  0
 23  8  1  6  0  0  0
 23 11  1  0  0  0  0
 24 13  1  1  0  0  0
 24 23  1  0  0  0  0
 24 15  1  0  0  0  0
 25 26  1  0  0  0  0
 25 21  1  0  0  0  0
 26 12  1  0  0  0  0
 27 20  1  0  0  0  0
 27 12  2  0  0  0  0
 28 33  1  0  0  0  0
 29 34  1  1  0  0  0
 29 32  1  0  0  0  0
 29 31  1  0  0  0  0
 31 30  1  0  0  0  0
 32 28  2  0  0  0  0
 33 30  2  0  0  0  0
 35 34  1  0  0  0  0
 36 34  1  0  0  0  0
 38 39  1  0  0  0  0
 38 37  1  1  0  0  0
 40 46  1  0  0  0  0
 40 45  1  1  0  0  0
 42 41  1  1  0  0  0
 42 43  1  0  0  0  0
 42 40  1  0  0  0  0
 43 44  1  6  0  0  0
 43 40  1  0  0  0  0
 43 39  1  0  0  0  0
 46 47  1  1  0  0  0
 46 51  1  0  0  0  0
 47 48  1  6  0  0  0
 49 47  1  0  0  0  0
 51 50  1  1  0  0  0
 51 54  1  0  0  0  0
 52 54  1  0  0  0  0
 52 53  1  0  0  0  0
 54 55  2  0  0  0  0
M  END
>  <MODEL>
9

>  <REMARK>
 VINA RESULT:      -4.2      4.487     11.241
  Name = 
  9 active torsions:
  status: ('A' for Active; 'I' for Inactive)
    1  A    between atoms: C_1  and  C_53
    2  A    between atoms: C_6  and  C_53
    3  A    between atoms: C_8  and  O_22
    4  A    between atoms: C_8  and  C_43
    5  A    between atoms: N_10  and  C_32
    6  A    between atoms: C_20  and  O_22
    7  A    between atoms: C_29  and  C_38
    8  A    between atoms: C_33  and  C_52
    9  A    between atoms: C_38  and  C_53
                            x       y       z     vdW  Elec       q    Type
                         _______ _______ _______ _____ _____    ______ ____

>  <TORSDO>
F 9

$$$$
