=
 OpenBabel10272400533D

 25 27  0  0  1  0  0  0  0  0999 V2000
  184.4580  178.0880  142.8930 N   0  0  0  0  0  0  0  0  0  0  0  0
  185.4730  178.0860  143.9020 C   0  0  0  0  0  0  0  0  0  0  0  0
  183.0110  179.4800  144.2650 C   0  0  0  0  0  2  0  0  0  0  0  0
  184.6770  178.1450  141.4580 C   0  0  1  0  0  3  0  0  0  0  0  0
  183.8900  179.1930  145.3610 O   0  0  0  0  0  0  0  0  0  0  0  0
  183.3350  178.2850  140.8580 N   0  0  0  0  0  0  0  0  0  0  0  0
  186.1230  178.5970  146.1710 C   0  0  0  0  0  0  0  0  0  0  0  0
  185.8280  179.1450  147.5230 C   0  0  0  0  0  1  0  0  0  0  0  0
  186.7090  177.5710  143.6630 N   0  0  0  0  0  0  0  0  0  0  0  0
  183.0750  178.3580  143.2310 C   0  0  1  0  0  3  0  0  0  0  0  0
  182.4390  178.7700  141.9160 C   0  0  0  0  0  2  0  0  0  0  0  0
  187.3830  178.0570  145.9070 C   0  0  0  0  0  3  0  0  0  0  0  0
  187.6660  177.5530  144.6310 C   0  0  0  0  0  0  0  0  0  0  0  0
  185.1600  178.6300  145.1550 C   0  0  0  0  0  0  0  0  0  0  0  0
  183.3470  178.1900  138.3430 C   0  0  0  0  0  1  0  0  0  0  0  0
  183.2520  179.0490  139.6010 C   0  0  0  0  0  2  0  0  0  0  0  0
  186.7690  178.7640  140.3980 O   0  0  0  0  0  1  0  0  0  0  0  0
  185.6670  179.2670  141.0950 C   0  0  0  0  0  2  0  0  0  0  0  0
  188.9990  176.9610  144.3460 C   0  0  0  0  0  2  0  0  0  0  0  0
  190.0920  177.8440  144.9240 C   0  0  0  0  0  2  0  0  0  0  0  0
  191.3420  177.0260  145.2070 C   0  0  2  0  0  3  0  0  0  0  0  0
  191.5990  175.8300  143.8580 S   0  0  0  0  0  1  0  0  0  0  0  0
  191.2490  176.3380  146.5700 C   0  0  2  0  0  3  0  0  0  0  0  0
  190.5070  177.2070  147.5670 C   0  0  0  0  0  1  0  0  0  0  0  0
  192.5170  176.0220  147.0630 O   0  0  0  0  0  1  0  0  0  0  0  0
  1 10  1  0  0  0  0
  1  2  1  0  0  0  0
  2 14  1  0  0  0  0
  3  5  1  0  0  0  0
  4 18  1  1  0  0  0
  4  1  1  0  0  0  0
  6  4  1  0  0  0  0
  6 11  1  0  0  0  0
  7  8  1  0  0  0  0
  9  2  2  0  0  0  0
  9 13  1  0  0  0  0
 10 11  1  6  0  0  0
 10  3  1  0  0  0  0
 12  7  1  0  0  0  0
 13 12  2  0  0  0  0
 14  5  1  0  0  0  0
 14  7  2  0  0  0  0
 15 16  1  0  0  0  0
 16  6  1  0  0  0  0
 17 18  1  0  0  0  0
 19 13  1  0  0  0  0
 19 20  1  0  0  0  0
 20 21  1  0  0  0  0
 21 22  1  6  0  0  0
 21 23  1  0  0  0  0
 23 25  1  0  0  0  0
 23 24  1  1  0  0  0
M  END
>  <MODEL>
1

>  <REMARK>
 VINA RESULT:      -7.4      0.000      0.000
  Name = 
  6 active torsions:
  status: ('A' for Active; 'I' for Inactive)
    1  A    between atoms: C_2  and  C_21
    2  A    between atoms: C_5  and  C_22
    3  A    between atoms: C_6  and  C_15
    4  A    between atoms: C_6  and  C_23
    5  A    between atoms: N_10  and  C_11
    6  A    between atoms: C_15  and  C_21
                            x       y       z     vdW  Elec       q    Type
                         _______ _______ _______ _____ _____    ______ ____

>  <TORSDO>
F 6

$$$$
=
 OpenBabel10272400533D

 25 27  0  0  1  0  0  0  0  0999 V2000
  184.4540  178.1290  142.9790 N   0  0  0  0  0  0  0  0  0  0  0  0
  185.4800  178.0800  143.9760 C   0  0  0  0  0  0  0  0  0  0  0  0
  183.0900  179.5870  144.3670 C   0  0  0  0  0  2  0  0  0  0  0  0
  184.6590  178.1740  141.5410 C   0  0  1  0  0  3  0  0  0  0  0  0
  183.9680  179.2600  145.4530 O   0  0  0  0  0  0  0  0  0  0  0  0
  183.3180  178.3760  140.9570 N   0  0  0  0  0  0  0  0  0  0  0  0
  186.1790  178.5620  146.2360 C   0  0  0  0  0  0  0  0  0  0  0  0
  185.9260  179.1230  147.5910 C   0  0  0  0  0  1  0  0  0  0  0  0
  186.6880  177.5080  143.7230 N   0  0  0  0  0  0  0  0  0  0  0  0
  183.0890  178.4620  143.3330 C   0  0  1  0  0  3  0  0  0  0  0  0
  182.4580  178.9020  142.0250 C   0  0  0  0  0  2  0  0  0  0  0  0
  187.4100  177.9640  145.9580 C   0  0  0  0  0  3  0  0  0  0  0  0
  187.6540  177.4470  144.6800 C   0  0  0  0  0  0  0  0  0  0  0  0
  185.2070  178.6380  145.2320 C   0  0  0  0  0  0  0  0  0  0  0  0
  183.3790  178.2860  138.4420 C   0  0  0  0  0  1  0  0  0  0  0  0
  183.2550  179.1420  139.7000 C   0  0  0  0  0  2  0  0  0  0  0  0
  186.7420  178.7030  140.4180 O   0  0  0  0  0  1  0  0  0  0  0  0
  185.6950  179.2490  141.1650 C   0  0  0  0  0  2  0  0  0  0  0  0
  188.9550  176.7930  144.3800 C   0  0  0  0  0  2  0  0  0  0  0  0
  188.9270  176.2000  142.9820 C   0  0  0  0  0  2  0  0  0  0  0  0
  190.3340  176.1190  142.4100 C   0  0  2  0  0  3  0  0  0  0  0  0
  191.5400  176.1150  143.7750 S   0  0  0  0  0  1  0  0  0  0  0  0
  190.5920  177.2600  141.4250 C   0  0  2  0  0  3  0  0  0  0  0  0
  190.0850  176.9040  140.0400 C   0  0  0  0  0  1  0  0  0  0  0  0
  191.9500  177.5800  141.3670 O   0  0  0  0  0  1  0  0  0  0  0  0
  1 10  1  0  0  0  0
  1  2  1  0  0  0  0
  2 14  1  0  0  0  0
  3  5  1  0  0  0  0
  4 18  1  1  0  0  0
  4  1  1  0  0  0  0
  6  4  1  0  0  0  0
  6 11  1  0  0  0  0
  7  8  1  0  0  0  0
  9  2  2  0  0  0  0
  9 13  1  0  0  0  0
 10 11  1  6  0  0  0
 10  3  1  0  0  0  0
 12  7  1  0  0  0  0
 13 12  2  0  0  0  0
 14  5  1  0  0  0  0
 14  7  2  0  0  0  0
 15 16  1  0  0  0  0
 16  6  1  0  0  0  0
 17 18  1  0  0  0  0
 19 13  1  0  0  0  0
 20 19  1  0  0  0  0
 21 20  1  0  0  0  0
 21 22  1  1  0  0  0
 23 24  1  6  0  0  0
 23 21  1  0  0  0  0
 25 23  1  0  0  0  0
M  END
>  <MODEL>
2

>  <REMARK>
 VINA RESULT:      -7.3      1.663      2.347
  Name = 
  6 active torsions:
  status: ('A' for Active; 'I' for Inactive)
    1  A    between atoms: C_2  and  C_21
    2  A    between atoms: C_5  and  C_22
    3  A    between atoms: C_6  and  C_15
    4  A    between atoms: C_6  and  C_23
    5  A    between atoms: N_10  and  C_11
    6  A    between atoms: C_15  and  C_21
                            x       y       z     vdW  Elec       q    Type
                         _______ _______ _______ _____ _____    ______ ____

>  <TORSDO>
F 6

$$$$
=
 OpenBabel10272400533D

 25 27  0  0  1  0  0  0  0  0999 V2000
  189.5130  178.1000  144.0180 N   0  0  0  0  0  0  0  0  0  0  0  0
  188.4760  178.0760  145.0030 C   0  0  0  0  0  0  0  0  0  0  0  0
  191.1040  177.1310  145.5830 C   0  0  0  0  0  2  0  0  0  0  0  0
  189.3540  177.8280  142.6000 C   0  0  1  0  0  3  0  0  0  0  0  0
  190.1540  177.4190  146.6190 O   0  0  0  0  0  0  0  0  0  0  0  0
  190.7220  177.8180  142.0440 N   0  0  0  0  0  0  0  0  0  0  0  0
  187.8320  177.7660  147.3100 C   0  0  0  0  0  0  0  0  0  0  0  0
  188.1580  177.4470  148.7270 C   0  0  0  0  0  1  0  0  0  0  0  0
  187.1850  178.3620  144.6810 N   0  0  0  0  0  0  0  0  0  0  0  0
  190.9090  178.0890  144.4090 C   0  0  1  0  0  3  0  0  0  0  0  0
  191.6440  177.6150  143.1690 C   0  0  0  0  0  2  0  0  0  0  0  0
  186.5150  178.0700  146.9590 C   0  0  0  0  0  3  0  0  0  0  0  0
  186.2040  178.3580  145.6240 C   0  0  0  0  0  0  0  0  0  0  0  0
  188.8230  177.7510  146.3210 C   0  0  0  0  0  0  0  0  0  0  0  0
  190.5450  177.5060  139.5520 C   0  0  0  0  0  1  0  0  0  0  0  0
  190.9620  176.9210  140.8990 C   0  0  0  0  0  2  0  0  0  0  0  0
  189.0520  175.4870  143.1600 O   0  0  0  0  0  1  0  0  0  0  0  0
  188.5560  176.5300  142.3730 C   0  0  0  0  0  2  0  0  0  0  0  0
  184.8080  178.6980  145.2450 C   0  0  0  0  0  2  0  0  0  0  0  0
  184.8110  179.7370  144.1360 C   0  0  0  0  0  2  0  0  0  0  0  0
  183.8580  179.3310  143.0240 C   0  0  2  0  0  3  0  0  0  0  0  0
  182.2910  178.7540  143.7520 S   0  0  0  0  0  1  0  0  0  0  0  0
  184.4920  178.2720  142.1200 C   0  0  2  0  0  3  0  0  0  0  0  0
  185.6960  178.8330  141.3890 C   0  0  0  0  0  1  0  0  0  0  0  0
  183.5660  177.7750  141.2000 O   0  0  0  0  0  1  0  0  0  0  0  0
  1 10  1  0  0  0  0
  1  2  1  0  0  0  0
  2 14  1  0  0  0  0
  3  5  1  0  0  0  0
  4 18  1  1  0  0  0
  4  1  1  0  0  0  0
  6  4  1  0  0  0  0
  6 11  1  0  0  0  0
  7  8  1  0  0  0  0
  9  2  2  0  0  0  0
  9 13  1  0  0  0  0
 10 11  1  6  0  0  0
 10  3  1  0  0  0  0
 12  7  1  0  0  0  0
 13 12  2  0  0  0  0
 14  5  1  0  0  0  0
 14  7  2  0  0  0  0
 15 16  1  0  0  0  0
 16  6  1  0  0  0  0
 18 17  1  0  0  0  0
 19 13  1  0  0  0  0
 20 19  1  0  0  0  0
 21 22  1  1  0  0  0
 21 20  1  0  0  0  0
 23 24  1  6  0  0  0
 23 21  1  0  0  0  0
 25 23  1  0  0  0  0
M  END
>  <MODEL>
3

>  <REMARK>
 VINA RESULT:      -7.3      3.109      6.473
  Name = 
  6 active torsions:
  status: ('A' for Active; 'I' for Inactive)
    1  A    between atoms: C_2  and  C_21
    2  A    between atoms: C_5  and  C_22
    3  A    between atoms: C_6  and  C_15
    4  A    between atoms: C_6  and  C_23
    5  A    between atoms: N_10  and  C_11
    6  A    between atoms: C_15  and  C_21
                            x       y       z     vdW  Elec       q    Type
                         _______ _______ _______ _____ _____    ______ ____

>  <TORSDO>
F 6

$$$$
=
 OpenBabel10272400533D

 25 27  0  0  1  0  0  0  0  0999 V2000
  188.9520  177.8220  144.6900 N   0  0  0  0  0  0  0  0  0  0  0  0
  187.8100  178.0200  143.8510 C   0  0  0  0  0  0  0  0  0  0  0  0
  187.5360  177.4070  146.6230 C   0  0  0  0  0  2  0  0  0  0  0  0
  190.1890  177.1600  144.3120 C   0  0  1  0  0  3  0  0  0  0  0  0
  186.4450  177.9220  145.8480 O   0  0  0  0  0  0  0  0  0  0  0  0
  190.9830  177.0660  145.5530 N   0  0  0  0  0  0  0  0  0  0  0  0
  185.4230  178.3290  143.6610 C   0  0  0  0  0  0  0  0  0  0  0  0
  184.0660  178.4320  144.2630 C   0  0  0  0  0  1  0  0  0  0  0  0
  187.9340  178.1400  142.5020 N   0  0  0  0  0  0  0  0  0  0  0  0
  188.8570  177.9910  146.1270 C   0  0  1  0  0  3  0  0  0  0  0  0
  190.0500  177.2300  146.6750 C   0  0  0  0  0  2  0  0  0  0  0  0
  185.5730  178.4560  142.2780 C   0  0  0  0  0  3  0  0  0  0  0  0
  186.8480  178.3470  141.7090 C   0  0  0  0  0  0  0  0  0  0  0  0
  186.5490  178.0910  144.4570 C   0  0  0  0  0  0  0  0  0  0  0  0
  192.2970  175.5890  147.1120 C   0  0  0  0  0  1  0  0  0  0  0  0
  191.8760  175.9010  145.6780 C   0  0  0  0  0  2  0  0  0  0  0  0
  190.3610  175.8120  142.3030 O   0  0  0  0  0  1  0  0  0  0  0  0
  189.9050  175.8120  143.6230 C   0  0  0  0  0  2  0  0  0  0  0  0
  187.0190  178.4970  140.2390 C   0  0  0  0  0  2  0  0  0  0  0  0
  188.4870  178.3680  139.8730 C   0  0  0  0  0  2  0  0  0  0  0  0
  188.6490  177.5310  138.6150 C   0  0  2  0  0  3  0  0  0  0  0  0
  190.2600  176.6800  138.6590 S   0  0  0  0  0  1  0  0  0  0  0  0
  188.4930  178.3910  137.3600 C   0  0  2  0  0  3  0  0  0  0  0  0
  189.1440  177.7250  136.1620 C   0  0  0  0  0  1  0  0  0  0  0  0
  189.0330  179.6640  137.5490 O   0  0  0  0  0  1  0  0  0  0  0  0
  1 10  1  0  0  0  0
  2 14  1  0  0  0  0
  2  1  1  0  0  0  0
  4 18  1  1  0  0  0
  4  1  1  0  0  0  0
  4  6  1  0  0  0  0
  5  3  1  0  0  0  0
  6 16  1  0  0  0  0
  6 11  1  0  0  0  0
  7  8  1  0  0  0  0
  7 14  2  0  0  0  0
  9  2  2  0  0  0  0
 10  3  1  1  0  0  0
 10 11  1  0  0  0  0
 12  7  1  0  0  0  0
 13 12  2  0  0  0  0
 13  9  1  0  0  0  0
 14  5  1  0  0  0  0
 16 15  1  0  0  0  0
 17 18  1  0  0  0  0
 19 13  1  0  0  0  0
 20 19  1  0  0  0  0
 21 22  1  1  0  0  0
 21 20  1  0  0  0  0
 23 24  1  6  0  0  0
 23 25  1  0  0  0  0
 23 21  1  0  0  0  0
M  END
>  <MODEL>
4

>  <REMARK>
 VINA RESULT:      -7.2      2.974      6.902
  Name = 
  6 active torsions:
  status: ('A' for Active; 'I' for Inactive)
    1  A    between atoms: C_2  and  C_21
    2  A    between atoms: C_5  and  C_22
    3  A    between atoms: C_6  and  C_15
    4  A    between atoms: C_6  and  C_23
    5  A    between atoms: N_10  and  C_11
    6  A    between atoms: C_15  and  C_21
                            x       y       z     vdW  Elec       q    Type
                         _______ _______ _______ _____ _____    ______ ____

>  <TORSDO>
F 6

$$$$
=
 OpenBabel10272400533D

 25 27  0  0  1  0  0  0  0  0999 V2000
  189.7790  176.7970  143.0430 N   0  0  0  0  0  0  0  0  0  0  0  0
  188.8860  177.4120  142.1080 C   0  0  0  0  0  0  0  0  0  0  0  0
  191.6420  177.0080  141.4940 C   0  0  0  0  0  2  0  0  0  0  0  0
  189.7700  176.9820  144.4840 C   0  0  1  0  0  3  0  0  0  0  0  0
  190.6750  177.3140  140.4800 O   0  0  0  0  0  0  0  0  0  0  0  0
  190.9680  176.2750  144.9800 N   0  0  0  0  0  0  0  0  0  0  0  0
  188.4800  178.2040  139.8630 C   0  0  0  0  0  0  0  0  0  0  0  0
  188.9230  178.4510  138.4640 C   0  0  0  0  0  1  0  0  0  0  0  0
  187.6200  177.7610  142.4610 N   0  0  0  0  0  0  0  0  0  0  0  0
  191.0030  176.1630  142.5950 C   0  0  1  0  0  3  0  0  0  0  0  0
  191.8730  176.1060  143.8360 C   0  0  0  0  0  2  0  0  0  0  0  0
  187.1810  178.5480  140.2450 C   0  0  0  0  0  3  0  0  0  0  0  0
  186.7670  178.3280  141.5650 C   0  0  0  0  0  0  0  0  0  0  0  0
  189.3500  177.6450  140.8070 C   0  0  0  0  0  0  0  0  0  0  0  0
  191.9880  175.7890  147.2290 C   0  0  0  0  0  1  0  0  0  0  0  0
  191.6120  176.8340  146.1810 C   0  0  0  0  0  2  0  0  0  0  0  0
  190.6550  179.2130  144.1330 O   0  0  0  0  0  1  0  0  0  0  0  0
  189.7060  178.4770  144.8480 C   0  0  0  0  0  2  0  0  0  0  0  0
  185.3810  178.6760  141.9750 C   0  0  0  0  0  2  0  0  0  0  0  0
  185.3990  179.3560  143.3330 C   0  0  0  0  0  2  0  0  0  0  0  0
  184.5800  178.5600  144.3370 C   0  0  2  0  0  3  0  0  0  0  0  0
  182.8350  179.0700  144.2330 S   0  0  0  0  0  1  0  0  0  0  0  0
  185.1390  178.7220  145.7510 C   0  0  2  0  0  3  0  0  0  0  0  0
  186.3660  177.8550  145.9520 C   0  0  0  0  0  1  0  0  0  0  0  0
  184.1750  178.4130  146.7130 O   0  0  0  0  0  1  0  0  0  0  0  0
  1  4  1  0  0  0  0
  2  9  1  0  0  0  0
  2  1  1  0  0  0  0
  4 18  1  6  0  0  0
  4  6  1  0  0  0  0
  5 14  1  0  0  0  0
  5  3  1  0  0  0  0
  6 16  1  0  0  0  0
  7 12  2  0  0  0  0
  7 14  1  0  0  0  0
  8  7  1  0  0  0  0
 10  3  1  6  0  0  0
 10  1  1  0  0  0  0
 10 11  1  0  0  0  0
 11  6  1  0  0  0  0
 12 13  1  0  0  0  0
 13 19  1  0  0  0  0
 13  9  2  0  0  0  0
 14  2  2  0  0  0  0
 16 15  1  0  0  0  0
 17 18  1  0  0  0  0
 19 20  1  0  0  0  0
 20 21  1  0  0  0  0
 21 22  1  1  0  0  0
 21 23  1  0  0  0  0
 23 24  1  6  0  0  0
 23 25  1  0  0  0  0
M  END
>  <MODEL>
5

>  <REMARK>
 VINA RESULT:      -7.1      3.158      7.411
  Name = 
  6 active torsions:
  status: ('A' for Active; 'I' for Inactive)
    1  A    between atoms: C_2  and  C_21
    2  A    between atoms: C_5  and  C_22
    3  A    between atoms: C_6  and  C_15
    4  A    between atoms: C_6  and  C_23
    5  A    between atoms: N_10  and  C_11
    6  A    between atoms: C_15  and  C_21
                            x       y       z     vdW  Elec       q    Type
                         _______ _______ _______ _____ _____    ______ ____

>  <TORSDO>
F 6

$$$$
=
 OpenBabel10272400533D

 25 27  0  0  1  0  0  0  0  0999 V2000
  186.3210  177.6940  144.3250 N   0  0  0  0  0  0  0  0  0  0  0  0
  187.6840  177.4990  143.9350 C   0  0  0  0  0  0  0  0  0  0  0  0
  186.9930  178.3410  146.5710 C   0  0  0  0  0  2  0  0  0  0  0  0
  185.2650  178.2510  143.4970 C   0  0  1  0  0  3  0  0  0  0  0  0
  188.2960  177.8320  146.2530 O   0  0  0  0  0  0  0  0  0  0  0  0
  184.0970  178.3940  144.3900 N   0  0  0  0  0  0  0  0  0  0  0  0
  190.0050  177.3170  144.5780 C   0  0  0  0  0  0  0  0  0  0  0  0
  191.0820  177.3410  145.6040 C   0  0  0  0  0  1  0  0  0  0  0  0
  188.0250  177.2680  142.6380 N   0  0  0  0  0  0  0  0  0  0  0  0
  185.9330  177.6440  145.7200 C   0  0  1  0  0  3  0  0  0  0  0  0
  184.6040  178.3740  145.7680 C   0  0  0  0  0  2  0  0  0  0  0  0
  190.3320  177.0740  143.2420 C   0  0  0  0  0  3  0  0  0  0  0  0
  189.3200  177.0640  142.2740 C   0  0  0  0  0  0  0  0  0  0  0  0
  188.6690  177.5500  144.9290 C   0  0  0  0  0  0  0  0  0  0  0  0
  181.9100  179.0990  143.3620 C   0  0  0  0  0  1  0  0  0  0  0  0
  183.1810  179.5120  144.1010 C   0  0  0  0  0  2  0  0  0  0  0  0
  185.5040  179.5140  141.4410 O   0  0  0  0  0  1  0  0  0  0  0  0
  185.7240  179.5560  142.8200 C   0  0  0  0  0  2  0  0  0  0  0  0
  189.6570  176.7890  140.8520 C   0  0  0  0  0  2  0  0  0  0  0  0
  188.8520  177.7020  139.9430 C   0  0  0  0  0  2  0  0  0  0  0  0
  188.5960  177.0290  138.6050 C   0  0  2  0  0  3  0  0  0  0  0  0
  190.1580  176.3430  137.9650 S   0  0  0  0  0  1  0  0  0  0  0  0
  187.9530  178.0020  137.6150 C   0  0  2  0  0  3  0  0  0  0  0  0
  188.9620  179.0200  137.1220 C   0  0  0  0  0  1  0  0  0  0  0  0
  186.8590  178.6540  138.1890 O   0  0  0  0  0  1  0  0  0  0  0  0
  1 10  1  0  0  0  0
  2  1  1  0  0  0  0
  2 14  1  0  0  0  0
  4 18  1  1  0  0  0
  4  1  1  0  0  0  0
  4  6  1  0  0  0  0
  5  3  1  0  0  0  0
  6 11  1  0  0  0  0
  7 14  2  0  0  0  0
  7  8  1  0  0  0  0
  9  2  2  0  0  0  0
 10 11  1  6  0  0  0
 10  3  1  0  0  0  0
 12  7  1  0  0  0  0
 13  9  1  0  0  0  0
 13 12  2  0  0  0  0
 14  5  1  0  0  0  0
 15 16  1  0  0  0  0
 16  6  1  0  0  0  0
 17 18  1  0  0  0  0
 19 13  1  0  0  0  0
 20 19  1  0  0  0  0
 21 22  1  6  0  0  0
 21 20  1  0  0  0  0
 23 24  1  1  0  0  0
 23 25  1  0  0  0  0
 23 21  1  0  0  0  0
M  END
>  <MODEL>
6

>  <REMARK>
 VINA RESULT:      -7.0      2.700      5.335
  Name = 
  6 active torsions:
  status: ('A' for Active; 'I' for Inactive)
    1  A    between atoms: C_2  and  C_21
    2  A    between atoms: C_5  and  C_22
    3  A    between atoms: C_6  and  C_15
    4  A    between atoms: C_6  and  C_23
    5  A    between atoms: N_10  and  C_11
    6  A    between atoms: C_15  and  C_21
                            x       y       z     vdW  Elec       q    Type
                         _______ _______ _______ _____ _____    ______ ____

>  <TORSDO>
F 6

$$$$
=
 OpenBabel10272400533D

 25 27  0  0  1  0  0  0  0  0999 V2000
  186.9980  177.5780  143.2950 N   0  0  0  0  0  0  0  0  0  0  0  0
  188.2180  177.4760  142.5540 C   0  0  0  0  0  0  0  0  0  0  0  0
  188.2130  178.0740  145.3430 C   0  0  0  0  0  2  0  0  0  0  0  0
  185.7520  178.1510  142.8170 C   0  0  1  0  0  3  0  0  0  0  0  0
  189.4000  177.6510  144.6590 O   0  0  0  0  0  0  0  0  0  0  0  0
  184.8520  178.1710  143.9880 N   0  0  0  0  0  0  0  0  0  0  0  0
  190.6300  177.3470  142.5640 C   0  0  0  0  0  0  0  0  0  0  0  0
  191.9350  177.3380  143.2790 C   0  0  0  0  0  1  0  0  0  0  0  0
  188.2170  177.3640  141.1980 N   0  0  0  0  0  0  0  0  0  0  0  0
  186.9850  177.4000  144.7330 C   0  0  1  0  0  3  0  0  0  0  0  0
  185.6970  178.0640  145.1830 C   0  0  0  0  0  2  0  0  0  0  0  0
  190.6060  177.2260  141.1730 C   0  0  0  0  0  3  0  0  0  0  0  0
  189.3790  177.2470  140.4990 C   0  0  0  0  0  0  0  0  0  0  0  0
  189.4260  177.4920  143.2640 C   0  0  0  0  0  0  0  0  0  0  0  0
  182.4140  178.7950  144.0430 C   0  0  0  0  0  1  0  0  0  0  0  0
  183.8660  179.2650  144.0430 C   0  0  0  0  0  2  0  0  0  0  0  0
  185.5580  179.5340  140.8340 O   0  0  0  0  0  1  0  0  0  0  0  0
  185.9910  179.5250  142.1630 C   0  0  0  0  0  2  0  0  0  0  0  0
  189.3430  177.1020  139.0190 C   0  0  0  0  0  2  0  0  0  0  0  0
  190.4500  176.1660  138.5640 C   0  0  0  0  0  2  0  0  0  0  0  0
  191.1660  176.7400  137.3530 C   0  0  2  0  0  3  0  0  0  0  0  0
  190.1670  176.4370  135.8600 S   0  0  0  0  0  1  0  0  0  0  0  0
  192.5750  176.1610  137.2230 C   0  0  2  0  0  3  0  0  0  0  0  0
  192.6110  174.7160  137.6820 C   0  0  0  0  0  1  0  0  0  0  0  0
  193.5000  176.9140  137.9510 O   0  0  0  0  0  1  0  0  0  0  0  0
  1 10  1  0  0  0  0
  2 14  1  0  0  0  0
  2  1  1  0  0  0  0
  4 18  1  1  0  0  0
  4  1  1  0  0  0  0
  4  6  1  0  0  0  0
  5  3  1  0  0  0  0
  6 16  1  0  0  0  0
  6 11  1  0  0  0  0
  7 14  2  0  0  0  0
  7  8  1  0  0  0  0
  9  2  2  0  0  0  0
 10 11  1  1  0  0  0
 10  3  1  0  0  0  0
 12  7  1  0  0  0  0
 13 12  2  0  0  0  0
 13  9  1  0  0  0  0
 14  5  1  0  0  0  0
 15 16  1  0  0  0  0
 17 18  1  0  0  0  0
 19 13  1  0  0  0  0
 20 19  1  0  0  0  0
 21 22  1  6  0  0  0
 21 20  1  0  0  0  0
 23 21  1  0  0  0  0
 23 24  1  1  0  0  0
 23 25  1  0  0  0  0
M  END
>  <MODEL>
7

>  <REMARK>
 VINA RESULT:      -6.6      4.183      5.844
  Name = 
  6 active torsions:
  status: ('A' for Active; 'I' for Inactive)
    1  A    between atoms: C_2  and  C_21
    2  A    between atoms: C_5  and  C_22
    3  A    between atoms: C_6  and  C_15
    4  A    between atoms: C_6  and  C_23
    5  A    between atoms: N_10  and  C_11
    6  A    between atoms: C_15  and  C_21
                            x       y       z     vdW  Elec       q    Type
                         _______ _______ _______ _____ _____    ______ ____

>  <TORSDO>
F 6

$$$$
=
 OpenBabel10272400533D

 25 27  0  0  1  0  0  0  0  0999 V2000
  189.6260  176.8270  139.6840 N   0  0  0  0  0  0  0  0  0  0  0  0
  188.7740  177.2400  140.7570 C   0  0  0  0  0  0  0  0  0  0  0  0
  188.4760  178.2970  138.1240 C   0  0  0  0  0  2  0  0  0  0  0  0
  191.0470  176.5390  139.7820 C   0  0  1  0  0  3  0  0  0  0  0  0
  187.4550  178.4410  139.1210 O   0  0  0  0  0  0  0  0  0  0  0  0
  191.5000  176.3150  138.3940 N   0  0  0  0  0  0  0  0  0  0  0  0
  186.7920  178.4170  141.4770 C   0  0  0  0  0  0  0  0  0  0  0  0
  185.5910  179.2490  141.1940 C   0  0  0  0  0  1  0  0  0  0  0  0
  189.0230  176.8720  142.0430 N   0  0  0  0  0  0  0  0  0  0  0  0
  189.2040  176.9660  138.3050 C   0  0  1  0  0  3  0  0  0  0  0  0
  190.4960  176.9190  137.5100 C   0  0  0  0  0  2  0  0  0  0  0  0
  187.0620  178.0220  142.7890 C   0  0  0  0  0  3  0  0  0  0  0  0
  188.2000  177.2510  143.0580 C   0  0  0  0  0  0  0  0  0  0  0  0
  187.6650  178.0390  140.4500 C   0  0  0  0  0  0  0  0  0  0  0  0
  193.4340  176.0850  136.7990 C   0  0  0  0  0  1  0  0  0  0  0  0
  192.8880  176.7030  138.0840 C   0  0  0  0  0  2  0  0  0  0  0  0
  192.3620  177.1890  141.7120 O   0  0  0  0  0  1  0  0  0  0  0  0
  191.7880  177.6620  140.5300 C   0  0  0  0  0  2  0  0  0  0  0  0
  188.4850  176.8110  144.4490 C   0  0  0  0  0  2  0  0  0  0  0  0
  188.7060  178.0220  145.3400 C   0  0  0  0  0  2  0  0  0  0  0  0
  190.0210  177.8960  146.0920 C   0  0  2  0  0  3  0  0  0  0  0  0
  191.1940  176.9190  145.0980 S   0  0  0  0  0  1  0  0  0  0  0  0
  189.8030  177.2870  147.4790 C   0  0  2  0  0  3  0  0  0  0  0  0
  188.7180  178.0320  148.2330 C   0  0  0  0  0  1  0  0  0  0  0  0
  190.9860  177.2880  148.2220 O   0  0  0  0  0  1  0  0  0  0  0  0
  1  4  1  0  0  0  0
  1  2  1  0  0  0  0
  2  9  1  0  0  0  0
  3 10  1  0  0  0  0
  3  5  1  0  0  0  0
  4 18  1  6  0  0  0
  5 14  1  0  0  0  0
  6  4  1  0  0  0  0
  7 12  2  0  0  0  0
  8  7  1  0  0  0  0
  9 13  2  0  0  0  0
 10 11  1  6  0  0  0
 10  1  1  0  0  0  0
 11  6  1  0  0  0  0
 12 13  1  0  0  0  0
 13 19  1  0  0  0  0
 14  2  2  0  0  0  0
 14  7  1  0  0  0  0
 15 16  1  0  0  0  0
 16  6  1  0  0  0  0
 18 17  1  0  0  0  0
 19 20  1  0  0  0  0
 20 21  1  0  0  0  0
 21 22  1  6  0  0  0
 21 23  1  0  0  0  0
 23 25  1  0  0  0  0
 23 24  1  1  0  0  0
M  END
>  <MODEL>
8

>  <REMARK>
 VINA RESULT:      -6.6      4.114      5.916
  Name = 
  6 active torsions:
  status: ('A' for Active; 'I' for Inactive)
    1  A    between atoms: C_2  and  C_21
    2  A    between atoms: C_5  and  C_22
    3  A    between atoms: C_6  and  C_15
    4  A    between atoms: C_6  and  C_23
    5  A    between atoms: N_10  and  C_11
    6  A    between atoms: C_15  and  C_21
                            x       y       z     vdW  Elec       q    Type
                         _______ _______ _______ _____ _____    ______ ____

>  <TORSDO>
F 6

$$$$
=
 OpenBabel10272400533D

 25 27  0  0  1  0  0  0  0  0999 V2000
  187.4530  177.3410  144.8480 N   0  0  0  0  0  0  0  0  0  0  0  0
  186.9520  177.7660  143.5770 C   0  0  0  0  0  0  0  0  0  0  0  0
  189.7410  177.8110  144.1700 C   0  0  0  0  0  2  0  0  0  0  0  0
  186.8220  177.5700  146.1370 C   0  0  1  0  0  3  0  0  0  0  0  0
  189.2490  177.9170  142.8280 O   0  0  0  0  0  0  0  0  0  0  0  0
  187.7920  177.0900  147.1410 N   0  0  0  0  0  0  0  0  0  0  0  0
  187.4050  178.4040  141.2920 C   0  0  0  0  0  0  0  0  0  0  0  0
  188.3490  178.6760  140.1740 C   0  0  0  0  0  1  0  0  0  0  0  0
  185.6180  177.9090  143.3520 N   0  0  0  0  0  0  0  0  0  0  0  0
  188.8280  176.9080  144.9970 C   0  0  1  0  0  3  0  0  0  0  0  0
  189.1040  177.0380  146.4840 C   0  0  0  0  0  2  0  0  0  0  0  0
  186.0310  178.5380  141.0810 C   0  0  0  0  0  3  0  0  0  0  0  0
  185.1430  178.2940  142.1360 C   0  0  0  0  0  0  0  0  0  0  0  0
  187.8750  178.0310  142.5570 C   0  0  0  0  0  0  0  0  0  0  0  0
  189.1430  178.4070  148.8090 C   0  0  0  0  0  1  0  0  0  0  0  0
  187.7960  177.7890  148.4390 C   0  0  0  0  0  2  0  0  0  0  0  0
  185.0480  179.1540  146.6070 O   0  0  0  0  0  1  0  0  0  0  0  0
  186.4050  179.0440  146.2930 C   0  0  0  0  0  2  0  0  0  0  0  0
  183.6780  178.4180  141.9150 C   0  0  0  0  0  2  0  0  0  0  0  0
  183.3610  178.2550  140.4390 C   0  0  0  0  0  2  0  0  0  0  0  0
  181.8610  178.3270  140.2070 C   0  0  2  0  0  3  0  0  0  0  0  0
  181.0330  178.8190  141.7530 S   0  0  0  0  0  1  0  0  0  0  0  0
  181.3240  176.9990  139.6700 C   0  0  2  0  0  3  0  0  0  0  0  0
  180.0830  176.5700  140.4280 C   0  0  0  0  0  1  0  0  0  0  0  0
  182.2950  175.9970  139.7400 O   0  0  0  0  0  1  0  0  0  0  0  0
  1 10  1  0  0  0  0
  1  4  1  0  0  0  0
  2  1  1  0  0  0  0
  4 18  1  1  0  0  0
  4  6  1  0  0  0  0
  5  3  1  0  0  0  0
  6 16  1  0  0  0  0
  7 14  1  0  0  0  0
  8  7  1  0  0  0  0
  9  2  1  0  0  0  0
 10  3  1  6  0  0  0
 10 11  1  0  0  0  0
 11  6  1  0  0  0  0
 12  7  2  0  0  0  0
 12 13  1  0  0  0  0
 13  9  2  0  0  0  0
 14  5  1  0  0  0  0
 14  2  2  0  0  0  0
 16 15  1  0  0  0  0
 18 17  1  0  0  0  0
 19 13  1  0  0  0  0
 20 19  1  0  0  0  0
 21 20  1  0  0  0  0
 21 22  1  1  0  0  0
 23 25  1  0  0  0  0
 23 21  1  0  0  0  0
 23 24  1  1  0  0  0
M  END
>  <MODEL>
9

>  <REMARK>
 VINA RESULT:      -6.6      3.146      7.890
  Name = 
  6 active torsions:
  status: ('A' for Active; 'I' for Inactive)
    1  A    between atoms: C_2  and  C_21
    2  A    between atoms: C_5  and  C_22
    3  A    between atoms: C_6  and  C_15
    4  A    between atoms: C_6  and  C_23
    5  A    between atoms: N_10  and  C_11
    6  A    between atoms: C_15  and  C_21
                            x       y       z     vdW  Elec       q    Type
                         _______ _______ _______ _____ _____    ______ ____

>  <TORSDO>
F 6

$$$$
