=
 OpenBabel10272401103D

 27 30  0  0  1  0  0  0  0  0999 V2000
  188.7040  178.4130  139.4080 C   0  0  0  0  0  2  0  0  0  0  0  0
  190.7440  176.9710  139.3810 C   0  0  0  0  0  0  0  0  0  0  0  0
  189.2550  175.6750  137.8920 N   0  0  0  0  0  0  0  0  0  0  0  0
  191.9960  177.2890  139.8080 N   0  0  0  0  0  0  0  0  0  0  0  0
  186.9320  176.1260  135.7440 C   0  0  0  0  0  2  0  0  0  0  0  0
  187.0470  177.6110  135.3870 C   0  0  0  0  0  2  0  0  0  0  0  0
  191.7210  175.5380  137.6720 C   0  0  0  0  0  0  0  0  0  0  0  0
  189.6080  177.4870  140.0910 N   0  0  0  0  0  0  0  0  0  0  0  0
  192.9910  175.8960  138.1520 C   0  0  0  0  0  0  0  0  0  0  0  0
  188.2240  177.9080  138.0500 C   0  0  1  0  0  3  0  0  0  0  0  0
  190.5710  176.0870  138.2960 C   0  0  0  0  0  0  0  0  0  0  0  0
  186.9420  175.8720  137.2540 C   0  0  0  0  0  2  0  0  0  0  0  0
  193.1050  176.7840  139.2190 C   0  0  0  0  0  3  0  0  0  0  0  0
  188.5000  178.0780  135.4950 C   0  0  0  0  0  2  0  0  0  0  0  0
  188.8660  178.6490  136.8740 C   0  0  0  0  0  2  0  0  0  0  0  0
  188.1850  176.4160  137.8680 C   0  0  0  0  0  0  0  0  0  0  0  0
  189.1470  176.7990  144.2670 C   0  0  0  0  0  3  0  0  0  0  0  0
  189.4620  177.2640  141.5090 C   0  0  0  0  0  0  0  0  0  0  0  0
  190.3270  176.3930  142.1930 C   0  0  0  0  0  3  0  0  0  0  0  0
  190.1730  176.1630  143.5630 C   0  0  0  0  0  3  0  0  0  0  0  0
  188.2760  177.6630  143.6000 C   0  0  0  0  0  3  0  0  0  0  0  0
  188.4310  177.8920  142.2300 C   0  0  0  0  0  3  0  0  0  0  0  0
  191.6650  174.6490  136.5820 O   0  0  0  0  0  0  0  0  0  0  0  0
  191.4300  175.0170  135.2310 C   0  0  0  0  0  1  0  0  0  0  0  0
  194.2330  175.3760  137.5070 C   0  0  0  0  0  2  0  0  0  0  0  0
  195.2130  173.6480  138.4650 C   0  0  0  0  0  1  0  0  0  0  0  0
  195.1660  175.0410  138.4890 O   0  0  0  0  0  0  0  0  0  0  0  0
  1  8  1  0  0  0  0
  2  4  1  0  0  0  0
  2  8  1  0  0  0  0
  3 11  1  0  0  0  0
  5 12  1  0  0  0  0
  6 14  1  0  0  0  0
  6  5  1  0  0  0  0
  7  9  2  0  0  0  0
  7 11  1  0  0  0  0
  8 18  1  0  0  0  0
  9 13  1  0  0  0  0
 10 15  1  6  0  0  0
 10  1  1  0  0  0  0
 11  2  2  0  0  0  0
 12 16  1  0  0  0  0
 13  4  2  0  0  0  0
 14 15  1  0  0  0  0
 16  3  2  0  0  0  0
 16 10  1  0  0  0  0
 18 19  2  0  0  0  0
 18 22  1  0  0  0  0
 19 20  1  0  0  0  0
 20 17  2  0  0  0  0
 21 17  1  0  0  0  0
 22 21  2  0  0  0  0
 23  7  1  0  0  0  0
 24 23  1  0  0  0  0
 25  9  1  0  0  0  0
 25 27  1  0  0  0  0
 26 27  1  0  0  0  0
M  END
>  <MODEL>
1

>  <REMARK>
 VINA RESULT:      -6.7      0.000      0.000
  Name = 
  4 active torsions:
  status: ('A' for Active; 'I' for Inactive)
    1  A    between atoms: C_4  and  O_16
    2  A    between atoms: C_4  and  C_17
    3  A    between atoms: O_8  and  C_14
    4  A    between atoms: C_9  and  N_15
                            x       y       z     vdW  Elec       q    Type
                         _______ _______ _______ _____ _____    ______ ____

>  <TORSDO>
F 4

$$$$
=
 OpenBabel10272401103D

 27 30  0  0  1  0  0  0  0  0999 V2000
  190.5230  178.0260  140.8820 C   0  0  0  0  0  2  0  0  0  0  0  0
  188.0480  177.9020  141.1950 C   0  0  0  0  0  0  0  0  0  0  0  0
  188.8090  176.4240  143.0260 N   0  0  0  0  0  0  0  0  0  0  0  0
  187.0970  178.7080  140.6510 N   0  0  0  0  0  0  0  0  0  0  0  0
  191.2380  176.1080  145.0780 C   0  0  0  0  0  2  0  0  0  0  0  0
  191.9310  177.4740  145.0380 C   0  0  0  0  0  2  0  0  0  0  0  0
  186.6520  177.6390  143.1740 C   0  0  0  0  0  0  0  0  0  0  0  0
  189.2110  177.5690  140.4240 N   0  0  0  0  0  0  0  0  0  0  0  0
  185.7010  178.4750  142.5670 C   0  0  0  0  0  0  0  0  0  0  0  0
  190.8110  177.6880  142.3430 C   0  0  1  0  0  3  0  0  0  0  0  0
  187.8530  177.3460  142.4770 C   0  0  0  0  0  0  0  0  0  0  0  0
  190.9500  175.5430  143.6850 C   0  0  0  0  0  2  0  0  0  0  0  0
  185.9490  179.0080  141.3050 C   0  0  0  0  0  3  0  0  0  0  0  0
  190.9160  178.5830  144.7560 C   0  0  0  0  0  2  0  0  0  0  0  0
  190.7560  178.9110  143.2630 C   0  0  0  0  0  2  0  0  0  0  0  0
  190.1030  176.4860  142.9020 C   0  0  0  0  0  0  0  0  0  0  0  0
  188.8460  175.8380  136.5510 C   0  0  0  0  0  3  0  0  0  0  0  0
  189.0820  176.9700  139.1170 C   0  0  0  0  0  0  0  0  0  0  0  0
  190.1050  176.1590  138.5930 C   0  0  0  0  0  3  0  0  0  0  0  0
  189.9870  175.5960  137.3200 C   0  0  0  0  0  3  0  0  0  0  0  0
  187.8250  176.6460  137.0550 C   0  0  0  0  0  3  0  0  0  0  0  0
  187.9430  177.2100  138.3290 C   0  0  0  0  0  3  0  0  0  0  0  0
  186.3560  177.1410  144.4560 O   0  0  0  0  0  0  0  0  0  0  0  0
  186.8440  177.6730  145.6790 C   0  0  0  0  0  1  0  0  0  0  0  0
  184.4390  178.8440  143.2730 C   0  0  0  0  0  2  0  0  0  0  0  0
  182.2400  179.0050  143.1860 C   0  0  0  0  0  1  0  0  0  0  0  0
  183.3500  178.6420  142.4240 O   0  0  0  0  0  0  0  0  0  0  0  0
  2 11  1  0  0  0  0
  4  2  2  0  0  0  0
  4 13  1  0  0  0  0
  6  5  1  0  0  0  0
  7 23  1  0  0  0  0
  8  1  1  0  0  0  0
  8  2  1  0  0  0  0
  9  7  1  0  0  0  0
  9 25  1  0  0  0  0
 10  1  1  6  0  0  0
 10 16  1  0  0  0  0
 10 15  1  0  0  0  0
 11  3  1  0  0  0  0
 11  7  2  0  0  0  0
 12  5  1  0  0  0  0
 13  9  2  0  0  0  0
 14  6  1  0  0  0  0
 15 14  1  0  0  0  0
 16  3  2  0  0  0  0
 16 12  1  0  0  0  0
 17 21  2  0  0  0  0
 17 20  1  0  0  0  0
 18  8  1  0  0  0  0
 19 18  1  0  0  0  0
 20 19  2  0  0  0  0
 21 22  1  0  0  0  0
 22 18  2  0  0  0  0
 23 24  1  0  0  0  0
 27 26  1  0  0  0  0
 27 25  1  0  0  0  0
M  END
>  <MODEL>
2

>  <REMARK>
 VINA RESULT:      -6.7      3.623      7.957
  Name = 
  4 active torsions:
  status: ('A' for Active; 'I' for Inactive)
    1  A    between atoms: C_4  and  O_16
    2  A    between atoms: C_4  and  C_17
    3  A    between atoms: O_8  and  C_14
    4  A    between atoms: C_9  and  N_15
                            x       y       z     vdW  Elec       q    Type
                         _______ _______ _______ _____ _____    ______ ____

>  <TORSDO>
F 4

$$$$
=
 OpenBabel10272401103D

 27 30  0  0  1  0  0  0  0  0999 V2000
  191.9340  177.6290  141.0500 C   0  0  0  0  0  2  0  0  0  0  0  0
  189.4900  177.6240  140.5290 C   0  0  0  0  0  0  0  0  0  0  0  0
  189.5130  176.2740  142.6020 N   0  0  0  0  0  0  0  0  0  0  0  0
  188.8240  178.4180  139.6490 N   0  0  0  0  0  0  0  0  0  0  0  0
  191.1070  176.0370  145.3610 C   0  0  0  0  0  2  0  0  0  0  0  0
  191.8590  177.3680  145.4650 C   0  0  0  0  0  2  0  0  0  0  0  0
  187.5080  177.5770  141.9440 C   0  0  0  0  0  0  0  0  0  0  0  0
  190.8190  177.1850  140.2120 N   0  0  0  0  0  0  0  0  0  0  0  0
  186.8640  178.3960  141.0020 C   0  0  0  0  0  0  0  0  0  0  0  0
  191.7030  177.4020  142.5420 C   0  0  1  0  0  3  0  0  0  0  0  0
  188.8500  177.1830  141.7070 C   0  0  0  0  0  0  0  0  0  0  0  0
  191.2580  175.3710  143.9910 C   0  0  0  0  0  2  0  0  0  0  0  0
  187.5460  178.8130  139.8620 C   0  0  0  0  0  3  0  0  0  0  0  0
  191.0650  178.4870  144.7890 C   0  0  0  0  0  2  0  0  0  0  0  0
  191.4260  178.6970  143.3100 C   0  0  0  0  0  2  0  0  0  0  0  0
  190.7770  176.2770  142.9110 C   0  0  0  0  0  0  0  0  0  0  0  0
  191.6030  175.1570  136.5520 C   0  0  0  0  0  3  0  0  0  0  0  0
  191.0900  176.4860  138.9790 C   0  0  0  0  0  0  0  0  0  0  0  0
  192.3620  176.5450  138.3830 C   0  0  0  0  0  3  0  0  0  0  0  0
  192.6180  175.8840  137.1790 C   0  0  0  0  0  3  0  0  0  0  0  0
  190.3330  175.0930  137.1290 C   0  0  0  0  0  3  0  0  0  0  0  0
  190.0770  175.7560  138.3330 C   0  0  0  0  0  3  0  0  0  0  0  0
  186.7760  177.1980  143.0840 O   0  0  0  0  0  0  0  0  0  0  0  0
  186.9310  177.7500  144.3830 C   0  0  0  0  0  1  0  0  0  0  0  0
  185.4660  178.8690  141.2220 C   0  0  0  0  0  2  0  0  0  0  0  0
  183.8130  179.0750  139.7760 C   0  0  0  0  0  1  0  0  0  0  0  0
  185.0460  179.6220  140.1240 O   0  0  0  0  0  0  0  0  0  0  0  0
  2 11  1  0  0  0  0
  3 16  2  0  0  0  0
  4 13  1  0  0  0  0
  4  2  2  0  0  0  0
  5  6  1  0  0  0  0
  7 23  1  0  0  0  0
  8  2  1  0  0  0  0
  8  1  1  0  0  0  0
  9 25  1  0  0  0  0
  9  7  1  0  0  0  0
 10  1  1  6  0  0  0
 10 16  1  0  0  0  0
 10 15  1  0  0  0  0
 11  7  2  0  0  0  0
 11  3  1  0  0  0  0
 12  5  1  0  0  0  0
 13  9  2  0  0  0  0
 14  6  1  0  0  0  0
 15 14  1  0  0  0  0
 16 12  1  0  0  0  0
 17 21  2  0  0  0  0
 17 20  1  0  0  0  0
 18  8  1  0  0  0  0
 19 18  1  0  0  0  0
 20 19  2  0  0  0  0
 21 22  1  0  0  0  0
 22 18  2  0  0  0  0
 23 24  1  0  0  0  0
 26 27  1  0  0  0  0
 27 25  1  0  0  0  0
M  END
>  <MODEL>
3

>  <REMARK>
 VINA RESULT:      -6.5      3.314      7.437
  Name = 
  4 active torsions:
  status: ('A' for Active; 'I' for Inactive)
    1  A    between atoms: C_4  and  O_16
    2  A    between atoms: C_4  and  C_17
    3  A    between atoms: O_8  and  C_14
    4  A    between atoms: C_9  and  N_15
                            x       y       z     vdW  Elec       q    Type
                         _______ _______ _______ _____ _____    ______ ____

>  <TORSDO>
F 4

$$$$
=
 OpenBabel10272401103D

 27 30  0  0  1  0  0  0  0  0999 V2000
  189.5790  176.4880  140.5800 C   0  0  0  0  0  2  0  0  0  0  0  0
  187.7960  177.6690  141.8730 C   0  0  0  0  0  0  0  0  0  0  0  0
  187.9090  179.0930  139.8540 N   0  0  0  0  0  0  0  0  0  0  0  0
  187.1100  177.2130  142.9550 N   0  0  0  0  0  0  0  0  0  0  0  0
  188.4760  178.8680  136.7170 C   0  0  0  0  0  2  0  0  0  0  0  0
  188.3380  177.3700  136.4270 C   0  0  0  0  0  2  0  0  0  0  0  0
  185.8240  178.9210  141.1860 C   0  0  0  0  0  0  0  0  0  0  0  0
  189.1790  177.3160  141.7180 N   0  0  0  0  0  0  0  0  0  0  0  0
  185.1610  178.4240  142.3190 C   0  0  0  0  0  0  0  0  0  0  0  0
  189.0700  177.0090  139.2380 C   0  0  1  0  0  3  0  0  0  0  0  0
  187.1690  178.5360  140.9530 C   0  0  0  0  0  0  0  0  0  0  0  0
  189.3570  179.1620  137.9330 C   0  0  0  0  0  2  0  0  0  0  0  0
  185.8230  177.5610  143.1890 C   0  0  0  0  0  3  0  0  0  0  0  0
  187.3170  176.7320  137.3710 C   0  0  0  0  0  2  0  0  0  0  0  0
  187.9360  176.1610  138.6580 C   0  0  0  0  0  2  0  0  0  0  0  0
  188.8190  178.4880  139.1470 C   0  0  0  0  0  0  0  0  0  0  0  0
  191.9590  178.1490  144.8330 C   0  0  0  0  0  3  0  0  0  0  0  0
  190.1320  177.5970  142.7650 C   0  0  0  0  0  0  0  0  0  0  0  0
  190.6990  176.5540  143.5200 C   0  0  0  0  0  3  0  0  0  0  0  0
  191.6080  176.8280  144.5450 C   0  0  0  0  0  3  0  0  0  0  0  0
  191.4010  179.1960  144.0960 C   0  0  0  0  0  3  0  0  0  0  0  0
  190.4920  178.9210  143.0700 C   0  0  0  0  0  3  0  0  0  0  0  0
  185.1020  179.7780  140.3340 O   0  0  0  0  0  0  0  0  0  0  0  0
  184.3190  179.3660  139.2230 C   0  0  0  0  0  1  0  0  0  0  0  0
  183.7340  178.7690  142.5900 C   0  0  0  0  0  2  0  0  0  0  0  0
  182.0870  178.7930  144.0570 C   0  0  0  0  0  1  0  0  0  0  0  0
  183.4680  178.6300  143.9520 O   0  0  0  0  0  0  0  0  0  0  0  0
  1  8  1  0  0  0  0
  2  4  1  0  0  0  0
  3 11  1  0  0  0  0
  4 13  2  0  0  0  0
  5 12  1  0  0  0  0
  6  5  1  0  0  0  0
  6 14  1  0  0  0  0
  7  9  2  0  0  0  0
  8  2  1  0  0  0  0
  8 18  1  0  0  0  0
  9 25  1  0  0  0  0
  9 13  1  0  0  0  0
 10 15  1  1  0  0  0
 10  1  1  0  0  0  0
 11  7  1  0  0  0  0
 11  2  2  0  0  0  0
 12 16  1  0  0  0  0
 14 15  1  0  0  0  0
 16 10  1  0  0  0  0
 16  3  2  0  0  0  0
 18 22  2  0  0  0  0
 18 19  1  0  0  0  0
 19 20  2  0  0  0  0
 20 17  1  0  0  0  0
 21 17  2  0  0  0  0
 22 21  1  0  0  0  0
 23  7  1  0  0  0  0
 24 23  1  0  0  0  0
 25 27  1  0  0  0  0
 27 26  1  0  0  0  0
M  END
>  <MODEL>
4

>  <REMARK>
 VINA RESULT:      -6.1      3.887      6.475
  Name = 
  4 active torsions:
  status: ('A' for Active; 'I' for Inactive)
    1  A    between atoms: C_4  and  O_16
    2  A    between atoms: C_4  and  C_17
    3  A    between atoms: O_8  and  C_14
    4  A    between atoms: C_9  and  N_15
                            x       y       z     vdW  Elec       q    Type
                         _______ _______ _______ _____ _____    ______ ____

>  <TORSDO>
F 4

$$$$
=
 OpenBabel10272401103D

 27 30  0  0  1  0  0  0  0  0999 V2000
  189.8590  173.7790  136.8550 C   0  0  0  0  0  2  0  0  0  0  0  0
  189.9860  175.8680  138.2180 C   0  0  0  0  0  0  0  0  0  0  0  0
  188.4770  176.6050  136.4020 N   0  0  0  0  0  0  0  0  0  0  0  0
  190.4590  176.0100  139.4850 N   0  0  0  0  0  0  0  0  0  0  0  0
  186.2040  175.4480  134.4760 C   0  0  0  0  0  2  0  0  0  0  0  0
  185.7960  174.1310  135.1420 C   0  0  0  0  0  2  0  0  0  0  0  0
  188.3820  177.6500  138.6490 C   0  0  0  0  0  0  0  0  0  0  0  0
  190.6190  174.9340  137.3320 N   0  0  0  0  0  0  0  0  0  0  0  0
  188.9080  177.7570  139.9460 C   0  0  0  0  0  0  0  0  0  0  0  0
  188.4990  174.1450  136.2640 C   0  0  1  0  0  3  0  0  0  0  0  0
  188.9280  176.6850  137.7650 C   0  0  0  0  0  0  0  0  0  0  0  0
  187.7210  175.6070  134.3460 C   0  0  0  0  0  2  0  0  0  0  0  0
  189.9440  176.9180  140.3480 C   0  0  0  0  0  3  0  0  0  0  0  0
  185.9550  174.2250  136.6600 C   0  0  0  0  0  2  0  0  0  0  0  0
  187.3280  173.7550  137.1690 C   0  0  0  0  0  2  0  0  0  0  0  0
  188.3730  175.5250  135.6830 C   0  0  0  0  0  0  0  0  0  0  0  0
  194.8050  175.1800  136.5980 C   0  0  0  0  0  3  0  0  0  0  0  0
  192.0360  175.0110  137.0700 C   0  0  0  0  0  0  0  0  0  0  0  0
  192.8850  173.9350  137.3840 C   0  0  0  0  0  3  0  0  0  0  0  0
  194.2600  174.0180  137.1480 C   0  0  0  0  0  3  0  0  0  0  0  0
  193.9760  176.2590  136.2860 C   0  0  0  0  0  3  0  0  0  0  0  0
  192.6010  176.1760  136.5230 C   0  0  0  0  0  3  0  0  0  0  0  0
  187.3250  178.5130  138.3030 O   0  0  0  0  0  0  0  0  0  0  0  0
  185.9780  178.1200  138.0870 C   0  0  0  0  0  1  0  0  0  0  0  0
  188.3440  178.7300  140.9280 C   0  0  0  0  0  2  0  0  0  0  0  0
  186.2920  178.7710  141.7350 C   0  0  0  0  0  1  0  0  0  0  0  0
  187.4920  178.0660  141.8110 O   0  0  0  0  0  0  0  0  0  0  0  0
  1  8  1  0  0  0  0
  2  4  1  0  0  0  0
  3 11  1  0  0  0  0
  4 13  2  0  0  0  0
  5  6  1  0  0  0  0
  6 14  1  0  0  0  0
  7  9  2  0  0  0  0
  8  2  1  0  0  0  0
  9 13  1  0  0  0  0
  9 25  1  0  0  0  0
 10  1  1  1  0  0  0
 10 15  1  0  0  0  0
 11  2  2  0  0  0  0
 11  7  1  0  0  0  0
 12  5  1  0  0  0  0
 12 16  1  0  0  0  0
 14 15  1  0  0  0  0
 16 10  1  0  0  0  0
 16  3  2  0  0  0  0
 17 20  1  0  0  0  0
 18  8  1  0  0  0  0
 18 19  1  0  0  0  0
 20 19  2  0  0  0  0
 21 22  1  0  0  0  0
 21 17  2  0  0  0  0
 22 18  2  0  0  0  0
 23  7  1  0  0  0  0
 24 23  1  0  0  0  0
 25 27  1  0  0  0  0
 26 27  1  0  0  0  0
M  END
>  <MODEL>
5

>  <REMARK>
 VINA RESULT:      -5.8      2.783      5.802
  Name = 
  4 active torsions:
  status: ('A' for Active; 'I' for Inactive)
    1  A    between atoms: C_4  and  O_16
    2  A    between atoms: C_4  and  C_17
    3  A    between atoms: O_8  and  C_14
    4  A    between atoms: C_9  and  N_15
                            x       y       z     vdW  Elec       q    Type
                         _______ _______ _______ _____ _____    ______ ____

>  <TORSDO>
F 4

$$$$
=
 OpenBabel10272401103D

 27 30  0  0  1  0  0  0  0  0999 V2000
  189.3080  178.6540  140.6530 C   0  0  0  0  0  2  0  0  0  0  0  0
  187.0310  178.4090  141.6490 C   0  0  0  0  0  0  0  0  0  0  0  0
  188.2470  176.6270  142.8590 N   0  0  0  0  0  0  0  0  0  0  0  0
  185.9890  179.2800  141.5720 N   0  0  0  0  0  0  0  0  0  0  0  0
  191.1590  175.9850  144.0080 C   0  0  0  0  0  2  0  0  0  0  0  0
  191.8530  177.3510  144.0270 C   0  0  0  0  0  2  0  0  0  0  0  0
  186.2680  177.7360  143.8620 C   0  0  0  0  0  0  0  0  0  0  0  0
  187.9050  178.2590  140.5210 N   0  0  0  0  0  0  0  0  0  0  0  0
  185.2090  178.6480  143.7320 C   0  0  0  0  0  0  0  0  0  0  0  0
  190.0000  178.0490  141.8720 C   0  0  1  0  0  3  0  0  0  0  0  0
  187.2020  177.6120  142.8010 C   0  0  0  0  0  0  0  0  0  0  0  0
  190.4570  175.6910  142.6800 C   0  0  0  0  0  2  0  0  0  0  0  0
  185.0930  179.4190  142.5790 C   0  0  0  0  0  3  0  0  0  0  0  0
  190.8360  178.4670  144.2720 C   0  0  0  0  0  2  0  0  0  0  0  0
  190.2570  179.0710  142.9830 C   0  0  0  0  0  2  0  0  0  0  0  0
  189.4490  176.7440  142.3740 C   0  0  0  0  0  0  0  0  0  0  0  0
  186.3440  177.2170  136.7000 C   0  0  0  0  0  3  0  0  0  0  0  0
  187.3800  177.9190  139.2210 C   0  0  0  0  0  0  0  0  0  0  0  0
  186.0670  178.2700  138.8610 C   0  0  0  0  0  3  0  0  0  0  0  0
  185.5530  177.9240  137.6090 C   0  0  0  0  0  3  0  0  0  0  0  0
  187.6480  176.8570  137.0450 C   0  0  0  0  0  3  0  0  0  0  0  0
  188.1620  177.2030  138.2980 C   0  0  0  0  0  3  0  0  0  0  0  0
  186.3440  176.9940  145.0560 O   0  0  0  0  0  0  0  0  0  0  0  0
  187.3830  177.0890  146.0190 C   0  0  0  0  0  1  0  0  0  0  0  0
  184.2210  178.8430  144.8340 C   0  0  0  0  0  2  0  0  0  0  0  0
  184.5970  178.5870  146.9930 C   0  0  0  0  0  1  0  0  0  0  0  0
  184.8480  179.4470  145.9250 O   0  0  0  0  0  0  0  0  0  0  0  0
  2 11  1  0  0  0  0
  4  2  2  0  0  0  0
  4 13  1  0  0  0  0
  5  6  1  0  0  0  0
  6 14  1  0  0  0  0
  7 23  1  0  0  0  0
  8  1  1  0  0  0  0
  8  2  1  0  0  0  0
  9  7  1  0  0  0  0
  9 25  1  0  0  0  0
 10  1  1  6  0  0  0
 10 16  1  0  0  0  0
 10 15  1  0  0  0  0
 11  3  1  0  0  0  0
 11  7  2  0  0  0  0
 12  5  1  0  0  0  0
 13  9  2  0  0  0  0
 15 14  1  0  0  0  0
 16 12  1  0  0  0  0
 16  3  2  0  0  0  0
 17 21  2  0  0  0  0
 17 20  1  0  0  0  0
 18  8  1  0  0  0  0
 19 18  1  0  0  0  0
 20 19  2  0  0  0  0
 21 22  1  0  0  0  0
 22 18  2  0  0  0  0
 23 24  1  0  0  0  0
 25 27  1  0  0  0  0
 27 26  1  0  0  0  0
M  END
>  <MODEL>
6

>  <REMARK>
 VINA RESULT:      -5.8      4.198      8.166
  Name = 
  4 active torsions:
  status: ('A' for Active; 'I' for Inactive)
    1  A    between atoms: C_4  and  O_16
    2  A    between atoms: C_4  and  C_17
    3  A    between atoms: O_8  and  C_14
    4  A    between atoms: C_9  and  N_15
                            x       y       z     vdW  Elec       q    Type
                         _______ _______ _______ _____ _____    ______ ____

>  <TORSDO>
F 4

$$$$
=
 OpenBabel10272401103D

 27 30  0  0  1  0  0  0  0  0999 V2000
  189.3070  178.3450  138.2240 C   0  0  0  0  0  2  0  0  0  0  0  0
  190.4730  176.1370  138.2000 C   0  0  0  0  0  0  0  0  0  0  0  0
  188.2350  175.4740  137.3830 N   0  0  0  0  0  0  0  0  0  0  0  0
  191.8090  175.8970  138.2990 N   0  0  0  0  0  0  0  0  0  0  0  0
  185.8140  176.6280  135.6450 C   0  0  0  0  0  2  0  0  0  0  0  0
  186.4300  177.8200  134.9060 C   0  0  0  0  0  2  0  0  0  0  0  0
  190.2580  174.1800  136.7660 C   0  0  0  0  0  0  0  0  0  0  0  0
  189.8960  177.2180  138.9460 N   0  0  0  0  0  0  0  0  0  0  0  0
  191.6410  173.9760  136.9020 C   0  0  0  0  0  0  0  0  0  0  0  0
  188.3070  177.9260  137.1490 C   0  0  1  0  0  3  0  0  0  0  0  0
  189.6590  175.2840  137.4250 C   0  0  0  0  0  0  0  0  0  0  0  0
  186.1340  176.6230  137.1420 C   0  0  0  0  0  2  0  0  0  0  0  0
  192.4010  174.8550  137.6680 C   0  0  0  0  0  3  0  0  0  0  0  0
  187.9130  177.5720  134.6280 C   0  0  0  0  0  2  0  0  0  0  0  0
  188.8460  178.1040  135.7270 C   0  0  0  0  0  2  0  0  0  0  0  0
  187.6070  176.6140  137.3630 C   0  0  0  0  0  0  0  0  0  0  0  0
  190.4000  177.4160  143.1690 C   0  0  0  0  0  3  0  0  0  0  0  0
  190.0670  177.2990  140.3770 C   0  0  0  0  0  0  0  0  0  0  0  0
  191.3510  177.3920  140.9430 C   0  0  0  0  0  3  0  0  0  0  0  0
  191.5160  177.4510  142.3300 C   0  0  0  0  0  3  0  0  0  0  0  0
  189.1190  177.3190  142.6210 C   0  0  0  0  0  3  0  0  0  0  0  0
  188.9540  177.2590  141.2340 C   0  0  0  0  0  3  0  0  0  0  0  0
  189.5430  173.2690  135.9670 O   0  0  0  0  0  0  0  0  0  0  0  0
  189.0480  173.5300  134.6620 C   0  0  0  0  0  1  0  0  0  0  0  0
  192.3260  172.8520  136.1980 C   0  0  0  0  0  2  0  0  0  0  0  0
  194.1240  172.9050  134.9210 C   0  0  0  0  0  1  0  0  0  0  0  0
  193.7080  173.0420  136.2440 O   0  0  0  0  0  0  0  0  0  0  0  0
  1  8  1  0  0  0  0
  2  4  1  0  0  0  0
  2  8  1  0  0  0  0
  3 11  1  0  0  0  0
  5 12  1  0  0  0  0
  6  5  1  0  0  0  0
  7  9  2  0  0  0  0
  7 11  1  0  0  0  0
  8 18  1  0  0  0  0
  9 13  1  0  0  0  0
 10 15  1  6  0  0  0
 10 16  1  0  0  0  0
 10  1  1  0  0  0  0
 11  2  2  0  0  0  0
 12 16  1  0  0  0  0
 13  4  2  0  0  0  0
 14  6  1  0  0  0  0
 14 15  1  0  0  0  0
 16  3  2  0  0  0  0
 18 19  2  0  0  0  0
 18 22  1  0  0  0  0
 19 20  1  0  0  0  0
 20 17  2  0  0  0  0
 21 17  1  0  0  0  0
 22 21  2  0  0  0  0
 23  7  1  0  0  0  0
 24 23  1  0  0  0  0
 25 27  1  0  0  0  0
 25  9  1  0  0  0  0
 26 27  1  0  0  0  0
M  END
>  <MODEL>
7

>  <REMARK>
 VINA RESULT:      -5.6      1.675      2.005
  Name = 
  4 active torsions:
  status: ('A' for Active; 'I' for Inactive)
    1  A    between atoms: C_4  and  O_16
    2  A    between atoms: C_4  and  C_17
    3  A    between atoms: O_8  and  C_14
    4  A    between atoms: C_9  and  N_15
                            x       y       z     vdW  Elec       q    Type
                         _______ _______ _______ _____ _____    ______ ____

>  <TORSDO>
F 4

$$$$
=
 OpenBabel10272401103D

 27 30  0  0  1  0  0  0  0  0999 V2000
  190.5440  174.7150  134.9820 C   0  0  0  0  0  2  0  0  0  0  0  0
  189.2520  175.6220  136.9180 C   0  0  0  0  0  0  0  0  0  0  0  0
  191.2450  174.7330  138.0820 N   0  0  0  0  0  0  0  0  0  0  0  0
  188.1850  176.4650  136.8870 N   0  0  0  0  0  0  0  0  0  0  0  0
  194.3780  174.3160  137.6160 C   0  0  0  0  0  2  0  0  0  0  0  0
  194.6950  175.2220  136.4220 C   0  0  0  0  0  2  0  0  0  0  0  0
  189.9390  176.6150  139.0330 C   0  0  0  0  0  0  0  0  0  0  0  0
  189.3970  174.6350  135.8870 N   0  0  0  0  0  0  0  0  0  0  0  0
  188.8220  177.4620  138.9540 C   0  0  0  0  0  0  0  0  0  0  0  0
  191.8830  174.8450  135.7050 C   0  0  1  0  0  3  0  0  0  0  0  0
  190.1630  175.6760  137.9940 C   0  0  0  0  0  0  0  0  0  0  0  0
  193.1480  173.4340  137.3870 C   0  0  0  0  0  2  0  0  0  0  0  0
  187.9600  177.3760  137.8640 C   0  0  0  0  0  3  0  0  0  0  0  0
  193.7730  176.4430  136.4160 C   0  0  0  0  0  2  0  0  0  0  0  0
  192.4900  176.2460  135.5940 C   0  0  0  0  0  2  0  0  0  0  0  0
  191.9510  174.2710  137.0920 C   0  0  0  0  0  0  0  0  0  0  0  0
  186.2410  171.8880  135.0990 C   0  0  0  0  0  3  0  0  0  0  0  0
  188.3350  173.6980  135.6100 C   0  0  0  0  0  0  0  0  0  0  0  0
  187.3900  173.9590  134.6010 C   0  0  0  0  0  3  0  0  0  0  0  0
  186.3510  173.0590  134.3460 C   0  0  0  0  0  3  0  0  0  0  0  0
  187.1680  171.6170  136.1070 C   0  0  0  0  0  3  0  0  0  0  0  0
  188.2070  172.5170  136.3620 C   0  0  0  0  0  3  0  0  0  0  0  0
  190.7850  176.7570  140.1490 O   0  0  0  0  0  0  0  0  0  0  0  0
  192.0390  177.4230  140.1530 C   0  0  0  0  0  1  0  0  0  0  0  0
  188.5620  178.4930  140.0020 C   0  0  0  0  0  2  0  0  0  0  0  0
  187.0990  178.4760  141.6530 C   0  0  0  0  0  1  0  0  0  0  0  0
  187.1930  178.5600  140.2650 O   0  0  0  0  0  0  0  0  0  0  0  0
  1  8  1  0  0  0  0
  2 11  1  0  0  0  0
  4  2  2  0  0  0  0
  4 13  1  0  0  0  0
  6  5  1  0  0  0  0
  7 23  1  0  0  0  0
  8  2  1  0  0  0  0
  9  7  1  0  0  0  0
  9 25  1  0  0  0  0
 10  1  1  1  0  0  0
 10 16  1  0  0  0  0
 11  3  1  0  0  0  0
 11  7  2  0  0  0  0
 12  5  1  0  0  0  0
 13  9  2  0  0  0  0
 14  6  1  0  0  0  0
 15 10  1  0  0  0  0
 15 14  1  0  0  0  0
 16 12  1  0  0  0  0
 16  3  2  0  0  0  0
 17 21  1  0  0  0  0
 18  8  1  0  0  0  0
 18 22  1  0  0  0  0
 19 18  2  0  0  0  0
 20 19  1  0  0  0  0
 20 17  2  0  0  0  0
 21 22  2  0  0  0  0
 23 24  1  0  0  0  0
 25 27  1  0  0  0  0
 27 26  1  0  0  0  0
M  END
>  <MODEL>
8

>  <REMARK>
 VINA RESULT:      -5.3      2.613      6.687
  Name = 
  4 active torsions:
  status: ('A' for Active; 'I' for Inactive)
    1  A    between atoms: C_4  and  O_16
    2  A    between atoms: C_4  and  C_17
    3  A    between atoms: O_8  and  C_14
    4  A    between atoms: C_9  and  N_15
                            x       y       z     vdW  Elec       q    Type
                         _______ _______ _______ _____ _____    ______ ____

>  <TORSDO>
F 4

$$$$
=
 OpenBabel10272401103D

 27 30  0  0  1  0  0  0  0  0999 V2000
  181.4520  176.9310  140.5160 C   0  0  0  0  0  2  0  0  0  0  0  0
  181.4560  179.2850  139.6810 C   0  0  0  0  0  0  0  0  0  0  0  0
  182.4650  178.1190  137.7480 N   0  0  0  0  0  0  0  0  0  0  0  0
  180.7870  180.3530  140.1940 N   0  0  0  0  0  0  0  0  0  0  0  0
  182.3210  175.3150  136.2230 C   0  0  0  0  0  2  0  0  0  0  0  0
  181.0170  174.6900  136.7280 C   0  0  0  0  0  2  0  0  0  0  0  0
  181.2140  180.2400  137.4540 C   0  0  0  0  0  0  0  0  0  0  0  0
  181.9840  178.2930  140.5730 N   0  0  0  0  0  0  0  0  0  0  0  0
  180.5310  181.3220  138.0330 C   0  0  0  0  0  0  0  0  0  0  0  0
  181.4350  176.3410  139.1080 C   0  0  1  0  0  3  0  0  0  0  0  0
  181.6850  179.1970  138.2920 C   0  0  0  0  0  0  0  0  0  0  0  0
  183.1980  175.8610  137.3520 C   0  0  0  0  0  2  0  0  0  0  0  0
  180.3210  181.3530  139.4090 C   0  0  0  0  0  3  0  0  0  0  0  0
  179.9910  175.7780  137.0510 C   0  0  0  0  0  2  0  0  0  0  0  0
  180.0280  176.2480  138.5140 C   0  0  0  0  0  2  0  0  0  0  0  0
  182.4570  176.8800  138.1460 C   0  0  0  0  0  0  0  0  0  0  0  0
  184.6110  179.4310  143.7240 C   0  0  0  0  0  3  0  0  0  0  0  0
  182.8750  178.6650  141.6450 C   0  0  0  0  0  0  0  0  0  0  0  0
  182.3840  178.8960  142.9420 C   0  0  0  0  0  3  0  0  0  0  0  0
  183.2460  179.2750  143.9750 C   0  0  0  0  0  3  0  0  0  0  0  0
  185.1130  179.2090  142.4400 C   0  0  0  0  0  3  0  0  0  0  0  0
  184.2510  178.8310  141.4070 C   0  0  0  0  0  3  0  0  0  0  0  0
  181.3850  180.2530  136.0570 O   0  0  0  0  0  0  0  0  0  0  0  0
  180.6120  179.5100  135.1260 C   0  0  0  0  0  1  0  0  0  0  0  0
  179.9830  182.4260  137.1920 C   0  0  0  0  0  2  0  0  0  0  0  0
  180.7840  183.9770  135.8450 C   0  0  0  0  0  1  0  0  0  0  0  0
  180.9000  183.4770  137.1400 O   0  0  0  0  0  0  0  0  0  0  0  0
  1  8  1  0  0  0  0
  2  4  1  0  0  0  0
  2  8  1  0  0  0  0
  3 16  2  0  0  0  0
  3 11  1  0  0  0  0
  5  6  1  0  0  0  0
  5 12  1  0  0  0  0
  6 14  1  0  0  0  0
  7  9  2  0  0  0  0
  7 11  1  0  0  0  0
  8 18  1  0  0  0  0
  9 13  1  0  0  0  0
 10 15  1  6  0  0  0
 10  1  1  0  0  0  0
 11  2  2  0  0  0  0
 12 16  1  0  0  0  0
 13  4  2  0  0  0  0
 14 15  1  0  0  0  0
 16 10  1  0  0  0  0
 17 20  1  0  0  0  0
 18 19  1  0  0  0  0
 19 20  2  0  0  0  0
 21 17  2  0  0  0  0
 22 18  2  0  0  0  0
 22 21  1  0  0  0  0
 23  7  1  0  0  0  0
 24 23  1  0  0  0  0
 25  9  1  0  0  0  0
 26 27  1  0  0  0  0
 27 25  1  0  0  0  0
M  END
>  <MODEL>
9

>  <REMARK>
 VINA RESULT:      -5.2      7.713      9.955
  Name = 
  4 active torsions:
  status: ('A' for Active; 'I' for Inactive)
    1  A    between atoms: C_4  and  O_16
    2  A    between atoms: C_4  and  C_17
    3  A    between atoms: O_8  and  C_14
    4  A    between atoms: C_9  and  N_15
                            x       y       z     vdW  Elec       q    Type
                         _______ _______ _______ _____ _____    ______ ____

>  <TORSDO>
F 4

$$$$
