=
 OpenBabel10272401103D

 27 31  0  0  1  0  0  0  0  0999 V2000
  184.9730  178.6510  139.4130 C   0  0  2  0  0  3  0  0  0  0  0  0
  185.4830  178.4830  140.8040 C   0  0  0  0  0  0  0  0  0  0  0  0
  187.3420  178.2330  139.4620 N   0  0  0  0  0  0  0  0  0  0  0  0
  187.5970  177.8700  144.2930 N   0  0  0  0  0  0  0  0  0  0  0  0
  189.9660  177.4170  144.9440 C   0  0  0  0  0  1  0  0  0  0  0  0
  184.7600  178.5250  142.0090 C   0  0  0  0  0  3  0  0  0  0  0  0
  189.1410  177.7320  142.2750 S   0  0  0  0  0  0  0  0  0  0  0  0
  187.3750  176.8630  137.0290 N   0  0  0  0  0  0  0  0  0  0  0  0
  189.4710  178.6250  138.3420 C   0  0  0  0  0  1  0  0  0  0  0  0
  187.1770  175.6660  136.2220 C   0  0  0  0  0  1  0  0  0  0  0  0
  187.5140  178.0300  141.9810 C   0  0  0  0  0  0  0  0  0  0  0  0
  188.8920  177.6670  143.9490 C   0  0  0  0  0  0  0  0  0  0  0  0
  186.8310  178.0730  143.1910 C   0  0  0  0  0  0  0  0  0  0  0  0
  186.2370  178.4720  138.5310 C   0  0  1  0  0  3  0  0  0  0  0  0
  186.8320  178.2330  140.7830 C   0  0  0  0  0  0  0  0  0  0  0  0
  188.2650  176.4450  138.1150 C   0  0  0  0  0  2  0  0  0  0  0  0
  185.4480  178.3190  143.2240 C   0  0  0  0  0  3  0  0  0  0  0  0
  185.1170  177.6800  136.4700 C   0  0  0  0  0  1  0  0  0  0  0  0
  186.0720  177.2720  137.5870 C   0  0  1  0  0  3  0  0  0  0  0  0
  188.5880  177.6100  139.0450 C   0  0  2  0  0  3  0  0  0  0  0  0
  184.3730  179.9720  139.2170 N   0  0  0  0  0  2  0  0  0  0  0  0
  180.4800  180.7030  137.7900 C   0  0  0  0  0  3  0  0  0  0  0  0
  183.0500  180.2260  138.7310 C   0  0  0  0  0  0  0  0  0  0  0  0
  182.2720  179.1570  138.2790 C   0  0  0  0  0  3  0  0  0  0  0  0
  180.9810  179.4000  137.8050 C   0  0  0  0  0  3  0  0  0  0  0  0
  181.2850  181.7470  138.2500 C   0  0  0  0  0  3  0  0  0  0  0  0
  182.5400  181.4890  138.7070 N   0  0  0  0  0  0  0  0  0  0  0  0
  1 21  1  1  0  0  0
  1  2  1  0  0  0  0
  2  6  1  0  0  0  0
  3 15  1  0  0  0  0
  6 17  2  0  0  0  0
  7 12  1  0  0  0  0
  8 19  1  0  0  0  0
  8 16  1  0  0  0  0
 10  8  1  0  0  0  0
 11  7  1  0  0  0  0
 11 13  2  0  0  0  0
 12  4  2  0  0  0  0
 12  5  1  0  0  0  0
 13 17  1  0  0  0  0
 13  4  1  0  0  0  0
 14  1  1  0  0  0  0
 14  3  1  1  0  0  0
 15  2  2  0  0  0  0
 15 11  1  0  0  0  0
 16 20  1  0  0  0  0
 19 18  1  6  0  0  0
 19 14  1  0  0  0  0
 20  9  1  6  0  0  0
 20  3  1  0  0  0  0
 22 25  1  0  0  0  0
 22 26  2  0  0  0  0
 23 21  1  0  0  0  0
 24 23  1  0  0  0  0
 25 24  2  0  0  0  0
 26 27  1  0  0  0  0
 27 23  2  0  0  0  0
M  END
>  <MODEL>
1

>  <REMARK>
 VINA RESULT:      -7.1      0.000      0.000
  Name = 
  2 active torsions:
  status: ('A' for Active; 'I' for Inactive)
    1  A    between atoms: C_1  and  N_15
    2  A    between atoms: C_9  and  N_15
                            x       y       z     vdW  Elec       q    Type
                         _______ _______ _______ _____ _____    ______ ____

>  <TORSDO>
F 2

$$$$
=
 OpenBabel10272401103D

 27 31  0  0  1  0  0  0  0  0999 V2000
  190.5290  176.9820  139.8540 C   0  0  2  0  0  3  0  0  0  0  0  0
  189.1630  177.3300  139.3640 C   0  0  0  0  0  0  0  0  0  0  0  0
  189.9830  175.8370  137.8090 N   0  0  0  0  0  0  0  0  0  0  0  0
  185.5780  177.8240  137.3860 N   0  0  0  0  0  0  0  0  0  0  0  0
  184.4900  176.9390  135.3190 C   0  0  0  0  0  1  0  0  0  0  0  0
  188.2330  178.2160  139.9330 C   0  0  0  0  0  3  0  0  0  0  0  0
  187.0700  176.1820  136.1390 S   0  0  0  0  0  0  0  0  0  0  0  0
  192.6120  175.8040  136.8670 N   0  0  0  0  0  0  0  0  0  0  0  0
  190.3410  173.8250  136.4810 C   0  0  0  0  0  1  0  0  0  0  0  0
  193.7550  176.4300  136.2160 C   0  0  0  0  0  1  0  0  0  0  0  0
  187.6800  176.8590  137.5490 C   0  0  0  0  0  0  0  0  0  0  0  0
  185.6140  177.0360  136.2840 C   0  0  0  0  0  0  0  0  0  0  0  0
  186.7340  177.7220  138.0910 C   0  0  0  0  0  0  0  0  0  0  0  0
  191.0600  175.9850  138.7910 C   0  0  1  0  0  3  0  0  0  0  0  0
  188.9020  176.6670  138.1920 C   0  0  0  0  0  0  0  0  0  0  0  0
  191.5010  175.9710  135.9270 C   0  0  0  0  0  2  0  0  0  0  0  0
  186.9950  178.4130  139.2850 C   0  0  0  0  0  3  0  0  0  0  0  0
  193.4810  176.4060  139.0940 C   0  0  0  0  0  1  0  0  0  0  0  0
  192.3220  176.5390  138.1120 C   0  0  1  0  0  3  0  0  0  0  0  0
  190.2210  175.3380  136.4630 C   0  0  2  0  0  3  0  0  0  0  0  0
  190.4820  176.3660  141.1810 N   0  0  0  0  0  2  0  0  0  0  0  0
  190.1070  178.4130  144.8410 C   0  0  0  0  0  3  0  0  0  0  0  0
  190.3570  177.0660  142.4240 C   0  0  0  0  0  0  0  0  0  0  0  0
  189.3090  176.7420  143.2890 C   0  0  0  0  0  3  0  0  0  0  0  0
  189.1850  177.4220  144.5020 C   0  0  0  0  0  3  0  0  0  0  0  0
  191.1430  178.7100  143.9540 C   0  0  0  0  0  3  0  0  0  0  0  0
  191.2460  178.0380  142.7760 N   0  0  0  0  0  0  0  0  0  0  0  0
  1 21  1  1  0  0  0
  2  1  1  0  0  0  0
  2  6  1  0  0  0  0
  3 15  1  0  0  0  0
  4 13  1  0  0  0  0
  5 12  1  0  0  0  0
  7 12  1  0  0  0  0
  7 11  1  0  0  0  0
  8 19  1  0  0  0  0
 10  8  1  0  0  0  0
 11 13  2  0  0  0  0
 11 15  1  0  0  0  0
 12  4  2  0  0  0  0
 13 17  1  0  0  0  0
 14  3  1  6  0  0  0
 14  1  1  0  0  0  0
 15  2  2  0  0  0  0
 16 20  1  0  0  0  0
 16  8  1  0  0  0  0
 17  6  2  0  0  0  0
 19 14  1  0  0  0  0
 19 18  1  1  0  0  0
 20  9  1  1  0  0  0
 20  3  1  0  0  0  0
 21 23  1  0  0  0  0
 23 27  2  0  0  0  0
 23 24  1  0  0  0  0
 24 25  2  0  0  0  0
 25 22  1  0  0  0  0
 26 22  2  0  0  0  0
 27 26  1  0  0  0  0
M  END
>  <MODEL>
2

>  <REMARK>
 VINA RESULT:      -6.9      3.387      7.319
  Name = 
  2 active torsions:
  status: ('A' for Active; 'I' for Inactive)
    1  A    between atoms: C_1  and  N_15
    2  A    between atoms: C_9  and  N_15
                            x       y       z     vdW  Elec       q    Type
                         _______ _______ _______ _____ _____    ______ ____

>  <TORSDO>
F 2

$$$$
=
 OpenBabel10272401103D

 27 31  0  0  1  0  0  0  0  0999 V2000
  186.7370  178.2420  141.7060 C   0  0  2  0  0  3  0  0  0  0  0  0
  186.5050  178.0780  143.1710 C   0  0  0  0  0  0  0  0  0  0  0  0
  188.7800  178.3920  142.9670 N   0  0  0  0  0  0  0  0  0  0  0  0
  186.6620  177.6770  147.2730 N   0  0  0  0  0  0  0  0  0  0  0  0
  188.4130  177.7410  149.0530 C   0  0  0  0  0  1  0  0  0  0  0  0
  185.2910  177.8420  143.8400 C   0  0  0  0  0  3  0  0  0  0  0  0
  188.9880  178.0850  146.3230 S   0  0  0  0  0  0  0  0  0  0  0  0
  190.3650  177.2850  140.9510 N   0  0  0  0  0  0  0  0  0  0  0  0
  191.0100  179.3700  143.0630 C   0  0  0  0  0  1  0  0  0  0  0  0
  190.9010  176.1510  140.2110 C   0  0  0  0  0  1  0  0  0  0  0  0
  187.7120  178.0150  145.2330 C   0  0  0  0  0  0  0  0  0  0  0  0
  187.9590  177.8160  147.6410 C   0  0  0  0  0  0  0  0  0  0  0  0
  186.5280  177.7900  145.9260 C   0  0  0  0  0  0  0  0  0  0  0  0
  188.2710  178.4440  141.5950 C   0  0  1  0  0  3  0  0  0  0  0  0
  187.6960  178.1560  143.8470 C   0  0  0  0  0  0  0  0  0  0  0  0
  190.6630  176.9960  142.3570 C   0  0  0  0  0  2  0  0  0  0  0  0
  185.3040  177.6990  145.2440 C   0  0  0  0  0  3  0  0  0  0  0  0
  188.5700  177.5930  139.2890 C   0  0  0  0  0  1  0  0  0  0  0  0
  188.9040  177.3260  140.7530 C   0  0  1  0  0  3  0  0  0  0  0  0
  190.1770  178.1180  143.2680 C   0  0  2  0  0  3  0  0  0  0  0  0
  186.0110  179.3960  141.1740 N   0  0  0  0  0  2  0  0  0  0  0  0
  182.2770  179.2620  139.2310 C   0  0  0  0  0  3  0  0  0  0  0  0
  184.7430  179.3520  140.5090 C   0  0  0  0  0  0  0  0  0  0  0  0
  183.7170  178.5700  141.0450 C   0  0  0  0  0  3  0  0  0  0  0  0
  182.4790  178.5260  140.4000 C   0  0  0  0  0  3  0  0  0  0  0  0
  183.3250  180.0340  138.7240 C   0  0  0  0  0  3  0  0  0  0  0  0
  184.5240  180.0620  139.3660 N   0  0  0  0  0  0  0  0  0  0  0  0
  1 21  1  1  0  0  0
  1  2  1  0  0  0  0
  2  6  2  0  0  0  0
  2 15  1  0  0  0  0
  3 20  1  0  0  0  0
  3 15  1  0  0  0  0
  4 12  2  0  0  0  0
  6 17  1  0  0  0  0
  7 12  1  0  0  0  0
  8 16  1  0  0  0  0
 10  8  1  0  0  0  0
 11 13  1  0  0  0  0
 11  7  1  0  0  0  0
 12  5  1  0  0  0  0
 13  4  1  0  0  0  0
 14  1  1  0  0  0  0
 14  3  1  1  0  0  0
 15 11  2  0  0  0  0
 16 20  1  0  0  0  0
 17 13  2  0  0  0  0
 19 18  1  6  0  0  0
 19  8  1  0  0  0  0
 19 14  1  0  0  0  0
 20  9  1  6  0  0  0
 22 25  1  0  0  0  0
 23 24  1  0  0  0  0
 23 21  1  0  0  0  0
 25 24  2  0  0  0  0
 26 22  2  0  0  0  0
 26 27  1  0  0  0  0
 27 23  2  0  0  0  0
M  END
>  <MODEL>
3

>  <REMARK>
 VINA RESULT:      -6.6      2.268      3.638
  Name = 
  2 active torsions:
  status: ('A' for Active; 'I' for Inactive)
    1  A    between atoms: C_1  and  N_15
    2  A    between atoms: C_9  and  N_15
                            x       y       z     vdW  Elec       q    Type
                         _______ _______ _______ _____ _____    ______ ____

>  <TORSDO>
F 2

$$$$
=
 OpenBabel10272401103D

 27 31  0  0  1  0  0  0  0  0999 V2000
  187.6690  177.7440  143.3330 C   0  0  2  0  0  3  0  0  0  0  0  0
  188.1090  177.8430  141.9110 C   0  0  0  0  0  0  0  0  0  0  0  0
  189.6630  176.4650  142.9120 N   0  0  0  0  0  0  0  0  0  0  0  0
  189.9460  177.6710  138.2220 N   0  0  0  0  0  0  0  0  0  0  0  0
  191.9460  176.5570  137.2220 C   0  0  0  0  0  1  0  0  0  0  0  0
  187.5210  178.5770  140.8660 C   0  0  0  0  0  3  0  0  0  0  0  0
  191.2180  176.2670  139.9220 S   0  0  0  0  0  0  0  0  0  0  0  0
  190.7140  176.8470  145.4720 N   0  0  0  0  0  0  0  0  0  0  0  0
  190.9610  174.5040  143.5550 C   0  0  0  0  0  1  0  0  0  0  0  0
  191.4250  177.6370  146.4670 C   0  0  0  0  0  1  0  0  0  0  0  0
  189.8490  177.0770  140.4620 C   0  0  0  0  0  0  0  0  0  0  0  0
  191.0310  176.8680  138.3500 C   0  0  0  0  0  0  0  0  0  0  0  0
  189.2880  177.7840  139.4040 C   0  0  0  0  0  0  0  0  0  0  0  0
  188.7310  176.8200  143.9850 C   0  0  1  0  0  3  0  0  0  0  0  0
  189.2540  177.1120  141.7210 C   0  0  0  0  0  0  0  0  0  0  0  0
  191.6100  176.7980  144.3140 C   0  0  0  0  0  2  0  0  0  0  0  0
  188.1210  178.5440  139.5890 C   0  0  0  0  0  3  0  0  0  0  0  0
  188.5380  177.6510  146.3090 C   0  0  0  0  0  1  0  0  0  0  0  0
  189.4740  177.5580  145.1080 C   0  0  1  0  0  3  0  0  0  0  0  0
  191.0070  175.9750  143.1810 C   0  0  2  0  0  3  0  0  0  0  0  0
  186.3280  177.1670  143.4400 N   0  0  0  0  0  2  0  0  0  0  0  0
  182.7410  179.3460  143.7800 C   0  0  0  0  0  3  0  0  0  0  0  0
  185.1060  177.9060  143.5510 C   0  0  0  0  0  0  0  0  0  0  0  0
  184.7390  178.4370  144.7900 C   0  0  0  0  0  3  0  0  0  0  0  0
  183.5490  179.1590  144.9020 C   0  0  0  0  0  3  0  0  0  0  0  0
  183.1390  178.8020  142.5570 C   0  0  0  0  0  3  0  0  0  0  0  0
  184.3010  178.1010  142.4680 N   0  0  0  0  0  0  0  0  0  0  0  0
  1 21  1  6  0  0  0
  1 14  1  0  0  0  0
  2  1  1  0  0  0  0
  3 20  1  0  0  0  0
  4 12  2  0  0  0  0
  4 13  1  0  0  0  0
  5 12  1  0  0  0  0
  6  2  2  0  0  0  0
  7 11  1  0  0  0  0
  8 10  1  0  0  0  0
 11 15  2  0  0  0  0
 12  7  1  0  0  0  0
 13 17  2  0  0  0  0
 13 11  1  0  0  0  0
 14  3  1  6  0  0  0
 14 19  1  0  0  0  0
 15  2  1  0  0  0  0
 15  3  1  0  0  0  0
 16  8  1  0  0  0  0
 17  6  1  0  0  0  0
 19  8  1  0  0  0  0
 19 18  1  1  0  0  0
 20  9  1  1  0  0  0
 20 16  1  0  0  0  0
 21 23  1  0  0  0  0
 22 25  1  0  0  0  0
 23 24  1  0  0  0  0
 24 25  2  0  0  0  0
 26 22  2  0  0  0  0
 27 26  1  0  0  0  0
 27 23  2  0  0  0  0
M  END
>  <MODEL>
4

>  <REMARK>
 VINA RESULT:      -6.6      3.229      6.357
  Name = 
  2 active torsions:
  status: ('A' for Active; 'I' for Inactive)
    1  A    between atoms: C_1  and  N_15
    2  A    between atoms: C_9  and  N_15
                            x       y       z     vdW  Elec       q    Type
                         _______ _______ _______ _____ _____    ______ ____

>  <TORSDO>
F 2

$$$$
=
 OpenBabel10272401103D

 27 31  0  0  1  0  0  0  0  0999 V2000
  184.9440  178.5270  139.1550 C   0  0  2  0  0  3  0  0  0  0  0  0
  185.9040  178.4320  140.2930 C   0  0  0  0  0  0  0  0  0  0  0  0
  187.1760  178.0180  138.4150 N   0  0  0  0  0  0  0  0  0  0  0  0
  189.0870  177.9660  142.8740 N   0  0  0  0  0  0  0  0  0  0  0  0
  191.5270  177.4610  142.6990 C   0  0  0  0  0  1  0  0  0  0  0  0
  185.6440  178.5830  141.6660 C   0  0  0  0  0  3  0  0  0  0  0  0
  189.8320  177.6310  140.4630 S   0  0  0  0  0  0  0  0  0  0  0  0
  186.3420  176.4880  136.2320 N   0  0  0  0  0  0  0  0  0  0  0  0
  188.7900  178.2470  136.6030 C   0  0  0  0  0  1  0  0  0  0  0  0
  185.8570  175.2500  135.6370 C   0  0  0  0  0  1  0  0  0  0  0  0
  188.2090  177.9750  140.7270 C   0  0  0  0  0  0  0  0  0  0  0  0
  190.1780  177.6880  142.1200 C   0  0  0  0  0  0  0  0  0  0  0  0
  187.9890  178.1270  142.0910 C   0  0  0  0  0  0  0  0  0  0  0  0
  185.8200  178.2390  137.9070 C   0  0  1  0  0  3  0  0  0  0  0  0
  187.1560  178.1260  139.8270 C   0  0  0  0  0  0  0  0  0  0  0  0
  187.5470  176.1070  136.9740 C   0  0  0  0  0  2  0  0  0  0  0  0
  186.7080  178.4300  142.5810 C   0  0  0  0  0  3  0  0  0  0  0  0
  184.0420  177.3580  136.4260 C   0  0  0  0  0  1  0  0  0  0  0  0
  185.3200  176.9870  137.1720 C   0  0  1  0  0  3  0  0  0  0  0  0
  188.1910  177.3170  137.6420 C   0  0  2  0  0  3  0  0  0  0  0  0
  184.3340  179.8550  139.0770 N   0  0  0  0  0  2  0  0  0  0  0  0
  180.2200  180.7020  139.3830 C   0  0  0  0  0  3  0  0  0  0  0  0
  182.9340  180.1400  139.1860 C   0  0  0  0  0  0  0  0  0  0  0  0
  182.4140  181.2650  138.5400 C   0  0  0  0  0  3  0  0  0  0  0  0
  181.0500  181.5450  138.6430 C   0  0  0  0  0  3  0  0  0  0  0  0
  180.7740  179.5860  140.0150 C   0  0  0  0  0  3  0  0  0  0  0  0
  182.1060  179.3310  139.9040 N   0  0  0  0  0  0  0  0  0  0  0  0
  1 21  1  6  0  0  0
  1  2  1  0  0  0  0
  2  6  1  0  0  0  0
  3 15  1  0  0  0  0
  6 17  2  0  0  0  0
  7 11  1  0  0  0  0
  7 12  1  0  0  0  0
  8 16  1  0  0  0  0
  8 19  1  0  0  0  0
 10  8  1  0  0  0  0
 11 13  2  0  0  0  0
 12  5  1  0  0  0  0
 12  4  2  0  0  0  0
 13 17  1  0  0  0  0
 13  4  1  0  0  0  0
 14  3  1  1  0  0  0
 14  1  1  0  0  0  0
 15  2  2  0  0  0  0
 15 11  1  0  0  0  0
 16 20  1  0  0  0  0
 19 18  1  6  0  0  0
 19 14  1  0  0  0  0
 20  9  1  6  0  0  0
 20  3  1  0  0  0  0
 21 23  1  0  0  0  0
 22 26  2  0  0  0  0
 23 27  2  0  0  0  0
 24 25  2  0  0  0  0
 24 23  1  0  0  0  0
 25 22  1  0  0  0  0
 27 26  1  0  0  0  0
M  END
>  <MODEL>
5

>  <REMARK>
 VINA RESULT:      -6.5      1.423      1.637
  Name = 
  2 active torsions:
  status: ('A' for Active; 'I' for Inactive)
    1  A    between atoms: C_1  and  N_15
    2  A    between atoms: C_9  and  N_15
                            x       y       z     vdW  Elec       q    Type
                         _______ _______ _______ _____ _____    ______ ____

>  <TORSDO>
F 2

$$$$
=
 OpenBabel10272401103D

 27 31  0  0  1  0  0  0  0  0999 V2000
  189.0020  177.4200  141.4360 C   0  0  2  0  0  3  0  0  0  0  0  0
  188.0210  177.7250  140.3540 C   0  0  0  0  0  0  0  0  0  0  0  0
  189.7260  176.5880  139.2980 N   0  0  0  0  0  0  0  0  0  0  0  0
  185.8530  178.2290  136.8810 N   0  0  0  0  0  0  0  0  0  0  0  0
  186.0840  177.6090  134.4720 C   0  0  0  0  0  1  0  0  0  0  0  0
  186.8030  178.4210  140.4520 C   0  0  0  0  0  3  0  0  0  0  0  0
  188.0050  176.9520  136.4160 S   0  0  0  0  0  0  0  0  0  0  0  0
  192.4450  176.9390  139.8340 N   0  0  0  0  0  0  0  0  0  0  0  0
  191.0070  174.8630  138.1470 C   0  0  0  0  0  1  0  0  0  0  0  0
  193.6440  177.7610  139.9250 C   0  0  0  0  0  1  0  0  0  0  0  0
  187.7230  177.4350  138.0000 C   0  0  0  0  0  0  0  0  0  0  0  0
  186.5530  177.6410  135.8810 C   0  0  0  0  0  0  0  0  0  0  0  0
  186.5100  178.1110  138.0640 C   0  0  0  0  0  0  0  0  0  0  0  0
  190.1390  176.6630  140.7010 C   0  0  1  0  0  3  0  0  0  0  0  0
  188.4810  177.2460  139.1540 C   0  0  0  0  0  0  0  0  0  0  0  0
  191.9320  177.1640  138.4800 C   0  0  0  0  0  2  0  0  0  0  0  0
  186.0330  178.6140  139.2860 C   0  0  0  0  0  3  0  0  0  0  0  0
  191.9930  177.2370  142.2400 C   0  0  0  0  0  1  0  0  0  0  0  0
  191.4650  177.4290  140.8220 C   0  0  1  0  0  3  0  0  0  0  0  0
  190.6740  176.3420  138.2210 C   0  0  2  0  0  3  0  0  0  0  0  0
  188.4040  176.5900  142.4830 N   0  0  0  0  0  2  0  0  0  0  0  0
  187.8470  177.7160  146.5020 C   0  0  0  0  0  3  0  0  0  0  0  0
  188.2200  176.9740  143.8510 C   0  0  0  0  0  0  0  0  0  0  0  0
  186.9460  177.3440  144.2910 C   0  0  0  0  0  3  0  0  0  0  0  0
  186.7630  177.7170  145.6230 C   0  0  0  0  0  3  0  0  0  0  0  0
  189.1060  177.3410  146.0280 C   0  0  0  0  0  3  0  0  0  0  0  0
  189.2650  176.9810  144.7260 N   0  0  0  0  0  0  0  0  0  0  0  0
  1 21  1  1  0  0  0
  2  6  1  0  0  0  0
  2  1  1  0  0  0  0
  4 13  1  0  0  0  0
  5 12  1  0  0  0  0
  7 11  1  0  0  0  0
  8 10  1  0  0  0  0
  8 19  1  0  0  0  0
 11 13  2  0  0  0  0
 11 15  1  0  0  0  0
 12  7  1  0  0  0  0
 12  4  2  0  0  0  0
 13 17  1  0  0  0  0
 14  3  1  6  0  0  0
 14 19  1  0  0  0  0
 14  1  1  0  0  0  0
 15  3  1  0  0  0  0
 15  2  2  0  0  0  0
 16  8  1  0  0  0  0
 17  6  2  0  0  0  0
 19 18  1  1  0  0  0
 20  9  1  1  0  0  0
 20 16  1  0  0  0  0
 20  3  1  0  0  0  0
 21 23  1  0  0  0  0
 23 24  1  0  0  0  0
 23 27  2  0  0  0  0
 24 25  2  0  0  0  0
 25 22  1  0  0  0  0
 26 22  2  0  0  0  0
 27 26  1  0  0  0  0
M  END
>  <MODEL>
6

>  <REMARK>
 VINA RESULT:      -6.5      3.041      6.980
  Name = 
  2 active torsions:
  status: ('A' for Active; 'I' for Inactive)
    1  A    between atoms: C_1  and  N_15
    2  A    between atoms: C_9  and  N_15
                            x       y       z     vdW  Elec       q    Type
                         _______ _______ _______ _____ _____    ______ ____

>  <TORSDO>
F 2

$$$$
=
 OpenBabel10272401103D

 27 31  0  0  1  0  0  0  0  0999 V2000
  187.4330  177.7390  141.3520 C   0  0  2  0  0  3  0  0  0  0  0  0
  187.7520  177.4790  142.7850 C   0  0  0  0  0  0  0  0  0  0  0  0
  189.8040  177.6400  141.7450 N   0  0  0  0  0  0  0  0  0  0  0  0
  189.3970  176.7460  146.4960 N   0  0  0  0  0  0  0  0  0  0  0  0
  191.6860  176.5410  147.4770 C   0  0  0  0  0  1  0  0  0  0  0  0
  186.8620  177.2800  143.8550 C   0  0  0  0  0  3  0  0  0  0  0  0
  191.2250  177.0550  144.7520 S   0  0  0  0  0  0  0  0  0  0  0  0
  190.4010  176.5830  139.2300 N   0  0  0  0  0  0  0  0  0  0  0  0
  191.9910  178.4430  141.0290 C   0  0  0  0  0  1  0  0  0  0  0  0
  190.5070  175.4750  138.2900 C   0  0  0  0  0  1  0  0  0  0  0  0
  189.6330  177.1650  144.2270 C   0  0  0  0  0  0  0  0  0  0  0  0
  190.7440  176.7600  146.3490 C   0  0  0  0  0  0  0  0  0  0  0  0
  188.7800  176.9740  145.3080 C   0  0  0  0  0  0  0  0  0  0  0  0
  188.8250  177.8370  140.6740 C   0  0  1  0  0  3  0  0  0  0  0  0
  189.1110  177.4160  142.9590 C   0  0  0  0  0  0  0  0  0  0  0  0
  191.1750  176.1630  140.4010 C   0  0  0  0  0  2  0  0  0  0  0  0
  187.3860  177.0260  145.1400 C   0  0  0  0  0  3  0  0  0  0  0  0
  188.1530  177.1510  138.3920 C   0  0  0  0  0  1  0  0  0  0  0  0
  188.9840  176.7460  139.6050 C   0  0  1  0  0  3  0  0  0  0  0  0
  191.1780  177.2430  141.4790 C   0  0  2  0  0  3  0  0  0  0  0  0
  186.6760  178.9820  141.1880 N   0  0  0  0  0  2  0  0  0  0  0  0
  182.6150  179.2640  140.1120 C   0  0  0  0  0  3  0  0  0  0  0  0
  185.2960  179.0780  140.8170 C   0  0  0  0  0  0  0  0  0  0  0  0
  184.3140  178.6950  141.7340 C   0  0  0  0  0  3  0  0  0  0  0  0
  182.9680  178.7890  141.3760 C   0  0  0  0  0  3  0  0  0  0  0  0
  183.6230  179.6380  139.2210 C   0  0  0  0  0  3  0  0  0  0  0  0
  184.9290  179.5390  139.5880 N   0  0  0  0  0  0  0  0  0  0  0  0
  1 21  1  1  0  0  0
  1  2  1  0  0  0  0
  2 15  2  0  0  0  0
  2  6  1  0  0  0  0
  3 15  1  0  0  0  0
  6 17  2  0  0  0  0
  7 12  1  0  0  0  0
  8 19  1  0  0  0  0
  8 16  1  0  0  0  0
 10  8  1  0  0  0  0
 11  7  1  0  0  0  0
 11 13  2  0  0  0  0
 12  4  2  0  0  0  0
 12  5  1  0  0  0  0
 13  4  1  0  0  0  0
 14  1  1  0  0  0  0
 14  3  1  1  0  0  0
 15 11  1  0  0  0  0
 16 20  1  0  0  0  0
 17 13  1  0  0  0  0
 19 18  1  6  0  0  0
 19 14  1  0  0  0  0
 20  9  1  6  0  0  0
 20  3  1  0  0  0  0
 22 25  1  0  0  0  0
 23 21  1  0  0  0  0
 23 24  1  0  0  0  0
 25 24  2  0  0  0  0
 26 27  1  0  0  0  0
 26 22  2  0  0  0  0
 27 23  2  0  0  0  0
M  END
>  <MODEL>
7

>  <REMARK>
 VINA RESULT:      -6.4      2.205      3.423
  Name = 
  2 active torsions:
  status: ('A' for Active; 'I' for Inactive)
    1  A    between atoms: C_1  and  N_15
    2  A    between atoms: C_9  and  N_15
                            x       y       z     vdW  Elec       q    Type
                         _______ _______ _______ _____ _____    ______ ____

>  <TORSDO>
F 2

$$$$
=
 OpenBabel10272401103D

 27 31  0  0  1  0  0  0  0  0999 V2000
  189.8220  177.1510  139.7170 C   0  0  2  0  0  3  0  0  0  0  0  0
  188.5220  177.8270  139.9960 C   0  0  0  0  0  0  0  0  0  0  0  0
  188.1460  176.5950  138.0840 N   0  0  0  0  0  0  0  0  0  0  0  0
  184.6900  179.3510  140.0830 N   0  0  0  0  0  0  0  0  0  0  0  0
  182.6050  179.1420  138.7230 C   0  0  0  0  0  1  0  0  0  0  0  0
  188.2070  178.7130  141.0410 C   0  0  0  0  0  3  0  0  0  0  0  0
  184.9890  177.7930  138.0930 S   0  0  0  0  0  0  0  0  0  0  0  0
  189.9670  176.3200  135.9840 N   0  0  0  0  0  0  0  0  0  0  0  0
  187.3430  174.8940  136.5340 C   0  0  0  0  0  1  0  0  0  0  0  0
  190.8140  176.8690  134.9340 C   0  0  0  0  0  1  0  0  0  0  0  0
  186.3180  178.0280  139.0940 C   0  0  0  0  0  0  0  0  0  0  0  0
  184.0260  178.8300  139.0230 C   0  0  0  0  0  0  0  0  0  0  0  0
  185.9700  178.8990  140.1190 C   0  0  0  0  0  0  0  0  0  0  0  0
  189.5460  176.3370  138.4270 C   0  0  1  0  0  3  0  0  0  0  0  0
  187.6030  177.4930  139.0340 C   0  0  0  0  0  0  0  0  0  0  0  0
  188.6360  176.8780  135.7290 C   0  0  0  0  0  2  0  0  0  0  0  0
  186.9060  179.2560  141.1050 C   0  0  0  0  0  3  0  0  0  0  0  0
  191.8640  176.2600  137.5580 C   0  0  0  0  0  1  0  0  0  0  0  0
  190.4640  176.8020  137.2860 C   0  0  1  0  0  3  0  0  0  0  0  0
  187.6190  176.3710  136.7460 C   0  0  2  0  0  3  0  0  0  0  0  0
  190.2190  176.2760  140.8210 N   0  0  0  0  0  2  0  0  0  0  0  0
  190.8000  177.4560  144.8210 C   0  0  0  0  0  3  0  0  0  0  0  0
  190.4200  176.6820  142.1800 C   0  0  0  0  0  0  0  0  0  0  0  0
  189.5980  176.1530  143.1790 C   0  0  0  0  0  3  0  0  0  0  0  0
  189.7910  176.5460  144.5050 C   0  0  0  0  0  3  0  0  0  0  0  0
  191.6030  177.9640  143.7980 C   0  0  0  0  0  3  0  0  0  0  0  0
  191.3990  177.5700  142.5120 N   0  0  0  0  0  0  0  0  0  0  0  0
  1  2  1  0  0  0  0
  1 21  1  1  0  0  0
  2  6  1  0  0  0  0
  3 15  1  0  0  0  0
  4 13  1  0  0  0  0
  5 12  1  0  0  0  0
  6 17  2  0  0  0  0
  7 12  1  0  0  0  0
  7 11  1  0  0  0  0
  8 19  1  0  0  0  0
 10  8  1  0  0  0  0
 11 13  2  0  0  0  0
 12  4  2  0  0  0  0
 13 17  1  0  0  0  0
 14  3  1  6  0  0  0
 14  1  1  0  0  0  0
 15 11  1  0  0  0  0
 15  2  2  0  0  0  0
 16  8  1  0  0  0  0
 16 20  1  0  0  0  0
 19 18  1  1  0  0  0
 19 14  1  0  0  0  0
 20  9  1  6  0  0  0
 20  3  1  0  0  0  0
 21 23  1  0  0  0  0
 23 27  2  0  0  0  0
 23 24  1  0  0  0  0
 24 25  2  0  0  0  0
 25 22  1  0  0  0  0
 26 22  2  0  0  0  0
 27 26  1  0  0  0  0
M  END
>  <MODEL>
8

>  <REMARK>
 VINA RESULT:      -6.1      2.311      6.698
  Name = 
  2 active torsions:
  status: ('A' for Active; 'I' for Inactive)
    1  A    between atoms: C_1  and  N_15
    2  A    between atoms: C_9  and  N_15
                            x       y       z     vdW  Elec       q    Type
                         _______ _______ _______ _____ _____    ______ ____

>  <TORSDO>
F 2

$$$$
=
 OpenBabel10272401103D

 27 31  0  0  1  0  0  0  0  0999 V2000
  184.0940  178.7430  139.2290 C   0  0  2  0  0  3  0  0  0  0  0  0
  184.7810  178.6920  140.5520 C   0  0  0  0  0  0  0  0  0  0  0  0
  182.5310  178.6360  141.0540 N   0  0  0  0  0  0  0  0  0  0  0  0
  185.9350  178.5740  144.5100 N   0  0  0  0  0  0  0  0  0  0  0  0
  184.8170  178.4570  146.7410 C   0  0  0  0  0  1  0  0  0  0  0  0
  186.1610  178.7170  140.8200 C   0  0  0  0  0  3  0  0  0  0  0  0
  183.3980  178.5270  144.3160 S   0  0  0  0  0  0  0  0  0  0  0  0
  180.5720  180.1450  139.7560 N   0  0  0  0  0  0  0  0  0  0  0  0
  180.3250  177.8800  141.7640 C   0  0  0  0  0  1  0  0  0  0  0  0
  179.9950  181.4130  139.3310 C   0  0  0  0  0  1  0  0  0  0  0  0
  184.2780  178.6090  142.8880 C   0  0  0  0  0  0  0  0  0  0  0  0
  184.8060  178.5190  145.2570 C   0  0  0  0  0  0  0  0  0  0  0  0
  185.6360  178.6230  143.1870 C   0  0  0  0  0  0  0  0  0  0  0  0
  182.5870  178.7100  139.5930 C   0  0  1  0  0  3  0  0  0  0  0  0
  183.8530  178.6470  141.5610 C   0  0  0  0  0  0  0  0  0  0  0  0
  180.7580  180.2790  141.2030 C   0  0  0  0  0  2  0  0  0  0  0  0
  186.5950  178.6790  142.1620 C   0  0  0  0  0  3  0  0  0  0  0  0
  181.7170  179.8770  137.5890 C   0  0  0  0  0  1  0  0  0  0  0  0
  181.8840  179.9850  139.1010 C   0  0  1  0  0  3  0  0  0  0  0  0
  181.3420  179.0060  141.8070 C   0  0  2  0  0  3  0  0  0  0  0  0
  184.4610  177.6000  138.3910 N   0  0  0  0  0  2  0  0  0  0  0  0
  187.1260  177.6890  135.1310 C   0  0  0  0  0  3  0  0  0  0  0  0
  185.3720  177.6320  137.2850 C   0  0  0  0  0  0  0  0  0  0  0  0
  185.0610  176.9200  136.1240 C   0  0  0  0  0  3  0  0  0  0  0  0
  185.9450  176.9500  135.0440 C   0  0  0  0  0  3  0  0  0  0  0  0
  187.4040  178.3900  136.3070 C   0  0  0  0  0  3  0  0  0  0  0  0
  186.5300  178.3470  137.3490 N   0  0  0  0  0  0  0  0  0  0  0  0
  1 21  1  6  0  0  0
  1 14  1  0  0  0  0
  1  2  1  0  0  0  0
  2  6  2  0  0  0  0
  2 15  1  0  0  0  0
  3 15  1  0  0  0  0
  3 20  1  0  0  0  0
  4 12  2  0  0  0  0
  6 17  1  0  0  0  0
  7 12  1  0  0  0  0
  8 16  1  0  0  0  0
 10  8  1  0  0  0  0
 11 13  1  0  0  0  0
 11  7  1  0  0  0  0
 12  5  1  0  0  0  0
 13  4  1  0  0  0  0
 14  3  1  1  0  0  0
 15 11  2  0  0  0  0
 16 20  1  0  0  0  0
 17 13  2  0  0  0  0
 19 18  1  6  0  0  0
 19 14  1  0  0  0  0
 19  8  1  0  0  0  0
 20  9  1  6  0  0  0
 22 26  2  0  0  0  0
 23 27  2  0  0  0  0
 23 21  1  0  0  0  0
 24 23  1  0  0  0  0
 25 22  1  0  0  0  0
 25 24  2  0  0  0  0
 26 27  1  0  0  0  0
M  END
>  <MODEL>
9

>  <REMARK>
 VINA RESULT:      -6.1      2.366      5.513
  Name = 
  2 active torsions:
  status: ('A' for Active; 'I' for Inactive)
    1  A    between atoms: C_1  and  N_15
    2  A    between atoms: C_9  and  N_15
                            x       y       z     vdW  Elec       q    Type
                         _______ _______ _______ _____ _____    ______ ____

>  <TORSDO>
F 2

$$$$
