=
 OpenBabel10272414003D

 30 33  0  0  1  0  0  0  0  0999 V2000
  188.6420  178.1610  140.1370 C   0  0  0  0  0  0  0  0  0  0  0  0
  187.5810  178.3540  142.4350 C   0  0  0  0  0  2  0  0  0  0  0  0
  184.1020  179.5940  140.6750 O   0  0  0  0  0  0  0  0  0  0  0  0
  186.3340  176.8860  138.3460 C   0  0  0  0  0  2  0  0  0  0  0  0
  188.7670  178.8120  138.8660 N   0  0  0  0  0  0  0  0  0  0  0  0
  188.9690  175.8930  136.9680 C   0  0  0  0  0  0  0  0  0  0  0  0
  189.5130  176.8480  137.8360 O   0  0  0  0  0  0  0  0  0  0  0  0
  189.2770  178.9650  136.5190 C   0  0  0  0  0  1  0  0  0  0  0  0
  183.6530  177.7350  137.7310 C   0  0  2  0  0  3  0  0  0  0  0  0
  183.8900  179.7050  139.3000 C   0  0  0  0  0  0  0  0  0  0  0  0
  189.1910  178.2080  137.7990 C   0  0  0  0  0  0  0  0  0  0  0  0
  186.6320  176.9790  136.8580 C   0  0  1  0  0  3  0  0  0  0  0  0
  186.3180  177.9660  143.1870 C   0  0  0  0  0  2  0  0  0  0  0  0
  184.1040  177.3440  136.3930 N   0  0  0  0  0  2  0  0  0  0  0  0
  189.6630  174.8890  136.6660 O   0  0  0  0  0  0  0  0  0  0  0  0
  189.6070  177.4880  140.5920 O   0  0  0  0  0  0  0  0  0  0  0  0
  184.9180  178.5590  141.2130 C   0  0  2  0  0  3  0  0  0  0  0  0
  185.1810  178.8360  142.6920 C   0  0  1  0  0  3  0  0  0  0  0  0
  187.6220  175.9730  136.4780 N   0  0  0  0  0  2  0  0  0  0  0  0
  187.4030  178.2900  140.9380 C   0  0  0  0  0  0  0  0  0  0  0  0
  185.9620  178.2730  138.8720 C   0  0  1  0  0  3  0  0  0  0  0  0
  183.1010  180.5810  138.8600 O   0  0  0  0  0  0  0  0  0  0  0  0
  184.5960  178.7880  138.3450 C   0  0  1  0  0  3  0  0  0  0  0  0
  185.5160  176.3830  134.8350 O   0  0  0  0  0  0  0  0  0  0  0  0
  184.0310  178.5650  143.4320 O   0  0  0  0  0  1  0  0  0  0  0  0
  186.1690  178.3910  140.3710 C   0  0  0  0  0  0  0  0  0  0  0  0
  185.3950  176.8490  135.9990 C   0  0  0  0  0  0  0  0  0  0  0  0
  183.3530  176.5180  138.6270 C   0  0  0  0  0  3  0  0  0  0  0  0
  183.0360  175.2810  137.8030 C   0  0  0  0  0  1  0  0  0  0  0  0
  182.1620  176.7940  139.5260 C   0  0  0  0  0  1  0  0  0  0  0  0
  1 16  2  0  0  0  0
  1 20  1  0  0  0  0
  2 13  1  0  0  0  0
  3 17  1  0  0  0  0
  5  1  1  0  0  0  0
  6  7  1  0  0  0  0
  8 11  1  0  0  0  0
  9 23  1  0  0  0  0
  9 28  1  1  0  0  0
 10  3  1  0  0  0  0
 11  7  1  0  0  0  0
 11  5  2  0  0  0  0
 12  4  1  1  0  0  0
 14  9  1  0  0  0  0
 15  6  2  0  0  0  0
 17 26  1  6  0  0  0
 17 18  1  0  0  0  0
 18 13  1  0  0  0  0
 18 25  1  1  0  0  0
 19 12  1  0  0  0  0
 19  6  1  0  0  0  0
 20  2  1  0  0  0  0
 21  4  1  1  0  0  0
 21 26  1  0  0  0  0
 22 10  2  0  0  0  0
 23 21  1  0  0  0  0
 23 10  1  1  0  0  0
 24 27  2  0  0  0  0
 26 20  2  0  0  0  0
 27 14  1  0  0  0  0
 27 12  1  0  0  0  0
 28 30  1  0  0  0  0
 29 28  1  0  0  0  0
M  END
>  <MODEL>
1

>  <REMARK>
 VINA RESULT:      -6.4      0.000      0.000
  Name = 
  1 active torsions:
  status: ('A' for Active; 'I' for Inactive)
    1  A    between atoms: C_7  and  C_10
                            x       y       z     vdW  Elec       q    Type
                         _______ _______ _______ _____ _____    ______ ____

>  <TORSDO>
F 1

$$$$
=
 OpenBabel10272414003D

 30 33  0  0  1  0  0  0  0  0999 V2000
  188.1710  177.7130  137.9670 C   0  0  0  0  0  0  0  0  0  0  0  0
  188.2770  178.2910  140.4360 C   0  0  0  0  0  2  0  0  0  0  0  0
  184.5160  179.8800  140.1790 O   0  0  0  0  0  0  0  0  0  0  0  0
  185.1940  176.6440  137.5710 C   0  0  0  0  0  2  0  0  0  0  0  0
  187.7740  178.2100  136.6820 N   0  0  0  0  0  0  0  0  0  0  0  0
  186.8220  175.1240  135.3650 C   0  0  0  0  0  0  0  0  0  0  0  0
  187.7860  176.0620  135.7520 O   0  0  0  0  0  0  0  0  0  0  0  0
  187.1900  178.0520  134.3530 C   0  0  0  0  0  1  0  0  0  0  0  0
  182.6180  177.8370  138.0480 C   0  0  2  0  0  3  0  0  0  0  0  0
  183.7210  179.8890  139.0320 C   0  0  0  0  0  0  0  0  0  0  0  0
  187.6140  177.4460  135.6460 C   0  0  0  0  0  0  0  0  0  0  0  0
  184.8000  176.5440  136.1060 C   0  0  1  0  0  3  0  0  0  0  0  0
  187.4550  178.1790  141.7100 C   0  0  0  0  0  2  0  0  0  0  0  0
  182.3810  177.2520  136.7260 N   0  0  0  0  0  2  0  0  0  0  0  0
  187.2060  174.0000  134.9530 O   0  0  0  0  0  0  0  0  0  0  0  0
  189.1670  176.9450  138.0600 O   0  0  0  0  0  0  0  0  0  0  0  0
  185.3830  178.7880  140.4680 C   0  0  2  0  0  3  0  0  0  0  0  0
  186.3070  179.1630  141.6250 C   0  0  1  0  0  3  0  0  0  0  0  0
  185.4130  175.3650  135.4980 N   0  0  0  0  0  2  0  0  0  0  0  0
  187.4410  178.1110  139.1930 C   0  0  0  0  0  0  0  0  0  0  0  0
  185.2330  178.1160  137.9820 C   0  0  1  0  0  3  0  0  0  0  0  0
  182.9080  180.8300  138.8450 O   0  0  0  0  0  0  0  0  0  0  0  0
  183.8320  178.7840  138.0230 C   0  0  1  0  0  3  0  0  0  0  0  0
  182.8440  175.9360  134.8820 O   0  0  0  0  0  0  0  0  0  0  0  0
  185.5900  179.1480  142.8210 O   0  0  0  0  0  1  0  0  0  0  0  0
  186.1010  178.3460  139.2060 C   0  0  0  0  0  0  0  0  0  0  0  0
  183.3030  176.5260  135.8970 C   0  0  0  0  0  0  0  0  0  0  0  0
  182.6350  176.7740  139.1650 C   0  0  0  0  0  3  0  0  0  0  0  0
  181.8740  175.5230  138.7580 C   0  0  0  0  0  1  0  0  0  0  0  0
  181.9970  177.3140  140.4300 C   0  0  0  0  0  1  0  0  0  0  0  0
  1 16  2  0  0  0  0
  1 20  1  0  0  0  0
  2 13  1  0  0  0  0
  3 17  1  0  0  0  0
  5  1  1  0  0  0  0
  6 19  1  0  0  0  0
  6  7  1  0  0  0  0
  8 11  1  0  0  0  0
  9 28  1  1  0  0  0
 10  3  1  0  0  0  0
 11  7  1  0  0  0  0
 11  5  2  0  0  0  0
 12  4  1  1  0  0  0
 14  9  1  0  0  0  0
 15  6  2  0  0  0  0
 17 26  1  6  0  0  0
 17 18  1  0  0  0  0
 18 13  1  0  0  0  0
 18 25  1  1  0  0  0
 19 12  1  0  0  0  0
 20 26  2  0  0  0  0
 20  2  1  0  0  0  0
 21  4  1  1  0  0  0
 21 23  1  0  0  0  0
 21 26  1  0  0  0  0
 22 10  2  0  0  0  0
 23  9  1  0  0  0  0
 23 10  1  1  0  0  0
 24 27  2  0  0  0  0
 27 12  1  0  0  0  0
 27 14  1  0  0  0  0
 28 30  1  0  0  0  0
 29 28  1  0  0  0  0
M  END
>  <MODEL>
2

>  <REMARK>
 VINA RESULT:      -6.1      1.598      1.963
  Name = 
  1 active torsions:
  status: ('A' for Active; 'I' for Inactive)
    1  A    between atoms: C_7  and  C_10
                            x       y       z     vdW  Elec       q    Type
                         _______ _______ _______ _____ _____    ______ ____

>  <TORSDO>
F 1

$$$$
=
 OpenBabel10272414003D

 30 33  0  0  1  0  0  0  0  0999 V2000
  193.1490  176.5390  138.7840 C   0  0  0  0  0  0  0  0  0  0  0  0
  191.5310  177.6650  140.3840 C   0  0  0  0  0  2  0  0  0  0  0  0
  188.6770  177.6230  137.4530 O   0  0  0  0  0  0  0  0  0  0  0  0
  191.3500  174.3720  137.2930 C   0  0  0  0  0  2  0  0  0  0  0  0
  193.6230  176.5420  137.4310 N   0  0  0  0  0  0  0  0  0  0  0  0
  194.2190  173.1110  137.2360 C   0  0  0  0  0  0  0  0  0  0  0  0
  194.5480  174.4050  137.6600 O   0  0  0  0  0  0  0  0  0  0  0  0
  194.7350  175.6470  135.4940 C   0  0  0  0  0  1  0  0  0  0  0  0
  188.9530  174.5870  135.7130 C   0  0  2  0  0  3  0  0  0  0  0  0
  188.8350  177.0690  136.1820 C   0  0  0  0  0  0  0  0  0  0  0  0
  194.2920  175.5590  136.9130 C   0  0  0  0  0  0  0  0  0  0  0  0
  192.0290  173.7990  136.0590 C   0  0  1  0  0  3  0  0  0  0  0  0
  190.1030  177.5480  140.8930 C   0  0  0  0  0  2  0  0  0  0  0  0
  189.7250  173.6690  134.8720 N   0  0  0  0  0  2  0  0  0  0  0  0
  194.9350  172.1510  137.6200 O   0  0  0  0  0  0  0  0  0  0  0  0
  193.9390  176.2440  139.7230 O   0  0  0  0  0  0  0  0  0  0  0  0
  189.2880  177.0330  138.5950 C   0  0  2  0  0  3  0  0  0  0  0  0
  189.1640  177.9820  139.7860 C   0  0  1  0  0  3  0  0  0  0  0  0
  193.0510  172.8300  136.4510 N   0  0  0  0  0  2  0  0  0  0  0  0
  191.7490  176.9040  139.0990 C   0  0  0  0  0  0  0  0  0  0  0  0
  190.8990  175.8030  136.9990 C   0  0  1  0  0  3  0  0  0  0  0  0
  188.2180  177.5660  135.2040 O   0  0  0  0  0  0  0  0  0  0  0  0
  189.7360  175.8880  135.9740 C   0  0  1  0  0  3  0  0  0  0  0  0
  191.4630  172.2380  134.3460 O   0  0  0  0  0  0  0  0  0  0  0  0
  187.8530  177.9740  140.2570 O   0  0  0  0  0  1  0  0  0  0  0  0
  190.7100  176.6160  138.2670 C   0  0  0  0  0  0  0  0  0  0  0  0
  191.0560  173.1730  135.0860 C   0  0  0  0  0  0  0  0  0  0  0  0
  188.3880  173.8950  136.9700 C   0  0  0  0  0  3  0  0  0  0  0  0
  188.2430  172.3960  136.7650 C   0  0  0  0  0  1  0  0  0  0  0  0
  187.0200  174.4500  137.3190 C   0  0  0  0  0  1  0  0  0  0  0  0
  1 20  1  0  0  0  0
  1 16  2  0  0  0  0
  2 13  1  0  0  0  0
  5  1  1  0  0  0  0
  6 15  2  0  0  0  0
  6  7  1  0  0  0  0
  8 11  1  0  0  0  0
  9 23  1  0  0  0  0
  9 28  1  1  0  0  0
 10  3  1  0  0  0  0
 11  5  2  0  0  0  0
 11  7  1  0  0  0  0
 12 19  1  0  0  0  0
 12  4  1  1  0  0  0
 14 27  1  0  0  0  0
 14  9  1  0  0  0  0
 17  3  1  6  0  0  0
 17 18  1  0  0  0  0
 18 25  1  1  0  0  0
 18 13  1  0  0  0  0
 19  6  1  0  0  0  0
 20  2  1  0  0  0  0
 21  4  1  1  0  0  0
 21 26  1  0  0  0  0
 22 10  2  0  0  0  0
 23 10  1  1  0  0  0
 23 21  1  0  0  0  0
 24 27  2  0  0  0  0
 26 17  1  0  0  0  0
 26 20  2  0  0  0  0
 27 12  1  0  0  0  0
 28 30  1  0  0  0  0
 29 28  1  0  0  0  0
M  END
>  <MODEL>
3

>  <REMARK>
 VINA RESULT:      -5.8      3.934      5.863
  Name = 
  1 active torsions:
  status: ('A' for Active; 'I' for Inactive)
    1  A    between atoms: C_7  and  C_10
                            x       y       z     vdW  Elec       q    Type
                         _______ _______ _______ _____ _____    ______ ____

>  <TORSDO>
F 1

$$$$
=
 OpenBabel10272414003D

 30 33  0  0  1  0  0  0  0  0999 V2000
  187.0510  178.2950  138.3440 C   0  0  0  0  0  0  0  0  0  0  0  0
  184.9400  178.8810  139.6260 C   0  0  0  0  0  2  0  0  0  0  0  0
  182.7100  177.2420  136.6140 O   0  0  0  0  0  0  0  0  0  0  0  0
  186.4470  175.3870  137.1870 C   0  0  0  0  0  2  0  0  0  0  0  0
  187.6450  178.2930  137.0380 N   0  0  0  0  0  0  0  0  0  0  0  0
  189.5660  175.4200  137.5070 C   0  0  0  0  0  0  0  0  0  0  0  0
  189.3030  176.7810  137.7020 O   0  0  0  0  0  0  0  0  0  0  0  0
  189.2430  177.6560  135.3570 C   0  0  0  0  0  1  0  0  0  0  0  0
  184.3690  174.3650  135.4780 C   0  0  2  0  0  3  0  0  0  0  0  0
  183.2250  176.6200  135.4760 C   0  0  0  0  0  0  0  0  0  0  0  0
  188.7040  177.6050  136.7440 C   0  0  0  0  0  0  0  0  0  0  0  0
  187.4410  174.9670  136.1160 C   0  0  1  0  0  3  0  0  0  0  0  0
  183.6250  178.2670  140.0760 C   0  0  0  0  0  2  0  0  0  0  0  0
  185.5360  173.7310  134.8590 N   0  0  0  0  0  2  0  0  0  0  0  0
  190.5510  174.9050  138.0960 O   0  0  0  0  0  0  0  0  0  0  0  0
  187.7740  178.4920  139.3590 O   0  0  0  0  0  0  0  0  0  0  0  0
  183.3620  177.1300  137.8740 C   0  0  2  0  0  3  0  0  0  0  0  0
  182.7320  178.1090  138.8630 C   0  0  1  0  0  3  0  0  0  0  0  0
  188.7070  174.5720  136.7290 N   0  0  0  0  0  2  0  0  0  0  0  0
  185.5940  178.0960  138.5150 C   0  0  0  0  0  0  0  0  0  0  0  0
  185.5070  176.4470  136.6140 C   0  0  1  0  0  3  0  0  0  0  0  0
  182.5850  176.6710  134.3940 O   0  0  0  0  0  0  0  0  0  0  0  0
  184.5370  175.8950  135.5340 C   0  0  1  0  0  3  0  0  0  0  0  0
  187.7480  173.0770  134.6920 O   0  0  0  0  0  0  0  0  0  0  0  0
  181.4830  177.6340  139.2610 O   0  0  0  0  0  1  0  0  0  0  0  0
  184.8610  177.2880  137.7000 C   0  0  0  0  0  0  0  0  0  0  0  0
  186.9190  173.8620  135.2270 C   0  0  0  0  0  0  0  0  0  0  0  0
  183.9770  173.6960  136.8100 C   0  0  0  0  0  3  0  0  0  0  0  0
  184.4860  172.2660  136.8890 C   0  0  0  0  0  1  0  0  0  0  0  0
  182.4690  173.6610  136.9700 C   0  0  0  0  0  1  0  0  0  0  0  0
  1 20  1  0  0  0  0
  1 16  2  0  0  0  0
  2 13  1  0  0  0  0
  5  1  1  0  0  0  0
  6  7  1  0  0  0  0
  6 15  2  0  0  0  0
  8 11  1  0  0  0  0
  9 23  1  0  0  0  0
  9 28  1  1  0  0  0
 10  3  1  0  0  0  0
 11  5  2  0  0  0  0
 11  7  1  0  0  0  0
 12 19  1  0  0  0  0
 12  4  1  1  0  0  0
 14 27  1  0  0  0  0
 14  9  1  0  0  0  0
 17  3  1  6  0  0  0
 17 18  1  0  0  0  0
 18 25  1  1  0  0  0
 18 13  1  0  0  0  0
 19  6  1  0  0  0  0
 20  2  1  0  0  0  0
 21  4  1  1  0  0  0
 21 26  1  0  0  0  0
 22 10  2  0  0  0  0
 23 10  1  1  0  0  0
 23 21  1  0  0  0  0
 24 27  2  0  0  0  0
 26 17  1  0  0  0  0
 26 20  2  0  0  0  0
 27 12  1  0  0  0  0
 28 29  1  0  0  0  0
 28 30  1  0  0  0  0
M  END
>  <MODEL>
4

>  <REMARK>
 VINA RESULT:      -5.7      2.354      3.471
  Name = 
  1 active torsions:
  status: ('A' for Active; 'I' for Inactive)
    1  A    between atoms: C_7  and  C_10
                            x       y       z     vdW  Elec       q    Type
                         _______ _______ _______ _____ _____    ______ ____

>  <TORSDO>
F 1

$$$$
=
 OpenBabel10272414003D

 30 33  0  0  1  0  0  0  0  0999 V2000
  186.2220  178.4310  139.1140 C   0  0  0  0  0  0  0  0  0  0  0  0
  184.8460  178.9190  141.1910 C   0  0  0  0  0  2  0  0  0  0  0  0
  181.4410  178.6850  138.9340 O   0  0  0  0  0  0  0  0  0  0  0  0
  184.5500  176.1670  137.6180 C   0  0  0  0  0  2  0  0  0  0  0  0
  186.3570  178.7400  137.7210 N   0  0  0  0  0  0  0  0  0  0  0  0
  187.5070  175.5950  136.7490 C   0  0  0  0  0  0  0  0  0  0  0  0
  187.6840  176.8510  137.3420 O   0  0  0  0  0  0  0  0  0  0  0  0
  187.1270  178.4120  135.4650 C   0  0  0  0  0  1  0  0  0  0  0  0
  181.8520  176.0790  136.6190 C   0  0  2  0  0  3  0  0  0  0  0  0
  181.3950  178.3760  137.5740 C   0  0  0  0  0  0  0  0  0  0  0  0
  187.0530  178.0180  136.8990 C   0  0  0  0  0  0  0  0  0  0  0  0
  185.0150  175.9480  136.1870 C   0  0  1  0  0  3  0  0  0  0  0  0
  183.6240  178.4150  141.9410 C   0  0  0  0  0  2  0  0  0  0  0  0
  182.5600  175.4910  135.4790 N   0  0  0  0  0  2  0  0  0  0  0  0
  188.4560  174.7700  136.7890 O   0  0  0  0  0  0  0  0  0  0  0  0
  187.2500  178.1810  139.8020 O   0  0  0  0  0  0  0  0  0  0  0  0
  182.4010  178.0820  139.7960 C   0  0  2  0  0  3  0  0  0  0  0  0
  182.3890  178.7910  141.1490 C   0  0  1  0  0  3  0  0  0  0  0  0
  186.2590  175.1820  136.1720 N   0  0  0  0  0  2  0  0  0  0  0  0
  184.8920  178.4260  139.7650 C   0  0  0  0  0  0  0  0  0  0  0  0
  183.7890  177.4900  137.7030 C   0  0  1  0  0  3  0  0  0  0  0  0
  180.4870  178.8640  136.8540 O   0  0  0  0  0  0  0  0  0  0  0  0
  182.4230  177.4670  136.9670 C   0  0  1  0  0  3  0  0  0  0  0  0
  184.3580  174.5750  134.3500 O   0  0  0  0  0  0  0  0  0  0  0  0
  181.2480  178.4230  141.8600 O   0  0  0  0  0  1  0  0  0  0  0  0
  183.7580  178.0420  139.1170 C   0  0  0  0  0  0  0  0  0  0  0  0
  183.9720  175.2760  135.3240 C   0  0  0  0  0  0  0  0  0  0  0  0
  181.7340  175.1000  137.8030 C   0  0  0  0  0  3  0  0  0  0  0  0
  181.8180  173.6540  137.3440 C   0  0  0  0  0  1  0  0  0  0  0  0
  180.4100  175.2820  138.5210 C   0  0  0  0  0  1  0  0  0  0  0  0
  1 20  1  0  0  0  0
  1 16  2  0  0  0  0
  2 13  1  0  0  0  0
  5  1  1  0  0  0  0
  6 15  2  0  0  0  0
  6  7  1  0  0  0  0
  8 11  1  0  0  0  0
  9 23  1  0  0  0  0
  9 28  1  1  0  0  0
 10  3  1  0  0  0  0
 11  7  1  0  0  0  0
 11  5  2  0  0  0  0
 12  4  1  1  0  0  0
 14  9  1  0  0  0  0
 17  3  1  6  0  0  0
 17 18  1  0  0  0  0
 18 25  1  1  0  0  0
 18 13  1  0  0  0  0
 19 12  1  0  0  0  0
 19  6  1  0  0  0  0
 20  2  1  0  0  0  0
 21  4  1  1  0  0  0
 21 26  1  0  0  0  0
 22 10  2  0  0  0  0
 23 10  1  1  0  0  0
 23 21  1  0  0  0  0
 24 27  2  0  0  0  0
 26 20  2  0  0  0  0
 26 17  1  0  0  0  0
 27 14  1  0  0  0  0
 27 12  1  0  0  0  0
 28 30  1  0  0  0  0
 29 28  1  0  0  0  0
M  END
>  <MODEL>
5

>  <REMARK>
 VINA RESULT:      -5.4      2.017      2.605
  Name = 
  1 active torsions:
  status: ('A' for Active; 'I' for Inactive)
    1  A    between atoms: C_7  and  C_10
                            x       y       z     vdW  Elec       q    Type
                         _______ _______ _______ _____ _____    ______ ____

>  <TORSDO>
F 1

$$$$
=
 OpenBabel10272414003D

 30 33  0  0  1  0  0  0  0  0999 V2000
  185.1300  173.6420  135.3190 C   0  0  0  0  0  0  0  0  0  0  0  0
  187.1440  172.1330  134.9880 C   0  0  0  0  0  2  0  0  0  0  0  0
  189.5380  175.4450  134.7990 O   0  0  0  0  0  0  0  0  0  0  0  0
  186.1920  175.8870  137.3180 C   0  0  0  0  0  2  0  0  0  0  0  0
  184.5100  174.8530  134.8680 N   0  0  0  0  0  0  0  0  0  0  0  0
  183.1240  175.7320  137.9450 C   0  0  0  0  0  0  0  0  0  0  0  0
  183.1540  174.9690  136.7720 O   0  0  0  0  0  0  0  0  0  0  0  0
  182.9980  176.7210  134.9890 C   0  0  0  0  0  1  0  0  0  0  0  0
  188.3660  177.7660  137.1570 C   0  0  2  0  0  3  0  0  0  0  0  0
  189.1050  176.7630  134.9560 C   0  0  0  0  0  0  0  0  0  0  0  0
  183.5760  175.4610  135.5330 C   0  0  0  0  0  0  0  0  0  0  0  0
  185.2550  177.0810  137.4040 C   0  0  1  0  0  3  0  0  0  0  0  0
  188.5580  171.9220  135.5060 C   0  0  0  0  0  2  0  0  0  0  0  0
  187.3080  178.6500  137.6540 N   0  0  0  0  0  2  0  0  0  0  0  0
  182.2590  175.4630  138.8170 O   0  0  0  0  0  0  0  0  0  0  0  0
  184.4130  172.6750  135.6940 O   0  0  0  0  0  0  0  0  0  0  0  0
  188.9500  174.3820  135.5410 C   0  0  2  0  0  3  0  0  0  0  0  0
  189.4310  173.0440  134.9830 C   0  0  1  0  0  3  0  0  0  0  0  0
  184.0930  176.7530  138.2280 N   0  0  0  0  0  2  0  0  0  0  0  0
  186.6050  173.5010  135.3250 C   0  0  0  0  0  0  0  0  0  0  0  0
  186.9200  175.9140  135.9740 C   0  0  1  0  0  3  0  0  0  0  0  0
  189.6970  177.6900  134.3460 O   0  0  0  0  0  0  0  0  0  0  0  0
  187.9390  177.0780  135.8460 C   0  0  1  0  0  3  0  0  0  0  0  0
  185.2370  179.1820  138.5350 O   0  0  0  0  0  0  0  0  0  0  0  0
  190.7520  172.8240  135.3660 O   0  0  0  0  0  1  0  0  0  0  0  0
  187.4410  174.5450  135.5770 C   0  0  0  0  0  0  0  0  0  0  0  0
  185.9340  178.3270  137.9240 C   0  0  0  0  0  0  0  0  0  0  0  0
  188.9040  176.8230  138.2510 C   0  0  0  0  0  3  0  0  0  0  0  0
  188.6950  177.4030  139.6400 C   0  0  0  0  0  1  0  0  0  0  0  0
  190.3900  176.5810  138.0680 C   0  0  0  0  0  1  0  0  0  0  0  0
  1 20  1  0  0  0  0
  1 16  2  0  0  0  0
  2 20  1  0  0  0  0
  2 13  1  0  0  0  0
  3 10  1  0  0  0  0
  5  1  1  0  0  0  0
  5 11  2  0  0  0  0
  6 19  1  0  0  0  0
  6 15  2  0  0  0  0
  7  6  1  0  0  0  0
  8 11  1  0  0  0  0
  9 14  1  0  0  0  0
  9 28  1  1  0  0  0
 11  7  1  0  0  0  0
 12  4  1  1  0  0  0
 12 27  1  0  0  0  0
 12 19  1  0  0  0  0
 14 27  1  0  0  0  0
 17  3  1  6  0  0  0
 17 26  1  0  0  0  0
 18 25  1  1  0  0  0
 18 13  1  0  0  0  0
 18 17  1  0  0  0  0
 20 26  2  0  0  0  0
 21  4  1  1  0  0  0
 22 10  2  0  0  0  0
 23 10  1  1  0  0  0
 23 21  1  0  0  0  0
 23  9  1  0  0  0  0
 26 21  1  0  0  0  0
 27 24  2  0  0  0  0
 28 29  1  0  0  0  0
 30 28  1  0  0  0  0
M  END
>  <MODEL>
6

>  <REMARK>
 VINA RESULT:      -5.2      2.693      7.045
  Name = 
  1 active torsions:
  status: ('A' for Active; 'I' for Inactive)
    1  A    between atoms: C_7  and  C_10
                            x       y       z     vdW  Elec       q    Type
                         _______ _______ _______ _____ _____    ______ ____

>  <TORSDO>
F 1

$$$$
=
 OpenBabel10272414003D

 30 33  0  0  1  0  0  0  0  0999 V2000
  189.5340  177.4580  137.8580 C   0  0  0  0  0  0  0  0  0  0  0  0
  188.1180  178.6110  139.6210 C   0  0  0  0  0  2  0  0  0  0  0  0
  184.7890  177.8860  137.3570 O   0  0  0  0  0  0  0  0  0  0  0  0
  187.7770  174.9380  137.0100 C   0  0  0  0  0  2  0  0  0  0  0  0
  189.7390  177.3310  136.4450 N   0  0  0  0  0  0  0  0  0  0  0  0
  190.7210  173.9850  136.5080 C   0  0  0  0  0  0  0  0  0  0  0  0
  190.9560  175.3500  136.7120 O   0  0  0  0  0  0  0  0  0  0  0  0
  190.5680  176.3080  134.4310 C   0  0  0  0  0  1  0  0  0  0  0  0
  185.1160  174.6920  135.9390 C   0  0  2  0  0  3  0  0  0  0  0  0
  184.7730  177.1890  136.1480 C   0  0  0  0  0  0  0  0  0  0  0  0
  190.4170  176.3620  135.9120 C   0  0  0  0  0  0  0  0  0  0  0  0
  188.2780  174.2800  135.7340 C   0  0  1  0  0  3  0  0  0  0  0  0
  186.8400  178.4160  140.4210 C   0  0  0  0  0  2  0  0  0  0  0  0
  185.8260  173.7560  135.0630 N   0  0  0  0  0  2  0  0  0  0  0  0
  191.6130  173.1640  136.8400 O   0  0  0  0  0  0  0  0  0  0  0  0
  190.5190  177.3730  138.6420 O   0  0  0  0  0  0  0  0  0  0  0  0
  185.6770  177.5200  138.4080 C   0  0  2  0  0  3  0  0  0  0  0  0
  185.6610  178.6000  139.4880 C   0  0  1  0  0  3  0  0  0  0  0  0
  189.4700  173.4830  136.0120 N   0  0  0  0  0  2  0  0  0  0  0  0
  188.1840  177.7140  138.4100 C   0  0  0  0  0  0  0  0  0  0  0  0
  187.0990  176.2630  136.6600 C   0  0  1  0  0  3  0  0  0  0  0  0
  183.9240  177.4860  135.2680 O   0  0  0  0  0  0  0  0  0  0  0  0
  185.7620  176.0900  135.8910 C   0  0  1  0  0  3  0  0  0  0  0  0
  187.6010  172.4560  134.3530 O   0  0  0  0  0  0  0  0  0  0  0  0
  184.4740  178.5180  140.2140 O   0  0  0  0  0  1  0  0  0  0  0  0
  187.0520  177.2120  137.8440 C   0  0  0  0  0  0  0  0  0  0  0  0
  187.2260  173.4340  135.0540 C   0  0  0  0  0  0  0  0  0  0  0  0
  184.8930  174.1170  137.3520 C   0  0  0  0  0  3  0  0  0  0  0  0
  184.8710  172.5980  137.3400 C   0  0  0  0  0  1  0  0  0  0  0  0
  183.5720  174.5960  137.9240 C   0  0  0  0  0  1  0  0  0  0  0  0
  1 20  1  0  0  0  0
  1 16  2  0  0  0  0
  2 13  1  0  0  0  0
  5  1  1  0  0  0  0
  6  7  1  0  0  0  0
  6 15  2  0  0  0  0
  8 11  1  0  0  0  0
  9 28  1  1  0  0  0
 10  3  1  0  0  0  0
 11  5  2  0  0  0  0
 11  7  1  0  0  0  0
 12 19  1  0  0  0  0
 12  4  1  1  0  0  0
 14  9  1  0  0  0  0
 17  3  1  6  0  0  0
 17 18  1  0  0  0  0
 18 25  1  1  0  0  0
 18 13  1  0  0  0  0
 19  6  1  0  0  0  0
 20  2  1  0  0  0  0
 21  4  1  1  0  0  0
 21 26  1  0  0  0  0
 22 10  2  0  0  0  0
 23  9  1  0  0  0  0
 23 10  1  1  0  0  0
 23 21  1  0  0  0  0
 24 27  2  0  0  0  0
 26 17  1  0  0  0  0
 26 20  2  0  0  0  0
 27 14  1  0  0  0  0
 27 12  1  0  0  0  0
 28 30  1  0  0  0  0
 29 28  1  0  0  0  0
M  END
>  <MODEL>
7

>  <REMARK>
 VINA RESULT:      -4.8      2.124      3.318
  Name = 
  1 active torsions:
  status: ('A' for Active; 'I' for Inactive)
    1  A    between atoms: C_7  and  C_10
                            x       y       z     vdW  Elec       q    Type
                         _______ _______ _______ _____ _____    ______ ____

>  <TORSDO>
F 1

$$$$
=
 OpenBabel10272414003D

 30 33  0  0  1  0  0  0  0  0999 V2000
  186.4200  178.3340  138.0960 C   0  0  0  0  0  0  0  0  0  0  0  0
  187.9430  177.2680  136.3670 C   0  0  0  0  0  2  0  0  0  0  0  0
  185.8400  173.7780  136.7300 O   0  0  0  0  0  0  0  0  0  0  0  0
  183.5260  177.2470  137.3210 C   0  0  0  0  0  2  0  0  0  0  0  0
  185.7680  178.1090  139.3530 N   0  0  0  0  0  0  0  0  0  0  0  0
  182.9390  180.0250  138.6520 C   0  0  0  0  0  0  0  0  0  0  0  0
  184.2880  179.8870  138.9990 O   0  0  0  0  0  0  0  0  0  0  0  0
  184.1660  178.5280  141.0990 C   0  0  0  0  0  1  0  0  0  0  0  0
  182.4430  174.5910  137.0820 C   0  0  2  0  0  3  0  0  0  0  0  0
  184.7200  173.5930  137.5430 C   0  0  0  0  0  0  0  0  0  0  0  0
  184.7890  178.8440  139.7830 C   0  0  0  0  0  0  0  0  0  0  0  0
  182.4980  177.4940  138.4140 C   0  0  1  0  0  3  0  0  0  0  0  0
  187.8850  176.4310  135.1000 C   0  0  0  0  0  2  0  0  0  0  0  0
  181.3610  175.2350  137.8300 N   0  0  0  0  0  2  0  0  0  0  0  0
  182.4770  181.1800  138.4730 O   0  0  0  0  0  0  0  0  0  0  0  0
  186.8200  179.4920  137.7970 O   0  0  0  0  0  0  0  0  0  0  0  0
  186.0770  175.0190  136.0750 C   0  0  2  0  0  3  0  0  0  0  0  0
  187.4830  175.0200  135.4780 C   0  0  1  0  0  3  0  0  0  0  0  0
  182.0850  178.8960  138.4120 N   0  0  0  0  0  2  0  0  0  0  0  0
  186.6560  177.2160  137.1530 C   0  0  0  0  0  0  0  0  0  0  0  0
  184.4680  176.1270  137.7600 C   0  0  1  0  0  3  0  0  0  0  0  0
  184.4960  172.4610  138.0460 O   0  0  0  0  0  0  0  0  0  0  0  0
  183.7870  174.7330  137.8220 C   0  0  1  0  0  3  0  0  0  0  0  0
  180.1890  177.0010  138.7550 O   0  0  0  0  0  0  0  0  0  0  0  0
  187.5120  174.2070  134.3460 O   0  0  0  0  0  1  0  0  0  0  0  0
  185.7940  176.1710  137.0210 C   0  0  0  0  0  0  0  0  0  0  0  0
  181.2920  176.5890  138.3060 C   0  0  0  0  0  0  0  0  0  0  0  0
  182.4610  175.0110  135.5990 C   0  0  0  0  0  3  0  0  0  0  0  0
  181.1050  175.5270  135.1480 C   0  0  0  0  0  1  0  0  0  0  0  0
  182.8280  173.8360  134.7130 C   0  0  0  0  0  1  0  0  0  0  0  0
  1  5  1  0  0  0  0
  2 20  1  0  0  0  0
  3 10  1  0  0  0  0
  5 11  2  0  0  0  0
  6  7  1  0  0  0  0
  7 11  1  0  0  0  0
  9 28  1  6  0  0  0
  9 23  1  0  0  0  0
  9 14  1  0  0  0  0
 10 22  2  0  0  0  0
 11  8  1  0  0  0  0
 12  4  1  6  0  0  0
 13 18  1  0  0  0  0
 13  2  1  0  0  0  0
 14 27  1  0  0  0  0
 15  6  2  0  0  0  0
 16  1  2  0  0  0  0
 17  3  1  1  0  0  0
 17 26  1  0  0  0  0
 18 25  1  6  0  0  0
 18 17  1  0  0  0  0
 19 12  1  0  0  0  0
 19  6  1  0  0  0  0
 20  1  1  0  0  0  0
 21  4  1  6  0  0  0
 21 23  1  0  0  0  0
 23 10  1  6  0  0  0
 26 20  2  0  0  0  0
 26 21  1  0  0  0  0
 27 12  1  0  0  0  0
 27 24  2  0  0  0  0
 29 28  1  0  0  0  0
 30 28  1  0  0  0  0
M  END
>  <MODEL>
8

>  <REMARK>
 VINA RESULT:      -4.7      2.499      5.976
  Name = 
  1 active torsions:
  status: ('A' for Active; 'I' for Inactive)
    1  A    between atoms: C_7  and  C_10
                            x       y       z     vdW  Elec       q    Type
                         _______ _______ _______ _____ _____    ______ ____

>  <TORSDO>
F 1

$$$$
=
 OpenBabel10272414003D

 30 33  0  0  1  0  0  0  0  0999 V2000
  184.4040  174.6730  135.8840 C   0  0  0  0  0  0  0  0  0  0  0  0
  186.7010  173.6470  136.2220 C   0  0  0  0  0  2  0  0  0  0  0  0
  188.2000  177.3730  137.0030 O   0  0  0  0  0  0  0  0  0  0  0  0
  184.1990  176.8450  138.2070 C   0  0  0  0  0  2  0  0  0  0  0  0
  183.7110  175.7780  135.2890 N   0  0  0  0  0  0  0  0  0  0  0  0
  181.2180  176.0070  137.7170 C   0  0  0  0  0  0  0  0  0  0  0  0
  181.8100  175.4030  136.6020 O   0  0  0  0  0  0  0  0  0  0  0  0
  181.8610  177.2770  134.9420 C   0  0  0  0  0  1  0  0  0  0  0  0
  185.8140  179.1290  138.8850 C   0  0  2  0  0  3  0  0  0  0  0  0
  187.4520  178.5500  137.0470 C   0  0  0  0  0  0  0  0  0  0  0  0
  182.4970  176.1060  135.6070 C   0  0  0  0  0  0  0  0  0  0  0  0
  183.0410  177.8090  138.0050 C   0  0  1  0  0  3  0  0  0  0  0  0
  187.8700  173.6670  137.1930 C   0  0  0  0  0  2  0  0  0  0  0  0
  184.4800  179.7200  139.0130 N   0  0  0  0  0  2  0  0  0  0  0  0
  180.1980  175.4720  138.2220 O   0  0  0  0  0  0  0  0  0  0  0  0
  183.8430  173.5450  135.9490 O   0  0  0  0  0  0  0  0  0  0  0  0
  187.6570  176.1360  137.4530 C   0  0  2  0  0  3  0  0  0  0  0  0
  188.5880  174.9940  137.0500 C   0  0  1  0  0  3  0  0  0  0  0  0
  181.7790  177.1630  138.3580 N   0  0  0  0  0  2  0  0  0  0  0  0
  185.7830  174.8320  136.4000 C   0  0  0  0  0  0  0  0  0  0  0  0
  185.3070  177.1700  137.2050 C   0  0  1  0  0  3  0  0  0  0  0  0
  187.9850  179.6400  136.7160 O   0  0  0  0  0  0  0  0  0  0  0  0
  186.0170  178.5220  137.4840 C   0  0  1  0  0  3  0  0  0  0  0  0
  182.1710  179.7220  139.1340 O   0  0  0  0  0  0  0  0  0  0  0  0
  189.7200  175.0030  137.8630 O   0  0  0  0  0  1  0  0  0  0  0  0
  186.2280  175.9870  136.9660 C   0  0  0  0  0  0  0  0  0  0  0  0
  183.2060  179.0990  138.7740 C   0  0  0  0  0  0  0  0  0  0  0  0
  186.1570  178.1970  140.0630 C   0  0  0  0  0  3  0  0  0  0  0  0
  185.3500  178.5420  141.3030 C   0  0  0  0  0  1  0  0  0  0  0  0
  187.6270  178.3030  140.4220 C   0  0  0  0  0  1  0  0  0  0  0  0
  1 16  2  0  0  0  0
  1 20  1  0  0  0  0
  2 20  1  0  0  0  0
  2 13  1  0  0  0  0
  3 10  1  0  0  0  0
  3 17  1  0  0  0  0
  5 11  2  0  0  0  0
  5  1  1  0  0  0  0
  6 15  2  0  0  0  0
  6 19  1  0  0  0  0
  7  6  1  0  0  0  0
  8 11  1  0  0  0  0
  9 14  1  0  0  0  0
  9 28  1  1  0  0  0
 11  7  1  0  0  0  0
 12  4  1  1  0  0  0
 12 19  1  0  0  0  0
 12 27  1  0  0  0  0
 17 26  1  6  0  0  0
 18 13  1  0  0  0  0
 18 17  1  0  0  0  0
 18 25  1  1  0  0  0
 20 26  2  0  0  0  0
 21 23  1  0  0  0  0
 21  4  1  1  0  0  0
 22 10  2  0  0  0  0
 23 10  1  1  0  0  0
 23  9  1  0  0  0  0
 26 21  1  0  0  0  0
 27 14  1  0  0  0  0
 27 24  2  0  0  0  0
 28 30  1  0  0  0  0
 28 29  1  0  0  0  0
M  END
>  <MODEL>
9

>  <REMARK>
 VINA RESULT:      -4.4      2.384      6.141
  Name = 
  1 active torsions:
  status: ('A' for Active; 'I' for Inactive)
    1  A    between atoms: C_7  and  C_10
                            x       y       z     vdW  Elec       q    Type
                         _______ _______ _______ _____ _____    ______ ____

>  <TORSDO>
F 1

$$$$
