=
 OpenBabel10272400293D

 31 36  0  0  1  0  0  0  0  0999 V2000
  188.8180  177.5220  143.8430 C   0  0  0  0  0  0  0  0  0  0  0  0
  189.5000  177.1400  145.0200 C   0  0  0  0  0  0  0  0  0  0  0  0
  189.7500  177.3030  147.4990 C   0  0  0  0  0  0  0  0  0  0  0  0
  187.3910  177.9080  143.8020 C   0  0  0  0  0  0  0  0  0  0  0  0
  185.3420  178.4810  144.1850 C   0  0  0  0  0  0  0  0  0  0  0  0
  188.8040  177.0410  146.3560 C   0  0  0  0  0  2  0  0  0  0  0  0
  188.8510  178.0310  141.3450 C   0  0  1  0  0  3  0  0  0  0  0  0
  191.5130  176.8240  143.7120 C   0  0  0  0  0  3  0  0  0  0  0  0
  189.2770  177.8500  148.6470 F   0  0  0  0  0  0  0  0  0  0  0  0
  187.3320  177.7820  141.3330 C   0  0  0  0  0  2  0  0  0  0  0  0
  189.5190  177.5270  142.6150 C   0  0  0  0  0  0  0  0  0  0  0  0
  186.5210  178.1640  144.8500 C   0  0  0  0  0  3  0  0  0  0  0  0
  191.0480  176.9800  147.4070 C   0  0  0  0  0  3  0  0  0  0  0  0
  186.7540  178.0800  142.6350 N   0  0  0  0  0  0  0  0  0  0  0  0
  185.4940  178.4060  142.8480 N   0  0  0  0  0  0  0  0  0  0  0  0
  190.8410  177.2000  142.5940 N   0  0  0  0  0  0  0  0  0  0  0  0
  190.8600  176.7890  144.9410 C   0  0  0  0  0  0  0  0  0  0  0  0
  191.6010  176.3300  146.1650 C   0  0  0  0  0  2  0  0  0  0  0  0
  184.0490  178.7970  144.8490 C   0  0  0  0  0  2  0  0  0  0  0  0
  182.9420  178.8660  143.8170 C   0  0  0  0  0  1  0  0  0  0  0  0
  189.4800  177.4230  140.0980 C   0  0  0  0  0  2  0  0  0  0  0  0
  186.8280  176.6790  135.5780 C   0  0  0  0  0  0  0  0  0  0  0  0
  187.8340  176.0220  137.7150 C   0  0  0  0  0  3  0  0  0  0  0  0
  188.4000  179.5040  137.3390 N   0  0  0  0  0  0  0  0  0  0  0  0
  188.9990  179.3210  138.5140 N   0  0  0  0  0  2  0  0  0  0  0  0
  186.0850  176.3050  134.3460 C   0  0  0  0  0  1  0  0  0  0  0  0
  188.8870  178.0190  138.8640 C   0  0  0  0  0  0  0  0  0  0  0  0
  187.1320  175.6900  136.5410 C   0  0  0  0  0  3  0  0  0  0  0  0
  187.9170  178.3120  136.9470 C   0  0  0  0  0  0  0  0  0  0  0  0
  188.2060  177.3540  137.8750 C   0  0  0  0  0  0  0  0  0  0  0  0
  187.2250  178.0160  135.7750 C   0  0  0  0  0  3  0  0  0  0  0  0
  1  2  1  0  0  0  0
  2  6  1  0  0  0  0
  3  9  1  0  0  0  0
  4  1  1  0  0  0  0
  4 12  2  0  0  0  0
  5 19  1  0  0  0  0
  5 12  1  0  0  0  0
  6  3  1  0  0  0  0
  7 21  1  6  0  0  0
  7 11  1  0  0  0  0
  8 17  1  0  0  0  0
 10  7  1  0  0  0  0
 10 14  1  0  0  0  0
 11  1  2  0  0  0  0
 13  3  2  0  0  0  0
 14 15  1  0  0  0  0
 14  4  1  0  0  0  0
 15  5  2  0  0  0  0
 16 11  1  0  0  0  0
 16  8  2  0  0  0  0
 17  2  2  0  0  0  0
 17 18  1  0  0  0  0
 18 13  1  0  0  0  0
 20 19  1  0  0  0  0
 22 31  2  0  0  0  0
 22 28  1  0  0  0  0
 23 30  1  0  0  0  0
 24 25  1  0  0  0  0
 25 27  1  0  0  0  0
 26 22  1  0  0  0  0
 27 21  1  0  0  0  0
 28 23  2  0  0  0  0
 29 24  2  0  0  0  0
 29 30  1  0  0  0  0
 30 27  2  0  0  0  0
 31 29  1  0  0  0  0
M  END
>  <MODEL>
1

>  <REMARK>
 VINA RESULT:     -10.7      0.000      0.000
  Name = 
  3 active torsions:
  status: ('A' for Active; 'I' for Inactive)
    1  A    between atoms: C_2  and  C_13
    2  A    between atoms: C_9  and  C_23
    3  A    between atoms: C_15  and  C_23
                            x       y       z     vdW  Elec       q    Type
                         _______ _______ _______ _____ _____    ______ ____

>  <TORSDO>
F 3

$$$$
=
 OpenBabel10272400293D

 31 36  0  0  1  0  0  0  0  0999 V2000
  187.5830  178.0280  143.6240 C   0  0  0  0  0  0  0  0  0  0  0  0
  186.3650  178.4780  144.1800 C   0  0  0  0  0  0  0  0  0  0  0  0
  184.7130  178.4190  146.0520 C   0  0  0  0  0  0  0  0  0  0  0  0
  188.7460  177.5900  144.4260 C   0  0  0  0  0  0  0  0  0  0  0  0
  190.1580  176.9590  145.9360 C   0  0  0  0  0  0  0  0  0  0  0  0
  186.1590  178.6040  145.6710 C   0  0  0  0  0  2  0  0  0  0  0  0
  188.9820  177.4250  141.5800 C   0  0  1  0  0  3  0  0  0  0  0  0
  185.5060  178.8160  141.9410 C   0  0  0  0  0  3  0  0  0  0  0  0
  184.4020  177.8990  147.2660 F   0  0  0  0  0  0  0  0  0  0  0  0
  190.2350  177.6190  142.4510 C   0  0  0  0  0  2  0  0  0  0  0  0
  187.7270  178.0010  142.2180 C   0  0  0  0  0  0  0  0  0  0  0  0
  188.8310  177.3430  145.7870 C   0  0  0  0  0  3  0  0  0  0  0  0
  183.7290  178.7850  145.2170 C   0  0  0  0  0  3  0  0  0  0  0  0
  189.9330  177.3500  143.8500 N   0  0  0  0  0  0  0  0  0  0  0  0
  190.8160  176.9880  144.7590 N   0  0  0  0  0  0  0  0  0  0  0  0
  186.6820  178.3730  141.4270 N   0  0  0  0  0  0  0  0  0  0  0  0
  185.3240  178.8750  143.3200 C   0  0  0  0  0  0  0  0  0  0  0  0
  184.0350  179.4050  143.8800 C   0  0  0  0  0  2  0  0  0  0  0  0
  190.8070  176.6220  147.2320 C   0  0  0  0  0  2  0  0  0  0  0  0
  192.0780  175.8350  146.9840 C   0  0  0  0  0  1  0  0  0  0  0  0
  189.2270  178.0070  140.1930 C   0  0  0  0  0  2  0  0  0  0  0  0
  187.8850  175.2010  135.9100 C   0  0  0  0  0  0  0  0  0  0  0  0
  187.6290  176.9510  137.6070 C   0  0  0  0  0  3  0  0  0  0  0  0
  190.6630  175.2570  138.3260 N   0  0  0  0  0  0  0  0  0  0  0  0
  190.6790  176.1450  139.3180 N   0  0  0  0  0  0  0  0  0  0  0  0
  187.3630  174.5010  134.7080 C   0  0  0  0  0  1  0  0  0  0  0  0
  189.5800  176.9280  139.2230 C   0  0  0  0  0  0  0  0  0  0  0  0
  187.1540  176.2740  136.4690 C   0  0  0  0  0  3  0  0  0  0  0  0
  189.5460  175.4800  137.6090 C   0  0  0  0  0  0  0  0  0  0  0  0
  188.8380  176.5170  138.1440 C   0  0  0  0  0  0  0  0  0  0  0  0
  189.1030  174.7880  136.4850 C   0  0  0  0  0  2  0  0  0  0  0  0
  1  2  1  0  0  0  0
  1  4  1  0  0  0  0
  2  6  1  0  0  0  0
  3  9  1  0  0  0  0
  4 12  2  0  0  0  0
  5 19  1  0  0  0  0
  6  3  1  0  0  0  0
  7 21  1  6  0  0  0
  7 11  1  0  0  0  0
  7 10  1  0  0  0  0
  8 17  1  0  0  0  0
 10 14  1  0  0  0  0
 11  1  2  0  0  0  0
 12  5  1  0  0  0  0
 13  3  2  0  0  0  0
 14  4  1  0  0  0  0
 14 15  1  0  0  0  0
 15  5  2  0  0  0  0
 16  8  2  0  0  0  0
 16 11  1  0  0  0  0
 17 18  1  0  0  0  0
 17  2  2  0  0  0  0
 18 13  1  0  0  0  0
 20 19  1  0  0  0  0
 22 28  2  0  0  0  0
 22 31  1  0  0  0  0
 23 30  2  0  0  0  0
 24 25  1  0  0  0  0
 26 22  1  0  0  0  0
 27 25  2  0  0  0  0
 27 21  1  0  0  0  0
 28 23  1  0  0  0  0
 29 30  1  0  0  0  0
 29 24  2  0  0  0  0
 30 27  1  0  0  0  0
 31 29  1  0  0  0  0
M  END
>  <MODEL>
2

>  <REMARK>
 VINA RESULT:     -10.6      1.790      4.563
  Name = 
  3 active torsions:
  status: ('A' for Active; 'I' for Inactive)
    1  A    between atoms: C_2  and  C_13
    2  A    between atoms: C_9  and  C_23
    3  A    between atoms: C_15  and  C_23
                            x       y       z     vdW  Elec       q    Type
                         _______ _______ _______ _____ _____    ______ ____

>  <TORSDO>
F 3

$$$$
=
 OpenBabel10272400293D

 31 36  0  0  1  0  0  0  0  0999 V2000
  187.4750  178.0960  143.5530 C   0  0  0  0  0  0  0  0  0  0  0  0
  186.2720  178.5360  144.1490 C   0  0  0  0  0  0  0  0  0  0  0  0
  184.6790  178.4550  146.0700 C   0  0  0  0  0  0  0  0  0  0  0  0
  188.6640  177.6600  144.3160 C   0  0  0  0  0  0  0  0  0  0  0  0
  190.1260  177.0280  145.7780 C   0  0  0  0  0  0  0  0  0  0  0  0
  186.1110  178.6500  145.6460 C   0  0  0  0  0  2  0  0  0  0  0  0
  188.8140  177.5150  141.4630 C   0  0  1  0  0  3  0  0  0  0  0  0
  185.3430  178.8830  141.9400 C   0  0  0  0  0  3  0  0  0  0  0  0
  184.4080  177.9250  147.2900 F   0  0  0  0  0  0  0  0  0  0  0  0
  190.0920  177.7110  142.2970 C   0  0  0  0  0  2  0  0  0  0  0  0
  187.5760  178.0790  142.1430 C   0  0  0  0  0  0  0  0  0  0  0  0
  188.7920  177.4050  145.6720 C   0  0  0  0  0  3  0  0  0  0  0  0
  183.6670  178.8200  145.2690 C   0  0  0  0  0  3  0  0  0  0  0  0
  189.8350  177.4310  143.7030 N   0  0  0  0  0  0  0  0  0  0  0  0
  190.7470  177.0680  144.5820 N   0  0  0  0  0  0  0  0  0  0  0  0
  186.5050  178.4510  141.3870 N   0  0  0  0  0  0  0  0  0  0  0  0
  185.2030  178.9310  143.3240 C   0  0  0  0  0  0  0  0  0  0  0  0
  183.9280  179.4510  143.9260 C   0  0  0  0  0  2  0  0  0  0  0  0
  190.8160  176.6870  147.0510 C   0  0  0  0  0  2  0  0  0  0  0  0
  192.0480  175.8530  146.7640 C   0  0  0  0  0  1  0  0  0  0  0  0
  189.0130  178.1070  140.0730 C   0  0  0  0  0  2  0  0  0  0  0  0
  192.8430  175.3840  137.6390 C   0  0  0  0  0  0  0  0  0  0  0  0
  191.9150  177.0100  139.2210 C   0  0  0  0  0  3  0  0  0  0  0  0
  189.1660  175.5270  137.5380 N   0  0  0  0  0  0  0  0  0  0  0  0
  188.4990  176.3630  138.3310 N   0  0  0  0  0  2  0  0  0  0  0  0
  194.0290  174.7180  137.0390 C   0  0  0  0  0  1  0  0  0  0  0  0
  189.3850  177.0420  139.0950 C   0  0  0  0  0  0  0  0  0  0  0  0
  193.0230  176.3660  138.6400 C   0  0  0  0  0  3  0  0  0  0  0  0
  190.4750  175.6880  137.8000 C   0  0  0  0  0  0  0  0  0  0  0  0
  190.6540  176.6340  138.7670 C   0  0  0  0  0  0  0  0  0  0  0  0
  191.5500  175.0340  137.2030 C   0  0  0  0  0  3  0  0  0  0  0  0
  1  2  1  0  0  0  0
  1  4  1  0  0  0  0
  2  6  1  0  0  0  0
  3  9  1  0  0  0  0
  4 12  2  0  0  0  0
  5 19  1  0  0  0  0
  6  3  1  0  0  0  0
  7 21  1  6  0  0  0
  7 11  1  0  0  0  0
  7 10  1  0  0  0  0
  8 17  1  0  0  0  0
 10 14  1  0  0  0  0
 11  1  2  0  0  0  0
 12  5  1  0  0  0  0
 13  3  2  0  0  0  0
 14  4  1  0  0  0  0
 14 15  1  0  0  0  0
 15  5  2  0  0  0  0
 16  8  2  0  0  0  0
 16 11  1  0  0  0  0
 17 18  1  0  0  0  0
 17  2  2  0  0  0  0
 18 13  1  0  0  0  0
 20 19  1  0  0  0  0
 22 28  1  0  0  0  0
 24 29  2  0  0  0  0
 24 25  1  0  0  0  0
 25 27  1  0  0  0  0
 26 22  1  0  0  0  0
 27 21  1  0  0  0  0
 28 23  2  0  0  0  0
 29 30  1  0  0  0  0
 30 27  2  0  0  0  0
 30 23  1  0  0  0  0
 31 22  2  0  0  0  0
 31 29  1  0  0  0  0
M  END
>  <MODEL>
3

>  <REMARK>
 VINA RESULT:     -10.4      2.432      5.156
  Name = 
  3 active torsions:
  status: ('A' for Active; 'I' for Inactive)
    1  A    between atoms: C_2  and  C_13
    2  A    between atoms: C_9  and  C_23
    3  A    between atoms: C_15  and  C_23
                            x       y       z     vdW  Elec       q    Type
                         _______ _______ _______ _____ _____    ______ ____

>  <TORSDO>
F 3

$$$$
=
 OpenBabel10272400293D

 31 36  0  0  1  0  0  0  0  0999 V2000
  187.5290  178.0060  143.6610 C   0  0  0  0  0  0  0  0  0  0  0  0
  186.3070  178.4640  144.2030 C   0  0  0  0  0  0  0  0  0  0  0  0
  184.6330  178.4150  146.0560 C   0  0  0  0  0  0  0  0  0  0  0  0
  188.6790  177.5590  144.4750 C   0  0  0  0  0  0  0  0  0  0  0  0
  190.0690  176.9170  146.0010 C   0  0  0  0  0  0  0  0  0  0  0  0
  186.0850  178.5900  145.6910 C   0  0  0  0  0  2  0  0  0  0  0  0
  188.9460  177.3950  141.6320 C   0  0  1  0  0  3  0  0  0  0  0  0
  185.4770  178.8100  141.9550 C   0  0  0  0  0  3  0  0  0  0  0  0
  184.3050  177.8970  147.2660 F   0  0  0  0  0  0  0  0  0  0  0  0
  190.1910  177.5790  142.5180 C   0  0  0  0  0  2  0  0  0  0  0  0
  187.6880  177.9790  142.2560 C   0  0  0  0  0  0  0  0  0  0  0  0
  188.7460  177.3100  145.8370 C   0  0  0  0  0  3  0  0  0  0  0  0
  183.6610  178.7890  145.2100 C   0  0  0  0  0  3  0  0  0  0  0  0
  189.8710  177.3120  143.9130 N   0  0  0  0  0  0  0  0  0  0  0  0
  190.7410  176.9420  144.8320 N   0  0  0  0  0  0  0  0  0  0  0  0
  186.6550  178.3600  141.4540 N   0  0  0  0  0  0  0  0  0  0  0  0
  185.2790  178.8690  143.3320 C   0  0  0  0  0  0  0  0  0  0  0  0
  183.9870  179.4080  143.8770 C   0  0  0  0  0  2  0  0  0  0  0  0
  190.7010  176.5750  147.3040 C   0  0  0  0  0  2  0  0  0  0  0  0
  191.9820  175.8000  147.0700 C   0  0  0  0  0  1  0  0  0  0  0  0
  189.2110  177.9770  140.2480 C   0  0  0  0  0  2  0  0  0  0  0  0
  191.2930  174.4850  136.8590 C   0  0  0  0  0  0  0  0  0  0  0  0
  189.4920  175.7190  137.9730 C   0  0  0  0  0  3  0  0  0  0  0  0
  192.5470  176.9120  139.3270 N   0  0  0  0  0  0  0  0  0  0  0  0
  191.7000  177.6640  140.0270 N   0  0  0  0  0  0  0  0  0  0  0  0
  191.7180  173.4570  135.8740 C   0  0  0  0  0  1  0  0  0  0  0  0
  190.4360  177.3700  139.6470 C   0  0  0  0  0  0  0  0  0  0  0  0
  189.9170  174.7500  137.0450 C   0  0  0  0  0  3  0  0  0  0  0  0
  191.8100  176.1380  138.5100 C   0  0  0  0  0  0  0  0  0  0  0  0
  190.4810  176.3920  138.6840 C   0  0  0  0  0  0  0  0  0  0  0  0
  192.2640  175.1850  137.6020 C   0  0  0  0  0  2  0  0  0  0  0  0
  1  2  1  0  0  0  0
  1  4  1  0  0  0  0
  2  6  1  0  0  0  0
  3  9  1  0  0  0  0
  4 12  2  0  0  0  0
  5 19  1  0  0  0  0
  6  3  1  0  0  0  0
  7 21  1  6  0  0  0
  7 11  1  0  0  0  0
  7 10  1  0  0  0  0
  8 17  1  0  0  0  0
 10 14  1  0  0  0  0
 11  1  2  0  0  0  0
 12  5  1  0  0  0  0
 13  3  2  0  0  0  0
 14  4  1  0  0  0  0
 14 15  1  0  0  0  0
 15  5  2  0  0  0  0
 16  8  2  0  0  0  0
 16 11  1  0  0  0  0
 17 18  1  0  0  0  0
 17  2  2  0  0  0  0
 18 13  1  0  0  0  0
 20 19  1  0  0  0  0
 22 28  2  0  0  0  0
 22 31  1  0  0  0  0
 23 30  2  0  0  0  0
 24 25  1  0  0  0  0
 26 22  1  0  0  0  0
 27 25  2  0  0  0  0
 27 21  1  0  0  0  0
 28 23  1  0  0  0  0
 29 30  1  0  0  0  0
 29 24  2  0  0  0  0
 30 27  1  0  0  0  0
 31 29  1  0  0  0  0
M  END
>  <MODEL>
4

>  <REMARK>
 VINA RESULT:     -10.0      2.302      4.956
  Name = 
  3 active torsions:
  status: ('A' for Active; 'I' for Inactive)
    1  A    between atoms: C_2  and  C_13
    2  A    between atoms: C_9  and  C_23
    3  A    between atoms: C_15  and  C_23
                            x       y       z     vdW  Elec       q    Type
                         _______ _______ _______ _____ _____    ______ ____

>  <TORSDO>
F 3

$$$$
=
 OpenBabel10272400293D

 31 36  0  0  1  0  0  0  0  0999 V2000
  187.7500  177.8590  143.8740 C   0  0  0  0  0  0  0  0  0  0  0  0
  188.1880  177.7770  145.2140 C   0  0  0  0  0  0  0  0  0  0  0  0
  189.8360  176.9150  146.8810 C   0  0  0  0  0  0  0  0  0  0  0  0
  188.6490  177.7760  142.7040 C   0  0  0  0  0  0  0  0  0  0  0  0
  190.2660  177.5200  141.2910 C   0  0  0  0  0  0  0  0  0  0  0  0
  189.6480  177.6470  145.5770 C   0  0  0  0  0  2  0  0  0  0  0  0
  185.8490  178.0370  142.1850 C   0  0  1  0  0  3  0  0  0  0  0  0
  185.8950  178.0430  145.9450 C   0  0  0  0  0  3  0  0  0  0  0  0
  190.9610  176.1810  147.0800 F   0  0  0  0  0  0  0  0  0  0  0  0
  186.8770  178.5630  141.1690 C   0  0  0  0  0  2  0  0  0  0  0  0
  186.3730  178.0490  143.6120 C   0  0  0  0  0  0  0  0  0  0  0  0
  189.9870  177.4190  142.6490 C   0  0  0  0  0  3  0  0  0  0  0  0
  188.9200  176.9990  147.8570 C   0  0  0  0  0  3  0  0  0  0  0  0
  188.2050  178.0440  141.4680 N   0  0  0  0  0  0  0  0  0  0  0  0
  189.1830  177.9180  140.5930 N   0  0  0  0  0  0  0  0  0  0  0  0
  185.4930  178.1130  144.6510 N   0  0  0  0  0  0  0  0  0  0  0  0
  187.2420  177.8720  146.2520 C   0  0  0  0  0  0  0  0  0  0  0  0
  187.6810  177.8390  147.6880 C   0  0  0  0  0  2  0  0  0  0  0  0
  191.6010  177.2890  140.6750 C   0  0  0  0  0  2  0  0  0  0  0  0
  191.4380  176.9110  139.2170 C   0  0  0  0  0  1  0  0  0  0  0  0
  184.5510  178.8250  142.0550 C   0  0  0  0  0  2  0  0  0  0  0  0
  182.0260  176.6000  137.9700 C   0  0  0  0  0  0  0  0  0  0  0  0
  182.8000  176.7840  140.2890 C   0  0  0  0  0  3  0  0  0  0  0  0
  183.9800  179.6590  138.5780 N   0  0  0  0  0  0  0  0  0  0  0  0
  184.4820  179.9130  139.7850 N   0  0  0  0  0  2  0  0  0  0  0  0
  181.2880  175.8420  136.9260 C   0  0  0  0  0  1  0  0  0  0  0  0
  184.1290  178.9140  140.6260 C   0  0  0  0  0  0  0  0  0  0  0  0
  182.1070  176.0830  139.2840 C   0  0  0  0  0  3  0  0  0  0  0  0
  183.3160  178.4930  138.6600 C   0  0  0  0  0  0  0  0  0  0  0  0
  183.3900  177.9920  139.9270 C   0  0  0  0  0  0  0  0  0  0  0  0
  182.6400  177.8240  137.6430 C   0  0  0  0  0  3  0  0  0  0  0  0
  1  2  1  0  0  0  0
  2  6  1  0  0  0  0
  2 17  2  0  0  0  0
  3  9  1  0  0  0  0
  3 13  2  0  0  0  0
  4  1  1  0  0  0  0
  5 12  1  0  0  0  0
  6  3  1  0  0  0  0
  7 21  1  1  0  0  0
  7 11  1  0  0  0  0
  8 17  1  0  0  0  0
 10 14  1  0  0  0  0
 10  7  1  0  0  0  0
 11  1  2  0  0  0  0
 11 16  1  0  0  0  0
 12  4  2  0  0  0  0
 14  4  1  0  0  0  0
 15  5  2  0  0  0  0
 15 14  1  0  0  0  0
 16  8  2  0  0  0  0
 17 18  1  0  0  0  0
 18 13  1  0  0  0  0
 19  5  1  0  0  0  0
 20 19  1  0  0  0  0
 22 28  1  0  0  0  0
 24 29  2  0  0  0  0
 24 25  1  0  0  0  0
 25 27  1  0  0  0  0
 26 22  1  0  0  0  0
 27 21  1  0  0  0  0
 28 23  2  0  0  0  0
 29 30  1  0  0  0  0
 30 23  1  0  0  0  0
 30 27  2  0  0  0  0
 31 22  2  0  0  0  0
 31 29  1  0  0  0  0
M  END
>  <MODEL>
5

>  <REMARK>
 VINA RESULT:      -9.9      2.947      4.747
  Name = 
  3 active torsions:
  status: ('A' for Active; 'I' for Inactive)
    1  A    between atoms: C_2  and  C_13
    2  A    between atoms: C_9  and  C_23
    3  A    between atoms: C_15  and  C_23
                            x       y       z     vdW  Elec       q    Type
                         _______ _______ _______ _____ _____    ______ ____

>  <TORSDO>
F 3

$$$$
=
 OpenBabel10272400293D

 31 36  0  0  1  0  0  0  0  0999 V2000
  186.8210  178.1870  144.4790 C   0  0  0  0  0  0  0  0  0  0  0  0
  187.5690  178.0170  145.6660 C   0  0  0  0  0  0  0  0  0  0  0  0
  189.4940  176.9580  146.8520 C   0  0  0  0  0  0  0  0  0  0  0  0
  187.3910  178.0740  143.1200 C   0  0  0  0  0  0  0  0  0  0  0  0
  188.5770  177.7390  141.3430 C   0  0  0  0  0  0  0  0  0  0  0  0
  189.0550  177.7520  145.6490 C   0  0  0  0  0  2  0  0  0  0  0  0
  184.5850  178.5870  143.3230 C   0  0  1  0  0  3  0  0  0  0  0  0
  185.5620  178.4450  146.9520 C   0  0  0  0  0  3  0  0  0  0  0  0
  190.5620  176.1260  146.7510 F   0  0  0  0  0  0  0  0  0  0  0  0
  185.3720  179.0650  142.0900 C   0  0  0  0  0  2  0  0  0  0  0  0
  185.4450  178.5000  144.5740 C   0  0  0  0  0  0  0  0  0  0  0  0
  188.6360  177.6090  142.7260 C   0  0  0  0  0  3  0  0  0  0  0  0
  188.8600  177.0800  148.0270 C   0  0  0  0  0  3  0  0  0  0  0  0
  186.6800  178.4260  142.0390 N   0  0  0  0  0  0  0  0  0  0  0  0
  187.3950  178.2530  140.9450 N   0  0  0  0  0  0  0  0  0  0  0  0
  184.8600  178.5970  145.8000 N   0  0  0  0  0  0  0  0  0  0  0  0
  186.9220  178.1510  146.9090 C   0  0  0  0  0  0  0  0  0  0  0  0
  187.6990  178.0260  148.1880 C   0  0  0  0  0  2  0  0  0  0  0  0
  189.6910  177.4220  140.4090 C   0  0  0  0  0  2  0  0  0  0  0  0
  190.9900  177.2930  141.1790 C   0  0  0  0  0  1  0  0  0  0  0  0
  183.3710  179.4850  143.5360 C   0  0  0  0  0  2  0  0  0  0  0  0
  180.6880  177.9270  139.2470 C   0  0  0  0  0  0  0  0  0  0  0  0
  182.5960  178.8510  140.4780 C   0  0  0  0  0  3  0  0  0  0  0  0
  180.1380  177.9890  142.8870 N   0  0  0  0  0  0  0  0  0  0  0  0
  181.0750  178.4650  143.7050 N   0  0  0  0  0  0  0  0  0  0  0  0
  180.0620  177.5550  137.9520 C   0  0  0  0  0  1  0  0  0  0  0  0
  182.1420  178.8520  142.9700 C   0  0  0  0  0  0  0  0  0  0  0  0
  181.9850  178.4910  139.2630 C   0  0  0  0  0  3  0  0  0  0  0  0
  180.6180  178.0840  141.6340 C   0  0  0  0  0  0  0  0  0  0  0  0
  181.8700  178.6250  141.6440 C   0  0  0  0  0  0  0  0  0  0  0  0
  179.9840  177.7190  140.4490 C   0  0  0  0  0  2  0  0  0  0  0  0
  1 11  2  0  0  0  0
  1  2  1  0  0  0  0
  2 17  2  0  0  0  0
  3 13  2  0  0  0  0
  4  1  1  0  0  0  0
  5 12  1  0  0  0  0
  6  2  1  0  0  0  0
  6  3  1  0  0  0  0
  7 21  1  1  0  0  0
  7 11  1  0  0  0  0
  9  3  1  0  0  0  0
 10  7  1  0  0  0  0
 11 16  1  0  0  0  0
 12  4  2  0  0  0  0
 13 18  1  0  0  0  0
 14 10  1  0  0  0  0
 14  4  1  0  0  0  0
 15  5  2  0  0  0  0
 15 14  1  0  0  0  0
 16  8  2  0  0  0  0
 17  8  1  0  0  0  0
 17 18  1  0  0  0  0
 19 20  1  0  0  0  0
 19  5  1  0  0  0  0
 22 28  2  0  0  0  0
 22 31  1  0  0  0  0
 23 30  2  0  0  0  0
 24 25  1  0  0  0  0
 26 22  1  0  0  0  0
 27 21  1  0  0  0  0
 27 25  2  0  0  0  0
 28 23  1  0  0  0  0
 29 30  1  0  0  0  0
 29 24  2  0  0  0  0
 30 27  1  0  0  0  0
 31 29  1  0  0  0  0
M  END
>  <MODEL>
6

>  <REMARK>
 VINA RESULT:      -9.7      2.851      5.906
  Name = 
  3 active torsions:
  status: ('A' for Active; 'I' for Inactive)
    1  A    between atoms: C_2  and  C_13
    2  A    between atoms: C_9  and  C_23
    3  A    between atoms: C_15  and  C_23
                            x       y       z     vdW  Elec       q    Type
                         _______ _______ _______ _____ _____    ______ ____

>  <TORSDO>
F 3

$$$$
=
 OpenBabel10272400293D

 31 36  0  0  1  0  0  0  0  0999 V2000
  185.6590  178.4190  142.8910 C   0  0  0  0  0  0  0  0  0  0  0  0
  186.0440  178.3900  144.2500 C   0  0  0  0  0  0  0  0  0  0  0  0
  187.6470  177.6290  146.0070 C   0  0  0  0  0  0  0  0  0  0  0  0
  186.6080  178.3280  141.7610 C   0  0  0  0  0  0  0  0  0  0  0  0
  188.2870  178.0780  140.4220 C   0  0  0  0  0  0  0  0  0  0  0  0
  187.4910  178.3150  144.6750 C   0  0  0  0  0  2  0  0  0  0  0  0
  183.8240  178.4890  141.1230 C   0  0  1  0  0  3  0  0  0  0  0  0
  183.7160  178.6080  144.8800 C   0  0  0  0  0  3  0  0  0  0  0  0
  188.7830  176.9360  146.2730 F   0  0  0  0  0  0  0  0  0  0  0  0
  184.8780  179.0150  140.1330 C   0  0  0  0  0  2  0  0  0  0  0  0
  184.2890  178.5590  142.5690 C   0  0  0  0  0  0  0  0  0  0  0  0
  187.9570  178.0100  141.7710 C   0  0  0  0  0  3  0  0  0  0  0  0
  186.6900  177.7140  146.9420 C   0  0  0  0  0  3  0  0  0  0  0  0
  186.2060  178.5450  140.5000 N   0  0  0  0  0  0  0  0  0  0  0  0
  187.2230  178.4230  139.6700 N   0  0  0  0  0  0  0  0  0  0  0  0
  183.3660  178.6270  143.5690 N   0  0  0  0  0  0  0  0  0  0  0  0
  185.0540  178.4880  145.2460 C   0  0  0  0  0  0  0  0  0  0  0  0
  185.4350  178.5110  146.6990 C   0  0  0  0  0  2  0  0  0  0  0  0
  189.6520  177.8700  139.8680 C   0  0  0  0  0  2  0  0  0  0  0  0
  190.4130  176.8790  140.7270 C   0  0  0  0  0  1  0  0  0  0  0  0
  182.5100  179.2320  140.9170 C   0  0  0  0  0  2  0  0  0  0  0  0
  180.6570  181.3990  136.4570 C   0  0  0  0  0  0  0  0  0  0  0  0
  181.5860  181.4000  138.7260 C   0  0  0  0  0  3  0  0  0  0  0  0
  181.2980  178.0060  137.7330 N   0  0  0  0  0  0  0  0  0  0  0  0
  181.7990  177.8250  138.9530 N   0  0  0  0  0  2  0  0  0  0  0  0
  180.1470  182.1570  135.2850 C   0  0  0  0  0  1  0  0  0  0  0  0
  182.0040  179.0330  139.5260 C   0  0  0  0  0  0  0  0  0  0  0  0
  181.1000  182.0970  137.6050 C   0  0  0  0  0  3  0  0  0  0  0  0
  181.1820  179.3320  137.5420 C   0  0  0  0  0  0  0  0  0  0  0  0
  181.6100  180.0100  138.6460 C   0  0  0  0  0  0  0  0  0  0  0  0
  180.6940  179.9910  136.4170 C   0  0  0  0  0  3  0  0  0  0  0  0
  1  2  1  0  0  0  0
  2  6  1  0  0  0  0
  2 17  2  0  0  0  0
  3  9  1  0  0  0  0
  3 13  2  0  0  0  0
  4 12  2  0  0  0  0
  4  1  1  0  0  0  0
  5 12  1  0  0  0  0
  6  3  1  0  0  0  0
  7 21  1  1  0  0  0
  7 11  1  0  0  0  0
  8 17  1  0  0  0  0
 10 14  1  0  0  0  0
 10  7  1  0  0  0  0
 11  1  2  0  0  0  0
 11 16  1  0  0  0  0
 14  4  1  0  0  0  0
 15  5  2  0  0  0  0
 15 14  1  0  0  0  0
 16  8  2  0  0  0  0
 17 18  1  0  0  0  0
 18 13  1  0  0  0  0
 19  5  1  0  0  0  0
 19 20  1  0  0  0  0
 22 28  1  0  0  0  0
 24 25  1  0  0  0  0
 25 27  1  0  0  0  0
 26 22  1  0  0  0  0
 27 21  1  0  0  0  0
 28 23  2  0  0  0  0
 29 24  2  0  0  0  0
 29 30  1  0  0  0  0
 30 23  1  0  0  0  0
 30 27  2  0  0  0  0
 31 22  2  0  0  0  0
 31 29  1  0  0  0  0
M  END
>  <MODEL>
7

>  <REMARK>
 VINA RESULT:      -9.4      3.982      6.087
  Name = 
  3 active torsions:
  status: ('A' for Active; 'I' for Inactive)
    1  A    between atoms: C_2  and  C_13
    2  A    between atoms: C_9  and  C_23
    3  A    between atoms: C_15  and  C_23
                            x       y       z     vdW  Elec       q    Type
                         _______ _______ _______ _____ _____    ______ ____

>  <TORSDO>
F 3

$$$$
=
 OpenBabel10272400293D

 31 36  0  0  1  0  0  0  0  0999 V2000
  188.6220  177.6640  143.8440 C   0  0  0  0  0  0  0  0  0  0  0  0
  189.4390  177.3940  144.9650 C   0  0  0  0  0  0  0  0  0  0  0  0
  191.3630  176.1550  145.9650 C   0  0  0  0  0  0  0  0  0  0  0  0
  189.0850  177.5710  142.4430 C   0  0  0  0  0  0  0  0  0  0  0  0
  190.1150  177.2330  140.5730 C   0  0  0  0  0  0  0  0  0  0  0  0
  190.8980  177.0290  144.8290 C   0  0  0  0  0  2  0  0  0  0  0  0
  186.3440  178.2660  142.8730 C   0  0  1  0  0  3  0  0  0  0  0  0
  187.5640  177.9010  146.4110 C   0  0  0  0  0  3  0  0  0  0  0  0
  192.3600  175.2580  145.7540 F   0  0  0  0  0  0  0  0  0  0  0  0
  187.0740  178.7400  141.6040 C   0  0  0  0  0  2  0  0  0  0  0  0
  187.2830  178.0670  144.0520 C   0  0  0  0  0  0  0  0  0  0  0  0
  190.2630  177.0400  141.9410 C   0  0  0  0  0  3  0  0  0  0  0  0
  190.8250  176.2700  147.1880 C   0  0  0  0  0  3  0  0  0  0  0  0
  188.3260  178.0170  141.4320 N   0  0  0  0  0  0  0  0  0  0  0  0
  188.9480  177.8420  140.2830 N   0  0  0  0  0  0  0  0  0  0  0  0
  186.7950  178.1500  145.3210 N   0  0  0  0  0  0  0  0  0  0  0  0
  188.8930  177.5170  146.2570 C   0  0  0  0  0  0  0  0  0  0  0  0
  189.7480  177.2850  147.4700 C   0  0  0  0  0  2  0  0  0  0  0  0
  191.1350  176.8810  139.5480 C   0  0  0  0  0  2  0  0  0  0  0  0
  190.5160  176.9320  138.1650 C   0  0  0  0  0  1  0  0  0  0  0  0
  185.2160  179.2330  143.2080 C   0  0  0  0  0  2  0  0  0  0  0  0
  182.4980  178.6230  138.7070 C   0  0  0  0  0  0  0  0  0  0  0  0
  184.4550  179.1590  140.0830 C   0  0  0  0  0  3  0  0  0  0  0  0
  181.8740  178.1690  142.3070 N   0  0  0  0  0  0  0  0  0  0  0  0
  182.8320  178.4210  143.1970 N   0  0  0  0  0  0  0  0  0  0  0  0
  181.8710  178.5180  137.3640 C   0  0  0  0  0  1  0  0  0  0  0  0
  183.9470  178.8150  142.5410 C   0  0  0  0  0  0  0  0  0  0  0  0
  183.8410  179.0520  138.8210 C   0  0  0  0  0  3  0  0  0  0  0  0
  182.3890  178.4120  141.0880 C   0  0  0  0  0  0  0  0  0  0  0  0
  183.6850  178.8240  141.1930 C   0  0  0  0  0  0  0  0  0  0  0  0
  181.7510  178.2970  139.8560 C   0  0  0  0  0  2  0  0  0  0  0  0
  1 11  2  0  0  0  0
  1  2  1  0  0  0  0
  2 17  2  0  0  0  0
  3 13  2  0  0  0  0
  4  1  1  0  0  0  0
  5 12  1  0  0  0  0
  6  2  1  0  0  0  0
  6  3  1  0  0  0  0
  7 21  1  1  0  0  0
  7 11  1  0  0  0  0
  9  3  1  0  0  0  0
 10  7  1  0  0  0  0
 11 16  1  0  0  0  0
 12  4  2  0  0  0  0
 13 18  1  0  0  0  0
 14 10  1  0  0  0  0
 14  4  1  0  0  0  0
 15  5  2  0  0  0  0
 15 14  1  0  0  0  0
 16  8  2  0  0  0  0
 17  8  1  0  0  0  0
 17 18  1  0  0  0  0
 19  5  1  0  0  0  0
 20 19  1  0  0  0  0
 22 28  2  0  0  0  0
 22 31  1  0  0  0  0
 23 30  2  0  0  0  0
 24 25  1  0  0  0  0
 26 22  1  0  0  0  0
 27 25  2  0  0  0  0
 27 21  1  0  0  0  0
 28 23  1  0  0  0  0
 29 30  1  0  0  0  0
 29 24  2  0  0  0  0
 30 27  1  0  0  0  0
 31 29  1  0  0  0  0
M  END
>  <MODEL>
8

>  <REMARK>
 VINA RESULT:      -9.1      2.569      5.162
  Name = 
  3 active torsions:
  status: ('A' for Active; 'I' for Inactive)
    1  A    between atoms: C_2  and  C_13
    2  A    between atoms: C_9  and  C_23
    3  A    between atoms: C_15  and  C_23
                            x       y       z     vdW  Elec       q    Type
                         _______ _______ _______ _____ _____    ______ ____

>  <TORSDO>
F 3

$$$$
=
 OpenBabel10272400293D

 31 36  0  0  1  0  0  0  0  0999 V2000
  188.9980  177.6660  143.6890 C   0  0  0  0  0  0  0  0  0  0  0  0
  189.2360  177.4120  145.0580 C   0  0  0  0  0  0  0  0  0  0  0  0
  188.5490  177.7010  147.4420 C   0  0  0  0  0  0  0  0  0  0  0  0
  187.6560  177.8860  143.1100 C   0  0  0  0  0  0  0  0  0  0  0  0
  185.5650  178.2390  142.6880 C   0  0  0  0  0  0  0  0  0  0  0  0
  188.1130  177.2880  146.0610 C   0  0  0  0  0  2  0  0  0  0  0  0
  189.8920  178.0750  141.3370 C   0  0  1  0  0  3  0  0  0  0  0  0
  191.6070  177.2730  144.5870 C   0  0  0  0  0  3  0  0  0  0  0  0
  187.6420  178.2370  148.2980 F   0  0  0  0  0  0  0  0  0  0  0  0
  188.5120  177.6560  140.8020 C   0  0  0  0  0  2  0  0  0  0  0  0
  190.0950  177.7010  142.7980 C   0  0  0  0  0  0  0  0  0  0  0  0
  186.4440  178.0840  143.7530 C   0  0  0  0  0  3  0  0  0  0  0  0
  189.8160  177.5240  147.8460 C   0  0  0  0  0  3  0  0  0  0  0  0
  187.4740  177.9380  141.7830 N   0  0  0  0  0  0  0  0  0  0  0  0
  186.2000  178.1270  141.5040 N   0  0  0  0  0  0  0  0  0  0  0  0
  191.3580  177.5260  143.2770 N   0  0  0  0  0  0  0  0  0  0  0  0
  190.5570  177.2140  145.5000 C   0  0  0  0  0  0  0  0  0  0  0  0
  190.8390  176.8920  146.9400 C   0  0  0  0  0  2  0  0  0  0  0  0
  184.0950  178.4320  142.8180 C   0  0  0  0  0  2  0  0  0  0  0  0
  183.7450  178.7880  144.2480 C   0  0  0  0  0  1  0  0  0  0  0  0
  190.9860  177.4930  140.4500 C   0  0  0  0  0  2  0  0  0  0  0  0
  188.0590  178.0280  136.0720 C   0  0  0  0  0  0  0  0  0  0  0  0
  189.2140  178.7870  138.0970 C   0  0  0  0  0  3  0  0  0  0  0  0
  189.8070  175.3000  137.8200 N   0  0  0  0  0  0  0  0  0  0  0  0
  190.4820  175.5390  138.9430 N   0  0  0  0  0  2  0  0  0  0  0  0
  187.2130  178.3390  134.8910 C   0  0  0  0  0  1  0  0  0  0  0  0
  190.3950  176.8560  139.2350 C   0  0  0  0  0  0  0  0  0  0  0  0
  188.4150  179.0600  136.9710 C   0  0  0  0  0  3  0  0  0  0  0  0
  189.2890  176.4720  137.4100 C   0  0  0  0  0  0  0  0  0  0  0  0
  189.6310  177.4710  138.2740 C   0  0  0  0  0  0  0  0  0  0  0  0
  188.4970  176.7070  136.2890 C   0  0  0  0  0  3  0  0  0  0  0  0
  1  2  1  0  0  0  0
  2 17  2  0  0  0  0
  2  6  1  0  0  0  0
  3 13  2  0  0  0  0
  3  9  1  0  0  0  0
  4  1  1  0  0  0  0
  4 12  2  0  0  0  0
  5 19  1  0  0  0  0
  5 12  1  0  0  0  0
  6  3  1  0  0  0  0
  7 21  1  6  0  0  0
  7 11  1  0  0  0  0
  8 17  1  0  0  0  0
 10  7  1  0  0  0  0
 10 14  1  0  0  0  0
 11 16  1  0  0  0  0
 11  1  2  0  0  0  0
 14  4  1  0  0  0  0
 15 14  1  0  0  0  0
 15  5  2  0  0  0  0
 16  8  2  0  0  0  0
 17 18  1  0  0  0  0
 18 13  1  0  0  0  0
 19 20  1  0  0  0  0
 22 31  2  0  0  0  0
 22 28  1  0  0  0  0
 23 30  1  0  0  0  0
 24 25  1  0  0  0  0
 25 27  1  0  0  0  0
 26 22  1  0  0  0  0
 27 21  1  0  0  0  0
 28 23  2  0  0  0  0
 29 24  2  0  0  0  0
 29 30  1  0  0  0  0
 30 27  2  0  0  0  0
 31 29  1  0  0  0  0
M  END
>  <MODEL>
9

>  <REMARK>
 VINA RESULT:      -9.0      1.552      1.914
  Name = 
  3 active torsions:
  status: ('A' for Active; 'I' for Inactive)
    1  A    between atoms: C_2  and  C_13
    2  A    between atoms: C_9  and  C_23
    3  A    between atoms: C_15  and  C_23
                            x       y       z     vdW  Elec       q    Type
                         _______ _______ _______ _____ _____    ______ ____

>  <TORSDO>
F 3

$$$$
