=
 OpenBabel10272400433D

 25 27  0  0  1  0  0  0  0  0999 V2000
  187.1180  177.7110  146.4190 C   0  0  1  0  0  3  0  0  0  0  0  0
  188.4620  177.1200  145.9660 C   0  0  1  0  0  3  0  0  0  0  0  0
  188.6060  178.9370  148.1030 C   0  0  0  0  0  2  0  0  0  0  0  0
  189.1350  177.5450  148.4430 C   0  0  0  0  0  2  0  0  0  0  0  0
  190.6990  176.3440  146.8860 C   0  0  0  0  0  0  0  0  0  0  0  0
  191.2700  175.4320  147.4600 O   0  0  0  0  0  0  0  0  0  0  0  0
  189.2580  178.1100  145.1050 C   0  0  0  0  0  2  0  0  0  0  0  0
  187.2300  178.8630  147.4330 C   0  0  0  0  0  2  0  0  0  0  0  0
  191.4560  177.2050  145.9230 C   0  0  0  0  0  2  0  0  0  0  0  0
  190.5990  177.5070  144.6970 C   0  0  2  0  0  3  0  0  0  0  0  0
  189.2600  176.6410  147.2030 C   0  0  2  0  0  3  0  0  0  0  0  0
  186.1460  177.9650  145.3000 C   0  0  0  0  0  0  0  0  0  0  0  0
  184.4410  178.4500  143.1240 C   0  0  0  0  0  3  0  0  0  0  0  0
  184.8390  178.4530  145.5160 C   0  0  0  0  0  0  0  0  0  0  0  0
  183.9960  178.6910  144.4260 C   0  0  0  0  0  3  0  0  0  0  0  0
  185.7340  177.9730  142.9070 C   0  0  0  0  0  3  0  0  0  0  0  0
  184.3670  178.7020  146.7990 O   0  0  0  0  0  1  0  0  0  0  0  0
  186.5830  177.7330  143.9910 C   0  0  0  0  0  3  0  0  0  0  0  0
  191.3370  178.4120  143.7150 C   0  0  0  0  0  2  0  0  0  0  0  0
  191.4620  177.7880  142.3280 C   0  0  0  0  0  2  0  0  0  0  0  0
  190.0880  177.4820  141.7570 C   0  0  1  0  0  3  0  0  0  0  0  0
  189.2520  178.5620  141.9710 F   0  0  0  0  0  0  0  0  0  0  0  0
  190.1750  177.2000  140.2940 C   0  0  0  0  0  0  0  0  0  0  0  0
  189.7060  178.1260  139.3710 O   0  0  0  0  0  0  0  0  0  0  0  0
  190.6890  176.1230  139.8940 O   0  0  0  0  0  1  0  0  0  0  0  0
  1 12  1  6  0  0  0
  1  8  1  0  0  0  0
  2  7  1  1  0  0  0
  2  1  1  0  0  0  0
  2 11  1  0  0  0  0
  3  4  1  0  0  0  0
  5 11  1  0  0  0  0
  5  6  2  0  0  0  0
  8  3  1  0  0  0  0
  9  5  1  0  0  0  0
 10 19  1  6  0  0  0
 10  7  1  0  0  0  0
 10  9  1  0  0  0  0
 11  4  1  1  0  0  0
 12 14  1  0  0  0  0
 13 15  1  0  0  0  0
 14 17  1  0  0  0  0
 15 14  2  0  0  0  0
 16 13  2  0  0  0  0
 16 18  1  0  0  0  0
 18 12  2  0  0  0  0
 20 19  1  0  0  0  0
 21 22  1  6  0  0  0
 21 20  1  0  0  0  0
 23 21  1  0  0  0  0
 24 23  2  0  0  0  0
 25 23  1  0  0  0  0
M  END
>  <MODEL>
1

>  <REMARK>
 VINA RESULT:      -9.2      0.000      0.000
  Name = 
  5 active torsions:
  status: ('A' for Active; 'I' for Inactive)
    1  A    between atoms: C_1  and  C_5
    2  A    between atoms: C_2  and  C_21
    3  A    between atoms: C_6  and  C_15
    4  A    between atoms: C_6  and  C_23
    5  A    between atoms: C_15  and  C_21
                            x       y       z     vdW  Elec       q    Type
                         _______ _______ _______ _____ _____    ______ ____

>  <TORSDO>
F 5

$$$$
=
 OpenBabel10272400433D

 25 27  0  0  1  0  0  0  0  0999 V2000
  190.0030  177.3690  144.7150 C   0  0  1  0  0  3  0  0  0  0  0  0
  189.4000  177.0370  143.3420 C   0  0  1  0  0  3  0  0  0  0  0  0
  191.5340  178.8640  143.3090 C   0  0  0  0  0  2  0  0  0  0  0  0
  191.7960  177.5980  142.4950 C   0  0  0  0  0  2  0  0  0  0  0  0
  190.0620  176.7000  140.9130 C   0  0  0  0  0  0  0  0  0  0  0  0
  190.5590  175.9160  140.1220 O   0  0  0  0  0  0  0  0  0  0  0  0
  188.4720  178.1520  142.8430 C   0  0  0  0  0  2  0  0  0  0  0  0
  191.0150  178.5290  144.7110 C   0  0  0  0  0  2  0  0  0  0  0  0
  189.0350  177.6810  140.4390 C   0  0  0  0  0  2  0  0  0  0  0  0
  187.9130  177.8090  141.4650 C   0  0  2  0  0  3  0  0  0  0  0  0
  190.5370  176.7250  142.3380 C   0  0  2  0  0  3  0  0  0  0  0  0
  189.0000  177.4280  145.8330 C   0  0  0  0  0  0  0  0  0  0  0  0
  187.0490  177.6250  147.8420 C   0  0  0  0  0  3  0  0  0  0  0  0
  189.3310  177.1480  147.1770 C   0  0  0  0  0  0  0  0  0  0  0  0
  188.3530  177.2480  148.1710 C   0  0  0  0  0  3  0  0  0  0  0  0
  186.7190  177.9080  146.5150 C   0  0  0  0  0  3  0  0  0  0  0  0
  190.6200  176.7700  147.5350 O   0  0  0  0  0  1  0  0  0  0  0  0
  187.6920  177.8120  145.5160 C   0  0  0  0  0  3  0  0  0  0  0  0
  186.8690  178.8290  141.0210 C   0  0  0  0  0  2  0  0  0  0  0  0
  185.9120  179.2120  142.1460 C   0  0  0  0  0  2  0  0  0  0  0  0
  184.9520  178.0710  142.4390 C   0  0  1  0  0  3  0  0  0  0  0  0
  184.7080  178.0160  143.7990 F   0  0  0  0  0  0  0  0  0  0  0  0
  183.6650  178.2630  141.7080 C   0  0  0  0  0  0  0  0  0  0  0  0
  183.5330  177.8350  140.3930 O   0  0  0  0  0  0  0  0  0  0  0  0
  182.6890  178.8020  142.2920 O   0  0  0  0  0  1  0  0  0  0  0  0
  1 12  1  1  0  0  0
  2  7  1  6  0  0  0
  2  1  1  0  0  0  0
  3  8  1  0  0  0  0
  4  3  1  0  0  0  0
  5 11  1  0  0  0  0
  6  5  2  0  0  0  0
  8  1  1  0  0  0  0
  9  5  1  0  0  0  0
  9 10  1  0  0  0  0
 10 19  1  6  0  0  0
 10  7  1  0  0  0  0
 11  4  1  6  0  0  0
 11  2  1  0  0  0  0
 12 14  1  0  0  0  0
 13 15  1  0  0  0  0
 14 17  1  0  0  0  0
 14 15  2  0  0  0  0
 16 13  2  0  0  0  0
 18 12  2  0  0  0  0
 18 16  1  0  0  0  0
 19 20  1  0  0  0  0
 20 21  1  0  0  0  0
 21 22  1  1  0  0  0
 23 25  1  0  0  0  0
 23 21  1  0  0  0  0
 24 23  2  0  0  0  0
M  END
>  <MODEL>
2

>  <REMARK>
 VINA RESULT:      -8.5      2.213      5.379
  Name = 
  5 active torsions:
  status: ('A' for Active; 'I' for Inactive)
    1  A    between atoms: C_1  and  C_5
    2  A    between atoms: C_2  and  C_21
    3  A    between atoms: C_6  and  C_15
    4  A    between atoms: C_6  and  C_23
    5  A    between atoms: C_15  and  C_21
                            x       y       z     vdW  Elec       q    Type
                         _______ _______ _______ _____ _____    ______ ____

>  <TORSDO>
F 5

$$$$
=
 OpenBabel10272400433D

 25 27  0  0  1  0  0  0  0  0999 V2000
  186.8800  177.5410  144.7540 C   0  0  1  0  0  3  0  0  0  0  0  0
  187.6260  176.9950  143.5270 C   0  0  1  0  0  3  0  0  0  0  0  0
  189.2290  178.3080  145.4240 C   0  0  0  0  0  2  0  0  0  0  0  0
  189.6240  176.8510  145.1870 C   0  0  0  0  0  2  0  0  0  0  0  0
  189.8350  175.9350  142.8570 C   0  0  0  0  0  0  0  0  0  0  0  0
  190.4740  174.8960  142.8540 O   0  0  0  0  0  0  0  0  0  0  0  0
  187.9540  178.1060  142.5200 C   0  0  0  0  0  2  0  0  0  0  0  0
  187.7230  178.4440  145.6720 C   0  0  0  0  0  2  0  0  0  0  0  0
  190.0540  176.9440  141.7720 C   0  0  0  0  0  2  0  0  0  0  0  0
  188.7210  177.5400  141.3290 C   0  0  2  0  0  3  0  0  0  0  0  0
  188.8890  176.2270  143.9880 C   0  0  2  0  0  3  0  0  0  0  0  0
  185.5060  178.0730  144.4560 C   0  0  0  0  0  0  0  0  0  0  0  0
  182.9830  179.0940  143.7690 C   0  0  0  0  0  3  0  0  0  0  0  0
  184.6300  178.5390  145.4600 C   0  0  0  0  0  0  0  0  0  0  0  0
  183.3750  179.0450  145.1090 C   0  0  0  0  0  3  0  0  0  0  0  0
  183.8490  178.6380  142.7730 C   0  0  0  0  0  3  0  0  0  0  0  0
  184.9910  178.5040  146.8020 O   0  0  0  0  0  1  0  0  0  0  0  0
  185.1050  178.1320  143.1160 C   0  0  0  0  0  3  0  0  0  0  0  0
  188.9200  178.5970  140.2460 C   0  0  0  0  0  2  0  0  0  0  0  0
  189.5880  178.0320  138.9950 C   0  0  0  0  0  2  0  0  0  0  0  0
  188.8990  178.5480  137.7440 C   0  0  1  0  0  3  0  0  0  0  0  0
  189.6270  178.1720  136.6310 F   0  0  0  0  0  0  0  0  0  0  0  0
  187.5130  178.0030  137.6420 C   0  0  0  0  0  0  0  0  0  0  0  0
  187.2980  176.6310  137.6130 O   0  0  0  0  0  1  0  0  0  0  0  0
  186.5330  178.7910  137.5970 O   0  0  0  0  0  0  0  0  0  0  0  0
  1 12  1  6  0  0  0
  1  8  1  0  0  0  0
  2  7  1  6  0  0  0
  2 11  1  0  0  0  0
  2  1  1  0  0  0  0
  3  8  1  0  0  0  0
  4  3  1  0  0  0  0
  5 11  1  0  0  0  0
  6  5  2  0  0  0  0
  9  5  1  0  0  0  0
 10 19  1  6  0  0  0
 10  9  1  0  0  0  0
 10  7  1  0  0  0  0
 11  4  1  1  0  0  0
 12 14  1  0  0  0  0
 13 15  1  0  0  0  0
 14 17  1  0  0  0  0
 15 14  2  0  0  0  0
 16 18  1  0  0  0  0
 16 13  2  0  0  0  0
 18 12  2  0  0  0  0
 20 19  1  0  0  0  0
 21 22  1  6  0  0  0
 21 20  1  0  0  0  0
 23 21  1  0  0  0  0
 24 23  1  0  0  0  0
 25 23  2  0  0  0  0
M  END
>  <MODEL>
3

>  <REMARK>
 VINA RESULT:      -8.3      2.258      3.305
  Name = 
  5 active torsions:
  status: ('A' for Active; 'I' for Inactive)
    1  A    between atoms: C_1  and  C_5
    2  A    between atoms: C_2  and  C_21
    3  A    between atoms: C_6  and  C_15
    4  A    between atoms: C_6  and  C_23
    5  A    between atoms: C_15  and  C_21
                            x       y       z     vdW  Elec       q    Type
                         _______ _______ _______ _____ _____    ______ ____

>  <TORSDO>
F 5

$$$$
=
 OpenBabel10272400433D

 25 27  0  0  1  0  0  0  0  0999 V2000
  185.7390  178.1210  145.2520 C   0  0  1  0  0  3  0  0  0  0  0  0
  187.1580  177.5320  145.2720 C   0  0  1  0  0  3  0  0  0  0  0  0
  186.6450  179.5050  147.2050 C   0  0  0  0  0  2  0  0  0  0  0  0
  187.0500  178.1550  147.7960 C   0  0  0  0  0  2  0  0  0  0  0  0
  189.0140  176.8840  146.8790 C   0  0  0  0  0  0  0  0  0  0  0  0
  189.3870  176.0320  147.6690 O   0  0  0  0  0  0  0  0  0  0  0  0
  188.1750  178.4760  144.6160 C   0  0  0  0  0  2  0  0  0  0  0  0
  185.5360  179.3470  146.1600 C   0  0  0  0  0  2  0  0  0  0  0  0
  190.0250  177.6910  146.1260 C   0  0  0  0  0  2  0  0  0  0  0  0
  189.5780  177.8800  144.6790 C   0  0  2  0  0  3  0  0  0  0  0  0
  187.5460  177.1670  146.7250 C   0  0  2  0  0  3  0  0  0  0  0  0
  185.1490  178.2670  143.8760 C   0  0  0  0  0  0  0  0  0  0  0  0
  184.1780  178.5690  141.2600 C   0  0  0  0  0  3  0  0  0  0  0  0
  183.7870  178.5630  143.6530 C   0  0  0  0  0  0  0  0  0  0  0  0
  183.3120  178.7100  142.3460 C   0  0  0  0  0  3  0  0  0  0  0  0
  185.5270  178.2810  141.4770 C   0  0  0  0  0  3  0  0  0  0  0  0
  182.9000  178.7090  144.7130 O   0  0  0  0  0  1  0  0  0  0  0  0
  186.0100  178.1340  142.7800 C   0  0  0  0  0  3  0  0  0  0  0  0
  190.5760  178.7290  143.8970 C   0  0  0  0  0  2  0  0  0  0  0  0
  191.3280  177.9220  142.8420 C   0  0  0  0  0  2  0  0  0  0  0  0
  190.3600  177.3490  141.8210 C   0  0  1  0  0  3  0  0  0  0  0  0
  189.3690  178.2760  141.5590 F   0  0  0  0  0  0  0  0  0  0  0  0
  191.0700  177.0060  140.5540 C   0  0  0  0  0  0  0  0  0  0  0  0
  190.4800  176.1580  139.6260 O   0  0  0  0  0  0  0  0  0  0  0  0
  192.2040  177.5000  140.3200 O   0  0  0  0  0  1  0  0  0  0  0  0
  1 12  1  6  0  0  0
  1  2  1  0  0  0  0
  1  8  1  0  0  0  0
  2  7  1  1  0  0  0
  2 11  1  0  0  0  0
  3  4  1  0  0  0  0
  5  6  2  0  0  0  0
  7 10  1  0  0  0  0
  8  3  1  0  0  0  0
  9  5  1  0  0  0  0
 10 19  1  6  0  0  0
 10  9  1  0  0  0  0
 11  5  1  0  0  0  0
 11  4  1  1  0  0  0
 13 16  2  0  0  0  0
 13 15  1  0  0  0  0
 14 12  1  0  0  0  0
 14 17  1  0  0  0  0
 15 14  2  0  0  0  0
 16 18  1  0  0  0  0
 18 12  2  0  0  0  0
 20 19  1  0  0  0  0
 21 22  1  6  0  0  0
 21 20  1  0  0  0  0
 23 21  1  0  0  0  0
 24 23  2  0  0  0  0
 25 23  1  0  0  0  0
M  END
>  <MODEL>
4

>  <REMARK>
 VINA RESULT:      -8.1      1.223      1.721
  Name = 
  5 active torsions:
  status: ('A' for Active; 'I' for Inactive)
    1  A    between atoms: C_1  and  C_5
    2  A    between atoms: C_2  and  C_21
    3  A    between atoms: C_6  and  C_15
    4  A    between atoms: C_6  and  C_23
    5  A    between atoms: C_15  and  C_21
                            x       y       z     vdW  Elec       q    Type
                         _______ _______ _______ _____ _____    ______ ____

>  <TORSDO>
F 5

$$$$
=
 OpenBabel10272400433D

 25 27  0  0  1  0  0  0  0  0999 V2000
  189.4230  177.7550  145.9620 C   0  0  1  0  0  3  0  0  0  0  0  0
  188.1020  178.5380  145.9130 C   0  0  1  0  0  3  0  0  0  0  0  0
  188.2320  176.5170  147.8600 C   0  0  0  0  0  2  0  0  0  0  0  0
  187.9930  177.9120  148.4360 C   0  0  0  0  0  2  0  0  0  0  0  0
  186.2770  179.4460  147.4270 C   0  0  0  0  0  0  0  0  0  0  0  0
  185.9880  180.3440  148.2010 O   0  0  0  0  0  0  0  0  0  0  0  0
  186.9970  177.7460  145.2020 C   0  0  0  0  0  2  0  0  0  0  0  0
  189.4040  176.5150  146.8730 C   0  0  0  0  0  2  0  0  0  0  0  0
  185.2020  178.7880  146.6190 C   0  0  0  0  0  2  0  0  0  0  0  0
  185.6910  178.5340  145.1960 C   0  0  2  0  0  3  0  0  0  0  0  0
  187.6960  178.9580  147.3470 C   0  0  2  0  0  3  0  0  0  0  0  0
  190.0560  177.5240  144.6180 C   0  0  0  0  0  0  0  0  0  0  0  0
  191.2320  176.9540  142.1340 C   0  0  0  0  0  3  0  0  0  0  0  0
  190.8190  178.5060  143.9500 C   0  0  0  0  0  0  0  0  0  0  0  0
  191.4010  178.2140  142.7130 C   0  0  0  0  0  3  0  0  0  0  0  0
  190.4820  175.9790  142.7930 C   0  0  0  0  0  3  0  0  0  0  0  0
  191.0050  179.7680  144.5010 O   0  0  0  0  0  1  0  0  0  0  0  0
  189.8980  176.2630  144.0310 C   0  0  0  0  0  3  0  0  0  0  0  0
  184.6240  177.8330  144.3600 C   0  0  0  0  0  2  0  0  0  0  0  0
  184.0330  178.7420  143.2880 C   0  0  0  0  0  2  0  0  0  0  0  0
  184.2050  178.1240  141.9110 C   0  0  1  0  0  3  0  0  0  0  0  0
  182.9940  178.1440  141.2450 F   0  0  0  0  0  0  0  0  0  0  0  0
  185.2240  178.8740  141.1190 C   0  0  0  0  0  0  0  0  0  0  0  0
  184.8570  179.5410  139.9560 O   0  0  0  0  0  0  0  0  0  0  0  0
  186.4180  178.9150  141.5140 O   0  0  0  0  0  1  0  0  0  0  0  0
  1 12  1  6  0  0  0
  1  8  1  0  0  0  0
  2  7  1  1  0  0  0
  2  1  1  0  0  0  0
  2 11  1  0  0  0  0
  3  4  1  0  0  0  0
  5  6  2  0  0  0  0
  8  3  1  0  0  0  0
  9  5  1  0  0  0  0
 10 19  1  6  0  0  0
 10  7  1  0  0  0  0
 10  9  1  0  0  0  0
 11  5  1  0  0  0  0
 11  4  1  1  0  0  0
 13 15  2  0  0  0  0
 13 16  1  0  0  0  0
 14 17  1  0  0  0  0
 14 12  2  0  0  0  0
 15 14  1  0  0  0  0
 16 18  2  0  0  0  0
 18 12  1  0  0  0  0
 20 19  1  0  0  0  0
 21 22  1  6  0  0  0
 21 20  1  0  0  0  0
 23 25  1  0  0  0  0
 23 21  1  0  0  0  0
 24 23  2  0  0  0  0
M  END
>  <MODEL>
5

>  <REMARK>
 VINA RESULT:      -7.9      2.424      5.293
  Name = 
  5 active torsions:
  status: ('A' for Active; 'I' for Inactive)
    1  A    between atoms: C_1  and  C_5
    2  A    between atoms: C_2  and  C_21
    3  A    between atoms: C_6  and  C_15
    4  A    between atoms: C_6  and  C_23
    5  A    between atoms: C_15  and  C_21
                            x       y       z     vdW  Elec       q    Type
                         _______ _______ _______ _____ _____    ______ ____

>  <TORSDO>
F 5

$$$$
=
 OpenBabel10272400433D

 25 27  0  0  1  0  0  0  0  0999 V2000
  188.2650  177.3930  145.1590 C   0  0  1  0  0  3  0  0  0  0  0  0
  189.1340  176.6990  144.0990 C   0  0  1  0  0  3  0  0  0  0  0  0
  190.5070  178.4250  145.8400 C   0  0  0  0  0  2  0  0  0  0  0  0
  191.0020  176.9800  145.8890 C   0  0  0  0  0  2  0  0  0  0  0  0
  191.4450  175.6960  143.7750 C   0  0  0  0  0  0  0  0  0  0  0  0
  192.1400  174.7180  143.9980 O   0  0  0  0  0  0  0  0  0  0  0  0
  189.4760  177.6410  142.9370 C   0  0  0  0  0  2  0  0  0  0  0  0
  188.9810  178.4970  145.9580 C   0  0  0  0  0  2  0  0  0  0  0  0
  191.6910  176.5170  142.5470 C   0  0  0  0  0  2  0  0  0  0  0  0
  190.3650  176.9340  141.9180 C   0  0  2  0  0  3  0  0  0  0  0  0
  190.3990  176.1100  144.7710 C   0  0  2  0  0  3  0  0  0  0  0  0
  186.8900  177.7690  144.6810 C   0  0  0  0  0  0  0  0  0  0  0  0
  184.3790  178.4980  143.6610 C   0  0  0  0  0  3  0  0  0  0  0  0
  185.8650  178.1960  145.5520 C   0  0  0  0  0  0  0  0  0  0  0  0
  184.6170  178.5560  145.0360 C   0  0  0  0  0  3  0  0  0  0  0  0
  185.3920  178.0820  142.7950 C   0  0  0  0  0  3  0  0  0  0  0  0
  186.0710  178.2640  146.9250 O   0  0  0  0  0  1  0  0  0  0  0  0
  186.6420  177.7210  143.3040 C   0  0  0  0  0  3  0  0  0  0  0  0
  190.5880  177.8020  140.6820 C   0  0  0  0  0  2  0  0  0  0  0  0
  189.9540  177.2050  139.4290 C   0  0  0  0  0  2  0  0  0  0  0  0
  188.5860  177.8170  139.1810 C   0  0  1  0  0  3  0  0  0  0  0  0
  188.3660  178.8310  140.0950 F   0  0  0  0  0  0  0  0  0  0  0  0
  188.4950  178.3650  137.7960 C   0  0  0  0  0  0  0  0  0  0  0  0
  188.9950  179.6280  137.5070 O   0  0  0  0  0  1  0  0  0  0  0  0
  187.9760  177.6730  136.8820 O   0  0  0  0  0  0  0  0  0  0  0  0
  1 12  1  6  0  0  0
  1  8  1  0  0  0  0
  2  7  1  6  0  0  0
  2 11  1  0  0  0  0
  2  1  1  0  0  0  0
  3  4  1  0  0  0  0
  3  8  1  0  0  0  0
  5  6  2  0  0  0  0
  5 11  1  0  0  0  0
  9  5  1  0  0  0  0
 10 19  1  6  0  0  0
 10  9  1  0  0  0  0
 10  7  1  0  0  0  0
 11  4  1  1  0  0  0
 12 14  1  0  0  0  0
 13 15  1  0  0  0  0
 14 17  1  0  0  0  0
 15 14  2  0  0  0  0
 16 18  1  0  0  0  0
 16 13  2  0  0  0  0
 18 12  2  0  0  0  0
 20 19  1  0  0  0  0
 21 20  1  0  0  0  0
 21 22  1  1  0  0  0
 23 21  1  0  0  0  0
 24 23  1  0  0  0  0
 25 23  2  0  0  0  0
M  END
>  <MODEL>
6

>  <REMARK>
 VINA RESULT:      -7.4      1.851      2.570
  Name = 
  5 active torsions:
  status: ('A' for Active; 'I' for Inactive)
    1  A    between atoms: C_1  and  C_5
    2  A    between atoms: C_2  and  C_21
    3  A    between atoms: C_6  and  C_15
    4  A    between atoms: C_6  and  C_23
    5  A    between atoms: C_15  and  C_21
                            x       y       z     vdW  Elec       q    Type
                         _______ _______ _______ _____ _____    ______ ____

>  <TORSDO>
F 5

$$$$
=
 OpenBabel10272400433D

 25 27  0  0  1  0  0  0  0  0999 V2000
  189.7950  177.4920  144.6440 C   0  0  1  0  0  3  0  0  0  0  0  0
  189.2450  177.1260  143.2570 C   0  0  1  0  0  3  0  0  0  0  0  0
  191.3550  178.9810  143.2660 C   0  0  0  0  0  2  0  0  0  0  0  0
  191.6620  177.7030  142.4850 C   0  0  0  0  0  2  0  0  0  0  0  0
  189.9970  176.7550  140.8600 C   0  0  0  0  0  0  0  0  0  0  0  0
  190.5320  175.9630  140.1010 O   0  0  0  0  0  0  0  0  0  0  0  0
  188.3210  178.2200  142.7050 C   0  0  0  0  0  2  0  0  0  0  0  0
  190.7920  178.6640  144.6550 C   0  0  0  0  0  2  0  0  0  0  0  0
  188.9750  177.7130  140.3310 C   0  0  0  0  0  2  0  0  0  0  0  0
  187.8160  177.8450  141.3150 C   0  0  2  0  0  3  0  0  0  0  0  0
  190.4210  176.8120  142.3000 C   0  0  2  0  0  3  0  0  0  0  0  0
  188.7520  177.5580  145.7250 C   0  0  0  0  0  0  0  0  0  0  0  0
  186.7190  177.7460  147.6510 C   0  0  0  0  0  3  0  0  0  0  0  0
  189.0670  177.5040  147.1000 C   0  0  0  0  0  0  0  0  0  0  0  0
  188.0480  177.5970  148.0520 C   0  0  0  0  0  3  0  0  0  0  0  0
  186.4030  177.8060  146.2920 C   0  0  0  0  0  3  0  0  0  0  0  0
  190.3800  177.3560  147.5310 O   0  0  0  0  0  1  0  0  0  0  0  0
  187.4160  177.7140  145.3340 C   0  0  0  0  0  3  0  0  0  0  0  0
  186.7750  178.8430  140.8150 C   0  0  0  0  0  2  0  0  0  0  0  0
  186.2460  178.4880  139.4290 C   0  0  0  0  0  2  0  0  0  0  0  0
  184.7280  178.5410  139.4100 C   0  0  1  0  0  3  0  0  0  0  0  0
  184.3180  179.8320  139.1300 F   0  0  0  0  0  0  0  0  0  0  0  0
  184.1800  177.6090  138.3800 C   0  0  0  0  0  0  0  0  0  0  0  0
  183.0830  176.8080  138.6710 O   0  0  0  0  0  1  0  0  0  0  0  0
  184.7060  177.5610  137.2380 O   0  0  0  0  0  0  0  0  0  0  0  0
  1  8  1  0  0  0  0
  1 12  1  1  0  0  0
  2  7  1  6  0  0  0
  2  1  1  0  0  0  0
  3  8  1  0  0  0  0
  4  3  1  0  0  0  0
  5 11  1  0  0  0  0
  6  5  2  0  0  0  0
  9  5  1  0  0  0  0
  9 10  1  0  0  0  0
 10 19  1  6  0  0  0
 10  7  1  0  0  0  0
 11  4  1  6  0  0  0
 11  2  1  0  0  0  0
 12 14  1  0  0  0  0
 13 15  1  0  0  0  0
 14 17  1  0  0  0  0
 14 15  2  0  0  0  0
 16 13  2  0  0  0  0
 18 12  2  0  0  0  0
 18 16  1  0  0  0  0
 20 19  1  0  0  0  0
 21 22  1  6  0  0  0
 21 20  1  0  0  0  0
 23 24  1  0  0  0  0
 23 21  1  0  0  0  0
 25 23  2  0  0  0  0
M  END
>  <MODEL>
7

>  <REMARK>
 VINA RESULT:      -7.1      2.790      5.279
  Name = 
  5 active torsions:
  status: ('A' for Active; 'I' for Inactive)
    1  A    between atoms: C_1  and  C_5
    2  A    between atoms: C_2  and  C_21
    3  A    between atoms: C_6  and  C_15
    4  A    between atoms: C_6  and  C_23
    5  A    between atoms: C_15  and  C_21
                            x       y       z     vdW  Elec       q    Type
                         _______ _______ _______ _____ _____    ______ ____

>  <TORSDO>
F 5

$$$$
=
 OpenBabel10272400433D

 25 27  0  0  1  0  0  0  0  0999 V2000
  189.4150  177.7120  146.2540 C   0  0  1  0  0  3  0  0  0  0  0  0
  188.1390  178.5620  146.1640 C   0  0  1  0  0  3  0  0  0  0  0  0
  188.1110  176.5530  148.1280 C   0  0  0  0  0  2  0  0  0  0  0  0
  187.9300  177.9640  148.6870 C   0  0  0  0  0  2  0  0  0  0  0  0
  186.3230  179.5760  147.6220 C   0  0  0  0  0  0  0  0  0  0  0  0
  186.0610  180.4940  148.3810 O   0  0  0  0  0  0  0  0  0  0  0  0
  187.0130  177.8220  145.4290 C   0  0  0  0  0  2  0  0  0  0  0  0
  189.3070  176.4820  147.1730 C   0  0  0  0  0  2  0  0  0  0  0  0
  185.2370  178.9680  146.7900 C   0  0  0  0  0  2  0  0  0  0  0  0
  185.7500  178.6770  145.3830 C   0  0  2  0  0  3  0  0  0  0  0  0
  187.7170  179.0150  147.5830 C   0  0  2  0  0  3  0  0  0  0  0  0
  190.0700  177.4370  144.9290 C   0  0  0  0  0  0  0  0  0  0  0  0
  191.1670  176.9430  142.3930 C   0  0  0  0  0  3  0  0  0  0  0  0
  191.2710  176.7060  144.8040 C   0  0  0  0  0  0  0  0  0  0  0  0
  191.8110  176.4650  143.5370 C   0  0  0  0  0  3  0  0  0  0  0  0
  189.9760  177.6620  142.5120 C   0  0  0  0  0  3  0  0  0  0  0  0
  191.9350  176.2180  145.9230 O   0  0  0  0  0  1  0  0  0  0  0  0
  189.4300  177.9050  143.7750 C   0  0  0  0  0  3  0  0  0  0  0  0
  184.6710  178.0250  144.5230 C   0  0  0  0  0  2  0  0  0  0  0  0
  183.3450  178.7790  144.5800 C   0  0  0  0  0  2  0  0  0  0  0  0
  182.8600  179.1090  143.1790 C   0  0  1  0  0  3  0  0  0  0  0  0
  183.4280  178.2280  142.2780 F   0  0  0  0  0  0  0  0  0  0  0  0
  181.3730  179.0150  143.1000 C   0  0  0  0  0  0  0  0  0  0  0  0
  180.6340  178.6210  144.2080 O   0  0  0  0  0  1  0  0  0  0  0  0
  180.7840  179.3080  142.0270 O   0  0  0  0  0  0  0  0  0  0  0  0
  1 12  1  6  0  0  0
  1  8  1  0  0  0  0
  2  7  1  1  0  0  0
  2  1  1  0  0  0  0
  2 11  1  0  0  0  0
  3  4  1  0  0  0  0
  5  6  2  0  0  0  0
  8  3  1  0  0  0  0
  9  5  1  0  0  0  0
 10 19  1  6  0  0  0
 10  7  1  0  0  0  0
 10  9  1  0  0  0  0
 11  5  1  0  0  0  0
 11  4  1  1  0  0  0
 13 16  2  0  0  0  0
 13 15  1  0  0  0  0
 14 12  1  0  0  0  0
 14 17  1  0  0  0  0
 15 14  2  0  0  0  0
 16 18  1  0  0  0  0
 18 12  2  0  0  0  0
 19 20  1  0  0  0  0
 21 22  1  6  0  0  0
 21 20  1  0  0  0  0
 23 21  1  0  0  0  0
 23 24  1  0  0  0  0
 25 23  2  0  0  0  0
M  END
>  <MODEL>
8

>  <REMARK>
 VINA RESULT:      -7.1      2.582      6.236
  Name = 
  5 active torsions:
  status: ('A' for Active; 'I' for Inactive)
    1  A    between atoms: C_1  and  C_5
    2  A    between atoms: C_2  and  C_21
    3  A    between atoms: C_6  and  C_15
    4  A    between atoms: C_6  and  C_23
    5  A    between atoms: C_15  and  C_21
                            x       y       z     vdW  Elec       q    Type
                         _______ _______ _______ _____ _____    ______ ____

>  <TORSDO>
F 5

$$$$
=
 OpenBabel10272400433D

 25 27  0  0  1  0  0  0  0  0999 V2000
  183.9890  178.4510  143.3760 C   0  0  1  0  0  3  0  0  0  0  0  0
  185.3860  177.8250  143.2420 C   0  0  1  0  0  3  0  0  0  0  0  0
  185.2320  180.0760  144.9160 C   0  0  0  0  0  2  0  0  0  0  0  0
  185.7230  178.8140  145.6250 C   0  0  0  0  0  2  0  0  0  0  0  0
  187.4880  177.3570  144.5880 C   0  0  0  0  0  0  0  0  0  0  0  0
  187.9860  176.6180  145.4210 O   0  0  0  0  0  0  0  0  0  0  0  0
  186.2800  178.6280  142.2880 C   0  0  0  0  0  2  0  0  0  0  0  0
  183.9570  179.8030  144.1110 C   0  0  0  0  0  2  0  0  0  0  0  0
  188.3590  178.0100  143.5600 C   0  0  0  0  0  2  0  0  0  0  0  0
  187.6680  178.0000  142.1990 C   0  0  2  0  0  3  0  0  0  0  0  0
  186.0180  177.6630  144.6460 C   0  0  2  0  0  3  0  0  0  0  0  0
  183.1700  178.4140  142.1160 C   0  0  0  0  0  0  0  0  0  0  0  0
  181.7620  178.3590  139.6890 C   0  0  0  0  0  3  0  0  0  0  0  0
  181.7970  178.7380  142.0830 C   0  0  0  0  0  0  0  0  0  0  0  0
  181.1030  178.7060  140.8700 C   0  0  0  0  0  3  0  0  0  0  0  0
  183.1210  178.0430  139.7160 C   0  0  0  0  0  3  0  0  0  0  0  0
  181.1130  179.0870  143.2410 O   0  0  0  0  0  1  0  0  0  0  0  0
  183.8220  178.0730  140.9240 C   0  0  0  0  0  3  0  0  0  0  0  0
  188.5220  178.6920  141.1390 C   0  0  0  0  0  2  0  0  0  0  0  0
  189.0870  177.7120  140.1160 C   0  0  0  0  0  2  0  0  0  0  0  0
  188.2560  177.7330  138.8440 C   0  0  1  0  0  3  0  0  0  0  0  0
  187.0760  178.4130  139.0790 F   0  0  0  0  0  0  0  0  0  0  0  0
  189.0030  178.3980  137.7360 C   0  0  0  0  0  0  0  0  0  0  0  0
  189.7090  177.6390  136.8110 O   0  0  0  0  0  0  0  0  0  0  0  0
  188.9820  179.6510  137.6320 O   0  0  0  0  0  1  0  0  0  0  0  0
  1 12  1  6  0  0  0
  1  8  1  0  0  0  0
  2  7  1  6  0  0  0
  2  1  1  0  0  0  0
  2 11  1  0  0  0  0
  3  4  1  0  0  0  0
  5 11  1  0  0  0  0
  5  6  2  0  0  0  0
  8  3  1  0  0  0  0
  9  5  1  0  0  0  0
 10 19  1  6  0  0  0
 10  7  1  0  0  0  0
 10  9  1  0  0  0  0
 11  4  1  1  0  0  0
 13 16  2  0  0  0  0
 13 15  1  0  0  0  0
 14 12  1  0  0  0  0
 14 17  1  0  0  0  0
 15 14  2  0  0  0  0
 16 18  1  0  0  0  0
 18 12  2  0  0  0  0
 20 19  1  0  0  0  0
 21 22  1  1  0  0  0
 21 20  1  0  0  0  0
 23 21  1  0  0  0  0
 24 23  2  0  0  0  0
 25 23  1  0  0  0  0
M  END
>  <MODEL>
9

>  <REMARK>
 VINA RESULT:      -6.8      2.779      4.135
  Name = 
  5 active torsions:
  status: ('A' for Active; 'I' for Inactive)
    1  A    between atoms: C_1  and  C_5
    2  A    between atoms: C_2  and  C_21
    3  A    between atoms: C_6  and  C_15
    4  A    between atoms: C_6  and  C_23
    5  A    between atoms: C_15  and  C_21
                            x       y       z     vdW  Elec       q    Type
                         _______ _______ _______ _____ _____    ______ ____

>  <TORSDO>
F 5

$$$$
