=
 OpenBabel10272402023D

 28 30  0  0  1  0  0  0  0  0999 V2000
  183.4370  174.3980  137.1220 C   0  0  0  0  0  2  0  0  0  0  0  0
  185.3370  175.5240  135.0450 C   0  0  0  0  0  1  0  0  0  0  0  0
  185.3690  175.9270  136.5200 C   0  0  1  0  0  0  0  0  0  0  0  0
  181.0900  176.2040  136.3310 O   0  0  0  0  0  0  0  0  0  0  0  0
  188.0300  177.0480  135.3930 O   0  0  0  0  0  1  0  0  0  0  0  0
  186.1930  175.0250  137.2240 O   0  0  0  0  0  0  0  0  0  0  0  0
  185.7050  178.0160  137.9320 C   0  0  0  0  0  2  0  0  0  0  0  0
  184.2130  178.1130  138.1790 C   0  0  1  0  0  3  0  0  0  0  0  0
  186.0180  177.3080  136.6200 C   0  0  1  0  0  3  0  0  0  0  0  0
  180.9900  178.3560  137.1270 O   0  0  0  0  0  0  0  0  0  0  0  0
  183.6060  176.7090  138.2980 C   0  0  1  0  0  3  0  0  0  0  0  0
  180.9670  174.7930  136.5470 C   0  0  0  0  0  2  0  0  0  0  0  0
  182.0930  176.8210  138.5730 C   0  0  0  0  0  2  0  0  0  0  0  0
  181.3240  177.1600  137.3300 C   0  0  0  0  0  0  0  0  0  0  0  0
  187.4800  176.9720  136.6730 C   0  0  1  0  0  3  0  0  0  0  0  0
  181.9790  174.2070  137.5340 C   0  0  0  0  0  2  0  0  0  0  0  0
  183.9070  175.8640  137.0300 C   0  0  2  0  0  3  0  0  0  0  0  0
  187.5090  175.5340  137.1560 C   0  0  0  0  0  2  0  0  0  0  0  0
  183.9130  178.9880  139.4110 C   0  0  2  0  0  3  0  0  0  0  0  0
  182.7410  180.7620  138.7860 C   0  0  0  0  0  1  0  0  0  0  0  0
  184.0360  180.3470  139.1000 O   0  0  0  0  0  0  0  0  0  0  0  0
  184.7430  178.6180  140.6500 C   0  0  2  0  0  3  0  0  0  0  0  0
  183.9040  178.6840  141.8520 C   0  0  0  0  0  0  0  0  0  0  0  0
  183.2140  178.7380  142.8380 C   0  0  0  0  0  0  0  0  0  0  0  0
  182.3760  178.8040  144.0360 C   0  0  0  0  0  1  0  0  0  0  0  0
  185.8430  179.4710  140.7920 O   0  0  0  0  0  0  0  0  0  0  0  0
  186.7930  178.7200  141.4870 C   0  0  0  0  0  2  0  0  0  0  0  0
  187.9190  178.5380  140.6850 O   0  0  0  0  0  1  0  0  0  0  0  0
  1 16  1  0  0  0  0
  3  2  1  6  0  0  0
  3  9  1  0  0  0  0
  3 17  1  0  0  0  0
  3  6  1  0  0  0  0
  4 12  1  0  0  0  0
  4 14  1  0  0  0  0
  7  8  1  0  0  0  0
  8 11  1  0  0  0  0
  8 19  1  1  0  0  0
  9 15  1  0  0  0  0
  9  7  1  1  0  0  0
 10 14  2  0  0  0  0
 11 13  1  6  0  0  0
 12 16  1  0  0  0  0
 14 13  1  0  0  0  0
 15  5  1  6  0  0  0
 15 18  1  0  0  0  0
 17  1  1  1  0  0  0
 17 11  1  0  0  0  0
 18  6  1  0  0  0  0
 19 21  1  6  0  0  0
 19 22  1  0  0  0  0
 20 21  1  0  0  0  0
 22 26  1  0  0  0  0
 22 23  1  1  0  0  0
 23 24  3  0  0  0  0
 24 25  1  0  0  0  0
 26 27  1  0  0  0  0
 28 27  1  0  0  0  0
M  END
>  <MODEL>
1

>  <REMARK>
 VINA RESULT:      -5.5      0.000      0.000
  Name = 
  6 active torsions:
  status: ('A' for Active; 'I' for Inactive)
    1  A    between atoms: C_9  and  C_12
    2  A    between atoms: C_9  and  C_13
    3  A    between atoms: C_9  and  O_14
    4  A    between atoms: C_10  and  C_13
    5  A    between atoms: C_13  and  O_24
    6  A    between atoms: O_14  and  C_18
                            x       y       z     vdW  Elec       q    Type
                         _______ _______ _______ _____ _____    ______ ____

>  <TORSDO>
F 6

$$$$
=
 OpenBabel10272402023D

 28 30  0  0  1  0  0  0  0  0999 V2000
  188.9180  174.9860  135.5450 C   0  0  0  0  0  2  0  0  0  0  0  0
  191.7260  176.0890  135.2470 C   0  0  0  0  0  1  0  0  0  0  0  0
  191.1120  175.7090  136.5950 C   0  0  1  0  0  0  0  0  0  0  0  0
  187.5430  177.7140  135.3040 O   0  0  0  0  0  0  0  0  0  0  0  0
  194.1230  176.0650  137.2350 O   0  0  0  0  0  1  0  0  0  0  0  0
  191.3500  174.3410  136.8390 O   0  0  0  0  0  0  0  0  0  0  0  0
  191.0470  176.5730  138.9860 C   0  0  0  0  0  2  0  0  0  0  0  0
  189.6530  177.1270  138.7700 C   0  0  1  0  0  3  0  0  0  0  0  0
  191.8360  176.4980  137.6860 C   0  0  1  0  0  3  0  0  0  0  0  0
  187.4040  179.0870  137.1400 O   0  0  0  0  0  0  0  0  0  0  0  0
  188.8560  176.2010  137.8410 C   0  0  1  0  0  3  0  0  0  0  0  0
  187.1170  176.5450  134.5920 C   0  0  0  0  0  2  0  0  0  0  0  0
  187.4330  176.7620  137.6480 C   0  0  0  0  0  2  0  0  0  0  0  0
  187.4130  177.9130  136.6860 C   0  0  0  0  0  0  0  0  0  0  0  0
  193.0240  175.6290  137.9750 C   0  0  1  0  0  3  0  0  0  0  0  0
  187.4310  175.2210  135.2920 C   0  0  0  0  0  2  0  0  0  0  0  0
  189.5930  176.0020  136.4890 C   0  0  2  0  0  3  0  0  0  0  0  0
  192.5990  174.2540  137.4930 C   0  0  0  0  0  2  0  0  0  0  0  0
  188.9390  177.3660  140.1130 C   0  0  2  0  0  3  0  0  0  0  0  0
  187.1750  178.6320  140.5560 C   0  0  0  0  0  1  0  0  0  0  0  0
  188.5310  178.6990  140.2320 O   0  0  0  0  0  0  0  0  0  0  0  0
  189.7540  176.9170  141.3360 C   0  0  2  0  0  3  0  0  0  0  0  0
  188.8900  176.8590  142.5200 C   0  0  0  0  0  0  0  0  0  0  0  0
  188.1800  176.8130  143.4930 C   0  0  0  0  0  0  0  0  0  0  0  0
  187.3180  176.7570  144.6740 C   0  0  0  0  0  1  0  0  0  0  0  0
  190.8250  177.7860  141.5730 O   0  0  0  0  0  0  0  0  0  0  0  0
  191.5780  177.1650  142.5730 C   0  0  0  0  0  2  0  0  0  0  0  0
  191.9070  178.1000  143.5540 O   0  0  0  0  0  1  0  0  0  0  0  0
  3  2  1  6  0  0  0
  3  6  1  0  0  0  0
  3  9  1  0  0  0  0
  4 14  1  0  0  0  0
  6 18  1  0  0  0  0
  8  7  1  0  0  0  0
  8 19  1  1  0  0  0
  9 15  1  0  0  0  0
  9  7  1  1  0  0  0
 11 13  1  6  0  0  0
 11  8  1  0  0  0  0
 12 16  1  0  0  0  0
 12  4  1  0  0  0  0
 14 10  2  0  0  0  0
 14 13  1  0  0  0  0
 15  5  1  6  0  0  0
 16  1  1  0  0  0  0
 17  1  1  1  0  0  0
 17  3  1  0  0  0  0
 17 11  1  0  0  0  0
 18 15  1  0  0  0  0
 19 21  1  1  0  0  0
 19 22  1  0  0  0  0
 21 20  1  0  0  0  0
 22 26  1  0  0  0  0
 22 23  1  1  0  0  0
 23 24  3  0  0  0  0
 24 25  1  0  0  0  0
 26 27  1  0  0  0  0
 27 28  1  0  0  0  0
M  END
>  <MODEL>
2

>  <REMARK>
 VINA RESULT:      -5.4      4.061      5.686
  Name = 
  6 active torsions:
  status: ('A' for Active; 'I' for Inactive)
    1  A    between atoms: C_9  and  C_12
    2  A    between atoms: C_9  and  C_13
    3  A    between atoms: C_9  and  O_14
    4  A    between atoms: C_10  and  C_13
    5  A    between atoms: C_13  and  O_24
    6  A    between atoms: O_14  and  C_18
                            x       y       z     vdW  Elec       q    Type
                         _______ _______ _______ _____ _____    ______ ____

>  <TORSDO>
F 6

$$$$
=
 OpenBabel10272402023D

 28 30  0  0  1  0  0  0  0  0999 V2000
  186.7410  177.2070  144.4530 C   0  0  0  0  0  2  0  0  0  0  0  0
  185.2620  179.6050  143.3350 C   0  0  0  0  0  1  0  0  0  0  0  0
  185.8470  178.4960  142.4600 C   0  0  1  0  0  0  0  0  0  0  0  0
  189.3750  178.7100  144.8940 O   0  0  0  0  0  0  0  0  0  0  0  0
  184.0100  180.0690  140.5220 O   0  0  0  0  0  1  0  0  0  0  0  0
  184.8930  177.4660  142.3270 O   0  0  0  0  0  0  0  0  0  0  0  0
  187.0720  178.2420  140.2450 C   0  0  0  0  0  2  0  0  0  0  0  0
  188.3860  178.0410  140.9720 C   0  0  1  0  0  3  0  0  0  0  0  0
  186.0910  179.0700  141.0640 C   0  0  1  0  0  3  0  0  0  0  0  0
  190.8180  179.0210  143.1350 O   0  0  0  0  0  0  0  0  0  0  0  0
  188.1540  177.2620  142.2740 C   0  0  1  0  0  3  0  0  0  0  0  0
  188.7780  177.8530  145.8740 C   0  0  0  0  0  2  0  0  0  0  0  0
  189.5010  177.0440  142.9920 C   0  0  0  0  0  2  0  0  0  0  0  0
  189.9660  178.2840  143.6960 C   0  0  0  0  0  0  0  0  0  0  0  0
  184.7540  178.8940  140.4060 C   0  0  1  0  0  3  0  0  0  0  0  0
  187.9180  176.7250  145.2980 C   0  0  0  0  0  2  0  0  0  0  0  0
  187.1220  177.9880  143.1790 C   0  0  2  0  0  3  0  0  0  0  0  0
  184.0920  177.7910  141.2110 C   0  0  0  0  0  2  0  0  0  0  0  0
  189.4240  177.3620  140.0590 C   0  0  2  0  0  3  0  0  0  0  0  0
  191.5960  176.9970  140.3090 C   0  0  0  0  0  1  0  0  0  0  0  0
  190.6580  178.0160  140.1330 O   0  0  0  0  0  0  0  0  0  0  0  0
  188.9580  177.2030  138.6040 C   0  0  2  0  0  3  0  0  0  0  0  0
  189.5360  175.9860  138.0230 C   0  0  0  0  0  0  0  0  0  0  0  0
  190.0120  174.9870  137.5450 C   0  0  0  0  0  0  0  0  0  0  0  0
  190.5890  173.7740  136.9650 C   0  0  0  0  0  1  0  0  0  0  0  0
  189.3220  178.3140  137.8350 O   0  0  0  0  0  0  0  0  0  0  0  0
  188.4210  178.3250  136.7680 C   0  0  0  0  0  2  0  0  0  0  0  0
  187.5680  179.4210  136.8910 O   0  0  0  0  0  1  0  0  0  0  0  0
  1 16  1  0  0  0  0
  3 17  1  0  0  0  0
  3  2  1  1  0  0  0
  4 12  1  0  0  0  0
  6  3  1  0  0  0  0
  7  8  1  0  0  0  0
  8 19  1  6  0  0  0
  8 11  1  0  0  0  0
  9  7  1  6  0  0  0
  9  3  1  0  0  0  0
 10 14  2  0  0  0  0
 11 13  1  1  0  0  0
 11 17  1  0  0  0  0
 13 14  1  0  0  0  0
 14  4  1  0  0  0  0
 15  5  1  1  0  0  0
 15  9  1  0  0  0  0
 15 18  1  0  0  0  0
 16 12  1  0  0  0  0
 17  1  1  1  0  0  0
 18  6  1  0  0  0  0
 19 21  1  6  0  0  0
 21 20  1  0  0  0  0
 22 23  1  6  0  0  0
 22 19  1  0  0  0  0
 24 23  3  0  0  0  0
 25 24  1  0  0  0  0
 26 22  1  0  0  0  0
 27 28  1  0  0  0  0
 27 26  1  0  0  0  0
M  END
>  <MODEL>
3

>  <REMARK>
 VINA RESULT:      -5.2      3.609      7.951
  Name = 
  6 active torsions:
  status: ('A' for Active; 'I' for Inactive)
    1  A    between atoms: C_9  and  C_12
    2  A    between atoms: C_9  and  C_13
    3  A    between atoms: C_9  and  O_14
    4  A    between atoms: C_10  and  C_13
    5  A    between atoms: C_13  and  O_24
    6  A    between atoms: O_14  and  C_18
                            x       y       z     vdW  Elec       q    Type
                         _______ _______ _______ _____ _____    ______ ____

>  <TORSDO>
F 6

$$$$
=
 OpenBabel10272402023D

 28 30  0  0  1  0  0  0  0  0999 V2000
  189.9980  175.9390  138.5190 C   0  0  0  0  0  2  0  0  0  0  0  0
  191.4740  177.7040  140.4930 C   0  0  0  0  0  1  0  0  0  0  0  0
  190.0290  177.2460  140.6930 C   0  0  1  0  0  0  0  0  0  0  0  0
  189.3630  178.2120  136.5640 O   0  0  0  0  0  0  0  0  0  0  0  0
  190.8280  178.3870  143.4610 O   0  0  0  0  0  1  0  0  0  0  0  0
  190.0300  175.9980  141.3470 O   0  0  0  0  0  0  0  0  0  0  0  0
  187.8190  178.1790  141.5400 C   0  0  0  0  0  2  0  0  0  0  0  0
  187.3230  178.3490  140.1180 C   0  0  1  0  0  3  0  0  0  0  0  0
  189.3390  178.2450  141.6220 C   0  0  1  0  0  3  0  0  0  0  0  0
  187.5700  179.5910  136.9630 O   0  0  0  0  0  0  0  0  0  0  0  0
  187.8470  177.2070  139.2370 C   0  0  1  0  0  3  0  0  0  0  0  0
  189.8860  176.9410  136.1600 C   0  0  0  0  0  2  0  0  0  0  0  0
  187.3160  177.3770  137.7990 C   0  0  0  0  0  2  0  0  0  0  0  0
  188.0670  178.4380  137.0490 C   0  0  0  0  0  0  0  0  0  0  0  0
  189.7000  177.7210  142.9810 C   0  0  1  0  0  3  0  0  0  0  0  0
  189.5160  175.7750  137.0800 C   0  0  0  0  0  2  0  0  0  0  0  0
  189.3980  177.1380  139.2810 C   0  0  2  0  0  3  0  0  0  0  0  0
  190.0360  176.2620  142.7350 C   0  0  0  0  0  2  0  0  0  0  0  0
  185.7870  178.4630  140.0790 C   0  0  2  0  0  3  0  0  0  0  0  0
  184.4580  179.0400  138.4020 C   0  0  0  0  0  1  0  0  0  0  0  0
  185.3870  179.5580  139.3060 O   0  0  0  0  0  0  0  0  0  0  0  0
  185.1330  178.4870  141.4690 C   0  0  2  0  0  3  0  0  0  0  0  0
  183.6800  178.3300  141.3420 C   0  0  0  0  0  0  0  0  0  0  0  0
  182.4860  178.2010  141.2350 C   0  0  0  0  0  0  0  0  0  0  0  0
  181.0370  178.0460  141.1060 C   0  0  0  0  0  1  0  0  0  0  0  0
  185.4240  179.6790  142.1410 O   0  0  0  0  0  0  0  0  0  0  0  0
  184.8160  179.5440  143.3920 C   0  0  0  0  0  2  0  0  0  0  0  0
  185.5570  178.6630  144.1770 O   0  0  0  0  0  1  0  0  0  0  0  0
  3  2  1  6  0  0  0
  3  6  1  0  0  0  0
  3  9  1  0  0  0  0
  4 14  1  0  0  0  0
  6 18  1  0  0  0  0
  8 19  1  1  0  0  0
  8  7  1  0  0  0  0
  9  7  1  6  0  0  0
  9 15  1  0  0  0  0
 10 14  2  0  0  0  0
 11 13  1  6  0  0  0
 11 17  1  0  0  0  0
 11  8  1  0  0  0  0
 12  4  1  0  0  0  0
 12 16  1  0  0  0  0
 14 13  1  0  0  0  0
 15  5  1  6  0  0  0
 16  1  1  0  0  0  0
 17  1  1  1  0  0  0
 17  3  1  0  0  0  0
 18 15  1  0  0  0  0
 19 21  1  1  0  0  0
 19 22  1  0  0  0  0
 20 21  1  0  0  0  0
 22 23  1  6  0  0  0
 22 26  1  0  0  0  0
 24 23  3  0  0  0  0
 25 24  1  0  0  0  0
 26 27  1  0  0  0  0
 27 28  1  0  0  0  0
M  END
>  <MODEL>
4

>  <REMARK>
 VINA RESULT:      -5.0      3.181      5.567
  Name = 
  6 active torsions:
  status: ('A' for Active; 'I' for Inactive)
    1  A    between atoms: C_9  and  C_12
    2  A    between atoms: C_9  and  C_13
    3  A    between atoms: C_9  and  O_14
    4  A    between atoms: C_10  and  C_13
    5  A    between atoms: C_13  and  O_24
    6  A    between atoms: O_14  and  C_18
                            x       y       z     vdW  Elec       q    Type
                         _______ _______ _______ _____ _____    ______ ____

>  <TORSDO>
F 6

$$$$
=
 OpenBabel10272402023D

 28 30  0  0  1  0  0  0  0  0999 V2000
  186.7030  172.5010  137.2590 C   0  0  0  0  0  2  0  0  0  0  0  0
  188.9290  172.4270  135.2020 C   0  0  0  0  0  1  0  0  0  0  0  0
  188.6900  173.6110  136.1410 C   0  0  1  0  0  0  0  0  0  0  0  0
  184.5110  173.2250  135.2420 O   0  0  0  0  0  0  0  0  0  0  0  0
  191.4940  174.1730  134.9450 O   0  0  0  0  0  1  0  0  0  0  0  0
  189.3870  173.3890  137.3460 O   0  0  0  0  0  0  0  0  0  0  0  0
  188.7390  176.1540  136.0730 C   0  0  0  0  0  2  0  0  0  0  0  0
  187.2250  176.2000  136.0090 C   0  0  1  0  0  3  0  0  0  0  0  0
  189.2920  174.8590  135.4920 C   0  0  1  0  0  3  0  0  0  0  0  0
  184.2400  175.4090  134.5880 O   0  0  0  0  0  0  0  0  0  0  0  0
  186.6260  175.0660  136.8510 C   0  0  1  0  0  3  0  0  0  0  0  0
  184.3710  172.1970  136.2310 C   0  0  0  0  0  2  0  0  0  0  0  0
  185.0870  175.1390  136.7960 C   0  0  0  0  0  2  0  0  0  0  0  0
  184.5480  174.6020  135.5030 C   0  0  0  0  0  0  0  0  0  0  0  0
  190.7250  174.7900  135.9320 C   0  0  1  0  0  3  0  0  0  0  0  0
  185.1980  172.4160  137.5010 C   0  0  0  0  0  2  0  0  0  0  0  0
  187.1610  173.6850  136.3840 C   0  0  2  0  0  3  0  0  0  0  0  0
  190.6870  173.9140  137.1710 C   0  0  0  0  0  2  0  0  0  0  0  0
  186.6970  177.5850  136.4290 C   0  0  2  0  0  3  0  0  0  0  0  0
  186.7320  178.4040  134.3700 C   0  0  0  0  0  1  0  0  0  0  0  0
  187.2660  178.5950  135.6460 O   0  0  0  0  0  0  0  0  0  0  0  0
  186.8570  177.8790  137.9280 C   0  0  2  0  0  3  0  0  0  0  0  0
  185.6030  178.4130  138.4700 C   0  0  0  0  0  0  0  0  0  0  0  0
  184.5720  178.8510  138.9160 C   0  0  0  0  0  0  0  0  0  0  0  0
  183.3200  179.3810  139.4570 C   0  0  0  0  0  1  0  0  0  0  0  0
  187.8960  178.7890  138.1550 O   0  0  0  0  0  0  0  0  0  0  0  0
  188.5780  178.2860  139.2650 C   0  0  0  0  0  2  0  0  0  0  0  0
  189.9010  178.0160  138.9150 O   0  0  0  0  0  1  0  0  0  0  0  0
  1 16  1  0  0  0  0
  3  2  1  6  0  0  0
  3 17  1  0  0  0  0
  3  6  1  0  0  0  0
  4 14  1  0  0  0  0
  4 12  1  0  0  0  0
  8  7  1  0  0  0  0
  8 19  1  1  0  0  0
  8 11  1  0  0  0  0
  9 15  1  0  0  0  0
  9  7  1  1  0  0  0
  9  3  1  0  0  0  0
 10 14  2  0  0  0  0
 11 13  1  6  0  0  0
 12 16  1  0  0  0  0
 14 13  1  0  0  0  0
 15  5  1  6  0  0  0
 15 18  1  0  0  0  0
 17 11  1  0  0  0  0
 17  1  1  1  0  0  0
 18  6  1  0  0  0  0
 19 21  1  6  0  0  0
 19 22  1  0  0  0  0
 20 21  1  0  0  0  0
 22 26  1  0  0  0  0
 22 23  1  6  0  0  0
 23 24  3  0  0  0  0
 24 25  1  0  0  0  0
 26 27  1  0  0  0  0
 28 27  1  0  0  0  0
M  END
>  <MODEL>
5

>  <REMARK>
 VINA RESULT:      -4.4      2.733      4.182
  Name = 
  6 active torsions:
  status: ('A' for Active; 'I' for Inactive)
    1  A    between atoms: C_9  and  C_12
    2  A    between atoms: C_9  and  C_13
    3  A    between atoms: C_9  and  O_14
    4  A    between atoms: C_10  and  C_13
    5  A    between atoms: C_13  and  O_24
    6  A    between atoms: O_14  and  C_18
                            x       y       z     vdW  Elec       q    Type
                         _______ _______ _______ _____ _____    ______ ____

>  <TORSDO>
F 6

$$$$
=
 OpenBabel10272402023D

 28 30  0  0  1  0  0  0  0  0999 V2000
  187.2500  173.9810  137.0940 C   0  0  0  0  0  2  0  0  0  0  0  0
  188.7660  176.3660  135.9980 C   0  0  0  0  0  1  0  0  0  0  0  0
  187.6620  176.4830  137.0500 C   0  0  1  0  0  0  0  0  0  0  0  0
  185.3860  173.7260  134.6750 O   0  0  0  0  0  0  0  0  0  0  0  0
  189.0130  179.2720  137.0900 O   0  0  0  0  0  1  0  0  0  0  0  0
  188.2290  176.3290  138.3310 O   0  0  0  0  0  0  0  0  0  0  0  0
  185.7090  178.0110  137.6210 C   0  0  0  0  0  2  0  0  0  0  0  0
  184.7300  177.0090  137.0410 C   0  0  1  0  0  3  0  0  0  0  0  0
  187.0850  177.8970  136.9770 C   0  0  1  0  0  3  0  0  0  0  0  0
  183.5330  175.0740  134.5160 O   0  0  0  0  0  0  0  0  0  0  0  0
  185.2140  175.5790  137.3180 C   0  0  1  0  0  3  0  0  0  0  0  0
  186.0670  172.6160  135.2720 C   0  0  0  0  0  2  0  0  0  0  0  0
  184.1980  174.5700  136.7450 C   0  0  0  0  0  2  0  0  0  0  0  0
  184.3250  174.4350  135.2570 C   0  0  0  0  0  0  0  0  0  0  0  0
  188.0180  178.6710  137.8610 C   0  0  1  0  0  3  0  0  0  0  0  0
  186.3690  172.7780  136.7630 C   0  0  0  0  0  2  0  0  0  0  0  0
  186.6420  175.3550  136.7500 C   0  0  2  0  0  3  0  0  0  0  0  0
  188.6370  177.6120  138.7560 C   0  0  0  0  0  2  0  0  0  0  0  0
  183.3060  177.2600  137.5710 C   0  0  2  0  0  3  0  0  0  0  0  0
  181.7210  177.9700  136.1950 C   0  0  0  0  0  1  0  0  0  0  0  0
  182.7610  178.4200  137.0100 O   0  0  0  0  0  0  0  0  0  0  0  0
  183.2100  177.2780  139.1040 C   0  0  2  0  0  3  0  0  0  0  0  0
  182.0960  176.4320  139.5470 C   0  0  0  0  0  0  0  0  0  0  0  0
  181.1830  175.7360  139.9110 C   0  0  0  0  0  0  0  0  0  0  0  0
  180.0730  174.8900  140.3530 C   0  0  0  0  0  1  0  0  0  0  0  0
  183.0330  178.5820  139.5810 O   0  0  0  0  0  0  0  0  0  0  0  0
  183.8330  178.6590  140.7240 C   0  0  0  0  0  2  0  0  0  0  0  0
  184.8880  179.5410  140.4940 O   0  0  0  0  0  1  0  0  0  0  0  0
  3  2  1  6  0  0  0
  3  6  1  0  0  0  0
  4 14  1  0  0  0  0
  4 12  1  0  0  0  0
  6 18  1  0  0  0  0
  8 11  1  0  0  0  0
  8 19  1  1  0  0  0
  8  7  1  0  0  0  0
  9  3  1  0  0  0  0
  9  7  1  1  0  0  0
  9 15  1  0  0  0  0
 10 14  2  0  0  0  0
 11 13  1  6  0  0  0
 12 16  1  0  0  0  0
 14 13  1  0  0  0  0
 15  5  1  6  0  0  0
 15 18  1  0  0  0  0
 16  1  1  0  0  0  0
 17  3  1  0  0  0  0
 17  1  1  1  0  0  0
 17 11  1  0  0  0  0
 19 21  1  6  0  0  0
 19 22  1  0  0  0  0
 20 21  1  0  0  0  0
 22 23  1  6  0  0  0
 22 26  1  0  0  0  0
 23 24  3  0  0  0  0
 24 25  1  0  0  0  0
 26 27  1  0  0  0  0
 28 27  1  0  0  0  0
M  END
>  <MODEL>
6

>  <REMARK>
 VINA RESULT:      -4.4      2.012      3.569
  Name = 
  6 active torsions:
  status: ('A' for Active; 'I' for Inactive)
    1  A    between atoms: C_9  and  C_12
    2  A    between atoms: C_9  and  C_13
    3  A    between atoms: C_9  and  O_14
    4  A    between atoms: C_10  and  C_13
    5  A    between atoms: C_13  and  O_24
    6  A    between atoms: O_14  and  C_18
                            x       y       z     vdW  Elec       q    Type
                         _______ _______ _______ _____ _____    ______ ____

>  <TORSDO>
F 6

$$$$
=
 OpenBabel10272402023D

 28 30  0  0  1  0  0  0  0  0999 V2000
  187.4800  175.9540  135.6530 C   0  0  0  0  0  2  0  0  0  0  0  0
  186.7610  173.3900  137.1030 C   0  0  0  0  0  1  0  0  0  0  0  0
  185.7230  174.4110  136.6350 C   0  0  1  0  0  0  0  0  0  0  0  0
  188.3140  177.4600  138.1880 O   0  0  0  0  0  0  0  0  0  0  0  0
  184.0290  171.9190  137.3610 O   0  0  0  0  0  1  0  0  0  0  0  0
  185.3570  174.1170  135.3060 O   0  0  0  0  0  0  0  0  0  0  0  0
  183.5580  175.4620  137.4600 C   0  0  0  0  0  2  0  0  0  0  0  0
  184.2950  176.7320  137.8360 C   0  0  1  0  0  3  0  0  0  0  0  0
  184.4710  174.2440  137.4980 C   0  0  1  0  0  3  0  0  0  0  0  0
  186.7120  178.4340  139.5140 O   0  0  0  0  0  0  0  0  0  0  0  0
  185.4160  177.0090  136.8260 C   0  0  1  0  0  3  0  0  0  0  0  0
  189.0880  177.4460  136.9830 C   0  0  0  0  0  2  0  0  0  0  0  0
  186.1430  178.3160  137.2060 C   0  0  0  0  0  2  0  0  0  0  0  0
  187.0860  178.1160  138.3550 C   0  0  0  0  0  0  0  0  0  0  0  0
  183.7310  173.1530  136.7820 C   0  0  1  0  0  3  0  0  0  0  0  0
  188.2730  177.2570  135.7010 C   0  0  0  0  0  2  0  0  0  0  0  0
  186.3930  175.8050  136.7360 C   0  0  2  0  0  3  0  0  0  0  0  0
  184.2850  173.2000  135.3690 C   0  0  0  0  0  2  0  0  0  0  0  0
  183.3200  177.9170  137.9690 C   0  0  2  0  0  3  0  0  0  0  0  0
  183.5310  179.8120  139.1000 C   0  0  0  0  0  1  0  0  0  0  0  0
  183.3420  178.4390  139.2670 O   0  0  0  0  0  0  0  0  0  0  0  0
  181.8870  177.5930  137.5190 C   0  0  2  0  0  3  0  0  0  0  0  0
  181.5030  178.4660  136.4040 C   0  0  0  0  0  0  0  0  0  0  0  0
  181.1880  179.1850  135.4890 C   0  0  0  0  0  0  0  0  0  0  0  0
  180.8050  180.0580  134.3790 C   0  0  0  0  0  1  0  0  0  0  0  0
  180.9810  177.7460  138.5740 O   0  0  0  0  0  0  0  0  0  0  0  0
  180.2520  176.5550  138.5980 C   0  0  0  0  0  2  0  0  0  0  0  0
  180.7470  175.7270  139.6040 O   0  0  0  0  0  1  0  0  0  0  0  0
  1 16  1  0  0  0  0
  3 17  1  0  0  0  0
  3  2  1  1  0  0  0
  3  9  1  0  0  0  0
  4 14  1  0  0  0  0
  6 18  1  0  0  0  0
  6  3  1  0  0  0  0
  7  8  1  0  0  0  0
  8 19  1  6  0  0  0
  9  7  1  6  0  0  0
 11 13  1  1  0  0  0
 11  8  1  0  0  0  0
 12  4  1  0  0  0  0
 13 14  1  0  0  0  0
 14 10  2  0  0  0  0
 15  5  1  1  0  0  0
 15  9  1  0  0  0  0
 16 12  1  0  0  0  0
 17  1  1  6  0  0  0
 17 11  1  0  0  0  0
 18 15  1  0  0  0  0
 19 21  1  1  0  0  0
 20 21  1  0  0  0  0
 22 23  1  6  0  0  0
 22 19  1  0  0  0  0
 22 26  1  0  0  0  0
 24 23  3  0  0  0  0
 25 24  1  0  0  0  0
 26 27  1  0  0  0  0
 27 28  1  0  0  0  0
M  END
>  <MODEL>
7

>  <REMARK>
 VINA RESULT:      -4.3      2.151      5.395
  Name = 
  6 active torsions:
  status: ('A' for Active; 'I' for Inactive)
    1  A    between atoms: C_9  and  C_12
    2  A    between atoms: C_9  and  C_13
    3  A    between atoms: C_9  and  O_14
    4  A    between atoms: C_10  and  C_13
    5  A    between atoms: C_13  and  O_24
    6  A    between atoms: O_14  and  C_18
                            x       y       z     vdW  Elec       q    Type
                         _______ _______ _______ _____ _____    ______ ____

>  <TORSDO>
F 6

$$$$
=
 OpenBabel10272402023D

 28 30  0  0  1  0  0  0  0  0999 V2000
  190.6910  177.9760  140.8330 C   0  0  0  0  0  2  0  0  0  0  0  0
  189.8430  176.4200  138.3740 C   0  0  0  0  0  1  0  0  0  0  0  0
  189.0680  177.6210  138.9160 C   0  0  1  0  0  0  0  0  0  0  0  0
  189.5820  175.9310  142.8280 O   0  0  0  0  0  0  0  0  0  0  0  0
  187.8460  177.1680  136.1050 O   0  0  0  0  0  1  0  0  0  0  0  0
  189.5990  178.8010  138.3570 O   0  0  0  0  0  0  0  0  0  0  0  0
  186.6560  178.3520  139.2620 C   0  0  0  0  0  2  0  0  0  0  0  0
  186.7530  178.0420  140.7420 C   0  0  1  0  0  3  0  0  0  0  0  0
  187.6190  177.5060  138.4400 C   0  0  1  0  0  3  0  0  0  0  0  0
  187.3460  175.9480  143.3530 O   0  0  0  0  0  0  0  0  0  0  0  0
  188.1590  178.3740  141.2590 C   0  0  1  0  0  3  0  0  0  0  0  0
  190.8860  176.5140  142.9320 C   0  0  0  0  0  2  0  0  0  0  0  0
  188.2380  178.0760  142.7700 C   0  0  0  0  0  2  0  0  0  0  0  0
  188.3720  176.6070  143.0430 C   0  0  0  0  0  0  0  0  0  0  0  0
  187.6750  178.1460  137.0840 C   0  0  1  0  0  3  0  0  0  0  0  0
  191.0120  177.9130  142.3240 C   0  0  0  0  0  2  0  0  0  0  0  0
  189.2420  177.6040  140.4560 C   0  0  2  0  0  3  0  0  0  0  0  0
  188.9100  179.0270  137.1450 C   0  0  0  0  0  2  0  0  0  0  0  0
  185.6490  178.7700  141.5330 C   0  0  2  0  0  3  0  0  0  0  0  0
  184.8100  178.9750  143.5730 C   0  0  0  0  0  1  0  0  0  0  0  0
  185.2660  178.0280  142.6550 O   0  0  0  0  0  0  0  0  0  0  0  0
  184.4350  179.1650  140.6780 C   0  0  2  0  0  3  0  0  0  0  0  0
  183.6830  177.9660  140.2920 C   0  0  0  0  0  0  0  0  0  0  0  0
  183.0650  176.9810  139.9750 C   0  0  0  0  0  0  0  0  0  0  0  0
  182.3160  175.7840  139.5920 C   0  0  0  0  0  1  0  0  0  0  0  0
  184.8320  179.8660  139.5340 O   0  0  0  0  0  0  0  0  0  0  0  0
  183.7060  179.8700  138.7060 C   0  0  0  0  0  2  0  0  0  0  0  0
  183.0110  181.0670  138.8720 O   0  0  0  0  0  1  0  0  0  0  0  0
  1 16  1  0  0  0  0
  3  2  1  6  0  0  0
  3 17  1  0  0  0  0
  4 12  1  0  0  0  0
  4 14  1  0  0  0  0
  6  3  1  0  0  0  0
  7  8  1  0  0  0  0
  8 11  1  0  0  0  0
  8 19  1  1  0  0  0
  9  3  1  0  0  0  0
  9  7  1  1  0  0  0
 11 13  1  1  0  0  0
 13 14  1  0  0  0  0
 14 10  2  0  0  0  0
 15  5  1  6  0  0  0
 15 18  1  0  0  0  0
 15  9  1  0  0  0  0
 16 12  1  0  0  0  0
 17  1  1  6  0  0  0
 17 11  1  0  0  0  0
 18  6  1  0  0  0  0
 19 21  1  1  0  0  0
 21 20  1  0  0  0  0
 22 23  1  6  0  0  0
 22 19  1  0  0  0  0
 24 23  3  0  0  0  0
 25 24  1  0  0  0  0
 26 22  1  0  0  0  0
 27 28  1  0  0  0  0
 27 26  1  0  0  0  0
M  END
>  <MODEL>
8

>  <REMARK>
 VINA RESULT:      -4.3      2.536      6.065
  Name = 
  6 active torsions:
  status: ('A' for Active; 'I' for Inactive)
    1  A    between atoms: C_9  and  C_12
    2  A    between atoms: C_9  and  C_13
    3  A    between atoms: C_9  and  O_14
    4  A    between atoms: C_10  and  C_13
    5  A    between atoms: C_13  and  O_24
    6  A    between atoms: O_14  and  C_18
                            x       y       z     vdW  Elec       q    Type
                         _______ _______ _______ _____ _____    ______ ____

>  <TORSDO>
F 6

$$$$
=
 OpenBabel10272402023D

 28 30  0  0  1  0  0  0  0  0999 V2000
  182.6980  176.5250  139.5850 C   0  0  0  0  0  2  0  0  0  0  0  0
  182.4810  175.8700  136.6330 C   0  0  0  0  0  1  0  0  0  0  0  0
  183.8040  175.8640  137.4000 C   0  0  1  0  0  0  0  0  0  0  0  0
  182.5540  179.5600  139.1880 O   0  0  0  0  0  0  0  0  0  0  0  0
  184.4970  174.4510  134.7300 O   0  0  0  0  0  1  0  0  0  0  0  0
  183.9950  174.5920  137.9780 O   0  0  0  0  0  0  0  0  0  0  0  0
  186.2290  176.5490  137.0510 C   0  0  0  0  0  2  0  0  0  0  0  0
  186.0180  177.7950  137.8870 C   0  0  1  0  0  3  0  0  0  0  0  0
  184.9370  176.0800  136.3960 C   0  0  1  0  0  3  0  0  0  0  0  0
  184.4430  180.7230  138.5950 O   0  0  0  0  0  0  0  0  0  0  0  0
  185.0420  177.5010  139.0340 C   0  0  1  0  0  3  0  0  0  0  0  0
  181.7880  178.8510  140.1700 C   0  0  0  0  0  2  0  0  0  0  0  0
  184.8540  178.7700  139.8910 C   0  0  0  0  0  2  0  0  0  0  0  0
  183.9410  179.7600  139.2300 C   0  0  0  0  0  0  0  0  0  0  0  0
  185.2050  174.6860  135.9090 C   0  0  1  0  0  3  0  0  0  0  0  0
  182.4360  177.5610  140.6760 C   0  0  0  0  0  2  0  0  0  0  0  0
  183.6910  176.9610  138.4890 C   0  0  2  0  0  3  0  0  0  0  0  0
  184.6600  173.8000  137.0150 C   0  0  0  0  0  2  0  0  0  0  0  0
  187.3610  178.3570  138.3900 C   0  0  2  0  0  3  0  0  0  0  0  0
  187.0710  179.1520  136.3420 C   0  0  0  0  0  1  0  0  0  0  0  0
  187.9670  179.1530  137.4120 O   0  0  0  0  0  0  0  0  0  0  0  0
  188.3250  177.2810  138.9140 C   0  0  2  0  0  3  0  0  0  0  0  0
  188.6190  177.5210  140.3310 C   0  0  0  0  0  0  0  0  0  0  0  0
  188.8600  177.7170  141.4960 C   0  0  0  0  0  0  0  0  0  0  0  0
  189.1530  177.9550  142.9100 C   0  0  0  0  0  1  0  0  0  0  0  0
  189.5150  177.2690  138.1780 O   0  0  0  0  0  0  0  0  0  0  0  0
  189.7330  175.9240  137.8690 C   0  0  0  0  0  2  0  0  0  0  0  0
  190.7960  175.4390  138.6290 O   0  0  0  0  0  1  0  0  0  0  0  0
  1 16  1  0  0  0  0
  3  2  1  6  0  0  0
  3  6  1  0  0  0  0
  3 17  1  0  0  0  0
  4 14  1  0  0  0  0
  4 12  1  0  0  0  0
  7  8  1  0  0  0  0
  8 19  1  1  0  0  0
  8 11  1  0  0  0  0
  9  7  1  1  0  0  0
  9  3  1  0  0  0  0
 10 14  2  0  0  0  0
 11 13  1  6  0  0  0
 12 16  1  0  0  0  0
 14 13  1  0  0  0  0
 15  5  1  6  0  0  0
 15  9  1  0  0  0  0
 15 18  1  0  0  0  0
 17 11  1  0  0  0  0
 17  1  1  1  0  0  0
 18  6  1  0  0  0  0
 19 21  1  6  0  0  0
 19 22  1  0  0  0  0
 20 21  1  0  0  0  0
 22 23  1  1  0  0  0
 23 24  3  0  0  0  0
 24 25  1  0  0  0  0
 26 22  1  0  0  0  0
 27 26  1  0  0  0  0
 27 28  1  0  0  0  0
M  END
>  <MODEL>
9

>  <REMARK>
 VINA RESULT:      -4.2      2.050      4.119
  Name = 
  6 active torsions:
  status: ('A' for Active; 'I' for Inactive)
    1  A    between atoms: C_9  and  C_12
    2  A    between atoms: C_9  and  C_13
    3  A    between atoms: C_9  and  O_14
    4  A    between atoms: C_10  and  C_13
    5  A    between atoms: C_13  and  O_24
    6  A    between atoms: O_14  and  C_18
                            x       y       z     vdW  Elec       q    Type
                         _______ _______ _______ _____ _____    ______ ____

>  <TORSDO>
F 6

$$$$
