=
 OpenBabel10272400093D

 34 37  0  0  1  0  0  0  0  0999 V2000
  182.1840  179.7270  138.8210 C   0  0  2  0  0  3  0  0  0  0  0  0
  182.9100  177.3600  138.2470 C   0  0  1  0  0  3  0  0  0  0  0  0
  184.5370  178.9270  139.4170 C   0  0  1  0  0  3  0  0  0  0  0  0
  180.6000  178.2990  138.0880 C   0  0  0  0  0  2  0  0  0  0  0  0
  181.5690  177.2680  137.5150 C   0  0  0  0  0  2  0  0  0  0  0  0
  183.3420  177.2410  140.7780 C   0  0  0  0  0  3  0  0  0  0  0  0
  183.3710  178.8290  138.4140 C   0  0  2  0  0  3  0  0  0  0  0  0
  181.1290  179.5860  137.9010 O   0  0  0  0  0  0  0  0  0  0  0  0
  182.8770  176.5200  139.5390 C   0  0  0  0  0  2  0  0  0  0  0  0
  184.1460  178.3150  140.7380 C   0  0  0  0  0  0  0  0  0  0  0  0
  186.9530  178.4240  139.8700 N   0  0  0  0  0  0  0  0  0  0  0  0
  189.1920  177.9410  140.3560 O   0  0  0  0  0  0  0  0  0  0  0  0
  188.3300  176.7720  138.4700 C   0  0  0  0  0  2  0  0  0  0  0  0
  189.0520  178.5430  136.8010 C   0  0  0  0  0  1  0  0  0  0  0  0
  185.8560  178.3200  138.9000 C   0  0  2  0  0  3  0  0  0  0  0  0
  188.1940  177.7420  139.6120 C   0  0  0  0  0  0  0  0  0  0  0  0
  186.6280  177.8040  136.8770 C   0  0  0  0  0  2  0  0  0  0  0  0
  188.0890  177.3990  137.0930 C   0  0  2  0  0  3  0  0  0  0  0  0
  186.2660  178.8890  137.6870 O   0  0  0  0  0  0  0  0  0  0  0  0
  186.8640  179.3080  141.0300 C   0  0  0  0  0  1  0  0  0  0  0  0
  182.6030  181.1620  138.8700 C   0  0  0  0  0  3  0  0  0  0  0  0
  181.8460  182.0410  138.4940 O   0  0  0  0  0  0  0  0  0  0  0  0
  184.5030  179.0210  142.0120 C   0  0  0  0  0  2  0  0  0  0  0  0
  183.7890  178.4340  143.2290 C   0  0  2  0  0  3  0  0  0  0  0  0
  182.4170  179.0650  143.3470 C   0  0  0  0  0  1  0  0  0  0  0  0
  184.5610  178.6980  144.5120 C   0  0  0  0  0  2  0  0  0  0  0  0
  186.0580  178.5670  144.2920 C   0  0  0  0  0  2  0  0  0  0  0  0
  186.7570  178.1820  147.1850 C   0  0  0  0  0  1  0  0  0  0  0  0
  186.5970  177.2370  144.8210 C   0  0  2  0  0  3  0  0  0  0  0  0
  187.4610  177.4140  146.0810 C   0  0  1  0  0  3  0  0  0  0  0  0
  189.4880  177.2610  144.8040 O   0  0  0  0  0  0  0  0  0  0  0  0
  188.7800  177.2970  143.5850 C   0  0  0  0  0  2  0  0  0  0  0  0
  187.4370  176.5700  143.7280 C   0  0  0  0  0  2  0  0  0  0  0  0
  188.7880  178.0770  145.7110 C   0  0  0  0  0  2  0  0  0  0  0  0
  1 21  1  6  0  0  0
  2  5  1  1  0  0  0
  2  7  1  0  0  0  0
  2  9  1  0  0  0  0
  3 10  1  1  0  0  0
  5  4  1  0  0  0  0
  7  1  1  0  0  0  0
  7  3  1  0  0  0  0
  8  4  1  0  0  0  0
  8  1  1  0  0  0  0
  9  6  1  0  0  0  0
 10  6  2  0  0  0  0
 10 23  1  0  0  0  0
 11 20  1  0  0  0  0
 13 16  1  0  0  0  0
 14 18  1  0  0  0  0
 15  3  1  0  0  0  0
 15 11  1  0  0  0  0
 16 11  1  0  0  0  0
 16 12  2  0  0  0  0
 17 18  1  0  0  0  0
 17 19  1  0  0  0  0
 18 13  1  0  0  0  0
 19 15  1  0  0  0  0
 22 21  2  0  0  0  0
 23 24  1  0  0  0  0
 24 25  1  0  0  0  0
 24 26  1  0  0  0  0
 27 26  1  0  0  0  0
 27 29  1  0  0  0  0
 29 30  1  0  0  0  0
 30 28  1  0  0  0  0
 31 34  1  0  0  0  0
 32 33  1  0  0  0  0
 32 31  1  0  0  0  0
 33 29  1  0  0  0  0
 34 30  1  0  0  0  0
M  END
>  <MODEL>
1

>  <REMARK>
 VINA RESULT:      -7.5      0.000      0.000
  Name = 
  7 active torsions:
  status: ('A' for Active; 'I' for Inactive)
    1  A    between atoms: C_1  and  C_24
    2  A    between atoms: C_3  and  C_13
    3  A    between atoms: C_3  and  C_17
    4  A    between atoms: C_4  and  C_21
    5  A    between atoms: C_5  and  C_18
    6  A    between atoms: C_5  and  C_31
    7  A    between atoms: C_17  and  C_18
                            x       y       z     vdW  Elec       q    Type
                         _______ _______ _______ _____ _____    ______ ____

>  <TORSDO>
F 7

$$$$
=
 OpenBabel10272400093D

 34 37  0  0  1  0  0  0  0  0999 V2000
  182.0040  179.7710  138.7770 C   0  0  2  0  0  3  0  0  0  0  0  0
  181.8460  177.2380  138.6260 C   0  0  1  0  0  3  0  0  0  0  0  0
  184.1300  178.3600  138.6260 C   0  0  1  0  0  3  0  0  0  0  0  0
  179.9820  178.8300  139.1100 C   0  0  0  0  0  2  0  0  0  0  0  0
  180.3370  177.4720  138.5110 C   0  0  0  0  0  2  0  0  0  0  0  0
  183.3090  177.3600  140.7350 C   0  0  0  0  0  3  0  0  0  0  0  0
  182.6530  178.4920  138.2060 C   0  0  2  0  0  3  0  0  0  0  0  0
  180.6500  179.8400  138.4010 O   0  0  0  0  0  0  0  0  0  0  0  0
  182.1960  176.6520  140.0070 C   0  0  0  0  0  2  0  0  0  0  0  0
  184.2330  178.1040  140.1080 C   0  0  0  0  0  0  0  0  0  0  0  0
  186.2980  177.6890  137.5560 N   0  0  0  0  0  0  0  0  0  0  0  0
  188.3540  177.0930  136.6060 O   0  0  0  0  0  0  0  0  0  0  0  0
  186.8270  175.2830  136.8410 C   0  0  0  0  0  2  0  0  0  0  0  0
  185.8220  175.5790  134.5300 C   0  0  0  0  0  1  0  0  0  0  0  0
  184.9110  177.2960  137.8290 C   0  0  2  0  0  3  0  0  0  0  0  0
  187.2070  176.7300  136.9850 C   0  0  0  0  0  0  0  0  0  0  0  0
  184.3090  175.5670  136.5640 C   0  0  0  0  0  2  0  0  0  0  0  0
  185.6090  175.0490  135.9430 C   0  0  2  0  0  3  0  0  0  0  0  0
  184.2830  176.9670  136.6200 O   0  0  0  0  0  0  0  0  0  0  0  0
  186.7460  179.0690  137.7250 C   0  0  0  0  0  1  0  0  0  0  0  0
  182.7150  180.9890  138.2780 C   0  0  0  0  0  3  0  0  0  0  0  0
  182.2380  182.0980  138.4510 O   0  0  0  0  0  0  0  0  0  0  0  0
  185.2640  178.8380  140.9120 C   0  0  0  0  0  2  0  0  0  0  0  0
  185.5110  178.1960  142.2780 C   0  0  2  0  0  3  0  0  0  0  0  0
  184.9720  179.1130  143.3570 C   0  0  0  0  0  1  0  0  0  0  0  0
  186.9930  177.9630  142.5280 C   0  0  0  0  0  2  0  0  0  0  0  0
  187.3210  178.0510  144.0080 C   0  0  0  0  0  2  0  0  0  0  0  0
  188.1080  177.7120  146.8850 C   0  0  0  0  0  1  0  0  0  0  0  0
  188.0730  176.8120  144.4990 C   0  0  2  0  0  3  0  0  0  0  0  0
  188.9130  177.0950  145.7550 C   0  0  1  0  0  3  0  0  0  0  0  0
  190.9220  177.3000  144.4580 O   0  0  0  0  0  0  0  0  0  0  0  0
  190.2030  177.2510  143.2460 C   0  0  0  0  0  2  0  0  0  0  0  0
  188.9950  176.3160  143.3820 C   0  0  0  0  0  2  0  0  0  0  0  0
  190.1120  177.9700  145.3920 C   0  0  0  0  0  2  0  0  0  0  0  0
  1 21  1  6  0  0  0
  2  5  1  1  0  0  0
  2  9  1  0  0  0  0
  3 10  1  1  0  0  0
  5  4  1  0  0  0  0
  7  2  1  0  0  0  0
  7  3  1  0  0  0  0
  7  1  1  0  0  0  0
  8  1  1  0  0  0  0
  8  4  1  0  0  0  0
  9  6  1  0  0  0  0
 10  6  2  0  0  0  0
 10 23  1  0  0  0  0
 11 20  1  0  0  0  0
 11 15  1  0  0  0  0
 12 16  2  0  0  0  0
 13 16  1  0  0  0  0
 14 18  1  0  0  0  0
 15  3  1  0  0  0  0
 16 11  1  0  0  0  0
 17 19  1  0  0  0  0
 18 17  1  0  0  0  0
 18 13  1  0  0  0  0
 19 15  1  0  0  0  0
 21 22  2  0  0  0  0
 23 24  1  0  0  0  0
 24 26  1  0  0  0  0
 24 25  1  0  0  0  0
 26 27  1  0  0  0  0
 27 29  1  0  0  0  0
 29 30  1  0  0  0  0
 30 28  1  0  0  0  0
 31 34  1  0  0  0  0
 32 33  1  0  0  0  0
 32 31  1  0  0  0  0
 33 29  1  0  0  0  0
 34 30  1  0  0  0  0
M  END
>  <MODEL>
2

>  <REMARK>
 VINA RESULT:      -7.1      1.661      2.159
  Name = 
  7 active torsions:
  status: ('A' for Active; 'I' for Inactive)
    1  A    between atoms: C_1  and  C_24
    2  A    between atoms: C_3  and  C_13
    3  A    between atoms: C_3  and  C_17
    4  A    between atoms: C_4  and  C_21
    5  A    between atoms: C_5  and  C_18
    6  A    between atoms: C_5  and  C_31
    7  A    between atoms: C_17  and  C_18
                            x       y       z     vdW  Elec       q    Type
                         _______ _______ _______ _____ _____    ______ ____

>  <TORSDO>
F 7

$$$$
=
 OpenBabel10272400093D

 34 37  0  0  1  0  0  0  0  0999 V2000
  190.1760  175.6480  136.4600 C   0  0  2  0  0  3  0  0  0  0  0  0
  188.5650  177.4020  135.5720 C   0  0  1  0  0  3  0  0  0  0  0  0
  188.0240  176.1750  137.7350 C   0  0  1  0  0  3  0  0  0  0  0  0
  190.8670  176.9200  134.7300 C   0  0  0  0  0  2  0  0  0  0  0  0
  189.4810  177.4330  134.3470 C   0  0  0  0  0  2  0  0  0  0  0  0
  188.9730  178.4560  137.8800 C   0  0  0  0  0  3  0  0  0  0  0  0
  188.6950  176.0700  136.3510 C   0  0  2  0  0  3  0  0  0  0  0  0
  190.7620  175.5950  135.1810 O   0  0  0  0  0  0  0  0  0  0  0  0
  188.7400  178.6840  136.4090 C   0  0  0  0  0  2  0  0  0  0  0  0
  188.6020  177.3310  138.5110 C   0  0  0  0  0  0  0  0  0  0  0  0
  185.8490  174.9890  137.3370 N   0  0  0  0  0  0  0  0  0  0  0  0
  183.8450  173.8290  136.9940 O   0  0  0  0  0  0  0  0  0  0  0  0
  183.5770  175.9520  138.0360 C   0  0  0  0  0  2  0  0  0  0  0  0
  183.2530  177.1990  135.8490 C   0  0  0  0  0  1  0  0  0  0  0  0
  186.4870  176.2670  137.6760 C   0  0  2  0  0  3  0  0  0  0  0  0
  184.4180  174.8670  137.4240 C   0  0  0  0  0  0  0  0  0  0  0  0
  185.0500  177.9540  137.4700 C   0  0  0  0  0  2  0  0  0  0  0  0
  183.6760  177.2970  137.3100 C   0  0  2  0  0  3  0  0  0  0  0  0
  186.0450  177.2490  136.7790 O   0  0  0  0  0  0  0  0  0  0  0  0
  186.6190  173.8760  136.7870 C   0  0  0  0  0  1  0  0  0  0  0  0
  190.2940  174.3060  137.1100 C   0  0  0  0  0  3  0  0  0  0  0  0
  191.2730  174.0290  137.7830 O   0  0  0  0  0  0  0  0  0  0  0  0
  188.9370  177.1500  139.9620 C   0  0  0  0  0  2  0  0  0  0  0  0
  188.4390  178.3070  140.8280 C   0  0  2  0  0  3  0  0  0  0  0  0
  189.0230  178.1670  142.2190 C   0  0  0  0  0  1  0  0  0  0  0  0
  186.9220  178.3150  140.9340 C   0  0  0  0  0  2  0  0  0  0  0  0
  186.4650  178.8940  142.2620 C   0  0  0  0  0  2  0  0  0  0  0  0
  183.5130  178.7010  141.7580 C   0  0  0  0  0  1  0  0  0  0  0  0
  185.5770  177.9160  143.0330 C   0  0  2  0  0  3  0  0  0  0  0  0
  184.1170  178.3900  143.1150 C   0  0  1  0  0  3  0  0  0  0  0  0
  184.4340  179.2260  145.3430 O   0  0  0  0  0  0  0  0  0  0  0  0
  185.8260  179.0090  145.2780 C   0  0  0  0  0  2  0  0  0  0  0  0
  186.1310  177.7550  144.4510 C   0  0  0  0  0  2  0  0  0  0  0  0
  184.0130  179.5930  144.0520 C   0  0  0  0  0  2  0  0  0  0  0  0
  1 21  1  6  0  0  0
  2  5  1  6  0  0  0
  2  7  1  0  0  0  0
  2  9  1  0  0  0  0
  3 10  1  6  0  0  0
  4  8  1  0  0  0  0
  5  4  1  0  0  0  0
  6 10  2  0  0  0  0
  7  1  1  0  0  0  0
  7  3  1  0  0  0  0
  8  1  1  0  0  0  0
  9  6  1  0  0  0  0
 10 23  1  0  0  0  0
 11 16  1  0  0  0  0
 11 15  1  0  0  0  0
 12 16  2  0  0  0  0
 14 18  1  0  0  0  0
 15  3  1  0  0  0  0
 16 13  1  0  0  0  0
 18 17  1  0  0  0  0
 18 13  1  0  0  0  0
 19 17  1  0  0  0  0
 19 15  1  0  0  0  0
 20 11  1  0  0  0  0
 21 22  2  0  0  0  0
 23 24  1  0  0  0  0
 24 26  1  0  0  0  0
 24 25  1  0  0  0  0
 26 27  1  0  0  0  0
 27 29  1  0  0  0  0
 28 30  1  0  0  0  0
 29 30  1  0  0  0  0
 29 33  1  0  0  0  0
 30 34  1  0  0  0  0
 32 31  1  0  0  0  0
 33 32  1  0  0  0  0
 34 31  1  0  0  0  0
M  END
>  <MODEL>
3

>  <REMARK>
 VINA RESULT:      -7.0      2.721      6.376
  Name = 
  7 active torsions:
  status: ('A' for Active; 'I' for Inactive)
    1  A    between atoms: C_1  and  C_24
    2  A    between atoms: C_3  and  C_13
    3  A    between atoms: C_3  and  C_17
    4  A    between atoms: C_4  and  C_21
    5  A    between atoms: C_5  and  C_18
    6  A    between atoms: C_5  and  C_31
    7  A    between atoms: C_17  and  C_18
                            x       y       z     vdW  Elec       q    Type
                         _______ _______ _______ _____ _____    ______ ____

>  <TORSDO>
F 7

$$$$
=
 OpenBabel10272400093D

 34 37  0  0  1  0  0  0  0  0999 V2000
  190.4800  175.4650  136.5120 C   0  0  2  0  0  3  0  0  0  0  0  0
  188.8880  177.1370  135.4480 C   0  0  1  0  0  3  0  0  0  0  0  0
  188.1590  175.8440  137.5150 C   0  0  1  0  0  3  0  0  0  0  0  0
  191.3010  176.8040  134.8940 C   0  0  0  0  0  2  0  0  0  0  0  0
  189.9450  177.2420  134.3460 C   0  0  0  0  0  2  0  0  0  0  0  0
  188.9440  178.1740  137.7980 C   0  0  0  0  0  3  0  0  0  0  0  0
  189.0010  175.8010  136.2250 C   0  0  2  0  0  3  0  0  0  0  0  0
  191.2210  175.4680  135.3160 O   0  0  0  0  0  0  0  0  0  0  0  0
  188.8810  178.4120  136.3120 C   0  0  0  0  0  2  0  0  0  0  0  0
  188.5660  177.0190  138.3680 C   0  0  0  0  0  0  0  0  0  0  0  0
  186.0420  174.5070  137.3490 N   0  0  0  0  0  0  0  0  0  0  0  0
  184.0880  173.2220  137.2440 O   0  0  0  0  0  0  0  0  0  0  0  0
  183.7060  175.5650  137.4100 C   0  0  0  0  0  2  0  0  0  0  0  0
  183.6290  175.9250  134.8990 C   0  0  0  0  0  1  0  0  0  0  0  0
  186.6380  175.8470  137.2670 C   0  0  2  0  0  3  0  0  0  0  0  0
  184.6100  174.3670  137.3250 C   0  0  0  0  0  0  0  0  0  0  0  0
  185.2340  177.2860  136.3140 C   0  0  0  0  0  2  0  0  0  0  0  0
  183.8860  176.5610  136.2600 C   0  0  2  0  0  3  0  0  0  0  0  0
  186.3000  176.4210  136.0340 O   0  0  0  0  0  0  0  0  0  0  0  0
  186.8680  173.3030  137.3250 C   0  0  0  0  0  1  0  0  0  0  0  0
  190.5970  174.1220  137.1600 C   0  0  0  0  0  3  0  0  0  0  0  0
  191.6480  173.7720  137.6700 O   0  0  0  0  0  0  0  0  0  0  0  0
  188.7290  176.8330  139.8470 C   0  0  0  0  0  2  0  0  0  0  0  0
  189.7560  177.7930  140.4500 C   0  0  2  0  0  3  0  0  0  0  0  0
  191.1480  177.2810  140.1430 C   0  0  0  0  0  1  0  0  0  0  0  0
  189.5970  177.9070  141.9580 C   0  0  0  0  0  2  0  0  0  0  0  0
  188.1620  178.2270  142.3390 C   0  0  0  0  0  2  0  0  0  0  0  0
  185.2350  178.2220  143.0000 C   0  0  0  0  0  1  0  0  0  0  0  0
  187.5140  177.0860  143.1250 C   0  0  2  0  0  3  0  0  0  0  0  0
  186.2580  177.5380  143.8870 C   0  0  1  0  0  3  0  0  0  0  0  0
  187.4810  177.7180  145.9450 O   0  0  0  0  0  0  0  0  0  0  0  0
  188.7110  177.5090  145.2890 C   0  0  0  0  0  2  0  0  0  0  0  0
  188.5330  176.5290  144.1230 C   0  0  0  0  0  2  0  0  0  0  0  0
  186.6570  178.4350  145.0590 C   0  0  0  0  0  2  0  0  0  0  0  0
  1 21  1  6  0  0  0
  2  5  1  6  0  0  0
  2  7  1  0  0  0  0
  2  9  1  0  0  0  0
  3 10  1  6  0  0  0
  4  8  1  0  0  0  0
  5  4  1  0  0  0  0
  6 10  2  0  0  0  0
  7  1  1  0  0  0  0
  7  3  1  0  0  0  0
  8  1  1  0  0  0  0
  9  6  1  0  0  0  0
 10 23  1  0  0  0  0
 12 16  2  0  0  0  0
 14 18  1  0  0  0  0
 15 11  1  0  0  0  0
 15  3  1  0  0  0  0
 16 11  1  0  0  0  0
 16 13  1  0  0  0  0
 18 17  1  0  0  0  0
 18 13  1  0  0  0  0
 19 17  1  0  0  0  0
 19 15  1  0  0  0  0
 20 11  1  0  0  0  0
 21 22  2  0  0  0  0
 23 24  1  0  0  0  0
 24 26  1  0  0  0  0
 25 24  1  0  0  0  0
 26 27  1  0  0  0  0
 27 29  1  0  0  0  0
 28 30  1  0  0  0  0
 29 30  1  0  0  0  0
 29 33  1  0  0  0  0
 30 34  1  0  0  0  0
 32 31  1  0  0  0  0
 33 32  1  0  0  0  0
 34 31  1  0  0  0  0
M  END
>  <MODEL>
4

>  <REMARK>
 VINA RESULT:      -6.8      3.123      6.530
  Name = 
  7 active torsions:
  status: ('A' for Active; 'I' for Inactive)
    1  A    between atoms: C_1  and  C_24
    2  A    between atoms: C_3  and  C_13
    3  A    between atoms: C_3  and  C_17
    4  A    between atoms: C_4  and  C_21
    5  A    between atoms: C_5  and  C_18
    6  A    between atoms: C_5  and  C_31
    7  A    between atoms: C_17  and  C_18
                            x       y       z     vdW  Elec       q    Type
                         _______ _______ _______ _____ _____    ______ ____

>  <TORSDO>
F 7

$$$$
=
 OpenBabel10272400093D

 34 37  0  0  1  0  0  0  0  0999 V2000
  184.3450  173.6160  136.6970 C   0  0  2  0  0  3  0  0  0  0  0  0
  182.0340  174.6740  136.7090 C   0  0  1  0  0  3  0  0  0  0  0  0
  184.0960  176.1510  136.9110 C   0  0  1  0  0  3  0  0  0  0  0  0
  182.5890  172.2950  136.1890 C   0  0  0  0  0  2  0  0  0  0  0  0
  181.5190  173.2340  136.7410 C   0  0  0  0  0  2  0  0  0  0  0  0
  182.9880  175.9700  134.7050 C   0  0  0  0  0  3  0  0  0  0  0  0
  183.4840  174.7760  137.2420 C   0  0  2  0  0  3  0  0  0  0  0  0
  183.7380  172.3810  136.9900 O   0  0  0  0  0  0  0  0  0  0  0  0
  181.7870  175.3050  135.3250 C   0  0  0  0  0  2  0  0  0  0  0  0
  184.0310  176.4100  135.4270 C   0  0  0  0  0  0  0  0  0  0  0  0
  184.4600  178.0910  138.4600 N   0  0  0  0  0  0  0  0  0  0  0  0
  184.8570  179.9130  139.8750 O   0  0  0  0  0  0  0  0  0  0  0  0
  182.7110  179.9270  138.8460 C   0  0  0  0  0  2  0  0  0  0  0  0
  181.5810  178.6740  140.7420 C   0  0  0  0  0  1  0  0  0  0  0  0
  183.4700  177.3180  137.7000 C   0  0  2  0  0  3  0  0  0  0  0  0
  184.0620  179.3180  139.0980 C   0  0  0  0  0  0  0  0  0  0  0  0
  181.4030  177.7910  138.3720 C   0  0  0  0  0  2  0  0  0  0  0  0
  181.5400  179.0300  139.2610 C   0  0  2  0  0  3  0  0  0  0  0  0
  182.4590  176.8910  138.5710 O   0  0  0  0  0  0  0  0  0  0  0  0
  185.8080  177.5800  138.6960 C   0  0  0  0  0  1  0  0  0  0  0  0
  185.7130  173.6470  137.3020 C   0  0  0  0  0  3  0  0  0  0  0  0
  186.0580  172.7880  138.0960 O   0  0  0  0  0  0  0  0  0  0  0  0
  185.2230  176.9940  134.7280 C   0  0  0  0  0  2  0  0  0  0  0  0
  186.4820  176.9700  135.5950 C   0  0  2  0  0  3  0  0  0  0  0  0
  187.1280  178.3400  135.5630 C   0  0  0  0  0  1  0  0  0  0  0  0
  187.4860  175.9440  135.0950 C   0  0  0  0  0  2  0  0  0  0  0  0
  188.8360  176.1190  135.7710 C   0  0  0  0  0  2  0  0  0  0  0  0
  189.5580  177.6420  138.2540 C   0  0  0  0  0  1  0  0  0  0  0  0
  188.8760  175.4490  137.1450 C   0  0  2  0  0  3  0  0  0  0  0  0
  189.8360  176.1560  138.1150 C   0  0  1  0  0  3  0  0  0  0  0  0
  191.5540  174.5260  137.7210 O   0  0  0  0  0  0  0  0  0  0  0  0
  190.8200  173.9340  136.6720 C   0  0  0  0  0  2  0  0  0  0  0  0
  189.3170  173.9930  136.9750 C   0  0  0  0  0  2  0  0  0  0  0  0
  191.2830  175.9050  137.6880 C   0  0  0  0  0  2  0  0  0  0  0  0
  1  8  1  0  0  0  0
  1  7  1  0  0  0  0
  1 21  1  1  0  0  0
  2  9  1  6  0  0  0
  2  5  1  0  0  0  0
  2  7  1  0  0  0  0
  3 10  1  6  0  0  0
  3  7  1  0  0  0  0
  3 15  1  0  0  0  0
  4  5  1  0  0  0  0
  4  8  1  0  0  0  0
  6  9  1  0  0  0  0
  6 10  2  0  0  0  0
 11 20  1  0  0  0  0
 11 16  1  0  0  0  0
 13 16  1  0  0  0  0
 13 18  1  0  0  0  0
 15 11  1  0  0  0  0
 15 19  1  0  0  0  0
 16 12  2  0  0  0  0
 17 19  1  0  0  0  0
 17 18  1  0  0  0  0
 18 14  1  0  0  0  0
 21 22  2  0  0  0  0
 23 10  1  0  0  0  0
 23 24  1  0  0  0  0
 25 24  1  0  0  0  0
 26 24  1  0  0  0  0
 26 27  1  0  0  0  0
 27 29  1  0  0  0  0
 29 30  1  0  0  0  0
 30 28  1  0  0  0  0
 32 33  1  0  0  0  0
 32 31  1  0  0  0  0
 33 29  1  0  0  0  0
 34 31  1  0  0  0  0
 34 30  1  0  0  0  0
M  END
>  <MODEL>
5

>  <REMARK>
 VINA RESULT:      -6.5      3.919      6.934
  Name = 
  7 active torsions:
  status: ('A' for Active; 'I' for Inactive)
    1  A    between atoms: C_1  and  C_24
    2  A    between atoms: C_3  and  C_13
    3  A    between atoms: C_3  and  C_17
    4  A    between atoms: C_4  and  C_21
    5  A    between atoms: C_5  and  C_18
    6  A    between atoms: C_5  and  C_31
    7  A    between atoms: C_17  and  C_18
                            x       y       z     vdW  Elec       q    Type
                         _______ _______ _______ _____ _____    ______ ____

>  <TORSDO>
F 7

$$$$
=
 OpenBabel10272400093D

 34 37  0  0  1  0  0  0  0  0999 V2000
  181.8350  180.1350  139.5670 C   0  0  2  0  0  3  0  0  0  0  0  0
  181.2740  177.7960  140.3910 C   0  0  1  0  0  3  0  0  0  0  0  0
  183.3420  178.1630  138.9530 C   0  0  1  0  0  3  0  0  0  0  0  0
  180.1880  179.9330  141.0940 C   0  0  0  0  0  2  0  0  0  0  0  0
  179.9820  178.4310  140.9090 C   0  0  0  0  0  2  0  0  0  0  0  0
  183.6320  177.9530  141.4020 C   0  0  0  0  0  3  0  0  0  0  0  0
  181.9010  178.6270  139.2430 C   0  0  2  0  0  3  0  0  0  0  0  0
  180.5110  180.5130  139.8580 O   0  0  0  0  0  0  0  0  0  0  0  0
  182.2170  177.4590  141.5620 C   0  0  0  0  0  2  0  0  0  0  0  0
  184.1760  178.2300  140.2070 C   0  0  0  0  0  0  0  0  0  0  0  0
  184.6040  176.6060  137.4440 N   0  0  0  0  0  0  0  0  0  0  0  0
  185.8370  175.1780  136.0570 O   0  0  0  0  0  0  0  0  0  0  0  0
  184.2030  174.0730  137.3890 C   0  0  0  0  0  2  0  0  0  0  0  0
  182.3800  174.2390  135.6310 C   0  0  0  0  0  1  0  0  0  0  0  0
  183.4290  176.7660  138.3100 C   0  0  2  0  0  3  0  0  0  0  0  0
  184.9250  175.3050  136.9190 C   0  0  0  0  0  0  0  0  0  0  0  0
  181.9570  175.1320  137.9650 C   0  0  0  0  0  2  0  0  0  0  0  0
  182.6960  174.0950  137.1140 C   0  0  2  0  0  3  0  0  0  0  0  0
  182.2770  176.4410  137.5800 O   0  0  0  0  0  0  0  0  0  0  0  0
  185.3800  177.7580  136.9940 C   0  0  0  0  0  1  0  0  0  0  0  0
  182.3340  180.9430  138.4120 C   0  0  0  0  0  3  0  0  0  0  0  0
  181.5650  181.3230  137.5450 O   0  0  0  0  0  0  0  0  0  0  0  0
  185.5670  178.7890  140.1380 C   0  0  0  0  0  2  0  0  0  0  0  0
  186.3680  178.5310  141.4130 C   0  0  2  0  0  3  0  0  0  0  0  0
  185.9590  179.5410  142.4650 C   0  0  0  0  0  1  0  0  0  0  0  0
  187.8640  178.6560  141.1700 C   0  0  0  0  0  2  0  0  0  0  0  0
  188.6500  178.4510  142.4540 C   0  0  0  0  0  2  0  0  0  0  0  0
  187.4770  177.5060  145.0500 C   0  0  0  0  0  1  0  0  0  0  0  0
  188.6890  176.9790  142.8680 C   0  0  2  0  0  3  0  0  0  0  0  0
  188.6500  176.7980  144.3950 C   0  0  1  0  0  3  0  0  0  0  0  0
  191.0250  176.4680  144.4920 O   0  0  0  0  0  0  0  0  0  0  0  0
  191.1790  176.8190  143.1350 C   0  0  0  0  0  2  0  0  0  0  0  0
  189.9700  176.3430  142.3210 C   0  0  0  0  0  2  0  0  0  0  0  0
  189.9760  177.2510  145.0050 C   0  0  0  0  0  2  0  0  0  0  0  0
  1 21  1  6  0  0  0
  1  8  1  0  0  0  0
  2  5  1  1  0  0  0
  2  9  1  0  0  0  0
  3  7  1  0  0  0  0
  3 10  1  1  0  0  0
  5  4  1  0  0  0  0
  6  9  1  0  0  0  0
  7  1  1  0  0  0  0
  7  2  1  0  0  0  0
  8  4  1  0  0  0  0
 10  6  2  0  0  0  0
 11 15  1  0  0  0  0
 12 16  2  0  0  0  0
 14 18  1  0  0  0  0
 15  3  1  0  0  0  0
 16 13  1  0  0  0  0
 16 11  1  0  0  0  0
 18 13  1  0  0  0  0
 18 17  1  0  0  0  0
 19 17  1  0  0  0  0
 19 15  1  0  0  0  0
 20 11  1  0  0  0  0
 22 21  2  0  0  0  0
 23 10  1  0  0  0  0
 23 24  1  0  0  0  0
 24 25  1  0  0  0  0
 26 24  1  0  0  0  0
 26 27  1  0  0  0  0
 27 29  1  0  0  0  0
 29 30  1  0  0  0  0
 30 34  1  0  0  0  0
 30 28  1  0  0  0  0
 31 34  1  0  0  0  0
 32 31  1  0  0  0  0
 33 29  1  0  0  0  0
 33 32  1  0  0  0  0
M  END
>  <MODEL>
6

>  <REMARK>
 VINA RESULT:      -6.5      2.162      3.601
  Name = 
  7 active torsions:
  status: ('A' for Active; 'I' for Inactive)
    1  A    between atoms: C_1  and  C_24
    2  A    between atoms: C_3  and  C_13
    3  A    between atoms: C_3  and  C_17
    4  A    between atoms: C_4  and  C_21
    5  A    between atoms: C_5  and  C_18
    6  A    between atoms: C_5  and  C_31
    7  A    between atoms: C_17  and  C_18
                            x       y       z     vdW  Elec       q    Type
                         _______ _______ _______ _____ _____    ______ ____

>  <TORSDO>
F 7

$$$$
=
 OpenBabel10272400093D

 34 37  0  0  1  0  0  0  0  0999 V2000
  186.6960  178.3030  137.6650 C   0  0  2  0  0  3  0  0  0  0  0  0
  188.2260  177.0000  136.1080 C   0  0  1  0  0  3  0  0  0  0  0  0
  185.7630  176.3790  136.2650 C   0  0  1  0  0  3  0  0  0  0  0  0
  188.7770  179.1080  137.3300 C   0  0  0  0  0  2  0  0  0  0  0  0
  189.3510  177.8230  136.7400 C   0  0  0  0  0  2  0  0  0  0  0  0
  186.5130  177.7510  134.3460 C   0  0  0  0  0  3  0  0  0  0  0  0
  186.9840  176.9250  137.0310 C   0  0  2  0  0  3  0  0  0  0  0  0
  187.8420  178.7830  138.3260 O   0  0  0  0  0  0  0  0  0  0  0  0
  187.9580  177.4700  134.6660 C   0  0  0  0  0  2  0  0  0  0  0  0
  185.4960  177.2150  135.0400 C   0  0  0  0  0  0  0  0  0  0  0  0
  184.9220  174.0430  136.6270 N   0  0  0  0  0  0  0  0  0  0  0  0
  184.0760  171.8870  136.9710 O   0  0  0  0  0  0  0  0  0  0  0  0
  185.4340  172.1030  135.0290 C   0  0  0  0  0  2  0  0  0  0  0  0
  187.5810  171.4730  136.2260 C   0  0  0  0  0  1  0  0  0  0  0  0
  185.8760  174.8860  135.8970 C   0  0  2  0  0  3  0  0  0  0  0  0
  184.7760  172.6590  136.2610 C   0  0  0  0  0  0  0  0  0  0  0  0
  187.4570  173.6510  134.9330 C   0  0  0  0  0  2  0  0  0  0  0  0
  186.9620  172.2060  135.0420 C   0  0  2  0  0  3  0  0  0  0  0  0
  187.1700  174.3850  136.0930 O   0  0  0  0  0  0  0  0  0  0  0  0
  184.2100  174.5390  137.8020 C   0  0  0  0  0  1  0  0  0  0  0  0
  185.5690  178.2060  138.6440 C   0  0  0  0  0  3  0  0  0  0  0  0
  185.6140  178.8130  139.7010 O   0  0  0  0  0  0  0  0  0  0  0  0
  184.0860  177.6040  134.7070 C   0  0  0  0  0  2  0  0  0  0  0  0
  183.0790  177.1110  135.7470 C   0  0  2  0  0  3  0  0  0  0  0  0
  182.2350  176.0120  135.1340 C   0  0  0  0  0  1  0  0  0  0  0  0
  182.1620  178.2310  136.2130 C   0  0  0  0  0  2  0  0  0  0  0  0
  181.3310  177.8000  137.4090 C   0  0  0  0  0  2  0  0  0  0  0  0
  181.2140  175.7560  139.6030 C   0  0  0  0  0  1  0  0  0  0  0  0
  182.0870  177.9850  138.7250 C   0  0  2  0  0  3  0  0  0  0  0  0
  181.4290  177.2300  139.8920 C   0  0  1  0  0  3  0  0  0  0  0  0
  180.3710  179.2320  140.6890 O   0  0  0  0  0  0  0  0  0  0  0  0
  180.7660  179.9550  139.5440 C   0  0  0  0  0  2  0  0  0  0  0  0
  182.1410  179.4780  139.0620 C   0  0  0  0  0  2  0  0  0  0  0  0
  180.1160  177.9130  140.2760 C   0  0  0  0  0  2  0  0  0  0  0  0
  1  8  1  0  0  0  0
  1 21  1  1  0  0  0
  2  9  1  6  0  0  0
  2  5  1  0  0  0  0
  2  7  1  0  0  0  0
  3 10  1  6  0  0  0
  3  7  1  0  0  0  0
  4  8  1  0  0  0  0
  5  4  1  0  0  0  0
  6  9  1  0  0  0  0
  6 10  2  0  0  0  0
  7  1  1  0  0  0  0
 11 20  1  0  0  0  0
 13 18  1  0  0  0  0
 13 16  1  0  0  0  0
 15 19  1  0  0  0  0
 15  3  1  0  0  0  0
 15 11  1  0  0  0  0
 16 11  1  0  0  0  0
 16 12  2  0  0  0  0
 17 18  1  0  0  0  0
 17 19  1  0  0  0  0
 18 14  1  0  0  0  0
 21 22  2  0  0  0  0
 23 10  1  0  0  0  0
 23 24  1  0  0  0  0
 24 26  1  0  0  0  0
 25 24  1  0  0  0  0
 26 27  1  0  0  0  0
 27 29  1  0  0  0  0
 28 30  1  0  0  0  0
 29 33  1  0  0  0  0
 29 30  1  0  0  0  0
 30 34  1  0  0  0  0
 32 31  1  0  0  0  0
 33 32  1  0  0  0  0
 34 31  1  0  0  0  0
M  END
>  <MODEL>
7

>  <REMARK>
 VINA RESULT:      -6.4      4.098      7.189
  Name = 
  7 active torsions:
  status: ('A' for Active; 'I' for Inactive)
    1  A    between atoms: C_1  and  C_24
    2  A    between atoms: C_3  and  C_13
    3  A    between atoms: C_3  and  C_17
    4  A    between atoms: C_4  and  C_21
    5  A    between atoms: C_5  and  C_18
    6  A    between atoms: C_5  and  C_31
    7  A    between atoms: C_17  and  C_18
                            x       y       z     vdW  Elec       q    Type
                         _______ _______ _______ _____ _____    ______ ____

>  <TORSDO>
F 7

$$$$
=
 OpenBabel10272400093D

 34 37  0  0  1  0  0  0  0  0999 V2000
  189.9640  176.5630  138.1310 C   0  0  2  0  0  3  0  0  0  0  0  0
  190.8750  175.1270  136.2420 C   0  0  1  0  0  3  0  0  0  0  0  0
  188.3640  175.4790  136.4580 C   0  0  1  0  0  3  0  0  0  0  0  0
  192.1950  176.5600  137.8050 C   0  0  0  0  0  2  0  0  0  0  0  0
  192.2270  175.3060  136.9360 C   0  0  0  0  0  2  0  0  0  0  0  0
  189.6030  176.8250  134.7920 C   0  0  0  0  0  3  0  0  0  0  0  0
  189.6950  175.3450  137.2230 C   0  0  2  0  0  3  0  0  0  0  0  0
  191.2010  176.4200  138.7860 O   0  0  0  0  0  0  0  0  0  0  0  0
  190.8220  175.9520  134.9420 C   0  0  0  0  0  2  0  0  0  0  0  0
  188.4530  176.5890  135.4420 C   0  0  0  0  0  0  0  0  0  0  0  0
  186.5760  173.7270  136.2890 N   0  0  0  0  0  0  0  0  0  0  0  0
  184.8620  172.1390  136.1390 O   0  0  0  0  0  0  0  0  0  0  0  0
  186.4410  172.0410  134.3600 C   0  0  0  0  0  2  0  0  0  0  0  0
  187.9340  170.3500  135.5230 C   0  0  0  0  0  1  0  0  0  0  0  0
  187.8880  174.1690  135.8010 C   0  0  2  0  0  3  0  0  0  0  0  0
  185.9140  172.6250  135.6420 C   0  0  0  0  0  0  0  0  0  0  0  0
  188.9190  172.5350  134.6960 C   0  0  0  0  0  2  0  0  0  0  0  0
  187.8520  171.4580  134.4800 C   0  0  2  0  0  3  0  0  0  0  0  0
  188.8090  173.1250  135.9630 O   0  0  0  0  0  0  0  0  0  0  0  0
  185.9830  174.2920  137.4990 C   0  0  0  0  0  1  0  0  0  0  0  0
  188.8810  176.7060  139.1540 C   0  0  0  0  0  3  0  0  0  0  0  0
  189.1060  177.2490  140.2220 O   0  0  0  0  0  0  0  0  0  0  0  0
  187.3090  177.5470  135.2960 C   0  0  0  0  0  2  0  0  0  0  0  0
  186.2040  177.3050  136.3250 C   0  0  2  0  0  3  0  0  0  0  0  0
  184.8670  177.2760  135.6150 C   0  0  0  0  0  1  0  0  0  0  0  0
  186.1740  178.3980  137.3810 C   0  0  0  0  0  2  0  0  0  0  0  0
  185.2500  178.0290  138.5290 C   0  0  0  0  0  2  0  0  0  0  0  0
  186.1890  178.7910  141.2760 C   0  0  0  0  0  1  0  0  0  0  0  0
  184.7150  179.2680  139.2500 C   0  0  2  0  0  3  0  0  0  0  0  0
  184.7970  179.1370  140.7800 C   0  0  1  0  0  3  0  0  0  0  0  0
  182.4750  178.5480  140.9300 O   0  0  0  0  0  0  0  0  0  0  0  0
  182.3600  178.4470  139.5280 C   0  0  0  0  0  2  0  0  0  0  0  0
  183.2550  179.4870  138.8440 C   0  0  0  0  0  2  0  0  0  0  0  0
  183.7690  178.1170  141.2700 C   0  0  0  0  0  2  0  0  0  0  0  0
  1  8  1  0  0  0  0
  1 21  1  1  0  0  0
  2  9  1  6  0  0  0
  2  5  1  0  0  0  0
  2  7  1  0  0  0  0
  3 10  1  6  0  0  0
  3  7  1  0  0  0  0
  4  8  1  0  0  0  0
  5  4  1  0  0  0  0
  6  9  1  0  0  0  0
  6 10  2  0  0  0  0
  7  1  1  0  0  0  0
 11 20  1  0  0  0  0
 13 18  1  0  0  0  0
 13 16  1  0  0  0  0
 15 19  1  0  0  0  0
 15 11  1  0  0  0  0
 15  3  1  0  0  0  0
 16 12  2  0  0  0  0
 16 11  1  0  0  0  0
 17 19  1  0  0  0  0
 18 17  1  0  0  0  0
 18 14  1  0  0  0  0
 21 22  2  0  0  0  0
 23 10  1  0  0  0  0
 23 24  1  0  0  0  0
 24 26  1  0  0  0  0
 25 24  1  0  0  0  0
 26 27  1  0  0  0  0
 27 29  1  0  0  0  0
 29 30  1  0  0  0  0
 30 34  1  0  0  0  0
 30 28  1  0  0  0  0
 31 34  1  0  0  0  0
 32 31  1  0  0  0  0
 33 29  1  0  0  0  0
 33 32  1  0  0  0  0
M  END
>  <MODEL>
8

>  <REMARK>
 VINA RESULT:      -6.3      3.697      7.676
  Name = 
  7 active torsions:
  status: ('A' for Active; 'I' for Inactive)
    1  A    between atoms: C_1  and  C_24
    2  A    between atoms: C_3  and  C_13
    3  A    between atoms: C_3  and  C_17
    4  A    between atoms: C_4  and  C_21
    5  A    between atoms: C_5  and  C_18
    6  A    between atoms: C_5  and  C_31
    7  A    between atoms: C_17  and  C_18
                            x       y       z     vdW  Elec       q    Type
                         _______ _______ _______ _____ _____    ______ ____

>  <TORSDO>
F 7

$$$$
=
 OpenBabel10272400093D

 34 37  0  0  1  0  0  0  0  0999 V2000
  188.3610  178.0390  136.3730 C   0  0  2  0  0  3  0  0  0  0  0  0
  188.6660  175.7370  135.3360 C   0  0  1  0  0  3  0  0  0  0  0  0
  190.3480  176.5800  137.0500 C   0  0  1  0  0  3  0  0  0  0  0  0
  186.6720  177.2260  135.1180 C   0  0  0  0  0  2  0  0  0  0  0  0
  187.4910  176.1310  134.4390 C   0  0  0  0  0  2  0  0  0  0  0  0
  188.6000  174.9940  137.7950 C   0  0  0  0  0  3  0  0  0  0  0  0
  189.3880  176.9810  135.9140 C   0  0  2  0  0  3  0  0  0  0  0  0
  187.4830  178.3540  135.3190 O   0  0  0  0  0  0  0  0  0  0  0  0
  188.2260  174.6820  136.3690 C   0  0  0  0  0  2  0  0  0  0  0  0
  189.6050  175.8220  138.1210 C   0  0  0  0  0  0  0  0  0  0  0  0
  192.7240  175.9040  137.4890 N   0  0  0  0  0  0  0  0  0  0  0  0
  194.9280  175.2700  137.9620 O   0  0  0  0  0  0  0  0  0  0  0  0
  193.8810  173.9670  136.2670 C   0  0  0  0  0  2  0  0  0  0  0  0
  194.6910  175.4400  134.3650 C   0  0  0  0  0  1  0  0  0  0  0  0
  191.5820  175.7890  136.5740 C   0  0  2  0  0  3  0  0  0  0  0  0
  193.8840  175.0790  137.2800 C   0  0  0  0  0  0  0  0  0  0  0  0
  192.2140  174.9550  134.6100 C   0  0  0  0  0  2  0  0  0  0  0  0
  193.6400  174.4400  134.8300 C   0  0  2  0  0  3  0  0  0  0  0  0
  191.9900  176.1620  135.2860 O   0  0  0  0  0  0  0  0  0  0  0  0
  192.7670  176.9280  138.5290 C   0  0  0  0  0  1  0  0  0  0  0  0
  189.0560  179.2840  136.8230 C   0  0  0  0  0  3  0  0  0  0  0  0
  188.8780  179.7190  137.9490 O   0  0  0  0  0  0  0  0  0  0  0  0
  189.8660  176.1390  139.5640 C   0  0  0  0  0  2  0  0  0  0  0  0
  189.1110  177.3800  140.0390 C   0  0  2  0  0  3  0  0  0  0  0  0
  190.1140  178.4340  140.4640 C   0  0  0  0  0  1  0  0  0  0  0  0
  188.2020  177.0670  141.2160 C   0  0  0  0  0  2  0  0  0  0  0  0
  188.7810  177.5970  142.5160 C   0  0  0  0  0  2  0  0  0  0  0  0
  187.9500  177.7690  145.3950 C   0  0  0  0  0  1  0  0  0  0  0  0
  189.0740  176.4710  143.5100 C   0  0  2  0  0  3  0  0  0  0  0  0
  189.1690  176.9770  144.9590 C   0  0  1  0  0  3  0  0  0  0  0  0
  191.5680  176.9820  144.8800 O   0  0  0  0  0  0  0  0  0  0  0  0
  191.5720  176.7160  143.4960 C   0  0  0  0  0  2  0  0  0  0  0  0
  190.3970  175.8020  143.1260 C   0  0  0  0  0  2  0  0  0  0  0  0
  190.4490  177.7930  145.1410 C   0  0  0  0  0  2  0  0  0  0  0  0
  1 21  1  6  0  0  0
  2  5  1  1  0  0  0
  2  7  1  0  0  0  0
  2  9  1  0  0  0  0
  3 10  1  1  0  0  0
  4  8  1  0  0  0  0
  5  4  1  0  0  0  0
  6 10  2  0  0  0  0
  7  1  1  0  0  0  0
  7  3  1  0  0  0  0
  8  1  1  0  0  0  0
  9  6  1  0  0  0  0
 10 23  1  0  0  0  0
 11 20  1  0  0  0  0
 13 16  1  0  0  0  0
 14 18  1  0  0  0  0
 15  3  1  0  0  0  0
 15 11  1  0  0  0  0
 16 11  1  0  0  0  0
 16 12  2  0  0  0  0
 17 18  1  0  0  0  0
 17 19  1  0  0  0  0
 18 13  1  0  0  0  0
 19 15  1  0  0  0  0
 21 22  2  0  0  0  0
 23 24  1  0  0  0  0
 24 25  1  0  0  0  0
 24 26  1  0  0  0  0
 26 27  1  0  0  0  0
 27 29  1  0  0  0  0
 29 30  1  0  0  0  0
 30 34  1  0  0  0  0
 30 28  1  0  0  0  0
 31 34  1  0  0  0  0
 32 31  1  0  0  0  0
 33 32  1  0  0  0  0
 33 29  1  0  0  0  0
M  END
>  <MODEL>
9

>  <REMARK>
 VINA RESULT:      -6.2      4.245      6.038
  Name = 
  7 active torsions:
  status: ('A' for Active; 'I' for Inactive)
    1  A    between atoms: C_1  and  C_24
    2  A    between atoms: C_3  and  C_13
    3  A    between atoms: C_3  and  C_17
    4  A    between atoms: C_4  and  C_21
    5  A    between atoms: C_5  and  C_18
    6  A    between atoms: C_5  and  C_31
    7  A    between atoms: C_17  and  C_18
                            x       y       z     vdW  Elec       q    Type
                         _______ _______ _______ _____ _____    ______ ____

>  <TORSDO>
F 7

$$$$
