=
 OpenBabel10272415053D

 37 40  0  0  1  0  0  0  0  0999 V2000
  190.1860  176.9640  137.8040 C   0  0  2  0  0  3  0  0  0  0  0  0
  189.1250  178.1860  139.5710 O   0  0  0  0  0  0  0  0  0  0  0  0
  190.0730  177.3960  140.2490 C   0  0  2  0  0  3  0  0  0  0  0  0
  189.3290  176.8830  139.0690 C   0  0  2  0  0  3  0  0  0  0  0  0
  189.5090  176.8780  141.5860 C   0  0  1  0  0  3  0  0  0  0  0  0
  190.4500  176.0010  142.4220 C   0  0  0  0  0  1  0  0  0  0  0  0
  188.8370  177.9910  142.3950 C   0  0  2  0  0  3  0  0  0  0  0  0
  189.6930  178.4370  143.5770 C   0  0  0  0  0  1  0  0  0  0  0  0
  187.4600  177.5460  142.8680 C   0  0  0  0  0  2  0  0  0  0  0  0
  187.3590  177.5910  144.3610 C   0  0  0  0  0  3  0  0  0  0  0  0
  186.2680  177.5870  144.9100 O   0  0  0  0  0  0  0  0  0  0  0  0
  189.8520  176.9680  135.2540 C   0  0  0  0  0  1  0  0  0  0  0  0
  189.2750  177.3220  136.6160 C   0  0  1  0  0  3  0  0  0  0  0  0
  187.7770  176.9870  136.8150 C   0  0  1  0  0  3  0  0  0  0  0  0
  186.5980  178.8100  137.8810 O   0  0  0  0  0  0  0  0  0  0  0  0
  186.7910  178.1600  136.6810 C   0  0  0  0  0  3  0  0  0  0  0  0
  185.6740  177.9350  137.4560 O   0  0  0  0  0  0  0  0  0  0  0  0
  187.2840  175.7170  136.1200 C   0  0  0  0  0  2  0  0  0  0  0  0
  185.6040  174.3670  137.0700 O   0  0  0  0  0  0  0  0  0  0  0  0
  186.7790  174.6940  137.0870 C   0  0  0  0  0  3  0  0  0  0  0  0
  191.0200  175.6740  137.5820 C   0  0  1  0  0  3  0  0  0  0  0  0
  193.5610  175.3150  136.1180 C   0  0  1  0  0  3  0  0  0  0  0  0
  195.1590  173.3600  136.5200 C   0  0  0  0  0  2  0  0  0  0  0  0
  194.6250  174.8440  138.3670 O   0  0  0  0  0  0  0  0  0  0  0  0
  194.8170  174.5660  135.6290 C   0  0  2  0  0  3  0  0  0  0  0  0
  192.2910  175.6190  138.4570 C   0  0  1  0  0  3  0  0  0  0  0  0
  193.5950  175.5010  137.6600 C   0  0  2  0  0  0  0  0  0  0  0  0
  193.8750  177.1350  139.4010 O   0  0  0  0  0  1  0  0  0  0  0  0
  194.6100  173.5010  137.9480 C   0  0  0  0  0  2  0  0  0  0  0  0
  193.2900  176.5880  135.3200 C   0  0  0  0  0  1  0  0  0  0  0  0
  193.1710  176.8460  138.2310 C   0  0  2  0  0  3  0  0  0  0  0  0
  196.8810  175.6270  136.5540 O   0  0  0  0  0  1  0  0  0  0  0  0
  196.2510  176.0480  134.3940 O   0  0  0  0  0  0  0  0  0  0  0  0
  196.0170  175.4560  135.4800 C   0  0  0  0  0  0  0  0  0  0  0  0
  190.2450  174.4910  137.6790 O   0  0  0  0  0  0  0  0  0  0  0  0
  190.8040  173.4950  136.8590 C   0  0  0  0  0  2  0  0  0  0  0  0
  189.9260  173.2930  135.6420 C   0  0  0  0  0  1  0  0  0  0  0  0
  1 13  1  6  0  0  0
  2  3  1  0  0  0  0
  3  5  1  1  0  0  0
  4  1  1  6  0  0  0
  4  2  1  0  0  0  0
  4  3  1  0  0  0  0
  5  7  1  0  0  0  0
  5  6  1  1  0  0  0
  7  9  1  0  0  0  0
  7  8  1  1  0  0  0
  9 10  1  0  0  0  0
 10 11  2  0  0  0  0
 13 12  1  6  0  0  0
 13 14  1  0  0  0  0
 14 18  1  6  0  0  0
 16 14  1  0  0  0  0
 16 17  1  0  0  0  0
 16 15  1  0  0  0  0
 17 15  1  0  0  0  0
 18 20  1  0  0  0  0
 19 20  2  0  0  0  0
 21 35  1  1  0  0  0
 21  1  1  0  0  0  0
 22 30  1  6  0  0  0
 22 27  1  0  0  0  0
 23 29  1  0  0  0  0
 25 34  1  1  0  0  0
 25 22  1  0  0  0  0
 25 23  1  0  0  0  0
 26 21  1  6  0  0  0
 27 31  1  0  0  0  0
 27 24  1  1  0  0  0
 27 26  1  0  0  0  0
 29 24  1  0  0  0  0
 31 26  1  0  0  0  0
 31 28  1  1  0  0  0
 33 34  2  0  0  0  0
 34 32  1  0  0  0  0
 36 35  1  0  0  0  0
 37 36  1  0  0  0  0
M  END
>  <MODEL>
1

>  <REMARK>
 VINA RESULT:      -5.4      0.000      0.000
  Name = 
  15 active torsions:
  status: ('A' for Active; 'I' for Inactive)
    1  A    between atoms: C_1  and  C_5
    2  A    between atoms: C_1  and  C_23
    3  A    between atoms: C_5  and  C_26
    4  A    between atoms: C_8  and  C_19
    5  A    between atoms: C_9  and  C_13
    6  A    between atoms: C_9  and  C_16
    7  A    between atoms: C_9  and  C_30
    8  A    between atoms: C_10  and  C_29
    9  A    between atoms: C_11  and  C_26
   10  A    between atoms: C_13  and  C_20
   11  A    between atoms: C_16  and  C_24
   12  A    between atoms: C_20  and  C_25
   13  A    between atoms: C_20  and  C_29
   14  A    between atoms: C_27  and  O_33
   15  A    between atoms: C_29  and  O_33
                            x       y       z     vdW  Elec       q    Type
                         _______ _______ _______ _____ _____    ______ ____

>  <TORSDO>
F 15

$$$$
=
 OpenBabel10272415053D

 37 40  0  0  1  0  0  0  0  0999 V2000
  188.3520  178.2450  141.2340 C   0  0  2  0  0  3  0  0  0  0  0  0
  186.5810  178.8570  139.7400 O   0  0  0  0  0  0  0  0  0  0  0  0
  185.9700  178.9170  141.0070 C   0  0  2  0  0  3  0  0  0  0  0  0
  186.9760  177.8760  140.6740 C   0  0  2  0  0  3  0  0  0  0  0  0
  184.5230  178.3940  140.9500 C   0  0  1  0  0  3  0  0  0  0  0  0
  183.6570  178.6630  142.1880 C   0  0  0  0  0  1  0  0  0  0  0  0
  183.8300  178.7600  139.6340 C   0  0  2  0  0  3  0  0  0  0  0  0
  182.4270  179.3140  139.8580 C   0  0  0  0  0  1  0  0  0  0  0  0
  183.7890  177.5550  138.7030 C   0  0  0  0  0  2  0  0  0  0  0  0
  182.5490  176.7450  138.9210 C   0  0  0  0  0  3  0  0  0  0  0  0
  182.5720  175.7540  139.6350 O   0  0  0  0  0  0  0  0  0  0  0  0
  190.3060  176.6920  140.6150 C   0  0  0  0  0  1  0  0  0  0  0  0
  189.4230  177.8580  140.1980 C   0  0  1  0  0  3  0  0  0  0  0  0
  188.9350  177.8360  138.7290 C   0  0  1  0  0  3  0  0  0  0  0  0
  188.2360  179.4990  137.1190 O   0  0  0  0  0  0  0  0  0  0  0  0
  189.3040  179.0550  137.8680 C   0  0  0  0  0  3  0  0  0  0  0  0
  189.1810  178.7500  136.5300 O   0  0  0  0  0  0  0  0  0  0  0  0
  189.1230  176.5100  137.9880 C   0  0  0  0  0  2  0  0  0  0  0  0
  186.9720  176.4170  137.0360 O   0  0  0  0  0  0  0  0  0  0  0  0
  187.8240  175.8350  137.6850 C   0  0  0  0  0  3  0  0  0  0  0  0
  188.5930  177.6300  142.6380 C   0  0  1  0  0  3  0  0  0  0  0  0
  190.0270  176.4570  144.9390 C   0  0  1  0  0  3  0  0  0  0  0  0
  189.3640  176.8620  147.3740 C   0  0  0  0  0  2  0  0  0  0  0  0
  189.9510  178.7630  145.9810 O   0  0  0  0  0  0  0  0  0  0  0  0
  190.2500  176.0540  146.4110 C   0  0  2  0  0  3  0  0  0  0  0  0
  189.1710  178.6430  143.6500 C   0  0  1  0  0  3  0  0  0  0  0  0
  189.9670  178.0020  144.7930 C   0  0  2  0  0  0  0  0  0  0  0  0
  191.1710  179.9100  143.9620 O   0  0  0  0  0  1  0  0  0  0  0  0
  188.9390  178.2210  146.7950 C   0  0  0  0  0  2  0  0  0  0  0  0
  190.9940  175.7550  143.9880 C   0  0  0  0  0  1  0  0  0  0  0  0
  190.6980  178.6410  143.6220 C   0  0  2  0  0  3  0  0  0  0  0  0
  192.0850  177.1350  147.7160 O   0  0  0  0  0  1  0  0  0  0  0  0
  192.5350  175.3100  146.4090 O   0  0  0  0  0  0  0  0  0  0  0  0
  191.6870  176.1360  146.8380 C   0  0  0  0  0  0  0  0  0  0  0  0
  187.4590  176.9470  143.1450 O   0  0  0  0  0  0  0  0  0  0  0  0
  186.7020  177.8220  143.9450 C   0  0  0  0  0  2  0  0  0  0  0  0
  186.2530  177.0980  145.1980 C   0  0  0  0  0  1  0  0  0  0  0  0
  1 13  1  6  0  0  0
  1 21  1  0  0  0  0
  2  4  1  0  0  0  0
  2  3  1  0  0  0  0
  3  5  1  6  0  0  0
  4  3  1  0  0  0  0
  4  1  1  1  0  0  0
  5  6  1  1  0  0  0
  7  8  1  1  0  0  0
  7  5  1  0  0  0  0
  9 10  1  0  0  0  0
  9  7  1  0  0  0  0
 10 11  2  0  0  0  0
 13 12  1  1  0  0  0
 14 18  1  6  0  0  0
 14 13  1  0  0  0  0
 15 16  1  0  0  0  0
 16 14  1  0  0  0  0
 17 15  1  0  0  0  0
 17 16  1  0  0  0  0
 19 20  2  0  0  0  0
 20 18  1  0  0  0  0
 21 35  1  1  0  0  0
 22 30  1  6  0  0  0
 22 25  1  0  0  0  0
 24 29  1  0  0  0  0
 25 34  1  1  0  0  0
 25 23  1  0  0  0  0
 26 21  1  6  0  0  0
 26 27  1  0  0  0  0
 27 22  1  0  0  0  0
 27 24  1  1  0  0  0
 29 23  1  0  0  0  0
 31 26  1  0  0  0  0
 31 28  1  1  0  0  0
 31 27  1  0  0  0  0
 33 34  2  0  0  0  0
 34 32  1  0  0  0  0
 35 36  1  0  0  0  0
 36 37  1  0  0  0  0
M  END
>  <MODEL>
2

>  <REMARK>
 VINA RESULT:      -4.6      4.013      7.512
  Name = 
  15 active torsions:
  status: ('A' for Active; 'I' for Inactive)
    1  A    between atoms: C_1  and  C_5
    2  A    between atoms: C_1  and  C_23
    3  A    between atoms: C_5  and  C_26
    4  A    between atoms: C_8  and  C_19
    5  A    between atoms: C_9  and  C_13
    6  A    between atoms: C_9  and  C_16
    7  A    between atoms: C_9  and  C_30
    8  A    between atoms: C_10  and  C_29
    9  A    between atoms: C_11  and  C_26
   10  A    between atoms: C_13  and  C_20
   11  A    between atoms: C_16  and  C_24
   12  A    between atoms: C_20  and  C_25
   13  A    between atoms: C_20  and  C_29
   14  A    between atoms: C_27  and  O_33
   15  A    between atoms: C_29  and  O_33
                            x       y       z     vdW  Elec       q    Type
                         _______ _______ _______ _____ _____    ______ ____

>  <TORSDO>
F 15

$$$$
=
 OpenBabel10272415053D

 37 40  0  0  1  0  0  0  0  0999 V2000
  187.3620  177.4980  138.5310 C   0  0  2  0  0  3  0  0  0  0  0  0
  189.2960  177.9550  139.8700 O   0  0  0  0  0  0  0  0  0  0  0  0
  188.4170  177.3300  140.7750 C   0  0  2  0  0  3  0  0  0  0  0  0
  187.9270  178.2640  139.7290 C   0  0  2  0  0  3  0  0  0  0  0  0
  188.5030  177.9790  142.1690 C   0  0  1  0  0  3  0  0  0  0  0  0
  187.3510  177.6660  143.1340 C   0  0  0  0  0  1  0  0  0  0  0  0
  189.8880  177.8060  142.8000 C   0  0  2  0  0  3  0  0  0  0  0  0
  190.4930  176.4410  142.4900 C   0  0  0  0  0  1  0  0  0  0  0  0
  189.8180  178.0320  144.3050 C   0  0  0  0  0  2  0  0  0  0  0  0
  190.6540  177.0340  145.0410 C   0  0  0  0  0  3  0  0  0  0  0  0
  190.8720  177.1680  146.2360 O   0  0  0  0  0  0  0  0  0  0  0  0
  188.9720  179.1110  137.3400 C   0  0  0  0  0  1  0  0  0  0  0  0
  188.2580  177.7680  137.3100 C   0  0  1  0  0  3  0  0  0  0  0  0
  189.1160  176.5660  136.8480 C   0  0  1  0  0  3  0  0  0  0  0  0
  188.0130  174.6040  135.9630 O   0  0  0  0  0  0  0  0  0  0  0  0
  188.6090  175.7970  135.6160 C   0  0  0  0  0  3  0  0  0  0  0  0
  189.2710  174.5940  135.4980 O   0  0  0  0  0  0  0  0  0  0  0  0
  190.6280  176.8030  136.8150 C   0  0  0  0  0  2  0  0  0  0  0  0
  190.8090  175.1810  138.5120 O   0  0  0  0  0  0  0  0  0  0  0  0
  191.3390  176.1160  137.9370 C   0  0  0  0  0  3  0  0  0  0  0  0
  185.8640  177.8200  138.2880 C   0  0  1  0  0  3  0  0  0  0  0  0
  182.9730  177.8030  138.8990 C   0  0  1  0  0  3  0  0  0  0  0  0
  181.3790  179.6910  138.2450 C   0  0  0  0  0  2  0  0  0  0  0  0
  183.2700  180.1910  139.6850 O   0  0  0  0  0  0  0  0  0  0  0  0
  181.5050  178.2630  138.8030 C   0  0  2  0  0  3  0  0  0  0  0  0
  185.3550  179.0040  139.1380 C   0  0  1  0  0  3  0  0  0  0  0  0
  183.8660  178.9270  139.4930 C   0  0  2  0  0  0  0  0  0  0  0  0
  185.1140  179.5720  141.4450 O   0  0  0  0  0  1  0  0  0  0  0  0
  182.6450  180.5320  138.4710 C   0  0  0  0  0  2  0  0  0  0  0  0
  183.1170  176.4400  139.5740 C   0  0  0  0  0  1  0  0  0  0  0  0
  184.9150  178.5400  140.5250 C   0  0  2  0  0  3  0  0  0  0  0  0
  180.7380  179.2260  140.9770 O   0  0  0  0  0  1  0  0  0  0  0  0
  180.1560  177.0860  140.4070 O   0  0  0  0  0  0  0  0  0  0  0  0
  180.7610  178.1480  140.1020 C   0  0  0  0  0  0  0  0  0  0  0  0
  185.5440  177.9640  136.9140 O   0  0  0  0  0  0  0  0  0  0  0  0
  185.1040  176.7300  136.4030 C   0  0  0  0  0  2  0  0  0  0  0  0
  183.9590  176.9640  135.4390 C   0  0  0  0  0  1  0  0  0  0  0  0
  1 13  1  6  0  0  0
  2  3  1  0  0  0  0
  3  5  1  1  0  0  0
  4  1  1  6  0  0  0
  4  2  1  0  0  0  0
  4  3  1  0  0  0  0
  5  7  1  0  0  0  0
  5  6  1  1  0  0  0
  7  8  1  1  0  0  0
  7  9  1  0  0  0  0
  9 10  1  0  0  0  0
 10 11  2  0  0  0  0
 13 12  1  1  0  0  0
 14 18  1  6  0  0  0
 14 13  1  0  0  0  0
 16 15  1  0  0  0  0
 16 14  1  0  0  0  0
 17 16  1  0  0  0  0
 17 15  1  0  0  0  0
 18 20  1  0  0  0  0
 20 19  2  0  0  0  0
 21 35  1  6  0  0  0
 21  1  1  0  0  0  0
 22 27  1  0  0  0  0
 22 30  1  1  0  0  0
 23 29  1  0  0  0  0
 23 25  1  0  0  0  0
 25 22  1  0  0  0  0
 25 34  1  1  0  0  0
 26 21  1  6  0  0  0
 26 27  1  0  0  0  0
 26 31  1  0  0  0  0
 27 24  1  1  0  0  0
 27 31  1  0  0  0  0
 29 24  1  0  0  0  0
 31 28  1  1  0  0  0
 34 33  2  0  0  0  0
 34 32  1  0  0  0  0
 36 35  1  0  0  0  0
 37 36  1  0  0  0  0
M  END
>  <MODEL>
3

>  <REMARK>
 VINA RESULT:      -4.6      3.349      8.380
  Name = 
  15 active torsions:
  status: ('A' for Active; 'I' for Inactive)
    1  A    between atoms: C_1  and  C_5
    2  A    between atoms: C_1  and  C_23
    3  A    between atoms: C_5  and  C_26
    4  A    between atoms: C_8  and  C_19
    5  A    between atoms: C_9  and  C_13
    6  A    between atoms: C_9  and  C_16
    7  A    between atoms: C_9  and  C_30
    8  A    between atoms: C_10  and  C_29
    9  A    between atoms: C_11  and  C_26
   10  A    between atoms: C_13  and  C_20
   11  A    between atoms: C_16  and  C_24
   12  A    between atoms: C_20  and  C_25
   13  A    between atoms: C_20  and  C_29
   14  A    between atoms: C_27  and  O_33
   15  A    between atoms: C_29  and  O_33
                            x       y       z     vdW  Elec       q    Type
                         _______ _______ _______ _____ _____    ______ ____

>  <TORSDO>
F 15

$$$$
=
 OpenBabel10272415053D

 37 40  0  0  1  0  0  0  0  0999 V2000
  190.1200  175.2050  136.8670 C   0  0  2  0  0  3  0  0  0  0  0  0
  187.7810  175.0900  136.3570 O   0  0  0  0  0  0  0  0  0  0  0  0
  188.0870  173.7780  136.7660 C   0  0  2  0  0  3  0  0  0  0  0  0
  189.0420  174.5910  135.9700 C   0  0  2  0  0  3  0  0  0  0  0  0
  187.3270  172.7420  135.9170 C   0  0  1  0  0  3  0  0  0  0  0  0
  187.9450  171.3390  135.8490 C   0  0  0  0  0  1  0  0  0  0  0  0
  185.8280  172.7310  136.2290 C   0  0  2  0  0  3  0  0  0  0  0  0
  185.5510  172.9190  137.7180 C   0  0  0  0  0  1  0  0  0  0  0  0
  185.1890  171.4440  135.7230 C   0  0  0  0  0  2  0  0  0  0  0  0
  183.8360  171.2370  136.3280 C   0  0  0  0  0  3  0  0  0  0  0  0
  183.3540  170.1170  136.4020 O   0  0  0  0  0  0  0  0  0  0  0  0
  190.1070  177.1380  135.1720 C   0  0  0  0  0  1  0  0  0  0  0  0
  190.1430  176.7260  136.6360 C   0  0  1  0  0  3  0  0  0  0  0  0
  189.2350  177.5470  137.5830 C   0  0  1  0  0  3  0  0  0  0  0  0
  188.8860  177.5010  139.9760 O   0  0  0  0  0  0  0  0  0  0  0  0
  189.7920  177.8270  138.9900 C   0  0  0  0  0  3  0  0  0  0  0  0
  189.0310  178.7870  139.6210 O   0  0  0  0  0  0  0  0  0  0  0  0
  188.5600  178.7700  136.9600 C   0  0  0  0  0  2  0  0  0  0  0  0
  186.3460  178.7090  137.7580 O   0  0  0  0  0  0  0  0  0  0  0  0
  187.0850  178.5880  136.7960 C   0  0  0  0  0  3  0  0  0  0  0  0
  191.5000  174.5240  136.6690 C   0  0  1  0  0  3  0  0  0  0  0  0
  194.2620  174.9280  135.7030 C   0  0  1  0  0  3  0  0  0  0  0  0
  196.2720  173.6130  136.5770 C   0  0  0  0  0  2  0  0  0  0  0  0
  194.9610  174.9350  138.1360 O   0  0  0  0  0  0  0  0  0  0  0  0
  195.7580  174.6000  135.5160 C   0  0  2  0  0  3  0  0  0  0  0  0
  192.5310  174.9220  137.7460 C   0  0  1  0  0  3  0  0  0  0  0  0
  193.9380  175.1910  137.1980 C   0  0  2  0  0  0  0  0  0  0  0  0
  193.3590  176.9120  138.7750 O   0  0  0  0  0  1  0  0  0  0  0  0
  195.4400  173.6390  137.8690 C   0  0  0  0  0  2  0  0  0  0  0  0
  193.7750  176.0060  134.7370 C   0  0  0  0  0  1  0  0  0  0  0  0
  193.0190  176.3550  137.5400 C   0  0  2  0  0  3  0  0  0  0  0  0
  196.6340  176.6260  134.3460 O   0  0  0  0  0  0  0  0  0  0  0  0
  197.3620  176.1220  136.4580 O   0  0  0  0  0  1  0  0  0  0  0  0
  196.6320  175.8200  135.4770 C   0  0  0  0  0  0  0  0  0  0  0  0
  191.4050  173.1180  136.5050 O   0  0  0  0  0  0  0  0  0  0  0  0
  191.8430  172.7650  135.2160 C   0  0  0  0  0  2  0  0  0  0  0  0
  192.8160  171.6090  135.3140 C   0  0  0  0  0  1  0  0  0  0  0  0
  1 13  1  6  0  0  0
  2  3  1  0  0  0  0
  3  5  1  6  0  0  0
  4  2  1  0  0  0  0
  4  3  1  0  0  0  0
  4  1  1  1  0  0  0
  5  6  1  1  0  0  0
  5  7  1  0  0  0  0
  7  8  1  1  0  0  0
  9  7  1  0  0  0  0
  9 10  1  0  0  0  0
 10 11  2  0  0  0  0
 13 12  1  6  0  0  0
 13 14  1  0  0  0  0
 14 18  1  6  0  0  0
 14 16  1  0  0  0  0
 16 17  1  0  0  0  0
 16 15  1  0  0  0  0
 17 15  1  0  0  0  0
 20 18  1  0  0  0  0
 20 19  2  0  0  0  0
 21 35  1  1  0  0  0
 21  1  1  0  0  0  0
 22 30  1  6  0  0  0
 22 27  1  0  0  0  0
 23 29  1  0  0  0  0
 25 34  1  1  0  0  0
 25 22  1  0  0  0  0
 25 23  1  0  0  0  0
 26 21  1  6  0  0  0
 27 31  1  0  0  0  0
 27 26  1  0  0  0  0
 27 24  1  1  0  0  0
 29 24  1  0  0  0  0
 31 26  1  0  0  0  0
 31 28  1  1  0  0  0
 32 34  2  0  0  0  0
 34 33  1  0  0  0  0
 36 37  1  0  0  0  0
 36 35  1  0  0  0  0
M  END
>  <MODEL>
4

>  <REMARK>
 VINA RESULT:      -4.5      2.242      4.751
  Name = 
  15 active torsions:
  status: ('A' for Active; 'I' for Inactive)
    1  A    between atoms: C_1  and  C_5
    2  A    between atoms: C_1  and  C_23
    3  A    between atoms: C_5  and  C_26
    4  A    between atoms: C_8  and  C_19
    5  A    between atoms: C_9  and  C_13
    6  A    between atoms: C_9  and  C_16
    7  A    between atoms: C_9  and  C_30
    8  A    between atoms: C_10  and  C_29
    9  A    between atoms: C_11  and  C_26
   10  A    between atoms: C_13  and  C_20
   11  A    between atoms: C_16  and  C_24
   12  A    between atoms: C_20  and  C_25
   13  A    between atoms: C_20  and  C_29
   14  A    between atoms: C_27  and  O_33
   15  A    between atoms: C_29  and  O_33
                            x       y       z     vdW  Elec       q    Type
                         _______ _______ _______ _____ _____    ______ ____

>  <TORSDO>
F 15

$$$$
=
 OpenBabel10272415053D

 37 40  0  0  1  0  0  0  0  0999 V2000
  188.6990  177.3370  139.1310 C   0  0  2  0  0  3  0  0  0  0  0  0
  189.7800  176.8610  137.0460 O   0  0  0  0  0  0  0  0  0  0  0  0
  190.0780  175.7300  137.8290 C   0  0  2  0  0  3  0  0  0  0  0  0
  190.0300  177.0950  138.4140 C   0  0  2  0  0  3  0  0  0  0  0  0
  191.5140  175.2390  137.5680 C   0  0  1  0  0  3  0  0  0  0  0  0
  191.6730  173.7430  137.2660 C   0  0  0  0  0  1  0  0  0  0  0  0
  192.2600  176.1410  136.5800 C   0  0  2  0  0  3  0  0  0  0  0  0
  192.2110  175.5950  135.1560 C   0  0  0  0  0  1  0  0  0  0  0  0
  193.7020  176.3410  137.0280 C   0  0  0  0  0  2  0  0  0  0  0  0
  194.6220  176.4610  135.8540 C   0  0  0  0  0  3  0  0  0  0  0  0
  194.9720  177.5600  135.4500 O   0  0  0  0  0  0  0  0  0  0  0  0
  188.7390  179.2220  137.3830 C   0  0  0  0  0  1  0  0  0  0  0  0
  187.9010  178.3890  138.3420 C   0  0  1  0  0  3  0  0  0  0  0  0
  186.5410  177.9010  137.7890 C   0  0  1  0  0  3  0  0  0  0  0  0
  186.5780  176.8070  135.6330 O   0  0  0  0  0  0  0  0  0  0  0  0
  186.5590  176.5850  136.9930 C   0  0  0  0  0  3  0  0  0  0  0  0
  185.4200  176.4760  136.2250 O   0  0  0  0  0  0  0  0  0  0  0  0
  185.3610  177.9890  138.7590 C   0  0  0  0  0  2  0  0  0  0  0  0
  184.4710  180.1150  139.2410 O   0  0  0  0  0  0  0  0  0  0  0  0
  184.4760  179.1620  138.4790 C   0  0  0  0  0  3  0  0  0  0  0  0
  188.9020  177.7010  140.6260 C   0  0  1  0  0  3  0  0  0  0  0  0
  189.8880  176.9120  143.2970 C   0  0  1  0  0  3  0  0  0  0  0  0
  190.7250  178.5800  145.0440 C   0  0  0  0  0  2  0  0  0  0  0  0
  191.8330  178.4800  142.8850 O   0  0  0  0  0  0  0  0  0  0  0  0
  190.3320  177.1200  144.7590 C   0  0  2  0  0  3  0  0  0  0  0  0
  190.3500  178.1240  140.9540 C   0  0  1  0  0  3  0  0  0  0  0  0
  190.8510  177.6390  142.3190 C   0  0  2  0  0  0  0  0  0  0  0  0
  192.5650  177.2770  140.6720 O   0  0  0  0  0  1  0  0  0  0  0  0
  191.1660  179.3350  143.7810 C   0  0  0  0  0  2  0  0  0  0  0  0
  189.6230  175.4440  142.9690 C   0  0  0  0  0  1  0  0  0  0  0  0
  191.2720  176.9110  141.0510 C   0  0  2  0  0  3  0  0  0  0  0  0
  191.8640  176.1960  146.5020 O   0  0  0  0  0  1  0  0  0  0  0  0
  191.9800  175.4180  144.3510 O   0  0  0  0  0  0  0  0  0  0  0  0
  191.4370  176.1950  145.1810 C   0  0  0  0  0  0  0  0  0  0  0  0
  187.9450  178.6320  141.1040 O   0  0  0  0  0  0  0  0  0  0  0  0
  187.1170  178.0080  142.0540 C   0  0  0  0  0  2  0  0  0  0  0  0
  185.8920  178.8660  142.2950 C   0  0  0  0  0  1  0  0  0  0  0  0
  1 13  1  6  0  0  0
  1 21  1  0  0  0  0
  2  3  1  0  0  0  0
  2  4  1  0  0  0  0
  3  5  1  6  0  0  0
  3  4  1  0  0  0  0
  4  1  1  1  0  0  0
  5  6  1  6  0  0  0
  7  8  1  6  0  0  0
  7  9  1  0  0  0  0
  7  5  1  0  0  0  0
 10  9  1  0  0  0  0
 11 10  2  0  0  0  0
 13 12  1  6  0  0  0
 14 13  1  0  0  0  0
 14 18  1  1  0  0  0
 15 17  1  0  0  0  0
 15 16  1  0  0  0  0
 16 14  1  0  0  0  0
 17 16  1  0  0  0  0
 20 18  1  0  0  0  0
 20 19  2  0  0  0  0
 21 35  1  6  0  0  0
 22 30  1  6  0  0  0
 22 25  1  0  0  0  0
 24 29  1  0  0  0  0
 25 23  1  0  0  0  0
 25 34  1  6  0  0  0
 26 21  1  1  0  0  0
 26 31  1  0  0  0  0
 26 27  1  0  0  0  0
 27 24  1  1  0  0  0
 27 22  1  0  0  0  0
 29 23  1  0  0  0  0
 31 28  1  6  0  0  0
 31 27  1  0  0  0  0
 33 34  2  0  0  0  0
 34 32  1  0  0  0  0
 35 36  1  0  0  0  0
 36 37  1  0  0  0  0
M  END
>  <MODEL>
5

>  <REMARK>
 VINA RESULT:      -4.3      2.294      7.005
  Name = 
  15 active torsions:
  status: ('A' for Active; 'I' for Inactive)
    1  A    between atoms: C_1  and  C_5
    2  A    between atoms: C_1  and  C_23
    3  A    between atoms: C_5  and  C_26
    4  A    between atoms: C_8  and  C_19
    5  A    between atoms: C_9  and  C_13
    6  A    between atoms: C_9  and  C_16
    7  A    between atoms: C_9  and  C_30
    8  A    between atoms: C_10  and  C_29
    9  A    between atoms: C_11  and  C_26
   10  A    between atoms: C_13  and  C_20
   11  A    between atoms: C_16  and  C_24
   12  A    between atoms: C_20  and  C_25
   13  A    between atoms: C_20  and  C_29
   14  A    between atoms: C_27  and  O_33
   15  A    between atoms: C_29  and  O_33
                            x       y       z     vdW  Elec       q    Type
                         _______ _______ _______ _____ _____    ______ ____

>  <TORSDO>
F 15

$$$$
=
 OpenBabel10272415053D

 37 40  0  0  1  0  0  0  0  0999 V2000
  190.3350  175.0560  136.6560 C   0  0  2  0  0  3  0  0  0  0  0  0
  187.9690  174.8140  136.3640 O   0  0  0  0  0  0  0  0  0  0  0  0
  188.3910  173.5070  136.6740 C   0  0  2  0  0  3  0  0  0  0  0  0
  189.2140  174.4160  135.8340 C   0  0  2  0  0  3  0  0  0  0  0  0
  187.6150  172.4640  135.8480 C   0  0  1  0  0  3  0  0  0  0  0  0
  188.4470  171.3290  135.2380 C   0  0  0  0  0  1  0  0  0  0  0  0
  186.3590  171.9730  136.5750 C   0  0  2  0  0  3  0  0  0  0  0  0
  185.3060  171.4430  135.6070 C   0  0  0  0  0  1  0  0  0  0  0  0
  185.7800  173.0830  137.4430 C   0  0  0  0  0  2  0  0  0  0  0  0
  184.5670  173.6880  136.8090 C   0  0  0  0  0  3  0  0  0  0  0  0
  184.6110  174.8130  136.3330 O   0  0  0  0  0  0  0  0  0  0  0  0
  189.9540  176.9060  134.9120 C   0  0  0  0  0  1  0  0  0  0  0  0
  190.3870  176.5580  136.3280 C   0  0  1  0  0  3  0  0  0  0  0  0
  189.8480  177.4900  137.4400 C   0  0  1  0  0  3  0  0  0  0  0  0
  189.0130  179.7350  137.7740 O   0  0  0  0  0  0  0  0  0  0  0  0
  188.8920  178.6080  136.9900 C   0  0  0  0  0  3  0  0  0  0  0  0
  187.9890  178.8950  137.9910 O   0  0  0  0  0  0  0  0  0  0  0  0
  189.3850  176.7960  138.7220 C   0  0  0  0  0  2  0  0  0  0  0  0
  189.6880  177.6970  140.8750 O   0  0  0  0  0  0  0  0  0  0  0  0
  190.2130  177.1720  139.9080 C   0  0  0  0  0  3  0  0  0  0  0  0
  191.6910  174.3270  136.4570 C   0  0  1  0  0  3  0  0  0  0  0  0
  194.4620  174.7830  135.5390 C   0  0  1  0  0  3  0  0  0  0  0  0
  196.4600  173.4020  136.3340 C   0  0  0  0  0  2  0  0  0  0  0  0
  195.1440  174.6200  137.9710 O   0  0  0  0  0  0  0  0  0  0  0  0
  195.9570  174.4620  135.3390 C   0  0  2  0  0  3  0  0  0  0  0  0
  192.7170  174.6460  137.5660 C   0  0  1  0  0  3  0  0  0  0  0  0
  194.1280  174.9440  137.0470 C   0  0  2  0  0  0  0  0  0  0  0  0
  193.5470  176.5560  138.7330 O   0  0  0  0  0  1  0  0  0  0  0  0
  195.6190  173.3440  137.6190 C   0  0  0  0  0  2  0  0  0  0  0  0
  193.9850  175.9270  134.6460 C   0  0  0  0  0  1  0  0  0  0  0  0
  193.2130  176.0870  137.4620 C   0  0  2  0  0  3  0  0  0  0  0  0
  197.3920  176.0710  136.6000 O   0  0  0  0  0  1  0  0  0  0  0  0
  197.0780  176.3420  134.3480 O   0  0  0  0  0  0  0  0  0  0  0  0
  196.8370  175.6770  135.3900 C   0  0  0  0  0  0  0  0  0  0  0  0
  191.5440  172.9330  136.2410 O   0  0  0  0  0  0  0  0  0  0  0  0
  191.9670  172.6130  134.9390 C   0  0  0  0  0  2  0  0  0  0  0  0
  193.0670  171.5740  135.0070 C   0  0  0  0  0  1  0  0  0  0  0  0
  1 13  1  6  0  0  0
  2  3  1  0  0  0  0
  3  5  1  6  0  0  0
  4  2  1  0  0  0  0
  4  1  1  1  0  0  0
  4  3  1  0  0  0  0
  5  6  1  1  0  0  0
  5  7  1  0  0  0  0
  7  8  1  6  0  0  0
  7  9  1  0  0  0  0
 10  9  1  0  0  0  0
 11 10  2  0  0  0  0
 13 12  1  6  0  0  0
 13 14  1  0  0  0  0
 14 18  1  1  0  0  0
 15 17  1  0  0  0  0
 16 14  1  0  0  0  0
 16 15  1  0  0  0  0
 16 17  1  0  0  0  0
 18 20  1  0  0  0  0
 20 19  2  0  0  0  0
 21 35  1  1  0  0  0
 21  1  1  0  0  0  0
 22 30  1  6  0  0  0
 22 27  1  0  0  0  0
 23 29  1  0  0  0  0
 25 34  1  1  0  0  0
 25 22  1  0  0  0  0
 25 23  1  0  0  0  0
 26 21  1  6  0  0  0
 27 31  1  0  0  0  0
 27 26  1  0  0  0  0
 27 24  1  1  0  0  0
 29 24  1  0  0  0  0
 31 26  1  0  0  0  0
 31 28  1  1  0  0  0
 33 34  2  0  0  0  0
 34 32  1  0  0  0  0
 36 37  1  0  0  0  0
 36 35  1  0  0  0  0
M  END
>  <MODEL>
6

>  <REMARK>
 VINA RESULT:      -4.3      2.105      4.596
  Name = 
  15 active torsions:
  status: ('A' for Active; 'I' for Inactive)
    1  A    between atoms: C_1  and  C_5
    2  A    between atoms: C_1  and  C_23
    3  A    between atoms: C_5  and  C_26
    4  A    between atoms: C_8  and  C_19
    5  A    between atoms: C_9  and  C_13
    6  A    between atoms: C_9  and  C_16
    7  A    between atoms: C_9  and  C_30
    8  A    between atoms: C_10  and  C_29
    9  A    between atoms: C_11  and  C_26
   10  A    between atoms: C_13  and  C_20
   11  A    between atoms: C_16  and  C_24
   12  A    between atoms: C_20  and  C_25
   13  A    between atoms: C_20  and  C_29
   14  A    between atoms: C_27  and  O_33
   15  A    between atoms: C_29  and  O_33
                            x       y       z     vdW  Elec       q    Type
                         _______ _______ _______ _____ _____    ______ ____

>  <TORSDO>
F 15

$$$$
=
 OpenBabel10272415053D

 37 40  0  0  1  0  0  0  0  0999 V2000
  189.1030  177.3410  142.1510 C   0  0  2  0  0  3  0  0  0  0  0  0
  187.8630  178.2210  144.0040 O   0  0  0  0  0  0  0  0  0  0  0  0
  186.8810  177.5580  143.2440 C   0  0  2  0  0  3  0  0  0  0  0  0
  187.9970  178.2990  142.6020 C   0  0  2  0  0  3  0  0  0  0  0  0
  185.5570  178.3450  143.2420 C   0  0  1  0  0  3  0  0  0  0  0  0
  184.5990  178.0530  142.0790 C   0  0  0  0  0  1  0  0  0  0  0  0
  184.8730  178.3240  144.6120 C   0  0  2  0  0  3  0  0  0  0  0  0
  183.4240  178.7950  144.5370 C   0  0  0  0  0  1  0  0  0  0  0  0
  185.6590  179.1640  145.6100 C   0  0  0  0  0  2  0  0  0  0  0  0
  185.7260  178.4940  146.9470 C   0  0  0  0  0  3  0  0  0  0  0  0
  186.7510  178.5340  147.6100 O   0  0  0  0  0  0  0  0  0  0  0  0
  190.4720  179.0960  143.4370 C   0  0  0  0  0  1  0  0  0  0  0  0
  190.3810  177.6590  142.9460 C   0  0  1  0  0  3  0  0  0  0  0  0
  190.8050  176.5760  143.9670 C   0  0  1  0  0  3  0  0  0  0  0  0
  191.2450  174.1980  143.9230 O   0  0  0  0  0  0  0  0  0  0  0  0
  191.6520  175.4150  143.4190 C   0  0  0  0  0  3  0  0  0  0  0  0
  192.3290  174.7920  144.4440 O   0  0  0  0  0  0  0  0  0  0  0  0
  191.3150  177.0960  145.3120 C   0  0  0  0  0  2  0  0  0  0  0  0
  189.2100  176.9320  146.3530 O   0  0  0  0  0  0  0  0  0  0  0  0
  190.4100  176.7350  146.4460 C   0  0  0  0  0  3  0  0  0  0  0  0
  189.3030  177.3660  140.6130 C   0  0  1  0  0  3  0  0  0  0  0  0
  188.7220  176.8050  137.7710 C   0  0  1  0  0  3  0  0  0  0  0  0
  189.2900  178.4140  135.8670 C   0  0  0  0  0  2  0  0  0  0  0  0
  187.8080  179.1620  137.6390 O   0  0  0  0  0  0  0  0  0  0  0  0
  188.8080  177.0020  136.2440 C   0  0  2  0  0  3  0  0  0  0  0  0
  188.3960  178.3940  139.9020 C   0  0  1  0  0  3  0  0  0  0  0  0
  188.0600  178.0350  138.4500 C   0  0  2  0  0  0  0  0  0  0  0  0
  186.0650  178.7840  139.5630 O   0  0  0  0  0  1  0  0  0  0  0  0
  189.0080  179.4520  136.9640 C   0  0  0  0  0  2  0  0  0  0  0  0
  188.1200  175.4540  138.1530 C   0  0  0  0  0  1  0  0  0  0  0  0
  187.0400  177.7850  139.5510 C   0  0  2  0  0  3  0  0  0  0  0  0
  187.2930  175.3970  135.0750 O   0  0  0  0  0  0  0  0  0  0  0  0
  186.6550  177.5790  135.3440 O   0  0  0  0  0  1  0  0  0  0  0  0
  187.5240  176.6880  135.5320 C   0  0  0  0  0  0  0  0  0  0  0  0
  190.6640  177.4920  140.2330 O   0  0  0  0  0  0  0  0  0  0  0  0
  191.1210  176.2680  139.7120 C   0  0  0  0  0  2  0  0  0  0  0  0
  192.2620  176.5250  138.7510 C   0  0  0  0  0  1  0  0  0  0  0  0
  1 21  1  6  0  0  0
  1 13  1  0  0  0  0
  3  5  1  6  0  0  0
  3  2  1  0  0  0  0
  4  1  1  1  0  0  0
  4  3  1  0  0  0  0
  4  2  1  0  0  0  0
  5  6  1  6  0  0  0
  5  7  1  0  0  0  0
  7  8  1  6  0  0  0
  7  9  1  0  0  0  0
  9 10  1  0  0  0  0
 10 11  2  0  0  0  0
 13 12  1  1  0  0  0
 13 14  1  0  0  0  0
 14 18  1  1  0  0  0
 15 17  1  0  0  0  0
 16 15  1  0  0  0  0
 16 14  1  0  0  0  0
 16 17  1  0  0  0  0
 18 20  1  0  0  0  0
 19 20  2  0  0  0  0
 21 35  1  1  0  0  0
 22 30  1  6  0  0  0
 22 27  1  0  0  0  0
 23 25  1  0  0  0  0
 23 29  1  0  0  0  0
 25 34  1  6  0  0  0
 25 22  1  0  0  0  0
 26 21  1  1  0  0  0
 27 24  1  6  0  0  0
 27 31  1  0  0  0  0
 27 26  1  0  0  0  0
 29 24  1  0  0  0  0
 31 28  1  6  0  0  0
 31 26  1  0  0  0  0
 32 34  2  0  0  0  0
 33 34  1  0  0  0  0
 36 35  1  0  0  0  0
 37 36  1  0  0  0  0
M  END
>  <MODEL>
7

>  <REMARK>
 VINA RESULT:      -4.2      3.150      6.931
  Name = 
  15 active torsions:
  status: ('A' for Active; 'I' for Inactive)
    1  A    between atoms: C_1  and  C_5
    2  A    between atoms: C_1  and  C_23
    3  A    between atoms: C_5  and  C_26
    4  A    between atoms: C_8  and  C_19
    5  A    between atoms: C_9  and  C_13
    6  A    between atoms: C_9  and  C_16
    7  A    between atoms: C_9  and  C_30
    8  A    between atoms: C_10  and  C_29
    9  A    between atoms: C_11  and  C_26
   10  A    between atoms: C_13  and  C_20
   11  A    between atoms: C_16  and  C_24
   12  A    between atoms: C_20  and  C_25
   13  A    between atoms: C_20  and  C_29
   14  A    between atoms: C_27  and  O_33
   15  A    between atoms: C_29  and  O_33
                            x       y       z     vdW  Elec       q    Type
                         _______ _______ _______ _____ _____    ______ ____

>  <TORSDO>
F 15

$$$$
=
 OpenBabel10272415053D

 37 40  0  0  1  0  0  0  0  0999 V2000
  190.2320  175.9230  137.4010 C   0  0  2  0  0  3  0  0  0  0  0  0
  188.8360  176.7420  139.1680 O   0  0  0  0  0  0  0  0  0  0  0  0
  190.1340  177.0640  139.6070 C   0  0  2  0  0  3  0  0  0  0  0  0
  189.8460  175.8020  138.8780 C   0  0  2  0  0  3  0  0  0  0  0  0
  190.2700  176.8600  141.1280 C   0  0  1  0  0  3  0  0  0  0  0  0
  191.4040  177.6330  141.8150 C   0  0  0  0  0  1  0  0  0  0  0  0
  188.9250  176.9890  141.8490 C   0  0  2  0  0  3  0  0  0  0  0  0
  188.5760  178.4410  142.1570 C   0  0  0  0  0  1  0  0  0  0  0  0
  188.9220  176.1540  143.1220 C   0  0  0  0  0  2  0  0  0  0  0  0
  188.7050  177.0110  144.3300 C   0  0  0  0  0  3  0  0  0  0  0  0
  189.6480  177.5530  144.8850 O   0  0  0  0  0  0  0  0  0  0  0  0
  188.0130  174.6330  137.2430 C   0  0  0  0  0  1  0  0  0  0  0  0
  189.0140  175.5400  136.5430 C   0  0  1  0  0  3  0  0  0  0  0  0
  188.4020  176.6990  135.7200 C   0  0  1  0  0  3  0  0  0  0  0  0
  186.3800  176.6830  134.3930 O   0  0  0  0  0  0  0  0  0  0  0  0
  186.8660  176.7720  135.6790 C   0  0  0  0  0  3  0  0  0  0  0  0
  186.4600  177.8880  134.9800 O   0  0  0  0  0  0  0  0  0  0  0  0
  189.0540  178.0690  135.9160 C   0  0  0  0  0  2  0  0  0  0  0  0
  188.9840  179.6140  137.6900 O   0  0  0  0  0  0  0  0  0  0  0  0
  188.3450  178.9000  136.9360 C   0  0  0  0  0  3  0  0  0  0  0  0
  191.5100  175.1100  137.0660 C   0  0  1  0  0  3  0  0  0  0  0  0
  194.2660  175.2700  136.0120 C   0  0  1  0  0  3  0  0  0  0  0  0
  196.1230  173.6370  136.6570 C   0  0  0  0  0  2  0  0  0  0  0  0
  195.0460  174.9430  138.3980 O   0  0  0  0  0  0  0  0  0  0  0  0
  195.7000  174.7830  135.7220 C   0  0  2  0  0  3  0  0  0  0  0  0
  192.6220  175.2670  138.1260 C   0  0  1  0  0  3  0  0  0  0  0  0
  194.0310  175.4160  137.5400 C   0  0  2  0  0  0  0  0  0  0  0  0
  193.7310  177.0250  139.3020 O   0  0  0  0  0  1  0  0  0  0  0  0
  195.3480  173.6330  137.9830 C   0  0  0  0  0  2  0  0  0  0  0  0
  193.8850  176.4930  135.1800 C   0  0  0  0  0  1  0  0  0  0  0  0
  193.2800  176.6430  138.0370 C   0  0  2  0  0  3  0  0  0  0  0  0
  197.8150  175.7750  136.6060 O   0  0  0  0  0  1  0  0  0  0  0  0
  196.5940  176.9040  135.0320 O   0  0  0  0  0  0  0  0  0  0  0  0
  196.7200  175.8840  135.7600 C   0  0  0  0  0  0  0  0  0  0  0  0
  191.2400  173.7510  136.7640 O   0  0  0  0  0  0  0  0  0  0  0  0
  191.6790  173.4630  135.4600 C   0  0  0  0  0  2  0  0  0  0  0  0
  192.3400  172.1000  135.4400 C   0  0  0  0  0  1  0  0  0  0  0  0
  1 13  1  6  0  0  0
  2  3  1  0  0  0  0
  3  5  1  1  0  0  0
  4  1  1  6  0  0  0
  4  2  1  0  0  0  0
  4  3  1  0  0  0  0
  5  6  1  1  0  0  0
  5  7  1  0  0  0  0
  7  8  1  1  0  0  0
  7  9  1  0  0  0  0
  9 10  1  0  0  0  0
 10 11  2  0  0  0  0
 13 12  1  1  0  0  0
 14 18  1  1  0  0  0
 14 13  1  0  0  0  0
 15 17  1  0  0  0  0
 15 16  1  0  0  0  0
 16 14  1  0  0  0  0
 17 16  1  0  0  0  0
 18 20  1  0  0  0  0
 20 19  2  0  0  0  0
 21 35  1  1  0  0  0
 21  1  1  0  0  0  0
 22 30  1  6  0  0  0
 22 27  1  0  0  0  0
 23 29  1  0  0  0  0
 25 34  1  1  0  0  0
 25 22  1  0  0  0  0
 25 23  1  0  0  0  0
 26 21  1  6  0  0  0
 27 31  1  0  0  0  0
 27 26  1  0  0  0  0
 27 24  1  1  0  0  0
 29 24  1  0  0  0  0
 31 26  1  0  0  0  0
 31 28  1  1  0  0  0
 33 34  2  0  0  0  0
 34 32  1  0  0  0  0
 36 35  1  0  0  0  0
 37 36  1  0  0  0  0
M  END
>  <MODEL>
8

>  <REMARK>
 VINA RESULT:      -4.2      1.488      2.113
  Name = 
  15 active torsions:
  status: ('A' for Active; 'I' for Inactive)
    1  A    between atoms: C_1  and  C_5
    2  A    between atoms: C_1  and  C_23
    3  A    between atoms: C_5  and  C_26
    4  A    between atoms: C_8  and  C_19
    5  A    between atoms: C_9  and  C_13
    6  A    between atoms: C_9  and  C_16
    7  A    between atoms: C_9  and  C_30
    8  A    between atoms: C_10  and  C_29
    9  A    between atoms: C_11  and  C_26
   10  A    between atoms: C_13  and  C_20
   11  A    between atoms: C_16  and  C_24
   12  A    between atoms: C_20  and  C_25
   13  A    between atoms: C_20  and  C_29
   14  A    between atoms: C_27  and  O_33
   15  A    between atoms: C_29  and  O_33
                            x       y       z     vdW  Elec       q    Type
                         _______ _______ _______ _____ _____    ______ ____

>  <TORSDO>
F 15

$$$$
=
 OpenBabel10272415053D

 37 40  0  0  1  0  0  0  0  0999 V2000
  189.2120  176.8420  137.2500 C   0  0  2  0  0  3  0  0  0  0  0  0
  191.5270  176.4200  137.7010 O   0  0  0  0  0  0  0  0  0  0  0  0
  191.3340  175.8360  136.4350 C   0  0  2  0  0  3  0  0  0  0  0  0
  190.2880  175.7800  137.4890 C   0  0  2  0  0  3  0  0  0  0  0  0
  192.1260  174.5220  136.3040 C   0  0  1  0  0  3  0  0  0  0  0  0
  191.6870  173.5770  135.1780 C   0  0  0  0  0  1  0  0  0  0  0  0
  193.6390  174.7560  136.3440 C   0  0  2  0  0  3  0  0  0  0  0  0
  194.2440  174.8450  134.9470 C   0  0  0  0  0  1  0  0  0  0  0  0
  194.3240  173.6640  137.1560 C   0  0  0  0  0  2  0  0  0  0  0  0
  195.0800  174.2410  138.3110 C   0  0  0  0  0  3  0  0  0  0  0  0
  195.4660  173.5230  139.2210 O   0  0  0  0  0  0  0  0  0  0  0  0
  189.0310  179.3510  137.7820 C   0  0  0  0  0  1  0  0  0  0  0  0
  189.3890  177.9620  138.2890 C   0  0  1  0  0  3  0  0  0  0  0  0
  188.8860  177.6210  139.7130 C   0  0  1  0  0  3  0  0  0  0  0  0
  190.4780  176.1880  140.8370 O   0  0  0  0  0  0  0  0  0  0  0  0
  189.9640  177.4660  140.8000 C   0  0  0  0  0  3  0  0  0  0  0  0
  189.5590  176.5500  141.7460 O   0  0  0  0  0  0  0  0  0  0  0  0
  187.6700  178.4140  140.1950 C   0  0  0  0  0  2  0  0  0  0  0  0
  186.4500  178.4000  142.2080 O   0  0  0  0  0  0  0  0  0  0  0  0
  187.5510  178.4300  141.6850 C   0  0  0  0  0  3  0  0  0  0  0  0
  187.7860  176.2300  137.2290 C   0  0  1  0  0  3  0  0  0  0  0  0
  184.8970  176.8230  137.4080 C   0  0  1  0  0  3  0  0  0  0  0  0
  183.0890  175.3810  136.3180 C   0  0  0  0  0  2  0  0  0  0  0  0
  184.7980  176.3860  134.9160 O   0  0  0  0  0  0  0  0  0  0  0  0
  183.3860  176.5440  137.2810 C   0  0  2  0  0  3  0  0  0  0  0  0
  187.0620  176.4300  135.8810 C   0  0  1  0  0  3  0  0  0  0  0  0
  185.5810  176.8030  136.0140 C   0  0  2  0  0  0  0  0  0  0  0  0
  186.6040  178.2020  134.3460 O   0  0  0  0  0  1  0  0  0  0  0  0
  184.2040  175.1650  135.2840 C   0  0  0  0  0  2  0  0  0  0  0  0
  185.1950  178.0570  138.2560 C   0  0  0  0  0  1  0  0  0  0  0  0
  186.6120  177.8790  135.7050 C   0  0  2  0  0  3  0  0  0  0  0  0
  182.1130  178.6100  137.8750 O   0  0  0  0  0  1  0  0  0  0  0  0
  182.3510  178.0060  135.6780 O   0  0  0  0  0  0  0  0  0  0  0  0
  182.5900  177.7550  136.8890 C   0  0  0  0  0  0  0  0  0  0  0  0
  187.7560  174.8810  137.6640 O   0  0  0  0  0  0  0  0  0  0  0  0
  187.4940  174.0400  136.5680 C   0  0  0  0  0  2  0  0  0  0  0  0
  186.7120  172.8300  137.0360 C   0  0  0  0  0  1  0  0  0  0  0  0
  1 21  1  1  0  0  0
  1 13  1  0  0  0  0
  3  5  1  1  0  0  0
  3  4  1  0  0  0  0
  3  2  1  0  0  0  0
  4  1  1  6  0  0  0
  4  2  1  0  0  0  0
  5  6  1  6  0  0  0
  5  7  1  0  0  0  0
  7  8  1  6  0  0  0
  7  9  1  0  0  0  0
  9 10  1  0  0  0  0
 10 11  2  0  0  0  0
 13 12  1  6  0  0  0
 13 14  1  0  0  0  0
 14 18  1  1  0  0  0
 14 16  1  0  0  0  0
 15 17  1  0  0  0  0
 16 15  1  0  0  0  0
 16 17  1  0  0  0  0
 18 20  1  0  0  0  0
 20 19  2  0  0  0  0
 21 35  1  6  0  0  0
 22 30  1  6  0  0  0
 23 25  1  0  0  0  0
 24 29  1  0  0  0  0
 25 34  1  6  0  0  0
 25 22  1  0  0  0  0
 26 27  1  0  0  0  0
 26 21  1  1  0  0  0
 27 24  1  6  0  0  0
 27 22  1  0  0  0  0
 29 23  1  0  0  0  0
 31 28  1  6  0  0  0
 31 26  1  0  0  0  0
 31 27  1  0  0  0  0
 33 34  2  0  0  0  0
 34 32  1  0  0  0  0
 36 37  1  0  0  0  0
 36 35  1  0  0  0  0
M  END
>  <MODEL>
9

>  <REMARK>
 VINA RESULT:      -4.1      2.280      8.112
  Name = 
  15 active torsions:
  status: ('A' for Active; 'I' for Inactive)
    1  A    between atoms: C_1  and  C_5
    2  A    between atoms: C_1  and  C_23
    3  A    between atoms: C_5  and  C_26
    4  A    between atoms: C_8  and  C_19
    5  A    between atoms: C_9  and  C_13
    6  A    between atoms: C_9  and  C_16
    7  A    between atoms: C_9  and  C_30
    8  A    between atoms: C_10  and  C_29
    9  A    between atoms: C_11  and  C_26
   10  A    between atoms: C_13  and  C_20
   11  A    between atoms: C_16  and  C_24
   12  A    between atoms: C_20  and  C_25
   13  A    between atoms: C_20  and  C_29
   14  A    between atoms: C_27  and  O_33
   15  A    between atoms: C_29  and  O_33
                            x       y       z     vdW  Elec       q    Type
                         _______ _______ _______ _____ _____    ______ ____

>  <TORSDO>
F 15

$$$$
