=
 OpenBabel10272414473D

 37 43  0  0  1  0  0  0  0  0999 V2000
  189.7420  177.7010  139.0150 C   0  0  0  0  0  2  0  0  0  0  0  0
  190.4550  177.5420  143.3960 C   0  0  0  0  0  0  0  0  0  0  0  0
  186.3470  177.7730  142.1990 C   0  0  1  0  0  3  0  0  0  0  0  0
  189.7870  177.1560  137.5720 C   0  0  2  0  0  3  0  0  0  0  0  0
  185.6970  177.4340  138.9590 O   0  0  0  0  0  0  0  0  0  0  0  0
  188.0350  177.4720  144.0040 C   0  0  0  0  0  0  0  0  0  0  0  0
  186.5870  178.6810  140.9840 C   0  0  2  0  0  3  0  0  0  0  0  0
  188.7470  176.0190  137.3240 C   0  0  1  0  0  3  0  0  0  0  0  0
  187.7250  177.5950  142.7180 C   0  0  0  0  0  0  0  0  0  0  0  0
  185.5290  178.5370  139.8400 C   0  0  2  0  0  3  0  0  0  0  0  0
  186.9350  177.4420  144.9910 C   0  0  0  0  0  3  0  0  0  0  0  0
  188.6890  178.0360  141.7630 C   0  0  0  0  0  0  0  0  0  0  0  0
  190.9660  176.1330  143.1660 C   0  0  0  0  0  1  0  0  0  0  0  0
  184.0310  178.5280  142.8690 C   0  0  0  0  0  2  0  0  0  0  0  0
  185.7140  177.8800  144.6280 C   0  0  0  0  0  3  0  0  0  0  0  0
  189.9870  178.1160  142.0690 C   0  0  0  0  0  3  0  0  0  0  0  0
  187.2800  176.4810  137.3260 C   0  0  0  0  0  2  0  0  0  0  0  0
  187.0290  177.3720  138.5170 C   0  0  1  0  0  3  0  0  0  0  0  0
  185.5020  178.4940  143.2580 C   0  0  1  0  0  3  0  0  0  0  0  0
  188.0320  178.6080  140.6360 N   0  0  0  0  0  0  0  0  0  0  0  0
  189.3910  177.5030  144.3750 O   0  0  0  0  0  0  0  0  0  0  0  0
  184.0710  178.5420  140.3480 C   0  0  1  0  0  3  0  0  0  0  0  0
  191.5910  178.3880  143.9280 C   0  0  0  0  0  1  0  0  0  0  0  0
  187.6020  178.6370  138.3040 O   0  0  0  0  0  0  0  0  0  0  0  0
  188.9950  175.3060  136.0040 C   0  0  0  0  0  1  0  0  0  0  0  0
  188.6090  178.7290  139.2770 C   0  0  2  0  0  3  0  0  0  0  0  0
  183.8150  179.3700  141.6110 C   0  0  0  0  0  2  0  0  0  0  0  0
  182.6670  178.0090  138.3180 C   0  0  0  0  0  3  0  0  0  0  0  0
  183.1300  178.9440  139.2570 C   0  0  0  0  0  0  0  0  0  0  0  0
  182.7010  180.2730  139.1790 C   0  0  0  0  0  3  0  0  0  0  0  0
  181.3630  182.0810  138.0920 C   0  0  0  0  0  1  0  0  0  0  0  0
  181.3580  179.7350  137.2370 C   0  0  0  0  0  3  0  0  0  0  0  0
  181.8170  180.6690  138.1710 C   0  0  0  0  0  0  0  0  0  0  0  0
  181.7830  178.4050  137.3110 C   0  0  0  0  0  3  0  0  0  0  0  0
  191.2250  176.7360  137.2320 C   0  0  0  0  0  2  0  0  0  0  0  0
  192.2900  174.4980  137.5710 C   0  0  0  0  0  1  0  0  0  0  0  0
  191.8320  175.7740  138.2500 C   0  0  0  0  0  2  0  0  0  0  0  0
  2 23  1  0  0  0  0
  2 21  1  0  0  0  0
  3  9  1  1  0  0  0
  3 19  1  0  0  0  0
  4 35  1  1  0  0  0
  4  1  1  0  0  0  0
  6 21  1  0  0  0  0
  6 11  1  0  0  0  0
  7 20  1  6  0  0  0
  7  3  1  0  0  0  0
  8 25  1  6  0  0  0
  8 17  1  0  0  0  0
  8  4  1  0  0  0  0
  9  6  2  0  0  0  0
 10  5  1  1  0  0  0
 10 22  1  0  0  0  0
 10  7  1  0  0  0  0
 12 16  2  0  0  0  0
 12  9  1  0  0  0  0
 13  2  1  0  0  0  0
 15 11  2  0  0  0  0
 16  2  1  0  0  0  0
 18 17  1  6  0  0  0
 18  5  1  0  0  0  0
 19 14  1  6  0  0  0
 19 15  1  0  0  0  0
 20 12  1  0  0  0  0
 22 29  1  6  0  0  0
 22 27  1  0  0  0  0
 24 18  1  0  0  0  0
 24 26  1  0  0  0  0
 26  1  1  6  0  0  0
 26 20  1  0  0  0  0
 27 14  1  0  0  0  0
 28 29  1  0  0  0  0
 30 29  2  0  0  0  0
 31 33  1  0  0  0  0
 32 34  1  0  0  0  0
 32 33  2  0  0  0  0
 33 30  1  0  0  0  0
 34 28  2  0  0  0  0
 35 37  1  0  0  0  0
 36 37  1  0  0  0  0
M  END
>  <MODEL>
1

>  <REMARK>
 VINA RESULT:      -9.0      0.000      0.000
  Name = 
  3 active torsions:
  status: ('A' for Active; 'I' for Inactive)
    1  A    between atoms: C_5  and  C_17
    2  A    between atoms: C_6  and  C_31
    3  A    between atoms: C_17  and  C_23
                            x       y       z     vdW  Elec       q    Type
                         _______ _______ _______ _____ _____    ______ ____

>  <TORSDO>
F 3

$$$$
=
 OpenBabel10272414473D

 37 43  0  0  1  0  0  0  0  0999 V2000
  187.5890  177.4570  145.8760 C   0  0  0  0  0  2  0  0  0  0  0  0
  190.9980  176.9440  143.0750 C   0  0  0  0  0  0  0  0  0  0  0  0
  187.3910  178.4720  141.3380 C   0  0  1  0  0  3  0  0  0  0  0  0
  186.8640  178.0600  147.0980 C   0  0  2  0  0  3  0  0  0  0  0  0
  184.9500  179.3180  143.4260 O   0  0  0  0  0  0  0  0  0  0  0  0
  189.8080  177.9200  141.1100 C   0  0  0  0  0  0  0  0  0  0  0  0
  186.4330  177.6520  142.2140 C   0  0  2  0  0  3  0  0  0  0  0  0
  186.4080  179.5330  146.8620 C   0  0  1  0  0  3  0  0  0  0  0  0
  188.7140  178.0420  141.8540 C   0  0  0  0  0  0  0  0  0  0  0  0
  185.0280  178.3030  142.4340 C   0  0  2  0  0  3  0  0  0  0  0  0
  189.7330  178.3020  139.6840 C   0  0  0  0  0  3  0  0  0  0  0  0
  188.5730  177.3360  143.0860 C   0  0  0  0  0  0  0  0  0  0  0  0
  191.6840  178.0460  143.8580 C   0  0  0  0  0  1  0  0  0  0  0  0
  186.0200  178.6490  139.2240 C   0  0  0  0  0  2  0  0  0  0  0  0
  188.5260  178.4200  139.0980 C   0  0  0  0  0  3  0  0  0  0  0  0
  189.6110  176.7200  143.6570 C   0  0  0  0  0  3  0  0  0  0  0  0
  185.2690  179.6960  145.8420 C   0  0  0  0  0  2  0  0  0  0  0  0
  185.5690  178.8810  144.6100 C   0  0  1  0  0  3  0  0  0  0  0  0
  187.2690  178.0610  139.8650 C   0  0  1  0  0  3  0  0  0  0  0  0
  187.1930  177.1720  143.3990 N   0  0  0  0  0  0  0  0  0  0  0  0
  190.9440  177.3200  141.6800 O   0  0  0  0  0  0  0  0  0  0  0  0
  184.3870  178.8350  141.1350 C   0  0  1  0  0  3  0  0  0  0  0  0
  191.8060  175.6720  143.2190 C   0  0  0  0  0  1  0  0  0  0  0  0
  185.3650  177.5160  144.8700 O   0  0  0  0  0  0  0  0  0  0  0  0
  185.9580  180.1980  148.1530 C   0  0  0  0  0  1  0  0  0  0  0  0
  186.6440  176.9470  144.7570 C   0  0  2  0  0  3  0  0  0  0  0  0
  184.7540  178.0740  139.8570 C   0  0  0  0  0  2  0  0  0  0  0  0
  182.0850  179.2240  140.1720 C   0  0  0  0  0  3  0  0  0  0  0  0
  182.9010  178.9360  141.2780 C   0  0  0  0  0  0  0  0  0  0  0  0
  182.3190  178.7330  142.5330 C   0  0  0  0  0  3  0  0  0  0  0  0
  180.3180  178.5980  144.0220 C   0  0  0  0  0  1  0  0  0  0  0  0
  180.1220  179.1030  141.5830 C   0  0  0  0  0  3  0  0  0  0  0  0
  180.9320  178.8160  142.6870 C   0  0  0  0  0  0  0  0  0  0  0  0
  180.6980  179.3080  140.3270 C   0  0  0  0  0  3  0  0  0  0  0  0
  187.7470  177.8980  148.3450 C   0  0  0  0  0  2  0  0  0  0  0  0
  190.0740  177.2100  147.7340 C   0  0  0  0  0  1  0  0  0  0  0  0
  189.1840  178.3700  148.1340 C   0  0  0  0  0  2  0  0  0  0  0  0
  1  4  1  0  0  0  0
  2 23  1  0  0  0  0
  2 16  1  0  0  0  0
  2 13  1  0  0  0  0
  3  9  1  1  0  0  0
  3  7  1  0  0  0  0
  4 35  1  1  0  0  0
  5 18  1  0  0  0  0
  6 21  1  0  0  0  0
  6  9  2  0  0  0  0
  7 10  1  0  0  0  0
  7 20  1  1  0  0  0
  8  4  1  0  0  0  0
  8 25  1  1  0  0  0
  9 12  1  0  0  0  0
 10  5  1  1  0  0  0
 11  6  1  0  0  0  0
 12 20  1  0  0  0  0
 12 16  2  0  0  0  0
 14 27  1  0  0  0  0
 14 19  1  0  0  0  0
 15 11  2  0  0  0  0
 17  8  1  0  0  0  0
 18 24  1  0  0  0  0
 18 17  1  1  0  0  0
 19 15  1  6  0  0  0
 19  3  1  0  0  0  0
 20 26  1  0  0  0  0
 21  2  1  0  0  0  0
 22 29  1  1  0  0  0
 22 10  1  0  0  0  0
 26 24  1  0  0  0  0
 26  1  1  1  0  0  0
 27 22  1  0  0  0  0
 28 34  2  0  0  0  0
 28 29  1  0  0  0  0
 29 30  2  0  0  0  0
 30 33  1  0  0  0  0
 32 33  2  0  0  0  0
 33 31  1  0  0  0  0
 34 32  1  0  0  0  0
 36 37  1  0  0  0  0
 37 35  1  0  0  0  0
M  END
>  <MODEL>
2

>  <REMARK>
 VINA RESULT:      -7.8      2.448      6.046
  Name = 
  3 active torsions:
  status: ('A' for Active; 'I' for Inactive)
    1  A    between atoms: C_5  and  C_17
    2  A    between atoms: C_6  and  C_31
    3  A    between atoms: C_17  and  C_23
                            x       y       z     vdW  Elec       q    Type
                         _______ _______ _______ _____ _____    ______ ____

>  <TORSDO>
F 3

$$$$
=
 OpenBabel10272414473D

 37 43  0  0  1  0  0  0  0  0999 V2000
  185.5160  179.0130  142.2560 C   0  0  0  0  0  2  0  0  0  0  0  0
  182.4810  178.8210  139.0190 C   0  0  0  0  0  0  0  0  0  0  0  0
  186.3170  177.1700  138.0570 C   0  0  1  0  0  3  0  0  0  0  0  0
  186.0950  178.6880  143.6490 C   0  0  2  0  0  3  0  0  0  0  0  0
  188.4920  176.8550  140.5470 O   0  0  0  0  0  0  0  0  0  0  0  0
  183.9350  177.5500  137.4380 C   0  0  0  0  0  0  0  0  0  0  0  0
  187.1340  178.1870  138.8660 C   0  0  2  0  0  3  0  0  0  0  0  0
  186.6140  177.2200  143.7590 C   0  0  1  0  0  3  0  0  0  0  0  0
  184.9290  177.6250  138.3170 C   0  0  0  0  0  0  0  0  0  0  0  0
  188.5160  177.6590  139.3760 C   0  0  2  0  0  3  0  0  0  0  0  0
  184.2000  176.9100  136.1320 C   0  0  0  0  0  3  0  0  0  0  0  0
  184.8930  178.5570  139.3970 C   0  0  0  0  0  0  0  0  0  0  0  0
  181.7280  177.8530  139.9120 C   0  0  0  0  0  1  0  0  0  0  0  0
  187.9500  176.6650  136.1970 C   0  0  0  0  0  2  0  0  0  0  0  0
  185.4750  176.7430  135.7290 C   0  0  0  0  0  3  0  0  0  0  0  0
  183.7760  179.2180  139.7090 C   0  0  0  0  0  3  0  0  0  0  0  0
  187.8780  176.9240  142.9340 C   0  0  0  0  0  2  0  0  0  0  0  0
  187.7160  177.4760  141.5410 C   0  0  1  0  0  3  0  0  0  0  0  0
  186.6150  177.3020  136.5580 C   0  0  1  0  0  3  0  0  0  0  0  0
  186.2170  178.8450  139.8360 N   0  0  0  0  0  0  0  0  0  0  0  0
  182.7210  178.1910  137.7390 O   0  0  0  0  0  0  0  0  0  0  0  0
  189.3300  176.9230  138.2900 C   0  0  1  0  0  3  0  0  0  0  0  0
  181.6290  180.0550  138.8160 C   0  0  0  0  0  1  0  0  0  0  0  0
  187.8510  178.8740  141.5550 O   0  0  0  0  0  0  0  0  0  0  0  0
  186.9120  176.8340  145.1990 C   0  0  0  0  0  1  0  0  0  0  0  0
  186.5840  179.3480  141.1810 C   0  0  2  0  0  3  0  0  0  0  0  0
  189.1100  177.4110  136.8550 C   0  0  0  0  0  2  0  0  0  0  0  0
  191.2460  177.4150  139.8610 C   0  0  0  0  0  3  0  0  0  0  0  0
  190.7870  176.9240  138.6270 C   0  0  0  0  0  0  0  0  0  0  0  0
  191.7050  176.4190  137.7000 C   0  0  0  0  0  3  0  0  0  0  0  0
  194.0410  175.8670  137.0100 C   0  0  0  0  0  1  0  0  0  0  0  0
  193.5240  176.8950  139.2260 C   0  0  0  0  0  3  0  0  0  0  0  0
  193.0700  176.4050  137.9980 C   0  0  0  0  0  0  0  0  0  0  0  0
  192.6120  177.4000  140.1570 C   0  0  0  0  0  3  0  0  0  0  0  0
  185.0560  179.0380  144.7250 C   0  0  0  0  0  2  0  0  0  0  0  0
  182.5950  178.7300  144.3940 C   0  0  0  0  0  1  0  0  0  0  0  0
  183.7770  179.6490  144.1580 C   0  0  0  0  0  2  0  0  0  0  0  0
  1  4  1  0  0  0  0
  2 16  1  0  0  0  0
  2 13  1  0  0  0  0
  3  9  1  6  0  0  0
  3  7  1  0  0  0  0
  4  8  1  0  0  0  0
  4 35  1  1  0  0  0
  5 18  1  0  0  0  0
  6 21  1  0  0  0  0
  6  9  2  0  0  0  0
  7 10  1  0  0  0  0
  7 20  1  1  0  0  0
  8 25  1  1  0  0  0
  9 12  1  0  0  0  0
 10  5  1  1  0  0  0
 11  6  1  0  0  0  0
 12 16  2  0  0  0  0
 12 20  1  0  0  0  0
 14 19  1  0  0  0  0
 14 27  1  0  0  0  0
 15 11  2  0  0  0  0
 17  8  1  0  0  0  0
 18 24  1  0  0  0  0
 18 17  1  1  0  0  0
 19 15  1  6  0  0  0
 19  3  1  0  0  0  0
 20 26  1  0  0  0  0
 21  2  1  0  0  0  0
 22 29  1  1  0  0  0
 22 10  1  0  0  0  0
 23  2  1  0  0  0  0
 26 24  1  0  0  0  0
 26  1  1  1  0  0  0
 27 22  1  0  0  0  0
 28 34  1  0  0  0  0
 29 28  2  0  0  0  0
 30 33  2  0  0  0  0
 30 29  1  0  0  0  0
 31 33  1  0  0  0  0
 32 34  2  0  0  0  0
 33 32  1  0  0  0  0
 37 36  1  0  0  0  0
 37 35  1  0  0  0  0
M  END
>  <MODEL>
3

>  <REMARK>
 VINA RESULT:      -7.8      1.822      8.205
  Name = 
  3 active torsions:
  status: ('A' for Active; 'I' for Inactive)
    1  A    between atoms: C_5  and  C_17
    2  A    between atoms: C_6  and  C_31
    3  A    between atoms: C_17  and  C_23
                            x       y       z     vdW  Elec       q    Type
                         _______ _______ _______ _____ _____    ______ ____

>  <TORSDO>
F 3

$$$$
=
 OpenBabel10272414473D

 37 43  0  0  1  0  0  0  0  0999 V2000
  188.9660  176.6750  141.2800 C   0  0  0  0  0  2  0  0  0  0  0  0
  184.8870  178.2860  141.9810 C   0  0  0  0  0  0  0  0  0  0  0  0
  187.5140  178.3660  145.3660 C   0  0  1  0  0  3  0  0  0  0  0  0
  190.3600  176.6420  140.6170 C   0  0  2  0  0  3  0  0  0  0  0  0
  190.7030  177.6140  144.8200 O   0  0  0  0  0  0  0  0  0  0  0  0
  185.3400  178.9980  144.3300 C   0  0  0  0  0  0  0  0  0  0  0  0
  188.2360  177.0520  145.0370 C   0  0  2  0  0  3  0  0  0  0  0  0
  191.3000  177.7750  141.1340 C   0  0  1  0  0  3  0  0  0  0  0  0
  186.5570  178.4740  144.2370 C   0  0  0  0  0  0  0  0  0  0  0  0
  189.7000  176.9550  145.5820 C   0  0  2  0  0  3  0  0  0  0  0  0
  184.9220  179.5790  145.6240 C   0  0  0  0  0  3  0  0  0  0  0  0
  186.8900  177.5530  143.2000 C   0  0  0  0  0  0  0  0  0  0  0  0
  185.2660  179.4010  141.0260 C   0  0  0  0  0  1  0  0  0  0  0  0
  187.6480  178.3280  147.8890 C   0  0  0  0  0  2  0  0  0  0  0  0
  185.6100  179.2630  146.7380 C   0  0  0  0  0  3  0  0  0  0  0  0
  186.0810  177.3610  142.1540 C   0  0  0  0  0  3  0  0  0  0  0  0
  191.7590  177.6120  142.5920 C   0  0  0  0  0  2  0  0  0  0  0  0
  190.5760  177.2750  143.4630 C   0  0  1  0  0  3  0  0  0  0  0  0
  186.7280  178.2410  146.6780 C   0  0  1  0  0  3  0  0  0  0  0  0
  187.9840  176.7360  143.6050 N   0  0  0  0  0  0  0  0  0  0  0  0
  184.4650  178.8650  143.2380 O   0  0  0  0  0  0  0  0  0  0  0  0
  189.8360  177.3920  147.0560 C   0  0  1  0  0  3  0  0  0  0  0  0
  183.7380  177.5040  141.3820 C   0  0  0  0  0  1  0  0  0  0  0  0
  190.1910  175.9390  143.2600 O   0  0  0  0  0  0  0  0  0  0  0  0
  192.5500  177.9040  140.2770 C   0  0  0  0  0  1  0  0  0  0  0  0
  188.9110  176.0300  142.6900 C   0  0  2  0  0  3  0  0  0  0  0  0
  188.6070  177.1390  147.9360 C   0  0  0  0  0  2  0  0  0  0  0  0
  191.5590  175.5560  147.2440 C   0  0  0  0  0  3  0  0  0  0  0  0
  191.0580  176.7940  147.6770 C   0  0  0  0  0  0  0  0  0  0  0  0
  191.7150  177.4860  148.7000 C   0  0  0  0  0  3  0  0  0  0  0  0
  193.5570  177.6880  150.3750 C   0  0  0  0  0  1  0  0  0  0  0  0
  193.3590  175.7150  148.8560 C   0  0  0  0  0  3  0  0  0  0  0  0
  192.8620  176.9480  149.2890 C   0  0  0  0  0  0  0  0  0  0  0  0
  192.7070  175.0190  147.8340 C   0  0  0  0  0  3  0  0  0  0  0  0
  190.1970  176.6470  139.0900 C   0  0  0  0  0  2  0  0  0  0  0  0
  189.0740  178.7540  138.3410 C   0  0  0  0  0  1  0  0  0  0  0  0
  188.8870  177.2760  138.6220 C   0  0  0  0  0  2  0  0  0  0  0  0
  2 16  1  0  0  0  0
  2 21  1  0  0  0  0
  3  9  1  6  0  0  0
  3 19  1  0  0  0  0
  4 35  1  6  0  0  0
  4  8  1  0  0  0  0
  4  1  1  0  0  0  0
  6 11  1  0  0  0  0
  7 20  1  6  0  0  0
  7  3  1  0  0  0  0
  7 10  1  0  0  0  0
  8 25  1  6  0  0  0
  8 17  1  0  0  0  0
  9  6  2  0  0  0  0
 10  5  1  6  0  0  0
 10 22  1  0  0  0  0
 11 15  2  0  0  0  0
 12 20  1  0  0  0  0
 12  9  1  0  0  0  0
 13  2  1  0  0  0  0
 14 27  1  0  0  0  0
 16 12  2  0  0  0  0
 18 17  1  6  0  0  0
 18  5  1  0  0  0  0
 19 15  1  1  0  0  0
 19 14  1  0  0  0  0
 21  6  1  0  0  0  0
 22 29  1  1  0  0  0
 22 27  1  0  0  0  0
 23  2  1  0  0  0  0
 24 18  1  0  0  0  0
 26  1  1  6  0  0  0
 26 24  1  0  0  0  0
 26 20  1  0  0  0  0
 28 29  2  0  0  0  0
 28 34  1  0  0  0  0
 29 30  1  0  0  0  0
 30 33  2  0  0  0  0
 32 33  1  0  0  0  0
 33 31  1  0  0  0  0
 34 32  2  0  0  0  0
 36 37  1  0  0  0  0
 37 35  1  0  0  0  0
M  END
>  <MODEL>
4

>  <REMARK>
 VINA RESULT:      -7.8      2.992      8.138
  Name = 
  3 active torsions:
  status: ('A' for Active; 'I' for Inactive)
    1  A    between atoms: C_5  and  C_17
    2  A    between atoms: C_6  and  C_31
    3  A    between atoms: C_17  and  C_23
                            x       y       z     vdW  Elec       q    Type
                         _______ _______ _______ _____ _____    ______ ____

>  <TORSDO>
F 3

$$$$
=
 OpenBabel10272414473D

 37 43  0  0  1  0  0  0  0  0999 V2000
  187.5930  178.0290  139.3440 C   0  0  0  0  0  2  0  0  0  0  0  0
  184.3330  176.2360  136.9190 C   0  0  0  0  0  0  0  0  0  0  0  0
  188.2120  174.4990  136.3740 C   0  0  1  0  0  3  0  0  0  0  0  0
  188.3110  178.4070  140.6570 C   0  0  2  0  0  3  0  0  0  0  0  0
  190.6040  175.4600  138.4680 O   0  0  0  0  0  0  0  0  0  0  0  0
  185.7630  174.4460  135.9280 C   0  0  0  0  0  0  0  0  0  0  0  0
  188.9960  175.8090  136.5350 C   0  0  2  0  0  3  0  0  0  0  0  0
  188.9700  177.1790  141.3580 C   0  0  1  0  0  3  0  0  0  0  0  0
  186.8140  174.9610  136.5570 C   0  0  0  0  0  0  0  0  0  0  0  0
  190.4580  175.6360  137.0660 C   0  0  2  0  0  3  0  0  0  0  0  0
  185.9780  173.2900  135.0330 C   0  0  0  0  0  3  0  0  0  0  0  0
  186.7820  176.2820  137.0950 C   0  0  0  0  0  0  0  0  0  0  0  0
  183.7480  175.7560  138.2330 C   0  0  0  0  0  1  0  0  0  0  0  0
  189.7270  173.2670  134.7700 C   0  0  0  0  0  2  0  0  0  0  0  0
  187.2250  173.0120  134.6060 C   0  0  0  0  0  3  0  0  0  0  0  0
  185.6380  176.9630  137.2000 C   0  0  0  0  0  3  0  0  0  0  0  0
  190.1840  176.5930  140.6180 C   0  0  0  0  0  2  0  0  0  0  0  0
  189.8590  176.4340  139.1550 C   0  0  1  0  0  3  0  0  0  0  0  0
  188.3730  173.9390  134.9550 C   0  0  1  0  0  3  0  0  0  0  0  0
  188.1060  176.7980  137.2000 N   0  0  0  0  0  0  0  0  0  0  0  0
  184.5240  175.1000  136.0450 O   0  0  0  0  0  0  0  0  0  0  0  0
  191.2440  174.5200  136.3460 C   0  0  1  0  0  3  0  0  0  0  0  0
  183.3570  177.2000  136.2780 C   0  0  0  0  0  1  0  0  0  0  0  0
  189.8650  177.6860  138.5190 O   0  0  0  0  0  0  0  0  0  0  0  0
  189.4190  177.5120  142.7720 C   0  0  0  0  0  1  0  0  0  0  0  0
  188.5330  177.8790  138.1190 C   0  0  2  0  0  3  0  0  0  0  0  0
  190.8640  174.2830  134.8810 C   0  0  0  0  0  2  0  0  0  0  0  0
  193.3890  175.6610  135.6550 C   0  0  0  0  0  3  0  0  0  0  0  0
  192.7180  174.7400  136.4760 C   0  0  0  0  0  0  0  0  0  0  0  0
  193.4360  174.0190  137.4370 C   0  0  0  0  0  3  0  0  0  0  0  0
  195.5700  173.4470  138.6010 C   0  0  0  0  0  1  0  0  0  0  0  0
  195.4770  175.1320  136.7600 C   0  0  0  0  0  3  0  0  0  0  0  0
  194.8120  174.2140  137.5790 C   0  0  0  0  0  0  0  0  0  0  0  0
  194.7660  175.8550  135.7980 C   0  0  0  0  0  3  0  0  0  0  0  0
  187.3370  179.1670  141.5690 C   0  0  0  0  0  2  0  0  0  0  0  0
  185.2180  178.2310  142.5150 C   0  0  0  0  0  1  0  0  0  0  0  0
  185.8700  178.8440  141.2920 C   0  0  0  0  0  2  0  0  0  0  0  0
  1  4  1  0  0  0  0
  2 16  1  0  0  0  0
  2 13  1  0  0  0  0
  3  7  1  0  0  0  0
  3  9  1  6  0  0  0
  4  8  1  0  0  0  0
  4 35  1  1  0  0  0
  5 18  1  0  0  0  0
  6 21  1  0  0  0  0
  6  9  2  0  0  0  0
  7 10  1  0  0  0  0
  7 20  1  1  0  0  0
  8 25  1  1  0  0  0
  9 12  1  0  0  0  0
 10  5  1  1  0  0  0
 11  6  1  0  0  0  0
 12 20  1  0  0  0  0
 12 16  2  0  0  0  0
 14 27  1  0  0  0  0
 14 19  1  0  0  0  0
 15 11  2  0  0  0  0
 17  8  1  0  0  0  0
 18 17  1  1  0  0  0
 19 15  1  1  0  0  0
 19  3  1  0  0  0  0
 20 26  1  0  0  0  0
 21  2  1  0  0  0  0
 22 29  1  6  0  0  0
 22 10  1  0  0  0  0
 23  2  1  0  0  0  0
 24 18  1  0  0  0  0
 26 24  1  0  0  0  0
 26  1  1  1  0  0  0
 27 22  1  0  0  0  0
 28 34  2  0  0  0  0
 28 29  1  0  0  0  0
 29 30  2  0  0  0  0
 30 33  1  0  0  0  0
 32 33  2  0  0  0  0
 33 31  1  0  0  0  0
 34 32  1  0  0  0  0
 37 35  1  0  0  0  0
 37 36  1  0  0  0  0
M  END
>  <MODEL>
5

>  <REMARK>
 VINA RESULT:      -7.2      2.526      9.025
  Name = 
  3 active torsions:
  status: ('A' for Active; 'I' for Inactive)
    1  A    between atoms: C_5  and  C_17
    2  A    between atoms: C_6  and  C_31
    3  A    between atoms: C_17  and  C_23
                            x       y       z     vdW  Elec       q    Type
                         _______ _______ _______ _____ _____    ______ ____

>  <TORSDO>
F 3

$$$$
=
 OpenBabel10272414473D

 37 43  0  0  1  0  0  0  0  0999 V2000
  188.7490  177.3320  138.7960 C   0  0  0  0  0  2  0  0  0  0  0  0
  189.4370  177.6330  143.1730 C   0  0  0  0  0  0  0  0  0  0  0  0
  185.3560  177.9850  141.9150 C   0  0  1  0  0  3  0  0  0  0  0  0
  188.7640  176.6220  137.4250 C   0  0  2  0  0  3  0  0  0  0  0  0
  184.6960  177.3170  138.7290 O   0  0  0  0  0  0  0  0  0  0  0  0
  187.0160  177.7870  143.7600 C   0  0  0  0  0  0  0  0  0  0  0  0
  185.6570  178.7300  140.6070 C   0  0  2  0  0  3  0  0  0  0  0  0
  187.6530  175.5330  137.2980 C   0  0  1  0  0  3  0  0  0  0  0  0
  186.7190  177.7800  142.4650 C   0  0  0  0  0  0  0  0  0  0  0  0
  184.5960  178.5220  139.4760 C   0  0  2  0  0  3  0  0  0  0  0  0
  185.9140  177.9400  144.7330 C   0  0  0  0  0  3  0  0  0  0  0  0
  187.7110  178.0470  141.4760 C   0  0  0  0  0  0  0  0  0  0  0  0
  189.8580  176.1770  143.1110 C   0  0  0  0  0  1  0  0  0  0  0  0
  183.0910  178.9570  142.4690 C   0  0  0  0  0  2  0  0  0  0  0  0
  184.7240  178.4100  144.3090 C   0  0  0  0  0  3  0  0  0  0  0  0
  189.0100  178.0790  141.7840 C   0  0  0  0  0  3  0  0  0  0  0  0
  186.2190  176.0840  137.2320 C   0  0  0  0  0  2  0  0  0  0  0  0
  186.0220  177.1200  138.3100 C   0  0  1  0  0  3  0  0  0  0  0  0
  184.5560  178.8740  142.8760 C   0  0  1  0  0  3  0  0  0  0  0  0
  187.0960  178.5260  140.2840 N   0  0  0  0  0  0  0  0  0  0  0  0
  188.3700  177.7750  144.1390 O   0  0  0  0  0  0  0  0  0  0  0  0
  183.1400  178.6780  139.9650 C   0  0  1  0  0  3  0  0  0  0  0  0
  190.6240  178.4620  143.6170 C   0  0  0  0  0  1  0  0  0  0  0  0
  186.6750  178.3130  137.9600 O   0  0  0  0  0  0  0  0  0  0  0  0
  187.8600  174.6590  136.0720 C   0  0  0  0  0  1  0  0  0  0  0  0
  187.6840  178.4530  138.9260 C   0  0  2  0  0  3  0  0  0  0  0  0
  182.9330  179.6610  141.1220 C   0  0  0  0  0  2  0  0  0  0  0  0
  182.0310  180.3410  138.4220 C   0  0  0  0  0  3  0  0  0  0  0  0
  182.2300  179.0110  138.8250 C   0  0  0  0  0  0  0  0  0  0  0  0
  181.5750  177.9770  138.1480 C   0  0  0  0  0  3  0  0  0  0  0  0
  180.0320  177.1650  136.3590 C   0  0  0  0  0  1  0  0  0  0  0  0
  180.5280  179.5920  136.6770 C   0  0  0  0  0  3  0  0  0  0  0  0
  180.7250  178.2660  137.0760 C   0  0  0  0  0  0  0  0  0  0  0  0
  181.1810  180.6290  137.3500 C   0  0  0  0  0  3  0  0  0  0  0  0
  190.1730  176.0770  137.1500 C   0  0  0  0  0  2  0  0  0  0  0  0
  189.8050  177.4940  135.1220 C   0  0  0  0  0  1  0  0  0  0  0  0
  190.7370  176.5080  135.7990 C   0  0  0  0  0  2  0  0  0  0  0  0
  2 23  1  0  0  0  0
  2 21  1  0  0  0  0
  3  9  1  1  0  0  0
  3 19  1  0  0  0  0
  4 35  1  1  0  0  0
  4  1  1  0  0  0  0
  6 21  1  0  0  0  0
  6 11  1  0  0  0  0
  7 20  1  6  0  0  0
  7  3  1  0  0  0  0
  8 25  1  6  0  0  0
  8  4  1  0  0  0  0
  9  6  2  0  0  0  0
 10  5  1  1  0  0  0
 10 22  1  0  0  0  0
 10  7  1  0  0  0  0
 12 16  2  0  0  0  0
 12  9  1  0  0  0  0
 13  2  1  0  0  0  0
 15 11  2  0  0  0  0
 16  2  1  0  0  0  0
 17  8  1  0  0  0  0
 18 17  1  6  0  0  0
 18  5  1  0  0  0  0
 19 14  1  6  0  0  0
 19 15  1  0  0  0  0
 20 12  1  0  0  0  0
 22 29  1  6  0  0  0
 22 27  1  0  0  0  0
 24 18  1  0  0  0  0
 24 26  1  0  0  0  0
 26  1  1  1  0  0  0
 26 20  1  0  0  0  0
 27 14  1  0  0  0  0
 28 29  1  0  0  0  0
 30 29  2  0  0  0  0
 31 33  1  0  0  0  0
 32 33  2  0  0  0  0
 32 34  1  0  0  0  0
 33 30  1  0  0  0  0
 34 28  2  0  0  0  0
 36 37  1  0  0  0  0
 37 35  1  0  0  0  0
M  END
>  <MODEL>
6

>  <REMARK>
 VINA RESULT:      -7.1      1.116      1.801
  Name = 
  3 active torsions:
  status: ('A' for Active; 'I' for Inactive)
    1  A    between atoms: C_5  and  C_17
    2  A    between atoms: C_6  and  C_31
    3  A    between atoms: C_17  and  C_23
                            x       y       z     vdW  Elec       q    Type
                         _______ _______ _______ _____ _____    ______ ____

>  <TORSDO>
F 3

$$$$
=
 OpenBabel10272414473D

 37 43  0  0  1  0  0  0  0  0999 V2000
  188.0320  178.4080  140.9690 C   0  0  0  0  0  2  0  0  0  0  0  0
  184.1410  178.4250  138.8280 C   0  0  0  0  0  0  0  0  0  0  0  0
  187.3590  176.4490  136.8010 C   0  0  1  0  0  3  0  0  0  0  0  0
  188.9860  178.0550  142.1300 C   0  0  2  0  0  3  0  0  0  0  0  0
  190.1660  175.9890  138.5150 O   0  0  0  0  0  0  0  0  0  0  0  0
  184.9380  177.0170  136.9270 C   0  0  0  0  0  0  0  0  0  0  0  0
  188.4600  177.4060  137.2810 C   0  0  2  0  0  3  0  0  0  0  0  0
  189.4030  176.5510  142.1310 C   0  0  1  0  0  3  0  0  0  0  0  0
  186.1570  177.0210  137.4560 C   0  0  0  0  0  0  0  0  0  0  0  0
  189.8880  176.7730  137.3630 C   0  0  2  0  0  3  0  0  0  0  0  0
  184.7390  176.3400  135.6280 C   0  0  0  0  0  3  0  0  0  0  0  0
  186.5260  177.9670  138.4580 C   0  0  0  0  0  0  0  0  0  0  0  0
  183.6310  177.5350  139.9450 C   0  0  0  0  0  1  0  0  0  0  0  0
  188.2960  175.7860  134.5500 C   0  0  0  0  0  2  0  0  0  0  0  0
  185.8100  176.0620  134.8610 C   0  0  0  0  0  3  0  0  0  0  0  0
  185.6120  178.7230  139.0720 C   0  0  0  0  0  3  0  0  0  0  0  0
  190.3250  176.1410  140.9710 C   0  0  0  0  0  2  0  0  0  0  0  0
  189.7840  176.6850  139.6740 C   0  0  1  0  0  3  0  0  0  0  0  0
  187.1890  176.5360  135.2780 C   0  0  1  0  0  3  0  0  0  0  0  0
  187.9380  178.1500  138.4590 N   0  0  0  0  0  0  0  0  0  0  0  0
  183.9270  177.7600  137.5610 O   0  0  0  0  0  0  0  0  0  0  0  0
  190.2700  175.9570  136.1090 C   0  0  1  0  0  3  0  0  0  0  0  0
  183.3630  179.7230  138.8480 C   0  0  0  0  0  1  0  0  0  0  0  0
  190.0200  178.0670  139.5920 O   0  0  0  0  0  0  0  0  0  0  0  0
  190.1010  176.1610  143.4240 C   0  0  0  0  0  1  0  0  0  0  0  0
  188.7380  178.6390  139.6070 C   0  0  2  0  0  3  0  0  0  0  0  0
  189.6550  176.4420  134.7920 C   0  0  0  0  0  2  0  0  0  0  0  0
  192.4180  176.2500  134.8140 C   0  0  0  0  0  3  0  0  0  0  0  0
  191.7560  175.8410  135.9830 C   0  0  0  0  0  0  0  0  0  0  0  0
  192.4950  175.3250  137.0520 C   0  0  0  0  0  3  0  0  0  0  0  0
  194.6670  174.6650  138.0960 C   0  0  0  0  0  1  0  0  0  0  0  0
  194.5420  175.6210  135.7920 C   0  0  0  0  0  3  0  0  0  0  0  0
  193.8860  175.2140  136.9570 C   0  0  0  0  0  0  0  0  0  0  0  0
  193.8080  176.1390  134.7200 C   0  0  0  0  0  3  0  0  0  0  0  0
  188.3600  178.5050  143.4580 C   0  0  0  0  0  2  0  0  0  0  0  0
  186.7540  177.3930  145.0220 C   0  0  0  0  0  1  0  0  0  0  0  0
  186.9270  178.0120  143.6490 C   0  0  0  0  0  2  0  0  0  0  0  0
  1  4  1  0  0  0  0
  2 23  1  0  0  0  0
  2 16  1  0  0  0  0
  2 13  1  0  0  0  0
  3  7  1  0  0  0  0
  3  9  1  1  0  0  0
  4  8  1  0  0  0  0
  4 35  1  1  0  0  0
  5 18  1  0  0  0  0
  6  9  2  0  0  0  0
  6 21  1  0  0  0  0
  7 10  1  0  0  0  0
  7 20  1  1  0  0  0
  8 25  1  1  0  0  0
  9 12  1  0  0  0  0
 10  5  1  1  0  0  0
 11  6  1  0  0  0  0
 12 20  1  0  0  0  0
 12 16  2  0  0  0  0
 14 27  1  0  0  0  0
 15 19  1  0  0  0  0
 15 11  2  0  0  0  0
 17  8  1  0  0  0  0
 18 17  1  1  0  0  0
 19 14  1  6  0  0  0
 19  3  1  0  0  0  0
 20 26  1  0  0  0  0
 21  2  1  0  0  0  0
 22 29  1  6  0  0  0
 22 10  1  0  0  0  0
 24 26  1  0  0  0  0
 24 18  1  0  0  0  0
 26  1  1  1  0  0  0
 27 22  1  0  0  0  0
 28 29  1  0  0  0  0
 29 30  2  0  0  0  0
 32 33  2  0  0  0  0
 33 30  1  0  0  0  0
 33 31  1  0  0  0  0
 34 28  2  0  0  0  0
 34 32  1  0  0  0  0
 35 37  1  0  0  0  0
 37 36  1  0  0  0  0
M  END
>  <MODEL>
7

>  <REMARK>
 VINA RESULT:      -6.9      1.908      8.206
  Name = 
  3 active torsions:
  status: ('A' for Active; 'I' for Inactive)
    1  A    between atoms: C_5  and  C_17
    2  A    between atoms: C_6  and  C_31
    3  A    between atoms: C_17  and  C_23
                            x       y       z     vdW  Elec       q    Type
                         _______ _______ _______ _____ _____    ______ ____

>  <TORSDO>
F 3

$$$$
=
 OpenBabel10272414473D

 37 43  0  0  1  0  0  0  0  0999 V2000
  190.5900  176.5340  138.9870 C   0  0  0  0  0  2  0  0  0  0  0  0
  186.7930  177.7520  137.0320 C   0  0  0  0  0  0  0  0  0  0  0  0
  187.0180  178.4800  141.2490 C   0  0  1  0  0  3  0  0  0  0  0  0
  192.1130  176.5840  139.2330 C   0  0  2  0  0  3  0  0  0  0  0  0
  189.9700  178.0300  142.7030 O   0  0  0  0  0  0  0  0  0  0  0  0
  185.8050  178.7560  139.0920 C   0  0  0  0  0  0  0  0  0  0  0  0
  187.8380  177.2260  141.5830 C   0  0  2  0  0  3  0  0  0  0  0  0
  192.5570  177.8620  140.0110 C   0  0  1  0  0  3  0  0  0  0  0  0
  186.8720  178.3620  139.7770 C   0  0  0  0  0  0  0  0  0  0  0  0
  188.7320  177.3500  142.8610 C   0  0  2  0  0  3  0  0  0  0  0  0
  184.7070  179.4220  139.8250 C   0  0  0  0  0  3  0  0  0  0  0  0
  187.7650  177.3780  139.2560 C   0  0  0  0  0  0  0  0  0  0  0  0
  187.6160  178.7940  136.2980 C   0  0  0  0  0  1  0  0  0  0  0  0
  185.6910  178.7260  143.3850 C   0  0  0  0  0  2  0  0  0  0  0  0
  184.6460  179.3030  141.1660 C   0  0  0  0  0  3  0  0  0  0  0  0
  187.7030  176.9880  137.9800 C   0  0  0  0  0  3  0  0  0  0  0  0
  192.1070  177.9070  141.4800 C   0  0  0  0  0  2  0  0  0  0  0  0
  190.6490  177.5360  141.5770 C   0  0  1  0  0  3  0  0  0  0  0  0
  185.6290  178.4100  141.8970 C   0  0  1  0  0  3  0  0  0  0  0  0
  188.4570  176.7340  140.3220 N   0  0  0  0  0  0  0  0  0  0  0  0
  185.7130  178.4120  137.7330 O   0  0  0  0  0  0  0  0  0  0  0  0
  187.9900  177.9540  144.0730 C   0  0  1  0  0  3  0  0  0  0  0  0
  186.2150  176.7890  136.0170 C   0  0  0  0  0  1  0  0  0  0  0  0
  190.4890  176.1520  141.3970 O   0  0  0  0  0  0  0  0  0  0  0  0
  194.0680  178.0360  139.9930 C   0  0  0  0  0  1  0  0  0  0  0  0
  189.7610  176.0410  140.2020 C   0  0  2  0  0  3  0  0  0  0  0  0
  186.4870  177.6620  144.1400 C   0  0  0  0  0  2  0  0  0  0  0  0
  187.9900  177.6780  146.5830 C   0  0  0  0  0  3  0  0  0  0  0  0
  188.6580  177.5630  145.3530 C   0  0  0  0  0  0  0  0  0  0  0  0
  189.9660  177.0690  145.3200 C   0  0  0  0  0  3  0  0  0  0  0  0
  191.9960  176.1680  146.4640 C   0  0  0  0  0  1  0  0  0  0  0  0
  189.9390  176.8090  147.7270 C   0  0  0  0  0  3  0  0  0  0  0  0
  190.6060  176.6930  146.5040 C   0  0  0  0  0  0  0  0  0  0  0  0
  188.6310  177.3010  147.7670 C   0  0  0  0  0  3  0  0  0  0  0  0
  192.8500  176.4090  137.8970 C   0  0  0  0  0  2  0  0  0  0  0  0
  194.6300  174.6610  138.0870 C   0  0  0  0  0  1  0  0  0  0  0  0
  193.2270  174.9600  137.5980 C   0  0  0  0  0  2  0  0  0  0  0  0
  1  4  1  0  0  0  0
  2 21  1  0  0  0  0
  2 16  1  0  0  0  0
  3  9  1  6  0  0  0
  3  7  1  0  0  0  0
  3 19  1  0  0  0  0
  4 35  1  6  0  0  0
  4  8  1  0  0  0  0
  6  9  2  0  0  0  0
  6 11  1  0  0  0  0
  7 20  1  6  0  0  0
  7 10  1  0  0  0  0
  8 25  1  1  0  0  0
  8 17  1  0  0  0  0
 10  5  1  6  0  0  0
 10 22  1  0  0  0  0
 11 15  2  0  0  0  0
 12  9  1  0  0  0  0
 12 20  1  0  0  0  0
 13  2  1  0  0  0  0
 14 27  1  0  0  0  0
 16 12  2  0  0  0  0
 18 17  1  1  0  0  0
 18  5  1  0  0  0  0
 19 15  1  6  0  0  0
 19 14  1  0  0  0  0
 21  6  1  0  0  0  0
 22 27  1  0  0  0  0
 22 29  1  1  0  0  0
 23  2  1  0  0  0  0
 24 18  1  0  0  0  0
 26  1  1  6  0  0  0
 26 20  1  0  0  0  0
 26 24  1  0  0  0  0
 28 34  1  0  0  0  0
 29 28  2  0  0  0  0
 30 29  1  0  0  0  0
 30 33  2  0  0  0  0
 31 33  1  0  0  0  0
 32 34  2  0  0  0  0
 33 32  1  0  0  0  0
 37 35  1  0  0  0  0
 37 36  1  0  0  0  0
M  END
>  <MODEL>
8

>  <REMARK>
 VINA RESULT:      -6.6      2.024      6.780
  Name = 
  3 active torsions:
  status: ('A' for Active; 'I' for Inactive)
    1  A    between atoms: C_5  and  C_17
    2  A    between atoms: C_6  and  C_31
    3  A    between atoms: C_17  and  C_23
                            x       y       z     vdW  Elec       q    Type
                         _______ _______ _______ _____ _____    ______ ____

>  <TORSDO>
F 3

$$$$
=
 OpenBabel10272414473D

 37 43  0  0  1  0  0  0  0  0999 V2000
  190.3220  175.3440  136.6020 C   0  0  0  0  0  2  0  0  0  0  0  0
  186.2270  176.6170  135.4460 C   0  0  0  0  0  0  0  0  0  0  0  0
  187.5940  178.0220  139.2570 C   0  0  1  0  0  3  0  0  0  0  0  0
  191.8560  175.2690  136.4510 C   0  0  2  0  0  3  0  0  0  0  0  0
  190.7900  177.5070  139.9980 O   0  0  0  0  0  0  0  0  0  0  0  0
  185.8770  178.0580  137.4540 C   0  0  0  0  0  0  0  0  0  0  0  0
  188.3940  176.7610  139.6130 C   0  0  2  0  0  3  0  0  0  0  0  0
  192.5660  176.6050  136.8350 C   0  0  1  0  0  3  0  0  0  0  0  0
  187.0610  177.6720  137.9170 C   0  0  0  0  0  0  0  0  0  0  0  0
  189.5980  177.0020  140.5830 C   0  0  2  0  0  3  0  0  0  0  0  0
  185.0530  178.9530  138.2930 C   0  0  0  0  0  3  0  0  0  0  0  0
  187.7230  176.5220  137.3920 C   0  0  0  0  0  0  0  0  0  0  0  0
  186.8910  177.4240  134.3460 C   0  0  0  0  0  1  0  0  0  0  0  0
  186.8910  178.7690  141.5660 C   0  0  0  0  0  2  0  0  0  0  0  0
  185.3380  179.0720  139.6040 C   0  0  0  0  0  3  0  0  0  0  0  0
  187.3060  175.9310  136.2690 C   0  0  0  0  0  3  0  0  0  0  0  0
  192.5210  176.9470  138.3330 C   0  0  0  0  0  2  0  0  0  0  0  0
  191.1190  176.7580  138.8560 C   0  0  1  0  0  3  0  0  0  0  0  0
  186.4210  178.2140  140.2280 C   0  0  1  0  0  3  0  0  0  0  0  0
  188.6290  175.9980  138.3570 N   0  0  0  0  0  0  0  0  0  0  0  0
  185.4120  177.5000  136.2510 O   0  0  0  0  0  0  0  0  0  0  0  0
  189.2380  177.8800  141.8010 C   0  0  1  0  0  3  0  0  0  0  0  0
  185.3460  175.5650  134.8090 C   0  0  0  0  0  1  0  0  0  0  0  0
  190.8330  175.3900  138.9890 O   0  0  0  0  0  0  0  0  0  0  0  0
  194.0270  176.6080  136.4130 C   0  0  0  0  0  1  0  0  0  0  0  0
  189.8120  175.1570  138.0550 C   0  0  2  0  0  3  0  0  0  0  0  0
  187.7900  177.7680  142.2910 C   0  0  0  0  0  2  0  0  0  0  0  0
  190.6290  178.6990  143.7420 C   0  0  0  0  0  3  0  0  0  0  0  0
  190.1920  177.6420  142.9280 C   0  0  0  0  0  0  0  0  0  0  0  0
  190.6490  176.3440  143.1760 C   0  0  0  0  0  3  0  0  0  0  0  0
  192.0190  174.7180  144.4870 C   0  0  0  0  0  1  0  0  0  0  0  0
  191.9700  177.1540  145.0370 C   0  0  0  0  0  3  0  0  0  0  0  0
  191.5370  176.0990  144.2270 C   0  0  0  0  0  0  0  0  0  0  0  0
  191.5170  178.4530  144.7940 C   0  0  0  0  0  3  0  0  0  0  0  0
  192.2050  174.7910  135.0330 C   0  0  0  0  0  2  0  0  0  0  0  0
  193.2680  172.9370  136.3350 C   0  0  0  0  0  1  0  0  0  0  0  0
  193.2450  173.6730  135.0100 C   0  0  0  0  0  2  0  0  0  0  0  0
  2 21  1  0  0  0  0
  2 16  1  0  0  0  0
  3  9  1  6  0  0  0
  3  7  1  0  0  0  0
  3 19  1  0  0  0  0
  4 35  1  6  0  0  0
  4  1  1  0  0  0  0
  4  8  1  0  0  0  0
  6  9  2  0  0  0  0
  6 11  1  0  0  0  0
  7 20  1  6  0  0  0
  7 10  1  0  0  0  0
  8 25  1  1  0  0  0
  8 17  1  0  0  0  0
 10  5  1  6  0  0  0
 10 22  1  0  0  0  0
 11 15  2  0  0  0  0
 12  9  1  0  0  0  0
 12 20  1  0  0  0  0
 13  2  1  0  0  0  0
 14 27  1  0  0  0  0
 16 12  2  0  0  0  0
 18 17  1  1  0  0  0
 18 24  1  0  0  0  0
 18  5  1  0  0  0  0
 19 15  1  6  0  0  0
 19 14  1  0  0  0  0
 21  6  1  0  0  0  0
 22 27  1  0  0  0  0
 22 29  1  1  0  0  0
 23  2  1  0  0  0  0
 26  1  1  6  0  0  0
 26 20  1  0  0  0  0
 26 24  1  0  0  0  0
 28 34  1  0  0  0  0
 29 30  1  0  0  0  0
 29 28  2  0  0  0  0
 30 33  2  0  0  0  0
 33 31  1  0  0  0  0
 33 32  1  0  0  0  0
 34 32  2  0  0  0  0
 37 35  1  0  0  0  0
 37 36  1  0  0  0  0
M  END
>  <MODEL>
9

>  <REMARK>
 VINA RESULT:      -6.4      2.337      7.119
  Name = 
  3 active torsions:
  status: ('A' for Active; 'I' for Inactive)
    1  A    between atoms: C_5  and  C_17
    2  A    between atoms: C_6  and  C_31
    3  A    between atoms: C_17  and  C_23
                            x       y       z     vdW  Elec       q    Type
                         _______ _______ _______ _____ _____    ______ ____

>  <TORSDO>
F 3

$$$$
