=
 OpenBabel10272413573D

 30 35  0  0  1  0  0  0  0  0999 V2000
  188.2260  178.1790  139.7030 C   0  0  1  0  0  3  0  0  0  0  0  0
  188.5360  177.8230  137.1690 C   0  0  0  0  0  0  0  0  0  0  0  0
  184.3530  178.5370  137.9300 C   0  0  0  0  0  3  0  0  0  0  0  0
  187.1340  178.4440  140.7600 C   0  0  1  0  0  3  0  0  0  0  0  0
  189.0820  177.0780  140.1420 N   0  0  0  0  0  2  0  0  0  0  0  0
  189.8100  177.9820  144.0440 S   0  0  0  0  0  0  0  0  0  0  0  0
  186.0790  178.8650  144.1410 C   0  0  0  0  0  2  0  0  0  0  0  0
  189.1700  178.2800  142.3550 C   0  0  1  0  0  3  0  0  0  0  0  0
  190.3640  176.2350  142.0120 C   0  0  0  0  0  3  0  0  0  0  0  0
  184.3140  179.4030  141.5400 O   0  0  0  0  0  0  0  0  0  0  0  0
  184.2880  179.3770  139.1390 C   0  0  0  0  0  0  0  0  0  0  0  0
  189.5690  177.1420  141.4810 C   0  0  0  0  0  0  0  0  0  0  0  0
  187.6590  178.5950  142.2040 C   0  0  2  0  0  3  0  0  0  0  0  0
  187.9480  177.4950  135.8740 C   0  0  0  0  0  3  0  0  0  0  0  0
  183.8420  178.2110  142.0970 C   0  0  0  0  0  2  0  0  0  0  0  0
  184.6390  178.5730  144.4710 C   0  0  0  0  0  3  0  0  0  0  0  0
  191.6600  175.9700  144.0470 C   0  0  0  0  0  2  0  0  0  0  0  0
  189.7510  178.1410  137.2620 O   0  0  0  0  0  0  0  0  0  0  0  0
  185.2690  177.5850  137.7880 C   0  0  0  0  0  0  0  0  0  0  0  0
  186.7460  176.9150  135.8150 C   0  0  0  0  0  3  0  0  0  0  0  0
  190.6490  176.5350  143.4040 C   0  0  0  0  0  0  0  0  0  0  0  0
  187.6060  177.9060  138.3340 C   0  0  1  0  0  3  0  0  0  0  0  0
  186.3140  179.5250  140.4100 O   0  0  0  0  0  0  0  0  0  0  0  0
  183.6040  180.4350  139.1090 O   0  0  0  0  0  0  0  0  0  0  0  0
  185.0180  178.9940  140.3980 C   0  0  1  0  0  3  0  0  0  0  0  0
  183.6600  178.3260  143.5830 C   0  0  0  0  0  3  0  0  0  0  0  0
  187.0620  176.5460  143.7180 C   0  0  0  0  0  1  0  0  0  0  0  0
  185.9660  176.4490  137.0310 C   0  0  1  0  0  3  0  0  0  0  0  0
  186.4990  176.8430  138.3150 C   0  0  2  0  0  3  0  0  0  0  0  0
  186.6620  177.8920  143.1330 C   0  0  1  0  0  3  0  0  0  0  0  0
  1  5  1  1  0  0  0
  1  4  1  0  0  0  0
  2 18  2  0  0  0  0
  2 22  1  0  0  0  0
  3 11  1  0  0  0  0
  4 23  1  6  0  0  0
  4 13  1  0  0  0  0
  5 12  1  0  0  0  0
  7 16  1  0  0  0  0
  8 12  1  6  0  0  0
  8  6  1  0  0  0  0
  9 21  1  0  0  0  0
 10 15  1  0  0  0  0
 11 25  1  0  0  0  0
 12  9  2  0  0  0  0
 13  8  1  0  0  0  0
 13 30  1  0  0  0  0
 14  2  1  0  0  0  0
 15 26  1  0  0  0  0
 19  3  2  0  0  0  0
 19 29  1  0  0  0  0
 20 14  2  0  0  0  0
 20 28  1  0  0  0  0
 21  6  1  0  0  0  0
 21 17  2  0  0  0  0
 22  1  1  0  0  0  0
 24 11  2  0  0  0  0
 25 23  1  0  0  0  0
 25 10  1  0  0  0  0
 26 16  2  0  0  0  0
 28 19  1  0  0  0  0
 28 29  1  0  0  0  0
 29 22  1  0  0  0  0
 30 27  1  0  0  0  0
 30  7  1  0  0  0  0
M  END
>  <MODEL>
1

>  <REMARK>
 VINA RESULT:      -8.4      0.000      0.000
  Name = 
  0 active torsions:
  status: ('A' for Active; 'I' for Inactive)
                            x       y       z     vdW  Elec       q    Type
                         _______ _______ _______ _____ _____    ______ ____

>  <TORSDO>
F 0

$$$$
=
 OpenBabel10272413573D

 30 35  0  0  1  0  0  0  0  0999 V2000
  190.7770  177.4770  140.2000 C   0  0  1  0  0  3  0  0  0  0  0  0
  192.3350  176.5900  138.3460 C   0  0  0  0  0  0  0  0  0  0  0  0
  188.4230  177.2070  136.6430 C   0  0  0  0  0  3  0  0  0  0  0  0
  189.3160  177.9050  140.4470 C   0  0  1  0  0  3  0  0  0  0  0  0
  191.2060  176.5520  141.2490 N   0  0  0  0  0  2  0  0  0  0  0  0
  189.8600  178.3360  144.6510 S   0  0  0  0  0  0  0  0  0  0  0  0
  186.6890  178.9980  142.5960 C   0  0  0  0  0  2  0  0  0  0  0  0
  190.2120  178.2160  142.8580 C   0  0  1  0  0  3  0  0  0  0  0  0
  191.2710  176.2190  143.6430 C   0  0  0  0  0  3  0  0  0  0  0  0
  186.5720  178.8440  139.4130 O   0  0  0  0  0  0  0  0  0  0  0  0
  187.7960  178.2880  137.4230 C   0  0  0  0  0  0  0  0  0  0  0  0
  190.9300  176.9390  142.5930 C   0  0  0  0  0  0  0  0  0  0  0  0
  189.0230  178.4000  141.8790 C   0  0  2  0  0  3  0  0  0  0  0  0
  192.4850  175.9490  137.0430 C   0  0  0  0  0  3  0  0  0  0  0  0
  185.8020  177.7790  139.8870 C   0  0  0  0  0  2  0  0  0  0  0  0
  185.2720  178.7030  142.1830 C   0  0  0  0  0  3  0  0  0  0  0  0
  191.3000  176.4860  146.0550 C   0  0  0  0  0  2  0  0  0  0  0  0
  193.3420  176.9900  138.9870 O   0  0  0  0  0  0  0  0  0  0  0  0
  189.2140  176.3030  137.2100 C   0  0  0  0  0  0  0  0  0  0  0  0
  191.4530  175.3020  136.4960 C   0  0  0  0  0  3  0  0  0  0  0  0
  190.8110  176.8350  144.8760 C   0  0  0  0  0  0  0  0  0  0  0  0
  190.9430  176.8730  138.8070 C   0  0  1  0  0  3  0  0  0  0  0  0
  188.8710  178.8310  139.4940 O   0  0  0  0  0  0  0  0  0  0  0  0
  187.2990  179.2710  136.8120 O   0  0  0  0  0  0  0  0  0  0  0  0
  187.7380  178.2350  138.9260 C   0  0  1  0  0  3  0  0  0  0  0  0
  184.8830  178.2080  140.9950 C   0  0  0  0  0  3  0  0  0  0  0  0
  187.5920  176.7050  143.2650 C   0  0  0  0  0  1  0  0  0  0  0  0
  190.1260  175.0700  137.1960 C   0  0  1  0  0  3  0  0  0  0  0  0
  189.9390  175.7690  138.4470 C   0  0  2  0  0  3  0  0  0  0  0  0
  187.6450  177.8630  142.2800 C   0  0  1  0  0  3  0  0  0  0  0  0
  1  4  1  0  0  0  0
  1  5  1  1  0  0  0
  2 22  1  0  0  0  0
  2 18  2  0  0  0  0
  3 19  2  0  0  0  0
  3 11  1  0  0  0  0
  4 23  1  6  0  0  0
  4 13  1  0  0  0  0
  5 12  1  0  0  0  0
  6 21  1  0  0  0  0
  8 12  1  1  0  0  0
  8  6  1  0  0  0  0
  9 21  1  0  0  0  0
 10 15  1  0  0  0  0
 11 25  1  0  0  0  0
 12  9  2  0  0  0  0
 13 30  1  0  0  0  0
 13  8  1  0  0  0  0
 14  2  1  0  0  0  0
 15 26  1  0  0  0  0
 16  7  1  0  0  0  0
 19 29  1  0  0  0  0
 20 14  2  0  0  0  0
 20 28  1  0  0  0  0
 21 17  2  0  0  0  0
 22  1  1  0  0  0  0
 24 11  2  0  0  0  0
 25 10  1  0  0  0  0
 25 23  1  0  0  0  0
 26 16  2  0  0  0  0
 28 19  1  0  0  0  0
 28 29  1  0  0  0  0
 29 22  1  0  0  0  0
 30  7  1  0  0  0  0
 30 27  1  0  0  0  0
M  END
>  <MODEL>
2

>  <REMARK>
 VINA RESULT:      -8.4      2.198      3.132
  Name = 
  0 active torsions:
  status: ('A' for Active; 'I' for Inactive)
                            x       y       z     vdW  Elec       q    Type
                         _______ _______ _______ _____ _____    ______ ____

>  <TORSDO>
F 0

$$$$
=
 OpenBabel10272413573D

 30 35  0  0  1  0  0  0  0  0999 V2000
  188.0900  177.3360  142.2870 C   0  0  1  0  0  3  0  0  0  0  0  0
  190.4860  177.0210  141.3890 C   0  0  0  0  0  0  0  0  0  0  0  0
  190.6970  177.4640  145.6720 C   0  0  0  0  0  3  0  0  0  0  0  0
  187.3140  177.5730  143.5990 C   0  0  1  0  0  3  0  0  0  0  0  0
  187.6430  178.2860  141.2690 N   0  0  0  0  0  2  0  0  0  0  0  0
  183.5890  178.1600  141.6150 S   0  0  0  0  0  0  0  0  0  0  0  0
  184.2900  178.1890  145.3860 C   0  0  0  0  0  2  0  0  0  0  0  0
  185.3090  177.6350  141.9590 C   0  0  1  0  0  3  0  0  0  0  0  0
  185.6830  179.2230  140.2090 C   0  0  0  0  0  3  0  0  0  0  0  0
  187.1220  177.4810  146.6710 O   0  0  0  0  0  0  0  0  0  0  0  0
  189.4200  176.9600  146.2060 C   0  0  0  0  0  0  0  0  0  0  0  0
  186.2340  178.4220  141.0980 C   0  0  0  0  0  0  0  0  0  0  0  0
  185.7810  177.6440  143.4370 C   0  0  2  0  0  3  0  0  0  0  0  0
  191.9240  177.1680  141.5920 C   0  0  0  0  0  3  0  0  0  0  0  0
  186.9140  178.8440  146.9020 C   0  0  0  0  0  2  0  0  0  0  0  0
  184.3900  178.8650  146.7270 C   0  0  0  0  0  3  0  0  0  0  0  0
  183.4610  179.6490  139.3270 C   0  0  0  0  0  2  0  0  0  0  0  0
  190.0360  176.4680  140.3510 O   0  0  0  0  0  0  0  0  0  0  0  0
  190.7640  178.1250  144.5220 C   0  0  0  0  0  0  0  0  0  0  0  0
  192.3830  177.9740  142.5530 C   0  0  0  0  0  3  0  0  0  0  0  0
  184.2330  179.1940  140.3020 C   0  0  0  0  0  0  0  0  0  0  0  0
  189.5980  177.4200  142.5210 C   0  0  1  0  0  3  0  0  0  0  0  0
  187.6720  176.6550  144.5950 O   0  0  0  0  0  0  0  0  0  0  0  0
  189.4410  176.1060  147.1310 O   0  0  0  0  0  0  0  0  0  0  0  0
  188.1010  177.4470  145.6670 C   0  0  1  0  0  3  0  0  0  0  0  0
  185.5250  179.1170  147.4020 C   0  0  0  0  0  3  0  0  0  0  0  0
  184.8390  180.0650  143.7440 C   0  0  0  0  0  1  0  0  0  0  0  0
  191.5020  178.8710  143.4040 C   0  0  1  0  0  3  0  0  0  0  0  0
  190.0770  178.6720  143.2680 C   0  0  2  0  0  3  0  0  0  0  0  0
  185.2680  178.7470  144.3700 C   0  0  1  0  0  3  0  0  0  0  0  0
  1  5  1  6  0  0  0
  1 22  1  0  0  0  0
  1  4  1  0  0  0  0
  2 14  1  0  0  0  0
  2 22  1  0  0  0  0
  3 11  1  0  0  0  0
  4 23  1  1  0  0  0
  6  8  1  0  0  0  0
  7 16  1  0  0  0  0
  8 12  1  6  0  0  0
  8 13  1  0  0  0  0
  9 21  1  0  0  0  0
  9 12  2  0  0  0  0
 10 15  1  0  0  0  0
 11 24  2  0  0  0  0
 12  5  1  0  0  0  0
 13  4  1  0  0  0  0
 13 30  1  0  0  0  0
 14 20  2  0  0  0  0
 15 26  1  0  0  0  0
 16 26  2  0  0  0  0
 17 21  2  0  0  0  0
 18  2  2  0  0  0  0
 19  3  2  0  0  0  0
 20 28  1  0  0  0  0
 21  6  1  0  0  0  0
 22 29  1  0  0  0  0
 23 25  1  0  0  0  0
 25 11  1  0  0  0  0
 25 10  1  0  0  0  0
 27 30  1  0  0  0  0
 28 19  1  0  0  0  0
 29 28  1  0  0  0  0
 29 19  1  0  0  0  0
 30  7  1  0  0  0  0
M  END
>  <MODEL>
3

>  <REMARK>
 VINA RESULT:      -7.5      3.284      6.222
  Name = 
  0 active torsions:
  status: ('A' for Active; 'I' for Inactive)
                            x       y       z     vdW  Elec       q    Type
                         _______ _______ _______ _____ _____    ______ ____

>  <TORSDO>
F 0

$$$$
=
 OpenBabel10272413573D

 30 35  0  0  1  0  0  0  0  0999 V2000
  186.2040  178.8880  140.5140 C   0  0  1  0  0  3  0  0  0  0  0  0
  184.1320  179.2920  139.0340 C   0  0  0  0  0  0  0  0  0  0  0  0
  182.8210  178.9470  143.1270 C   0  0  0  0  0  3  0  0  0  0  0  0
  186.6090  178.6430  141.9820 C   0  0  1  0  0  3  0  0  0  0  0  0
  186.8470  177.8980  139.6500 N   0  0  0  0  0  2  0  0  0  0  0  0
  190.6820  177.8470  141.0150 S   0  0  0  0  0  0  0  0  0  0  0  0
  189.0480  177.9280  144.4830 C   0  0  0  0  0  2  0  0  0  0  0  0
  188.9590  178.4570  140.9060 C   0  0  1  0  0  3  0  0  0  0  0  0
  188.9640  176.8510  139.1320 C   0  0  0  0  0  3  0  0  0  0  0  0
  186.0220  178.7880  145.0010 O   0  0  0  0  0  0  0  0  0  0  0  0
  183.9450  179.4030  143.9630 C   0  0  0  0  0  0  0  0  0  0  0  0
  188.2460  177.6950  139.8440 C   0  0  0  0  0  0  0  0  0  0  0  0
  188.1280  178.4990  142.2150 C   0  0  2  0  0  3  0  0  0  0  0  0
  182.6840  179.2150  138.8660 C   0  0  0  0  0  3  0  0  0  0  0  0
  186.0970  177.4230  145.2880 C   0  0  0  0  0  2  0  0  0  0  0  0
  188.5790  177.2840  145.7610 C   0  0  0  0  0  3  0  0  0  0  0  0
  191.3130  176.3080  138.8460 C   0  0  0  0  0  2  0  0  0  0  0  0
  184.8570  179.8030  138.1400 O   0  0  0  0  0  0  0  0  0  0  0  0
  183.0160  178.2660  142.0030 C   0  0  0  0  0  0  0  0  0  0  0  0
  181.9580  178.4500  139.6860 C   0  0  0  0  0  3  0  0  0  0  0  0
  190.3430  176.8170  139.5900 C   0  0  0  0  0  0  0  0  0  0  0  0
  184.6840  178.8770  140.3580 C   0  0  1  0  0  3  0  0  0  0  0  0
  186.0570  179.5960  142.8470 O   0  0  0  0  0  0  0  0  0  0  0  0
  183.7320  180.2750  144.8460 O   0  0  0  0  0  0  0  0  0  0  0  0
  185.3310  178.8460  143.7810 C   0  0  1  0  0  3  0  0  0  0  0  0
  187.2990  177.0970  146.1280 C   0  0  0  0  0  3  0  0  0  0  0  0
  188.8420  176.0450  142.7710 C   0  0  0  0  0  1  0  0  0  0  0  0
  182.5500  177.5320  140.7400 C   0  0  1  0  0  3  0  0  0  0  0  0
  183.9710  177.6630  140.9690 C   0  0  2  0  0  3  0  0  0  0  0  0
  188.3330  177.3940  143.2570 C   0  0  1  0  0  3  0  0  0  0  0  0
  1  5  1  6  0  0  0
  1  4  1  0  0  0  0
  2 22  1  0  0  0  0
  3 11  1  0  0  0  0
  4 13  1  0  0  0  0
  4 23  1  1  0  0  0
  5 12  1  0  0  0  0
  7 16  1  0  0  0  0
  8 12  1  6  0  0  0
  8  6  1  0  0  0  0
  8 13  1  0  0  0  0
  9 21  1  0  0  0  0
  9 12  2  0  0  0  0
 10 15  1  0  0  0  0
 11 24  2  0  0  0  0
 13 30  1  0  0  0  0
 14  2  1  0  0  0  0
 14 20  2  0  0  0  0
 15 26  1  0  0  0  0
 16 26  2  0  0  0  0
 17 21  2  0  0  0  0
 18  2  2  0  0  0  0
 19  3  2  0  0  0  0
 20 28  1  0  0  0  0
 21  6  1  0  0  0  0
 22  1  1  0  0  0  0
 22 29  1  0  0  0  0
 23 25  1  0  0  0  0
 25 11  1  0  0  0  0
 25 10  1  0  0  0  0
 27 30  1  0  0  0  0
 28 29  1  0  0  0  0
 28 19  1  0  0  0  0
 29 19  1  0  0  0  0
 30  7  1  0  0  0  0
M  END
>  <MODEL>
4

>  <REMARK>
 VINA RESULT:      -7.2      2.236      4.019
  Name = 
  0 active torsions:
  status: ('A' for Active; 'I' for Inactive)
                            x       y       z     vdW  Elec       q    Type
                         _______ _______ _______ _____ _____    ______ ____

>  <TORSDO>
F 0

$$$$
=
 OpenBabel10272413573D

 30 35  0  0  1  0  0  0  0  0999 V2000
  184.8990  179.1110  142.3140 C   0  0  1  0  0  3  0  0  0  0  0  0
  185.0330  179.0830  144.8890 C   0  0  0  0  0  0  0  0  0  0  0  0
  188.8290  177.7670  143.3240 C   0  0  0  0  0  3  0  0  0  0  0  0
  185.7340  178.7880  141.0580 C   0  0  1  0  0  3  0  0  0  0  0  0
  183.5760  178.4980  142.2000 N   0  0  0  0  0  2  0  0  0  0  0  0
  182.4710  179.4070  138.3890 S   0  0  0  0  0  0  0  0  0  0  0  0
  186.0920  178.4850  137.5230 C   0  0  0  0  0  2  0  0  0  0  0  0
  183.5320  179.4780  139.8780 C   0  0  1  0  0  3  0  0  0  0  0  0
  181.6780  178.2250  140.7260 C   0  0  0  0  0  3  0  0  0  0  0  0
  188.4410  178.3090  139.6720 O   0  0  0  0  0  0  0  0  0  0  0  0
  188.9830  178.4140  142.0090 C   0  0  0  0  0  0  0  0  0  0  0  0
  182.8830  178.7000  140.9690 C   0  0  0  0  0  0  0  0  0  0  0  0
  185.0220  179.0770  139.7200 C   0  0  2  0  0  3  0  0  0  0  0  0
  185.6900  178.5990  146.0990 C   0  0  0  0  0  3  0  0  0  0  0  0
  188.2140  177.0030  139.2290 C   0  0  0  0  0  2  0  0  0  0  0  0
  187.1500  177.5510  137.0000 C   0  0  0  0  0  3  0  0  0  0  0  0
  179.9820  178.4620  139.0060 C   0  0  0  0  0  2  0  0  0  0  0  0
  184.0890  179.9130  144.9570 O   0  0  0  0  0  0  0  0  0  0  0  0
  187.6470  177.3470  143.7630 C   0  0  0  0  0  0  0  0  0  0  0  0
  186.5020  177.5400  146.0380 C   0  0  0  0  0  3  0  0  0  0  0  0
  181.2510  178.5410  139.3730 C   0  0  0  0  0  0  0  0  0  0  0  0
  185.6240  178.6660  143.5830 C   0  0  1  0  0  3  0  0  0  0  0  0
  186.9970  179.3950  141.0960 O   0  0  0  0  0  0  0  0  0  0  0  0
  190.0450  179.0430  141.7620 O   0  0  0  0  0  0  0  0  0  0  0  0
  187.9010  178.3330  140.9660 C   0  0  1  0  0  3  0  0  0  0  0  0
  188.0940  176.9360  137.7340 C   0  0  0  0  0  3  0  0  0  0  0  0
  184.3210  176.8980  138.4530 C   0  0  0  0  0  1  0  0  0  0  0  0
  186.7120  176.6990  144.7910 C   0  0  1  0  0  3  0  0  0  0  0  0
  186.1340  177.2180  143.5720 C   0  0  2  0  0  3  0  0  0  0  0  0
  185.3830  177.9450  138.7510 C   0  0  1  0  0  3  0  0  0  0  0  0
  1  5  1  6  0  0  0
  1 22  1  0  0  0  0
  2 18  2  0  0  0  0
  2 14  1  0  0  0  0
  3 19  2  0  0  0  0
  4 23  1  1  0  0  0
  4  1  1  0  0  0  0
  6 21  1  0  0  0  0
  7 30  1  0  0  0  0
  8  6  1  6  0  0  0
  8 12  1  0  0  0  0
  9 12  2  0  0  0  0
 10 25  1  0  0  0  0
 11  3  1  0  0  0  0
 12  5  1  0  0  0  0
 13  8  1  0  0  0  0
 13  4  1  0  0  0  0
 15 10  1  0  0  0  0
 16  7  1  0  0  0  0
 16 26  2  0  0  0  0
 17 21  2  0  0  0  0
 19 28  1  0  0  0  0
 20 14  2  0  0  0  0
 21  9  1  0  0  0  0
 22  2  1  0  0  0  0
 24 11  2  0  0  0  0
 25 23  1  0  0  0  0
 25 11  1  0  0  0  0
 26 15  1  0  0  0  0
 27 30  1  0  0  0  0
 28 20  1  0  0  0  0
 29 22  1  0  0  0  0
 29 19  1  0  0  0  0
 29 28  1  0  0  0  0
 30 13  1  0  0  0  0
M  END
>  <MODEL>
5

>  <REMARK>
 VINA RESULT:      -7.2      2.756      7.211
  Name = 
  0 active torsions:
  status: ('A' for Active; 'I' for Inactive)
                            x       y       z     vdW  Elec       q    Type
                         _______ _______ _______ _____ _____    ______ ____

>  <TORSDO>
F 0

$$$$
=
 OpenBabel10272413573D

 30 35  0  0  1  0  0  0  0  0999 V2000
  186.2030  178.7880  141.4780 C   0  0  1  0  0  3  0  0  0  0  0  0
  185.1750  179.0980  143.8220 C   0  0  0  0  0  0  0  0  0  0  0  0
  189.2760  177.8580  144.3000 C   0  0  0  0  0  3  0  0  0  0  0  0
  187.5130  178.3670  140.7810 C   0  0  1  0  0  3  0  0  0  0  0  0
  185.0730  178.0760  140.8820 N   0  0  0  0  0  2  0  0  0  0  0  0
  185.7810  178.4130  136.8880 S   0  0  0  0  0  0  0  0  0  0  0  0
  189.4120  177.6410  137.8510 C   0  0  0  0  0  2  0  0  0  0  0  0
  186.0660  178.7470  138.6650 C   0  0  1  0  0  3  0  0  0  0  0  0
  184.0340  177.4870  138.7800 C   0  0  0  0  0  3  0  0  0  0  0  0
  190.5560  177.9030  140.8160 O   0  0  0  0  0  0  0  0  0  0  0  0
  189.9970  178.3410  143.1100 C   0  0  0  0  0  0  0  0  0  0  0  0
  185.0010  178.0710  139.4580 C   0  0  0  0  0  0  0  0  0  0  0  0
  187.4720  178.4330  139.2390 C   0  0  2  0  0  3  0  0  0  0  0  0
  185.2240  178.8180  145.2530 C   0  0  0  0  0  3  0  0  0  0  0  0
  190.5570  176.5380  140.5130 C   0  0  0  0  0  2  0  0  0  0  0  0
  190.5980  176.7230  137.9900 C   0  0  0  0  0  3  0  0  0  0  0  0
  183.2830  177.3860  136.4740 C   0  0  0  0  0  2  0  0  0  0  0  0
  184.2940  179.8630  143.3460 O   0  0  0  0  0  0  0  0  0  0  0  0
  188.0240  177.4180  144.2290 C   0  0  0  0  0  0  0  0  0  0  0  0
  185.9830  177.8190  145.7110 C   0  0  0  0  0  3  0  0  0  0  0  0
  184.2550  177.5980  137.3480 C   0  0  0  0  0  0  0  0  0  0  0  0
  186.2880  178.5590  142.9860 C   0  0  1  0  0  3  0  0  0  0  0  0
  188.6230  179.0590  141.2830 O   0  0  0  0  0  0  0  0  0  0  0  0
  191.0560  179.0060  143.2680 O   0  0  0  0  0  0  0  0  0  0  0  0
  189.4950  178.0540  141.7210 C   0  0  1  0  0  3  0  0  0  0  0  0
  191.1170  176.2730  139.1450 C   0  0  0  0  0  3  0  0  0  0  0  0
  187.4200  176.0670  138.1240 C   0  0  0  0  0  1  0  0  0  0  0  0
  186.7320  176.8430  144.8210 C   0  0  1  0  0  3  0  0  0  0  0  0
  186.7560  177.1610  143.4110 C   0  0  2  0  0  3  0  0  0  0  0  0
  188.2330  177.2140  138.7050 C   0  0  1  0  0  3  0  0  0  0  0  0
  1  5  1  6  0  0  0
  1 22  1  0  0  0  0
  2 14  1  0  0  0  0
  4 23  1  1  0  0  0
  4  1  1  0  0  0  0
  6 21  1  0  0  0  0
  7 16  1  0  0  0  0
  7 30  1  0  0  0  0
  8  6  1  6  0  0  0
  8 13  1  0  0  0  0
  8 12  1  0  0  0  0
  9 12  2  0  0  0  0
 10 25  1  0  0  0  0
 11 24  2  0  0  0  0
 11  3  1  0  0  0  0
 12  5  1  0  0  0  0
 13  4  1  0  0  0  0
 14 20  2  0  0  0  0
 15 10  1  0  0  0  0
 16 26  2  0  0  0  0
 17 21  2  0  0  0  0
 18  2  2  0  0  0  0
 19  3  2  0  0  0  0
 19 28  1  0  0  0  0
 21  9  1  0  0  0  0
 22 29  1  0  0  0  0
 22  2  1  0  0  0  0
 23 25  1  0  0  0  0
 25 11  1  0  0  0  0
 26 15  1  0  0  0  0
 27 30  1  0  0  0  0
 28 20  1  0  0  0  0
 29 19  1  0  0  0  0
 29 28  1  0  0  0  0
 30 13  1  0  0  0  0
M  END
>  <MODEL>
6

>  <REMARK>
 VINA RESULT:      -7.0      2.521      7.007
  Name = 
  0 active torsions:
  status: ('A' for Active; 'I' for Inactive)
                            x       y       z     vdW  Elec       q    Type
                         _______ _______ _______ _____ _____    ______ ____

>  <TORSDO>
F 0

$$$$
=
 OpenBabel10272413573D

 30 35  0  0  1  0  0  0  0  0999 V2000
  185.8190  178.7620  141.8790 C   0  0  1  0  0  3  0  0  0  0  0  0
  186.4520  178.6320  144.3750 C   0  0  0  0  0  0  0  0  0  0  0  0
  189.7140  177.0110  142.0680 C   0  0  0  0  0  3  0  0  0  0  0  0
  186.3550  178.4040  140.4770 C   0  0  1  0  0  3  0  0  0  0  0  0
  184.4440  178.2830  142.0200 N   0  0  0  0  0  2  0  0  0  0  0  0
  182.7110  179.4260  138.5190 S   0  0  0  0  0  0  0  0  0  0  0  0
  185.9800  178.1910  136.9380 C   0  0  0  0  0  2  0  0  0  0  0  0
  184.0460  179.3430  139.7690 C   0  0  1  0  0  3  0  0  0  0  0  0
  182.2770  178.2450  140.9490 C   0  0  0  0  0  3  0  0  0  0  0  0
  188.6750  177.7150  138.5740 O   0  0  0  0  0  0  0  0  0  0  0  0
  189.6720  177.6860  140.7590 C   0  0  0  0  0  0  0  0  0  0  0  0
  183.5470  178.5930  140.9550 C   0  0  0  0  0  0  0  0  0  0  0  0
  185.4270  178.8060  139.3110 C   0  0  2  0  0  3  0  0  0  0  0  0
  187.2810  178.0440  145.4230 C   0  0  0  0  0  3  0  0  0  0  0  0
  188.2350  176.4530  138.1660 C   0  0  0  0  0  2  0  0  0  0  0  0
  186.8150  177.1780  136.2000 C   0  0  0  0  0  3  0  0  0  0  0  0
  180.3090  178.7040  139.6040 C   0  0  0  0  0  2  0  0  0  0  0  0
  185.6280  179.5460  144.6420 O   0  0  0  0  0  0  0  0  0  0  0  0
  188.6050  176.6930  142.7270 C   0  0  0  0  0  0  0  0  0  0  0  0
  187.9540  176.9150  145.1860 C   0  0  0  0  0  3  0  0  0  0  0  0
  181.6270  178.6480  139.7130 C   0  0  0  0  0  0  0  0  0  0  0  0
  186.7300  178.2050  142.9710 C   0  0  1  0  0  3  0  0  0  0  0  0
  187.6550  178.8850  140.2730 O   0  0  0  0  0  0  0  0  0  0  0  0
  190.7240  178.2180  140.3140 O   0  0  0  0  0  0  0  0  0  0  0  0
  188.4050  177.7460  139.9500 C   0  0  1  0  0  3  0  0  0  0  0  0
  187.8170  176.4500  136.7230 C   0  0  0  0  0  3  0  0  0  0  0  0
  184.2740  176.7500  138.1770 C   0  0  0  0  0  1  0  0  0  0  0  0
  187.8290  176.1020  143.9100 C   0  0  1  0  0  3  0  0  0  0  0  0
  187.0790  176.7160  142.8380 C   0  0  2  0  0  3  0  0  0  0  0  0
  185.4750  177.6790  138.2730 C   0  0  1  0  0  3  0  0  0  0  0  0
  1  5  1  1  0  0  0
  1 22  1  0  0  0  0
  2 18  2  0  0  0  0
  2 14  1  0  0  0  0
  3 19  2  0  0  0  0
  4 23  1  6  0  0  0
  4  1  1  0  0  0  0
  6 21  1  0  0  0  0
  7 30  1  0  0  0  0
  8  6  1  6  0  0  0
  8 12  1  0  0  0  0
  9 12  2  0  0  0  0
 10 25  1  0  0  0  0
 11  3  1  0  0  0  0
 12  5  1  0  0  0  0
 13  8  1  0  0  0  0
 13  4  1  0  0  0  0
 15 10  1  0  0  0  0
 16 26  2  0  0  0  0
 16  7  1  0  0  0  0
 17 21  2  0  0  0  0
 19 29  1  0  0  0  0
 19 28  1  0  0  0  0
 20 14  2  0  0  0  0
 21  9  1  0  0  0  0
 22  2  1  0  0  0  0
 24 11  2  0  0  0  0
 25 23  1  0  0  0  0
 25 11  1  0  0  0  0
 26 15  1  0  0  0  0
 27 30  1  0  0  0  0
 28 20  1  0  0  0  0
 29 22  1  0  0  0  0
 29 28  1  0  0  0  0
 30 13  1  0  0  0  0
M  END
>  <MODEL>
7

>  <REMARK>
 VINA RESULT:      -6.5      2.536      6.971
  Name = 
  0 active torsions:
  status: ('A' for Active; 'I' for Inactive)
                            x       y       z     vdW  Elec       q    Type
                         _______ _______ _______ _____ _____    ______ ____

>  <TORSDO>
F 0

$$$$
=
 OpenBabel10272413573D

 30 35  0  0  1  0  0  0  0  0999 V2000
  188.8280  177.0890  138.3090 C   0  0  1  0  0  3  0  0  0  0  0  0
  187.9720  178.3630  140.3810 C   0  0  0  0  0  0  0  0  0  0  0  0
  192.1270  177.4010  141.0090 C   0  0  0  0  0  3  0  0  0  0  0  0
  190.0920  176.4020  137.7520 C   0  0  1  0  0  3  0  0  0  0  0  0
  187.6750  176.2020  138.1580 N   0  0  0  0  0  2  0  0  0  0  0  0
  188.0710  174.8260  134.3470 S   0  0  0  0  0  0  0  0  0  0  0  0
  191.7820  174.4970  135.2550 C   0  0  0  0  0  2  0  0  0  0  0  0
  188.4800  175.8720  135.7930 C   0  0  1  0  0  3  0  0  0  0  0  0
  186.4950  174.7950  136.5850 C   0  0  0  0  0  3  0  0  0  0  0  0
  193.1400  175.9690  137.7370 O   0  0  0  0  0  0  0  0  0  0  0  0
  192.7450  177.3340  139.6730 C   0  0  0  0  0  0  0  0  0  0  0  0
  187.4960  175.6010  136.8770 C   0  0  0  0  0  0  0  0  0  0  0  0
  189.9330  175.8160  136.3330 C   0  0  2  0  0  3  0  0  0  0  0  0
  188.1370  178.7090  141.7890 C   0  0  0  0  0  3  0  0  0  0  0  0
  193.1520  174.6030  138.0350 C   0  0  0  0  0  2  0  0  0  0  0  0
  192.9970  173.7110  135.6710 C   0  0  0  0  0  3  0  0  0  0  0  0
  185.5750  173.7420  134.6000 C   0  0  0  0  0  2  0  0  0  0  0  0
  187.0400  178.8650  139.7000 O   0  0  0  0  0  0  0  0  0  0  0  0
  190.8860  176.9830  141.2280 C   0  0  0  0  0  0  0  0  0  0  0  0
  188.9530  177.9860  142.5620 C   0  0  0  0  0  3  0  0  0  0  0  0
  186.6040  174.2930  135.2250 C   0  0  0  0  0  0  0  0  0  0  0  0
  189.0330  177.5130  139.7630 C   0  0  1  0  0  3  0  0  0  0  0  0
  191.2190  177.2310  137.8290 O   0  0  0  0  0  0  0  0  0  0  0  0
  193.7950  177.9940  139.4540 O   0  0  0  0  0  0  0  0  0  0  0  0
  192.1470  176.4950  138.5760 C   0  0  1  0  0  3  0  0  0  0  0  0
  193.6140  173.7830  136.8640 C   0  0  0  0  0  3  0  0  0  0  0  0
  189.8560  173.2010  136.3190 C   0  0  0  0  0  1  0  0  0  0  0  0
  189.6560  176.7200  142.1060 C   0  0  1  0  0  3  0  0  0  0  0  0
  189.5660  176.4180  140.6960 C   0  0  2  0  0  3  0  0  0  0  0  0
  190.6820  174.4780  136.2990 C   0  0  1  0  0  3  0  0  0  0  0  0
  1  5  1  1  0  0  0
  1 22  1  0  0  0  0
  2 14  1  0  0  0  0
  3 19  2  0  0  0  0
  4 23  1  6  0  0  0
  4  1  1  0  0  0  0
  6 21  1  0  0  0  0
  7 16  1  0  0  0  0
  7 30  1  0  0  0  0
  8  6  1  6  0  0  0
  8 13  1  0  0  0  0
  8 12  1  0  0  0  0
  9 12  2  0  0  0  0
 10 15  1  0  0  0  0
 10 25  1  0  0  0  0
 11  3  1  0  0  0  0
 12  5  1  0  0  0  0
 13  4  1  0  0  0  0
 14 20  2  0  0  0  0
 16 26  2  0  0  0  0
 17 21  2  0  0  0  0
 18  2  2  0  0  0  0
 19 28  1  0  0  0  0
 21  9  1  0  0  0  0
 22  2  1  0  0  0  0
 22 29  1  0  0  0  0
 23 25  1  0  0  0  0
 24 11  2  0  0  0  0
 25 11  1  0  0  0  0
 26 15  1  0  0  0  0
 28 20  1  0  0  0  0
 29 19  1  0  0  0  0
 29 28  1  0  0  0  0
 30 27  1  0  0  0  0
 30 13  1  0  0  0  0
M  END
>  <MODEL>
8

>  <REMARK>
 VINA RESULT:      -6.2      3.686      8.028
  Name = 
  0 active torsions:
  status: ('A' for Active; 'I' for Inactive)
                            x       y       z     vdW  Elec       q    Type
                         _______ _______ _______ _____ _____    ______ ____

>  <TORSDO>
F 0

$$$$
=
 OpenBabel10272413573D

 30 35  0  0  1  0  0  0  0  0999 V2000
  187.9490  178.2310  139.3270 C   0  0  1  0  0  3  0  0  0  0  0  0
  187.2940  178.7830  141.7590 C   0  0  0  0  0  0  0  0  0  0  0  0
  191.2300  177.0240  141.7870 C   0  0  0  0  0  3  0  0  0  0  0  0
  189.0880  177.6050  138.4960 C   0  0  1  0  0  3  0  0  0  0  0  0
  186.6680  177.6510  138.9260 N   0  0  0  0  0  2  0  0  0  0  0  0
  186.8680  177.7080  134.8610 S   0  0  0  0  0  0  0  0  0  0  0  0
  190.4670  176.4980  135.3990 C   0  0  0  0  0  2  0  0  0  0  0  0
  187.4300  178.0810  136.5630 C   0  0  1  0  0  3  0  0  0  0  0  0
  185.2880  177.1130  137.0150 C   0  0  0  0  0  3  0  0  0  0  0  0
  192.0240  176.7370  138.1710 O   0  0  0  0  0  0  0  0  0  0  0  0
  191.8410  177.3510  140.4860 C   0  0  0  0  0  0  0  0  0  0  0  0
  186.4040  177.5910  137.5260 C   0  0  0  0  0  0  0  0  0  0  0  0
  188.8480  177.6060  136.9710 C   0  0  2  0  0  3  0  0  0  0  0  0
  187.5010  178.5640  143.1870 C   0  0  0  0  0  3  0  0  0  0  0  0
  191.8100  175.3730  137.9570 C   0  0  0  0  0  2  0  0  0  0  0  0
  191.5330  175.4360  135.4420 C   0  0  0  0  0  3  0  0  0  0  0  0
  184.2260  177.0090  134.8350 C   0  0  0  0  0  2  0  0  0  0  0  0
  186.4630  179.6370  141.3520 O   0  0  0  0  0  0  0  0  0  0  0  0
  189.9350  176.7530  141.9040 C   0  0  0  0  0  0  0  0  0  0  0  0
  188.1810  177.4920  143.6060 C   0  0  0  0  0  3  0  0  0  0  0  0
  185.3250  177.1280  135.5620 C   0  0  0  0  0  0  0  0  0  0  0  0
  188.2070  178.0610  140.8230 C   0  0  1  0  0  3  0  0  0  0  0  0
  190.3350  178.1630  138.8080 O   0  0  0  0  0  0  0  0  0  0  0  0
  192.9870  177.8730  140.4650 O   0  0  0  0  0  0  0  0  0  0  0  0
  191.1230  177.0710  139.1930 C   0  0  1  0  0  3  0  0  0  0  0  0
  192.1420  174.9730  136.5480 C   0  0  0  0  0  3  0  0  0  0  0  0
  188.3450  175.2210  136.0220 C   0  0  0  0  0  1  0  0  0  0  0  0
  188.6710  176.3850  142.6900 C   0  0  1  0  0  3  0  0  0  0  0  0
  188.5460  176.6330  141.2720 C   0  0  2  0  0  3  0  0  0  0  0  0
  189.3690  176.2730  136.4210 C   0  0  1  0  0  3  0  0  0  0  0  0
  1  5  1  6  0  0  0
  1 22  1  0  0  0  0
  2 14  1  0  0  0  0
  3 19  2  0  0  0  0
  4 23  1  6  0  0  0
  4  1  1  0  0  0  0
  6 21  1  0  0  0  0
  7 16  1  0  0  0  0
  7 30  1  0  0  0  0
  8  6  1  6  0  0  0
  8 13  1  0  0  0  0
  8 12  1  0  0  0  0
  9 12  2  0  0  0  0
 10 25  1  0  0  0  0
 11  3  1  0  0  0  0
 12  5  1  0  0  0  0
 13  4  1  0  0  0  0
 14 20  2  0  0  0  0
 15 10  1  0  0  0  0
 16 26  2  0  0  0  0
 17 21  2  0  0  0  0
 18  2  2  0  0  0  0
 19 28  1  0  0  0  0
 21  9  1  0  0  0  0
 22 29  1  0  0  0  0
 22  2  1  0  0  0  0
 23 25  1  0  0  0  0
 24 11  2  0  0  0  0
 25 11  1  0  0  0  0
 26 15  1  0  0  0  0
 27 30  1  0  0  0  0
 28 20  1  0  0  0  0
 29 19  1  0  0  0  0
 29 28  1  0  0  0  0
 30 13  1  0  0  0  0
M  END
>  <MODEL>
9

>  <REMARK>
 VINA RESULT:      -6.2      2.859      7.526
  Name = 
  0 active torsions:
  status: ('A' for Active; 'I' for Inactive)
                            x       y       z     vdW  Elec       q    Type
                         _______ _______ _______ _____ _____    ______ ____

>  <TORSDO>
F 0

$$$$
