=
 OpenBabel10272414423D

 43 48  0  0  1  0  0  0  0  0999 V2000
  189.4150  178.4380  138.3790 C   0  0  0  0  0  2  0  0  0  0  0  0
  190.7100  177.6800  138.7060 C   0  0  1  0  0  3  0  0  0  0  0  0
  188.6740  178.8320  139.6520 C   0  0  0  0  0  2  0  0  0  0  0  0
  190.6450  176.8630  140.0060 C   0  0  0  0  0  2  0  0  0  0  0  0
  189.2220  176.3990  140.3150 C   0  0  0  0  0  2  0  0  0  0  0  0
  188.2480  177.5860  140.4450 C   0  0  1  0  0  3  0  0  0  0  0  0
  192.4960  176.5210  137.3290 N   0  0  0  0  0  2  0  0  0  0  0  0
  191.1100  176.8150  137.5580 C   0  0  0  0  0  0  0  0  0  0  0  0
  190.2180  176.3580  136.7940 O   0  0  0  0  0  0  0  0  0  0  0  0
  193.0330  175.6990  136.2450 C   0  0  2  0  0  3  0  0  0  0  0  0
  194.5920  173.8990  136.6560 N   0  0  0  0  0  2  0  0  0  0  0  0
  195.4150  175.0530  136.3210 C   0  0  2  0  0  3  0  0  0  0  0  0
  193.2390  174.2990  136.6700 C   0  0  0  0  0  0  0  0  0  0  0  0
  194.4340  176.1560  135.8330 C   0  0  1  0  0  3  0  0  0  0  0  0
  194.4660  176.2860  134.4420 O   0  0  0  0  0  1  0  0  0  0  0  0
  192.3060  173.5200  136.9930 O   0  0  0  0  0  0  0  0  0  0  0  0
  196.4410  174.7070  135.3270 N   0  0  0  0  0  0  0  0  0  0  0  0
  198.7680  175.1220  134.6690 C   0  0  0  0  0  2  0  0  0  0  0  0
  197.7320  172.8660  134.3460 C   0  0  0  0  0  2  0  0  0  0  0  0
  199.0330  173.6220  134.5930 C   0  0  0  0  0  2  0  0  0  0  0  0
  196.7040  173.2660  135.4020 C   0  0  0  0  0  2  0  0  0  0  0  0
  197.6810  175.3940  135.7070 C   0  0  0  0  0  2  0  0  0  0  0  0
  187.9350  177.9450  141.8990 C   0  0  2  0  0  3  0  0  0  0  0  0
  188.6980  178.0510  147.6220 C   0  0  0  0  0  0  0  0  0  0  0  0
  187.7360  176.6960  142.7850 C   0  0  2  0  0  3  0  0  0  0  0  0
  188.8630  177.2720  145.3340 C   0  0  0  0  0  0  0  0  0  0  0  0
  187.3040  178.0550  147.5220 C   0  0  0  0  0  3  0  0  0  0  0  0
  189.3540  178.4680  148.8880 C   0  0  0  0  0  1  0  0  0  0  0  0
  187.4600  177.2980  145.2250 C   0  0  0  0  0  0  0  0  0  0  0  0
  189.4760  177.6660  146.5260 C   0  0  0  0  0  3  0  0  0  0  0  0
  186.6860  177.6760  146.3270 C   0  0  0  0  0  3  0  0  0  0  0  0
  186.7680  176.8590  143.9660 C   0  0  0  0  0  2  0  0  0  0  0  0
  189.0060  176.0850  143.1940 N   0  0  0  0  0  2  0  0  0  0  0  0
  189.7150  176.9440  144.1460 C   0  0  0  0  0  2  0  0  0  0  0  0
  186.8000  178.8600  141.9560 N   0  0  0  0  0  2  0  0  0  0  0  0
  185.6680  178.1830  141.3440 C   0  0  0  0  0  2  0  0  0  0  0  0
  183.3880  179.0410  140.8770 C   0  0  0  0  0  2  0  0  0  0  0  0
  182.7380  178.0360  139.9480 C   0  0  1  0  0  3  0  0  0  0  0  0
  185.0390  178.7960  138.7300 S   0  0  0  0  0  0  0  0  0  0  0  0
  184.8560  179.1600  140.5080 C   0  0  2  0  0  3  0  0  0  0  0  0
  183.3000  178.2930  138.5660 C   0  0  0  0  0  2  0  0  0  0  0  0
  182.3190  175.9080  139.5040 C   0  0  0  0  0  1  0  0  0  0  0  0
  183.0540  176.7370  140.3530 O   0  0  0  0  0  0  0  0  0  0  0  0
  1  2  1  0  0  0  0
  1  3  1  0  0  0  0
  2  8  1  6  0  0  0
  2  4  1  0  0  0  0
  3  6  1  0  0  0  0
  4  5  1  0  0  0  0
  5  6  1  0  0  0  0
  6 23  1  1  0  0  0
  7  8  1  0  0  0  0
  9  8  2  0  0  0  0
 10 13  1  0  0  0  0
 10  7  1  1  0  0  0
 11 13  1  0  0  0  0
 12 17  1  6  0  0  0
 12 11  1  0  0  0  0
 13 16  2  0  0  0  0
 14 15  1  6  0  0  0
 14 10  1  0  0  0  0
 14 12  1  0  0  0  0
 17 21  1  0  0  0  0
 17 22  1  0  0  0  0
 18 22  1  0  0  0  0
 19 20  1  0  0  0  0
 19 21  1  0  0  0  0
 20 18  1  0  0  0  0
 23 35  1  6  0  0  0
 24 28  1  0  0  0  0
 25 23  1  1  0  0  0
 25 33  1  0  0  0  0
 25 32  1  0  0  0  0
 26 30  1  0  0  0  0
 27 24  1  0  0  0  0
 29 26  2  0  0  0  0
 29 31  1  0  0  0  0
 30 24  2  0  0  0  0
 31 27  2  0  0  0  0
 32 29  1  0  0  0  0
 33 34  1  0  0  0  0
 34 26  1  0  0  0  0
 36 35  1  0  0  0  0
 38 43  1  1  0  0  0
 38 37  1  0  0  0  0
 39 40  1  0  0  0  0
 40 37  1  0  0  0  0
 40 36  1  1  0  0  0
 41 39  1  0  0  0  0
 41 38  1  0  0  0  0
 42 43  1  0  0  0  0
M  END
>  <MODEL>
1

>  <REMARK>
 VINA RESULT:      -7.5      0.000      0.000
  Name = 
  9 active torsions:
  status: ('A' for Active; 'I' for Inactive)
    1  A    between atoms: N_1  and  C_34
    2  A    between atoms: N_1  and  C_35
    3  A    between atoms: N_3  and  C_4
    4  A    between atoms: C_6  and  C_12
    5  A    between atoms: C_8  and  C_34
    6  A    between atoms: N_11  and  C_14
    7  A    between atoms: C_19  and  O_37
    8  A    between atoms: C_32  and  C_35
    9  A    between atoms: C_34  and  C_38
                            x       y       z     vdW  Elec       q    Type
                         _______ _______ _______ _____ _____    ______ ____

>  <TORSDO>
F 9

$$$$
=
 OpenBabel10272414423D

 43 48  0  0  1  0  0  0  0  0999 V2000
  191.0850  175.7340  138.5180 C   0  0  0  0  0  2  0  0  0  0  0  0
  191.0900  177.2210  138.9020 C   0  0  1  0  0  3  0  0  0  0  0  0
  190.0920  175.4610  137.3940 C   0  0  0  0  0  2  0  0  0  0  0  0
  189.7390  177.9240  138.6970 C   0  0  0  0  0  2  0  0  0  0  0  0
  188.5660  176.9540  138.8430 C   0  0  0  0  0  2  0  0  0  0  0  0
  188.6580  175.7890  137.8390 C   0  0  1  0  0  3  0  0  0  0  0  0
  190.6200  177.4720  141.3810 N   0  0  0  0  0  2  0  0  0  0  0  0
  191.5680  177.3930  140.3050 C   0  0  0  0  0  0  0  0  0  0  0  0
  192.8060  177.4730  140.5260 O   0  0  0  0  0  0  0  0  0  0  0  0
  190.9410  177.6470  142.7970 C   0  0  2  0  0  3  0  0  0  0  0  0
  189.9140  176.2960  144.5170 N   0  0  0  0  0  2  0  0  0  0  0  0
  189.1110  177.5100  144.4490 C   0  0  2  0  0  3  0  0  0  0  0  0
  190.9160  176.3620  143.5270 C   0  0  0  0  0  0  0  0  0  0  0  0
  189.8820  178.4850  143.5150 C   0  0  1  0  0  3  0  0  0  0  0  0
  190.5280  179.4850  144.2460 O   0  0  0  0  0  1  0  0  0  0  0  0
  191.7200  175.4190  143.3120 O   0  0  0  0  0  0  0  0  0  0  0  0
  188.8610  178.0630  145.7880 N   0  0  0  0  0  0  0  0  0  0  0  0
  187.1180  178.4350  147.4730 C   0  0  0  0  0  2  0  0  0  0  0  0
  189.4660  177.9020  148.1590 C   0  0  0  0  0  2  0  0  0  0  0  0
  187.9950  177.7980  148.5470 C   0  0  0  0  0  2  0  0  0  0  0  0
  189.6660  177.3190  146.7620 C   0  0  0  0  0  2  0  0  0  0  0  0
  187.4520  177.8210  146.1150 C   0  0  0  0  0  2  0  0  0  0  0  0
  187.7380  175.9680  136.6300 C   0  0  2  0  0  3  0  0  0  0  0  0
  182.2470  176.9170  135.1140 C   0  0  0  0  0  0  0  0  0  0  0  0
  187.1320  177.3870  136.5560 C   0  0  2  0  0  3  0  0  0  0  0  0
  184.6550  177.1830  135.1700 C   0  0  0  0  0  0  0  0  0  0  0  0
  182.1940  177.0960  136.4990 C   0  0  0  0  0  3  0  0  0  0  0  0
  180.9990  176.6750  134.3460 C   0  0  0  0  0  1  0  0  0  0  0  0
  184.6040  177.3400  136.5680 C   0  0  0  0  0  0  0  0  0  0  0  0
  183.4780  176.9550  134.4520 C   0  0  0  0  0  3  0  0  0  0  0  0
  183.3690  177.3110  137.2240 C   0  0  0  0  0  3  0  0  0  0  0  0
  185.8470  177.6100  137.3670 C   0  0  0  0  0  2  0  0  0  0  0  0
  187.0050  177.8760  135.1780 N   0  0  0  0  0  2  0  0  0  0  0  0
  185.9700  177.1340  134.4540 C   0  0  0  0  0  2  0  0  0  0  0  0
  186.7220  174.9220  136.6140 N   0  0  0  0  0  2  0  0  0  0  0  0
  187.3820  173.6840  136.2350 C   0  0  0  0  0  2  0  0  0  0  0  0
  185.3910  173.3920  134.7850 C   0  0  0  0  0  2  0  0  0  0  0  0
  184.7340  172.0970  135.2200 C   0  0  1  0  0  3  0  0  0  0  0  0
  187.2980  171.4620  134.6030 S   0  0  0  0  0  0  0  0  0  0  0  0
  186.8960  173.2210  134.8700 C   0  0  2  0  0  3  0  0  0  0  0  0
  185.5470  170.9720  134.6160 C   0  0  0  0  0  2  0  0  0  0  0  0
  183.6040  172.6710  137.0350 C   0  0  0  0  0  1  0  0  0  0  0  0
  184.7510  171.9970  136.6130 O   0  0  0  0  0  0  0  0  0  0  0  0
  1  2  1  0  0  0  0
  2  8  1  1  0  0  0
  3  6  1  0  0  0  0
  3  1  1  0  0  0  0
  4  5  1  0  0  0  0
  4  2  1  0  0  0  0
  6 23  1  6  0  0  0
  6  5  1  0  0  0  0
  8  9  2  0  0  0  0
  8  7  1  0  0  0  0
 10  7  1  6  0  0  0
 10 14  1  0  0  0  0
 10 13  1  0  0  0  0
 12 11  1  0  0  0  0
 12 17  1  1  0  0  0
 13 11  1  0  0  0  0
 14 15  1  1  0  0  0
 14 12  1  0  0  0  0
 16 13  2  0  0  0  0
 17 22  1  0  0  0  0
 17 21  1  0  0  0  0
 18 20  1  0  0  0  0
 19 20  1  0  0  0  0
 21 19  1  0  0  0  0
 22 18  1  0  0  0  0
 23 35  1  1  0  0  0
 24 27  1  0  0  0  0
 25 23  1  6  0  0  0
 25 32  1  0  0  0  0
 26 29  2  0  0  0  0
 27 31  2  0  0  0  0
 28 24  1  0  0  0  0
 29 31  1  0  0  0  0
 29 32  1  0  0  0  0
 30 24  2  0  0  0  0
 30 26  1  0  0  0  0
 33 25  1  0  0  0  0
 34 26  1  0  0  0  0
 34 33  1  0  0  0  0
 36 35  1  0  0  0  0
 37 40  1  0  0  0  0
 37 38  1  0  0  0  0
 38 43  1  1  0  0  0
 39 41  1  0  0  0  0
 39 40  1  0  0  0  0
 40 36  1  1  0  0  0
 41 38  1  0  0  0  0
 43 42  1  0  0  0  0
M  END
>  <MODEL>
2

>  <REMARK>
 VINA RESULT:      -7.3      4.486      9.756
  Name = 
  9 active torsions:
  status: ('A' for Active; 'I' for Inactive)
    1  A    between atoms: N_1  and  C_34
    2  A    between atoms: N_1  and  C_35
    3  A    between atoms: N_3  and  C_4
    4  A    between atoms: C_6  and  C_12
    5  A    between atoms: C_8  and  C_34
    6  A    between atoms: N_11  and  C_14
    7  A    between atoms: C_19  and  O_37
    8  A    between atoms: C_32  and  C_35
    9  A    between atoms: C_34  and  C_38
                            x       y       z     vdW  Elec       q    Type
                         _______ _______ _______ _____ _____    ______ ____

>  <TORSDO>
F 9

$$$$
=
 OpenBabel10272414423D

 43 48  0  0  1  0  0  0  0  0999 V2000
  187.1940  178.2480  139.0870 C   0  0  0  0  0  2  0  0  0  0  0  0
  188.4740  178.4100  138.2540 C   0  0  1  0  0  3  0  0  0  0  0  0
  187.4720  178.4690  140.5700 C   0  0  0  0  0  2  0  0  0  0  0  0
  189.7590  178.0210  139.0020 C   0  0  0  0  0  2  0  0  0  0  0  0
  189.4980  176.9530  140.0640 C   0  0  0  0  0  2  0  0  0  0  0  0
  188.4600  177.4200  141.1020 C   0  0  1  0  0  3  0  0  0  0  0  0
  187.4110  176.5820  136.8550 N   0  0  0  0  0  2  0  0  0  0  0  0
  188.3590  177.6540  136.9730 C   0  0  0  0  0  0  0  0  0  0  0  0
  189.1070  177.9650  136.0080 O   0  0  0  0  0  0  0  0  0  0  0  0
  187.1950  175.7530  135.6700 C   0  0  2  0  0  3  0  0  0  0  0  0
  185.3770  174.1670  135.5340 N   0  0  0  0  0  2  0  0  0  0  0  0
  186.5290  173.3950  135.9830 C   0  0  2  0  0  3  0  0  0  0  0  0
  185.7570  175.5200  135.4200 C   0  0  0  0  0  0  0  0  0  0  0  0
  187.7560  174.3430  135.8600 C   0  0  1  0  0  3  0  0  0  0  0  0
  188.5350  174.0220  134.7450 O   0  0  0  0  0  1  0  0  0  0  0  0
  184.9430  176.4280  135.1110 O   0  0  0  0  0  0  0  0  0  0  0  0
  186.6740  172.1520  135.2120 N   0  0  0  0  0  0  0  0  0  0  0  0
  187.8510  170.0010  135.1450 C   0  0  0  0  0  2  0  0  0  0  0  0
  185.4860  170.1890  134.3460 C   0  0  0  0  0  2  0  0  0  0  0  0
  186.5280  169.2630  134.9620 C   0  0  0  0  0  2  0  0  0  0  0  0
  185.3790  171.4630  135.1820 C   0  0  0  0  0  2  0  0  0  0  0  0
  187.6100  171.2850  135.9360 C   0  0  0  0  0  2  0  0  0  0  0  0
  189.0960  177.8850  142.4140 C   0  0  2  0  0  3  0  0  0  0  0  0
  192.2500  175.7150  146.7370 C   0  0  0  0  0  0  0  0  0  0  0  0
  190.6400  177.8370  142.3710 C   0  0  2  0  0  3  0  0  0  0  0  0
  191.5470  177.2560  145.0050 C   0  0  0  0  0  0  0  0  0  0  0  0
  192.3110  174.6830  145.7970 C   0  0  0  0  0  3  0  0  0  0  0  0
  192.5870  175.4460  148.1590 C   0  0  0  0  0  1  0  0  0  0  0  0
  191.5850  176.2120  144.0620 C   0  0  0  0  0  0  0  0  0  0  0  0
  191.8630  176.9980  146.3420 C   0  0  0  0  0  3  0  0  0  0  0  0
  191.9820  174.9310  144.4620 C   0  0  0  0  0  3  0  0  0  0  0  0
  191.2730  176.4580  142.6130 C   0  0  0  0  0  2  0  0  0  0  0  0
  191.2610  178.8810  143.1930 N   0  0  0  0  0  2  0  0  0  0  0  0
  191.0520  178.6160  144.6180 C   0  0  0  0  0  2  0  0  0  0  0  0
  188.5420  177.1340  143.5350 N   0  0  0  0  0  2  0  0  0  0  0  0
  187.8430  178.0810  144.3880 C   0  0  0  0  0  2  0  0  0  0  0  0
  185.7830  177.2760  145.5110 C   0  0  0  0  0  2  0  0  0  0  0  0
  185.1690  178.4850  146.1890 C   0  0  1  0  0  3  0  0  0  0  0  0
  187.7060  178.3110  147.1330 S   0  0  0  0  0  0  0  0  0  0  0  0
  187.2940  177.3780  145.6200 C   0  0  2  0  0  3  0  0  0  0  0  0
  185.9660  178.7270  147.4530 C   0  0  0  0  0  2  0  0  0  0  0  0
  184.2040  179.4590  144.4510 C   0  0  0  0  0  1  0  0  0  0  0  0
  185.2600  179.5990  145.3520 O   0  0  0  0  0  0  0  0  0  0  0  0
  1  3  1  0  0  0  0
  2  8  1  6  0  0  0
  2  4  1  0  0  0  0
  2  1  1  0  0  0  0
  3  6  1  0  0  0  0
  4  5  1  0  0  0  0
  5  6  1  0  0  0  0
  6 23  1  1  0  0  0
  7  8  1  0  0  0  0
  9  8  2  0  0  0  0
 10 14  1  0  0  0  0
 10  7  1  1  0  0  0
 11 12  1  0  0  0  0
 12 17  1  6  0  0  0
 13 11  1  0  0  0  0
 13 10  1  0  0  0  0
 14 15  1  6  0  0  0
 14 12  1  0  0  0  0
 16 13  2  0  0  0  0
 17 22  1  0  0  0  0
 18 22  1  0  0  0  0
 19 20  1  0  0  0  0
 19 21  1  0  0  0  0
 20 18  1  0  0  0  0
 21 17  1  0  0  0  0
 23 35  1  1  0  0  0
 24 28  1  0  0  0  0
 25 23  1  1  0  0  0
 25 32  1  0  0  0  0
 25 33  1  0  0  0  0
 26 30  2  0  0  0  0
 27 24  2  0  0  0  0
 29 31  2  0  0  0  0
 29 26  1  0  0  0  0
 30 24  1  0  0  0  0
 31 27  1  0  0  0  0
 32 29  1  0  0  0  0
 33 34  1  0  0  0  0
 34 26  1  0  0  0  0
 35 36  1  0  0  0  0
 37 40  1  0  0  0  0
 37 38  1  0  0  0  0
 38 43  1  6  0  0  0
 38 41  1  0  0  0  0
 39 41  1  0  0  0  0
 40 36  1  6  0  0  0
 40 39  1  0  0  0  0
 42 43  1  0  0  0  0
M  END
>  <MODEL>
3

>  <REMARK>
 VINA RESULT:      -7.0      5.127      6.614
  Name = 
  9 active torsions:
  status: ('A' for Active; 'I' for Inactive)
    1  A    between atoms: N_1  and  C_34
    2  A    between atoms: N_1  and  C_35
    3  A    between atoms: N_3  and  C_4
    4  A    between atoms: C_6  and  C_12
    5  A    between atoms: C_8  and  C_34
    6  A    between atoms: N_11  and  C_14
    7  A    between atoms: C_19  and  O_37
    8  A    between atoms: C_32  and  C_35
    9  A    between atoms: C_34  and  C_38
                            x       y       z     vdW  Elec       q    Type
                         _______ _______ _______ _____ _____    ______ ____

>  <TORSDO>
F 9

$$$$
=
 OpenBabel10272414423D

 43 48  0  0  1  0  0  0  0  0999 V2000
  190.8720  176.2940  138.0190 C   0  0  0  0  0  2  0  0  0  0  0  0
  190.4250  177.5550  138.7750 C   0  0  1  0  0  3  0  0  0  0  0  0
  189.8820  175.9350  136.9170 C   0  0  0  0  0  2  0  0  0  0  0  0
  188.9010  177.7430  138.8300 C   0  0  0  0  0  2  0  0  0  0  0  0
  188.1610  176.4060  138.7810 C   0  0  0  0  0  2  0  0  0  0  0  0
  188.5010  175.6100  137.5060 C   0  0  1  0  0  3  0  0  0  0  0  0
  190.1500  177.4800  141.2940 N   0  0  0  0  0  2  0  0  0  0  0  0
  191.0100  177.5720  140.1470 C   0  0  0  0  0  0  0  0  0  0  0  0
  192.2580  177.6750  140.2820 O   0  0  0  0  0  0  0  0  0  0  0  0
  190.5790  177.4920  142.6920 C   0  0  2  0  0  3  0  0  0  0  0  0
  189.4000  176.2570  144.4020 N   0  0  0  0  0  2  0  0  0  0  0  0
  188.8550  177.6070  144.4560 C   0  0  2  0  0  3  0  0  0  0  0  0
  190.3370  176.1910  143.3500 C   0  0  0  0  0  0  0  0  0  0  0  0
  189.7530  178.4720  143.5260 C   0  0  1  0  0  3  0  0  0  0  0  0
  190.6270  179.2730  144.2650 O   0  0  0  0  0  1  0  0  0  0  0  0
  190.9210  175.1240  143.0300 O   0  0  0  0  0  0  0  0  0  0  0  0
  188.7980  178.1070  145.8370 N   0  0  0  0  0  0  0  0  0  0  0  0
  187.2790  178.5490  147.7120 C   0  0  0  0  0  2  0  0  0  0  0  0
  189.6190  177.7590  148.1220 C   0  0  0  0  0  2  0  0  0  0  0  0
  188.1910  177.7740  148.6580 C   0  0  0  0  0  2  0  0  0  0  0  0
  189.6190  177.2370  146.6870 C   0  0  0  0  0  2  0  0  0  0  0  0
  187.4110  177.9820  146.3000 C   0  0  0  0  0  2  0  0  0  0  0  0
  187.4130  175.7050  136.4350 C   0  0  2  0  0  3  0  0  0  0  0  0
  183.1970  171.7930  135.9270 C   0  0  0  0  0  0  0  0  0  0  0  0
  187.4800  174.5410  135.4210 C   0  0  2  0  0  3  0  0  0  0  0  0
  185.4410  172.6840  136.1220 C   0  0  0  0  0  0  0  0  0  0  0  0
  182.9720  172.5970  134.8060 C   0  0  0  0  0  3  0  0  0  0  0  0
  182.1230  170.8940  136.4240 C   0  0  0  0  0  1  0  0  0  0  0  0
  185.2080  173.5120  135.0080 C   0  0  0  0  0  0  0  0  0  0  0  0
  184.4280  171.8410  136.5870 C   0  0  0  0  0  3  0  0  0  0  0  0
  183.9770  173.4530  134.3460 C   0  0  0  0  0  3  0  0  0  0  0  0
  186.2820  174.4130  134.4680 C   0  0  0  0  0  2  0  0  0  0  0  0
  187.8220  173.2620  136.0520 N   0  0  0  0  0  2  0  0  0  0  0  0
  186.7210  172.7850  136.8930 C   0  0  0  0  0  2  0  0  0  0  0  0
  187.4580  177.0130  135.7900 N   0  0  0  0  0  2  0  0  0  0  0  0
  186.1460  177.6190  135.9480 C   0  0  0  0  0  2  0  0  0  0  0  0
  184.3120  176.3020  136.9750 C   0  0  0  0  0  2  0  0  0  0  0  0
  183.0770  177.1790  136.9220 C   0  0  1  0  0  3  0  0  0  0  0  0
  184.9640  178.6270  138.2260 S   0  0  0  0  0  0  0  0  0  0  0  0
  185.5160  177.1810  137.2610 C   0  0  2  0  0  3  0  0  0  0  0  0
  183.2090  178.1860  138.0440 C   0  0  0  0  0  2  0  0  0  0  0  0
  182.2440  177.0190  134.8770 C   0  0  0  0  0  1  0  0  0  0  0  0
  183.0170  177.8440  135.6940 O   0  0  0  0  0  0  0  0  0  0  0  0
  1  2  1  0  0  0  0
  2  4  1  0  0  0  0
  2  8  1  1  0  0  0
  3  6  1  0  0  0  0
  3  1  1  0  0  0  0
  5  4  1  0  0  0  0
  6 23  1  6  0  0  0
  6  5  1  0  0  0  0
  8  9  2  0  0  0  0
  8  7  1  0  0  0  0
 10  7  1  6  0  0  0
 10 13  1  0  0  0  0
 10 14  1  0  0  0  0
 11 12  1  0  0  0  0
 12 17  1  1  0  0  0
 13 11  1  0  0  0  0
 14 15  1  1  0  0  0
 14 12  1  0  0  0  0
 16 13  2  0  0  0  0
 17 22  1  0  0  0  0
 17 21  1  0  0  0  0
 18 20  1  0  0  0  0
 19 20  1  0  0  0  0
 21 19  1  0  0  0  0
 22 18  1  0  0  0  0
 23 35  1  6  0  0  0
 24 28  1  0  0  0  0
 24 30  1  0  0  0  0
 25 33  1  0  0  0  0
 25 23  1  1  0  0  0
 26 30  2  0  0  0  0
 26 34  1  0  0  0  0
 27 24  2  0  0  0  0
 29 26  1  0  0  0  0
 31 27  1  0  0  0  0
 31 29  2  0  0  0  0
 32 29  1  0  0  0  0
 32 25  1  0  0  0  0
 33 34  1  0  0  0  0
 35 36  1  0  0  0  0
 37 40  1  0  0  0  0
 38 43  1  6  0  0  0
 38 37  1  0  0  0  0
 38 41  1  0  0  0  0
 40 36  1  6  0  0  0
 40 39  1  0  0  0  0
 41 39  1  0  0  0  0
 42 43  1  0  0  0  0
M  END
>  <MODEL>
4

>  <REMARK>
 VINA RESULT:      -6.9      4.175      9.555
  Name = 
  9 active torsions:
  status: ('A' for Active; 'I' for Inactive)
    1  A    between atoms: N_1  and  C_34
    2  A    between atoms: N_1  and  C_35
    3  A    between atoms: N_3  and  C_4
    4  A    between atoms: C_6  and  C_12
    5  A    between atoms: C_8  and  C_34
    6  A    between atoms: N_11  and  C_14
    7  A    between atoms: C_19  and  O_37
    8  A    between atoms: C_32  and  C_35
    9  A    between atoms: C_34  and  C_38
                            x       y       z     vdW  Elec       q    Type
                         _______ _______ _______ _____ _____    ______ ____

>  <TORSDO>
F 9

$$$$
=
 OpenBabel10272414423D

 43 48  0  0  1  0  0  0  0  0999 V2000
  190.2060  177.5780  136.0730 C   0  0  0  0  0  2  0  0  0  0  0  0
  191.0230  176.7140  137.0450 C   0  0  1  0  0  3  0  0  0  0  0  0
  188.9830  178.1730  136.7610 C   0  0  0  0  0  2  0  0  0  0  0  0
  190.1810  176.0380  138.1380 C   0  0  0  0  0  2  0  0  0  0  0  0
  188.7510  175.7690  137.6690 C   0  0  0  0  0  2  0  0  0  0  0  0
  188.0340  177.0650  137.2430 C   0  0  1  0  0  3  0  0  0  0  0  0
  193.1990  175.4790  136.6410 N   0  0  0  0  0  2  0  0  0  0  0  0
  191.8250  175.7050  136.2940 C   0  0  0  0  0  0  0  0  0  0  0  0
  191.2810  175.0650  135.3540 O   0  0  0  0  0  0  0  0  0  0  0  0
  194.1050  174.5320  135.9910 C   0  0  2  0  0  3  0  0  0  0  0  0
  195.1810  172.7470  137.2140 N   0  0  0  0  0  2  0  0  0  0  0  0
  196.1480  173.8360  137.1920 C   0  0  2  0  0  3  0  0  0  0  0  0
  193.9980  173.1800  136.5800 C   0  0  0  0  0  0  0  0  0  0  0  0
  195.5700  174.9050  136.2210 C   0  0  1  0  0  3  0  0  0  0  0  0
  196.2310  174.8850  134.9900 O   0  0  0  0  0  1  0  0  0  0  0  0
  192.9660  172.4650  136.5090 O   0  0  0  0  0  0  0  0  0  0  0  0
  197.4830  173.3590  136.8030 N   0  0  0  0  0  0  0  0  0  0  0  0
  199.8760  173.5920  137.2850 C   0  0  0  0  0  2  0  0  0  0  0  0
  198.9180  171.3800  136.6110 C   0  0  0  0  0  2  0  0  0  0  0  0
  200.0190  172.0780  137.4030 C   0  0  0  0  0  2  0  0  0  0  0  0
  197.5570  171.9150  137.0510 C   0  0  0  0  0  2  0  0  0  0  0  0
  198.4610  174.0020  137.6880 C   0  0  0  0  0  2  0  0  0  0  0  0
  187.0740  177.5940  138.3110 C   0  0  2  0  0  3  0  0  0  0  0  0
  181.6710  176.0390  139.6270 C   0  0  0  0  0  0  0  0  0  0  0  0
  185.8390  178.2910  137.7000 C   0  0  2  0  0  3  0  0  0  0  0  0
  183.5750  176.6620  138.2650 C   0  0  0  0  0  0  0  0  0  0  0  0
  181.8160  177.2140  140.3710 C   0  0  0  0  0  3  0  0  0  0  0  0
  180.5850  175.0800  139.9560 C   0  0  0  0  0  1  0  0  0  0  0  0
  183.7370  177.8330  139.0290 C   0  0  0  0  0  0  0  0  0  0  0  0
  182.5530  175.7620  138.5790 C   0  0  0  0  0  3  0  0  0  0  0  0
  182.8450  178.1100  140.0700 C   0  0  0  0  0  3  0  0  0  0  0  0
  184.8100  178.8330  138.7040 C   0  0  0  0  0  2  0  0  0  0  0  0
  185.2090  177.4970  136.6400 N   0  0  0  0  0  2  0  0  0  0  0  0
  184.5620  176.3060  137.1950 C   0  0  0  0  0  2  0  0  0  0  0  0
  187.7920  178.4470  139.2520 N   0  0  0  0  0  2  0  0  0  0  0  0
  188.0160  177.6680  140.4590 C   0  0  0  0  0  2  0  0  0  0  0  0
  189.0240  178.3070  142.6330 C   0  0  0  0  0  2  0  0  0  0  0  0
  188.6350  177.2220  143.6170 C   0  0  1  0  0  3  0  0  0  0  0  0
  186.3100  178.1480  142.5720 S   0  0  0  0  0  0  0  0  0  0  0  0
  187.8580  178.5450  141.6920 C   0  0  2  0  0  3  0  0  0  0  0  0
  187.1990  177.4880  144.0140 C   0  0  0  0  0  2  0  0  0  0  0  0
  190.1020  175.7240  142.9050 C   0  0  0  0  0  1  0  0  0  0  0  0
  188.7330  175.9680  143.0090 O   0  0  0  0  0  0  0  0  0  0  0  0
  1  3  1  0  0  0  0
  1  2  1  0  0  0  0
  2  8  1  6  0  0  0
  2  4  1  0  0  0  0
  3  6  1  0  0  0  0
  5  4  1  0  0  0  0
  6  5  1  0  0  0  0
  6 23  1  1  0  0  0
  8  7  1  0  0  0  0
  9  8  2  0  0  0  0
 10 14  1  0  0  0  0
 10 13  1  0  0  0  0
 10  7  1  1  0  0  0
 12 17  1  6  0  0  0
 12 11  1  0  0  0  0
 13 11  1  0  0  0  0
 14 15  1  6  0  0  0
 14 12  1  0  0  0  0
 16 13  2  0  0  0  0
 17 21  1  0  0  0  0
 17 22  1  0  0  0  0
 18 20  1  0  0  0  0
 18 22  1  0  0  0  0
 19 21  1  0  0  0  0
 19 20  1  0  0  0  0
 23 35  1  1  0  0  0
 24 28  1  0  0  0  0
 24 27  1  0  0  0  0
 25 23  1  1  0  0  0
 25 32  1  0  0  0  0
 26 30  1  0  0  0  0
 26 29  2  0  0  0  0
 29 31  1  0  0  0  0
 30 24  2  0  0  0  0
 31 27  2  0  0  0  0
 32 29  1  0  0  0  0
 33 34  1  0  0  0  0
 33 25  1  0  0  0  0
 34 26  1  0  0  0  0
 35 36  1  0  0  0  0
 37 38  1  0  0  0  0
 38 43  1  6  0  0  0
 38 41  1  0  0  0  0
 39 41  1  0  0  0  0
 40 36  1  6  0  0  0
 40 39  1  0  0  0  0
 40 37  1  0  0  0  0
 42 43  1  0  0  0  0
M  END
>  <MODEL>
5

>  <REMARK>
 VINA RESULT:      -6.8      2.455      5.469
  Name = 
  9 active torsions:
  status: ('A' for Active; 'I' for Inactive)
    1  A    between atoms: N_1  and  C_34
    2  A    between atoms: N_1  and  C_35
    3  A    between atoms: N_3  and  C_4
    4  A    between atoms: C_6  and  C_12
    5  A    between atoms: C_8  and  C_34
    6  A    between atoms: N_11  and  C_14
    7  A    between atoms: C_19  and  O_37
    8  A    between atoms: C_32  and  C_35
    9  A    between atoms: C_34  and  C_38
                            x       y       z     vdW  Elec       q    Type
                         _______ _______ _______ _____ _____    ______ ____

>  <TORSDO>
F 9

$$$$
=
 OpenBabel10272414423D

 43 48  0  0  1  0  0  0  0  0999 V2000
  193.0320  176.9120  137.9680 C   0  0  0  0  0  2  0  0  0  0  0  0
  191.6670  177.0060  138.6650 C   0  0  1  0  0  3  0  0  0  0  0  0
  192.9200  176.1740  136.6390 C   0  0  0  0  0  2  0  0  0  0  0  0
  190.7270  175.8290  138.3600 C   0  0  0  0  0  2  0  0  0  0  0  0
  191.5020  174.5480  138.0540 C   0  0  0  0  0  2  0  0  0  0  0  0
  192.4540  174.7260  136.8560 C   0  0  1  0  0  3  0  0  0  0  0  0
  190.7160  177.0480  141.0150 N   0  0  0  0  0  2  0  0  0  0  0  0
  191.8460  177.1710  140.1370 C   0  0  0  0  0  0  0  0  0  0  0  0
  192.9930  177.4250  140.5910 O   0  0  0  0  0  0  0  0  0  0  0  0
  190.7400  177.1910  142.4710 C   0  0  2  0  0  3  0  0  0  0  0  0
  189.0940  176.1320  143.8870 N   0  0  0  0  0  2  0  0  0  0  0  0
  188.5980  177.4840  143.6640 C   0  0  2  0  0  3  0  0  0  0  0  0
  190.2830  175.9610  143.1490 C   0  0  0  0  0  0  0  0  0  0  0  0
  189.7460  178.2510  142.9480 C   0  0  1  0  0  3  0  0  0  0  0  0
  190.4060  179.1150  143.8270 O   0  0  0  0  0  1  0  0  0  0  0  0
  190.8990  174.8650  143.1030 O   0  0  0  0  0  0  0  0  0  0  0  0
  188.1750  178.1140  144.9230 N   0  0  0  0  0  0  0  0  0  0  0  0
  186.2110  178.7180  146.2620 C   0  0  0  0  0  2  0  0  0  0  0  0
  188.3390  177.9980  147.3670 C   0  0  0  0  0  2  0  0  0  0  0  0
  186.8200  178.0480  147.4900 C   0  0  0  0  0  2  0  0  0  0  0  0
  188.7210  177.3390  146.0430 C   0  0  0  0  0  2  0  0  0  0  0  0
  186.7140  178.0190  145.0010 C   0  0  0  0  0  2  0  0  0  0  0  0
  191.8990  174.1310  135.5590 C   0  0  2  0  0  3  0  0  0  0  0  0
  194.0830  169.0640  137.2650 C   0  0  0  0  0  0  0  0  0  0  0  0
  192.9770  173.3770  134.7490 C   0  0  2  0  0  3  0  0  0  0  0  0
  194.0340  171.3370  136.4270 C   0  0  0  0  0  0  0  0  0  0  0  0
  193.2110  168.6680  136.2470 C   0  0  0  0  0  3  0  0  0  0  0  0
  194.5700  168.0700  138.2550 C   0  0  0  0  0  1  0  0  0  0  0  0
  193.1370  170.9440  135.4160 C   0  0  0  0  0  0  0  0  0  0  0  0
  194.4890  170.3980  137.3570 C   0  0  0  0  0  3  0  0  0  0  0  0
  192.7410  169.6050  135.3230 C   0  0  0  0  0  3  0  0  0  0  0  0
  192.6460  171.9210  134.3860 C   0  0  0  0  0  2  0  0  0  0  0  0
  194.3170  173.5100  135.3300 N   0  0  0  0  0  2  0  0  0  0  0  0
  194.4120  172.7770  136.5940 C   0  0  0  0  0  2  0  0  0  0  0  0
  191.2310  175.1660  134.7780 N   0  0  0  0  0  2  0  0  0  0  0  0
  189.8470  174.7550  134.6110 C   0  0  0  0  0  2  0  0  0  0  0  0
  188.2210  174.7880  136.4840 C   0  0  0  0  0  2  0  0  0  0  0  0
  186.8990  174.3230  135.9080 C   0  0  1  0  0  3  0  0  0  0  0  0
  187.6710  176.4350  134.3910 S   0  0  0  0  0  0  0  0  0  0  0  0
  188.9290  175.6370  135.4440 C   0  0  2  0  0  3  0  0  0  0  0  0
  186.3130  175.4990  135.1570 C   0  0  0  0  0  2  0  0  0  0  0  0
  187.1840  172.1280  135.8440 C   0  0  0  0  0  1  0  0  0  0  0  0
  187.1090  173.2580  135.0280 O   0  0  0  0  0  0  0  0  0  0  0  0
  1  2  1  0  0  0  0
  2  8  1  1  0  0  0
  3  6  1  0  0  0  0
  3  1  1  0  0  0  0
  4  2  1  0  0  0  0
  5  4  1  0  0  0  0
  6 23  1  6  0  0  0
  6  5  1  0  0  0  0
  8  9  2  0  0  0  0
  8  7  1  0  0  0  0
 10  7  1  6  0  0  0
 10 14  1  0  0  0  0
 10 13  1  0  0  0  0
 12 11  1  0  0  0  0
 12 17  1  1  0  0  0
 13 11  1  0  0  0  0
 14 12  1  0  0  0  0
 14 15  1  1  0  0  0
 16 13  2  0  0  0  0
 17 22  1  0  0  0  0
 17 21  1  0  0  0  0
 18 20  1  0  0  0  0
 19 20  1  0  0  0  0
 21 19  1  0  0  0  0
 22 18  1  0  0  0  0
 23 35  1  6  0  0  0
 24 30  1  0  0  0  0
 24 28  1  0  0  0  0
 25 33  1  0  0  0  0
 25 23  1  1  0  0  0
 26 34  1  0  0  0  0
 26 30  2  0  0  0  0
 27 24  2  0  0  0  0
 29 26  1  0  0  0  0
 31 29  2  0  0  0  0
 31 27  1  0  0  0  0
 32 25  1  0  0  0  0
 32 29  1  0  0  0  0
 33 34  1  0  0  0  0
 36 35  1  0  0  0  0
 38 43  1  6  0  0  0
 38 37  1  0  0  0  0
 39 41  1  0  0  0  0
 39 40  1  0  0  0  0
 40 36  1  6  0  0  0
 40 37  1  0  0  0  0
 41 38  1  0  0  0  0
 43 42  1  0  0  0  0
M  END
>  <MODEL>
6

>  <REMARK>
 VINA RESULT:      -6.6      3.584     10.344
  Name = 
  9 active torsions:
  status: ('A' for Active; 'I' for Inactive)
    1  A    between atoms: N_1  and  C_34
    2  A    between atoms: N_1  and  C_35
    3  A    between atoms: N_3  and  C_4
    4  A    between atoms: C_6  and  C_12
    5  A    between atoms: C_8  and  C_34
    6  A    between atoms: N_11  and  C_14
    7  A    between atoms: C_19  and  O_37
    8  A    between atoms: C_32  and  C_35
    9  A    between atoms: C_34  and  C_38
                            x       y       z     vdW  Elec       q    Type
                         _______ _______ _______ _____ _____    ______ ____

>  <TORSDO>
F 9

$$$$
=
 OpenBabel10272414423D

 43 48  0  0  1  0  0  0  0  0999 V2000
  192.0120  176.9670  139.3450 C   0  0  0  0  0  2  0  0  0  0  0  0
  192.1680  175.7650  138.4020 C   0  0  1  0  0  3  0  0  0  0  0  0
  190.5410  177.2730  139.6070 C   0  0  0  0  0  2  0  0  0  0  0  0
  191.0170  175.6060  137.3960 C   0  0  0  0  0  2  0  0  0  0  0  0
  190.3740  176.9500  137.0520 C   0  0  0  0  0  2  0  0  0  0  0  0
  189.8230  177.6580  138.3040 C   0  0  1  0  0  3  0  0  0  0  0  0
  194.3090  174.6530  137.6230 N   0  0  0  0  0  2  0  0  0  0  0  0
  193.4810  175.8240  137.6980 C   0  0  0  0  0  0  0  0  0  0  0  0
  193.8520  176.9120  137.1800 O   0  0  0  0  0  0  0  0  0  0  0  0
  195.6170  174.5660  136.9750 C   0  0  2  0  0  3  0  0  0  0  0  0
  196.2390  172.6780  135.6010 N   0  0  0  0  0  2  0  0  0  0  0  0
  196.7670  172.3810  136.9250 C   0  0  2  0  0  3  0  0  0  0  0  0
  195.5330  173.8970  135.6600 C   0  0  0  0  0  0  0  0  0  0  0  0
  196.5780  173.6760  137.7650 C   0  0  1  0  0  3  0  0  0  0  0  0
  197.7870  174.3600  137.9240 O   0  0  0  0  0  1  0  0  0  0  0  0
  194.9140  174.3700  134.6720 O   0  0  0  0  0  0  0  0  0  0  0  0
  198.1650  171.9310  136.8560 N   0  0  0  0  0  0  0  0  0  0  0  0
  199.6580  170.0510  137.3570 C   0  0  0  0  0  2  0  0  0  0  0  0
  200.0500  171.4940  135.3490 C   0  0  0  0  0  2  0  0  0  0  0  0
  200.2230  170.0990  135.9410 C   0  0  0  0  0  2  0  0  0  0  0  0
  198.5840  171.9100  135.4510 C   0  0  0  0  0  2  0  0  0  0  0  0
  198.2140  170.5490  137.3440 C   0  0  0  0  0  2  0  0  0  0  0  0
  188.3070  177.5140  138.4540 C   0  0  2  0  0  3  0  0  0  0  0  0
  182.9120  175.6280  137.6240 C   0  0  0  0  0  0  0  0  0  0  0  0
  187.5620  177.6950  137.1130 C   0  0  2  0  0  3  0  0  0  0  0  0
  185.2620  176.0220  137.1830 C   0  0  0  0  0  0  0  0  0  0  0  0
  182.7100  177.0020  137.7850 C   0  0  0  0  0  3  0  0  0  0  0  0
  181.7740  174.6860  137.7770 C   0  0  0  0  0  1  0  0  0  0  0  0
  185.0640  177.4030  137.3680 C   0  0  0  0  0  0  0  0  0  0  0  0
  184.1880  175.1400  137.3290 C   0  0  0  0  0  3  0  0  0  0  0  0
  183.7830  177.8880  137.6540 C   0  0  0  0  0  3  0  0  0  0  0  0
  186.1900  178.3820  137.1960 C   0  0  0  0  0  2  0  0  0  0  0  0
  187.5130  176.4610  136.3210 N   0  0  0  0  0  2  0  0  0  0  0  0
  186.6360  175.4720  136.9510 C   0  0  0  0  0  2  0  0  0  0  0  0
  187.8170  178.4120  139.4930 N   0  0  0  0  0  2  0  0  0  0  0  0
  187.5960  177.6130  140.6870 C   0  0  0  0  0  2  0  0  0  0  0  0
  188.8560  178.3540  142.6910 C   0  0  0  0  0  2  0  0  0  0  0  0
  188.6770  177.2670  143.7320 C   0  0  1  0  0  3  0  0  0  0  0  0
  186.1750  178.0300  143.0140 S   0  0  0  0  0  0  0  0  0  0  0  0
  187.5570  178.5020  141.9200 C   0  0  2  0  0  3  0  0  0  0  0  0
  187.2970  177.4540  144.3240 C   0  0  0  0  0  2  0  0  0  0  0  0
  190.1350  175.7850  142.9700 C   0  0  0  0  0  1  0  0  0  0  0  0
  188.7680  176.0100  143.1300 O   0  0  0  0  0  0  0  0  0  0  0  0
  1  3  1  0  0  0  0
  2  8  1  6  0  0  0
  2  1  1  0  0  0  0
  4  2  1  0  0  0  0
  5  4  1  0  0  0  0
  5  6  1  0  0  0  0
  6 23  1  1  0  0  0
  6  3  1  0  0  0  0
  7  8  1  0  0  0  0
  9  8  2  0  0  0  0
 10  7  1  1  0  0  0
 10 14  1  0  0  0  0
 11 13  1  0  0  0  0
 11 12  1  0  0  0  0
 12 17  1  6  0  0  0
 12 14  1  0  0  0  0
 13 10  1  0  0  0  0
 14 15  1  6  0  0  0
 16 13  2  0  0  0  0
 17 22  1  0  0  0  0
 19 21  1  0  0  0  0
 19 20  1  0  0  0  0
 20 18  1  0  0  0  0
 21 17  1  0  0  0  0
 22 18  1  0  0  0  0
 23 35  1  1  0  0  0
 24 28  1  0  0  0  0
 24 27  1  0  0  0  0
 25 32  1  0  0  0  0
 25 23  1  1  0  0  0
 26 30  1  0  0  0  0
 26 29  2  0  0  0  0
 29 31  1  0  0  0  0
 30 24  2  0  0  0  0
 31 27  2  0  0  0  0
 32 29  1  0  0  0  0
 33 34  1  0  0  0  0
 33 25  1  0  0  0  0
 34 26  1  0  0  0  0
 35 36  1  0  0  0  0
 37 38  1  0  0  0  0
 38 43  1  6  0  0  0
 38 41  1  0  0  0  0
 39 41  1  0  0  0  0
 40 36  1  6  0  0  0
 40 37  1  0  0  0  0
 40 39  1  0  0  0  0
 42 43  1  0  0  0  0
M  END
>  <MODEL>
7

>  <REMARK>
 VINA RESULT:      -6.6      2.705      6.027
  Name = 
  9 active torsions:
  status: ('A' for Active; 'I' for Inactive)
    1  A    between atoms: N_1  and  C_34
    2  A    between atoms: N_1  and  C_35
    3  A    between atoms: N_3  and  C_4
    4  A    between atoms: C_6  and  C_12
    5  A    between atoms: C_8  and  C_34
    6  A    between atoms: N_11  and  C_14
    7  A    between atoms: C_19  and  O_37
    8  A    between atoms: C_32  and  C_35
    9  A    between atoms: C_34  and  C_38
                            x       y       z     vdW  Elec       q    Type
                         _______ _______ _______ _____ _____    ______ ____

>  <TORSDO>
F 9

$$$$
=
 OpenBabel10272414423D

 43 48  0  0  1  0  0  0  0  0999 V2000
  189.2800  176.9550  138.6030 C   0  0  0  0  0  2  0  0  0  0  0  0
  189.1940  177.8240  137.3400 C   0  0  1  0  0  3  0  0  0  0  0  0
  190.5940  176.1840  138.6520 C   0  0  0  0  0  2  0  0  0  0  0  0
  189.9510  177.2470  136.1330 C   0  0  0  0  0  2  0  0  0  0  0  0
  190.0170  175.7210  136.1800 C   0  0  0  0  0  2  0  0  0  0  0  0
  190.7040  175.2170  137.4630 C   0  0  1  0  0  3  0  0  0  0  0  0
  186.7580  178.0330  138.0070 N   0  0  0  0  0  2  0  0  0  0  0  0
  187.7690  178.0940  136.9900 C   0  0  0  0  0  0  0  0  0  0  0  0
  187.4710  178.3660  135.7970 O   0  0  0  0  0  0  0  0  0  0  0  0
  185.3270  178.2650  137.8100 C   0  0  2  0  0  3  0  0  0  0  0  0
  183.6890  177.6350  139.4710 N   0  0  0  0  0  2  0  0  0  0  0  0
  183.7360  176.5200  138.5340 C   0  0  2  0  0  3  0  0  0  0  0  0
  184.6460  178.5940  139.0810 C   0  0  0  0  0  0  0  0  0  0  0  0
  184.6100  176.9980  137.3410 C   0  0  1  0  0  3  0  0  0  0  0  0
  183.8240  177.3200  136.2310 O   0  0  0  0  0  1  0  0  0  0  0  0
  184.8710  179.6370  139.7470 O   0  0  0  0  0  0  0  0  0  0  0  0
  182.3860  176.0990  138.1350 N   0  0  0  0  0  0  0  0  0  0  0  0
  181.0940  174.2210  137.2310 C   0  0  0  0  0  2  0  0  0  0  0  0
  180.0830  175.7760  138.9130 C   0  0  0  0  0  2  0  0  0  0  0  0
  180.0760  174.3550  138.3600 C   0  0  0  0  0  2  0  0  0  0  0  0
  181.5070  176.1610  139.3070 C   0  0  0  0  0  2  0  0  0  0  0  0
  182.4600  174.6940  137.7210 C   0  0  0  0  0  2  0  0  0  0  0  0
  192.1580  174.7950  137.2360 C   0  0  2  0  0  3  0  0  0  0  0  0
  197.5990  174.5690  135.3140 C   0  0  0  0  0  0  0  0  0  0  0  0
  193.1460  175.9700  137.4040 C   0  0  2  0  0  3  0  0  0  0  0  0
  195.7510  174.9810  136.8260 C   0  0  0  0  0  0  0  0  0  0  0  0
  196.9900  175.3760  134.3480 C   0  0  0  0  0  3  0  0  0  0  0  0
  198.9010  173.9160  135.0250 C   0  0  0  0  0  1  0  0  0  0  0  0
  195.1270  175.7750  135.8450 C   0  0  0  0  0  0  0  0  0  0  0  0
  196.9760  174.3690  136.5490 C   0  0  0  0  0  3  0  0  0  0  0  0
  195.7590  175.9800  134.6140 C   0  0  0  0  0  3  0  0  0  0  0  0
  193.8220  176.4670  136.1170 C   0  0  0  0  0  2  0  0  0  0  0  0
  194.1140  175.7440  138.4830 N   0  0  0  0  0  2  0  0  0  0  0  0
  195.0600  174.6850  138.1220 C   0  0  0  0  0  2  0  0  0  0  0  0
  192.2910  174.1310  135.9440 N   0  0  0  0  0  2  0  0  0  0  0  0
  192.4300  172.7070  136.2020 C   0  0  0  0  0  2  0  0  0  0  0  0
  192.4580  170.4940  135.0820 C   0  0  0  0  0  2  0  0  0  0  0  0
  193.7000  169.7810  135.5780 C   0  0  1  0  0  3  0  0  0  0  0  0
  194.5570  172.1360  134.5410 S   0  0  0  0  0  0  0  0  0  0  0  0
  192.7800  171.9680  134.9190 C   0  0  2  0  0  3  0  0  0  0  0  0
  194.8710  170.3680  134.8200 C   0  0  0  0  0  2  0  0  0  0  0  0
  194.9350  169.1930  137.3190 C   0  0  0  0  0  1  0  0  0  0  0  0
  193.8630  170.0050  136.9480 O   0  0  0  0  0  0  0  0  0  0  0  0
  1  3  1  0  0  0  0
  2  8  1  6  0  0  0
  2  1  1  0  0  0  0
  4  5  1  0  0  0  0
  4  2  1  0  0  0  0
  5  6  1  0  0  0  0
  6 23  1  6  0  0  0
  6  3  1  0  0  0  0
  8  7  1  0  0  0  0
  9  8  2  0  0  0  0
 10  7  1  1  0  0  0
 10 13  1  0  0  0  0
 12 17  1  6  0  0  0
 12 11  1  0  0  0  0
 13 11  1  0  0  0  0
 13 16  2  0  0  0  0
 14 15  1  6  0  0  0
 14 10  1  0  0  0  0
 14 12  1  0  0  0  0
 17 21  1  0  0  0  0
 18 22  1  0  0  0  0
 18 20  1  0  0  0  0
 19 21  1  0  0  0  0
 20 19  1  0  0  0  0
 22 17  1  0  0  0  0
 23 35  1  6  0  0  0
 24 30  1  0  0  0  0
 25 23  1  6  0  0  0
 25 33  1  0  0  0  0
 26 34  1  0  0  0  0
 27 31  1  0  0  0  0
 27 24  2  0  0  0  0
 28 24  1  0  0  0  0
 29 32  1  0  0  0  0
 29 26  1  0  0  0  0
 30 26  2  0  0  0  0
 31 29  2  0  0  0  0
 32 25  1  0  0  0  0
 34 33  1  0  0  0  0
 35 36  1  0  0  0  0
 37 38  1  0  0  0  0
 38 43  1  1  0  0  0
 39 41  1  0  0  0  0
 39 40  1  0  0  0  0
 40 37  1  0  0  0  0
 40 36  1  1  0  0  0
 41 38  1  0  0  0  0
 43 42  1  0  0  0  0
M  END
>  <MODEL>
8

>  <REMARK>
 VINA RESULT:      -6.4      4.701     11.750
  Name = 
  9 active torsions:
  status: ('A' for Active; 'I' for Inactive)
    1  A    between atoms: N_1  and  C_34
    2  A    between atoms: N_1  and  C_35
    3  A    between atoms: N_3  and  C_4
    4  A    between atoms: C_6  and  C_12
    5  A    between atoms: C_8  and  C_34
    6  A    between atoms: N_11  and  C_14
    7  A    between atoms: C_19  and  O_37
    8  A    between atoms: C_32  and  C_35
    9  A    between atoms: C_34  and  C_38
                            x       y       z     vdW  Elec       q    Type
                         _______ _______ _______ _____ _____    ______ ____

>  <TORSDO>
F 9

$$$$
=
 OpenBabel10272414423D

 43 48  0  0  1  0  0  0  0  0999 V2000
  191.7090  176.1710  135.6040 C   0  0  0  0  0  2  0  0  0  0  0  0
  192.6940  176.3900  136.7620 C   0  0  1  0  0  3  0  0  0  0  0  0
  190.3170  176.6760  135.9650 C   0  0  0  0  0  2  0  0  0  0  0  0
  192.0450  176.3380  138.1540 C   0  0  0  0  0  2  0  0  0  0  0  0
  190.8120  175.4340  138.1720 C   0  0  0  0  0  2  0  0  0  0  0  0
  189.7460  175.8990  137.1610 C   0  0  1  0  0  3  0  0  0  0  0  0
  194.6670  175.1930  137.8120 N   0  0  0  0  0  2  0  0  0  0  0  0
  193.8260  175.4230  136.6700 C   0  0  0  0  0  0  0  0  0  0  0  0
  194.0350  174.8230  135.5820 O   0  0  0  0  0  0  0  0  0  0  0  0
  195.8120  174.2840  137.8660 C   0  0  2  0  0  3  0  0  0  0  0  0
  197.0170  173.6280  135.8770 N   0  0  0  0  0  2  0  0  0  0  0  0
  196.0430  172.5690  136.1040 C   0  0  2  0  0  3  0  0  0  0  0  0
  196.8310  174.6290  136.8520 C   0  0  0  0  0  0  0  0  0  0  0  0
  195.4140  172.8540  137.4980 C   0  0  1  0  0  3  0  0  0  0  0  0
  195.9200  171.9890  138.4710 O   0  0  0  0  0  1  0  0  0  0  0  0
  197.4950  175.6970  136.8610 O   0  0  0  0  0  0  0  0  0  0  0  0
  196.6640  171.2400  136.0080 N   0  0  0  0  0  0  0  0  0  0  0  0
  196.2730  168.9290  135.2840 C   0  0  0  0  0  2  0  0  0  0  0  0
  198.5360  169.9750  135.0540 C   0  0  0  0  0  2  0  0  0  0  0  0
  197.5710  168.9420  134.4830 C   0  0  0  0  0  2  0  0  0  0  0  0
  197.8390  171.3310  135.1350 C   0  0  0  0  0  2  0  0  0  0  0  0
  195.7040  170.3450  135.3510 C   0  0  0  0  0  2  0  0  0  0  0  0
  188.5980  176.6700  137.8160 C   0  0  2  0  0  3  0  0  0  0  0  0
  182.9170  177.0750  138.7710 C   0  0  0  0  0  0  0  0  0  0  0  0
  187.6240  177.2710  136.7790 C   0  0  2  0  0  3  0  0  0  0  0  0
  184.9840  176.5970  137.6000 C   0  0  0  0  0  0  0  0  0  0  0  0
  183.3320  178.3950  138.9690 C   0  0  0  0  0  3  0  0  0  0  0  0
  181.6010  176.6230  139.2910 C   0  0  0  0  0  1  0  0  0  0  0  0
  185.4130  177.9200  137.8200 C   0  0  0  0  0  0  0  0  0  0  0  0
  183.7460  176.1770  138.0920 C   0  0  0  0  0  3  0  0  0  0  0  0
  184.5760  178.8170  138.4910 C   0  0  0  0  0  3  0  0  0  0  0  0
  186.7270  178.4120  137.2850 C   0  0  0  0  0  2  0  0  0  0  0  0
  186.8590  176.2450  136.0620 N   0  0  0  0  0  2  0  0  0  0  0  0
  185.8930  175.5980  136.9520 C   0  0  0  0  0  2  0  0  0  0  0  0
  189.1270  177.6720  138.7350 N   0  0  0  0  0  2  0  0  0  0  0  0
  188.8530  177.2070  140.0860 C   0  0  0  0  0  2  0  0  0  0  0  0
  189.4130  178.2680  142.2570 C   0  0  0  0  0  2  0  0  0  0  0  0
  188.6120  177.5290  143.3100 C   0  0  1  0  0  3  0  0  0  0  0  0
  186.8080  178.4140  141.4880 S   0  0  0  0  0  0  0  0  0  0  0  0
  188.5670  178.3870  141.0030 C   0  0  2  0  0  3  0  0  0  0  0  0
  187.1950  178.0530  143.2280 C   0  0  0  0  0  2  0  0  0  0  0  0
  189.9620  175.7800  143.1670 C   0  0  0  0  0  1  0  0  0  0  0  0
  188.6240  176.1570  143.0440 O   0  0  0  0  0  0  0  0  0  0  0  0
  1  3  1  0  0  0  0
  1  2  1  0  0  0  0
  2  8  1  1  0  0  0
  2  4  1  0  0  0  0
  3  6  1  0  0  0  0
  4  5  1  0  0  0  0
  6 23  1  1  0  0  0
  6  5  1  0  0  0  0
  8  7  1  0  0  0  0
  9  8  2  0  0  0  0
 10  7  1  6  0  0  0
 11 12  1  0  0  0  0
 11 13  1  0  0  0  0
 12 17  1  1  0  0  0
 12 14  1  0  0  0  0
 13 16  2  0  0  0  0
 13 10  1  0  0  0  0
 14 10  1  0  0  0  0
 14 15  1  1  0  0  0
 18 22  1  0  0  0  0
 19 21  1  0  0  0  0
 20 19  1  0  0  0  0
 20 18  1  0  0  0  0
 21 17  1  0  0  0  0
 22 17  1  0  0  0  0
 23 35  1  6  0  0  0
 24 27  1  0  0  0  0
 24 28  1  0  0  0  0
 25 32  1  0  0  0  0
 25 23  1  1  0  0  0
 26 29  2  0  0  0  0
 26 30  1  0  0  0  0
 29 31  1  0  0  0  0
 30 24  2  0  0  0  0
 31 27  2  0  0  0  0
 32 29  1  0  0  0  0
 33 25  1  0  0  0  0
 33 34  1  0  0  0  0
 34 26  1  0  0  0  0
 35 36  1  0  0  0  0
 37 38  1  0  0  0  0
 38 43  1  6  0  0  0
 39 41  1  0  0  0  0
 40 36  1  6  0  0  0
 40 39  1  0  0  0  0
 40 37  1  0  0  0  0
 41 38  1  0  0  0  0
 43 42  1  0  0  0  0
M  END
>  <MODEL>
9

>  <REMARK>
 VINA RESULT:      -6.4      2.647      5.984
  Name = 
  9 active torsions:
  status: ('A' for Active; 'I' for Inactive)
    1  A    between atoms: N_1  and  C_34
    2  A    between atoms: N_1  and  C_35
    3  A    between atoms: N_3  and  C_4
    4  A    between atoms: C_6  and  C_12
    5  A    between atoms: C_8  and  C_34
    6  A    between atoms: N_11  and  C_14
    7  A    between atoms: C_19  and  O_37
    8  A    between atoms: C_32  and  C_35
    9  A    between atoms: C_34  and  C_38
                            x       y       z     vdW  Elec       q    Type
                         _______ _______ _______ _____ _____    ______ ____

>  <TORSDO>
F 9

$$$$
