=
 OpenBabel10272400583D

 27 31  0  0  1  0  0  0  0  0999 V2000
  187.7250  176.2950  143.3390 N   0  0  0  0  0  2  0  0  0  0  0  0
  187.5980  178.1900  141.3290 C   0  0  0  0  0  0  0  0  0  0  0  0
  189.0110  176.7310  142.7660 C   0  0  1  0  0  3  0  0  0  0  0  0
  190.2590  177.0000  137.5170 C   0  0  0  0  0  3  0  0  0  0  0  0
  191.6600  175.2280  138.2110 O   0  0  0  0  0  0  0  0  0  0  0  0
  187.4380  178.7350  139.7420 S   0  0  0  0  0  0  0  0  0  0  0  0
  190.6750  176.4360  140.0310 C   0  0  1  0  0  3  0  0  0  0  0  0
  191.9160  177.1150  140.5780 C   0  0  0  0  0  1  0  0  0  0  0  0
  189.4600  177.3050  140.2600 C   0  0  0  0  0  0  0  0  0  0  0  0
  186.5830  178.1960  142.3380 N   0  0  0  0  0  0  0  0  0  0  0  0
  190.8920  176.1610  138.5600 C   0  0  0  0  0  0  0  0  0  0  0  0
  189.3000  177.8770  137.8230 C   0  0  0  0  0  3  0  0  0  0  0  0
  186.8300  177.4460  143.5780 C   0  0  0  0  0  2  0  0  0  0  0  0
  188.7460  177.4340  141.4640 C   0  0  0  0  0  0  0  0  0  0  0  0
  188.8610  178.0020  139.2140 C   0  0  0  0  0  0  0  0  0  0  0  0
  181.8040  179.0520  143.6250 C   0  0  0  0  0  1  0  0  0  0  0  0
  185.4450  179.1020  142.2290 C   0  0  2  0  0  3  0  0  0  0  0  0
  184.5990  179.2650  143.8470 S   0  0  0  0  0  0  0  0  0  0  0  0
  183.1090  178.7380  143.0770 N   0  0  0  0  0  0  0  0  0  0  0  0
  183.2870  178.4350  141.7090 C   0  0  0  0  0  3  0  0  0  0  0  0
  184.4820  178.5960  141.2560 N   0  0  0  0  0  0  0  0  0  0  0  0
  191.6700  179.0440  144.0680 N   0  0  0  0  0  2  0  0  0  0  0  0
  191.7050  177.9820  145.0720 C   0  0  0  0  0  2  0  0  0  0  0  0
  190.5540  178.7540  143.1730 C   0  0  0  0  0  2  0  0  0  0  0  0
  191.4940  175.8990  143.8730 N   0  0  0  0  0  1  0  0  0  0  0  0
  190.7550  176.8870  144.6470 C   0  0  2  0  0  3  0  0  0  0  0  0
  189.7560  177.6250  143.7820 C   0  0  2  0  0  3  0  0  0  0  0  0
  1 13  1  0  0  0  0
  2 14  2  0  0  0  0
  2 10  1  0  0  0  0
  3 14  1  6  0  0  0
  3  1  1  0  0  0  0
  3 27  1  0  0  0  0
  4 12  2  0  0  0  0
  4 11  1  0  0  0  0
  5 11  2  0  0  0  0
  6  2  1  0  0  0  0
  7  9  1  0  0  0  0
  7  8  1  6  0  0  0
  9 14  1  0  0  0  0
 10 13  1  0  0  0  0
 11  7  1  0  0  0  0
 12 15  1  0  0  0  0
 15  6  1  0  0  0  0
 15  9  2  0  0  0  0
 17 10  1  1  0  0  0
 17 18  1  0  0  0  0
 19 16  1  0  0  0  0
 19 18  1  0  0  0  0
 20 19  1  0  0  0  0
 21 20  2  0  0  0  0
 21 17  1  0  0  0  0
 22 23  1  0  0  0  0
 24 22  1  0  0  0  0
 26 25  1  6  0  0  0
 26 23  1  0  0  0  0
 27 24  1  6  0  0  0
 27 26  1  0  0  0  0
M  END
>  <MODEL>
1

>  <REMARK>
 VINA RESULT:      -7.6      0.000      0.000
  Name = 
  2 active torsions:
  status: ('A' for Active; 'I' for Inactive)
    1  A    between atoms: C_3  and  C_26
    2  A    between atoms: C_9  and  N_15
                            x       y       z     vdW  Elec       q    Type
                         _______ _______ _______ _____ _____    ______ ____

>  <TORSDO>
F 2

$$$$
=
 OpenBabel10272400583D

 27 31  0  0  1  0  0  0  0  0999 V2000
  190.1640  175.0810  137.6370 N   0  0  0  0  0  2  0  0  0  0  0  0
  191.8410  176.7730  139.0420 C   0  0  0  0  0  0  0  0  0  0  0  0
  189.5250  176.2240  138.3140 C   0  0  1  0  0  3  0  0  0  0  0  0
  190.2240  177.7010  143.4630 C   0  0  0  0  0  3  0  0  0  0  0  0
  187.9780  176.9680  143.5170 O   0  0  0  0  0  0  0  0  0  0  0  0
  192.7230  177.2960  140.3800 S   0  0  0  0  0  0  0  0  0  0  0  0
  188.8500  177.2090  141.2990 C   0  0  1  0  0  3  0  0  0  0  0  0
  188.0400  178.4080  140.8430 C   0  0  0  0  0  1  0  0  0  0  0  0
  190.2060  177.2120  140.6320 C   0  0  0  0  0  0  0  0  0  0  0  0
  192.3580  176.0990  137.8910 N   0  0  0  0  0  0  0  0  0  0  0  0
  188.9720  177.2620  142.8050 C   0  0  0  0  0  0  0  0  0  0  0  0
  191.3550  177.8470  142.7700 C   0  0  0  0  0  3  0  0  0  0  0  0
  191.4040  175.4930  136.9500 C   0  0  0  0  0  2  0  0  0  0  0  0
  190.4880  176.7870  139.3220 C   0  0  0  0  0  0  0  0  0  0  0  0
  191.3590  177.5550  141.3350 C   0  0  0  0  0  0  0  0  0  0  0  0
  196.0980  174.3670  135.0190 C   0  0  0  0  0  1  0  0  0  0  0  0
  193.7730  176.2100  137.5500 C   0  0  2  0  0  3  0  0  0  0  0  0
  194.0040  176.1010  135.7340 S   0  0  0  0  0  0  0  0  0  0  0  0
  195.0940  174.7470  135.9930 N   0  0  0  0  0  0  0  0  0  0  0  0
  195.2180  174.4080  137.3590 C   0  0  0  0  0  3  0  0  0  0  0  0
  194.5340  175.1340  138.1750 N   0  0  0  0  0  0  0  0  0  0  0  0
  188.0170  179.4010  136.9920 N   0  0  0  0  0  2  0  0  0  0  0  0
  187.3010  178.4000  136.2020 C   0  0  0  0  0  2  0  0  0  0  0  0
  189.0300  178.6930  137.7690 C   0  0  0  0  0  2  0  0  0  0  0  0
  186.7720  176.5910  137.7070 N   0  0  0  0  0  1  0  0  0  0  0  0
  187.7100  177.0270  136.6830 C   0  0  2  0  0  3  0  0  0  0  0  0
  189.0850  177.2700  137.2660 C   0  0  2  0  0  3  0  0  0  0  0  0
  2 14  2  0  0  0  0
  2  6  1  0  0  0  0
  3  1  1  6  0  0  0
  3 14  1  0  0  0  0
  6 15  1  0  0  0  0
  7  8  1  6  0  0  0
  7 11  1  0  0  0  0
  9  7  1  0  0  0  0
  9 15  2  0  0  0  0
 10  2  1  0  0  0  0
 11  4  1  0  0  0  0
 11  5  2  0  0  0  0
 12  4  2  0  0  0  0
 13  1  1  0  0  0  0
 13 10  1  0  0  0  0
 14  9  1  0  0  0  0
 15 12  1  0  0  0  0
 16 19  1  0  0  0  0
 17 10  1  6  0  0  0
 17 21  1  0  0  0  0
 18 19  1  0  0  0  0
 18 17  1  0  0  0  0
 19 20  1  0  0  0  0
 20 21  2  0  0  0  0
 22 24  1  0  0  0  0
 23 26  1  0  0  0  0
 23 22  1  0  0  0  0
 26 27  1  0  0  0  0
 26 25  1  1  0  0  0
 27 24  1  1  0  0  0
 27  3  1  0  0  0  0
M  END
>  <MODEL>
2

>  <REMARK>
 VINA RESULT:      -7.1      4.259      8.300
  Name = 
  2 active torsions:
  status: ('A' for Active; 'I' for Inactive)
    1  A    between atoms: C_3  and  C_26
    2  A    between atoms: C_9  and  N_15
                            x       y       z     vdW  Elec       q    Type
                         _______ _______ _______ _____ _____    ______ ____

>  <TORSDO>
F 2

$$$$
=
 OpenBabel10272400583D

 27 31  0  0  1  0  0  0  0  0999 V2000
  187.1840  179.5140  140.8370 N   0  0  0  0  0  2  0  0  0  0  0  0
  186.8340  177.7250  142.9160 C   0  0  0  0  0  0  0  0  0  0  0  0
  188.2890  178.5710  141.0830 C   0  0  1  0  0  3  0  0  0  0  0  0
  190.6340  177.5490  145.8420 C   0  0  0  0  0  3  0  0  0  0  0  0
  192.3950  178.6470  144.7110 O   0  0  0  0  0  0  0  0  0  0  0  0
  186.8850  177.2060  144.5190 S   0  0  0  0  0  0  0  0  0  0  0  0
  190.5770  178.0310  143.2770 C   0  0  1  0  0  3  0  0  0  0  0  0
  191.2560  176.9430  142.4690 C   0  0  0  0  0  1  0  0  0  0  0  0
  189.1020  177.7330  143.4180 C   0  0  0  0  0  0  0  0  0  0  0  0
  185.6790  178.1780  142.2040 N   0  0  0  0  0  0  0  0  0  0  0  0
  191.2570  178.1180  144.6250 C   0  0  0  0  0  0  0  0  0  0  0  0
  189.3610  177.1450  145.8430 C   0  0  0  0  0  3  0  0  0  0  0  0
  185.8760  178.8320  140.9020 C   0  0  0  0  0  2  0  0  0  0  0  0
  188.1110  177.9650  142.4480 C   0  0  0  0  0  0  0  0  0  0  0  0
  188.5660  177.2800  144.6200 C   0  0  0  0  0  0  0  0  0  0  0  0
  180.7860  179.3120  142.1450 C   0  0  0  0  0  1  0  0  0  0  0  0
  184.3440  177.7980  142.6530 C   0  0  2  0  0  3  0  0  0  0  0  0
  183.1280  178.0080  141.2970 S   0  0  0  0  0  0  0  0  0  0  0  0
  182.2020  179.0730  142.3440 N   0  0  0  0  0  0  0  0  0  0  0  0
  182.8180  179.2610  143.6020 C   0  0  0  0  0  3  0  0  0  0  0  0
  183.9280  178.6310  143.7760 N   0  0  0  0  0  0  0  0  0  0  0  0
  189.7920  176.2590  138.5320 N   0  0  0  0  0  2  0  0  0  0  0  0
  188.8370  177.0010  137.7100 C   0  0  0  0  0  2  0  0  0  0  0  0
  189.5850  176.6740  139.9160 C   0  0  0  0  0  2  0  0  0  0  0  0
  188.9680  179.3020  138.4210 N   0  0  0  0  0  1  0  0  0  0  0  0
  188.2010  178.0730  138.5640 C   0  0  2  0  0  3  0  0  0  0  0  0
  188.3270  177.5090  139.9630 C   0  0  2  0  0  3  0  0  0  0  0  0
  1 13  1  0  0  0  0
  2  6  1  0  0  0  0
  3  1  1  6  0  0  0
  3 14  1  0  0  0  0
  4 12  2  0  0  0  0
  6 15  1  0  0  0  0
  7  8  1  6  0  0  0
  7  9  1  0  0  0  0
  7 11  1  0  0  0  0
  9 15  2  0  0  0  0
 10  2  1  0  0  0  0
 11  5  2  0  0  0  0
 11  4  1  0  0  0  0
 13 10  1  0  0  0  0
 14  2  2  0  0  0  0
 14  9  1  0  0  0  0
 15 12  1  0  0  0  0
 16 19  1  0  0  0  0
 17 10  1  6  0  0  0
 17 21  1  0  0  0  0
 18 19  1  0  0  0  0
 18 17  1  0  0  0  0
 19 20  1  0  0  0  0
 20 21  2  0  0  0  0
 22 24  1  0  0  0  0
 23 22  1  0  0  0  0
 23 26  1  0  0  0  0
 26 25  1  1  0  0  0
 26 27  1  0  0  0  0
 27 24  1  6  0  0  0
 27  3  1  0  0  0  0
M  END
>  <MODEL>
3

>  <REMARK>
 VINA RESULT:      -6.8      2.642      4.760
  Name = 
  2 active torsions:
  status: ('A' for Active; 'I' for Inactive)
    1  A    between atoms: C_3  and  C_26
    2  A    between atoms: C_9  and  N_15
                            x       y       z     vdW  Elec       q    Type
                         _______ _______ _______ _____ _____    ______ ____

>  <TORSDO>
F 2

$$$$
=
 OpenBabel10272400583D

 27 31  0  0  1  0  0  0  0  0999 V2000
  188.8330  179.2510  140.8570 N   0  0  0  0  0  2  0  0  0  0  0  0
  186.2840  178.1960  140.6610 C   0  0  0  0  0  0  0  0  0  0  0  0
  188.3770  178.4250  141.9890 C   0  0  1  0  0  3  0  0  0  0  0  0
  183.6930  178.9130  144.6360 C   0  0  0  0  0  3  0  0  0  0  0  0
  185.2160  179.5960  146.3090 O   0  0  0  0  0  0  0  0  0  0  0  0
  184.6060  178.1990  140.8180 S   0  0  0  0  0  0  0  0  0  0  0  0
  186.2720  178.5780  144.4140 C   0  0  1  0  0  3  0  0  0  0  0  0
  186.7450  177.2880  145.0580 C   0  0  0  0  0  1  0  0  0  0  0  0
  185.9530  178.3460  142.9550 C   0  0  0  0  0  0  0  0  0  0  0  0
  187.0280  178.4130  139.4580 N   0  0  0  0  0  0  0  0  0  0  0  0
  185.0630  179.0740  145.1750 C   0  0  0  0  0  0  0  0  0  0  0  0
  183.4870  178.5370  143.3720 C   0  0  0  0  0  3  0  0  0  0  0  0
  188.4780  178.6300  139.5650 C   0  0  0  0  0  2  0  0  0  0  0  0
  186.8830  178.2720  141.9040 C   0  0  0  0  0  0  0  0  0  0  0  0
  184.6380  178.2910  142.5010 C   0  0  0  0  0  0  0  0  0  0  0  0
  187.4350  176.2500  134.9430 C   0  0  0  0  0  1  0  0  0  0  0  0
  186.4000  178.1990  138.1590 C   0  0  2  0  0  3  0  0  0  0  0  0
  186.6140  176.4580  137.6240 S   0  0  0  0  0  0  0  0  0  0  0  0
  187.3790  177.0440  136.1550 N   0  0  0  0  0  0  0  0  0  0  0  0
  187.4820  178.4530  136.1250 C   0  0  0  0  0  3  0  0  0  0  0  0
  187.0030  179.0660  137.1520 N   0  0  0  0  0  0  0  0  0  0  0  0
  189.7720  175.2080  143.3380 N   0  0  0  0  0  2  0  0  0  0  0  0
  190.9600  175.7890  142.7130 C   0  0  0  0  0  2  0  0  0  0  0  0
  188.6440  176.0730  143.0070 C   0  0  0  0  0  2  0  0  0  0  0  0
  190.9200  178.1450  143.2290 N   0  0  0  0  0  1  0  0  0  0  0  0
  190.6070  177.1650  142.1980 C   0  0  2  0  0  3  0  0  0  0  0  0
  189.1140  177.0670  141.9720 C   0  0  2  0  0  3  0  0  0  0  0  0
  2  6  1  0  0  0  0
  2 14  2  0  0  0  0
  3  1  1  6  0  0  0
  4 11  1  0  0  0  0
  6 15  1  0  0  0  0
  7  8  1  1  0  0  0
  7 11  1  0  0  0  0
  9  7  1  0  0  0  0
 10 13  1  0  0  0  0
 10  2  1  0  0  0  0
 11  5  2  0  0  0  0
 12  4  2  0  0  0  0
 13  1  1  0  0  0  0
 14  3  1  0  0  0  0
 14  9  1  0  0  0  0
 15  9  2  0  0  0  0
 15 12  1  0  0  0  0
 16 19  1  0  0  0  0
 17 10  1  1  0  0  0
 18 17  1  0  0  0  0
 19 18  1  0  0  0  0
 20 19  1  0  0  0  0
 20 21  2  0  0  0  0
 21 17  1  0  0  0  0
 23 22  1  0  0  0  0
 24 22  1  0  0  0  0
 26 23  1  0  0  0  0
 26 25  1  1  0  0  0
 27  3  1  0  0  0  0
 27 26  1  0  0  0  0
 27 24  1  1  0  0  0
M  END
>  <MODEL>
4

>  <REMARK>
 VINA RESULT:      -6.4      3.298      5.965
  Name = 
  2 active torsions:
  status: ('A' for Active; 'I' for Inactive)
    1  A    between atoms: C_3  and  C_26
    2  A    between atoms: C_9  and  N_15
                            x       y       z     vdW  Elec       q    Type
                         _______ _______ _______ _____ _____    ______ ____

>  <TORSDO>
F 2

$$$$
=
 OpenBabel10272400583D

 27 31  0  0  1  0  0  0  0  0999 V2000
  187.7780  178.8820  136.7530 N   0  0  0  0  0  2  0  0  0  0  0  0
  187.5340  177.8720  139.3150 C   0  0  0  0  0  0  0  0  0  0  0  0
  188.6690  177.7620  137.1040 C   0  0  1  0  0  3  0  0  0  0  0  0
  191.7750  177.3930  141.5090 C   0  0  0  0  0  3  0  0  0  0  0  0
  193.4210  177.6110  139.8270 O   0  0  0  0  0  0  0  0  0  0  0  0
  187.8420  177.7970  140.9710 S   0  0  0  0  0  0  0  0  0  0  0  0
  191.2260  177.1860  138.9650 C   0  0  1  0  0  3  0  0  0  0  0  0
  191.4350  175.7780  138.4420 C   0  0  0  0  0  1  0  0  0  0  0  0
  189.7980  177.3670  139.4240 C   0  0  0  0  0  0  0  0  0  0  0  0
  186.3760  178.4330  138.6890 N   0  0  0  0  0  0  0  0  0  0  0  0
  192.2060  177.4250  140.0930 C   0  0  0  0  0  0  0  0  0  0  0  0
  190.4810  177.3820  141.8370 C   0  0  0  0  0  3  0  0  0  0  0  0
  186.4030  178.6400  137.2340 C   0  0  0  0  0  2  0  0  0  0  0  0
  188.6850  177.6090  138.6000 C   0  0  0  0  0  0  0  0  0  0  0  0
  189.4720  177.4140  140.7770 C   0  0  0  0  0  0  0  0  0  0  0  0
  181.3690  178.7420  138.4350 C   0  0  0  0  0  1  0  0  0  0  0  0
  185.1340  178.5790  139.4400 C   0  0  2  0  0  3  0  0  0  0  0  0
  183.8460  177.4560  138.7720 S   0  0  0  0  0  0  0  0  0  0  0  0
  182.8110  178.8550  138.5230 N   0  0  0  0  0  0  0  0  0  0  0  0
  183.4410  180.0640  138.8930 C   0  0  0  0  0  3  0  0  0  0  0  0
  184.6400  179.9490  139.3490 N   0  0  0  0  0  0  0  0  0  0  0  0
  188.5750  174.1150  136.2050 N   0  0  0  0  0  2  0  0  0  0  0  0
  188.7320  174.7260  134.8850 C   0  0  0  0  0  2  0  0  0  0  0  0
  188.3930  175.2010  137.1630 C   0  0  0  0  0  2  0  0  0  0  0  0
  190.3190  176.5230  135.1470 N   0  0  0  0  0  1  0  0  0  0  0  0
  188.8980  176.2180  135.0630 C   0  0  2  0  0  3  0  0  0  0  0  0
  188.2020  176.4790  136.3810 C   0  0  2  0  0  3  0  0  0  0  0  0
  1 13  1  0  0  0  0
  2  6  1  0  0  0  0
  3  1  1  1  0  0  0
  3 14  1  0  0  0  0
  4 12  2  0  0  0  0
  5 11  2  0  0  0  0
  7  8  1  1  0  0  0
  7  9  1  0  0  0  0
  7 11  1  0  0  0  0
  9 15  2  0  0  0  0
 10  2  1  0  0  0  0
 11  4  1  0  0  0  0
 13 10  1  0  0  0  0
 14  2  2  0  0  0  0
 14  9  1  0  0  0  0
 15  6  1  0  0  0  0
 15 12  1  0  0  0  0
 16 19  1  0  0  0  0
 17 10  1  6  0  0  0
 18 17  1  0  0  0  0
 19 18  1  0  0  0  0
 19 20  1  0  0  0  0
 20 21  2  0  0  0  0
 21 17  1  0  0  0  0
 22 24  1  0  0  0  0
 23 26  1  0  0  0  0
 23 22  1  0  0  0  0
 26 25  1  1  0  0  0
 26 27  1  0  0  0  0
 27  3  1  0  0  0  0
 27 24  1  1  0  0  0
M  END
>  <MODEL>
5

>  <REMARK>
 VINA RESULT:      -6.3      3.437      5.530
  Name = 
  2 active torsions:
  status: ('A' for Active; 'I' for Inactive)
    1  A    between atoms: C_3  and  C_26
    2  A    between atoms: C_9  and  N_15
                            x       y       z     vdW  Elec       q    Type
                         _______ _______ _______ _____ _____    ______ ____

>  <TORSDO>
F 2

$$$$
=
 OpenBabel10272400583D

 27 31  0  0  1  0  0  0  0  0999 V2000
  188.5790  175.9170  142.7780 N   0  0  0  0  0  2  0  0  0  0  0  0
  187.7230  177.9320  144.4670 C   0  0  0  0  0  0  0  0  0  0  0  0
  187.8080  177.0090  142.1580 C   0  0  1  0  0  3  0  0  0  0  0  0
  183.0770  178.9730  143.8730 C   0  0  0  0  0  3  0  0  0  0  0  0
  182.4170  177.9390  141.8530 O   0  0  0  0  0  0  0  0  0  0  0  0
  186.6800  178.6780  145.5610 S   0  0  0  0  0  0  0  0  0  0  0  0
  184.7930  178.1240  142.1000 C   0  0  1  0  0  3  0  0  0  0  0  0
  185.0740  179.1570  141.0260 C   0  0  0  0  0  1  0  0  0  0  0  0
  185.7850  178.2630  143.2300 C   0  0  0  0  0  0  0  0  0  0  0  0
  188.9400  177.2480  144.7820 N   0  0  0  0  0  0  0  0  0  0  0  0
  183.3720  178.3120  142.5820 C   0  0  0  0  0  0  0  0  0  0  0  0
  184.0430  179.2200  144.7600 C   0  0  0  0  0  3  0  0  0  0  0  0
  189.5780  176.4430  143.7300 C   0  0  0  0  0  2  0  0  0  0  0  0
  187.1050  177.7790  143.2410 C   0  0  0  0  0  0  0  0  0  0  0  0
  185.4180  178.8180  144.4530 C   0  0  0  0  0  0  0  0  0  0  0  0
  192.5290  175.7700  147.9700 C   0  0  0  0  0  1  0  0  0  0  0  0
  189.6370  177.5290  146.0320 C   0  0  2  0  0  3  0  0  0  0  0  0
  191.4390  177.2440  145.8390 S   0  0  0  0  0  0  0  0  0  0  0  0
  191.3630  176.1080  147.1780 N   0  0  0  0  0  0  0  0  0  0  0  0
  190.0520  175.9530  147.6800 C   0  0  0  0  0  3  0  0  0  0  0  0
  189.1470  176.6590  147.0960 N   0  0  0  0  0  0  0  0  0  0  0  0
  188.9760  179.0130  139.2030 N   0  0  0  0  0  2  0  0  0  0  0  0
  190.1040  178.1010  139.3870 C   0  0  0  0  0  2  0  0  0  0  0  0
  188.0570  178.7920  140.3140 C   0  0  0  0  0  2  0  0  0  0  0  0
  189.1600  175.9400  139.8960 N   0  0  0  0  0  1  0  0  0  0  0  0
  189.7590  177.1270  140.4900 C   0  0  2  0  0  3  0  0  0  0  0  0
  188.7500  177.8970  141.3140 C   0  0  2  0  0  3  0  0  0  0  0  0
  1 13  1  0  0  0  0
  2 10  1  0  0  0  0
  2  6  1  0  0  0  0
  3  1  1  1  0  0  0
  3 14  1  0  0  0  0
  4 12  2  0  0  0  0
  5 11  2  0  0  0  0
  7  8  1  6  0  0  0
  7 11  1  0  0  0  0
  7  9  1  0  0  0  0
  9 14  1  0  0  0  0
  9 15  2  0  0  0  0
 11  4  1  0  0  0  0
 13 10  1  0  0  0  0
 14  2  2  0  0  0  0
 15 12  1  0  0  0  0
 15  6  1  0  0  0  0
 17 10  1  6  0  0  0
 17 21  1  0  0  0  0
 18 17  1  0  0  0  0
 18 19  1  0  0  0  0
 19 20  1  0  0  0  0
 19 16  1  0  0  0  0
 21 20  2  0  0  0  0
 22 23  1  0  0  0  0
 22 24  1  0  0  0  0
 23 26  1  0  0  0  0
 26 25  1  6  0  0  0
 26 27  1  0  0  0  0
 27 24  1  6  0  0  0
 27  3  1  0  0  0  0
M  END
>  <MODEL>
6

>  <REMARK>
 VINA RESULT:      -6.1      3.258      6.632
  Name = 
  2 active torsions:
  status: ('A' for Active; 'I' for Inactive)
    1  A    between atoms: C_3  and  C_26
    2  A    between atoms: C_9  and  N_15
                            x       y       z     vdW  Elec       q    Type
                         _______ _______ _______ _____ _____    ______ ____

>  <TORSDO>
F 2

$$$$
=
 OpenBabel10272400583D

 27 31  0  0  1  0  0  0  0  0999 V2000
  185.3550  179.9400  142.6160 N   0  0  0  0  0  2  0  0  0  0  0  0
  187.0090  177.7260  142.5330 C   0  0  0  0  0  0  0  0  0  0  0  0
  185.4440  179.2360  141.3240 C   0  0  1  0  0  3  0  0  0  0  0  0
  189.9760  177.7930  138.7630 C   0  0  0  0  0  3  0  0  0  0  0  0
  189.1600  179.4650  137.3050 O   0  0  0  0  0  0  0  0  0  0  0  0
  188.4720  176.9100  142.3510 S   0  0  0  0  0  0  0  0  0  0  0  0
  187.5640  178.7740  138.9530 C   0  0  1  0  0  3  0  0  0  0  0  0
  186.5760  178.0560  138.0540 C   0  0  0  0  0  1  0  0  0  0  0  0
  187.5860  178.1330  140.3210 C   0  0  0  0  0  0  0  0  0  0  0  0
  186.3620  178.0490  143.7680 N   0  0  0  0  0  0  0  0  0  0  0  0
  188.9260  178.7270  138.2960 C   0  0  0  0  0  0  0  0  0  0  0  0
  189.8470  177.1260  139.9120 C   0  0  0  0  0  3  0  0  0  0  0  0
  185.2290  178.9860  143.7360 C   0  0  0  0  0  2  0  0  0  0  0  0
  186.6480  178.3350  141.3480 C   0  0  0  0  0  0  0  0  0  0  0  0
  188.6490  177.3320  140.7290 C   0  0  0  0  0  0  0  0  0  0  0  0
  187.9180  178.2960  148.5380 C   0  0  0  0  0  1  0  0  0  0  0  0
  186.6740  177.2970  144.9790 C   0  0  2  0  0  3  0  0  0  0  0  0
  186.0300  178.1700  146.4580 S   0  0  0  0  0  0  0  0  0  0  0  0
  187.6600  178.1740  147.1170 N   0  0  0  0  0  0  0  0  0  0  0  0
  188.5980  177.5860  146.2380 C   0  0  0  0  0  3  0  0  0  0  0  0
  188.1180  177.1460  145.1270 N   0  0  0  0  0  0  0  0  0  0  0  0
  183.0360  176.9830  139.5250 N   0  0  0  0  0  2  0  0  0  0  0  0
  182.2210  178.1850  139.6950 C   0  0  0  0  0  2  0  0  0  0  0  0
  184.2850  177.2030  140.2450 C   0  0  0  0  0  2  0  0  0  0  0  0
  183.6730  180.0620  139.2590 N   0  0  0  0  0  1  0  0  0  0  0  0
  183.0790  179.2610  140.3200 C   0  0  2  0  0  3  0  0  0  0  0  0
  184.1310  178.4650  141.0600 C   0  0  2  0  0  3  0  0  0  0  0  0
  1 13  1  0  0  0  0
  2 10  1  0  0  0  0
  3 14  1  1  0  0  0
  3  1  1  0  0  0  0
  4 12  2  0  0  0  0
  5 11  2  0  0  0  0
  6  2  1  0  0  0  0
  7  8  1  6  0  0  0
  7  9  1  0  0  0  0
  9 15  2  0  0  0  0
  9 14  1  0  0  0  0
 11  4  1  0  0  0  0
 11  7  1  0  0  0  0
 12 15  1  0  0  0  0
 13 10  1  0  0  0  0
 14  2  2  0  0  0  0
 15  6  1  0  0  0  0
 17 10  1  6  0  0  0
 17 21  1  0  0  0  0
 17 18  1  0  0  0  0
 18 19  1  0  0  0  0
 19 16  1  0  0  0  0
 20 19  1  0  0  0  0
 21 20  2  0  0  0  0
 22 23  1  0  0  0  0
 22 24  1  0  0  0  0
 23 26  1  0  0  0  0
 26 25  1  6  0  0  0
 26 27  1  0  0  0  0
 27 24  1  6  0  0  0
 27  3  1  0  0  0  0
M  END
>  <MODEL>
7

>  <REMARK>
 VINA RESULT:      -5.8      2.501      5.647
  Name = 
  2 active torsions:
  status: ('A' for Active; 'I' for Inactive)
    1  A    between atoms: C_3  and  C_26
    2  A    between atoms: C_9  and  N_15
                            x       y       z     vdW  Elec       q    Type
                         _______ _______ _______ _____ _____    ______ ____

>  <TORSDO>
F 2

$$$$
=
 OpenBabel10272400583D

 27 31  0  0  1  0  0  0  0  0999 V2000
  187.4270  177.9790  137.2280 N   0  0  0  0  0  2  0  0  0  0  0  0
  189.4410  177.2840  138.9910 C   0  0  0  0  0  0  0  0  0  0  0  0
  188.1550  176.7320  136.9330 C   0  0  1  0  0  3  0  0  0  0  0  0
  193.5190  176.1170  136.7480 C   0  0  0  0  0  3  0  0  0  0  0  0
  192.9640  175.8230  134.4690 O   0  0  0  0  0  0  0  0  0  0  0  0
  191.0070  177.2980  139.6140 S   0  0  0  0  0  0  0  0  0  0  0  0
  191.0620  175.7980  135.9260 C   0  0  1  0  0  3  0  0  0  0  0  0
  190.6780  174.3360  135.8060 C   0  0  0  0  0  1  0  0  0  0  0  0
  190.7070  176.3200  137.2990 C   0  0  0  0  0  0  0  0  0  0  0  0
  188.3190  178.0190  139.4910 N   0  0  0  0  0  0  0  0  0  0  0  0
  192.5440  175.9250  135.6510 C   0  0  0  0  0  0  0  0  0  0  0  0
  193.1170  176.4120  137.9860 C   0  0  0  0  0  3  0  0  0  0  0  0
  187.1040  178.0810  138.6650 C   0  0  0  0  0  2  0  0  0  0  0  0
  189.4290  176.7170  137.7320 C   0  0  0  0  0  0  0  0  0  0  0  0
  191.6860  176.5600  138.2590 C   0  0  0  0  0  0  0  0  0  0  0  0
  186.9220  177.0520  144.2170 C   0  0  0  0  0  1  0  0  0  0  0  0
  188.3090  178.4940  140.8700 C   0  0  2  0  0  3  0  0  0  0  0  0
  188.6790  177.1180  142.0240 S   0  0  0  0  0  0  0  0  0  0  0  0
  187.1600  177.4480  142.8440 N   0  0  0  0  0  0  0  0  0  0  0  0
  186.4380  178.5000  142.2370 C   0  0  0  0  0  3  0  0  0  0  0  0
  186.9990  179.0400  141.2120 N   0  0  0  0  0  0  0  0  0  0  0  0
  186.9150  173.1900  136.7590 N   0  0  0  0  0  2  0  0  0  0  0  0
  185.7000  173.9300  136.4210 C   0  0  0  0  0  2  0  0  0  0  0  0
  187.9300  174.1720  137.1260 C   0  0  0  0  0  2  0  0  0  0  0  0
  186.3770  175.7240  134.9570 N   0  0  0  0  0  1  0  0  0  0  0  0
  186.0410  175.4000  136.3360 C   0  0  2  0  0  3  0  0  0  0  0  0
  187.2510  175.5170  137.2370 C   0  0  2  0  0  3  0  0  0  0  0  0
  1 13  1  0  0  0  0
  2 10  1  0  0  0  0
  2  6  1  0  0  0  0
  3  1  1  1  0  0  0
  3 27  1  0  0  0  0
  3 14  1  0  0  0  0
  4 12  2  0  0  0  0
  5 11  2  0  0  0  0
  7  8  1  1  0  0  0
  7  9  1  0  0  0  0
  9 14  1  0  0  0  0
  9 15  2  0  0  0  0
 11  7  1  0  0  0  0
 11  4  1  0  0  0  0
 12 15  1  0  0  0  0
 13 10  1  0  0  0  0
 14  2  2  0  0  0  0
 15  6  1  0  0  0  0
 17 10  1  6  0  0  0
 17 21  1  0  0  0  0
 17 18  1  0  0  0  0
 18 19  1  0  0  0  0
 19 16  1  0  0  0  0
 20 19  1  0  0  0  0
 21 20  2  0  0  0  0
 22 24  1  0  0  0  0
 23 22  1  0  0  0  0
 26 25  1  6  0  0  0
 26 23  1  0  0  0  0
 26 27  1  0  0  0  0
 27 24  1  6  0  0  0
M  END
>  <MODEL>
8

>  <REMARK>
 VINA RESULT:      -5.6      3.396      5.879
  Name = 
  2 active torsions:
  status: ('A' for Active; 'I' for Inactive)
    1  A    between atoms: C_3  and  C_26
    2  A    between atoms: C_9  and  N_15
                            x       y       z     vdW  Elec       q    Type
                         _______ _______ _______ _____ _____    ______ ____

>  <TORSDO>
F 2

$$$$
=
 OpenBabel10272400583D

 27 31  0  0  1  0  0  0  0  0999 V2000
  188.0730  179.3720  141.0190 N   0  0  0  0  0  2  0  0  0  0  0  0
  185.5230  178.3320  141.2720 C   0  0  0  0  0  0  0  0  0  0  0  0
  187.8280  178.5150  142.1920 C   0  0  1  0  0  3  0  0  0  0  0  0
  183.7220  178.9450  145.6770 C   0  0  0  0  0  3  0  0  0  0  0  0
  185.5360  179.5750  147.0550 O   0  0  0  0  0  0  0  0  0  0  0  0
  183.9030  178.3370  141.7380 S   0  0  0  0  0  0  0  0  0  0  0  0
  186.2120  178.6070  144.9700 C   0  0  1  0  0  3  0  0  0  0  0  0
  186.7850  177.2980  145.4790 C   0  0  0  0  0  1  0  0  0  0  0  0
  185.6250  178.4180  143.5910 C   0  0  0  0  0  0  0  0  0  0  0  0
  186.0320  178.5810  139.9580 N   0  0  0  0  0  0  0  0  0  0  0  0
  185.1700  179.0860  145.9560 C   0  0  0  0  0  0  0  0  0  0  0  0
  183.2820  178.6060  144.4640 C   0  0  0  0  0  3  0  0  0  0  0  0
  187.4780  178.7890  139.7990 C   0  0  0  0  0  2  0  0  0  0  0  0
  186.3430  178.3710  142.3830 C   0  0  0  0  0  0  0  0  0  0  0  0
  184.2490  178.3810  143.3870 C   0  0  0  0  0  0  0  0  0  0  0  0
  181.3100  178.1920  138.2900 C   0  0  0  0  0  1  0  0  0  0  0  0
  185.1710  178.4060  138.7930 C   0  0  2  0  0  3  0  0  0  0  0  0
  183.7140  179.5140  138.9010 S   0  0  0  0  0  0  0  0  0  0  0  0
  182.6780  178.1020  138.7600 N   0  0  0  0  0  0  0  0  0  0  0  0
  183.4140  176.8990  138.6790 C   0  0  0  0  0  3  0  0  0  0  0  0
  184.6950  177.0290  138.7130 N   0  0  0  0  0  0  0  0  0  0  0  0
  189.4880  175.2910  143.1730 N   0  0  0  0  0  2  0  0  0  0  0  0
  190.5000  175.8700  142.2910 C   0  0  0  0  0  2  0  0  0  0  0  0
  188.3170  176.1590  143.1150 C   0  0  0  0  0  2  0  0  0  0  0  0
  190.5890  178.2250  142.8080 N   0  0  0  0  0  1  0  0  0  0  0  0
  190.0420  177.2500  141.8760 C   0  0  2  0  0  3  0  0  0  0  0  0
  188.5360  177.1560  142.0010 C   0  0  2  0  0  3  0  0  0  0  0  0
  2  6  1  0  0  0  0
  2 14  2  0  0  0  0
  3  1  1  6  0  0  0
  3 14  1  0  0  0  0
  4 11  1  0  0  0  0
  6 15  1  0  0  0  0
  7  8  1  1  0  0  0
  7 11  1  0  0  0  0
  9  7  1  0  0  0  0
 10  2  1  0  0  0  0
 11  5  2  0  0  0  0
 12  4  2  0  0  0  0
 13 10  1  0  0  0  0
 13  1  1  0  0  0  0
 14  9  1  0  0  0  0
 15  9  2  0  0  0  0
 15 12  1  0  0  0  0
 16 19  1  0  0  0  0
 17 18  1  0  0  0  0
 17 10  1  1  0  0  0
 19 18  1  0  0  0  0
 20 21  2  0  0  0  0
 20 19  1  0  0  0  0
 21 17  1  0  0  0  0
 23 22  1  0  0  0  0
 24 22  1  0  0  0  0
 26 27  1  0  0  0  0
 26 23  1  0  0  0  0
 26 25  1  1  0  0  0
 27  3  1  0  0  0  0
 27 24  1  1  0  0  0
M  END
>  <MODEL>
9

>  <REMARK>
 VINA RESULT:      -5.3      3.274      5.555
  Name = 
  2 active torsions:
  status: ('A' for Active; 'I' for Inactive)
    1  A    between atoms: C_3  and  C_26
    2  A    between atoms: C_9  and  N_15
                            x       y       z     vdW  Elec       q    Type
                         _______ _______ _______ _____ _____    ______ ____

>  <TORSDO>
F 2

$$$$
