=
 OpenBabel10272400313D

 31 34  0  0  1  0  0  0  0  0999 V2000
  185.3100  178.0450  145.4660 C   0  0  0  0  0  0  0  0  0  0  0  0
  188.7040  177.2860  144.0770 C   0  0  0  0  0  0  0  0  0  0  0  0
  189.4980  176.8140  145.2950 C   0  0  2  0  0  3  0  0  0  0  0  0
  190.2310  177.6340  147.5320 C   0  0  0  0  0  0  0  0  0  0  0  0
  187.3400  177.6640  144.1770 C   0  0  0  0  0  0  0  0  0  0  0  0
  184.6360  178.4360  144.3080 C   0  0  0  0  0  3  0  0  0  0  0  0
  189.3510  177.6880  146.5160 C   0  0  0  0  0  3  0  0  0  0  0  0
  188.5470  177.5970  141.6590 C   0  0  0  0  0  0  0  0  0  0  0  0
  184.6630  178.0420  146.6570 F   0  0  0  0  0  0  0  0  0  0  0  0
  191.1800  175.8360  143.7370 C   0  0  0  0  0  2  0  0  0  0  0  0
  190.0330  178.4320  148.6110 F   0  0  0  0  0  0  0  0  0  0  0  0
  187.2590  178.0070  141.8020 N   0  0  0  0  0  0  0  0  0  0  0  0
  189.2840  177.1920  142.7840 C   0  0  0  0  0  0  0  0  0  0  0  0
  189.1410  177.5560  140.3570 N   0  0  0  0  0  2  0  0  0  0  0  0
  186.6510  177.6600  145.4000 C   0  0  0  0  0  3  0  0  0  0  0  0
  191.5140  176.8320  147.4460 C   0  0  0  0  0  2  0  0  0  0  0  0
  186.6420  178.0420  143.0070 C   0  0  0  0  0  0  0  0  0  0  0  0
  185.3010  178.4320  143.0800 C   0  0  0  0  0  3  0  0  0  0  0  0
  190.7030  176.7130  142.5870 C   0  0  0  0  0  2  0  0  0  0  0  0
  190.9880  176.6220  145.0120 C   0  0  2  0  0  3  0  0  0  0  0  0
  191.6040  175.9210  146.2130 C   0  0  0  0  0  2  0  0  0  0  0  0
  189.2840  179.0140  138.4200 C   0  0  0  0  0  1  0  0  0  0  0  0
  188.4400  177.9830  139.1520 C   0  0  1  0  0  3  0  0  0  0  0  0
  187.1210  177.0590  137.3720 O   0  0  0  0  0  1  0  0  0  0  0  0
  188.1680  176.7750  138.2520 C   0  0  1  0  0  3  0  0  0  0  0  0
  189.4870  176.7190  136.2880 O   0  0  0  0  0  0  0  0  0  0  0  0
  189.3820  176.3870  137.4600 C   0  0  0  0  0  0  0  0  0  0  0  0
  190.4380  175.5370  138.0950 C   0  0  0  0  0  2  0  0  0  0  0  0
  191.8330  176.0310  137.7460 C   0  0  0  0  0  3  0  0  0  0  0  0
  192.7250  174.8420  137.4570 C   0  0  0  0  0  1  0  0  0  0  0  0
  192.4160  176.8130  138.9080 C   0  0  0  0  0  1  0  0  0  0  0  0
  1  9  1  0  0  0  0
  2  5  1  0  0  0  0
  2  3  1  0  0  0  0
  3  7  1  1  0  0  0
  4 11  1  0  0  0  0
  5 15  2  0  0  0  0
  6  1  2  0  0  0  0
  7  4  2  0  0  0  0
  8 12  2  0  0  0  0
  8 13  1  0  0  0  0
 12 17  1  0  0  0  0
 13  2  2  0  0  0  0
 14  8  1  0  0  0  0
 15  1  1  0  0  0  0
 16  4  1  0  0  0  0
 17 18  2  0  0  0  0
 17  5  1  0  0  0  0
 18  6  1  0  0  0  0
 19 13  1  0  0  0  0
 19 10  1  0  0  0  0
 20 10  1  6  0  0  0
 20  3  1  0  0  0  0
 20 21  1  0  0  0  0
 21 16  1  0  0  0  0
 23 22  1  6  0  0  0
 23 14  1  0  0  0  0
 25 24  1  6  0  0  0
 25 23  1  0  0  0  0
 26 27  2  0  0  0  0
 27 28  1  0  0  0  0
 27 25  1  0  0  0  0
 29 28  1  0  0  0  0
 29 31  1  0  0  0  0
 30 29  1  0  0  0  0
M  END
>  <MODEL>
1

>  <REMARK>
 VINA RESULT:      -9.6      0.000      0.000
  Name = 
  5 active torsions:
  status: ('A' for Active; 'I' for Inactive)
    1  A    between atoms: C_1  and  C_24
    2  A    between atoms: C_9  and  C_22
    3  A    between atoms: C_9  and  N_23
    4  A    between atoms: C_19  and  C_22
    5  A    between atoms: C_19  and  C_24
                            x       y       z     vdW  Elec       q    Type
                         _______ _______ _______ _____ _____    ______ ____

>  <TORSDO>
F 5

$$$$
=
 OpenBabel10272400313D

 31 34  0  0  1  0  0  0  0  0999 V2000
  185.5540  177.9640  145.3080 C   0  0  0  0  0  0  0  0  0  0  0  0
  189.0450  177.0930  144.2680 C   0  0  0  0  0  0  0  0  0  0  0  0
  189.7370  176.7310  145.5820 C   0  0  2  0  0  3  0  0  0  0  0  0
  190.2920  177.7460  147.7900 C   0  0  0  0  0  0  0  0  0  0  0  0
  187.6800  177.4750  144.2250 C   0  0  0  0  0  0  0  0  0  0  0  0
  184.9780  178.2500  144.0700 C   0  0  0  0  0  3  0  0  0  0  0  0
  189.4970  177.7090  146.7070 C   0  0  0  0  0  3  0  0  0  0  0  0
  189.0840  177.1900  141.8270 C   0  0  0  0  0  0  0  0  0  0  0  0
  184.8140  178.0640  146.4390 F   0  0  0  0  0  0  0  0  0  0  0  0
  191.5330  175.6250  144.2560 C   0  0  0  0  0  2  0  0  0  0  0  0
  190.0120  178.6350  148.7760 F   0  0  0  0  0  0  0  0  0  0  0  0
  187.7900  177.6090  141.8300 N   0  0  0  0  0  0  0  0  0  0  0  0
  189.7270  176.8870  143.0390 C   0  0  0  0  0  0  0  0  0  0  0  0
  189.7810  177.0370  140.5860 N   0  0  0  0  0  2  0  0  0  0  0  0
  186.8940  177.5770  145.3840 C   0  0  0  0  0  3  0  0  0  0  0  0
  191.5740  176.9420  147.8790 C   0  0  0  0  0  2  0  0  0  0  0  0
  187.0790  177.7470  142.9740 C   0  0  0  0  0  0  0  0  0  0  0  0
  185.7390  178.1390  142.9040 C   0  0  0  0  0  3  0  0  0  0  0  0
  191.1540  176.3960  143.0000 C   0  0  0  0  0  2  0  0  0  0  0  0
  191.2430  176.5190  145.4380 C   0  0  2  0  0  3  0  0  0  0  0  0
  191.7570  175.9280  146.7410 C   0  0  0  0  0  2  0  0  0  0  0  0
  189.2520  178.8550  139.0660 C   0  0  0  0  0  1  0  0  0  0  0  0
  189.1810  177.3540  139.2960 C   0  0  1  0  0  3  0  0  0  0  0  0
  190.6410  175.5380  138.7160 O   0  0  0  0  0  1  0  0  0  0  0  0
  189.9140  176.6050  138.1810 C   0  0  1  0  0  3  0  0  0  0  0  0
  189.3880  175.6180  136.0960 O   0  0  0  0  0  0  0  0  0  0  0  0
  188.9640  176.0810  137.1440 C   0  0  0  0  0  0  0  0  0  0  0  0
  187.4890  176.1840  137.3740 C   0  0  0  0  0  2  0  0  0  0  0  0
  186.7830  176.8150  136.1850 C   0  0  0  0  0  3  0  0  0  0  0  0
  187.1460  178.2830  136.1120 C   0  0  0  0  0  1  0  0  0  0  0  0
  185.2800  176.6860  136.3400 C   0  0  0  0  0  1  0  0  0  0  0  0
  1 15  1  0  0  0  0
  1  9  1  0  0  0  0
  2  3  1  0  0  0  0
  3  7  1  1  0  0  0
  4 16  1  0  0  0  0
  4 11  1  0  0  0  0
  5  2  1  0  0  0  0
  5 15  2  0  0  0  0
  6  1  2  0  0  0  0
  7  4  2  0  0  0  0
  8 12  2  0  0  0  0
  8 13  1  0  0  0  0
 12 17  1  0  0  0  0
 13  2  2  0  0  0  0
 14  8  1  0  0  0  0
 17  5  1  0  0  0  0
 18 17  2  0  0  0  0
 18  6  1  0  0  0  0
 19 13  1  0  0  0  0
 19 10  1  0  0  0  0
 20 10  1  6  0  0  0
 20  3  1  0  0  0  0
 20 21  1  0  0  0  0
 21 16  1  0  0  0  0
 23 22  1  6  0  0  0
 23 14  1  0  0  0  0
 25 24  1  1  0  0  0
 25 23  1  0  0  0  0
 26 27  2  0  0  0  0
 27 28  1  0  0  0  0
 27 25  1  0  0  0  0
 29 31  1  0  0  0  0
 29 28  1  0  0  0  0
 30 29  1  0  0  0  0
M  END
>  <MODEL>
2

>  <REMARK>
 VINA RESULT:      -9.5      1.213      2.332
  Name = 
  5 active torsions:
  status: ('A' for Active; 'I' for Inactive)
    1  A    between atoms: C_1  and  C_24
    2  A    between atoms: C_9  and  C_22
    3  A    between atoms: C_9  and  N_23
    4  A    between atoms: C_19  and  C_22
    5  A    between atoms: C_19  and  C_24
                            x       y       z     vdW  Elec       q    Type
                         _______ _______ _______ _____ _____    ______ ____

>  <TORSDO>
F 5

$$$$
=
 OpenBabel10272400313D

 31 34  0  0  1  0  0  0  0  0999 V2000
  184.8430  178.4050  144.7070 C   0  0  0  0  0  0  0  0  0  0  0  0
  188.2820  177.5120  143.5220 C   0  0  0  0  0  0  0  0  0  0  0  0
  188.9840  177.0150  144.7860 C   0  0  2  0  0  3  0  0  0  0  0  0
  189.6140  177.8130  147.0610 C   0  0  0  0  0  0  0  0  0  0  0  0
  186.9300  177.9420  143.5400 C   0  0  0  0  0  0  0  0  0  0  0  0
  184.2550  178.8170  143.5100 C   0  0  0  0  0  3  0  0  0  0  0  0
  188.7980  177.8970  145.9950 C   0  0  0  0  0  3  0  0  0  0  0  0
  188.2810  177.8220  141.0990 C   0  0  0  0  0  0  0  0  0  0  0  0
  184.1270  178.4300  145.8570 F   0  0  0  0  0  0  0  0  0  0  0  0
  190.7170  175.9690  143.3310 C   0  0  0  0  0  2  0  0  0  0  0  0
  189.3820  178.6220  148.1260 F   0  0  0  0  0  0  0  0  0  0  0  0
  187.0030  178.2810  141.1640 N   0  0  0  0  0  0  0  0  0  0  0  0
  188.9340  177.3930  142.2660 C   0  0  0  0  0  0  0  0  0  0  0  0
  188.9500  177.7550  139.8350 N   0  0  0  0  0  2  0  0  0  0  0  0
  186.1700  177.9690  144.7210 C   0  0  0  0  0  3  0  0  0  0  0  0
  190.8680  176.9630  147.0530 C   0  0  0  0  0  2  0  0  0  0  0  0
  186.3170  178.3430  142.3310 C   0  0  0  0  0  0  0  0  0  0  0  0
  184.9900  178.7840  142.3240 C   0  0  0  0  0  3  0  0  0  0  0  0
  190.3430  176.8590  142.1550 C   0  0  0  0  0  2  0  0  0  0  0  0
  190.4790  176.7660  144.5920 C   0  0  2  0  0  3  0  0  0  0  0  0
  190.9960  176.0460  145.8280 C   0  0  0  0  0  2  0  0  0  0  0  0
  189.1880  179.3080  137.9840 C   0  0  0  0  0  1  0  0  0  0  0  0
  188.3380  178.2040  138.5900 C   0  0  1  0  0  3  0  0  0  0  0  0
  188.8580  175.9040  138.1360 O   0  0  0  0  0  1  0  0  0  0  0  0
  188.2120  177.0290  137.6170 C   0  0  1  0  0  3  0  0  0  0  0  0
  186.4300  175.5190  137.2390 O   0  0  0  0  0  0  0  0  0  0  0  0
  186.7770  176.6870  137.3410 C   0  0  0  0  0  0  0  0  0  0  0  0
  185.7830  177.7840  137.1280 C   0  0  0  0  0  2  0  0  0  0  0  0
  184.6110  177.6670  138.0900 C   0  0  0  0  0  3  0  0  0  0  0  0
  183.3670  177.2910  137.3140 C   0  0  0  0  0  1  0  0  0  0  0  0
  184.3750  178.9920  138.7890 C   0  0  0  0  0  1  0  0  0  0  0  0
  1 15  1  0  0  0  0
  1  9  1  0  0  0  0
  2  5  1  0  0  0  0
  2  3  1  0  0  0  0
  3  7  1  1  0  0  0
  4 11  1  0  0  0  0
  5 15  2  0  0  0  0
  6  1  2  0  0  0  0
  7  4  2  0  0  0  0
  8 12  2  0  0  0  0
  8 13  1  0  0  0  0
 12 17  1  0  0  0  0
 13  2  2  0  0  0  0
 14  8  1  0  0  0  0
 16  4  1  0  0  0  0
 17  5  1  0  0  0  0
 18 17  2  0  0  0  0
 18  6  1  0  0  0  0
 19 13  1  0  0  0  0
 19 10  1  0  0  0  0
 20 10  1  6  0  0  0
 20  3  1  0  0  0  0
 20 21  1  0  0  0  0
 21 16  1  0  0  0  0
 23 22  1  6  0  0  0
 23 14  1  0  0  0  0
 25 24  1  1  0  0  0
 25 23  1  0  0  0  0
 26 27  2  0  0  0  0
 27 25  1  0  0  0  0
 28 27  1  0  0  0  0
 28 29  1  0  0  0  0
 29 31  1  0  0  0  0
 30 29  1  0  0  0  0
M  END
>  <MODEL>
3

>  <REMARK>
 VINA RESULT:      -9.4      1.668      3.023
  Name = 
  5 active torsions:
  status: ('A' for Active; 'I' for Inactive)
    1  A    between atoms: C_1  and  C_24
    2  A    between atoms: C_9  and  C_22
    3  A    between atoms: C_9  and  N_23
    4  A    between atoms: C_19  and  C_22
    5  A    between atoms: C_19  and  C_24
                            x       y       z     vdW  Elec       q    Type
                         _______ _______ _______ _____ _____    ______ ____

>  <TORSDO>
F 5

$$$$
=
 OpenBabel10272400313D

 31 34  0  0  1  0  0  0  0  0999 V2000
  182.7610  178.6890  143.2690 C   0  0  0  0  0  0  0  0  0  0  0  0
  186.4520  178.0520  143.2840 C   0  0  0  0  0  0  0  0  0  0  0  0
  186.7610  177.7360  144.7470 C   0  0  2  0  0  3  0  0  0  0  0  0
  186.5950  178.7830  147.0030 C   0  0  0  0  0  0  0  0  0  0  0  0
  185.1340  178.3430  142.8460 C   0  0  0  0  0  0  0  0  0  0  0  0
  182.5460  178.9370  141.9130 C   0  0  0  0  0  3  0  0  0  0  0  0
  186.1470  178.6940  145.7390 C   0  0  0  0  0  3  0  0  0  0  0  0
  187.1800  178.1540  140.9550 C   0  0  0  0  0  0  0  0  0  0  0  0
  181.7240  178.7380  144.1400 F   0  0  0  0  0  0  0  0  0  0  0  0
  188.9280  176.7520  144.0090 C   0  0  0  0  0  2  0  0  0  0  0  0
  185.9890  179.6500  147.8520 F   0  0  0  0  0  0  0  0  0  0  0  0
  185.9170  178.4860  140.5800 N   0  0  0  0  0  0  0  0  0  0  0  0
  187.4680  177.8940  142.3040 C   0  0  0  0  0  0  0  0  0  0  0  0
  188.2120  178.0490  139.9670 N   0  0  0  0  0  2  0  0  0  0  0  0
  184.0460  178.3920  143.7310 C   0  0  0  0  0  3  0  0  0  0  0  0
  187.8470  178.0660  147.4680 C   0  0  0  0  0  2  0  0  0  0  0  0
  184.9000  178.5760  141.4710 C   0  0  0  0  0  0  0  0  0  0  0  0
  183.6140  178.8780  141.0150 C   0  0  0  0  0  3  0  0  0  0  0  0
  188.8760  177.4980  142.6830 C   0  0  0  0  0  2  0  0  0  0  0  0
  188.2560  177.6240  145.0430 C   0  0  2  0  0  3  0  0  0  0  0  0
  188.4130  177.0670  146.4490 C   0  0  0  0  0  2  0  0  0  0  0  0
  189.1900  179.0650  137.9900 C   0  0  0  0  0  1  0  0  0  0  0  0
  187.9860  178.3270  138.5540 C   0  0  1  0  0  3  0  0  0  0  0  0
  186.3900  176.8240  137.5750 O   0  0  0  0  0  1  0  0  0  0  0  0
  187.7560  177.0190  137.7940 C   0  0  1  0  0  3  0  0  0  0  0  0
  187.9720  177.5490  135.4980 O   0  0  0  0  0  0  0  0  0  0  0  0
  188.4710  177.0080  136.4740 C   0  0  0  0  0  0  0  0  0  0  0  0
  189.7700  176.2780  136.3430 C   0  0  0  0  0  2  0  0  0  0  0  0
  190.0080  175.3490  137.5220 C   0  0  0  0  0  3  0  0  0  0  0  0
  191.2950  175.7420  138.2160 C   0  0  0  0  0  1  0  0  0  0  0  0
  190.1250  173.9150  137.0420 C   0  0  0  0  0  1  0  0  0  0  0  0
  1 15  1  0  0  0  0
  1  9  1  0  0  0  0
  2  3  1  0  0  0  0
  3 20  1  0  0  0  0
  3  7  1  1  0  0  0
  4 16  1  0  0  0  0
  4 11  1  0  0  0  0
  5  2  1  0  0  0  0
  5 15  2  0  0  0  0
  6  1  2  0  0  0  0
  7  4  2  0  0  0  0
  8 13  1  0  0  0  0
 12  8  2  0  0  0  0
 12 17  1  0  0  0  0
 13 19  1  0  0  0  0
 13  2  2  0  0  0  0
 14  8  1  0  0  0  0
 17  5  1  0  0  0  0
 18 17  2  0  0  0  0
 18  6  1  0  0  0  0
 19 10  1  0  0  0  0
 20 10  1  6  0  0  0
 20 21  1  0  0  0  0
 21 16  1  0  0  0  0
 23 22  1  6  0  0  0
 23 14  1  0  0  0  0
 25 24  1  6  0  0  0
 25 23  1  0  0  0  0
 26 27  2  0  0  0  0
 27 25  1  0  0  0  0
 28 27  1  0  0  0  0
 28 29  1  0  0  0  0
 29 30  1  0  0  0  0
 31 29  1  0  0  0  0
M  END
>  <MODEL>
4

>  <REMARK>
 VINA RESULT:      -8.9      1.740      2.667
  Name = 
  5 active torsions:
  status: ('A' for Active; 'I' for Inactive)
    1  A    between atoms: C_1  and  C_24
    2  A    between atoms: C_9  and  C_22
    3  A    between atoms: C_9  and  N_23
    4  A    between atoms: C_19  and  C_22
    5  A    between atoms: C_19  and  C_24
                            x       y       z     vdW  Elec       q    Type
                         _______ _______ _______ _____ _____    ______ ____

>  <TORSDO>
F 5

$$$$
=
 OpenBabel10272400313D

 31 34  0  0  1  0  0  0  0  0999 V2000
  190.6870  177.6320  142.1880 C   0  0  0  0  0  0  0  0  0  0  0  0
  187.4230  177.9670  143.9930 C   0  0  0  0  0  0  0  0  0  0  0  0
  187.8310  178.1140  145.4590 C   0  0  2  0  0  3  0  0  0  0  0  0
  189.0640  176.8700  147.2310 C   0  0  0  0  0  0  0  0  0  0  0  0
  188.3860  177.8260  142.9610 C   0  0  0  0  0  0  0  0  0  0  0  0
  190.2450  177.5350  140.8680 C   0  0  0  0  0  3  0  0  0  0  0  0
  188.8630  177.1160  145.9250 C   0  0  0  0  0  3  0  0  0  0  0  0
  185.6870  178.0340  142.2760 C   0  0  0  0  0  0  0  0  0  0  0  0
  192.0130  177.5820  142.4630 F   0  0  0  0  0  0  0  0  0  0  0  0
  185.5470  178.9890  145.9390 C   0  0  0  0  0  2  0  0  0  0  0  0
  190.0210  175.9750  147.5880 F   0  0  0  0  0  0  0  0  0  0  0  0
  186.6340  177.8420  141.3200 N   0  0  0  0  0  0  0  0  0  0  0  0
  186.0610  178.1380  143.6250 C   0  0  0  0  0  0  0  0  0  0  0  0
  184.3100  178.1520  141.9010 N   0  0  0  0  0  2  0  0  0  0  0  0
  189.7640  177.7790  143.2260 C   0  0  0  0  0  3  0  0  0  0  0  0
  188.1610  177.4360  148.3090 C   0  0  0  0  0  2  0  0  0  0  0  0
  187.9520  177.7470  141.6180 C   0  0  0  0  0  0  0  0  0  0  0  0
  188.8790  177.5950  140.5830 C   0  0  0  0  0  3  0  0  0  0  0  0
  184.9880  178.3820  144.6600 C   0  0  0  0  0  2  0  0  0  0  0  0
  186.6480  178.0770  146.4260 C   0  0  2  0  0  3  0  0  0  0  0  0
  187.1580  178.4810  147.8010 C   0  0  0  0  0  2  0  0  0  0  0  0
  182.5830  177.1920  140.4890 C   0  0  0  0  0  1  0  0  0  0  0  0
  183.8500  178.0310  140.5230 C   0  0  1  0  0  3  0  0  0  0  0  0
  184.7910  179.9950  139.5120 O   0  0  0  0  0  1  0  0  0  0  0  0
  183.5900  179.4200  139.9360 C   0  0  1  0  0  3  0  0  0  0  0  0
  182.9220  178.7260  137.7740 O   0  0  0  0  0  0  0  0  0  0  0  0
  182.6380  179.3650  138.7770 C   0  0  0  0  0  0  0  0  0  0  0  0
  181.3630  180.1470  138.8300 C   0  0  0  0  0  2  0  0  0  0  0  0
  181.1660  180.9740  137.5690 C   0  0  0  0  0  3  0  0  0  0  0  0
  180.8950  182.4120  137.9540 C   0  0  0  0  0  1  0  0  0  0  0  0
  179.9860  180.4440  136.7770 C   0  0  0  0  0  1  0  0  0  0  0  0
  1  9  1  0  0  0  0
  1 15  1  0  0  0  0
  2  3  1  0  0  0  0
  3  7  1  1  0  0  0
  3 20  1  0  0  0  0
  4 11  1  0  0  0  0
  4 16  1  0  0  0  0
  5 15  2  0  0  0  0
  5  2  1  0  0  0  0
  6  1  2  0  0  0  0
  7  4  2  0  0  0  0
  8 13  1  0  0  0  0
 12 17  1  0  0  0  0
 12  8  2  0  0  0  0
 13  2  2  0  0  0  0
 13 19  1  0  0  0  0
 14  8  1  0  0  0  0
 17  5  1  0  0  0  0
 18  6  1  0  0  0  0
 18 17  2  0  0  0  0
 19 10  1  0  0  0  0
 20 10  1  6  0  0  0
 20 21  1  0  0  0  0
 21 16  1  0  0  0  0
 23 22  1  1  0  0  0
 23 14  1  0  0  0  0
 25 24  1  6  0  0  0
 25 23  1  0  0  0  0
 26 27  2  0  0  0  0
 27 28  1  0  0  0  0
 27 25  1  0  0  0  0
 29 30  1  0  0  0  0
 29 28  1  0  0  0  0
 31 29  1  0  0  0  0
M  END
>  <MODEL>
5

>  <REMARK>
 VINA RESULT:      -8.9      3.657      6.358
  Name = 
  5 active torsions:
  status: ('A' for Active; 'I' for Inactive)
    1  A    between atoms: C_1  and  C_24
    2  A    between atoms: C_9  and  C_22
    3  A    between atoms: C_9  and  N_23
    4  A    between atoms: C_19  and  C_22
    5  A    between atoms: C_19  and  C_24
                            x       y       z     vdW  Elec       q    Type
                         _______ _______ _______ _____ _____    ______ ____

>  <TORSDO>
F 5

$$$$
=
 OpenBabel10272400313D

 31 34  0  0  1  0  0  0  0  0999 V2000
  187.4680  178.1980  136.8050 C   0  0  0  0  0  0  0  0  0  0  0  0
  186.2590  178.4150  140.3430 C   0  0  0  0  0  0  0  0  0  0  0  0
  184.7380  178.4750  140.2040 C   0  0  2  0  0  3  0  0  0  0  0  0
  182.9700  179.8900  139.1620 C   0  0  0  0  0  0  0  0  0  0  0  0
  187.1080  178.3110  139.2110 C   0  0  0  0  0  0  0  0  0  0  0  0
  188.8470  178.1140  137.0060 C   0  0  0  0  0  3  0  0  0  0  0  0
  184.2420  179.4520  139.1660 C   0  0  0  0  0  3  0  0  0  0  0  0
  188.2360  178.2080  141.7630 C   0  0  0  0  0  0  0  0  0  0  0  0
  186.9660  178.1880  135.5460 F   0  0  0  0  0  0  0  0  0  0  0  0
  184.5610  177.8710  142.6160 C   0  0  0  0  0  2  0  0  0  0  0  0
  182.5800  180.7530  138.1900 F   0  0  0  0  0  0  0  0  0  0  0  0
  189.0210  178.1680  140.6540 N   0  0  0  0  0  0  0  0  0  0  0  0
  186.8410  178.2940  141.6330 C   0  0  0  0  0  0  0  0  0  0  0  0
  188.8340  178.1390  143.0620 N   0  0  0  0  0  2  0  0  0  0  0  0
  186.6060  178.2930  137.8990 C   0  0  0  0  0  3  0  0  0  0  0  0
  182.0050  179.5780  140.2880 C   0  0  0  0  0  2  0  0  0  0  0  0
  188.5050  178.2060  139.4020 C   0  0  0  0  0  0  0  0  0  0  0  0
  189.3640  178.1160  138.3030 C   0  0  0  0  0  3  0  0  0  0  0  0
  185.9950  178.3050  142.8850 C   0  0  0  0  0  2  0  0  0  0  0  0
  184.0190  178.7610  141.5220 C   0  0  2  0  0  3  0  0  0  0  0  0
  182.5300  178.5460  141.2960 C   0  0  0  0  0  2  0  0  0  0  0  0
  190.7260  179.2840  144.0650 C   0  0  0  0  0  1  0  0  0  0  0  0
  190.2760  178.0710  143.2680 C   0  0  1  0  0  3  0  0  0  0  0  0
  191.8370  176.2630  143.5100 O   0  0  0  0  0  1  0  0  0  0  0  0
  190.6370  176.7800  144.0060 C   0  0  1  0  0  3  0  0  0  0  0  0
  191.8340  177.3860  145.9550 O   0  0  0  0  0  0  0  0  0  0  0  0
  190.7730  177.0030  145.4840 C   0  0  0  0  0  0  0  0  0  0  0  0
  189.6210  176.6960  146.3870 C   0  0  0  0  0  2  0  0  0  0  0  0
  188.8410  177.9520  146.7420 C   0  0  0  0  0  3  0  0  0  0  0  0
  188.9090  178.1750  148.2380 C   0  0  0  0  0  1  0  0  0  0  0  0
  187.3890  177.7990  146.3310 C   0  0  0  0  0  1  0  0  0  0  0  0
  1  6  2  0  0  0  0
  1 15  1  0  0  0  0
  2 13  2  0  0  0  0
  3  7  1  6  0  0  0
  3  2  1  0  0  0  0
  3 20  1  0  0  0  0
  4  7  2  0  0  0  0
  4 16  1  0  0  0  0
  5 17  1  0  0  0  0
  5  2  1  0  0  0  0
  6 18  1  0  0  0  0
  8 14  1  0  0  0  0
  9  1  1  0  0  0  0
 10 19  1  0  0  0  0
 11  4  1  0  0  0  0
 12  8  2  0  0  0  0
 13  8  1  0  0  0  0
 13 19  1  0  0  0  0
 14 23  1  0  0  0  0
 15  5  2  0  0  0  0
 16 21  1  0  0  0  0
 17 12  1  0  0  0  0
 18 17  2  0  0  0  0
 20 21  1  6  0  0  0
 20 10  1  0  0  0  0
 23 25  1  0  0  0  0
 23 22  1  1  0  0  0
 25 24  1  6  0  0  0
 25 27  1  0  0  0  0
 27 26  2  0  0  0  0
 27 28  1  0  0  0  0
 28 29  1  0  0  0  0
 29 30  1  0  0  0  0
 31 29  1  0  0  0  0
M  END
>  <MODEL>
6

>  <REMARK>
 VINA RESULT:      -8.6      4.005      8.035
  Name = 
  5 active torsions:
  status: ('A' for Active; 'I' for Inactive)
    1  A    between atoms: C_1  and  C_24
    2  A    between atoms: C_9  and  C_22
    3  A    between atoms: C_9  and  N_23
    4  A    between atoms: C_19  and  C_22
    5  A    between atoms: C_19  and  C_24
                            x       y       z     vdW  Elec       q    Type
                         _______ _______ _______ _____ _____    ______ ____

>  <TORSDO>
F 5

$$$$
=
 OpenBabel10272400313D

 31 34  0  0  1  0  0  0  0  0999 V2000
  185.0000  178.9190  142.5600 C   0  0  0  0  0  0  0  0  0  0  0  0
  188.1930  177.8400  140.9270 C   0  0  0  0  0  0  0  0  0  0  0  0
  188.0410  178.3160  139.4820 C   0  0  2  0  0  3  0  0  0  0  0  0
  186.5410  178.0050  137.5170 C   0  0  0  0  0  0  0  0  0  0  0  0
  187.1840  178.0700  141.8980 C   0  0  0  0  0  0  0  0  0  0  0  0
  185.2180  178.4850  143.8690 C   0  0  0  0  0  3  0  0  0  0  0  0
  186.7110  177.9880  138.8500 C   0  0  0  0  0  3  0  0  0  0  0  0
  189.5860  176.8900  142.6940 C   0  0  0  0  0  0  0  0  0  0  0  0
  183.8380  179.5370  142.2370 F   0  0  0  0  0  0  0  0  0  0  0  0
  190.5020  178.0380  139.2030 C   0  0  0  0  0  2  0  0  0  0  0  0
  185.3150  177.7190  137.0100 F   0  0  0  0  0  0  0  0  0  0  0  0
  188.5750  177.0750  143.5830 N   0  0  0  0  0  0  0  0  0  0  0  0
  189.4330  177.3010  141.3600 C   0  0  0  0  0  0  0  0  0  0  0  0
  190.8150  176.2960  143.1270 N   0  0  0  0  0  2  0  0  0  0  0  0
  185.9770  178.7150  141.5830 C   0  0  0  0  0  3  0  0  0  0  0  0
  187.7010  178.1800  136.5570 C   0  0  0  0  0  2  0  0  0  0  0  0
  187.4010  177.6530  143.2310 C   0  0  0  0  0  0  0  0  0  0  0  0
  186.4180  177.8550  144.2040 C   0  0  0  0  0  3  0  0  0  0  0  0
  190.5870  177.1080  140.4040 C   0  0  0  0  0  2  0  0  0  0  0  0
  189.1530  177.8200  138.5590 C   0  0  2  0  0  3  0  0  0  0  0  0
  189.0250  178.5590  137.2360 C   0  0  0  0  0  2  0  0  0  0  0  0
  191.9820  174.6410  144.4670 C   0  0  0  0  0  1  0  0  0  0  0  0
  191.0320  175.8270  144.4900 C   0  0  1  0  0  3  0  0  0  0  0  0
  191.2040  178.1960  144.8390 O   0  0  0  0  0  1  0  0  0  0  0  0
  191.6070  176.9580  145.3460 C   0  0  1  0  0  3  0  0  0  0  0  0
  191.9930  176.9150  147.6800 O   0  0  0  0  0  0  0  0  0  0  0  0
  191.1710  176.8490  146.7780 C   0  0  0  0  0  0  0  0  0  0  0  0
  189.7300  176.5970  147.0950 C   0  0  0  0  0  2  0  0  0  0  0  0
  188.9790  177.8960  147.3380 C   0  0  0  0  0  3  0  0  0  0  0  0
  189.3130  178.4140  148.7210 C   0  0  0  0  0  1  0  0  0  0  0  0
  187.4840  177.6600  147.2470 C   0  0  0  0  0  1  0  0  0  0  0  0
  1  6  1  0  0  0  0
  2 13  2  0  0  0  0
  2  5  1  0  0  0  0
  3  7  1  6  0  0  0
  3  2  1  0  0  0  0
  4  7  2  0  0  0  0
  5 17  2  0  0  0  0
  6 18  2  0  0  0  0
  8 14  1  0  0  0  0
  8 12  2  0  0  0  0
  9  1  1  0  0  0  0
 10 19  1  0  0  0  0
 11  4  1  0  0  0  0
 13  8  1  0  0  0  0
 14 23  1  0  0  0  0
 15  5  1  0  0  0  0
 15  1  2  0  0  0  0
 16 21  1  0  0  0  0
 16  4  1  0  0  0  0
 17 12  1  0  0  0  0
 17 18  1  0  0  0  0
 19 13  1  0  0  0  0
 20 21  1  6  0  0  0
 20 10  1  0  0  0  0
 20  3  1  0  0  0  0
 23 22  1  6  0  0  0
 23 25  1  0  0  0  0
 25 24  1  6  0  0  0
 25 27  1  0  0  0  0
 27 28  1  0  0  0  0
 27 26  2  0  0  0  0
 28 29  1  0  0  0  0
 29 30  1  0  0  0  0
 31 29  1  0  0  0  0
M  END
>  <MODEL>
7

>  <REMARK>
 VINA RESULT:      -8.5      3.520      7.338
  Name = 
  5 active torsions:
  status: ('A' for Active; 'I' for Inactive)
    1  A    between atoms: C_1  and  C_24
    2  A    between atoms: C_9  and  C_22
    3  A    between atoms: C_9  and  N_23
    4  A    between atoms: C_19  and  C_22
    5  A    between atoms: C_19  and  C_24
                            x       y       z     vdW  Elec       q    Type
                         _______ _______ _______ _____ _____    ______ ____

>  <TORSDO>
F 5

$$$$
=
 OpenBabel10272400313D

 31 34  0  0  1  0  0  0  0  0999 V2000
  190.1240  177.3140  145.9940 C   0  0  0  0  0  0  0  0  0  0  0  0
  187.6050  177.9930  143.3070 C   0  0  0  0  0  0  0  0  0  0  0  0
  186.4480  178.6580  144.0530 C   0  0  2  0  0  3  0  0  0  0  0  0
  184.8440  178.1840  145.9010 C   0  0  0  0  0  0  0  0  0  0  0  0
  188.7870  177.5840  143.9770 C   0  0  0  0  0  0  0  0  0  0  0  0
  191.1550  176.7430  145.2460 C   0  0  0  0  0  3  0  0  0  0  0  0
  186.0380  177.9580  145.3250 C   0  0  0  0  0  3  0  0  0  0  0  0
  188.6510  177.3420  141.1980 C   0  0  0  0  0  0  0  0  0  0  0  0
  190.2620  177.4610  147.3340 F   0  0  0  0  0  0  0  0  0  0  0  0
  185.5860  179.4680  141.8590 C   0  0  0  0  0  2  0  0  0  0  0  0
  184.5410  177.5380  147.0550 F   0  0  0  0  0  0  0  0  0  0  0  0
  189.7440  176.9110  141.8800 N   0  0  0  0  0  0  0  0  0  0  0  0
  187.5770  177.9260  141.8880 C   0  0  0  0  0  0  0  0  0  0  0  0
  188.6080  177.2220  139.7720 N   0  0  0  0  0  2  0  0  0  0  0  0
  188.9510  177.7340  145.3630 C   0  0  0  0  0  3  0  0  0  0  0  0
  183.7670  179.0110  145.2280 C   0  0  0  0  0  2  0  0  0  0  0  0
  189.8460  177.0230  143.2260 C   0  0  0  0  0  0  0  0  0  0  0  0
  191.0160  176.5990  143.8640 C   0  0  0  0  0  3  0  0  0  0  0  0
  186.3900  178.4230  141.0980 C   0  0  0  0  0  2  0  0  0  0  0  0
  185.2040  178.8610  143.1890 C   0  0  2  0  0  3  0  0  0  0  0  0
  184.2380  179.7430  143.9630 C   0  0  0  0  0  2  0  0  0  0  0  0
  189.1070  175.4650  138.1720 C   0  0  0  0  0  1  0  0  0  0  0  0
  189.6780  176.6070  138.9960 C   0  0  1  0  0  3  0  0  0  0  0  0
  191.1790  177.0270  137.1690 O   0  0  0  0  0  1  0  0  0  0  0  0
  190.3300  177.6520  138.0860 C   0  0  1  0  0  3  0  0  0  0  0  0
  188.9610  179.5530  137.7500 O   0  0  0  0  0  0  0  0  0  0  0  0
  189.3060  178.4550  137.3380 C   0  0  0  0  0  0  0  0  0  0  0  0
  188.6610  177.8780  136.1170 C   0  0  0  0  0  2  0  0  0  0  0  0
  187.2100  178.3150  135.9950 C   0  0  0  0  0  3  0  0  0  0  0  0
  186.3640  177.5040  136.9530 C   0  0  0  0  0  1  0  0  0  0  0  0
  186.7130  178.0850  134.5810 C   0  0  0  0  0  1  0  0  0  0  0  0
  1  9  1  0  0  0  0
  2  5  1  0  0  0  0
  2  3  1  0  0  0  0
  3  7  1  1  0  0  0
  4 11  1  0  0  0  0
  5 15  2  0  0  0  0
  6  1  2  0  0  0  0
  7  4  2  0  0  0  0
  8 12  2  0  0  0  0
  8 13  1  0  0  0  0
 12 17  1  0  0  0  0
 13  2  2  0  0  0  0
 14  8  1  0  0  0  0
 15  1  1  0  0  0  0
 16  4  1  0  0  0  0
 17 18  2  0  0  0  0
 17  5  1  0  0  0  0
 18  6  1  0  0  0  0
 19 10  1  0  0  0  0
 19 13  1  0  0  0  0
 20 10  1  6  0  0  0
 20 21  1  0  0  0  0
 20  3  1  0  0  0  0
 21 16  1  0  0  0  0
 23 22  1  6  0  0  0
 23 14  1  0  0  0  0
 25 24  1  6  0  0  0
 25 23  1  0  0  0  0
 27 26  2  0  0  0  0
 27 25  1  0  0  0  0
 28 27  1  0  0  0  0
 29 28  1  0  0  0  0
 29 30  1  0  0  0  0
 31 29  1  0  0  0  0
M  END
>  <MODEL>
8

>  <REMARK>
 VINA RESULT:      -8.5      1.639      4.812
  Name = 
  5 active torsions:
  status: ('A' for Active; 'I' for Inactive)
    1  A    between atoms: C_1  and  C_24
    2  A    between atoms: C_9  and  C_22
    3  A    between atoms: C_9  and  N_23
    4  A    between atoms: C_19  and  C_22
    5  A    between atoms: C_19  and  C_24
                            x       y       z     vdW  Elec       q    Type
                         _______ _______ _______ _____ _____    ______ ____

>  <TORSDO>
F 5

$$$$
=
 OpenBabel10272400313D

 31 34  0  0  1  0  0  0  0  0999 V2000
  190.7980  177.4290  142.3030 C   0  0  0  0  0  0  0  0  0  0  0  0
  187.6020  177.8780  144.2030 C   0  0  0  0  0  0  0  0  0  0  0  0
  188.0630  178.0840  145.6460 C   0  0  2  0  0  3  0  0  0  0  0  0
  189.3460  176.9050  147.4280 C   0  0  0  0  0  0  0  0  0  0  0  0
  188.5270  177.6820  143.1460 C   0  0  0  0  0  0  0  0  0  0  0  0
  190.3090  177.2790  141.0040 C   0  0  0  0  0  3  0  0  0  0  0  0
  189.1010  177.0970  146.1200 C   0  0  0  0  0  3  0  0  0  0  0  0
  185.8080  177.8880  142.5450 C   0  0  0  0  0  0  0  0  0  0  0  0
  192.1320  177.3770  142.5340 F   0  0  0  0  0  0  0  0  0  0  0  0
  185.8050  179.0030  146.1650 C   0  0  0  0  0  2  0  0  0  0  0  0
  190.3060  176.0170  147.7900 F   0  0  0  0  0  0  0  0  0  0  0  0
  186.7190  177.6440  141.5670 N   0  0  0  0  0  0  0  0  0  0  0  0
  186.2300  178.0470  143.8750 C   0  0  0  0  0  0  0  0  0  0  0  0
  184.4190  178.0040  142.2140 N   0  0  0  0  0  2  0  0  0  0  0  0
  189.9130  177.6320  143.3650 C   0  0  0  0  0  3  0  0  0  0  0  0
  188.4860  177.5280  148.5100 C   0  0  0  0  0  2  0  0  0  0  0  0
  188.0450  177.5490  141.8230 C   0  0  0  0  0  0  0  0  0  0  0  0
  188.9350  177.3410  140.7650 C   0  0  0  0  0  3  0  0  0  0  0  0
  185.1960  178.3470  144.9350 C   0  0  0  0  0  2  0  0  0  0  0  0
  186.9140  178.1020  146.6540 C   0  0  2  0  0  3  0  0  0  0  0  0
  187.4750  178.5600  147.9910 C   0  0  0  0  0  2  0  0  0  0  0  0
  182.4020  177.6560  140.9080 C   0  0  0  0  0  1  0  0  0  0  0  0
  183.9110  177.8280  140.8590 C   0  0  1  0  0  3  0  0  0  0  0  0
  185.2080  179.8400  140.6760 O   0  0  0  0  0  1  0  0  0  0  0  0
  184.2850  179.0380  140.0000 C   0  0  1  0  0  3  0  0  0  0  0  0
  186.0500  178.8260  138.4370 O   0  0  0  0  0  0  0  0  0  0  0  0
  184.8690  178.6240  138.6800 C   0  0  0  0  0  0  0  0  0  0  0  0
  183.9830  178.0180  137.6380 C   0  0  0  0  0  2  0  0  0  0  0  0
  184.4790  176.6430  137.2180 C   0  0  0  0  0  3  0  0  0  0  0  0
  184.3240  176.4950  135.7190 C   0  0  0  0  0  1  0  0  0  0  0  0
  183.6690  175.5630  137.9070 C   0  0  0  0  0  1  0  0  0  0  0  0
  1  9  1  0  0  0  0
  1 15  1  0  0  0  0
  2  3  1  0  0  0  0
  3  7  1  1  0  0  0
  3 20  1  0  0  0  0
  4 11  1  0  0  0  0
  4 16  1  0  0  0  0
  5 15  2  0  0  0  0
  5  2  1  0  0  0  0
  6  1  2  0  0  0  0
  7  4  2  0  0  0  0
  8 13  1  0  0  0  0
 12 17  1  0  0  0  0
 12  8  2  0  0  0  0
 13  2  2  0  0  0  0
 13 19  1  0  0  0  0
 14  8  1  0  0  0  0
 17  5  1  0  0  0  0
 18  6  1  0  0  0  0
 18 17  2  0  0  0  0
 19 10  1  0  0  0  0
 20 10  1  6  0  0  0
 20 21  1  0  0  0  0
 21 16  1  0  0  0  0
 23 22  1  1  0  0  0
 23 14  1  0  0  0  0
 25 24  1  1  0  0  0
 25 23  1  0  0  0  0
 26 27  2  0  0  0  0
 27 25  1  0  0  0  0
 28 27  1  0  0  0  0
 29 28  1  0  0  0  0
 29 31  1  0  0  0  0
 30 29  1  0  0  0  0
M  END
>  <MODEL>
9

>  <REMARK>
 VINA RESULT:      -8.4      2.753      5.180
  Name = 
  5 active torsions:
  status: ('A' for Active; 'I' for Inactive)
    1  A    between atoms: C_1  and  C_24
    2  A    between atoms: C_9  and  C_22
    3  A    between atoms: C_9  and  N_23
    4  A    between atoms: C_19  and  C_22
    5  A    between atoms: C_19  and  C_24
                            x       y       z     vdW  Elec       q    Type
                         _______ _______ _______ _____ _____    ______ ____

>  <TORSDO>
F 5

$$$$
