=
 OpenBabel10272401003D

 27 31  0  0  1  0  0  0  0  0999 V2000
  189.1730  177.8600  138.1500 C   0  0  1  0  0  3  0  0  0  0  0  0
  190.7190  177.6000  139.9080 N   0  0  0  0  0  0  0  0  0  0  0  0
  188.3760  177.4890  139.4060 C   0  0  1  0  0  3  0  0  0  0  0  0
  190.2340  177.2140  144.0060 C   0  0  0  0  0  3  0  0  0  0  0  0
  188.8040  176.9130  145.9610 N   0  0  0  0  0  1  0  0  0  0  0  0
  191.9280  177.6630  140.7220 C   0  0  0  0  0  2  0  0  0  0  0  0
  187.9810  177.2380  142.3490 C   0  0  0  0  0  3  0  0  0  0  0  0
  185.2310  179.3200  139.0950 O   0  0  0  0  0  0  0  0  0  0  0  0
  187.8340  177.0830  143.7290 C   0  0  0  0  0  3  0  0  0  0  0  0
  185.7980  177.2690  138.0120 C   0  0  0  0  0  2  0  0  0  0  0  0
  189.4230  177.5310  140.4650 C   0  0  0  0  0  0  0  0  0  0  0  0
  190.6640  177.6040  138.4580 C   0  0  1  0  0  3  0  0  0  0  0  0
  188.9580  177.0720  144.5560 C   0  0  0  0  0  0  0  0  0  0  0  0
  190.3990  177.3710  142.6260 C   0  0  0  0  0  0  0  0  0  0  0  0
  188.6090  177.2460  136.8740 C   0  0  0  0  0  2  0  0  0  0  0  0
  189.2570  177.3880  141.7850 C   0  0  0  0  0  0  0  0  0  0  0  0
  186.0870  178.4130  138.9340 C   0  0  0  0  0  0  0  0  0  0  0  0
  191.6070  177.4900  142.1440 N   0  0  0  0  0  0  0  0  0  0  0  0
  185.9290  177.6440  136.5370 C   0  0  0  0  0  2  0  0  0  0  0  0
  187.5050  178.4660  136.0930 S   0  0  0  0  0  0  0  0  0  0  0  0
  187.3330  178.4800  139.6330 N   0  0  0  0  0  2  0  0  0  0  0  0
  192.1790  173.8990  136.8670 C   0  0  0  0  0  3  0  0  0  0  0  0
  191.1780  176.2980  137.9120 C   0  0  0  0  0  0  0  0  0  0  0  0
  192.5030  176.2220  137.4680 C   0  0  0  0  0  3  0  0  0  0  0  0
  193.0030  175.0250  136.9470 C   0  0  0  0  0  3  0  0  0  0  0  0
  190.8540  173.9690  137.3060 C   0  0  0  0  0  3  0  0  0  0  0  0
  190.3530  175.1650  137.8270 C   0  0  0  0  0  3  0  0  0  0  0  0
  1 15  1  6  0  0  0
  1 12  1  0  0  0  0
  1  3  1  0  0  0  0
  2 11  1  0  0  0  0
  2  6  1  0  0  0  0
  3 21  1  1  0  0  0
  3 11  1  0  0  0  0
  4 13  2  0  0  0  0
  6 18  1  0  0  0  0
  7  9  2  0  0  0  0
  9 13  1  0  0  0  0
 10 17  1  0  0  0  0
 11 16  2  0  0  0  0
 12 23  1  1  0  0  0
 12  2  1  0  0  0  0
 13  5  1  0  0  0  0
 14  4  1  0  0  0  0
 16  7  1  0  0  0  0
 16 14  1  0  0  0  0
 17  8  2  0  0  0  0
 17 21  1  0  0  0  0
 18 14  2  0  0  0  0
 19 10  1  0  0  0  0
 20 19  1  0  0  0  0
 20 15  1  0  0  0  0
 22 25  2  0  0  0  0
 22 26  1  0  0  0  0
 24 23  2  0  0  0  0
 25 24  1  0  0  0  0
 26 27  2  0  0  0  0
 27 23  1  0  0  0  0
M  END
>  <MODEL>
1

>  <REMARK>
 VINA RESULT:      -8.0      0.000      0.000
  Name = 
  1 active torsions:
  status: ('A' for Active; 'I' for Inactive)
    1  A    between atoms: C_9  and  C_15
                            x       y       z     vdW  Elec       q    Type
                         _______ _______ _______ _____ _____    ______ ____

>  <TORSDO>
F 1

$$$$
=
 OpenBabel10272401003D

 27 31  0  0  1  0  0  0  0  0999 V2000
  186.2910  178.6420  139.1390 C   0  0  1  0  0  3  0  0  0  0  0  0
  188.5730  178.0650  139.0450 N   0  0  0  0  0  0  0  0  0  0  0  0
  186.6470  177.9790  140.4740 C   0  0  1  0  0  3  0  0  0  0  0  0
  191.2400  176.7860  141.9490 C   0  0  0  0  0  3  0  0  0  0  0  0
  191.7100  176.0180  144.2170 N   0  0  0  0  0  1  0  0  0  0  0  0
  189.9790  177.9960  138.6610 C   0  0  0  0  0  2  0  0  0  0  0  0
  188.5360  177.0840  142.5980 C   0  0  0  0  0  3  0  0  0  0  0  0
  184.6090  179.7180  142.9560 O   0  0  0  0  0  0  0  0  0  0  0  0
  189.4410  176.6300  143.5600 C   0  0  0  0  0  3  0  0  0  0  0  0
  183.8920  177.9710  141.4950 C   0  0  0  0  0  2  0  0  0  0  0  0
  188.1260  177.8300  140.3650 C   0  0  0  0  0  0  0  0  0  0  0  0
  187.4620  178.3800  138.1660 C   0  0  1  0  0  3  0  0  0  0  0  0
  190.7910  176.4820  143.2360 C   0  0  0  0  0  0  0  0  0  0  0  0
  190.3470  177.2430  140.9750 C   0  0  0  0  0  0  0  0  0  0  0  0
  184.8890  178.2980  138.6490 C   0  0  0  0  0  2  0  0  0  0  0  0
  188.9760  177.3990  141.3040 C   0  0  0  0  0  0  0  0  0  0  0  0
  184.9250  178.8990  142.0550 C   0  0  0  0  0  0  0  0  0  0  0  0
  190.7990  177.5070  139.7780 N   0  0  0  0  0  0  0  0  0  0  0  0
  182.9360  178.6600  140.5220 C   0  0  0  0  0  2  0  0  0  0  0  0
  183.7550  179.6160  139.1910 S   0  0  0  0  0  0  0  0  0  0  0  0
  186.2700  178.8590  141.5720 N   0  0  0  0  0  2  0  0  0  0  0  0
  186.7110  175.1630  135.4030 C   0  0  0  0  0  3  0  0  0  0  0  0
  187.2130  177.2430  137.2120 C   0  0  0  0  0  0  0  0  0  0  0  0
  186.7490  177.5280  135.9230 C   0  0  0  0  0  3  0  0  0  0  0  0
  186.5000  176.4900  135.0200 C   0  0  0  0  0  3  0  0  0  0  0  0
  187.1720  174.8710  136.6900 C   0  0  0  0  0  3  0  0  0  0  0  0
  187.4220  175.9080  137.5940 C   0  0  0  0  0  3  0  0  0  0  0  0
  1 15  1  6  0  0  0
  1  3  1  0  0  0  0
  2 11  1  0  0  0  0
  3 11  1  6  0  0  0
  3 21  1  0  0  0  0
  4 13  2  0  0  0  0
  6  2  1  0  0  0  0
  6 18  1  0  0  0  0
  7  9  2  0  0  0  0
 10 17  1  0  0  0  0
 11 16  2  0  0  0  0
 12 23  1  6  0  0  0
 12  2  1  0  0  0  0
 12  1  1  0  0  0  0
 13  9  1  0  0  0  0
 13  5  1  0  0  0  0
 14 16  1  0  0  0  0
 14  4  1  0  0  0  0
 15 20  1  0  0  0  0
 16  7  1  0  0  0  0
 17  8  2  0  0  0  0
 18 14  2  0  0  0  0
 19 10  1  0  0  0  0
 20 19  1  0  0  0  0
 21 17  1  0  0  0  0
 22 26  1  0  0  0  0
 23 27  1  0  0  0  0
 24 23  2  0  0  0  0
 25 22  2  0  0  0  0
 25 24  1  0  0  0  0
 26 27  2  0  0  0  0
M  END
>  <MODEL>
2

>  <REMARK>
 VINA RESULT:      -7.1      2.468      3.618
  Name = 
  1 active torsions:
  status: ('A' for Active; 'I' for Inactive)
    1  A    between atoms: C_9  and  C_15
                            x       y       z     vdW  Elec       q    Type
                         _______ _______ _______ _____ _____    ______ ____

>  <TORSDO>
F 1

$$$$
=
 OpenBabel10272401003D

 27 31  0  0  1  0  0  0  0  0999 V2000
  188.8870  177.8120  138.9480 C   0  0  1  0  0  3  0  0  0  0  0  0
  189.4250  177.2820  136.7170 N   0  0  0  0  0  0  0  0  0  0  0  0
  189.9860  176.7450  138.9880 C   0  0  1  0  0  3  0  0  0  0  0  0
  192.5290  175.0990  135.0490 C   0  0  0  0  0  3  0  0  0  0  0  0
  194.4600  173.6250  135.2820 N   0  0  0  0  0  1  0  0  0  0  0  0
  189.5580  177.3320  135.2650 C   0  0  0  0  0  2  0  0  0  0  0  0
  192.2480  175.1880  137.8300 C   0  0  0  0  0  3  0  0  0  0  0  0
  192.0040  177.5860  141.9140 O   0  0  0  0  0  0  0  0  0  0  0  0
  193.2740  174.4350  137.2540 C   0  0  0  0  0  3  0  0  0  0  0  0
  189.9190  176.4220  141.9080 C   0  0  0  0  0  2  0  0  0  0  0  0
  190.3620  176.6290  137.5500 C   0  0  0  0  0  0  0  0  0  0  0  0
  188.3570  177.8760  137.4990 C   0  0  1  0  0  3  0  0  0  0  0  0
  193.4150  174.3920  135.8650 C   0  0  0  0  0  0  0  0  0  0  0  0
  191.4980  175.8580  135.6100 C   0  0  0  0  0  0  0  0  0  0  0  0
  187.8560  177.6590  140.0610 C   0  0  0  0  0  2  0  0  0  0  0  0
  191.3560  175.9070  137.0210 C   0  0  0  0  0  0  0  0  0  0  0  0
  191.0650  177.1070  141.2280 C   0  0  0  0  0  0  0  0  0  0  0  0
  190.6810  176.4980  134.8170 N   0  0  0  0  0  0  0  0  0  0  0  0
  188.9390  177.3990  142.5540 C   0  0  0  0  0  2  0  0  0  0  0  0
  188.3470  178.7330  141.4460 S   0  0  0  0  0  0  0  0  0  0  0  0
  191.0970  177.2180  139.8030 N   0  0  0  0  0  2  0  0  0  0  0  0
  184.6540  175.7530  136.9280 C   0  0  0  0  0  3  0  0  0  0  0  0
  187.0730  177.1180  137.2900 C   0  0  0  0  0  0  0  0  0  0  0  0
  185.8650  177.8230  137.2610 C   0  0  0  0  0  3  0  0  0  0  0  0
  184.6580  177.1420  137.0800 C   0  0  0  0  0  3  0  0  0  0  0  0
  185.8570  175.0430  136.9580 C   0  0  0  0  0  3  0  0  0  0  0  0
  187.0650  175.7210  137.1400 C   0  0  0  0  0  3  0  0  0  0  0  0
  1  3  1  0  0  0  0
  1 15  1  1  0  0  0
  2 12  1  0  0  0  0
  2 11  1  0  0  0  0
  3 11  1  6  0  0  0
  3 21  1  0  0  0  0
  4 14  1  0  0  0  0
  4 13  2  0  0  0  0
  5 13  1  0  0  0  0
  6  2  1  0  0  0  0
  9  7  2  0  0  0  0
 10 19  1  0  0  0  0
 12 23  1  1  0  0  0
 12  1  1  0  0  0  0
 13  9  1  0  0  0  0
 14 16  1  0  0  0  0
 15 20  1  0  0  0  0
 16 11  2  0  0  0  0
 16  7  1  0  0  0  0
 17 10  1  0  0  0  0
 17  8  2  0  0  0  0
 18  6  1  0  0  0  0
 18 14  2  0  0  0  0
 20 19  1  0  0  0  0
 21 17  1  0  0  0  0
 22 26  2  0  0  0  0
 22 25  1  0  0  0  0
 24 23  1  0  0  0  0
 25 24  2  0  0  0  0
 26 27  1  0  0  0  0
 27 23  2  0  0  0  0
M  END
>  <MODEL>
3

>  <REMARK>
 VINA RESULT:      -6.6      2.866      6.486
  Name = 
  1 active torsions:
  status: ('A' for Active; 'I' for Inactive)
    1  A    between atoms: C_9  and  C_15
                            x       y       z     vdW  Elec       q    Type
                         _______ _______ _______ _____ _____    ______ ____

>  <TORSDO>
F 1

$$$$
=
 OpenBabel10272401003D

 27 31  0  0  1  0  0  0  0  0999 V2000
  187.6750  178.5750  139.9320 C   0  0  1  0  0  3  0  0  0  0  0  0
  186.2400  179.1340  141.7140 N   0  0  0  0  0  0  0  0  0  0  0  0
  186.3160  177.9270  139.6420 C   0  0  1  0  0  3  0  0  0  0  0  0
  182.1450  178.7320  142.2200 C   0  0  0  0  0  3  0  0  0  0  0  0
  179.9820  177.8810  141.4750 N   0  0  0  0  0  1  0  0  0  0  0  0
  185.6540  179.7840  142.8820 C   0  0  0  0  0  2  0  0  0  0  0  0
  183.3670  177.6400  139.9530 C   0  0  0  0  0  3  0  0  0  0  0  0
  185.9650  178.0750  136.0090 O   0  0  0  0  0  0  0  0  0  0  0  0
  181.9920  177.4900  140.1480 C   0  0  0  0  0  3  0  0  0  0  0  0
  187.2320  176.4800  137.2540 C   0  0  0  0  0  2  0  0  0  0  0  0
  185.4620  178.4930  140.7230 C   0  0  0  0  0  0  0  0  0  0  0  0
  187.6540  179.0530  141.4000 C   0  0  1  0  0  3  0  0  0  0  0  0
  181.3820  178.0360  141.2790 C   0  0  0  0  0  0  0  0  0  0  0  0
  183.5220  178.8920  142.0380 C   0  0  0  0  0  0  0  0  0  0  0  0
  188.8570  177.7190  139.4940 C   0  0  0  0  0  2  0  0  0  0  0  0
  184.1430  178.3430  140.8870 C   0  0  0  0  0  0  0  0  0  0  0  0
  186.3220  177.6640  137.1430 C   0  0  0  0  0  0  0  0  0  0  0  0
  184.2080  179.5380  142.9430 N   0  0  0  0  0  0  0  0  0  0  0  0
  188.6870  176.8120  136.9250 C   0  0  0  0  0  2  0  0  0  0  0  0
  189.3650  178.2540  137.8300 S   0  0  0  0  0  0  0  0  0  0  0  0
  185.8560  178.3290  138.3200 N   0  0  0  0  0  2  0  0  0  0  0  0
  189.6920  176.3890  144.1020 C   0  0  0  0  0  3  0  0  0  0  0  0
  188.3470  178.1150  142.3520 C   0  0  0  0  0  0  0  0  0  0  0  0
  189.6630  178.3910  142.7400 C   0  0  0  0  0  3  0  0  0  0  0  0
  190.3340  177.5310  143.6140 C   0  0  0  0  0  3  0  0  0  0  0  0
  188.3790  176.1070  143.7160 C   0  0  0  0  0  3  0  0  0  0  0  0
  187.7070  176.9660  142.8430 C   0  0  0  0  0  3  0  0  0  0  0  0
  1 15  1  1  0  0  0
  1 12  1  0  0  0  0
  2  6  1  0  0  0  0
  3 21  1  6  0  0  0
  3  1  1  0  0  0  0
  3 11  1  0  0  0  0
  6 18  1  0  0  0  0
  7  9  2  0  0  0  0
  7 16  1  0  0  0  0
  8 17  2  0  0  0  0
  9 13  1  0  0  0  0
 11 16  2  0  0  0  0
 11  2  1  0  0  0  0
 12  2  1  0  0  0  0
 12 23  1  1  0  0  0
 13  5  1  0  0  0  0
 13  4  2  0  0  0  0
 14  4  1  0  0  0  0
 14 18  2  0  0  0  0
 16 14  1  0  0  0  0
 17 10  1  0  0  0  0
 17 21  1  0  0  0  0
 19 10  1  0  0  0  0
 19 20  1  0  0  0  0
 20 15  1  0  0  0  0
 23 24  2  0  0  0  0
 23 27  1  0  0  0  0
 24 25  1  0  0  0  0
 25 22  2  0  0  0  0
 26 22  1  0  0  0  0
 27 26  2  0  0  0  0
M  END
>  <MODEL>
4

>  <REMARK>
 VINA RESULT:      -6.3      3.018      5.766
  Name = 
  1 active torsions:
  status: ('A' for Active; 'I' for Inactive)
    1  A    between atoms: C_9  and  C_15
                            x       y       z     vdW  Elec       q    Type
                         _______ _______ _______ _____ _____    ______ ____

>  <TORSDO>
F 1

$$$$
=
 OpenBabel10272401003D

 27 31  0  0  1  0  0  0  0  0999 V2000
  186.3740  177.3930  144.4470 C   0  0  1  0  0  3  0  0  0  0  0  0
  188.3750  176.4040  143.6950 N   0  0  0  0  0  0  0  0  0  0  0  0
  186.7740  178.1060  143.1510 C   0  0  1  0  0  3  0  0  0  0  0  0
  190.4500  176.6980  140.1180 C   0  0  0  0  0  3  0  0  0  0  0  0
  190.7900  177.7320  137.9340 N   0  0  0  0  0  1  0  0  0  0  0  0
  189.4860  175.4790  143.5010 C   0  0  0  0  0  2  0  0  0  0  0  0
  188.2200  178.3290  140.5550 C   0  0  0  0  0  3  0  0  0  0  0  0
  183.6110  178.9080  141.5090 O   0  0  0  0  0  0  0  0  0  0  0  0
  188.9430  178.4350  139.3650 C   0  0  0  0  0  3  0  0  0  0  0  0
  184.6340  180.1150  143.2970 C   0  0  0  0  0  2  0  0  0  0  0  0
  187.9280  177.2870  142.6860 C   0  0  0  0  0  0  0  0  0  0  0  0
  187.5860  176.5510  144.9030 C   0  0  1  0  0  3  0  0  0  0  0  0
  190.0550  177.6200  139.1460 C   0  0  0  0  0  0  0  0  0  0  0  0
  189.7350  176.5780  141.3140 C   0  0  0  0  0  0  0  0  0  0  0  0
  185.7440  178.3220  145.4780 C   0  0  0  0  0  2  0  0  0  0  0  0
  188.6020  177.4010  141.5350 C   0  0  0  0  0  0  0  0  0  0  0  0
  184.5920  179.0080  142.2890 C   0  0  0  0  0  0  0  0  0  0  0  0
  190.1380  175.7130  142.2060 N   0  0  0  0  0  0  0  0  0  0  0  0
  183.7170  179.8650  144.4940 C   0  0  0  0  0  2  0  0  0  0  0  0
  183.9340  178.2330  145.2970 S   0  0  0  0  0  0  0  0  0  0  0  0
  185.6640  178.0640  142.2080 N   0  0  0  0  0  2  0  0  0  0  0  0
  189.8740  178.4290  148.0310 C   0  0  0  0  0  3  0  0  0  0  0  0
  188.4030  177.2040  145.9850 C   0  0  0  0  0  0  0  0  0  0  0  0
  187.8800  177.2790  147.2800 C   0  0  0  0  0  3  0  0  0  0  0  0
  188.6130  177.8890  148.3020 C   0  0  0  0  0  3  0  0  0  0  0  0
  190.4010  178.3600  146.7390 C   0  0  0  0  0  3  0  0  0  0  0  0
  189.6690  177.7500  145.7170 C   0  0  0  0  0  3  0  0  0  0  0  0
  1 12  1  0  0  0  0
  1 15  1  1  0  0  0
  2 12  1  0  0  0  0
  3 21  1  6  0  0  0
  3  1  1  0  0  0  0
  4 14  1  0  0  0  0
  5 13  1  0  0  0  0
  6  2  1  0  0  0  0
  7 16  1  0  0  0  0
  8 17  2  0  0  0  0
  9  7  2  0  0  0  0
 10 19  1  0  0  0  0
 11  3  1  0  0  0  0
 11  2  1  0  0  0  0
 12 23  1  1  0  0  0
 13  9  1  0  0  0  0
 13  4  2  0  0  0  0
 14 16  1  0  0  0  0
 14 18  2  0  0  0  0
 16 11  2  0  0  0  0
 17 10  1  0  0  0  0
 18  6  1  0  0  0  0
 19 20  1  0  0  0  0
 20 15  1  0  0  0  0
 21 17  1  0  0  0  0
 22 25  1  0  0  0  0
 23 24  1  0  0  0  0
 24 25  2  0  0  0  0
 26 22  2  0  0  0  0
 27 23  2  0  0  0  0
 27 26  1  0  0  0  0
M  END
>  <MODEL>
5

>  <REMARK>
 VINA RESULT:      -6.2      3.189      6.978
  Name = 
  1 active torsions:
  status: ('A' for Active; 'I' for Inactive)
    1  A    between atoms: C_9  and  C_15
                            x       y       z     vdW  Elec       q    Type
                         _______ _______ _______ _____ _____    ______ ____

>  <TORSDO>
F 1

$$$$
=
 OpenBabel10272401003D

 27 31  0  0  1  0  0  0  0  0999 V2000
  185.5340  178.8410  142.0680 C   0  0  1  0  0  3  0  0  0  0  0  0
  185.8280  178.9210  139.7320 N   0  0  0  0  0  0  0  0  0  0  0  0
  186.7500  177.9700  141.7330 C   0  0  1  0  0  3  0  0  0  0  0  0
  188.9210  177.6670  137.2740 C   0  0  0  0  0  3  0  0  0  0  0  0
  191.0310  176.4850  136.9420 N   0  0  0  0  0  1  0  0  0  0  0  0
  185.7570  179.3200  138.3300 C   0  0  0  0  0  2  0  0  0  0  0  0
  189.0070  177.0750  140.0060 C   0  0  0  0  0  3  0  0  0  0  0  0
  189.0260  178.4130  144.5550 O   0  0  0  0  0  0  0  0  0  0  0  0
  190.0300  176.6370  139.1620 C   0  0  0  0  0  3  0  0  0  0  0  0
  187.1160  176.9820  144.4760 C   0  0  0  0  0  2  0  0  0  0  0  0
  186.9400  178.2430  140.2810 C   0  0  0  0  0  0  0  0  0  0  0  0
  184.8110  179.1540  140.7390 C   0  0  1  0  0  3  0  0  0  0  0  0
  189.9880  176.9330  137.7980 C   0  0  0  0  0  0  0  0  0  0  0  0
  187.8900  178.1140  138.1060 C   0  0  0  0  0  0  0  0  0  0  0  0
  184.6890  178.2850  143.2070 C   0  0  0  0  0  2  0  0  0  0  0  0
  187.9340  177.8180  139.4920 C   0  0  0  0  0  0  0  0  0  0  0  0
  188.0680  177.9680  143.8720 C   0  0  0  0  0  0  0  0  0  0  0  0
  186.9020  178.7880  137.5800 N   0  0  0  0  0  0  0  0  0  0  0  0
  186.1190  177.6280  145.4380 C   0  0  0  0  0  2  0  0  0  0  0  0
  185.2270  179.0760  144.7570 S   0  0  0  0  0  0  0  0  0  0  0  0
  187.8940  178.4050  142.5220 N   0  0  0  0  0  2  0  0  0  0  0  0
  181.3520  176.6800  140.0530 C   0  0  0  0  0  3  0  0  0  0  0  0
  183.6120  178.2800  140.4830 C   0  0  0  0  0  0  0  0  0  0  0  0
  182.3570  178.6970  140.9400 C   0  0  0  0  0  3  0  0  0  0  0  0
  181.2290  177.9000  140.7250 C   0  0  0  0  0  3  0  0  0  0  0  0
  182.6030  176.2570  139.5960 C   0  0  0  0  0  3  0  0  0  0  0  0
  183.7320  177.0530  139.8100 C   0  0  0  0  0  3  0  0  0  0  0  0
  1 15  1  1  0  0  0
  2 11  1  0  0  0  0
  2 12  1  0  0  0  0
  3 11  1  6  0  0  0
  3  1  1  0  0  0  0
  3 21  1  0  0  0  0
  4 13  2  0  0  0  0
  4 14  1  0  0  0  0
  5 13  1  0  0  0  0
  6  2  1  0  0  0  0
  9  7  2  0  0  0  0
 10 19  1  0  0  0  0
 12 23  1  6  0  0  0
 12  1  1  0  0  0  0
 13  9  1  0  0  0  0
 14 16  1  0  0  0  0
 15 20  1  0  0  0  0
 16  7  1  0  0  0  0
 16 11  2  0  0  0  0
 17 10  1  0  0  0  0
 17  8  2  0  0  0  0
 18 14  2  0  0  0  0
 18  6  1  0  0  0  0
 20 19  1  0  0  0  0
 21 17  1  0  0  0  0
 22 25  1  0  0  0  0
 23 24  1  0  0  0  0
 25 24  2  0  0  0  0
 26 27  1  0  0  0  0
 26 22  2  0  0  0  0
 27 23  2  0  0  0  0
M  END
>  <MODEL>
6

>  <REMARK>
 VINA RESULT:      -6.2      3.316      7.221
  Name = 
  1 active torsions:
  status: ('A' for Active; 'I' for Inactive)
    1  A    between atoms: C_9  and  C_15
                            x       y       z     vdW  Elec       q    Type
                         _______ _______ _______ _____ _____    ______ ____

>  <TORSDO>
F 1

$$$$
=
 OpenBabel10272401003D

 27 31  0  0  1  0  0  0  0  0999 V2000
  191.2050  176.5870  138.0190 C   0  0  1  0  0  3  0  0  0  0  0  0
  189.1960  177.6830  138.5800 N   0  0  0  0  0  0  0  0  0  0  0  0
  190.0550  175.7390  137.4660 C   0  0  1  0  0  3  0  0  0  0  0  0
  185.2770  177.1000  137.3650 C   0  0  0  0  0  3  0  0  0  0  0  0
  183.5860  175.7950  136.1830 N   0  0  0  0  0  1  0  0  0  0  0  0
  188.2260  178.6940  138.9840 C   0  0  0  0  0  2  0  0  0  0  0  0
  187.2540  175.3000  136.5470 C   0  0  0  0  0  3  0  0  0  0  0  0
  191.3450  174.3250  134.3550 O   0  0  0  0  0  0  0  0  0  0  0  0
  185.9250  175.1010  136.1660 C   0  0  0  0  0  3  0  0  0  0  0  0
  191.7770  173.5340  136.5670 C   0  0  0  0  0  2  0  0  0  0  0  0
  188.8730  176.6100  137.7190 C   0  0  0  0  0  0  0  0  0  0  0  0
  190.5900  177.6280  138.9810 C   0  0  1  0  0  3  0  0  0  0  0  0
  184.9380  176.0000  136.5730 C   0  0  0  0  0  0  0  0  0  0  0  0
  186.6030  177.3140  137.7540 C   0  0  0  0  0  0  0  0  0  0  0  0
  192.3700  175.7560  138.5440 C   0  0  0  0  0  2  0  0  0  0  0  0
  187.6070  176.4040  137.3360 C   0  0  0  0  0  0  0  0  0  0  0  0
  191.1280  174.4620  135.5860 C   0  0  0  0  0  0  0  0  0  0  0  0
  186.8820  178.3460  138.5040 N   0  0  0  0  0  0  0  0  0  0  0  0
  193.2530  173.8510  136.8000 C   0  0  0  0  0  2  0  0  0  0  0  0
  193.6050  175.6000  137.2150 S   0  0  0  0  0  0  0  0  0  0  0  0
  190.2610  175.5040  136.0430 N   0  0  0  0  0  2  0  0  0  0  0  0
  190.9700  176.5500  143.1330 C   0  0  0  0  0  3  0  0  0  0  0  0
  190.7010  177.2490  140.4330 C   0  0  0  0  0  0  0  0  0  0  0  0
  191.8340  177.6440  141.1530 C   0  0  0  0  0  3  0  0  0  0  0  0
  191.9680  177.2970  142.5010 C   0  0  0  0  0  3  0  0  0  0  0  0
  189.8370  176.1500  142.4190 C   0  0  0  0  0  3  0  0  0  0  0  0
  189.7020  176.4970  141.0720 C   0  0  0  0  0  3  0  0  0  0  0  0
  1 15  1  1  0  0  0
  1 12  1  0  0  0  0
  2 12  1  0  0  0  0
  2  6  1  0  0  0  0
  3 21  1  6  0  0  0
  3 11  1  0  0  0  0
  3  1  1  0  0  0  0
  4 14  1  0  0  0  0
  5 13  1  0  0  0  0
  7 16  1  0  0  0  0
  8 17  2  0  0  0  0
  9  7  2  0  0  0  0
  9 13  1  0  0  0  0
 10 19  1  0  0  0  0
 11  2  1  0  0  0  0
 12 23  1  1  0  0  0
 13  4  2  0  0  0  0
 14 18  2  0  0  0  0
 16 11  2  0  0  0  0
 16 14  1  0  0  0  0
 17 21  1  0  0  0  0
 17 10  1  0  0  0  0
 18  6  1  0  0  0  0
 19 20  1  0  0  0  0
 20 15  1  0  0  0  0
 23 27  2  0  0  0  0
 23 24  1  0  0  0  0
 24 25  2  0  0  0  0
 25 22  1  0  0  0  0
 26 22  2  0  0  0  0
 27 26  1  0  0  0  0
M  END
>  <MODEL>
7

>  <REMARK>
 VINA RESULT:      -6.2      3.042      6.167
  Name = 
  1 active torsions:
  status: ('A' for Active; 'I' for Inactive)
    1  A    between atoms: C_9  and  C_15
                            x       y       z     vdW  Elec       q    Type
                         _______ _______ _______ _____ _____    ______ ____

>  <TORSDO>
F 1

$$$$
=
 OpenBabel10272401003D

 27 31  0  0  1  0  0  0  0  0999 V2000
  186.6890  178.7890  140.6980 C   0  0  1  0  0  3  0  0  0  0  0  0
  188.6590  178.5970  141.9750 N   0  0  0  0  0  0  0  0  0  0  0  0
  186.3180  178.0730  142.0020 C   0  0  1  0  0  3  0  0  0  0  0  0
  189.3230  177.5020  145.9180 C   0  0  0  0  0  3  0  0  0  0  0  0
  188.5190  176.6160  148.0450 N   0  0  0  0  0  1  0  0  0  0  0  0
  190.0100  178.7890  142.4920 C   0  0  0  0  0  2  0  0  0  0  0  0
  186.7470  177.3030  144.8480 C   0  0  0  0  0  3  0  0  0  0  0  0
  182.9410  179.2290  142.7760 O   0  0  0  0  0  0  0  0  0  0  0  0
  186.9890  176.9130  146.1670 C   0  0  0  0  0  3  0  0  0  0  0  0
  183.5410  177.5300  141.2090 C   0  0  0  0  0  2  0  0  0  0  0  0
  187.5810  178.1730  142.7850 C   0  0  0  0  0  0  0  0  0  0  0  0
  188.2310  178.8080  140.6050 C   0  0  1  0  0  3  0  0  0  0  0  0
  188.2750  177.0140  146.7020 C   0  0  0  0  0  0  0  0  0  0  0  0
  189.0960  177.8970  144.5950 C   0  0  0  0  0  0  0  0  0  0  0  0
  185.9240  178.2700  139.4860 C   0  0  0  0  0  2  0  0  0  0  0  0
  187.7890  177.8010  144.0530 C   0  0  0  0  0  0  0  0  0  0  0  0
  183.8650  178.5570  142.2500 C   0  0  0  0  0  0  0  0  0  0  0  0
  190.1010  178.3380  143.8870 N   0  0  0  0  0  0  0  0  0  0  0  0
  183.2210  178.1420  139.8460 C   0  0  0  0  0  2  0  0  0  0  0  0
  184.4690  179.3340  139.2310 S   0  0  0  0  0  0  0  0  0  0  0  0
  185.2200  178.7770  142.6500 N   0  0  0  0  0  2  0  0  0  0  0  0
  189.9020  175.7560  138.0660 C   0  0  0  0  0  3  0  0  0  0  0  0
  188.7960  177.7370  139.7100 C   0  0  0  0  0  0  0  0  0  0  0  0
  190.0230  177.1520  140.0420 C   0  0  0  0  0  3  0  0  0  0  0  0
  190.5750  176.1630  139.2220 C   0  0  0  0  0  3  0  0  0  0  0  0
  188.6770  176.3380  137.7290 C   0  0  0  0  0  3  0  0  0  0  0  0
  188.1240  177.3270  138.5470 C   0  0  0  0  0  3  0  0  0  0  0  0
  1 15  1  6  0  0  0
  1  3  1  0  0  0  0
  2  6  1  0  0  0  0
  2 11  1  0  0  0  0
  3 21  1  1  0  0  0
  3 11  1  0  0  0  0
  4 13  2  0  0  0  0
  6 18  1  0  0  0  0
  7  9  2  0  0  0  0
  9 13  1  0  0  0  0
 10 17  1  0  0  0  0
 11 16  2  0  0  0  0
 12 23  1  6  0  0  0
 12  1  1  0  0  0  0
 12  2  1  0  0  0  0
 13  5  1  0  0  0  0
 14  4  1  0  0  0  0
 16 14  1  0  0  0  0
 16  7  1  0  0  0  0
 17 21  1  0  0  0  0
 17  8  2  0  0  0  0
 18 14  2  0  0  0  0
 19 10  1  0  0  0  0
 20 15  1  0  0  0  0
 20 19  1  0  0  0  0
 22 25  1  0  0  0  0
 23 24  1  0  0  0  0
 25 24  2  0  0  0  0
 26 22  2  0  0  0  0
 26 27  1  0  0  0  0
 27 23  2  0  0  0  0
M  END
>  <MODEL>
8

>  <REMARK>
 VINA RESULT:      -6.1      2.319      3.314
  Name = 
  1 active torsions:
  status: ('A' for Active; 'I' for Inactive)
    1  A    between atoms: C_9  and  C_15
                            x       y       z     vdW  Elec       q    Type
                         _______ _______ _______ _____ _____    ______ ____

>  <TORSDO>
F 1

$$$$
=
 OpenBabel10272401003D

 27 31  0  0  1  0  0  0  0  0999 V2000
  190.7710  177.8470  142.6390 C   0  0  1  0  0  3  0  0  0  0  0  0
  189.5600  178.1630  144.6350 N   0  0  0  0  0  0  0  0  0  0  0  0
  189.2930  177.6010  142.3180 C   0  0  1  0  0  3  0  0  0  0  0  0
  185.4990  178.4840  145.4040 C   0  0  0  0  0  3  0  0  0  0  0  0
  183.1760  178.3410  144.6690 N   0  0  0  0  0  1  0  0  0  0  0  0
  189.1760  178.5630  145.9840 C   0  0  0  0  0  2  0  0  0  0  0  0
  186.3660  177.8500  142.8210 C   0  0  0  0  0  3  0  0  0  0  0  0
  188.8570  178.8370  138.9080 O   0  0  0  0  0  0  0  0  0  0  0  0
  185.0000  177.9360  143.1000 C   0  0  0  0  0  3  0  0  0  0  0  0
  189.7770  176.7300  139.5530 C   0  0  0  0  0  2  0  0  0  0  0  0
  188.6250  178.0010  143.5880 C   0  0  0  0  0  0  0  0  0  0  0  0
  190.9080  177.8850  144.1770 C   0  0  1  0  0  3  0  0  0  0  0  0
  184.5670  178.2540  144.3890 C   0  0  0  0  0  0  0  0  0  0  0  0
  186.8700  178.4020  145.1400 C   0  0  0  0  0  0  0  0  0  0  0  0
  191.7160  176.9250  141.8770 C   0  0  0  0  0  2  0  0  0  0  0  0
  187.3110  178.0850  143.8300 C   0  0  0  0  0  0  0  0  0  0  0  0
  189.1520  178.0580  139.8510 C   0  0  0  0  0  0  0  0  0  0  0  0
  187.7140  178.6120  146.1160 N   0  0  0  0  0  0  0  0  0  0  0  0
  191.2570  176.8360  139.1880 C   0  0  0  0  0  2  0  0  0  0  0  0
  192.2720  177.7920  140.3760 S   0  0  0  0  0  0  0  0  0  0  0  0
  188.8880  178.4450  141.2020 N   0  0  0  0  0  2  0  0  0  0  0  0
  192.3590  174.2250  145.9240 C   0  0  0  0  0  3  0  0  0  0  0  0
  191.4070  176.5950  144.7720 C   0  0  0  0  0  0  0  0  0  0  0  0
  191.7080  176.5480  146.1370 C   0  0  0  0  0  3  0  0  0  0  0  0
  192.1830  175.3660  146.7120 C   0  0  0  0  0  3  0  0  0  0  0  0
  192.0620  174.2660  144.5590 C   0  0  0  0  0  3  0  0  0  0  0  0
  191.5880  175.4480  143.9820 C   0  0  0  0  0  3  0  0  0  0  0  0
  1 15  1  1  0  0  0
  1 12  1  0  0  0  0
  2  6  1  0  0  0  0
  3 21  1  6  0  0  0
  3  1  1  0  0  0  0
  3 11  1  0  0  0  0
  6 18  1  0  0  0  0
  7  9  2  0  0  0  0
  7 16  1  0  0  0  0
  8 17  2  0  0  0  0
  9 13  1  0  0  0  0
 10 17  1  0  0  0  0
 11 16  2  0  0  0  0
 11  2  1  0  0  0  0
 12  2  1  0  0  0  0
 12 23  1  1  0  0  0
 13  5  1  0  0  0  0
 13  4  2  0  0  0  0
 14  4  1  0  0  0  0
 14 18  2  0  0  0  0
 16 14  1  0  0  0  0
 17 21  1  0  0  0  0
 19 10  1  0  0  0  0
 19 20  1  0  0  0  0
 20 15  1  0  0  0  0
 22 25  1  0  0  0  0
 23 24  1  0  0  0  0
 24 25  2  0  0  0  0
 26 22  2  0  0  0  0
 27 26  1  0  0  0  0
 27 23  2  0  0  0  0
M  END
>  <MODEL>
9

>  <REMARK>
 VINA RESULT:      -6.0      2.827      5.594
  Name = 
  1 active torsions:
  status: ('A' for Active; 'I' for Inactive)
    1  A    between atoms: C_9  and  C_15
                            x       y       z     vdW  Elec       q    Type
                         _______ _______ _______ _____ _____    ______ ____

>  <TORSDO>
F 1

$$$$
