=
 OpenBabel10272413593D

 30 35  0  0  1  0  0  0  0  0999 V2000
  188.4960  178.3290  141.2380 C   0  0  1  0  0  3  0  0  0  0  0  0
  189.4710  178.1260  137.5620 C   0  0  0  0  0  2  0  0  0  0  0  0
  186.2000  179.1810  139.7030 N   0  0  0  0  0  2  0  0  0  0  0  0
  187.4470  177.7250  142.2240 C   0  0  1  0  0  3  0  0  0  0  0  0
  189.8000  177.9200  141.5930 O   0  0  0  0  0  0  0  0  0  0  0  0
  187.0550  178.9950  146.5910 C   0  0  0  0  0  2  0  0  0  0  0  0
  189.3520  177.7510  143.9340 C   0  0  1  0  0  3  0  0  0  0  0  0
  184.9800  177.6020  143.0710 C   0  0  0  0  0  2  0  0  0  0  0  0
  184.0200  179.0150  140.7510 O   0  0  0  0  0  1  0  0  0  0  0  0
  190.1190  178.4790  142.8400 C   0  0  0  0  0  2  0  0  0  0  0  0
  187.8610  178.0060  143.6860 C   0  0  2  0  0  3  0  0  0  0  0  0
  188.5040  178.5870  136.4690 C   0  0  0  0  0  2  0  0  0  0  0  0
  185.4570  177.7950  144.5100 C   0  0  2  0  0  3  0  0  0  0  0  0
  185.5890  179.3180  146.3330 C   0  0  0  0  0  2  0  0  0  0  0  0
  189.2010  178.8030  138.8960 C   0  0  0  0  0  2  0  0  0  0  0  0
  186.8380  177.9350  139.3120 C   0  0  2  0  0  3  0  0  0  0  0  0
  187.0490  178.7310  136.9180 C   0  0  0  0  0  2  0  0  0  0  0  0
  188.3030  177.9180  139.7650 C   0  0  2  0  0  3  0  0  0  0  0  0
  185.8730  179.6010  142.0050 O   0  0  0  0  0  0  0  0  0  0  0  0
  185.4040  178.8880  140.8840 C   0  0  2  0  0  0  0  0  0  0  0  0
  185.9760  178.1910  142.0720 C   0  0  1  0  0  0  0  0  0  0  0  0
  185.2990  179.1960  144.9060 N   0  0  0  0  0  2  0  0  0  0  0  0
  187.3410  177.5620  146.1530 C   0  0  0  0  0  2  0  0  0  0  0  0
  186.6070  177.5940  137.8320 C   0  0  2  0  0  3  0  0  0  0  0  0
  185.1410  177.2880  137.5920 C   0  0  0  0  0  1  0  0  0  0  0  0
  186.9150  177.3220  144.6980 C   0  0  2  0  0  3  0  0  0  0  0  0
  189.6990  176.2650  143.9210 C   0  0  0  0  0  2  0  0  0  0  0  0
  191.1370  176.0650  144.3530 C   0  0  0  0  0  2  0  0  0  0  0  0
  191.4060  176.8780  145.6000 C   0  0  0  0  0  2  0  0  0  0  0  0
  191.9920  175.9800  146.6690 C   0  0  0  0  0  1  0  0  0  0  0  0
  1  5  1  1  0  0  0
  1  4  1  0  0  0  0
  2 15  1  0  0  0  0
  3 20  1  0  0  0  0
  4 11  1  0  0  0  0
  5 10  1  0  0  0  0
  8 13  1  0  0  0  0
  9 20  1  0  0  0  0
 10  7  1  0  0  0  0
 11  7  1  0  0  0  0
 11 26  1  0  0  0  0
 12 17  1  0  0  0  0
 12  2  1  0  0  0  0
 13 26  1  0  0  0  0
 13 22  1  0  0  0  0
 14  6  1  0  0  0  0
 15 18  1  0  0  0  0
 16  3  1  0  0  0  0
 16 18  1  0  0  0  0
 17 24  1  0  0  0  0
 18  1  1  0  0  0  0
 19 21  1  0  0  0  0
 20 19  1  0  0  0  0
 20 21  1  0  0  0  0
 21  4  1  0  0  0  0
 21  8  1  0  0  0  0
 22 14  1  0  0  0  0
 23  6  1  0  0  0  0
 24 16  1  0  0  0  0
 25 24  1  0  0  0  0
 26 23  1  0  0  0  0
 27  7  1  0  0  0  0
 27 28  1  0  0  0  0
 28 29  1  0  0  0  0
 29 30  1  0  0  0  0
M  END
>  <MODEL>
1

>  <REMARK>
 VINA RESULT:      -8.1      0.000      0.000
  Name = 
  3 active torsions:
  status: ('A' for Active; 'I' for Inactive)
    1  A    between atoms: C_6  and  C_8
    2  A    between atoms: C_6  and  C_21
    3  A    between atoms: C_9  and  C_21
                            x       y       z     vdW  Elec       q    Type
                         _______ _______ _______ _____ _____    ______ ____

>  <TORSDO>
F 3

$$$$
=
 OpenBabel10272413593D

 30 35  0  0  1  0  0  0  0  0999 V2000
  187.8050  178.3340  140.1850 C   0  0  1  0  0  3  0  0  0  0  0  0
  189.4480  177.7030  136.8070 C   0  0  0  0  0  2  0  0  0  0  0  0
  185.8580  179.0010  138.1560 N   0  0  0  0  0  2  0  0  0  0  0  0
  186.5760  177.8490  141.0170 C   0  0  1  0  0  3  0  0  0  0  0  0
  189.0100  177.9700  140.8240 O   0  0  0  0  0  0  0  0  0  0  0  0
  185.3990  179.6210  145.0560 C   0  0  0  0  0  2  0  0  0  0  0  0
  188.1260  178.0750  143.0420 C   0  0  1  0  0  3  0  0  0  0  0  0
  183.9920  177.8270  141.3900 C   0  0  0  0  0  2  0  0  0  0  0  0
  183.5170  178.9580  138.7840 O   0  0  0  0  0  1  0  0  0  0  0  0
  189.1010  178.6700  142.0370 C   0  0  0  0  0  2  0  0  0  0  0  0
  186.7140  178.3000  142.4890 C   0  0  2  0  0  3  0  0  0  0  0  0
  188.7140  178.0330  135.5060 C   0  0  0  0  0  2  0  0  0  0  0  0
  184.1940  178.1860  142.8620 C   0  0  2  0  0  3  0  0  0  0  0  0
  184.0150  179.9120  144.4890 C   0  0  0  0  0  2  0  0  0  0  0  0
  188.9480  178.5310  137.9800 C   0  0  0  0  0  2  0  0  0  0  0  0
  186.5300  177.7170  138.0380 C   0  0  2  0  0  3  0  0  0  0  0  0
  187.2040  178.2280  135.6520 C   0  0  0  0  0  2  0  0  0  0  0  0
  187.8830  177.7540  138.7590 C   0  0  2  0  0  3  0  0  0  0  0  0
  185.1130  179.6870  140.2900 O   0  0  0  0  0  0  0  0  0  0  0  0
  184.8480  178.8480  139.1900 C   0  0  2  0  0  0  0  0  0  0  0  0
  185.1700  178.2950  140.5370 C   0  0  1  0  0  0  0  0  0  0  0  0
  183.9960  179.6240  143.0580 N   0  0  0  0  0  2  0  0  0  0  0  0
  185.7300  178.1470  144.8480 C   0  0  0  0  0  2  0  0  0  0  0  0
  186.5740  177.2060  136.5900 C   0  0  2  0  0  3  0  0  0  0  0  0
  185.1730  176.8740  136.1140 C   0  0  0  0  0  1  0  0  0  0  0  0
  185.5800  177.7380  143.3760 C   0  0  2  0  0  3  0  0  0  0  0  0
  188.4360  176.5980  143.2660 C   0  0  0  0  0  2  0  0  0  0  0  0
  189.4420  176.4440  144.3870 C   0  0  0  0  0  2  0  0  0  0  0  0
  189.3200  177.6150  145.3370 C   0  0  0  0  0  2  0  0  0  0  0  0
  188.8870  177.1160  146.6990 C   0  0  0  0  0  1  0  0  0  0  0  0
  1  5  1  1  0  0  0
  1  4  1  0  0  0  0
  2 15  1  0  0  0  0
  3 20  1  0  0  0  0
  4 11  1  0  0  0  0
  5 10  1  0  0  0  0
  7 27  1  0  0  0  0
  8 13  1  0  0  0  0
  9 20  1  0  0  0  0
 10  7  1  0  0  0  0
 11  7  1  0  0  0  0
 11 26  1  0  0  0  0
 12 17  1  0  0  0  0
 12  2  1  0  0  0  0
 13 22  1  0  0  0  0
 13 26  1  0  0  0  0
 14  6  1  0  0  0  0
 15 18  1  0  0  0  0
 16  3  1  0  0  0  0
 16 18  1  0  0  0  0
 17 24  1  0  0  0  0
 18  1  1  0  0  0  0
 19 21  1  0  0  0  0
 20 19  1  0  0  0  0
 20 21  1  0  0  0  0
 21  4  1  0  0  0  0
 21  8  1  0  0  0  0
 22 14  1  0  0  0  0
 23  6  1  0  0  0  0
 24 16  1  0  0  0  0
 25 24  1  0  0  0  0
 26 23  1  0  0  0  0
 27 28  1  0  0  0  0
 28 29  1  0  0  0  0
 29 30  1  0  0  0  0
M  END
>  <MODEL>
2

>  <REMARK>
 VINA RESULT:      -7.9      1.453      1.780
  Name = 
  3 active torsions:
  status: ('A' for Active; 'I' for Inactive)
    1  A    between atoms: C_6  and  C_8
    2  A    between atoms: C_6  and  C_21
    3  A    between atoms: C_9  and  C_21
                            x       y       z     vdW  Elec       q    Type
                         _______ _______ _______ _____ _____    ______ ____

>  <TORSDO>
F 3

$$$$
=
 OpenBabel10272413593D

 30 35  0  0  1  0  0  0  0  0999 V2000
  186.4680  178.4790  142.4100 C   0  0  1  0  0  3  0  0  0  0  0  0
  184.5690  178.8340  139.1280 C   0  0  0  0  0  2  0  0  0  0  0  0
  183.8710  179.5750  143.0470 N   0  0  0  0  0  2  0  0  0  0  0  0
  186.3450  177.7400  143.7800 C   0  0  1  0  0  3  0  0  0  0  0  0
  187.5910  178.0110  141.6940 O   0  0  0  0  0  0  0  0  0  0  0  0
  189.2610  178.3300  147.2420 C   0  0  0  0  0  2  0  0  0  0  0  0
  188.8890  177.4890  143.6320 C   0  0  1  0  0  3  0  0  0  0  0  0
  185.1780  177.5090  146.1040 C   0  0  0  0  0  2  0  0  0  0  0  0
  183.0420  179.2670  145.3040 O   0  0  0  0  0  1  0  0  0  0  0  0
  188.7510  178.3690  142.3980 C   0  0  0  0  0  2  0  0  0  0  0  0
  187.6910  177.7910  144.5390 C   0  0  2  0  0  3  0  0  0  0  0  0
  183.1750  179.4630  139.0940 C   0  0  0  0  0  2  0  0  0  0  0  0
  186.5420  177.4760  146.7940 C   0  0  2  0  0  3  0  0  0  0  0  0
  188.0810  178.7010  148.1310 C   0  0  0  0  0  2  0  0  0  0  0  0
  185.3860  179.3000  140.3210 C   0  0  0  0  0  2  0  0  0  0  0  0
  183.9070  178.3980  142.1940 C   0  0  2  0  0  3  0  0  0  0  0  0
  182.4760  179.5490  140.4510 C   0  0  0  0  0  2  0  0  0  0  0  0
  185.2570  178.3000  141.4740 C   0  0  2  0  0  3  0  0  0  0  0  0
  185.2940  179.6400  144.9310 O   0  0  0  0  0  0  0  0  0  0  0  0
  184.0990  179.1110  144.4050 C   0  0  2  0  0  0  0  0  0  0  0  0
  185.2520  178.2360  144.7610 C   0  0  1  0  0  0  0  0  0  0  0  0
  186.8670  178.8010  147.3260 N   0  0  0  0  0  2  0  0  0  0  0  0
  188.9950  176.9790  146.5870 C   0  0  0  0  0  2  0  0  0  0  0  0
  182.6720  178.2890  141.2870 C   0  0  2  0  0  3  0  0  0  0  0  0
  181.4330  178.0350  142.1240 C   0  0  0  0  0  1  0  0  0  0  0  0
  187.6510  176.9680  145.8450 C   0  0  2  0  0  3  0  0  0  0  0  0
  188.9560  176.0190  143.2250 C   0  0  0  0  0  2  0  0  0  0  0  0
  190.3740  175.6530  142.8400 C   0  0  0  0  0  2  0  0  0  0  0  0
  191.3470  176.4050  143.7220 C   0  0  0  0  0  2  0  0  0  0  0  0
  191.8790  175.4740  144.7910 C   0  0  0  0  0  1  0  0  0  0  0  0
  1  5  1  6  0  0  0
  1  4  1  0  0  0  0
  2 15  1  0  0  0  0
  3 20  1  0  0  0  0
  4 11  1  0  0  0  0
  4 21  1  0  0  0  0
  5 10  1  0  0  0  0
  6 14  1  0  0  0  0
  7 11  1  0  0  0  0
  8 13  1  0  0  0  0
 10  7  1  0  0  0  0
 11 26  1  0  0  0  0
 12  2  1  0  0  0  0
 12 17  1  0  0  0  0
 13 22  1  0  0  0  0
 15 18  1  0  0  0  0
 16  3  1  0  0  0  0
 17 24  1  0  0  0  0
 18 16  1  0  0  0  0
 18  1  1  0  0  0  0
 20 21  1  0  0  0  0
 20 19  1  0  0  0  0
 20  9  1  0  0  0  0
 21 19  1  0  0  0  0
 21  8  1  0  0  0  0
 22 14  1  0  0  0  0
 23  6  1  0  0  0  0
 24 25  1  0  0  0  0
 24 16  1  0  0  0  0
 26 23  1  0  0  0  0
 26 13  1  0  0  0  0
 27  7  1  0  0  0  0
 28 27  1  0  0  0  0
 28 29  1  0  0  0  0
 29 30  1  0  0  0  0
M  END
>  <MODEL>
3

>  <REMARK>
 VINA RESULT:      -7.8      2.368      3.413
  Name = 
  3 active torsions:
  status: ('A' for Active; 'I' for Inactive)
    1  A    between atoms: C_6  and  C_8
    2  A    between atoms: C_6  and  C_21
    3  A    between atoms: C_9  and  C_21
                            x       y       z     vdW  Elec       q    Type
                         _______ _______ _______ _____ _____    ______ ____

>  <TORSDO>
F 3

$$$$
=
 OpenBabel10272413593D

 30 35  0  0  1  0  0  0  0  0999 V2000
  189.8160  177.9290  142.6560 C   0  0  1  0  0  3  0  0  0  0  0  0
  192.7230  176.9220  140.4120 C   0  0  0  0  0  2  0  0  0  0  0  0
  188.9730  178.3720  139.9270 N   0  0  0  0  0  2  0  0  0  0  0  0
  188.3240  177.5430  142.9140 C   0  0  1  0  0  3  0  0  0  0  0  0
  190.6050  177.6350  143.7890 O   0  0  0  0  0  0  0  0  0  0  0  0
  185.6090  179.7570  145.8410 C   0  0  0  0  0  2  0  0  0  0  0  0
  188.8560  177.9890  145.3790 C   0  0  1  0  0  3  0  0  0  0  0  0
  185.8360  177.5700  142.1260 C   0  0  0  0  0  2  0  0  0  0  0  0
  186.5920  178.4050  139.4750 O   0  0  0  0  0  1  0  0  0  0  0  0
  190.1990  178.4660  144.8450 C   0  0  0  0  0  2  0  0  0  0  0  0
  187.8350  178.1550  144.2470 C   0  0  2  0  0  3  0  0  0  0  0  0
  192.6420  177.1060  138.8950 C   0  0  0  0  0  2  0  0  0  0  0  0
  185.3990  178.0900  143.4950 C   0  0  2  0  0  3  0  0  0  0  0  0
  184.6230  179.9870  144.7030 C   0  0  0  0  0  2  0  0  0  0  0  0
  191.8070  177.8760  141.1610 C   0  0  0  0  0  2  0  0  0  0  0  0
  189.5640  177.0810  140.2420 C   0  0  2  0  0  3  0  0  0  0  0  0
  191.2290  177.3210  138.3490 C   0  0  0  0  0  2  0  0  0  0  0  0
  190.4720  177.1940  141.4720 C   0  0  2  0  0  3  0  0  0  0  0  0
  187.4150  179.2930  141.4450 O   0  0  0  0  0  0  0  0  0  0  0  0
  187.6090  178.3370  140.4290 C   0  0  2  0  0  0  0  0  0  0  0  0
  187.2890  177.9360  141.8290 C   0  0  1  0  0  0  0  0  0  0  0  0
  185.2100  179.5420  143.4420 N   0  0  0  0  0  2  0  0  0  0  0  0
  185.9220  178.2680  145.9450 C   0  0  0  0  0  2  0  0  0  0  0  0
  190.2030  176.4110  139.0160 C   0  0  2  0  0  3  0  0  0  0  0  0
  189.1310  176.0320  138.0120 C   0  0  0  0  0  1  0  0  0  0  0  0
  186.4030  177.6990  144.6030 C   0  0  2  0  0  3  0  0  0  0  0  0
  188.9640  176.5450  145.8600 C   0  0  0  0  0  2  0  0  0  0  0  0
  189.1460  176.5130  147.3630 C   0  0  0  0  0  2  0  0  0  0  0  0
  189.0690  177.9220  147.9110 C   0  0  0  0  0  2  0  0  0  0  0  0
  187.9340  178.0120  148.9090 C   0  0  0  0  0  1  0  0  0  0  0  0
  1  4  1  0  0  0  0
  1  5  1  1  0  0  0
  2 15  1  0  0  0  0
  3 16  1  0  0  0  0
  3 20  1  0  0  0  0
  4 11  1  0  0  0  0
  5 10  1  0  0  0  0
  6 23  1  0  0  0  0
  7 27  1  0  0  0  0
  8 13  1  0  0  0  0
  9 20  1  0  0  0  0
 10  7  1  0  0  0  0
 11 26  1  0  0  0  0
 11  7  1  0  0  0  0
 12  2  1  0  0  0  0
 13 26  1  0  0  0  0
 14  6  1  0  0  0  0
 15 18  1  0  0  0  0
 16 18  1  0  0  0  0
 17 12  1  0  0  0  0
 17 24  1  0  0  0  0
 18  1  1  0  0  0  0
 19 21  1  0  0  0  0
 20 19  1  0  0  0  0
 20 21  1  0  0  0  0
 21  8  1  0  0  0  0
 21  4  1  0  0  0  0
 22 13  1  0  0  0  0
 22 14  1  0  0  0  0
 24 16  1  0  0  0  0
 25 24  1  0  0  0  0
 26 23  1  0  0  0  0
 27 28  1  0  0  0  0
 28 29  1  0  0  0  0
 29 30  1  0  0  0  0
M  END
>  <MODEL>
4

>  <REMARK>
 VINA RESULT:      -7.2      2.046      2.858
  Name = 
  3 active torsions:
  status: ('A' for Active; 'I' for Inactive)
    1  A    between atoms: C_6  and  C_8
    2  A    between atoms: C_6  and  C_21
    3  A    between atoms: C_9  and  C_21
                            x       y       z     vdW  Elec       q    Type
                         _______ _______ _______ _____ _____    ______ ____

>  <TORSDO>
F 3

$$$$
=
 OpenBabel10272413593D

 30 35  0  0  1  0  0  0  0  0999 V2000
  185.1550  178.8370  141.2900 C   0  0  1  0  0  3  0  0  0  0  0  0
  183.6130  178.8140  144.7720 C   0  0  0  0  0  2  0  0  0  0  0  0
  187.3290  179.0540  143.1820 N   0  0  0  0  0  2  0  0  0  0  0  0
  186.1620  178.0080  140.4310 C   0  0  1  0  0  3  0  0  0  0  0  0
  183.8610  178.7770  140.7300 O   0  0  0  0  0  0  0  0  0  0  0  0
  187.5140  179.2240  136.2430 C   0  0  0  0  0  2  0  0  0  0  0  0
  184.6050  178.5470  138.4710 C   0  0  1  0  0  3  0  0  0  0  0  0
  188.6220  177.2850  139.9380 C   0  0  0  0  0  2  0  0  0  0  0  0
  189.5340  178.3640  142.4480 O   0  0  0  0  0  1  0  0  0  0  0  0
  183.8830  179.4220  139.4840 C   0  0  0  0  0  2  0  0  0  0  0  0
  186.0570  178.4130  138.9430 C   0  0  2  0  0  3  0  0  0  0  0  0
  184.4850  178.9940  146.0160 C   0  0  0  0  0  2  0  0  0  0  0  0
  188.4320  177.6200  138.4590 C   0  0  2  0  0  3  0  0  0  0  0  0
  188.9570  179.1630  136.7260 C   0  0  0  0  0  2  0  0  0  0  0  0
  184.2400  179.4270  143.5310 C   0  0  0  0  0  2  0  0  0  0  0  0
  186.3520  178.0000  143.4070 C   0  0  2  0  0  3  0  0  0  0  0  0
  185.9820  178.7760  145.7880 C   0  0  0  0  0  2  0  0  0  0  0  0
  185.0150  178.3620  142.7490 C   0  0  2  0  0  3  0  0  0  0  0  0
  188.0960  179.4230  140.9780 O   0  0  0  0  0  0  0  0  0  0  0  0
  188.1990  178.5930  142.1120 C   0  0  2  0  0  0  0  0  0  0  0  0
  187.6610  178.0860  140.8170 C   0  0  1  0  0  0  0  0  0  0  0  0
  188.9880  178.9440  138.1700 N   0  0  0  0  0  2  0  0  0  0  0  0
  186.8210  177.9010  136.5530 C   0  0  0  0  0  2  0  0  0  0  0  0
  186.2640  177.5830  144.8830 C   0  0  2  0  0  3  0  0  0  0  0  0
  187.5560  176.9130  145.3110 C   0  0  0  0  0  1  0  0  0  0  0  0
  186.9480  177.5330  138.0380 C   0  0  2  0  0  3  0  0  0  0  0  0
  183.9050  177.1960  138.3490 C   0  0  0  0  0  2  0  0  0  0  0  0
  183.2270  177.0840  137.0000 C   0  0  0  0  0  2  0  0  0  0  0  0
  183.7140  175.8400  136.2910 C   0  0  0  0  0  2  0  0  0  0  0  0
  184.3520  174.9050  137.2970 C   0  0  0  0  0  1  0  0  0  0  0  0
  1  5  1  6  0  0  0
  1 18  1  0  0  0  0
  2 12  1  0  0  0  0
  3 16  1  0  0  0  0
  4 21  1  0  0  0  0
  4  1  1  0  0  0  0
  6 23  1  0  0  0  0
  6 14  1  0  0  0  0
  7 11  1  0  0  0  0
  7 10  1  0  0  0  0
  8 21  1  0  0  0  0
 10  5  1  0  0  0  0
 11  4  1  0  0  0  0
 13  8  1  0  0  0  0
 14 22  1  0  0  0  0
 15  2  1  0  0  0  0
 16 24  1  0  0  0  0
 17 12  1  0  0  0  0
 18 16  1  0  0  0  0
 18 15  1  0  0  0  0
 19 20  1  0  0  0  0
 20  9  1  0  0  0  0
 20  3  1  0  0  0  0
 21 19  1  0  0  0  0
 21 20  1  0  0  0  0
 22 13  1  0  0  0  0
 23 26  1  0  0  0  0
 24 25  1  0  0  0  0
 24 17  1  0  0  0  0
 26 13  1  0  0  0  0
 26 11  1  0  0  0  0
 27  7  1  0  0  0  0
 28 27  1  0  0  0  0
 29 28  1  0  0  0  0
 29 30  1  0  0  0  0
M  END
>  <MODEL>
5

>  <REMARK>
 VINA RESULT:      -6.8      1.951      7.474
  Name = 
  3 active torsions:
  status: ('A' for Active; 'I' for Inactive)
    1  A    between atoms: C_6  and  C_8
    2  A    between atoms: C_6  and  C_21
    3  A    between atoms: C_9  and  C_21
                            x       y       z     vdW  Elec       q    Type
                         _______ _______ _______ _____ _____    ______ ____

>  <TORSDO>
F 3

$$$$
=
 OpenBabel10272413593D

 30 35  0  0  1  0  0  0  0  0999 V2000
  188.7310  177.1400  143.5860 C   0  0  1  0  0  3  0  0  0  0  0  0
  191.7820  176.4140  145.7460 C   0  0  0  0  0  2  0  0  0  0  0  0
  187.8080  176.9410  146.3180 N   0  0  0  0  0  2  0  0  0  0  0  0
  187.6170  178.2230  143.4280 C   0  0  1  0  0  3  0  0  0  0  0  0
  189.5510  177.1040  142.4380 O   0  0  0  0  0  0  0  0  0  0  0  0
  184.1350  177.8630  140.4980 C   0  0  0  0  0  2  0  0  0  0  0  0
  187.8360  177.7790  140.9160 C   0  0  1  0  0  3  0  0  0  0  0  0
  185.4420  179.3480  144.3350 C   0  0  0  0  0  2  0  0  0  0  0  0
  185.7200  178.0350  146.8830 O   0  0  0  0  0  1  0  0  0  0  0  0
  188.7790  176.6670  141.3500 C   0  0  0  0  0  2  0  0  0  0  0  0
  186.8770  178.0400  142.0830 C   0  0  2  0  0  3  0  0  0  0  0  0
  191.6370  176.1690  147.2490 C   0  0  0  0  0  2  0  0  0  0  0  0
  184.7930  179.2210  142.9570 C   0  0  2  0  0  3  0  0  0  0  0  0
  183.1740  178.0490  141.6660 C   0  0  0  0  0  2  0  0  0  0  0  0
  190.5090  176.0930  144.9810 C   0  0  0  0  0  2  0  0  0  0  0  0
  188.9520  177.8010  146.0610 C   0  0  2  0  0  3  0  0  0  0  0  0
  190.3060  176.6260  147.8490 C   0  0  0  0  0  2  0  0  0  0  0  0
  189.6760  177.3620  144.7820 C   0  0  2  0  0  3  0  0  0  0  0  0
  185.9830  177.0240  144.8200 O   0  0  0  0  0  0  0  0  0  0  0  0
  186.6310  177.6770  145.8880 C   0  0  2  0  0  0  0  0  0  0  0  0
  186.5330  178.2960  144.5350 C   0  0  1  0  0  0  0  0  0  0  0  0
  183.9180  178.0470  142.9230 N   0  0  0  0  0  2  0  0  0  0  0  0
  185.1360  179.0130  140.4790 C   0  0  0  0  0  2  0  0  0  0  0  0
  189.8500  177.9710  147.2960 C   0  0  2  0  0  3  0  0  0  0  0  0
  189.1110  178.7410  148.3740 C   0  0  0  0  0  1  0  0  0  0  0  0
  185.8480  179.1630  141.8300 C   0  0  2  0  0  3  0  0  0  0  0  0
  188.6320  179.0220  140.5270 C   0  0  0  0  0  2  0  0  0  0  0  0
  189.3470  178.7880  139.2130 C   0  0  0  0  0  2  0  0  0  0  0  0
  188.3390  178.4110  138.1500 C   0  0  0  0  0  2  0  0  0  0  0  0
  188.9840  178.5130  136.7850 C   0  0  0  0  0  1  0  0  0  0  0  0
  1  5  1  6  0  0  0
  1 18  1  0  0  0  0
  2 12  1  0  0  0  0
  4  1  1  0  0  0  0
  4 21  1  0  0  0  0
  6 14  1  0  0  0  0
  7 10  1  0  0  0  0
  7 11  1  0  0  0  0
  8 21  1  0  0  0  0
 10  5  1  0  0  0  0
 11  4  1  0  0  0  0
 12 17  1  0  0  0  0
 13  8  1  0  0  0  0
 14 22  1  0  0  0  0
 15  2  1  0  0  0  0
 16  3  1  0  0  0  0
 16 24  1  0  0  0  0
 18 15  1  0  0  0  0
 18 16  1  0  0  0  0
 19 20  1  0  0  0  0
 20  3  1  0  0  0  0
 20  9  1  0  0  0  0
 21 19  1  0  0  0  0
 21 20  1  0  0  0  0
 22 13  1  0  0  0  0
 23  6  1  0  0  0  0
 23 26  1  0  0  0  0
 24 17  1  0  0  0  0
 24 25  1  0  0  0  0
 26 11  1  0  0  0  0
 26 13  1  0  0  0  0
 27  7  1  0  0  0  0
 28 27  1  0  0  0  0
 29 28  1  0  0  0  0
 30 29  1  0  0  0  0
M  END
>  <MODEL>
6

>  <REMARK>
 VINA RESULT:      -6.8      1.925      6.471
  Name = 
  3 active torsions:
  status: ('A' for Active; 'I' for Inactive)
    1  A    between atoms: C_6  and  C_8
    2  A    between atoms: C_6  and  C_21
    3  A    between atoms: C_9  and  C_21
                            x       y       z     vdW  Elec       q    Type
                         _______ _______ _______ _____ _____    ______ ____

>  <TORSDO>
F 3

$$$$
=
 OpenBabel10272413593D

 30 35  0  0  1  0  0  0  0  0999 V2000
  184.7010  178.6020  143.4700 C   0  0  1  0  0  3  0  0  0  0  0  0
  186.7280  177.3090  146.4240 C   0  0  0  0  0  2  0  0  0  0  0  0
  187.4880  178.7390  142.7130 N   0  0  0  0  0  2  0  0  0  0  0  0
  184.4470  178.2660  141.9660 C   0  0  1  0  0  3  0  0  0  0  0  0
  183.5200  178.4300  144.2220 O   0  0  0  0  0  0  0  0  0  0  0  0
  181.8740  180.8330  139.2030 C   0  0  0  0  0  2  0  0  0  0  0  0
  182.0340  178.9850  142.4350 C   0  0  1  0  0  3  0  0  0  0  0  0
  185.3070  178.2320  139.5020 C   0  0  0  0  0  2  0  0  0  0  0  0
  188.0120  178.7490  140.3460 O   0  0  0  0  0  1  0  0  0  0  0  0
  182.5780  179.3810  143.7990 C   0  0  0  0  0  2  0  0  0  0  0  0
  183.2080  179.0320  141.4490 C   0  0  2  0  0  3  0  0  0  0  0  0
  188.2580  177.3190  146.3890 C   0  0  0  0  0  2  0  0  0  0  0  0
  184.0200  178.9110  139.0350 C   0  0  2  0  0  3  0  0  0  0  0  0
  183.0610  180.9430  138.2540 C   0  0  0  0  0  2  0  0  0  0  0  0
  186.1200  178.3540  145.5030 C   0  0  0  0  0  2  0  0  0  0  0  0
  187.0100  177.4860  143.2750 C   0  0  2  0  0  3  0  0  0  0  0  0
  188.8670  177.4870  144.9960 C   0  0  0  0  0  2  0  0  0  0  0  0
  185.7740  177.7280  144.1490 C   0  0  2  0  0  3  0  0  0  0  0  0
  186.1320  179.8470  141.1270 O   0  0  0  0  0  0  0  0  0  0  0  0
  187.0270  178.7790  141.3350 C   0  0  2  0  0  0  0  0  0  0  0  0
  185.6010  178.5450  140.9690 C   0  0  1  0  0  0  0  0  0  0  0  0
  184.2450  180.3490  138.8690 N   0  0  0  0  0  2  0  0  0  0  0  0
  181.5920  179.3620  139.4900 C   0  0  0  0  0  2  0  0  0  0  0  0
  188.1320  176.6720  143.9380 C   0  0  2  0  0  3  0  0  0  0  0  0
  189.1170  176.1940  142.8890 C   0  0  0  0  0  1  0  0  0  0  0  0
  182.8450  178.6370  140.0000 C   0  0  2  0  0  3  0  0  0  0  0  0
  181.3880  177.6040  142.5060 C   0  0  0  0  0  2  0  0  0  0  0  0
  179.9860  177.6590  141.9340 C   0  0  0  0  0  2  0  0  0  0  0  0
  179.9860  177.0700  140.5410 C   0  0  0  0  0  2  0  0  0  0  0  0
  180.2450  175.5810  140.6240 C   0  0  0  0  0  1  0  0  0  0  0  0
  1 18  1  0  0  0  0
  1  5  1  1  0  0  0
  3 16  1  0  0  0  0
  4  1  1  0  0  0  0
  6 23  1  0  0  0  0
  7 27  1  0  0  0  0
  7 10  1  0  0  0  0
  8 21  1  0  0  0  0
  9 20  1  0  0  0  0
 10  5  1  0  0  0  0
 11  4  1  0  0  0  0
 11  7  1  0  0  0  0
 12  2  1  0  0  0  0
 13  8  1  0  0  0  0
 13 26  1  0  0  0  0
 14 22  1  0  0  0  0
 14  6  1  0  0  0  0
 15  2  1  0  0  0  0
 16 24  1  0  0  0  0
 16 18  1  0  0  0  0
 17 12  1  0  0  0  0
 18 15  1  0  0  0  0
 19 20  1  0  0  0  0
 20  3  1  0  0  0  0
 21 19  1  0  0  0  0
 21 20  1  0  0  0  0
 21  4  1  0  0  0  0
 22 13  1  0  0  0  0
 23 26  1  0  0  0  0
 24 17  1  0  0  0  0
 25 24  1  0  0  0  0
 26 11  1  0  0  0  0
 28 27  1  0  0  0  0
 29 30  1  0  0  0  0
 29 28  1  0  0  0  0
M  END
>  <MODEL>
7

>  <REMARK>
 VINA RESULT:      -6.1      2.859      7.282
  Name = 
  3 active torsions:
  status: ('A' for Active; 'I' for Inactive)
    1  A    between atoms: C_6  and  C_8
    2  A    between atoms: C_6  and  C_21
    3  A    between atoms: C_9  and  C_21
                            x       y       z     vdW  Elec       q    Type
                         _______ _______ _______ _____ _____    ______ ____

>  <TORSDO>
F 3

$$$$
=
 OpenBabel10272413593D

 30 35  0  0  1  0  0  0  0  0999 V2000
  185.8940  176.3020  136.5860 C   0  0  1  0  0  3  0  0  0  0  0  0
  182.5780  177.8220  137.6830 C   0  0  0  0  0  2  0  0  0  0  0  0
  186.5070  178.7560  137.9860 N   0  0  0  0  0  2  0  0  0  0  0  0
  187.2220  175.7690  137.2120 C   0  0  1  0  0  3  0  0  0  0  0  0
  185.1900  175.2550  135.9540 O   0  0  0  0  0  0  0  0  0  0  0  0
  190.7950  174.3610  134.7440 C   0  0  0  0  0  2  0  0  0  0  0  0
  187.1370  174.0030  135.3600 C   0  0  1  0  0  3  0  0  0  0  0  0
  189.4960  176.2620  138.3960 C   0  0  0  0  0  2  0  0  0  0  0  0
  188.7200  178.9800  138.9480 O   0  0  0  0  0  1  0  0  0  0  0  0
  185.9450  174.8050  134.8590 C   0  0  0  0  0  2  0  0  0  0  0  0
  188.0220  174.9630  136.1640 C   0  0  2  0  0  3  0  0  0  0  0  0
  182.5340  179.1790  138.3880 C   0  0  0  0  0  2  0  0  0  0  0  0
  190.2240  175.3790  137.3820 C   0  0  2  0  0  3  0  0  0  0  0  0
  191.6650  175.3640  135.4900 C   0  0  0  0  0  2  0  0  0  0  0  0
  183.8170  177.6590  136.8180 C   0  0  0  0  0  2  0  0  0  0  0  0
  185.5980  177.8260  138.6370 C   0  0  2  0  0  3  0  0  0  0  0  0
  183.8730  179.6500  138.9580 C   0  0  0  0  0  2  0  0  0  0  0  0
  184.9150  176.9290  137.5970 C   0  0  2  0  0  3  0  0  0  0  0  0
  188.4340  177.8890  136.9290 O   0  0  0  0  0  0  0  0  0  0  0  0
  187.8470  178.2230  138.1660 C   0  0  2  0  0  0  0  0  0  0  0  0
  188.1930  176.8150  137.8180 C   0  0  1  0  0  0  0  0  0  0  0  0
  190.8300  176.2090  136.3390 N   0  0  0  0  0  2  0  0  0  0  0  0
  190.0660  173.4770  135.7510 C   0  0  0  0  0  2  0  0  0  0  0  0
  184.6510  178.5220  139.6250 C   0  0  2  0  0  3  0  0  0  0  0  0
  185.4370  179.0710  140.8000 C   0  0  0  0  0  1  0  0  0  0  0  0
  189.2850  174.3130  136.7730 C   0  0  2  0  0  3  0  0  0  0  0  0
  186.6610  172.8150  136.1910 C   0  0  0  0  0  2  0  0  0  0  0  0
  185.8660  171.8620  135.3230 C   0  0  0  0  0  2  0  0  0  0  0  0
  184.5440  171.5560  135.9900 C   0  0  0  0  0  2  0  0  0  0  0  0
  184.4630  172.2920  137.3100 C   0  0  0  0  0  1  0  0  0  0  0  0
  1  5  1  1  0  0  0
  1  4  1  0  0  0  0
  1 18  1  0  0  0  0
  2 12  1  0  0  0  0
  3 20  1  0  0  0  0
  3 16  1  0  0  0  0
  4 21  1  0  0  0  0
  6 14  1  0  0  0  0
  6 23  1  0  0  0  0
  7 11  1  0  0  0  0
  7 27  1  0  0  0  0
 10  7  1  0  0  0  0
 10  5  1  0  0  0  0
 11 26  1  0  0  0  0
 11  4  1  0  0  0  0
 12 17  1  0  0  0  0
 13  8  1  0  0  0  0
 14 22  1  0  0  0  0
 15 18  1  0  0  0  0
 15  2  1  0  0  0  0
 16 24  1  0  0  0  0
 17 24  1  0  0  0  0
 18 16  1  0  0  0  0
 19 21  1  0  0  0  0
 19 20  1  0  0  0  0
 20  9  1  0  0  0  0
 21 20  1  0  0  0  0
 21  8  1  0  0  0  0
 22 13  1  0  0  0  0
 23 26  1  0  0  0  0
 24 25  1  0  0  0  0
 26 13  1  0  0  0  0
 28 29  1  0  0  0  0
 28 27  1  0  0  0  0
 29 30  1  0  0  0  0
M  END
>  <MODEL>
8

>  <REMARK>
 VINA RESULT:      -6.0      4.303      8.125
  Name = 
  3 active torsions:
  status: ('A' for Active; 'I' for Inactive)
    1  A    between atoms: C_6  and  C_8
    2  A    between atoms: C_6  and  C_21
    3  A    between atoms: C_9  and  C_21
                            x       y       z     vdW  Elec       q    Type
                         _______ _______ _______ _____ _____    ______ ____

>  <TORSDO>
F 3

$$$$
=
 OpenBabel10272413593D

 30 35  0  0  1  0  0  0  0  0999 V2000
  186.1910  178.7880  141.1880 C   0  0  1  0  0  3  0  0  0  0  0  0
  183.5320  179.3250  138.5160 C   0  0  0  0  0  2  0  0  0  0  0  0
  183.7060  179.3300  142.5610 N   0  0  0  0  0  2  0  0  0  0  0  0
  186.4940  177.8370  142.3900 C   0  0  1  0  0  3  0  0  0  0  0  0
  187.1590  178.6270  140.1740 O   0  0  0  0  0  0  0  0  0  0  0  0
  190.0570  178.3610  145.1950 C   0  0  0  0  0  2  0  0  0  0  0  0
  188.9390  178.0350  141.6560 C   0  0  1  0  0  3  0  0  0  0  0  0
  185.9560  177.0630  144.8240 C   0  0  0  0  0  2  0  0  0  0  0  0
  183.4870  178.5470  144.8450 O   0  0  0  0  0  1  0  0  0  0  0  0
  188.4000  179.0590  140.6680 C   0  0  0  0  0  2  0  0  0  0  0  0
  187.9650  177.9920  142.8390 C   0  0  2  0  0  3  0  0  0  0  0  0
  182.1030  179.7140  138.9000 C   0  0  0  0  0  2  0  0  0  0  0  0
  187.4380  177.1500  145.1870 C   0  0  2  0  0  3  0  0  0  0  0  0
  189.0870  178.3920  146.3690 C   0  0  0  0  0  2  0  0  0  0  0  0
  184.5460  179.7300  139.5720 C   0  0  0  0  0  2  0  0  0  0  0  0
  183.6840  178.3200  141.5150 C   0  0  2  0  0  3  0  0  0  0  0  0
  181.7440  179.4730  140.3670 C   0  0  0  0  0  2  0  0  0  0  0  0
  184.8240  178.5580  140.5170 C   0  0  2  0  0  3  0  0  0  0  0  0
  185.5190  179.3380  144.0750 O   0  0  0  0  0  0  0  0  0  0  0  0
  184.3090  178.7070  143.7280 C   0  0  2  0  0  0  0  0  0  0  0  0
  185.6140  177.9900  143.6570 C   0  0  1  0  0  0  0  0  0  0  0  0
  187.7120  178.4120  145.8760 N   0  0  0  0  0  2  0  0  0  0  0  0
  189.8120  177.1020  144.3710 C   0  0  0  0  0  2  0  0  0  0  0  0
  182.2910  178.1500  140.8900 C   0  0  2  0  0  3  0  0  0  0  0  0
  181.3300  177.5700  141.9100 C   0  0  0  0  0  1  0  0  0  0  0  0
  188.3420  176.9830  143.9450 C   0  0  2  0  0  3  0  0  0  0  0  0
  189.0900  176.6770  140.9760 C   0  0  0  0  0  2  0  0  0  0  0  0
  190.4310  176.5940  140.2780 C   0  0  0  0  0  2  0  0  0  0  0  0
  190.2270  176.1640  138.8420 C   0  0  0  0  0  2  0  0  0  0  0  0
  190.0890  177.3900  137.9650 C   0  0  0  0  0  1  0  0  0  0  0  0
  1  5  1  6  0  0  0
  1  4  1  0  0  0  0
  2 12  1  0  0  0  0
  2 15  1  0  0  0  0
  3 20  1  0  0  0  0
  4 11  1  0  0  0  0
  4 21  1  0  0  0  0
  5 10  1  0  0  0  0
  6 14  1  0  0  0  0
  7 11  1  0  0  0  0
  8 13  1  0  0  0  0
 10  7  1  0  0  0  0
 11 26  1  0  0  0  0
 12 17  1  0  0  0  0
 13 22  1  0  0  0  0
 15 18  1  0  0  0  0
 16  3  1  0  0  0  0
 17 24  1  0  0  0  0
 18  1  1  0  0  0  0
 18 16  1  0  0  0  0
 20 19  1  0  0  0  0
 20  9  1  0  0  0  0
 21 20  1  0  0  0  0
 21 19  1  0  0  0  0
 21  8  1  0  0  0  0
 22 14  1  0  0  0  0
 23  6  1  0  0  0  0
 24 16  1  0  0  0  0
 24 25  1  0  0  0  0
 26 23  1  0  0  0  0
 26 13  1  0  0  0  0
 27  7  1  0  0  0  0
 28 27  1  0  0  0  0
 29 28  1  0  0  0  0
 30 29  1  0  0  0  0
M  END
>  <MODEL>
9

>  <REMARK>
 VINA RESULT:      -5.8      2.184      4.187
  Name = 
  3 active torsions:
  status: ('A' for Active; 'I' for Inactive)
    1  A    between atoms: C_6  and  C_8
    2  A    between atoms: C_6  and  C_21
    3  A    between atoms: C_9  and  C_21
                            x       y       z     vdW  Elec       q    Type
                         _______ _______ _______ _____ _____    ______ ____

>  <TORSDO>
F 3

$$$$
