=
 OpenBabel10272413453D

 30 32  0  0  1  0  0  0  0  0999 V2000
  183.5140  177.7860  139.4060 C   0  0  1  0  0  3  0  0  0  0  0  0
  182.8940  175.9930  137.7100 C   0  0  2  0  0  3  0  0  0  0  0  0
  184.8370  178.2360  138.9950 N   0  0  0  0  0  2  0  0  0  0  0  0
  185.5460  177.1690  135.4510 C   0  0  0  0  0  3  0  0  0  0  0  0
  184.8310  177.3790  136.6360 C   0  0  0  0  0  0  0  0  0  0  0  0
  186.8080  178.4070  137.6030 C   0  0  0  0  0  3  0  0  0  0  0  0
  185.4730  178.0080  137.7310 C   0  0  0  0  0  0  0  0  0  0  0  0
  183.3860  176.9720  136.6320 C   0  0  2  0  0  3  0  0  0  0  0  0
  186.8780  177.5680  135.3400 C   0  0  0  0  0  3  0  0  0  0  0  0
  187.5090  178.1890  136.4170 C   0  0  0  0  0  3  0  0  0  0  0  0
  183.3380  176.2810  139.1510 C   0  0  2  0  0  3  0  0  0  0  0  0
  182.0260  178.7590  141.2580 C   0  0  0  0  0  0  0  0  0  0  0  0
  181.8660  179.1340  142.5970 C   0  0  0  0  0  3  0  0  0  0  0  0
  180.6720  179.0140  140.1650 Cl  0  0  0  0  0  0  0  0  0  0  0  0
  184.2900  178.0340  141.7530 C   0  0  0  0  0  3  0  0  0  0  0  0
  185.1330  178.2410  143.9720 F   0  0  0  0  0  0  0  0  0  0  0  0
  183.2520  178.2010  140.8290 C   0  0  0  0  0  0  0  0  0  0  0  0
  182.9090  178.9590  143.5090 C   0  0  0  0  0  3  0  0  0  0  0  0
  184.1200  178.4100  143.0870 C   0  0  0  0  0  0  0  0  0  0  0  0
  181.1070  178.1150  136.8840 C   0  0  0  0  0  1  0  0  0  0  0  0
  182.4060  178.0280  136.1040 C   0  0  2  0  0  3  0  0  0  0  0  0
  182.1520  177.8880  134.6060 C   0  0  0  0  0  2  0  0  0  0  0  0
  181.2170  176.8830  134.3460 O   0  0  0  0  0  1  0  0  0  0  0  0
  182.3760  175.7260  140.0380 O   0  0  0  0  0  0  0  0  0  0  0  0
  179.9820  175.2500  139.2280 C   0  0  0  0  0  3  0  0  0  0  0  0
  181.1030  175.4730  139.6090 C   0  0  0  0  0  0  0  0  0  0  0  0
  183.2750  174.5760  137.3030 C   0  0  0  0  0  2  0  0  0  0  0  0
  181.3040  173.9530  136.1660 O   0  0  0  0  0  0  0  0  0  0  0  0
  182.5090  174.1290  136.0990 C   0  0  0  0  0  0  0  0  0  0  0  0
  183.2150  173.9360  134.8010 C   0  0  0  0  0  1  0  0  0  0  0  0
  1 17  1  1  0  0  0
  2 27  1  6  0  0  0
  2 11  1  0  0  0  0
  3  1  1  0  0  0  0
  4  5  1  0  0  0  0
  5  7  2  0  0  0  0
  6  7  1  0  0  0  0
  7  3  1  0  0  0  0
  8 21  1  1  0  0  0
  8  5  1  0  0  0  0
  8  2  1  0  0  0  0
  9  4  2  0  0  0  0
  9 10  1  0  0  0  0
 10  6  2  0  0  0  0
 11  1  1  0  0  0  0
 11 24  1  1  0  0  0
 12 13  1  0  0  0  0
 13 18  2  0  0  0  0
 14 12  1  0  0  0  0
 15 19  2  0  0  0  0
 17 12  2  0  0  0  0
 17 15  1  0  0  0  0
 19 18  1  0  0  0  0
 19 16  1  0  0  0  0
 21 20  1  1  0  0  0
 22 21  1  0  0  0  0
 23 22  1  0  0  0  0
 25 26  3  0  0  0  0
 26 24  1  0  0  0  0
 29 28  2  0  0  0  0
 29 27  1  0  0  0  0
 30 29  1  0  0  0  0
M  END
>  <MODEL>
1

>  <REMARK>
 VINA RESULT:      -4.7      0.000      0.000
  Name = 
  7 active torsions:
  status: ('A' for Active; 'I' for Inactive)
    1  A    between atoms: C_1  and  C_22
    2  A    between atoms: C_4  and  C_25
    3  A    between atoms: C_7  and  C_30
    4  A    between atoms: O_10  and  C_23
    5  A    between atoms: O_10  and  C_26
    6  A    between atoms: C_11  and  C_25
    7  A    between atoms: C_13  and  C_30
                            x       y       z     vdW  Elec       q    Type
                         _______ _______ _______ _____ _____    ______ ____

>  <TORSDO>
F 7

$$$$
=
 OpenBabel10272413453D

 30 32  0  0  1  0  0  0  0  0999 V2000
  191.1250  175.1910  136.8520 C   0  0  1  0  0  3  0  0  0  0  0  0
  189.3920  176.7300  137.9050 C   0  0  2  0  0  3  0  0  0  0  0  0
  190.4450  173.9090  136.7230 N   0  0  0  0  0  2  0  0  0  0  0  0
  186.7170  174.3610  137.0370 C   0  0  0  0  0  3  0  0  0  0  0  0
  188.0720  174.6990  136.9280 C   0  0  0  0  0  0  0  0  0  0  0  0
  188.6110  172.3330  136.7980 C   0  0  0  0  0  3  0  0  0  0  0  0
  189.0350  173.6670  136.8060 C   0  0  0  0  0  0  0  0  0  0  0  0
  188.3990  176.1620  136.8780 C   0  0  2  0  0  3  0  0  0  0  0  0
  186.3100  173.0270  137.0320 C   0  0  0  0  0  3  0  0  0  0  0  0
  187.2580  172.0120  136.9110 C   0  0  0  0  0  3  0  0  0  0  0  0
  190.6820  175.9250  138.1270 C   0  0  2  0  0  3  0  0  0  0  0  0
  193.3840  175.4910  135.6690 C   0  0  0  0  0  0  0  0  0  0  0  0
  194.7620  175.2520  135.6340 C   0  0  0  0  0  3  0  0  0  0  0  0
  192.6750  176.4070  134.3460 Cl  0  0  0  0  0  0  0  0  0  0  0  0
  193.2440  174.2640  137.7600 C   0  0  0  0  0  3  0  0  0  0  0  0
  195.2180  173.3260  138.7060 F   0  0  0  0  0  0  0  0  0  0  0  0
  192.6130  174.9930  136.7450 C   0  0  0  0  0  0  0  0  0  0  0  0
  195.3790  174.5240  136.6550 C   0  0  0  0  0  3  0  0  0  0  0  0
  194.6200  174.0310  137.7170 C   0  0  0  0  0  0  0  0  0  0  0  0
  189.4400  177.8240  135.2280 C   0  0  0  0  0  1  0  0  0  0  0  0
  188.3460  176.8030  135.4850 C   0  0  2  0  0  3  0  0  0  0  0  0
  186.9660  177.3640  135.1550 C   0  0  0  0  0  2  0  0  0  0  0  0
  186.4160  178.0250  136.2560 O   0  0  0  0  0  1  0  0  0  0  0  0
  191.6950  176.8150  138.5770 O   0  0  0  0  0  0  0  0  0  0  0  0
  191.9090  177.3930  141.0740 C   0  0  0  0  0  3  0  0  0  0  0  0
  191.8080  177.1210  139.9050 C   0  0  0  0  0  0  0  0  0  0  0  0
  188.6660  176.9560  139.2240 C   0  0  0  0  0  2  0  0  0  0  0  0
  188.9470  179.2500  138.7550 O   0  0  0  0  0  0  0  0  0  0  0  0
  188.5920  178.4090  139.5640 C   0  0  0  0  0  0  0  0  0  0  0  0
  188.0430  178.8350  140.8820 C   0  0  0  0  0  1  0  0  0  0  0  0
  1 17  1  1  0  0  0
  1 11  1  0  0  0  0
  2 11  1  0  0  0  0
  2 27  1  1  0  0  0
  3  7  1  0  0  0  0
  3  1  1  0  0  0  0
  5  4  2  0  0  0  0
  6  7  2  0  0  0  0
  6 10  1  0  0  0  0
  7  5  1  0  0  0  0
  8 21  1  6  0  0  0
  8  5  1  0  0  0  0
  8  2  1  0  0  0  0
  9  4  1  0  0  0  0
 10  9  2  0  0  0  0
 11 24  1  6  0  0  0
 12 17  1  0  0  0  0
 13 12  2  0  0  0  0
 13 18  1  0  0  0  0
 14 12  1  0  0  0  0
 17 15  2  0  0  0  0
 18 19  2  0  0  0  0
 19 15  1  0  0  0  0
 19 16  1  0  0  0  0
 21 20  1  1  0  0  0
 22 21  1  0  0  0  0
 22 23  1  0  0  0  0
 24 26  1  0  0  0  0
 26 25  3  0  0  0  0
 27 29  1  0  0  0  0
 28 29  2  0  0  0  0
 29 30  1  0  0  0  0
M  END
>  <MODEL>
2

>  <REMARK>
 VINA RESULT:      -4.6      6.276      9.248
  Name = 
  7 active torsions:
  status: ('A' for Active; 'I' for Inactive)
    1  A    between atoms: C_1  and  C_22
    2  A    between atoms: C_4  and  C_25
    3  A    between atoms: C_7  and  C_30
    4  A    between atoms: O_10  and  C_23
    5  A    between atoms: O_10  and  C_26
    6  A    between atoms: C_11  and  C_25
    7  A    between atoms: C_13  and  C_30
                            x       y       z     vdW  Elec       q    Type
                         _______ _______ _______ _____ _____    ______ ____

>  <TORSDO>
F 7

$$$$
=
 OpenBabel10272413453D

 30 32  0  0  1  0  0  0  0  0999 V2000
  185.6440  176.4590  136.9050 C   0  0  1  0  0  3  0  0  0  0  0  0
  183.2320  177.0800  137.4310 C   0  0  2  0  0  3  0  0  0  0  0  0
  185.6660  175.0030  136.9560 N   0  0  0  0  0  2  0  0  0  0  0  0
  182.1630  173.6280  136.7530 C   0  0  0  0  0  3  0  0  0  0  0  0
  183.2050  174.5630  136.7320 C   0  0  0  0  0  0  0  0  0  0  0  0
  184.7810  172.7590  137.1340 C   0  0  0  0  0  3  0  0  0  0  0  0
  184.5370  174.1210  136.9260 C   0  0  0  0  0  0  0  0  0  0  0  0
  182.8290  175.9840  136.4320 C   0  0  2  0  0  3  0  0  0  0  0  0
  182.4220  172.2740  136.9660 C   0  0  0  0  0  3  0  0  0  0  0  0
  183.7330  171.8390  137.1550 C   0  0  0  0  0  3  0  0  0  0  0  0
  184.6770  177.0340  137.9510 C   0  0  2  0  0  3  0  0  0  0  0  0
  187.6150  177.8610  136.0450 C   0  0  0  0  0  0  0  0  0  0  0  0
  188.9320  178.3050  136.2040 C   0  0  0  0  0  3  0  0  0  0  0  0
  186.7280  178.4100  134.6300 Cl  0  0  0  0  0  0  0  0  0  0  0  0
  187.8140  176.5930  138.1060 C   0  0  0  0  0  3  0  0  0  0  0  0
  189.8600  176.6450  139.3250 F   0  0  0  0  0  0  0  0  0  0  0  0
  187.0470  176.9950  137.0070 C   0  0  0  0  0  0  0  0  0  0  0  0
  189.6870  177.8960  137.3070 C   0  0  0  0  0  3  0  0  0  0  0  0
  189.1280  177.0410  138.2570 C   0  0  0  0  0  0  0  0  0  0  0  0
  183.2560  177.7440  134.6190 C   0  0  0  0  0  1  0  0  0  0  0  0
  182.7580  176.3470  134.9420 C   0  0  2  0  0  3  0  0  0  0  0  0
  181.3770  176.0920  134.3460 C   0  0  0  0  0  2  0  0  0  0  0  0
  180.3690  176.5110  135.2170 O   0  0  0  0  0  1  0  0  0  0  0  0
  185.0610  178.3490  138.3280 O   0  0  0  0  0  0  0  0  0  0  0  0
  185.2000  179.0080  140.8110 C   0  0  0  0  0  3  0  0  0  0  0  0
  185.1340  178.6990  139.6480 C   0  0  0  0  0  0  0  0  0  0  0  0
  182.2440  177.0830  138.5900 C   0  0  0  0  0  2  0  0  0  0  0  0
  181.3910  178.8670  139.8740 O   0  0  0  0  0  0  0  0  0  0  0  0
  181.6040  178.4230  138.7580 C   0  0  0  0  0  0  0  0  0  0  0  0
  181.2620  179.2370  137.5590 C   0  0  0  0  0  1  0  0  0  0  0  0
  1  3  1  0  0  0  0
  1 17  1  1  0  0  0
  1 11  1  0  0  0  0
  2 11  1  0  0  0  0
  2 27  1  1  0  0  0
  4  9  1  0  0  0  0
  5  4  2  0  0  0  0
  5  7  1  0  0  0  0
  6 10  1  0  0  0  0
  7  3  1  0  0  0  0
  7  6  2  0  0  0  0
  8 21  1  6  0  0  0
  8  5  1  0  0  0  0
  8  2  1  0  0  0  0
  9 10  2  0  0  0  0
 11 24  1  6  0  0  0
 12 13  2  0  0  0  0
 12 17  1  0  0  0  0
 13 18  1  0  0  0  0
 14 12  1  0  0  0  0
 15 19  1  0  0  0  0
 17 15  2  0  0  0  0
 18 19  2  0  0  0  0
 19 16  1  0  0  0  0
 21 20  1  1  0  0  0
 22 21  1  0  0  0  0
 22 23  1  0  0  0  0
 24 26  1  0  0  0  0
 26 25  3  0  0  0  0
 27 29  1  0  0  0  0
 29 28  2  0  0  0  0
 30 29  1  0  0  0  0
M  END
>  <MODEL>
3

>  <REMARK>
 VINA RESULT:      -4.2      2.823      5.502
  Name = 
  7 active torsions:
  status: ('A' for Active; 'I' for Inactive)
    1  A    between atoms: C_1  and  C_22
    2  A    between atoms: C_4  and  C_25
    3  A    between atoms: C_7  and  C_30
    4  A    between atoms: O_10  and  C_23
    5  A    between atoms: O_10  and  C_26
    6  A    between atoms: C_11  and  C_25
    7  A    between atoms: C_13  and  C_30
                            x       y       z     vdW  Elec       q    Type
                         _______ _______ _______ _____ _____    ______ ____

>  <TORSDO>
F 7

$$$$
=
 OpenBabel10272413453D

 30 32  0  0  1  0  0  0  0  0999 V2000
  183.4900  177.1260  137.9700 C   0  0  1  0  0  3  0  0  0  0  0  0
  183.9550  174.7330  137.2380 C   0  0  2  0  0  3  0  0  0  0  0  0
  184.8030  177.7550  138.0190 N   0  0  0  0  0  2  0  0  0  0  0  0
  187.3170  175.7000  136.1050 C   0  0  0  0  0  3  0  0  0  0  0  0
  186.0780  176.1190  136.6060 C   0  0  0  0  0  0  0  0  0  0  0  0
  187.1960  177.9610  137.7270 C   0  0  0  0  0  3  0  0  0  0  0  0
  186.0160  177.2690  137.4310 C   0  0  0  0  0  0  0  0  0  0  0  0
  184.8750  175.3380  136.1640 C   0  0  2  0  0  3  0  0  0  0  0  0
  188.4850  176.3990  136.4120 C   0  0  0  0  0  3  0  0  0  0  0  0
  188.4240  177.5320  137.2230 C   0  0  0  0  0  3  0  0  0  0  0  0
  183.5660  175.6540  138.4040 C   0  0  2  0  0  3  0  0  0  0  0  0
  181.3740  178.5670  138.1680 C   0  0  0  0  0  0  0  0  0  0  0  0
  180.5090  179.3260  138.9630 C   0  0  0  0  0  3  0  0  0  0  0  0
  181.0090  178.4310  136.4540 Cl  0  0  0  0  0  0  0  0  0  0  0  0
  182.7350  178.1020  140.1250 C   0  0  0  0  0  3  0  0  0  0  0  0
  182.1020  179.0050  142.2370 F   0  0  0  0  0  0  0  0  0  0  0  0
  182.5010  177.9460  138.7540 C   0  0  0  0  0  0  0  0  0  0  0  0
  180.7530  179.4730  140.3310 C   0  0  0  0  0  3  0  0  0  0  0  0
  181.8650  178.8610  140.9110 C   0  0  0  0  0  0  0  0  0  0  0  0
  184.5140  177.2370  134.4830 C   0  0  0  0  0  1  0  0  0  0  0  0
  184.2490  175.7850  134.8370 C   0  0  2  0  0  3  0  0  0  0  0  0
  182.7630  175.4490  134.7520 C   0  0  0  0  0  2  0  0  0  0  0  0
  182.5690  174.1230  134.3560 O   0  0  0  0  0  1  0  0  0  0  0  0
  182.3200  175.2150  138.9270 O   0  0  0  0  0  0  0  0  0  0  0  0
  180.3950  174.5690  137.3470 C   0  0  0  0  0  3  0  0  0  0  0  0
  181.2980  174.8710  138.0860 C   0  0  0  0  0  0  0  0  0  0  0  0
  184.5790  173.4440  137.7560 C   0  0  0  0  0  2  0  0  0  0  0  0
  182.9610  171.7970  137.2740 O   0  0  0  0  0  0  0  0  0  0  0  0
  184.0630  172.2520  137.0160 C   0  0  0  0  0  0  0  0  0  0  0  0
  184.8810  171.6420  135.9310 C   0  0  0  0  0  1  0  0  0  0  0  0
  1  3  1  0  0  0  0
  1 11  1  0  0  0  0
  1 17  1  1  0  0  0
  2 27  1  1  0  0  0
  2 11  1  0  0  0  0
  4  9  2  0  0  0  0
  4  5  1  0  0  0  0
  5  7  2  0  0  0  0
  7  6  1  0  0  0  0
  7  3  1  0  0  0  0
  8 21  1  1  0  0  0
  8  5  1  0  0  0  0
  8  2  1  0  0  0  0
  9 10  1  0  0  0  0
 10  6  2  0  0  0  0
 11 24  1  6  0  0  0
 12 17  2  0  0  0  0
 12 13  1  0  0  0  0
 13 18  2  0  0  0  0
 14 12  1  0  0  0  0
 15 19  2  0  0  0  0
 17 15  1  0  0  0  0
 18 19  1  0  0  0  0
 19 16  1  0  0  0  0
 21 20  1  1  0  0  0
 22 21  1  0  0  0  0
 23 22  1  0  0  0  0
 25 26  3  0  0  0  0
 26 24  1  0  0  0  0
 29 28  2  0  0  0  0
 29 27  1  0  0  0  0
 30 29  1  0  0  0  0
M  END
>  <MODEL>
4

>  <REMARK>
 VINA RESULT:      -4.0      1.944      2.565
  Name = 
  7 active torsions:
  status: ('A' for Active; 'I' for Inactive)
    1  A    between atoms: C_1  and  C_22
    2  A    between atoms: C_4  and  C_25
    3  A    between atoms: C_7  and  C_30
    4  A    between atoms: O_10  and  C_23
    5  A    between atoms: O_10  and  C_26
    6  A    between atoms: C_11  and  C_25
    7  A    between atoms: C_13  and  C_30
                            x       y       z     vdW  Elec       q    Type
                         _______ _______ _______ _____ _____    ______ ____

>  <TORSDO>
F 7

$$$$
=
 OpenBabel10272413453D

 30 32  0  0  1  0  0  0  0  0999 V2000
  186.6140  175.8550  136.3440 C   0  0  1  0  0  3  0  0  0  0  0  0
  184.7600  177.3280  137.2790 C   0  0  2  0  0  3  0  0  0  0  0  0
  186.1080  174.4970  136.4870 N   0  0  0  0  0  2  0  0  0  0  0  0
  182.3820  174.5340  137.0490 C   0  0  0  0  0  3  0  0  0  0  0  0
  183.6680  175.0110  136.7670 C   0  0  0  0  0  0  0  0  0  0  0  0
  184.5150  172.7440  136.9800 C   0  0  0  0  0  3  0  0  0  0  0  0
  184.7530  174.1010  136.7320 C   0  0  0  0  0  0  0  0  0  0  0  0
  183.7880  176.4730  136.4500 C   0  0  2  0  0  3  0  0  0  0  0  0
  182.1610  173.1790  137.2980 C   0  0  0  0  0  3  0  0  0  0  0  0
  183.2290  172.2830  137.2620 C   0  0  0  0  0  3  0  0  0  0  0  0
  186.1590  176.7400  137.5150 C   0  0  2  0  0  3  0  0  0  0  0  0
  188.7840  176.7150  135.2750 C   0  0  0  0  0  0  0  0  0  0  0  0
  190.1720  176.6150  135.1290 C   0  0  0  0  0  3  0  0  0  0  0  0
  187.9470  177.9570  134.3530 Cl  0  0  0  0  0  0  0  0  0  0  0  0
  188.8340  174.8580  136.8390 C   0  0  0  0  0  3  0  0  0  0  0  0
  190.9140  173.8240  137.3690 F   0  0  0  0  0  0  0  0  0  0  0  0
  188.1050  175.8270  136.1410 C   0  0  0  0  0  0  0  0  0  0  0  0
  190.8880  175.6440  135.8330 C   0  0  0  0  0  3  0  0  0  0  0  0
  190.2200  174.7660  136.6870 C   0  0  0  0  0  0  0  0  0  0  0  0
  184.7040  177.6190  134.3490 C   0  0  0  0  0  1  0  0  0  0  0  0
  183.5570  176.8500  134.9800 C   0  0  2  0  0  3  0  0  0  0  0  0
  182.2220  177.5560  134.7640 C   0  0  0  0  0  2  0  0  0  0  0  0
  181.5960  177.8300  135.9820 O   0  0  0  0  0  1  0  0  0  0  0  0
  187.0680  177.8130  137.7230 O   0  0  0  0  0  0  0  0  0  0  0  0
  188.4920  177.9190  139.8630 C   0  0  0  0  0  3  0  0  0  0  0  0
  187.8240  177.8700  138.8610 C   0  0  0  0  0  0  0  0  0  0  0  0
  184.0980  177.6890  138.6020 C   0  0  0  0  0  2  0  0  0  0  0  0
  184.8890  179.8580  139.0830 O   0  0  0  0  0  0  0  0  0  0  0  0
  183.9400  179.1680  138.7480 C   0  0  0  0  0  0  0  0  0  0  0  0
  182.6300  179.8080  138.4440 C   0  0  0  0  0  1  0  0  0  0  0  0
  1 17  1  1  0  0  0
  1  3  1  0  0  0  0
  1 11  1  0  0  0  0
  2 11  1  0  0  0  0
  2 27  1  1  0  0  0
  3  7  1  0  0  0  0
  4  9  1  0  0  0  0
  5  4  2  0  0  0  0
  6 10  1  0  0  0  0
  7  5  1  0  0  0  0
  7  6  2  0  0  0  0
  8 21  1  6  0  0  0
  8  5  1  0  0  0  0
  8  2  1  0  0  0  0
 10  9  2  0  0  0  0
 11 24  1  6  0  0  0
 12 17  1  0  0  0  0
 13 12  2  0  0  0  0
 13 18  1  0  0  0  0
 14 12  1  0  0  0  0
 17 15  2  0  0  0  0
 18 19  2  0  0  0  0
 19 15  1  0  0  0  0
 19 16  1  0  0  0  0
 21 20  1  1  0  0  0
 22 21  1  0  0  0  0
 22 23  1  0  0  0  0
 24 26  1  0  0  0  0
 26 25  3  0  0  0  0
 27 29  1  0  0  0  0
 29 28  2  0  0  0  0
 30 29  1  0  0  0  0
M  END
>  <MODEL>
5

>  <REMARK>
 VINA RESULT:      -4.0      3.611      6.621
  Name = 
  7 active torsions:
  status: ('A' for Active; 'I' for Inactive)
    1  A    between atoms: C_1  and  C_22
    2  A    between atoms: C_4  and  C_25
    3  A    between atoms: C_7  and  C_30
    4  A    between atoms: O_10  and  C_23
    5  A    between atoms: O_10  and  C_26
    6  A    between atoms: C_11  and  C_25
    7  A    between atoms: C_13  and  C_30
                            x       y       z     vdW  Elec       q    Type
                         _______ _______ _______ _____ _____    ______ ____

>  <TORSDO>
F 7

$$$$
=
 OpenBabel10272413453D

 30 32  0  0  1  0  0  0  0  0999 V2000
  183.3850  178.8640  139.5140 C   0  0  1  0  0  3  0  0  0  0  0  0
  182.3900  177.7420  137.4570 C   0  0  2  0  0  3  0  0  0  0  0  0
  183.0470  180.2730  139.3610 N   0  0  0  0  0  2  0  0  0  0  0  0
  180.2960  180.6970  136.8210 C   0  0  0  0  0  3  0  0  0  0  0  0
  181.1960  180.0550  137.6800 C   0  0  0  0  0  0  0  0  0  0  0  0
  182.0120  182.2310  138.3890 C   0  0  0  0  0  3  0  0  0  0  0  0
  182.0690  180.8360  138.4780 C   0  0  0  0  0  0  0  0  0  0  0  0
  181.1180  178.5580  137.7410 C   0  0  2  0  0  3  0  0  0  0  0  0
  180.2540  182.0890  136.7400 C   0  0  0  0  0  3  0  0  0  0  0  0
  181.1120  182.8570  137.5260 C   0  0  0  0  0  3  0  0  0  0  0  0
  183.6760  178.2150  138.1520 C   0  0  2  0  0  3  0  0  0  0  0  0
  184.2720  178.5120  141.8970 C   0  0  0  0  0  0  0  0  0  0  0  0
  185.3610  178.3940  142.7670 C   0  0  0  0  0  3  0  0  0  0  0  0
  182.6570  178.4110  142.5840 Cl  0  0  0  0  0  0  0  0  0  0  0  0
  185.8110  178.7890  140.0390 C   0  0  0  0  0  3  0  0  0  0  0  0
  188.1590  178.7450  140.4420 F   0  0  0  0  0  0  0  0  0  0  0  0
  184.4980  178.7110  140.5160 C   0  0  0  0  0  0  0  0  0  0  0  0
  186.6680  178.4720  142.2790 C   0  0  0  0  0  3  0  0  0  0  0  0
  186.8920  178.6690  140.9160 C   0  0  0  0  0  0  0  0  0  0  0  0
  179.9890  178.7730  140.0300 C   0  0  0  0  0  1  0  0  0  0  0  0
  180.0950  177.9910  138.7340 C   0  0  2  0  0  3  0  0  0  0  0  0
  180.3010  176.5010  138.9930 C   0  0  0  0  0  2  0  0  0  0  0  0
  180.4760  176.2470  140.3550 O   0  0  0  0  0  1  0  0  0  0  0  0
  184.5440  177.0990  138.2970 O   0  0  0  0  0  0  0  0  0  0  0  0
  186.3220  176.5920  136.5090 C   0  0  0  0  0  3  0  0  0  0  0  0
  185.4890  176.8280  137.3470 C   0  0  0  0  0  0  0  0  0  0  0  0
  182.5950  177.6520  135.9510 C   0  0  0  0  0  2  0  0  0  0  0  0
  181.1700  176.5430  134.4330 O   0  0  0  0  0  0  0  0  0  0  0  0
  181.9310  176.4400  135.3810 C   0  0  0  0  0  0  0  0  0  0  0  0
  182.2320  175.0950  135.9460 C   0  0  0  0  0  1  0  0  0  0  0  0
  1 17  1  1  0  0  0
  2 27  1  6  0  0  0
  2  8  1  0  0  0  0
  2 11  1  0  0  0  0
  3  1  1  0  0  0  0
  4  5  1  0  0  0  0
  5  8  1  0  0  0  0
  5  7  2  0  0  0  0
  6  7  1  0  0  0  0
  7  3  1  0  0  0  0
  8 21  1  1  0  0  0
  9  4  2  0  0  0  0
  9 10  1  0  0  0  0
 10  6  2  0  0  0  0
 11 24  1  1  0  0  0
 11  1  1  0  0  0  0
 12 14  1  0  0  0  0
 12 13  1  0  0  0  0
 15 17  1  0  0  0  0
 15 19  2  0  0  0  0
 16 19  1  0  0  0  0
 17 12  2  0  0  0  0
 18 13  2  0  0  0  0
 19 18  1  0  0  0  0
 21 22  1  0  0  0  0
 21 20  1  1  0  0  0
 22 23  1  0  0  0  0
 25 26  3  0  0  0  0
 26 24  1  0  0  0  0
 28 29  2  0  0  0  0
 29 30  1  0  0  0  0
 29 27  1  0  0  0  0
M  END
>  <MODEL>
6

>  <REMARK>
 VINA RESULT:      -3.9      2.476      4.344
  Name = 
  7 active torsions:
  status: ('A' for Active; 'I' for Inactive)
    1  A    between atoms: C_1  and  C_22
    2  A    between atoms: C_4  and  C_25
    3  A    between atoms: C_7  and  C_30
    4  A    between atoms: O_10  and  C_23
    5  A    between atoms: O_10  and  C_26
    6  A    between atoms: C_11  and  C_25
    7  A    between atoms: C_13  and  C_30
                            x       y       z     vdW  Elec       q    Type
                         _______ _______ _______ _____ _____    ______ ____

>  <TORSDO>
F 7

$$$$
=
 OpenBabel10272413453D

 30 32  0  0  1  0  0  0  0  0999 V2000
  183.8160  178.3080  141.3980 C   0  0  1  0  0  3  0  0  0  0  0  0
  184.9540  177.7510  139.1900 C   0  0  2  0  0  3  0  0  0  0  0  0
  182.6780  179.1360  141.0230 N   0  0  0  0  0  2  0  0  0  0  0  0
  181.9430  178.7740  137.3450 C   0  0  0  0  0  3  0  0  0  0  0  0
  182.5350  178.5350  138.5910 C   0  0  0  0  0  0  0  0  0  0  0  0
  181.1070  180.2460  139.5560 C   0  0  0  0  0  3  0  0  0  0  0  0
  182.1100  179.2840  139.7160 C   0  0  0  0  0  0  0  0  0  0  0  0
  183.5500  177.4310  138.6530 C   0  0  2  0  0  3  0  0  0  0  0  0
  180.9470  179.7400  137.2010 C   0  0  0  0  0  3  0  0  0  0  0  0
  180.5270  180.4760  138.3090 C   0  0  0  0  0  3  0  0  0  0  0  0
  185.0210  178.5780  140.4820 C   0  0  2  0  0  3  0  0  0  0  0  0
  183.1320  178.8590  143.8100 C   0  0  0  0  0  0  0  0  0  0  0  0
  183.4890  179.0110  145.1540 C   0  0  0  0  0  3  0  0  0  0  0  0
  181.4590  179.1630  143.3650 Cl  0  0  0  0  0  0  0  0  0  0  0  0
  185.4270  178.2600  143.2890 C   0  0  0  0  0  3  0  0  0  0  0  0
  187.0500  178.1970  145.0310 F   0  0  0  0  0  0  0  0  0  0  0  0
  184.1110  178.4780  142.8640 C   0  0  0  0  0  0  0  0  0  0  0  0
  184.8060  178.7880  145.5650 C   0  0  0  0  0  3  0  0  0  0  0  0
  185.7740  178.4130  144.6330 C   0  0  0  0  0  0  0  0  0  0  0  0
  183.0560  175.1110  137.6820 C   0  0  0  0  0  1  0  0  0  0  0  0
  182.9810  176.0250  138.8920 C   0  0  2  0  0  3  0  0  0  0  0  0
  181.5750  176.0590  139.4830 C   0  0  0  0  0  2  0  0  0  0  0  0
  180.6680  175.3850  138.6630 O   0  0  0  0  0  1  0  0  0  0  0  0
  186.2400  178.2770  141.1470 O   0  0  0  0  0  0  0  0  0  0  0  0
  188.4900  178.5320  139.9260 C   0  0  0  0  0  3  0  0  0  0  0  0
  187.4350  178.4130  140.4970 C   0  0  0  0  0  0  0  0  0  0  0  0
  185.7680  178.4120  138.0860 C   0  0  0  0  0  2  0  0  0  0  0  0
  187.1090  176.6000  137.3920 O   0  0  0  0  0  0  0  0  0  0  0  0
  186.2480  177.4090  137.0870 C   0  0  0  0  0  0  0  0  0  0  0  0
  185.6450  177.3710  135.7260 C   0  0  0  0  0  1  0  0  0  0  0  0
  1 17  1  1  0  0  0
  2 27  1  6  0  0  0
  2 11  1  0  0  0  0
  3  1  1  0  0  0  0
  4  5  1  0  0  0  0
  5  8  1  0  0  0  0
  5  7  2  0  0  0  0
  6  7  1  0  0  0  0
  7  3  1  0  0  0  0
  8 21  1  1  0  0  0
  8  2  1  0  0  0  0
  9  4  2  0  0  0  0
  9 10  1  0  0  0  0
 10  6  2  0  0  0  0
 11 24  1  1  0  0  0
 11  1  1  0  0  0  0
 12 13  1  0  0  0  0
 13 18  2  0  0  0  0
 14 12  1  0  0  0  0
 15 19  2  0  0  0  0
 17 15  1  0  0  0  0
 17 12  2  0  0  0  0
 19 16  1  0  0  0  0
 19 18  1  0  0  0  0
 21 20  1  6  0  0  0
 21 22  1  0  0  0  0
 23 22  1  0  0  0  0
 25 26  3  0  0  0  0
 26 24  1  0  0  0  0
 29 28  2  0  0  0  0
 29 27  1  0  0  0  0
 30 29  1  0  0  0  0
M  END
>  <MODEL>
7

>  <REMARK>
 VINA RESULT:      -3.9      2.226      4.535
  Name = 
  7 active torsions:
  status: ('A' for Active; 'I' for Inactive)
    1  A    between atoms: C_1  and  C_22
    2  A    between atoms: C_4  and  C_25
    3  A    between atoms: C_7  and  C_30
    4  A    between atoms: O_10  and  C_23
    5  A    between atoms: O_10  and  C_26
    6  A    between atoms: C_11  and  C_25
    7  A    between atoms: C_13  and  C_30
                            x       y       z     vdW  Elec       q    Type
                         _______ _______ _______ _____ _____    ______ ____

>  <TORSDO>
F 7

$$$$
=
 OpenBabel10272413453D

 30 32  0  0  1  0  0  0  0  0999 V2000
  183.8260  177.1950  138.2130 C   0  0  1  0  0  3  0  0  0  0  0  0
  181.3270  177.6340  138.0070 C   0  0  2  0  0  3  0  0  0  0  0  0
  184.1800  177.7090  139.5290 N   0  0  0  0  0  2  0  0  0  0  0  0
  181.0890  178.1620  141.6370 C   0  0  0  0  0  3  0  0  0  0  0  0
  181.8900  177.7810  140.5530 C   0  0  0  0  0  0  0  0  0  0  0  0
  183.8300  178.6480  141.7300 C   0  0  0  0  0  3  0  0  0  0  0  0
  183.2840  178.0290  140.6000 C   0  0  0  0  0  0  0  0  0  0  0  0
  181.2030  177.0630  139.4290 C   0  0  2  0  0  3  0  0  0  0  0  0
  181.6480  178.7820  142.7550 C   0  0  0  0  0  3  0  0  0  0  0  0
  183.0200  179.0240  142.8020 C   0  0  0  0  0  3  0  0  0  0  0  0
  182.7340  178.0560  137.5590 C   0  0  2  0  0  3  0  0  0  0  0  0
  185.3570  175.8680  136.6360 C   0  0  0  0  0  0  0  0  0  0  0  0
  186.5400  175.7940  135.8930 C   0  0  0  0  0  3  0  0  0  0  0  0
  184.2840  174.4750  136.6150 Cl  0  0  0  0  0  0  0  0  0  0  0  0
  185.9700  178.1060  137.3510 C   0  0  0  0  0  3  0  0  0  0  0  0
  188.0140  179.0650  136.5900 F   0  0  0  0  0  0  0  0  0  0  0  0
  185.0660  177.0380  137.3750 C   0  0  0  0  0  0  0  0  0  0  0  0
  187.4330  176.8680  135.8760 C   0  0  0  0  0  3  0  0  0  0  0  0
  187.1480  178.0230  136.6050 C   0  0  0  0  0  0  0  0  0  0  0  0
  180.9330  174.7850  138.2890 C   0  0  0  0  0  1  0  0  0  0  0  0
  181.0780  175.5430  139.5960 C   0  0  2  0  0  3  0  0  0  0  0  0
  179.9900  175.1550  140.5930 C   0  0  0  0  0  2  0  0  0  0  0  0
  180.0170  173.7840  140.8580 O   0  0  0  0  0  1  0  0  0  0  0  0
  182.8000  177.9680  136.1410 O   0  0  0  0  0  0  0  0  0  0  0  0
  181.4450  176.1830  134.8790 C   0  0  0  0  0  3  0  0  0  0  0  0
  182.0800  177.0190  135.4720 C   0  0  0  0  0  0  0  0  0  0  0  0
  180.3440  178.7860  137.8470 C   0  0  0  0  0  2  0  0  0  0  0  0
  181.1080  180.5960  136.5430 O   0  0  0  0  0  0  0  0  0  0  0  0
  181.0530  180.0860  137.6500 C   0  0  0  0  0  0  0  0  0  0  0  0
  181.6620  180.7830  138.8170 C   0  0  0  0  0  1  0  0  0  0  0  0
  1 17  1  6  0  0  0
  1  3  1  0  0  0  0
  2 27  1  1  0  0  0
  2  8  1  0  0  0  0
  3  7  1  0  0  0  0
  4  9  1  0  0  0  0
  5  7  1  0  0  0  0
  5  4  2  0  0  0  0
  6 10  1  0  0  0  0
  7  6  2  0  0  0  0
  8 21  1  6  0  0  0
  8  5  1  0  0  0  0
  9 10  2  0  0  0  0
 11 24  1  6  0  0  0
 11  2  1  0  0  0  0
 11  1  1  0  0  0  0
 12 17  1  0  0  0  0
 13 12  2  0  0  0  0
 14 12  1  0  0  0  0
 15 17  2  0  0  0  0
 16 19  1  0  0  0  0
 18 13  1  0  0  0  0
 18 19  2  0  0  0  0
 19 15  1  0  0  0  0
 21 20  1  6  0  0  0
 21 22  1  0  0  0  0
 22 23  1  0  0  0  0
 25 26  3  0  0  0  0
 26 24  1  0  0  0  0
 28 29  2  0  0  0  0
 29 27  1  0  0  0  0
 29 30  1  0  0  0  0
M  END
>  <MODEL>
8

>  <REMARK>
 VINA RESULT:      -3.8      2.535      5.972
  Name = 
  7 active torsions:
  status: ('A' for Active; 'I' for Inactive)
    1  A    between atoms: C_1  and  C_22
    2  A    between atoms: C_4  and  C_25
    3  A    between atoms: C_7  and  C_30
    4  A    between atoms: O_10  and  C_23
    5  A    between atoms: O_10  and  C_26
    6  A    between atoms: C_11  and  C_25
    7  A    between atoms: C_13  and  C_30
                            x       y       z     vdW  Elec       q    Type
                         _______ _______ _______ _____ _____    ______ ____

>  <TORSDO>
F 7

$$$$
=
 OpenBabel10272413453D

 30 32  0  0  1  0  0  0  0  0999 V2000
  184.0010  177.7910  137.7150 C   0  0  1  0  0  3  0  0  0  0  0  0
  184.9090  175.5980  136.7950 C   0  0  2  0  0  3  0  0  0  0  0  0
  185.0730  178.3060  138.5560 N   0  0  0  0  0  2  0  0  0  0  0  0
  188.3220  176.5750  137.7500 C   0  0  0  0  0  3  0  0  0  0  0  0
  186.9770  176.9490  137.6430 C   0  0  0  0  0  0  0  0  0  0  0  0
  187.2730  178.4170  139.5560 C   0  0  0  0  0  3  0  0  0  0  0  0
  186.4430  177.8860  138.5620 C   0  0  0  0  0  0  0  0  0  0  0  0
  186.2050  176.3670  136.4950 C   0  0  2  0  0  3  0  0  0  0  0  0
  189.1350  177.1090  138.7500 C   0  0  0  0  0  3  0  0  0  0  0  0
  188.6100  178.0330  139.6530 C   0  0  0  0  0  3  0  0  0  0  0  0
  183.9340  176.2570  137.7830 C   0  0  2  0  0  3  0  0  0  0  0  0
  181.7180  178.7910  137.1010 C   0  0  0  0  0  0  0  0  0  0  0  0
  180.5460  179.4430  137.5000 C   0  0  0  0  0  3  0  0  0  0  0  0
  181.9010  178.4010  135.3960 Cl  0  0  0  0  0  0  0  0  0  0  0  0
  182.4960  178.8230  139.4010 C   0  0  0  0  0  3  0  0  0  0  0  0
  181.1310  179.8030  141.0900 F   0  0  0  0  0  0  0  0  0  0  0  0
  182.7060  178.4760  138.0610 C   0  0  0  0  0  0  0  0  0  0  0  0
  180.3480  179.7820  138.8410 C   0  0  0  0  0  3  0  0  0  0  0  0
  181.3230  179.4730  139.7900 C   0  0  0  0  0  0  0  0  0  0  0  0
  185.0320  177.1240  134.3470 C   0  0  0  0  0  1  0  0  0  0  0  0
  186.3050  177.1400  135.1740 C   0  0  2  0  0  3  0  0  0  0  0  0
  187.5170  176.7240  134.3460 C   0  0  0  0  0  2  0  0  0  0  0  0
  188.5470  177.6600  134.4570 O   0  0  0  0  0  1  0  0  0  0  0  0
  182.6210  175.7930  137.4960 O   0  0  0  0  0  0  0  0  0  0  0  0
  181.0550  175.0520  139.3970 C   0  0  0  0  0  3  0  0  0  0  0  0
  181.7900  175.3990  138.5070 C   0  0  0  0  0  0  0  0  0  0  0  0
  185.2620  174.1880  137.2480 C   0  0  0  0  0  2  0  0  0  0  0  0
  184.9470  173.0140  135.2270 O   0  0  0  0  0  0  0  0  0  0  0  0
  184.6040  173.1570  136.3890 C   0  0  0  0  0  0  0  0  0  0  0  0
  183.5540  172.2720  136.9650 C   0  0  0  0  0  1  0  0  0  0  0  0
  1 11  1  0  0  0  0
  1 17  1  1  0  0  0
  1  3  1  0  0  0  0
  2 27  1  1  0  0  0
  2 11  1  0  0  0  0
  3  7  1  0  0  0  0
  4  9  1  0  0  0  0
  5  4  2  0  0  0  0
  5  7  1  0  0  0  0
  6 10  1  0  0  0  0
  7  6  2  0  0  0  0
  8 21  1  6  0  0  0
  8  2  1  0  0  0  0
  8  5  1  0  0  0  0
  9 10  2  0  0  0  0
 11 24  1  6  0  0  0
 12 13  2  0  0  0  0
 12 17  1  0  0  0  0
 13 18  1  0  0  0  0
 14 12  1  0  0  0  0
 15 19  1  0  0  0  0
 17 15  2  0  0  0  0
 18 19  2  0  0  0  0
 19 16  1  0  0  0  0
 21 20  1  6  0  0  0
 22 23  1  0  0  0  0
 22 21  1  0  0  0  0
 24 26  1  0  0  0  0
 26 25  3  0  0  0  0
 28 29  2  0  0  0  0
 29 30  1  0  0  0  0
 29 27  1  0  0  0  0
M  END
>  <MODEL>
9

>  <REMARK>
 VINA RESULT:      -3.8      2.604      3.656
  Name = 
  7 active torsions:
  status: ('A' for Active; 'I' for Inactive)
    1  A    between atoms: C_1  and  C_22
    2  A    between atoms: C_4  and  C_25
    3  A    between atoms: C_7  and  C_30
    4  A    between atoms: O_10  and  C_23
    5  A    between atoms: O_10  and  C_26
    6  A    between atoms: C_11  and  C_25
    7  A    between atoms: C_13  and  C_30
                            x       y       z     vdW  Elec       q    Type
                         _______ _______ _______ _____ _____    ______ ____

>  <TORSDO>
F 7

$$$$
