=
 OpenBabel10272400063D

 34 37  0  0  1  0  0  0  0  0999 V2000
  184.2980  178.6670  145.0230 C   0  0  0  0  0  0  0  0  0  0  0  0
  186.6610  177.9760  144.8180 C   0  0  0  0  0  0  0  0  0  0  0  0
  185.1700  178.0710  142.8190 C   0  0  0  0  0  0  0  0  0  0  0  0
  185.9360  179.1420  146.8540 C   0  0  0  0  0  2  0  0  0  0  0  0
  186.8630  178.3020  146.1620 O   0  0  0  0  0  0  0  0  0  0  0  0
  187.3930  177.0600  142.7590 O   0  0  0  0  0  0  0  0  0  0  0  0
  185.3580  178.2580  144.1990 C   0  0  0  0  0  0  0  0  0  0  0  0
  184.4900  178.7650  146.5100 C   0  0  0  0  0  2  0  0  0  0  0  0
  183.9000  178.3200  142.2560 C   0  0  0  0  0  0  0  0  0  0  0  0
  183.0340  178.8680  144.4680 C   0  0  0  0  0  3  0  0  0  0  0  0
  187.6090  177.3710  144.1080 C   0  0  0  0  0  3  0  0  0  0  0  0
  186.3560  177.6670  141.9700 C   0  0  2  0  0  3  0  0  0  0  0  0
  182.8370  178.6980  143.0950 C   0  0  0  0  0  3  0  0  0  0  0  0
  182.8940  176.8200  140.5910 C   0  0  0  0  0  1  0  0  0  0  0  0
  183.6560  178.1290  140.7830 C   0  0  1  0  0  3  0  0  0  0  0  0
  182.9510  179.3460  140.1260 C   0  0  1  0  0  3  0  0  0  0  0  0
  183.5980  179.7350  138.7730 C   0  0  1  0  0  3  0  0  0  0  0  0
  184.1190  181.0300  138.8150 O   0  0  0  0  0  1  0  0  0  0  0  0
  184.7130  178.7890  138.3670 C   0  0  0  0  0  1  0  0  0  0  0  0
  180.8300  179.1720  138.2840 S   0  0  0  0  0  1  0  0  0  0  0  0
  180.7200  180.0220  140.7950 O   0  0  0  0  0  1  0  0  0  0  0  0
  181.4290  179.1170  140.0050 C   0  0  2  0  0  3  0  0  0  0  0  0
  186.8630  178.7930  141.3140 O   0  0  0  0  0  0  0  0  0  0  0  0
  187.5480  178.2910  140.2030 C   0  0  0  0  0  2  0  0  0  0  0  0
  189.0400  178.5000  140.3750 C   0  0  0  0  0  2  0  0  0  0  0  0
  189.7500  177.1670  140.2930 C   0  0  0  0  0  2  0  0  0  0  0  0
  191.0650  177.2300  141.0420 C   0  0  0  0  0  2  0  0  0  0  0  0
  190.2310  175.1360  142.9430 O   0  0  0  0  0  1  0  0  0  0  0  0
  190.8020  177.3600  142.4670 N   0  0  0  0  0  0  0  0  0  0  0  0
  191.2250  176.1050  143.1100 C   0  0  1  0  0  3  0  0  0  0  0  0
  190.8540  177.5140  145.1820 C   0  0  0  0  0  2  0  0  0  0  0  0
  191.3090  178.7660  144.4240 C   0  0  0  0  0  2  0  0  0  0  0  0
  191.6240  178.4690  142.9530 C   0  0  0  0  0  2  0  0  0  0  0  0
  191.5210  176.2650  144.6140 C   0  0  0  0  0  2  0  0  0  0  0  0
  1  8  1  0  0  0  0
  2  5  1  0  0  0  0
  3  7  1  0  0  0  0
  5  4  1  0  0  0  0
  6 11  1  0  0  0  0
  7  2  1  0  0  0  0
  7  1  2  0  0  0  0
  8  4  1  0  0  0  0
  9  3  2  0  0  0  0
  9 13  1  0  0  0  0
 10  1  1  0  0  0  0
 11  2  2  0  0  0  0
 12 23  1  1  0  0  0
 12  6  1  0  0  0  0
 12  3  1  0  0  0  0
 13 10  2  0  0  0  0
 15 14  1  1  0  0  0
 15  9  1  0  0  0  0
 16 17  1  6  0  0  0
 16 15  1  0  0  0  0
 17 19  1  1  0  0  0
 17 18  1  0  0  0  0
 22 20  1  6  0  0  0
 22 16  1  0  0  0  0
 22 21  1  0  0  0  0
 24 25  1  0  0  0  0
 24 23  1  0  0  0  0
 26 25  1  0  0  0  0
 26 27  1  0  0  0  0
 27 29  1  0  0  0  0
 29 33  1  0  0  0  0
 29 30  1  0  0  0  0
 30 28  1  1  0  0  0
 30 34  1  0  0  0  0
 32 31  1  0  0  0  0
 33 32  1  0  0  0  0
 34 31  1  0  0  0  0
M  END
>  <MODEL>
1

>  <REMARK>
 VINA RESULT:      -7.4      0.000      0.000
  Name = 
  10 active torsions:
  status: ('A' for Active; 'I' for Inactive)
    1  A    between atoms: C_3  and  N_13
    2  A    between atoms: C_3  and  C_17
    3  A    between atoms: O_5  and  C_18
    4  A    between atoms: O_5  and  C_31
    5  A    between atoms: C_7  and  C_23
    6  A    between atoms: C_17  and  C_29
    7  A    between atoms: C_18  and  C_29
    8  A    between atoms: C_21  and  C_28
    9  A    between atoms: C_23  and  C_27
   10  A    between atoms: C_23  and  C_28
                            x       y       z     vdW  Elec       q    Type
                         _______ _______ _______ _____ _____    ______ ____

>  <TORSDO>
F 10

$$$$
=
 OpenBabel10272400063D

 34 37  0  0  1  0  0  0  0  0999 V2000
  185.4690  178.4190  144.5840 C   0  0  0  0  0  0  0  0  0  0  0  0
  185.1500  178.8520  142.1740 C   0  0  0  0  0  0  0  0  0  0  0  0
  187.4110  178.3490  143.1030 C   0  0  0  0  0  0  0  0  0  0  0  0
  183.1910  178.3180  143.5550 C   0  0  0  0  0  2  0  0  0  0  0  0
  183.7660  178.8760  142.3710 O   0  0  0  0  0  0  0  0  0  0  0  0
  187.0710  179.1390  140.8160 O   0  0  0  0  0  0  0  0  0  0  0  0
  186.0300  178.5170  143.3020 C   0  0  0  0  0  0  0  0  0  0  0  0
  184.0070  178.6990  144.7950 C   0  0  0  0  0  2  0  0  0  0  0  0
  188.2370  178.0570  144.2090 C   0  0  0  0  0  0  0  0  0  0  0  0
  186.2970  178.1740  145.6810 C   0  0  0  0  0  3  0  0  0  0  0  0
  185.6820  179.1780  140.9990 C   0  0  0  0  0  3  0  0  0  0  0  0
  187.9580  178.4270  141.6940 C   0  0  2  0  0  3  0  0  0  0  0  0
  187.6710  177.9930  145.4930 C   0  0  0  0  0  3  0  0  0  0  0  0
  190.4190  179.1400  144.5290 C   0  0  0  0  0  1  0  0  0  0  0  0
  189.7210  177.8740  144.0380 C   0  0  1  0  0  3  0  0  0  0  0  0
  190.2510  176.5820  144.7190 C   0  0  1  0  0  3  0  0  0  0  0  0
  191.1010  175.7190  143.7530 C   0  0  1  0  0  3  0  0  0  0  0  0
  190.2920  174.9120  142.9510 O   0  0  0  0  0  1  0  0  0  0  0  0
  191.9820  176.5570  142.8450 C   0  0  0  0  0  1  0  0  0  0  0  0
  192.2280  175.6380  146.4850 S   0  0  0  0  0  1  0  0  0  0  0  0
  190.1050  177.1130  147.0810 O   0  0  0  0  0  1  0  0  0  0  0  0
  190.9990  176.9050  146.0310 C   0  0  2  0  0  3  0  0  0  0  0  0
  188.1650  177.1330  141.2030 O   0  0  0  0  0  0  0  0  0  0  0  0
  188.6750  177.3090  139.9130 C   0  0  0  0  0  2  0  0  0  0  0  0
  190.1640  177.5910  139.9790 C   0  0  0  0  0  2  0  0  0  0  0  0
  190.9190  176.4920  139.2640 C   0  0  0  0  0  2  0  0  0  0  0  0
  190.8360  176.6930  137.7650 C   0  0  0  0  0  2  0  0  0  0  0  0
  193.7640  176.8480  137.4480 O   0  0  0  0  0  1  0  0  0  0  0  0
  191.7210  175.7480  137.1020 N   0  0  0  0  0  0  0  0  0  0  0  0
  192.9970  175.7470  137.8400 C   0  0  1  0  0  3  0  0  0  0  0  0
  193.3860  173.7300  136.3570 C   0  0  0  0  0  2  0  0  0  0  0  0
  191.8920  173.3920  136.4090 C   0  0  0  0  0  2  0  0  0  0  0  0
  191.0910  174.4320  137.2000 C   0  0  0  0  0  2  0  0  0  0  0  0
  193.8200  174.4620  137.6240 C   0  0  0  0  0  2  0  0  0  0  0  0
  1  8  1  0  0  0  0
  1 10  1  0  0  0  0
  2  5  1  0  0  0  0
  2  7  1  0  0  0  0
  3  7  1  0  0  0  0
  3  9  2  0  0  0  0
  4  8  1  0  0  0  0
  5  4  1  0  0  0  0
  6 11  1  0  0  0  0
  6 12  1  0  0  0  0
  7  1  2  0  0  0  0
  9 13  1  0  0  0  0
 11  2  2  0  0  0  0
 12 23  1  6  0  0  0
 12  3  1  0  0  0  0
 13 10  2  0  0  0  0
 15  9  1  0  0  0  0
 15 14  1  1  0  0  0
 15 16  1  0  0  0  0
 16 17  1  6  0  0  0
 16 22  1  0  0  0  0
 17 19  1  6  0  0  0
 18 17  1  0  0  0  0
 22 20  1  1  0  0  0
 22 21  1  0  0  0  0
 24 25  1  0  0  0  0
 24 23  1  0  0  0  0
 26 25  1  0  0  0  0
 27 26  1  0  0  0  0
 29 33  1  0  0  0  0
 29 27  1  0  0  0  0
 29 30  1  0  0  0  0
 30 28  1  6  0  0  0
 31 32  1  0  0  0  0
 31 34  1  0  0  0  0
 32 33  1  0  0  0  0
 34 30  1  0  0  0  0
M  END
>  <MODEL>
2

>  <REMARK>
 VINA RESULT:      -7.2      3.775      6.734
  Name = 
  10 active torsions:
  status: ('A' for Active; 'I' for Inactive)
    1  A    between atoms: C_3  and  N_13
    2  A    between atoms: C_3  and  C_17
    3  A    between atoms: O_5  and  C_18
    4  A    between atoms: O_5  and  C_31
    5  A    between atoms: C_7  and  C_23
    6  A    between atoms: C_17  and  C_29
    7  A    between atoms: C_18  and  C_29
    8  A    between atoms: C_21  and  C_28
    9  A    between atoms: C_23  and  C_27
   10  A    between atoms: C_23  and  C_28
                            x       y       z     vdW  Elec       q    Type
                         _______ _______ _______ _____ _____    ______ ____

>  <TORSDO>
F 10

$$$$
=
 OpenBabel10272400063D

 34 37  0  0  1  0  0  0  0  0999 V2000
  185.4300  178.4250  144.6850 C   0  0  0  0  0  0  0  0  0  0  0  0
  185.1410  178.8650  142.2720 C   0  0  0  0  0  0  0  0  0  0  0  0
  187.3890  178.3490  143.2240 C   0  0  0  0  0  0  0  0  0  0  0  0
  183.1630  178.3370  143.6300 C   0  0  0  0  0  2  0  0  0  0  0  0
  183.7540  178.8940  142.4540 O   0  0  0  0  0  0  0  0  0  0  0  0
  187.0770  179.1460  140.9360 O   0  0  0  0  0  0  0  0  0  0  0  0
  186.0060  178.5230  143.4080 C   0  0  0  0  0  0  0  0  0  0  0  0
  183.9680  178.7110  144.8800 C   0  0  0  0  0  2  0  0  0  0  0  0
  188.2010  178.0510  144.3390 C   0  0  0  0  0  0  0  0  0  0  0  0
  186.2460  178.1740  145.7890 C   0  0  0  0  0  3  0  0  0  0  0  0
  185.6870  179.1900  141.1030 C   0  0  0  0  0  3  0  0  0  0  0  0
  187.9520  178.4270  141.8220 C   0  0  2  0  0  3  0  0  0  0  0  0
  187.6200  177.9870  145.6170 C   0  0  0  0  0  3  0  0  0  0  0  0
  190.3870  179.0980  144.7400 C   0  0  0  0  0  1  0  0  0  0  0  0
  189.6860  177.8610  144.1850 C   0  0  1  0  0  3  0  0  0  0  0  0
  190.1940  176.5370  144.8180 C   0  0  1  0  0  3  0  0  0  0  0  0
  191.1270  175.7530  143.8630 C   0  0  1  0  0  3  0  0  0  0  0  0
  190.4040  174.8630  143.0670 O   0  0  0  0  0  1  0  0  0  0  0  0
  191.9250  176.6650  142.9500 C   0  0  0  0  0  1  0  0  0  0  0  0
  192.1980  175.6290  146.5730 S   0  0  0  0  0  1  0  0  0  0  0  0
  189.8840  176.7570  147.2140 O   0  0  0  0  0  1  0  0  0  0  0  0
  190.8390  176.7860  146.1980 C   0  0  2  0  0  3  0  0  0  0  0  0
  188.1570  177.1330  141.3310 O   0  0  0  0  0  0  0  0  0  0  0  0
  189.3640  177.1980  140.6260 C   0  0  0  0  0  2  0  0  0  0  0  0
  189.1190  176.9320  139.1530 C   0  0  0  0  0  2  0  0  0  0  0  0
  189.5640  178.1290  138.3430 C   0  0  0  0  0  2  0  0  0  0  0  0
  188.9830  178.0580  136.9460 C   0  0  0  0  0  2  0  0  0  0  0  0
  186.2050  178.7150  137.6820 O   0  0  0  0  0  1  0  0  0  0  0  0
  187.8220  177.1820  136.9510 N   0  0  0  0  0  0  0  0  0  0  0  0
  186.6540  177.9950  136.5710 C   0  0  1  0  0  3  0  0  0  0  0  0
  185.6050  175.6940  136.4300 C   0  0  0  0  0  2  0  0  0  0  0  0
  186.9420  175.1030  135.9690 C   0  0  0  0  0  2  0  0  0  0  0  0
  188.0590  176.1520  135.9400 C   0  0  0  0  0  2  0  0  0  0  0  0
  185.4880  177.1570  136.0120 C   0  0  0  0  0  2  0  0  0  0  0  0
  1  8  1  0  0  0  0
  1 10  1  0  0  0  0
  2  5  1  0  0  0  0
  2  7  1  0  0  0  0
  3  7  1  0  0  0  0
  3  9  2  0  0  0  0
  4  8  1  0  0  0  0
  5  4  1  0  0  0  0
  6 11  1  0  0  0  0
  6 12  1  0  0  0  0
  7  1  2  0  0  0  0
  9 13  1  0  0  0  0
 11  2  2  0  0  0  0
 12 23  1  6  0  0  0
 12  3  1  0  0  0  0
 13 10  2  0  0  0  0
 15  9  1  0  0  0  0
 15 14  1  1  0  0  0
 15 16  1  0  0  0  0
 16 17  1  6  0  0  0
 16 22  1  0  0  0  0
 17 19  1  6  0  0  0
 18 17  1  0  0  0  0
 22 20  1  1  0  0  0
 22 21  1  0  0  0  0
 24 23  1  0  0  0  0
 25 24  1  0  0  0  0
 26 25  1  0  0  0  0
 27 29  1  0  0  0  0
 27 26  1  0  0  0  0
 30 29  1  0  0  0  0
 30 28  1  1  0  0  0
 32 31  1  0  0  0  0
 33 32  1  0  0  0  0
 33 29  1  0  0  0  0
 34 31  1  0  0  0  0
 34 30  1  0  0  0  0
M  END
>  <MODEL>
3

>  <REMARK>
 VINA RESULT:      -7.0      3.458      7.085
  Name = 
  10 active torsions:
  status: ('A' for Active; 'I' for Inactive)
    1  A    between atoms: C_3  and  N_13
    2  A    between atoms: C_3  and  C_17
    3  A    between atoms: O_5  and  C_18
    4  A    between atoms: O_5  and  C_31
    5  A    between atoms: C_7  and  C_23
    6  A    between atoms: C_17  and  C_29
    7  A    between atoms: C_18  and  C_29
    8  A    between atoms: C_21  and  C_28
    9  A    between atoms: C_23  and  C_27
   10  A    between atoms: C_23  and  C_28
                            x       y       z     vdW  Elec       q    Type
                         _______ _______ _______ _____ _____    ______ ____

>  <TORSDO>
F 10

$$$$
=
 OpenBabel10272400063D

 34 37  0  0  1  0  0  0  0  0999 V2000
  184.3300  178.6280  145.0340 C   0  0  0  0  0  0  0  0  0  0  0  0
  186.7160  178.0260  144.8160 C   0  0  0  0  0  0  0  0  0  0  0  0
  185.2170  178.0900  142.8210 C   0  0  0  0  0  0  0  0  0  0  0  0
  185.9540  179.1410  146.8670 C   0  0  0  0  0  2  0  0  0  0  0  0
  186.9090  178.3440  146.1640 O   0  0  0  0  0  0  0  0  0  0  0  0
  187.4760  177.1620  142.7450 O   0  0  0  0  0  0  0  0  0  0  0  0
  185.4030  178.2670  144.2030 C   0  0  0  0  0  0  0  0  0  0  0  0
  184.5220  178.7160  146.5220 C   0  0  0  0  0  2  0  0  0  0  0  0
  183.9380  178.2990  142.2640 C   0  0  0  0  0  0  0  0  0  0  0  0
  183.0580  178.7890  144.4840 C   0  0  0  0  0  3  0  0  0  0  0  0
  187.6840  177.4640  144.0970 C   0  0  0  0  0  3  0  0  0  0  0  0
  186.4160  177.7390  141.9660 C   0  0  2  0  0  3  0  0  0  0  0  0
  182.8640  178.6280  143.1090 C   0  0  0  0  0  3  0  0  0  0  0  0
  182.9430  176.8050  140.5870 C   0  0  0  0  0  1  0  0  0  0  0  0
  183.6980  178.1160  140.7890 C   0  0  1  0  0  3  0  0  0  0  0  0
  182.9880  179.3350  140.1390 C   0  0  1  0  0  3  0  0  0  0  0  0
  183.6350  179.7360  138.7900 C   0  0  1  0  0  3  0  0  0  0  0  0
  184.1060  181.0500  138.8250 O   0  0  0  0  0  1  0  0  0  0  0  0
  184.7900  178.8300  138.4060 C   0  0  0  0  0  1  0  0  0  0  0  0
  180.8670  179.1860  138.2940 S   0  0  0  0  0  1  0  0  0  0  0  0
  180.7530  179.9820  140.8220 O   0  0  0  0  0  1  0  0  0  0  0  0
  181.4670  179.0990  140.0140 C   0  0  2  0  0  3  0  0  0  0  0  0
  186.8800  178.8910  141.3210 O   0  0  0  0  0  0  0  0  0  0  0  0
  188.1610  178.5640  140.8660 C   0  0  0  0  0  2  0  0  0  0  0  0
  188.0990  178.1270  139.4150 C   0  0  0  0  0  2  0  0  0  0  0  0
  189.4200  177.5070  139.0170 C   0  0  0  0  0  2  0  0  0  0  0  0
  189.3390  176.9740  137.6010 C   0  0  0  0  0  2  0  0  0  0  0  0
  187.4950  178.7020  136.0820 O   0  0  0  0  0  1  0  0  0  0  0  0
  187.9480  176.7240  137.2590 N   0  0  0  0  0  0  0  0  0  0  0  0
  187.7030  177.3270  135.9370 C   0  0  1  0  0  3  0  0  0  0  0  0
  185.5590  176.0000  136.1770 C   0  0  0  0  0  2  0  0  0  0  0  0
  186.3080  174.9130  136.9550 C   0  0  0  0  0  2  0  0  0  0  0  0
  187.7810  175.2730  137.1810 C   0  0  0  0  0  2  0  0  0  0  0  0
  186.4950  176.7120  135.2050 C   0  0  0  0  0  2  0  0  0  0  0  0
  1  8  1  0  0  0  0
  2  5  1  0  0  0  0
  3  7  1  0  0  0  0
  5  4  1  0  0  0  0
  6 11  1  0  0  0  0
  7  2  1  0  0  0  0
  7  1  2  0  0  0  0
  8  4  1  0  0  0  0
  9  3  2  0  0  0  0
  9 13  1  0  0  0  0
 10  1  1  0  0  0  0
 11  2  2  0  0  0  0
 12 23  1  1  0  0  0
 12  6  1  0  0  0  0
 12  3  1  0  0  0  0
 13 10  2  0  0  0  0
 15 14  1  1  0  0  0
 15  9  1  0  0  0  0
 16 17  1  6  0  0  0
 16 15  1  0  0  0  0
 17 19  1  1  0  0  0
 17 18  1  0  0  0  0
 22 20  1  6  0  0  0
 22 16  1  0  0  0  0
 22 21  1  0  0  0  0
 24 23  1  0  0  0  0
 25 24  1  0  0  0  0
 26 25  1  0  0  0  0
 27 26  1  0  0  0  0
 29 27  1  0  0  0  0
 30 28  1  1  0  0  0
 30 29  1  0  0  0  0
 31 32  1  0  0  0  0
 32 33  1  0  0  0  0
 33 29  1  0  0  0  0
 34 30  1  0  0  0  0
 34 31  1  0  0  0  0
M  END
>  <MODEL>
4

>  <REMARK>
 VINA RESULT:      -6.9      2.140      4.085
  Name = 
  10 active torsions:
  status: ('A' for Active; 'I' for Inactive)
    1  A    between atoms: C_3  and  N_13
    2  A    between atoms: C_3  and  C_17
    3  A    between atoms: O_5  and  C_18
    4  A    between atoms: O_5  and  C_31
    5  A    between atoms: C_7  and  C_23
    6  A    between atoms: C_17  and  C_29
    7  A    between atoms: C_18  and  C_29
    8  A    between atoms: C_21  and  C_28
    9  A    between atoms: C_23  and  C_27
   10  A    between atoms: C_23  and  C_28
                            x       y       z     vdW  Elec       q    Type
                         _______ _______ _______ _____ _____    ______ ____

>  <TORSDO>
F 10

$$$$
=
 OpenBabel10272400063D

 34 37  0  0  1  0  0  0  0  0999 V2000
  185.7060  176.4310  136.2250 C   0  0  0  0  0  0  0  0  0  0  0  0
  188.1100  176.7760  136.6740 C   0  0  0  0  0  0  0  0  0  0  0  0
  186.3680  177.8510  138.1010 C   0  0  0  0  0  0  0  0  0  0  0  0
  187.4260  174.9150  135.2230 C   0  0  0  0  0  2  0  0  0  0  0  0
  188.4190  175.8320  135.6890 O   0  0  0  0  0  0  0  0  0  0  0  0
  188.7370  178.4270  138.2530 O   0  0  0  0  0  0  0  0  0  0  0  0
  186.7030  177.0140  137.0220 C   0  0  0  0  0  0  0  0  0  0  0  0
  186.0810  175.6200  135.0160 C   0  0  0  0  0  2  0  0  0  0  0  0
  185.0080  178.0870  138.3940 C   0  0  0  0  0  0  0  0  0  0  0  0
  184.3640  176.7050  136.4920 C   0  0  0  0  0  3  0  0  0  0  0  0
  189.0640  177.4930  137.2610 C   0  0  0  0  0  3  0  0  0  0  0  0
  187.4810  178.4230  138.9510 C   0  0  2  0  0  3  0  0  0  0  0  0
  184.0180  177.5250  137.5700 C   0  0  0  0  0  3  0  0  0  0  0  0
  183.7330  180.1030  138.9850 C   0  0  0  0  0  1  0  0  0  0  0  0
  184.6080  178.9800  139.5380 C   0  0  1  0  0  3  0  0  0  0  0  0
  183.9360  178.2020  140.7030 C   0  0  1  0  0  3  0  0  0  0  0  0
  184.5390  178.5770  142.0790 C   0  0  1  0  0  3  0  0  0  0  0  0
  185.0330  177.4510  142.7390 O   0  0  0  0  0  1  0  0  0  0  0  0
  185.6620  179.5910  141.9660 C   0  0  0  0  0  1  0  0  0  0  0  0
  181.7030  178.9060  142.2640 S   0  0  0  0  0  1  0  0  0  0  0  0
  181.7830  177.1800  140.2510 O   0  0  0  0  0  1  0  0  0  0  0  0
  182.4010  178.3580  140.6710 C   0  0  2  0  0  3  0  0  0  0  0  0
  187.6000  177.6730  140.1270 O   0  0  0  0  0  0  0  0  0  0  0  0
  188.8490  178.0160  140.6540 C   0  0  0  0  0  2  0  0  0  0  0  0
  189.2080  177.0770  141.7890 C   0  0  0  0  0  2  0  0  0  0  0  0
  189.1400  177.8220  143.1030 C   0  0  0  0  0  2  0  0  0  0  0  0
  189.9180  177.0760  144.1670 C   0  0  0  0  0  2  0  0  0  0  0  0
  190.8130  176.5120  146.9200 O   0  0  0  0  0  1  0  0  0  0  0  0
  189.1120  176.9770  145.3740 N   0  0  0  0  0  0  0  0  0  0  0  0
  189.9200  177.4990  146.4890 C   0  0  1  0  0  3  0  0  0  0  0  0
  187.6780  177.3410  147.6570 C   0  0  0  0  0  2  0  0  0  0  0  0
  186.9610  177.6790  146.3450 C   0  0  0  0  0  2  0  0  0  0  0  0
  187.9370  177.8260  145.1730 C   0  0  0  0  0  2  0  0  0  0  0  0
  189.0710  177.9640  147.6880 C   0  0  0  0  0  2  0  0  0  0  0  0
  1 10  2  0  0  0  0
  1  7  1  0  0  0  0
  2  7  1  0  0  0  0
  2 11  2  0  0  0  0
  3  9  1  0  0  0  0
  3 12  1  0  0  0  0
  4  5  1  0  0  0  0
  5  2  1  0  0  0  0
  6 12  1  0  0  0  0
  7  3  2  0  0  0  0
  8  4  1  0  0  0  0
  8  1  1  0  0  0  0
  9 15  1  0  0  0  0
 10 13  1  0  0  0  0
 11  6  1  0  0  0  0
 12 23  1  1  0  0  0
 13  9  2  0  0  0  0
 15 14  1  6  0  0  0
 16 15  1  6  0  0  0
 16 17  1  0  0  0  0
 17 19  1  6  0  0  0
 17 18  1  0  0  0  0
 22 21  1  1  0  0  0
 22 16  1  0  0  0  0
 22 20  1  0  0  0  0
 23 24  1  0  0  0  0
 24 25  1  0  0  0  0
 25 26  1  0  0  0  0
 26 27  1  0  0  0  0
 27 29  1  0  0  0  0
 29 30  1  0  0  0  0
 30 28  1  1  0  0  0
 30 34  1  0  0  0  0
 31 34  1  0  0  0  0
 32 31  1  0  0  0  0
 33 29  1  0  0  0  0
 33 32  1  0  0  0  0
M  END
>  <MODEL>
5

>  <REMARK>
 VINA RESULT:      -6.6      2.849      5.714
  Name = 
  10 active torsions:
  status: ('A' for Active; 'I' for Inactive)
    1  A    between atoms: C_3  and  N_13
    2  A    between atoms: C_3  and  C_17
    3  A    between atoms: O_5  and  C_18
    4  A    between atoms: O_5  and  C_31
    5  A    between atoms: C_7  and  C_23
    6  A    between atoms: C_17  and  C_29
    7  A    between atoms: C_18  and  C_29
    8  A    between atoms: C_21  and  C_28
    9  A    between atoms: C_23  and  C_27
   10  A    between atoms: C_23  and  C_28
                            x       y       z     vdW  Elec       q    Type
                         _______ _______ _______ _____ _____    ______ ____

>  <TORSDO>
F 10

$$$$
=
 OpenBabel10272400063D

 34 37  0  0  1  0  0  0  0  0999 V2000
  189.2580  175.2050  137.0440 C   0  0  0  0  0  0  0  0  0  0  0  0
  189.4610  177.5200  137.8810 C   0  0  0  0  0  0  0  0  0  0  0  0
  187.2540  176.5980  137.1670 C   0  0  0  0  0  0  0  0  0  0  0  0
  191.2880  175.9360  138.3120 C   0  0  0  0  0  2  0  0  0  0  0  0
  190.7990  177.2750  138.2070 O   0  0  0  0  0  0  0  0  0  0  0  0
  187.5980  178.9670  137.6570 O   0  0  0  0  0  0  0  0  0  0  0  0
  188.6340  176.4180  137.3700 C   0  0  0  0  0  0  0  0  0  0  0  0
  190.7490  175.0620  137.1740 C   0  0  0  0  0  2  0  0  0  0  0  0
  186.4900  175.5330  136.6470 C   0  0  0  0  0  0  0  0  0  0  0  0
  188.5040  174.1710  136.4880 C   0  0  0  0  0  3  0  0  0  0  0  0
  188.9430  178.7410  137.9790 C   0  0  0  0  0  3  0  0  0  0  0  0
  186.6240  177.9130  137.5720 C   0  0  2  0  0  3  0  0  0  0  0  0
  187.1300  174.3330  136.2930 C   0  0  0  0  0  3  0  0  0  0  0  0
  184.7150  175.3060  134.9620 C   0  0  0  0  0  1  0  0  0  0  0  0
  185.0110  175.6860  136.4110 C   0  0  1  0  0  3  0  0  0  0  0  0
  184.1520  174.8970  137.4360 C   0  0  1  0  0  3  0  0  0  0  0  0
  182.9190  175.7050  137.9110 C   0  0  1  0  0  3  0  0  0  0  0  0
  182.9590  175.9270  139.2890 O   0  0  0  0  0  1  0  0  0  0  0  0
  182.8030  177.0510  137.2180 C   0  0  0  0  0  1  0  0  0  0  0  0
  181.9670  173.2130  136.8760 S   0  0  0  0  0  1  0  0  0  0  0  0
  184.4160  172.4910  137.5980 O   0  0  0  0  0  1  0  0  0  0  0  0
  183.7670  173.5040  136.8920 C   0  0  2  0  0  3  0  0  0  0  0  0
  185.9870  177.7620  138.8090 O   0  0  0  0  0  0  0  0  0  0  0  0
  185.1240  178.8570  138.9120 C   0  0  0  0  0  2  0  0  0  0  0  0
  184.6450  179.0070  140.3420 C   0  0  0  0  0  2  0  0  0  0  0  0
  185.7990  178.7640  141.2900 C   0  0  0  0  0  2  0  0  0  0  0  0
  185.2760  178.4340  142.6730 C   0  0  0  0  0  2  0  0  0  0  0  0
  185.3520  179.3130  145.4870 O   0  0  0  0  0  1  0  0  0  0  0  0
  186.3910  178.3720  143.6070 N   0  0  0  0  0  0  0  0  0  0  0  0
  185.8310  178.1160  144.9450 C   0  0  1  0  0  3  0  0  0  0  0  0
  188.2840  177.7440  145.4560 C   0  0  0  0  0  2  0  0  0  0  0  0
  188.5030  177.1850  144.0460 C   0  0  0  0  0  2  0  0  0  0  0  0
  187.2290  177.2450  143.1960 C   0  0  0  0  0  2  0  0  0  0  0  0
  186.8510  177.4970  145.9200 C   0  0  0  0  0  2  0  0  0  0  0  0
  1  8  1  0  0  0  0
  1  7  1  0  0  0  0
  2 11  2  0  0  0  0
  2  5  1  0  0  0  0
  3  7  2  0  0  0  0
  3 12  1  0  0  0  0
  5  4  1  0  0  0  0
  6 11  1  0  0  0  0
  7  2  1  0  0  0  0
  8  4  1  0  0  0  0
  9  3  1  0  0  0  0
 10  1  2  0  0  0  0
 12  6  1  0  0  0  0
 12 23  1  1  0  0  0
 13 10  1  0  0  0  0
 13  9  2  0  0  0  0
 15 14  1  6  0  0  0
 15  9  1  0  0  0  0
 16 15  1  6  0  0  0
 16 17  1  0  0  0  0
 17 19  1  6  0  0  0
 17 18  1  0  0  0  0
 22 20  1  1  0  0  0
 22 16  1  0  0  0  0
 22 21  1  0  0  0  0
 23 24  1  0  0  0  0
 24 25  1  0  0  0  0
 25 26  1  0  0  0  0
 26 27  1  0  0  0  0
 27 29  1  0  0  0  0
 29 30  1  0  0  0  0
 30 28  1  1  0  0  0
 30 34  1  0  0  0  0
 31 34  1  0  0  0  0
 32 31  1  0  0  0  0
 33 29  1  0  0  0  0
 33 32  1  0  0  0  0
M  END
>  <MODEL>
6

>  <REMARK>
 VINA RESULT:      -6.4      3.631      6.634
  Name = 
  10 active torsions:
  status: ('A' for Active; 'I' for Inactive)
    1  A    between atoms: C_3  and  N_13
    2  A    between atoms: C_3  and  C_17
    3  A    between atoms: O_5  and  C_18
    4  A    between atoms: O_5  and  C_31
    5  A    between atoms: C_7  and  C_23
    6  A    between atoms: C_17  and  C_29
    7  A    between atoms: C_18  and  C_29
    8  A    between atoms: C_21  and  C_28
    9  A    between atoms: C_23  and  C_27
   10  A    between atoms: C_23  and  C_28
                            x       y       z     vdW  Elec       q    Type
                         _______ _______ _______ _____ _____    ______ ____

>  <TORSDO>
F 10

$$$$
=
 OpenBabel10272400063D

 34 37  0  0  1  0  0  0  0  0999 V2000
  192.3700  173.2850  136.0840 C   0  0  0  0  0  0  0  0  0  0  0  0
  193.9850  174.3360  137.6290 C   0  0  0  0  0  0  0  0  0  0  0  0
  191.8230  175.4520  137.0730 C   0  0  0  0  0  0  0  0  0  0  0  0
  194.2150  171.9450  137.1150 C   0  0  0  0  0  2  0  0  0  0  0  0
  194.7670  173.1780  137.5840 O   0  0  0  0  0  0  0  0  0  0  0  0
  193.6150  176.5810  138.2920 O   0  0  0  0  0  0  0  0  0  0  0  0
  192.6930  174.3560  136.9310 C   0  0  0  0  0  0  0  0  0  0  0  0
  193.3530  172.1690  135.8670 C   0  0  0  0  0  2  0  0  0  0  0  0
  190.6020  175.4590  136.3670 C   0  0  0  0  0  0  0  0  0  0  0  0
  191.1810  173.3180  135.3550 C   0  0  0  0  0  3  0  0  0  0  0  0
  194.4160  175.4320  138.2480 C   0  0  0  0  0  3  0  0  0  0  0  0
  192.2020  176.5630  138.0280 C   0  0  2  0  0  3  0  0  0  0  0  0
  190.3030  174.3960  135.4970 C   0  0  0  0  0  3  0  0  0  0  0  0
  189.1600  176.9830  135.0880 C   0  0  0  0  0  1  0  0  0  0  0  0
  189.6450  176.6150  136.4880 C   0  0  1  0  0  3  0  0  0  0  0  0
  188.4850  176.3350  137.4820 C   0  0  1  0  0  3  0  0  0  0  0  0
  188.1420  177.5760  138.3440 C   0  0  1  0  0  3  0  0  0  0  0  0
  188.3120  177.3100  139.7040 O   0  0  0  0  0  1  0  0  0  0  0  0
  188.9890  178.7840  137.9880 C   0  0  0  0  0  1  0  0  0  0  0  0
  185.8670  176.9500  136.6520 S   0  0  0  0  0  1  0  0  0  0  0  0
  186.8220  174.5740  137.3450 O   0  0  0  0  0  1  0  0  0  0  0  0
  187.2480  175.7640  136.7550 C   0  0  2  0  0  3  0  0  0  0  0  0
  191.5030  176.4010  139.2290 O   0  0  0  0  0  0  0  0  0  0  0  0
  191.7320  177.5790  139.9470 C   0  0  0  0  0  2  0  0  0  0  0  0
  192.0330  177.2520  141.3970 C   0  0  0  0  0  2  0  0  0  0  0  0
  190.8130  177.5380  142.2440 C   0  0  0  0  0  2  0  0  0  0  0  0
  190.1160  176.2430  142.6060 C   0  0  0  0  0  2  0  0  0  0  0  0
  191.0550  176.5000  145.3890 O   0  0  0  0  0  1  0  0  0  0  0  0
  189.3230  176.4430  143.8090 N   0  0  0  0  0  0  0  0  0  0  0  0
  190.1120  177.2880  144.7220 C   0  0  1  0  0  3  0  0  0  0  0  0
  187.8880  177.3540  145.9330 C   0  0  0  0  0  2  0  0  0  0  0  0
  187.1460  177.2850  144.5940 C   0  0  0  0  0  2  0  0  0  0  0  0
  188.1070  177.1490  143.4070 C   0  0  0  0  0  2  0  0  0  0  0  0
  189.2480  178.0250  145.7640 C   0  0  0  0  0  2  0  0  0  0  0  0
  1  7  1  0  0  0  0
  2 11  2  0  0  0  0
  3 12  1  0  0  0  0
  4  5  1  0  0  0  0
  5  2  1  0  0  0  0
  7  3  2  0  0  0  0
  7  2  1  0  0  0  0
  8  1  1  0  0  0  0
  8  4  1  0  0  0  0
  9 15  1  0  0  0  0
  9  3  1  0  0  0  0
 10 13  1  0  0  0  0
 10  1  2  0  0  0  0
 11  6  1  0  0  0  0
 12  6  1  0  0  0  0
 12 23  1  1  0  0  0
 13  9  2  0  0  0  0
 15 14  1  6  0  0  0
 16 15  1  6  0  0  0
 16 17  1  0  0  0  0
 17 19  1  6  0  0  0
 17 18  1  0  0  0  0
 22 20  1  1  0  0  0
 22 21  1  0  0  0  0
 22 16  1  0  0  0  0
 23 24  1  0  0  0  0
 24 25  1  0  0  0  0
 25 26  1  0  0  0  0
 26 27  1  0  0  0  0
 27 29  1  0  0  0  0
 29 30  1  0  0  0  0
 30 28  1  1  0  0  0
 30 34  1  0  0  0  0
 32 31  1  0  0  0  0
 33 29  1  0  0  0  0
 33 32  1  0  0  0  0
 34 31  1  0  0  0  0
M  END
>  <MODEL>
7

>  <REMARK>
 VINA RESULT:      -6.3      4.325      8.161
  Name = 
  10 active torsions:
  status: ('A' for Active; 'I' for Inactive)
    1  A    between atoms: C_3  and  N_13
    2  A    between atoms: C_3  and  C_17
    3  A    between atoms: O_5  and  C_18
    4  A    between atoms: O_5  and  C_31
    5  A    between atoms: C_7  and  C_23
    6  A    between atoms: C_17  and  C_29
    7  A    between atoms: C_18  and  C_29
    8  A    between atoms: C_21  and  C_28
    9  A    between atoms: C_23  and  C_27
   10  A    between atoms: C_23  and  C_28
                            x       y       z     vdW  Elec       q    Type
                         _______ _______ _______ _____ _____    ______ ____

>  <TORSDO>
F 10

$$$$
=
 OpenBabel10272400063D

 34 37  0  0  1  0  0  0  0  0999 V2000
  184.5350  178.5810  145.1720 C   0  0  0  0  0  0  0  0  0  0  0  0
  186.9000  177.9040  144.9520 C   0  0  0  0  0  0  0  0  0  0  0  0
  185.4140  178.0550  142.9530 C   0  0  0  0  0  0  0  0  0  0  0  0
  186.1670  179.0070  147.0210 C   0  0  0  0  0  2  0  0  0  0  0  0
  187.0980  178.1910  146.3070 O   0  0  0  0  0  0  0  0  0  0  0  0
  187.6410  177.0520  142.8690 O   0  0  0  0  0  0  0  0  0  0  0  0
  185.5990  178.2000  144.3390 C   0  0  0  0  0  0  0  0  0  0  0  0
  184.7230  178.6370  146.6620 C   0  0  0  0  0  2  0  0  0  0  0  0
  184.1460  178.3160  142.3950 C   0  0  0  0  0  0  0  0  0  0  0  0
  183.2720  178.7960  144.6190 C   0  0  0  0  0  3  0  0  0  0  0  0
  187.8530  177.3230  144.2280 C   0  0  0  0  0  3  0  0  0  0  0  0
  186.6040  177.6790  142.0960 C   0  0  2  0  0  3  0  0  0  0  0  0
  183.0790  178.6660  143.2410 C   0  0  0  0  0  3  0  0  0  0  0  0
  183.2130  176.8290  140.6750 C   0  0  0  0  0  1  0  0  0  0  0  0
  183.9060  178.1680  140.9160 C   0  0  1  0  0  3  0  0  0  0  0  0
  183.1360  179.3710  140.3060 C   0  0  1  0  0  3  0  0  0  0  0  0
  183.6410  179.7290  138.8860 C   0  0  1  0  0  3  0  0  0  0  0  0
  184.1240  181.0380  138.8360 O   0  0  0  0  0  1  0  0  0  0  0  0
  184.7400  178.7990  138.4080 C   0  0  0  0  0  1  0  0  0  0  0  0
  180.8930  178.8010  138.7050 S   0  0  0  0  0  1  0  0  0  0  0  0
  180.9540  180.2120  140.9510 O   0  0  0  0  0  1  0  0  0  0  0  0
  181.6100  179.1400  140.3470 C   0  0  2  0  0  3  0  0  0  0  0  0
  187.1100  178.8260  141.4750 O   0  0  0  0  0  0  0  0  0  0  0  0
  188.2980  178.4160  140.8610 C   0  0  0  0  0  2  0  0  0  0  0  0
  188.0150  177.9410  139.4500 C   0  0  0  0  0  2  0  0  0  0  0  0
  189.2920  177.9720  138.6400 C   0  0  0  0  0  2  0  0  0  0  0  0
  190.0620  176.6820  138.8320 C   0  0  0  0  0  2  0  0  0  0  0  0
  192.9760  177.1180  138.7160 O   0  0  0  0  0  1  0  0  0  0  0  0
  190.9580  176.4830  137.7040 N   0  0  0  0  0  0  0  0  0  0  0  0
  192.2490  176.0220  138.2420 C   0  0  1  0  0  3  0  0  0  0  0  0
  192.6620  175.5890  135.7810 C   0  0  0  0  0  2  0  0  0  0  0  0
  191.1800  175.2540  135.5820 C   0  0  0  0  0  2  0  0  0  0  0  0
  190.3670  175.4370  136.8690 C   0  0  0  0  0  2  0  0  0  0  0  0
  193.1030  175.2660  137.2050 C   0  0  0  0  0  2  0  0  0  0  0  0
  1  8  1  0  0  0  0
  2  5  1  0  0  0  0
  3  7  1  0  0  0  0
  5  4  1  0  0  0  0
  6 11  1  0  0  0  0
  7  2  1  0  0  0  0
  7  1  2  0  0  0  0
  8  4  1  0  0  0  0
  9  3  2  0  0  0  0
  9 13  1  0  0  0  0
 10  1  1  0  0  0  0
 11  2  2  0  0  0  0
 12 23  1  1  0  0  0
 12  6  1  0  0  0  0
 12  3  1  0  0  0  0
 13 10  2  0  0  0  0
 15 14  1  1  0  0  0
 15  9  1  0  0  0  0
 16 17  1  6  0  0  0
 16 22  1  0  0  0  0
 16 15  1  0  0  0  0
 17 19  1  1  0  0  0
 18 17  1  0  0  0  0
 22 20  1  6  0  0  0
 22 21  1  0  0  0  0
 24 23  1  0  0  0  0
 25 24  1  0  0  0  0
 26 27  1  0  0  0  0
 26 25  1  0  0  0  0
 29 30  1  0  0  0  0
 29 27  1  0  0  0  0
 30 28  1  6  0  0  0
 31 34  1  0  0  0  0
 32 31  1  0  0  0  0
 32 33  1  0  0  0  0
 33 29  1  0  0  0  0
 34 30  1  0  0  0  0
M  END
>  <MODEL>
8

>  <REMARK>
 VINA RESULT:      -6.3      2.237      3.364
  Name = 
  10 active torsions:
  status: ('A' for Active; 'I' for Inactive)
    1  A    between atoms: C_3  and  N_13
    2  A    between atoms: C_3  and  C_17
    3  A    between atoms: O_5  and  C_18
    4  A    between atoms: O_5  and  C_31
    5  A    between atoms: C_7  and  C_23
    6  A    between atoms: C_17  and  C_29
    7  A    between atoms: C_18  and  C_29
    8  A    between atoms: C_21  and  C_28
    9  A    between atoms: C_23  and  C_27
   10  A    between atoms: C_23  and  C_28
                            x       y       z     vdW  Elec       q    Type
                         _______ _______ _______ _____ _____    ______ ____

>  <TORSDO>
F 10

$$$$
=
 OpenBabel10272400063D

 34 37  0  0  1  0  0  0  0  0999 V2000
  185.6010  173.4380  136.8650 C   0  0  0  0  0  0  0  0  0  0  0  0
  187.6170  174.6170  136.0630 C   0  0  0  0  0  0  0  0  0  0  0  0
  185.7020  175.8730  137.0560 C   0  0  0  0  0  0  0  0  0  0  0  0
  187.7300  172.1940  136.4450 C   0  0  0  0  0  2  0  0  0  0  0  0
  188.2360  173.3840  135.8360 O   0  0  0  0  0  0  0  0  0  0  0  0
  187.5590  176.9820  135.9180 O   0  0  0  0  0  0  0  0  0  0  0  0
  186.2890  174.6490  136.6890 C   0  0  0  0  0  0  0  0  0  0  0  0
  186.2000  172.1490  136.3770 C   0  0  0  0  0  2  0  0  0  0  0  0
  184.4130  175.8760  137.6280 C   0  0  0  0  0  0  0  0  0  0  0  0
  184.3070  173.4520  137.3900 C   0  0  0  0  0  3  0  0  0  0  0  0
  188.1890  175.7540  135.6740 C   0  0  0  0  0  3  0  0  0  0  0  0
  186.5040  177.1450  136.8800 C   0  0  2  0  0  3  0  0  0  0  0  0
  183.7190  174.6620  137.7700 C   0  0  0  0  0  3  0  0  0  0  0  0
  182.7570  177.5550  136.9370 C   0  0  0  0  0  1  0  0  0  0  0  0
  183.7490  177.1660  138.0300 C   0  0  1  0  0  3  0  0  0  0  0  0
  183.1040  177.0960  139.4420 C   0  0  1  0  0  3  0  0  0  0  0  0
  183.5650  178.2620  140.3520 C   0  0  1  0  0  3  0  0  0  0  0  0
  184.1500  177.7860  141.5270 O   0  0  0  0  0  1  0  0  0  0  0  0
  184.5600  179.1790  139.6660 C   0  0  0  0  0  1  0  0  0  0  0  0
  180.7060  178.3580  140.2000 S   0  0  0  0  0  1  0  0  0  0  0  0
  181.1160  175.7630  139.8320 O   0  0  0  0  0  1  0  0  0  0  0  0
  181.5660  176.9930  139.3520 C   0  0  2  0  0  3  0  0  0  0  0  0
  187.0470  177.5260  138.1120 O   0  0  0  0  0  0  0  0  0  0  0  0
  187.9610  178.5400  137.8100 C   0  0  0  0  0  2  0  0  0  0  0  0
  189.1160  178.5060  138.7910 C   0  0  0  0  0  2  0  0  0  0  0  0
  188.6320  177.9790  140.1240 C   0  0  0  0  0  2  0  0  0  0  0  0
  189.7340  177.1930  140.8040 C   0  0  0  0  0  2  0  0  0  0  0  0
  191.5210  177.0990  143.1480 O   0  0  0  0  0  1  0  0  0  0  0  0
  189.3800  176.9760  142.1990 N   0  0  0  0  0  0  0  0  0  0  0  0
  190.3060  177.7770  143.0190 C   0  0  1  0  0  3  0  0  0  0  0  0
  188.6430  177.1190  144.8130 C   0  0  0  0  0  2  0  0  0  0  0  0
  187.5070  177.1530  143.7860 C   0  0  0  0  0  2  0  0  0  0  0  0
  188.0120  177.4650  142.3730 C   0  0  0  0  0  2  0  0  0  0  0  0
  189.7540  178.0900  144.4240 C   0  0  0  0  0  2  0  0  0  0  0  0
  1 10  1  0  0  0  0
  2  7  1  0  0  0  0
  3  9  2  0  0  0  0
  5  2  1  0  0  0  0
  5  4  1  0  0  0  0
  6 12  1  0  0  0  0
  7  1  2  0  0  0  0
  7  3  1  0  0  0  0
  8  4  1  0  0  0  0
  8  1  1  0  0  0  0
  9 13  1  0  0  0  0
  9 15  1  0  0  0  0
 10 13  2  0  0  0  0
 11  6  1  0  0  0  0
 11  2  2  0  0  0  0
 12  3  1  0  0  0  0
 12 23  1  1  0  0  0
 15 14  1  6  0  0  0
 16 15  1  6  0  0  0
 16 17  1  0  0  0  0
 17 19  1  6  0  0  0
 17 18  1  0  0  0  0
 22 16  1  0  0  0  0
 22 21  1  1  0  0  0
 22 20  1  0  0  0  0
 24 23  1  0  0  0  0
 24 25  1  0  0  0  0
 25 26  1  0  0  0  0
 26 27  1  0  0  0  0
 27 29  1  0  0  0  0
 29 33  1  0  0  0  0
 29 30  1  0  0  0  0
 30 28  1  1  0  0  0
 30 34  1  0  0  0  0
 32 31  1  0  0  0  0
 33 32  1  0  0  0  0
 34 31  1  0  0  0  0
M  END
>  <MODEL>
9

>  <REMARK>
 VINA RESULT:      -6.3      3.623      5.932
  Name = 
  10 active torsions:
  status: ('A' for Active; 'I' for Inactive)
    1  A    between atoms: C_3  and  N_13
    2  A    between atoms: C_3  and  C_17
    3  A    between atoms: O_5  and  C_18
    4  A    between atoms: O_5  and  C_31
    5  A    between atoms: C_7  and  C_23
    6  A    between atoms: C_17  and  C_29
    7  A    between atoms: C_18  and  C_29
    8  A    between atoms: C_21  and  C_28
    9  A    between atoms: C_23  and  C_27
   10  A    between atoms: C_23  and  C_28
                            x       y       z     vdW  Elec       q    Type
                         _______ _______ _______ _____ _____    ______ ____

>  <TORSDO>
F 10

$$$$
