=
 OpenBabel10272413243D

 32 38  0  0  1  0  0  0  0  0999 V2000
  188.2410  177.6630  145.8280 C   0  0  0  0  0  2  0  0  0  0  0  0
  188.0950  178.1580  140.9420 C   0  0  0  0  0  0  0  0  0  0  0  0
  183.3060  178.7390  140.1300 C   0  0  0  0  0  3  0  0  0  0  0  0
  183.4990  178.0870  138.7900 C   0  0  0  0  0  2  0  0  0  0  0  0
  189.4470  178.0220  138.7580 C   0  0  2  0  0  3  0  0  0  0  0  0
  190.2600  176.9830  139.4560 C   0  0  0  0  0  0  0  0  0  0  0  0
  188.8000  177.6590  143.2260 C   0  0  1  0  0  3  0  0  0  0  0  0
  186.3970  177.9160  142.6470 N   0  0  0  0  0  2  0  0  0  0  0  0
  189.4950  176.4530  136.7260 C   0  0  0  0  0  0  0  0  0  0  0  0
  187.0090  177.3400  144.9770 C   0  0  0  0  0  2  0  0  0  0  0  0
  184.3460  178.9550  140.9380 C   0  0  0  0  0  3  0  0  0  0  0  0
  186.7090  178.3100  141.4440 C   0  0  0  0  0  0  0  0  0  0  0  0
  185.6820  178.6750  140.4960 N   0  0  0  0  0  0  0  0  0  0  0  0
  187.1940  178.3360  138.6460 C   0  0  0  0  0  0  0  0  0  0  0  0
  190.3900  175.6830  137.3650 C   0  0  0  0  0  3  0  0  0  0  0  0
  187.3590  177.2110  143.4960 C   0  0  2  0  0  3  0  0  0  0  0  0
  190.7410  175.9200  138.7920 C   0  0  0  0  0  3  0  0  0  0  0  0
  189.6970  176.8210  143.9190 O   0  0  0  0  0  0  0  0  0  0  0  0
  189.5000  176.9110  145.3290 C   0  0  1  0  0  3  0  0  0  0  0  0
  184.7870  178.5520  138.1100 C   0  0  0  0  0  2  0  0  0  0  0  0
  185.9360  178.5090  139.0760 C   0  0  0  0  0  0  0  0  0  0  0  0
  187.5510  177.7520  137.3990 N   0  0  0  0  0  2  0  0  0  0  0  0
  189.0770  177.7010  141.7460 C   0  0  2  0  0  3  0  0  0  0  0  0
  190.7560  177.3680  141.1350 S   0  0  0  0  0  0  0  0  0  0  0  0
  189.1030  176.1400  135.3250 C   0  0  0  0  0  1  0  0  0  0  0  0
  188.2890  178.3820  139.5430 N   0  0  0  0  0  0  0  0  0  0  0  0
  188.8260  177.5140  137.4890 C   0  0  1  0  0  3  0  0  0  0  0  0
  190.7650  177.3930  146.0360 C   0  0  0  0  0  2  0  0  0  0  0  0
  190.9390  176.7880  147.4250 C   0  0  0  0  0  2  0  0  0  0  0  0
  192.1710  175.9510  147.5080 C   0  0  0  0  0  0  0  0  0  0  0  0
  193.0700  176.1290  148.5520 O   0  0  0  0  0  1  0  0  0  0  0  0
  192.4120  175.1020  146.6130 O   0  0  0  0  0  0  0  0  0  0  0  0
  2 12  2  0  0  0  0
  3 11  2  0  0  0  0
  4  3  1  0  0  0  0
  5  6  1  1  0  0  0
  5 26  1  0  0  0  0
  6 24  1  0  0  0  0
  7 16  1  0  0  0  0
  7 18  1  1  0  0  0
  8 16  1  0  0  0  0
  9 15  2  0  0  0  0
 10  1  1  0  0  0  0
 12  8  1  0  0  0  0
 13 11  1  0  0  0  0
 13 12  1  0  0  0  0
 14 21  2  0  0  0  0
 14 26  1  0  0  0  0
 15 17  1  0  0  0  0
 16 10  1  1  0  0  0
 17  6  2  0  0  0  0
 18 19  1  0  0  0  0
 19  1  1  0  0  0  0
 19 28  1  1  0  0  0
 20  4  1  0  0  0  0
 20 21  1  0  0  0  0
 21 13  1  0  0  0  0
 22 27  1  0  0  0  0
 22 14  1  0  0  0  0
 23  2  1  1  0  0  0
 23  7  1  0  0  0  0
 24 23  1  0  0  0  0
 25  9  1  0  0  0  0
 26  2  1  0  0  0  0
 27  9  1  1  0  0  0
 27  5  1  0  0  0  0
 28 29  1  0  0  0  0
 29 30  1  0  0  0  0
 30 31  1  0  0  0  0
 32 30  2  0  0  0  0
M  END
>  <MODEL>
1

>  <REMARK>
 VINA RESULT:      -9.5      0.000      0.000
  Name = 
  3 active torsions:
  status: ('A' for Active; 'I' for Inactive)
    1  A    between atoms: C_1  and  C_10
    2  A    between atoms: C_10  and  C_19
    3  A    between atoms: C_19  and  C_24
                            x       y       z     vdW  Elec       q    Type
                         _______ _______ _______ _____ _____    ______ ____

>  <TORSDO>
F 3

$$$$
=
 OpenBabel10272413243D

 32 38  0  0  1  0  0  0  0  0999 V2000
  188.1990  177.5570  146.4770 C   0  0  0  0  0  2  0  0  0  0  0  0
  187.0460  178.3370  141.7650 C   0  0  0  0  0  0  0  0  0  0  0  0
  182.1730  178.7210  141.9690 C   0  0  0  0  0  3  0  0  0  0  0  0
  182.1150  178.1610  140.5760 C   0  0  0  0  0  2  0  0  0  0  0  0
  187.9310  178.4010  139.3510 C   0  0  2  0  0  3  0  0  0  0  0  0
  188.9070  177.3650  139.7990 C   0  0  0  0  0  0  0  0  0  0  0  0
  188.2180  177.7380  143.8220 C   0  0  1  0  0  3  0  0  0  0  0  0
  185.7390  177.9070  143.7540 N   0  0  0  0  0  2  0  0  0  0  0  0
  187.6250  176.9610  137.2470 C   0  0  0  0  0  0  0  0  0  0  0  0
  186.8330  177.2240  145.8690 C   0  0  0  0  0  2  0  0  0  0  0  0
  183.3460  178.9400  142.5660 C   0  0  0  0  0  3  0  0  0  0  0  0
  185.7860  178.3870  142.5440 C   0  0  0  0  0  0  0  0  0  0  0  0
  184.5750  178.7560  141.8470 N   0  0  0  0  0  0  0  0  0  0  0  0
  185.6920  178.6070  139.7140 C   0  0  0  0  0  0  0  0  0  0  0  0
  188.6590  176.2010  137.6400 C   0  0  0  0  0  3  0  0  0  0  0  0
  186.8800  177.2010  144.3430 C   0  0  2  0  0  3  0  0  0  0  0  0
  189.2830  176.3690  138.9800 C   0  0  0  0  0  3  0  0  0  0  0  0
  189.2670  176.9060  144.2620 O   0  0  0  0  0  0  0  0  0  0  0  0
  189.3570  176.9010  145.6860 C   0  0  1  0  0  3  0  0  0  0  0  0
  183.2190  178.7310  139.6860 C   0  0  0  0  0  2  0  0  0  0  0  0
  184.5420  178.6890  140.3970 C   0  0  0  0  0  0  0  0  0  0  0  0
  185.8110  178.1170  138.3830 N   0  0  0  0  0  2  0  0  0  0  0  0
  188.1870  177.8820  142.3230 C   0  0  2  0  0  3  0  0  0  0  0  0
  189.7180  177.6730  141.3670 S   0  0  0  0  0  0  0  0  0  0  0  0
  186.9690  176.7140  135.9350 C   0  0  0  0  0  1  0  0  0  0  0  0
  186.9430  178.6540  140.3740 N   0  0  0  0  0  0  0  0  0  0  0  0
  187.0850  177.9390  138.2000 C   0  0  1  0  0  3  0  0  0  0  0  0
  190.7200  177.4040  146.1570 C   0  0  0  0  0  2  0  0  0  0  0  0
  191.0970  176.8940  147.5450 C   0  0  0  0  0  2  0  0  0  0  0  0
  192.2370  175.9340  147.4850 C   0  0  0  0  0  0  0  0  0  0  0  0
  193.1890  175.9130  148.4970 O   0  0  0  0  0  1  0  0  0  0  0  0
  192.3540  175.1620  146.4990 O   0  0  0  0  0  0  0  0  0  0  0  0
  2 23  1  0  0  0  0
  2 12  2  0  0  0  0
  3 11  2  0  0  0  0
  4  3  1  0  0  0  0
  5  6  1  1  0  0  0
  5 26  1  0  0  0  0
  6 24  1  0  0  0  0
  7 18  1  6  0  0  0
  7 16  1  0  0  0  0
  8 16  1  0  0  0  0
  9 15  2  0  0  0  0
 10  1  1  0  0  0  0
 12  8  1  0  0  0  0
 13 12  1  0  0  0  0
 13 11  1  0  0  0  0
 14 26  1  0  0  0  0
 14 21  2  0  0  0  0
 15 17  1  0  0  0  0
 16 10  1  1  0  0  0
 17  6  2  0  0  0  0
 18 19  1  0  0  0  0
 19 28  1  6  0  0  0
 19  1  1  0  0  0  0
 20 21  1  0  0  0  0
 20  4  1  0  0  0  0
 21 13  1  0  0  0  0
 22 14  1  0  0  0  0
 23 24  1  1  0  0  0
 23  7  1  0  0  0  0
 25  9  1  0  0  0  0
 26  2  1  0  0  0  0
 27  9  1  1  0  0  0
 27 22  1  0  0  0  0
 27  5  1  0  0  0  0
 28 29  1  0  0  0  0
 30 29  1  0  0  0  0
 30 31  1  0  0  0  0
 32 30  2  0  0  0  0
M  END
>  <MODEL>
2

>  <REMARK>
 VINA RESULT:      -9.4      1.158      1.483
  Name = 
  3 active torsions:
  status: ('A' for Active; 'I' for Inactive)
    1  A    between atoms: C_1  and  C_10
    2  A    between atoms: C_10  and  C_19
    3  A    between atoms: C_19  and  C_24
                            x       y       z     vdW  Elec       q    Type
                         _______ _______ _______ _____ _____    ______ ____

>  <TORSDO>
F 3

$$$$
=
 OpenBabel10272413243D

 32 38  0  0  1  0  0  0  0  0999 V2000
  189.6750  177.6180  138.3600 C   0  0  0  0  0  2  0  0  0  0  0  0
  188.0060  177.1940  142.9620 C   0  0  0  0  0  0  0  0  0  0  0  0
  183.6170  179.3310  142.6430 C   0  0  0  0  0  3  0  0  0  0  0  0
  183.7630  179.7440  144.0810 C   0  0  0  0  0  2  0  0  0  0  0  0
  188.5940  176.5230  145.3750 C   0  0  2  0  0  3  0  0  0  0  0  0
  189.9820  176.9550  145.0400 C   0  0  0  0  0  0  0  0  0  0  0  0
  189.4420  177.2660  140.9880 C   0  0  1  0  0  3  0  0  0  0  0  0
  187.2120  178.3630  140.9990 N   0  0  0  0  0  2  0  0  0  0  0  0
  188.9230  177.7690  147.5960 C   0  0  0  0  0  0  0  0  0  0  0  0
  188.6260  178.5500  138.9740 C   0  0  0  0  0  2  0  0  0  0  0  0
  184.5570  178.5940  142.0480 C   0  0  0  0  0  3  0  0  0  0  0  0
  186.9390  177.8400  142.1610 C   0  0  0  0  0  0  0  0  0  0  0  0
  185.6670  178.0830  142.8020 N   0  0  0  0  0  0  0  0  0  0  0  0
  186.5780  177.4990  144.9570 C   0  0  0  0  0  0  0  0  0  0  0  0
  190.2200  177.9300  147.2910 C   0  0  0  0  0  3  0  0  0  0  0  0
  188.5860  178.4380  140.4960 C   0  0  2  0  0  3  0  0  0  0  0  0
  190.7550  177.5660  145.9510 C   0  0  0  0  0  3  0  0  0  0  0  0
  190.7910  177.4840  140.6430 O   0  0  0  0  0  0  0  0  0  0  0  0
  190.9570  177.5440  139.2270 C   0  0  1  0  0  3  0  0  0  0  0  0
  184.3780  178.6350  144.9330 C   0  0  0  0  0  2  0  0  0  0  0  0
  185.5840  178.0550  144.2510 C   0  0  0  0  0  0  0  0  0  0  0  0
  186.8460  177.7670  146.3300 N   0  0  0  0  0  2  0  0  0  0  0  0
  189.2530  177.0510  142.4670 C   0  0  2  0  0  3  0  0  0  0  0  0
  190.6230  176.3930  143.4630 S   0  0  0  0  0  0  0  0  0  0  0  0
  188.4000  178.2190  148.9140 C   0  0  0  0  0  1  0  0  0  0  0  0
  187.6750  176.8750  144.3160 N   0  0  0  0  0  0  0  0  0  0  0  0
  188.0250  177.2650  146.5490 C   0  0  1  0  0  3  0  0  0  0  0  0
  191.9120  176.4580  138.7350 C   0  0  0  0  0  2  0  0  0  0  0  0
  191.5840  175.9700  137.3270 C   0  0  0  0  0  2  0  0  0  0  0  0
  191.4680  174.4850  137.2760 C   0  0  0  0  0  0  0  0  0  0  0  0
  192.5210  173.7150  136.7970 O   0  0  0  0  0  0  0  0  0  0  0  0
  190.4000  173.9270  137.6390 O   0  0  0  0  0  1  0  0  0  0  0  0
  1 10  1  0  0  0  0
  1 19  1  0  0  0  0
  2 26  1  0  0  0  0
  3  4  1  0  0  0  0
  4 20  1  0  0  0  0
  5  6  1  6  0  0  0
  5 27  1  0  0  0  0
  6 17  2  0  0  0  0
  7 18  1  1  0  0  0
  7 23  1  0  0  0  0
  8 12  1  0  0  0  0
  9 25  1  0  0  0  0
 11  3  2  0  0  0  0
 11 13  1  0  0  0  0
 12 13  1  0  0  0  0
 12  2  2  0  0  0  0
 13 21  1  0  0  0  0
 14 22  1  0  0  0  0
 15  9  2  0  0  0  0
 16 10  1  6  0  0  0
 16  7  1  0  0  0  0
 16  8  1  0  0  0  0
 17 15  1  0  0  0  0
 19 28  1  6  0  0  0
 19 18  1  0  0  0  0
 21 20  1  0  0  0  0
 21 14  2  0  0  0  0
 23  2  1  6  0  0  0
 23 24  1  0  0  0  0
 24  6  1  0  0  0  0
 26 14  1  0  0  0  0
 26  5  1  0  0  0  0
 27 22  1  6  0  0  0
 27  9  1  0  0  0  0
 29 28  1  0  0  0  0
 30 29  1  0  0  0  0
 30 32  1  0  0  0  0
 31 30  2  0  0  0  0
M  END
>  <MODEL>
3

>  <REMARK>
 VINA RESULT:      -9.3      2.681      7.013
  Name = 
  3 active torsions:
  status: ('A' for Active; 'I' for Inactive)
    1  A    between atoms: C_1  and  C_10
    2  A    between atoms: C_10  and  C_19
    3  A    between atoms: C_19  and  C_24
                            x       y       z     vdW  Elec       q    Type
                         _______ _______ _______ _____ _____    ______ ____

>  <TORSDO>
F 3

$$$$
=
 OpenBabel10272413243D

 32 38  0  0  1  0  0  0  0  0999 V2000
  187.7320  177.7390  146.3240 C   0  0  0  0  0  2  0  0  0  0  0  0
  186.4790  178.4460  141.6260 C   0  0  0  0  0  0  0  0  0  0  0  0
  181.6050  178.7500  141.9170 C   0  0  0  0  0  3  0  0  0  0  0  0
  181.5310  178.1740  140.5310 C   0  0  0  0  0  2  0  0  0  0  0  0
  187.3180  178.4980  139.1950 C   0  0  2  0  0  3  0  0  0  0  0  0
  188.3200  177.4840  139.6350 C   0  0  0  0  0  0  0  0  0  0  0  0
  187.6990  177.8900  143.6670 C   0  0  1  0  0  3  0  0  0  0  0  0
  185.2160  178.0160  143.6440 N   0  0  0  0  0  2  0  0  0  0  0  0
  186.9970  177.0300  137.1130 C   0  0  0  0  0  0  0  0  0  0  0  0
  186.3610  177.3750  145.7450 C   0  0  0  0  0  2  0  0  0  0  0  0
  182.7850  178.9960  142.4900 C   0  0  0  0  0  3  0  0  0  0  0  0
  185.2330  178.4840  142.4280 C   0  0  0  0  0  0  0  0  0  0  0  0
  184.0030  178.8240  141.7500 N   0  0  0  0  0  0  0  0  0  0  0  0
  185.0820  178.6700  139.5980 C   0  0  0  0  0  0  0  0  0  0  0  0
  188.0510  176.2920  137.4940 C   0  0  0  0  0  3  0  0  0  0  0  0
  186.3800  177.3370  144.2190 C   0  0  2  0  0  3  0  0  0  0  0  0
  188.6970  176.4850  138.8210 C   0  0  0  0  0  3  0  0  0  0  0  0
  188.7700  177.0810  144.0960 O   0  0  0  0  0  0  0  0  0  0  0  0
  188.8870  177.0930  145.5180 C   0  0  1  0  0  3  0  0  0  0  0  0
  182.6080  178.7520  139.6150 C   0  0  0  0  0  2  0  0  0  0  0  0
  183.9440  178.7410  140.3010 C   0  0  0  0  0  0  0  0  0  0  0  0
  185.1850  178.1680  138.2700 N   0  0  0  0  0  2  0  0  0  0  0  0
  187.6370  178.0170  142.1670 C   0  0  2  0  0  3  0  0  0  0  0  0
  189.1540  177.8230  141.1850 S   0  0  0  0  0  0  0  0  0  0  0  0
  186.3210  176.7570  135.8160 C   0  0  0  0  0  1  0  0  0  0  0  0
  186.3450  178.7460  140.2340 N   0  0  0  0  0  0  0  0  0  0  0  0
  186.4590  178.0090  138.0650 C   0  0  1  0  0  3  0  0  0  0  0  0
  190.2490  177.6240  145.9580 C   0  0  0  0  0  2  0  0  0  0  0  0
  191.4080  177.0100  145.1780 C   0  0  0  0  0  2  0  0  0  0  0  0
  191.7310  177.8070  143.9600 C   0  0  0  0  0  0  0  0  0  0  0  0
  191.5740  179.1880  143.9620 O   0  0  0  0  0  1  0  0  0  0  0  0
  192.1200  177.2240  142.9150 O   0  0  0  0  0  0  0  0  0  0  0  0
  2 23  1  0  0  0  0
  2 12  2  0  0  0  0
  3 11  2  0  0  0  0
  4  3  1  0  0  0  0
  5  6  1  1  0  0  0
  5 26  1  0  0  0  0
  6 24  1  0  0  0  0
  7 18  1  6  0  0  0
  7 16  1  0  0  0  0
  8 16  1  0  0  0  0
  9 15  2  0  0  0  0
 10  1  1  0  0  0  0
 12  8  1  0  0  0  0
 13 12  1  0  0  0  0
 13 11  1  0  0  0  0
 14 26  1  0  0  0  0
 14 21  2  0  0  0  0
 15 17  1  0  0  0  0
 16 10  1  1  0  0  0
 17  6  2  0  0  0  0
 18 19  1  0  0  0  0
 19 28  1  6  0  0  0
 19  1  1  0  0  0  0
 20 21  1  0  0  0  0
 20  4  1  0  0  0  0
 21 13  1  0  0  0  0
 22 14  1  0  0  0  0
 23 24  1  1  0  0  0
 23  7  1  0  0  0  0
 25  9  1  0  0  0  0
 26  2  1  0  0  0  0
 27  9  1  1  0  0  0
 27 22  1  0  0  0  0
 27  5  1  0  0  0  0
 29 28  1  0  0  0  0
 30 31  1  0  0  0  0
 30 29  1  0  0  0  0
 32 30  2  0  0  0  0
M  END
>  <MODEL>
4

>  <REMARK>
 VINA RESULT:      -8.8      1.939      2.401
  Name = 
  3 active torsions:
  status: ('A' for Active; 'I' for Inactive)
    1  A    between atoms: C_1  and  C_10
    2  A    between atoms: C_10  and  C_19
    3  A    between atoms: C_19  and  C_24
                            x       y       z     vdW  Elec       q    Type
                         _______ _______ _______ _____ _____    ______ ____

>  <TORSDO>
F 3

$$$$
=
 OpenBabel10272413243D

 32 38  0  0  1  0  0  0  0  0999 V2000
  190.3870  177.3660  143.5530 C   0  0  0  0  0  2  0  0  0  0  0  0
  186.2850  178.5920  141.1420 C   0  0  0  0  0  0  0  0  0  0  0  0
  183.0160  178.8350  144.7740 C   0  0  0  0  0  3  0  0  0  0  0  0
  181.9590  178.4190  143.7900 C   0  0  0  0  0  2  0  0  0  0  0  0
  185.2050  178.9220  138.8310 C   0  0  2  0  0  3  0  0  0  0  0  0
  186.1530  177.8700  138.3600 C   0  0  0  0  0  0  0  0  0  0  0  0
  188.5330  177.8150  141.6980 C   0  0  1  0  0  3  0  0  0  0  0  0
  186.7470  177.9300  143.4230 N   0  0  0  0  0  2  0  0  0  0  0  0
  183.4220  177.6960  137.4490 C   0  0  0  0  0  0  0  0  0  0  0  0
  188.9760  177.0630  144.0660 C   0  0  0  0  0  2  0  0  0  0  0  0
  184.2770  179.0210  144.3790 C   0  0  0  0  0  3  0  0  0  0  0  0
  185.9510  178.5320  142.5850 C   0  0  0  0  0  0  0  0  0  0  0  0
  184.6250  178.9400  142.9880 N   0  0  0  0  0  0  0  0  0  0  0  0
  183.8950  179.0350  140.6910 C   0  0  0  0  0  0  0  0  0  0  0  0
  184.3870  176.9250  136.9230 C   0  0  0  0  0  3  0  0  0  0  0  0
  187.9290  177.1970  142.9640 C   0  0  2  0  0  3  0  0  0  0  0  0
  185.7840  176.9710  137.4340 C   0  0  0  0  0  3  0  0  0  0  0  0
  189.5380  176.9690  141.1880 O   0  0  0  0  0  0  0  0  0  0  0  0
  190.6090  176.8220  142.1200 C   0  0  1  0  0  3  0  0  0  0  0  0
  182.1390  179.1020  142.4350 C   0  0  0  0  0  2  0  0  0  0  0  0
  183.5720  179.0200  141.9920 C   0  0  0  0  0  0  0  0  0  0  0  0
  183.0100  178.6860  139.6320 N   0  0  0  0  0  2  0  0  0  0  0  0
  187.4590  178.1110  140.6840 C   0  0  2  0  0  3  0  0  0  0  0  0
  187.8500  178.0370  138.9100 S   0  0  0  0  0  0  0  0  0  0  0  0
  182.0180  177.5670  136.9740 C   0  0  0  0  0  1  0  0  0  0  0  0
  185.2470  179.0460  140.2700 N   0  0  0  0  0  0  0  0  0  0  0  0
  183.7700  178.5590  138.5850 C   0  0  1  0  0  3  0  0  0  0  0  0
  191.9300  177.3070  141.5270 C   0  0  0  0  0  2  0  0  0  0  0  0
  191.9390  177.2930  140.0020 C   0  0  0  0  0  2  0  0  0  0  0  0
  193.3030  177.0170  139.4650 C   0  0  0  0  0  0  0  0  0  0  0  0
  194.3870  176.9080  140.3270 O   0  0  0  0  0  1  0  0  0  0  0  0
  193.4770  176.9130  138.2240 O   0  0  0  0  0  0  0  0  0  0  0  0
  1 10  1  0  0  0  0
  2 12  2  0  0  0  0
  4  3  1  0  0  0  0
  5  6  1  1  0  0  0
  5 26  1  0  0  0  0
  6 24  1  0  0  0  0
  7 18  1  6  0  0  0
  7 16  1  0  0  0  0
 11  3  2  0  0  0  0
 12 13  1  0  0  0  0
 12  8  1  0  0  0  0
 13 11  1  0  0  0  0
 14 21  2  0  0  0  0
 15 17  1  0  0  0  0
 15  9  2  0  0  0  0
 16  8  1  0  0  0  0
 16 10  1  1  0  0  0
 17  6  2  0  0  0  0
 18 19  1  0  0  0  0
 19 28  1  6  0  0  0
 19  1  1  0  0  0  0
 20  4  1  0  0  0  0
 21 20  1  0  0  0  0
 21 13  1  0  0  0  0
 22 14  1  0  0  0  0
 23 24  1  6  0  0  0
 23  2  1  0  0  0  0
 23  7  1  0  0  0  0
 25  9  1  0  0  0  0
 26 14  1  0  0  0  0
 26  2  1  0  0  0  0
 27  9  1  1  0  0  0
 27  5  1  0  0  0  0
 27 22  1  0  0  0  0
 29 28  1  0  0  0  0
 30 29  1  0  0  0  0
 30 31  1  0  0  0  0
 32 30  2  0  0  0  0
M  END
>  <MODEL>
5

>  <REMARK>
 VINA RESULT:      -8.3      2.974      4.797
  Name = 
  3 active torsions:
  status: ('A' for Active; 'I' for Inactive)
    1  A    between atoms: C_1  and  C_10
    2  A    between atoms: C_10  and  C_19
    3  A    between atoms: C_19  and  C_24
                            x       y       z     vdW  Elec       q    Type
                         _______ _______ _______ _____ _____    ______ ____

>  <TORSDO>
F 3

$$$$
=
 OpenBabel10272413243D

 32 38  0  0  1  0  0  0  0  0999 V2000
  190.9760  177.2830  142.2620 C   0  0  0  0  0  2  0  0  0  0  0  0
  186.4440  178.6260  140.9230 C   0  0  0  0  0  0  0  0  0  0  0  0
  184.1290  178.7950  145.2290 C   0  0  0  0  0  3  0  0  0  0  0  0
  182.8620  178.4200  144.5130 C   0  0  0  0  0  2  0  0  0  0  0  0
  184.8550  179.0380  138.9420 C   0  0  2  0  0  3  0  0  0  0  0  0
  185.6460  177.9910  138.2330 C   0  0  0  0  0  0  0  0  0  0  0  0
  188.7450  177.8090  140.9100 C   0  0  1  0  0  3  0  0  0  0  0  0
  187.4190  177.8910  143.0110 N   0  0  0  0  0  2  0  0  0  0  0  0
  182.7750  177.8750  137.9880 C   0  0  0  0  0  0  0  0  0  0  0  0
  189.7210  176.9800  143.0860 C   0  0  0  0  0  2  0  0  0  0  0  0
  185.2640  178.9790  144.5530 C   0  0  0  0  0  3  0  0  0  0  0  0
  186.4580  178.5270  142.4010 C   0  0  0  0  0  0  0  0  0  0  0  0
  185.2720  178.9370  143.1180 N   0  0  0  0  0  0  0  0  0  0  0  0
  184.0230  179.1100  141.0620 C   0  0  0  0  0  0  0  0  0  0  0  0
  183.5740  177.1100  137.2280 C   0  0  0  0  0  3  0  0  0  0  0  0
  188.4460  177.1590  142.2660 C   0  0  2  0  0  3  0  0  0  0  0  0
  185.0530  177.1250  137.3950 C   0  0  0  0  0  3  0  0  0  0  0  0
  189.5860  176.9670  140.1540 O   0  0  0  0  0  0  0  0  0  0  0  0
  190.8430  176.7800  140.8020 C   0  0  1  0  0  3  0  0  0  0  0  0
  182.7300  179.1430  143.1720 C   0  0  0  0  0  2  0  0  0  0  0  0
  184.0160  179.0590  142.4010 C   0  0  0  0  0  0  0  0  0  0  0  0
  182.9070  178.8030  140.2330 N   0  0  0  0  0  2  0  0  0  0  0  0
  187.4670  178.1460  140.1870 C   0  0  2  0  0  3  0  0  0  0  0  0
  187.4280  178.1220  138.3700 S   0  0  0  0  0  0  0  0  0  0  0  0
  181.2960  177.7760  137.8550 C   0  0  0  0  0  1  0  0  0  0  0  0
  185.2370  179.1180  140.3340 N   0  0  0  0  0  0  0  0  0  0  0  0
  183.3960  178.6990  139.0320 C   0  0  1  0  0  3  0  0  0  0  0  0
  191.9960  177.2680  139.9280 C   0  0  0  0  0  2  0  0  0  0  0  0
  192.0370  176.5890  138.5630 C   0  0  0  0  0  2  0  0  0  0  0  0
  193.4380  176.3860  138.0930 C   0  0  0  0  0  0  0  0  0  0  0  0
  194.3750  175.7830  138.9230 O   0  0  0  0  0  1  0  0  0  0  0  0
  193.7800  176.7910  136.9530 O   0  0  0  0  0  0  0  0  0  0  0  0
  1 10  1  0  0  0  0
  2 12  2  0  0  0  0
  4  3  1  0  0  0  0
  5  6  1  6  0  0  0
  5 27  1  0  0  0  0
  5 26  1  0  0  0  0
  6 24  1  0  0  0  0
  7 18  1  6  0  0  0
  7 16  1  0  0  0  0
 11  3  2  0  0  0  0
 12  8  1  0  0  0  0
 12 13  1  0  0  0  0
 13 11  1  0  0  0  0
 14 21  2  0  0  0  0
 15 17  1  0  0  0  0
 15  9  2  0  0  0  0
 16  8  1  0  0  0  0
 16 10  1  1  0  0  0
 17  6  2  0  0  0  0
 18 19  1  0  0  0  0
 19 28  1  6  0  0  0
 19  1  1  0  0  0  0
 20  4  1  0  0  0  0
 21 13  1  0  0  0  0
 21 20  1  0  0  0  0
 22 14  1  0  0  0  0
 23 24  1  6  0  0  0
 23  7  1  0  0  0  0
 23  2  1  0  0  0  0
 25  9  1  0  0  0  0
 26  2  1  0  0  0  0
 26 14  1  0  0  0  0
 27  9  1  1  0  0  0
 27 22  1  0  0  0  0
 29 28  1  0  0  0  0
 30 29  1  0  0  0  0
 30 31  1  0  0  0  0
 32 30  2  0  0  0  0
M  END
>  <MODEL>
6

>  <REMARK>
 VINA RESULT:      -8.2      3.266      5.516
  Name = 
  3 active torsions:
  status: ('A' for Active; 'I' for Inactive)
    1  A    between atoms: C_1  and  C_10
    2  A    between atoms: C_10  and  C_19
    3  A    between atoms: C_19  and  C_24
                            x       y       z     vdW  Elec       q    Type
                         _______ _______ _______ _____ _____    ______ ____

>  <TORSDO>
F 3

$$$$
=
 OpenBabel10272413243D

 32 38  0  0  1  0  0  0  0  0999 V2000
  183.5480  177.5380  135.9350 C   0  0  0  0  0  2  0  0  0  0  0  0
  187.2720  178.0450  139.1000 C   0  0  0  0  0  0  0  0  0  0  0  0
  190.9340  175.8560  136.7070 C   0  0  0  0  0  3  0  0  0  0  0  0
  191.5180  175.4770  138.0390 C   0  0  0  0  0  2  0  0  0  0  0  0
  187.9520  178.7760  141.4710 C   0  0  2  0  0  3  0  0  0  0  0  0
  186.5800  178.3510  141.8760 C   0  0  0  0  0  0  0  0  0  0  0  0
  185.0490  177.9460  138.0960 C   0  0  1  0  0  3  0  0  0  0  0  0
  186.9950  176.8250  137.0300 N   0  0  0  0  0  2  0  0  0  0  0  0
  188.7650  177.5820  143.5950 C   0  0  0  0  0  0  0  0  0  0  0  0
  184.7660  176.6090  135.9730 C   0  0  0  0  0  2  0  0  0  0  0  0
  189.8220  176.5900  136.6360 C   0  0  0  0  0  3  0  0  0  0  0  0
  187.8050  177.3710  137.8930 C   0  0  0  0  0  0  0  0  0  0  0  0
  189.2280  177.1280  137.8270 N   0  0  0  0  0  0  0  0  0  0  0  0
  189.5000  177.7690  140.1370 C   0  0  0  0  0  0  0  0  0  0  0  0
  187.4880  177.4280  143.9740 C   0  0  0  0  0  3  0  0  0  0  0  0
  185.5520  176.7540  137.2730 C   0  0  2  0  0  3  0  0  0  0  0  0
  186.3590  177.7680  143.0650 C   0  0  0  0  0  3  0  0  0  0  0  0
  183.7060  177.7340  138.4670 O   0  0  0  0  0  0  0  0  0  0  0  0
  182.8620  177.6450  137.3200 C   0  0  1  0  0  3  0  0  0  0  0  0
  191.4020  176.6110  139.0570 C   0  0  0  0  0  2  0  0  0  0  0  0
  190.0160  177.1880  139.0450 C   0  0  0  0  0  0  0  0  0  0  0  0
  189.9460  177.5350  141.4680 N   0  0  0  0  0  2  0  0  0  0  0  0
  185.9440  178.1910  139.2820 C   0  0  2  0  0  3  0  0  0  0  0  0
  185.2430  178.8850  140.8090 S   0  0  0  0  0  0  0  0  0  0  0  0
  189.8710  177.1560  144.4930 C   0  0  0  0  0  1  0  0  0  0  0  0
  188.2280  178.3910  140.1060 N   0  0  0  0  0  0  0  0  0  0  0  0
  189.0280  178.0530  142.2290 C   0  0  1  0  0  3  0  0  0  0  0  0
  181.7870  178.7300  137.3370 C   0  0  0  0  0  2  0  0  0  0  0  0
  181.6690  179.4290  138.6880 C   0  0  0  0  0  2  0  0  0  0  0  0
  182.1950  180.8240  138.6300 C   0  0  0  0  0  0  0  0  0  0  0  0
  181.3510  181.8790  138.3060 O   0  0  0  0  0  0  0  0  0  0  0  0
  183.4150  181.0420  138.8460 O   0  0  0  0  0  1  0  0  0  0  0  0
  1 10  1  0  0  0  0
  1 19  1  0  0  0  0
  2 26  1  0  0  0  0
  3  4  1  0  0  0  0
  4 20  1  0  0  0  0
  5  6  1  1  0  0  0
  5 27  1  0  0  0  0
  6 17  2  0  0  0  0
  7 18  1  1  0  0  0
  7 23  1  0  0  0  0
  8 16  1  0  0  0  0
  8 12  1  0  0  0  0
  9 15  2  0  0  0  0
  9 25  1  0  0  0  0
 11  3  2  0  0  0  0
 11 13  1  0  0  0  0
 12  2  2  0  0  0  0
 13 12  1  0  0  0  0
 13 21  1  0  0  0  0
 14 22  1  0  0  0  0
 16 10  1  6  0  0  0
 16  7  1  0  0  0  0
 17 15  1  0  0  0  0
 19 28  1  6  0  0  0
 19 18  1  0  0  0  0
 21 20  1  0  0  0  0
 21 14  2  0  0  0  0
 23  2  1  6  0  0  0
 23 24  1  0  0  0  0
 24  6  1  0  0  0  0
 26 14  1  0  0  0  0
 26  5  1  0  0  0  0
 27 22  1  6  0  0  0
 27  9  1  0  0  0  0
 28 29  1  0  0  0  0
 30 29  1  0  0  0  0
 30 32  1  0  0  0  0
 31 30  2  0  0  0  0
M  END
>  <MODEL>
7

>  <REMARK>
 VINA RESULT:      -8.1      4.020      8.206
  Name = 
  3 active torsions:
  status: ('A' for Active; 'I' for Inactive)
    1  A    between atoms: C_1  and  C_10
    2  A    between atoms: C_10  and  C_19
    3  A    between atoms: C_19  and  C_24
                            x       y       z     vdW  Elec       q    Type
                         _______ _______ _______ _____ _____    ______ ____

>  <TORSDO>
F 3

$$$$
=
 OpenBabel10272413243D

 32 38  0  0  1  0  0  0  0  0999 V2000
  190.8280  177.2220  140.6960 C   0  0  0  0  0  2  0  0  0  0  0  0
  186.2600  178.5970  141.8740 C   0  0  0  0  0  0  0  0  0  0  0  0
  186.3280  178.2460  146.7530 C   0  0  0  0  0  3  0  0  0  0  0  0
  184.8610  177.9220  146.7050 C   0  0  0  0  0  2  0  0  0  0  0  0
  183.9260  179.1850  140.9680 C   0  0  2  0  0  3  0  0  0  0  0  0
  184.2390  178.2390  139.8580 C   0  0  0  0  0  0  0  0  0  0  0  0
  188.2390  177.8390  140.6610 C   0  0  1  0  0  3  0  0  0  0  0  0
  188.1000  177.6630  143.1360 N   0  0  0  0  0  2  0  0  0  0  0  0
  181.6060  178.0840  141.0260 C   0  0  0  0  0  0  0  0  0  0  0  0
  190.1190  176.8030  141.9890 C   0  0  0  0  0  2  0  0  0  0  0  0
  186.9990  178.5280  145.6350 C   0  0  0  0  0  3  0  0  0  0  0  0
  186.9860  178.3390  143.1400 C   0  0  0  0  0  0  0  0  0  0  0  0
  186.3090  178.6420  144.3810 N   0  0  0  0  0  0  0  0  0  0  0  0
  184.2270  179.0070  143.2190 C   0  0  0  0  0  0  0  0  0  0  0  0
  181.9130  177.4240  139.8980 C   0  0  0  0  0  3  0  0  0  0  0  0
  188.6130  177.0400  141.9140 C   0  0  2  0  0  3  0  0  0  0  0  0
  183.2870  177.4550  139.3270 C   0  0  0  0  0  3  0  0  0  0  0  0
  188.5810  177.1040  139.5080 O   0  0  0  0  0  0  0  0  0  0  0  0
  189.9890  176.8770  139.4410 C   0  0  1  0  0  3  0  0  0  0  0  0
  184.1200  178.7820  145.6820 C   0  0  0  0  0  2  0  0  0  0  0  0
  184.8670  178.8110  144.3800 C   0  0  0  0  0  0  0  0  0  0  0  0
  182.8400  178.7660  143.0080 N   0  0  0  0  0  2  0  0  0  0  0  0
  186.7830  178.2240  140.6880 C   0  0  2  0  0  3  0  0  0  0  0  0
  185.8680  178.3950  139.1270 S   0  0  0  0  0  0  0  0  0  0  0  0
  180.2460  177.9660  141.6170 C   0  0  0  0  0  1  0  0  0  0  0  0
  184.9360  179.1220  141.9990 N   0  0  0  0  0  0  0  0  0  0  0  0
  182.6820  178.8040  141.7180 C   0  0  1  0  0  3  0  0  0  0  0  0
  190.5890  177.4830  138.1750 C   0  0  0  0  0  2  0  0  0  0  0  0
  189.7300  177.2470  136.9360 C   0  0  0  0  0  2  0  0  0  0  0  0
  188.8180  178.3970  136.6740 C   0  0  0  0  0  0  0  0  0  0  0  0
  188.9840  179.5950  137.3600 O   0  0  0  0  0  1  0  0  0  0  0  0
  187.8760  178.2740  135.8500 O   0  0  0  0  0  0  0  0  0  0  0  0
  1 10  1  0  0  0  0
  2 26  1  0  0  0  0
  2 12  2  0  0  0  0
  4  3  1  0  0  0  0
  5  6  1  6  0  0  0
  5 27  1  0  0  0  0
  5 26  1  0  0  0  0
  7 18  1  6  0  0  0
  7 23  1  0  0  0  0
  7 16  1  0  0  0  0
  8 12  1  0  0  0  0
  9 25  1  0  0  0  0
 11  3  2  0  0  0  0
 12 13  1  0  0  0  0
 13 11  1  0  0  0  0
 14 21  2  0  0  0  0
 15  9  2  0  0  0  0
 16 10  1  1  0  0  0
 16  8  1  0  0  0  0
 17  6  2  0  0  0  0
 17 15  1  0  0  0  0
 19 28  1  6  0  0  0
 19 18  1  0  0  0  0
 19  1  1  0  0  0  0
 20  4  1  0  0  0  0
 21 13  1  0  0  0  0
 21 20  1  0  0  0  0
 22 14  1  0  0  0  0
 23 24  1  6  0  0  0
 23  2  1  0  0  0  0
 24  6  1  0  0  0  0
 26 14  1  0  0  0  0
 27  9  1  6  0  0  0
 27 22  1  0  0  0  0
 29 28  1  0  0  0  0
 30 29  1  0  0  0  0
 30 31  1  0  0  0  0
 32 30  2  0  0  0  0
M  END
>  <MODEL>
8

>  <REMARK>
 VINA RESULT:      -8.0      3.486      7.076
  Name = 
  3 active torsions:
  status: ('A' for Active; 'I' for Inactive)
    1  A    between atoms: C_1  and  C_10
    2  A    between atoms: C_10  and  C_19
    3  A    between atoms: C_19  and  C_24
                            x       y       z     vdW  Elec       q    Type
                         _______ _______ _______ _____ _____    ______ ____

>  <TORSDO>
F 3

$$$$
=
 OpenBabel10272413243D

 32 38  0  0  1  0  0  0  0  0999 V2000
  188.5110  177.9070  144.7340 C   0  0  0  0  0  2  0  0  0  0  0  0
  185.0340  178.7510  141.3670 C   0  0  0  0  0  0  0  0  0  0  0  0
  180.9560  178.5910  144.0660 C   0  0  0  0  0  3  0  0  0  0  0  0
  180.2260  178.0870  142.8530 C   0  0  0  0  0  2  0  0  0  0  0  0
  184.5350  179.0120  138.8570 C   0  0  2  0  0  3  0  0  0  0  0  0
  185.6740  178.0720  138.6460 C   0  0  0  0  0  0  0  0  0  0  0  0
  187.1400  178.1990  142.4710 C   0  0  1  0  0  3  0  0  0  0  0  0
  184.9790  178.0980  143.6950 N   0  0  0  0  0  2  0  0  0  0  0  0
  183.2890  177.6360  137.0830 C   0  0  0  0  0  0  0  0  0  0  0  0
  187.0550  177.4520  144.8810 C   0  0  0  0  0  2  0  0  0  0  0  0
  182.2500  178.9120  143.9970 C   0  0  0  0  0  3  0  0  0  0  0  0
  184.3580  178.6310  142.6810 C   0  0  0  0  0  0  0  0  0  0  0  0
  182.9390  178.8930  142.7380 N   0  0  0  0  0  0  0  0  0  0  0  0
  182.7980  178.9560  140.3300 C   0  0  0  0  0  0  0  0  0  0  0  0
  184.4290  176.9780  136.8200 C   0  0  0  0  0  3  0  0  0  0  0  0
  186.3080  177.4980  143.5510 C   0  0  2  0  0  3  0  0  0  0  0  0
  185.6420  177.1580  137.6630 C   0  0  0  0  0  3  0  0  0  0  0  0
  188.3230  177.4690  142.2340 O   0  0  0  0  0  0  0  0  0  0  0  0
  189.1370  177.4150  143.4050 C   0  0  1  0  0  3  0  0  0  0  0  0
  180.6660  178.8100  141.5810 C   0  0  0  0  0  2  0  0  0  0  0  0
  182.1650  178.8840  141.5090 C   0  0  0  0  0  0  0  0  0  0  0  0
  182.2460  178.5380  139.0870 N   0  0  0  0  0  2  0  0  0  0  0  0
  186.3280  178.4010  141.2190 C   0  0  2  0  0  3  0  0  0  0  0  0
  187.1540  178.4010  139.6000 S   0  0  0  0  0  0  0  0  0  0  0  0
  182.0680  177.3740  136.2730 C   0  0  0  0  0  1  0  0  0  0  0  0
  184.2030  179.1130  140.2600 N   0  0  0  0  0  0  0  0  0  0  0  0
  183.2510  178.5090  138.2630 C   0  0  1  0  0  3  0  0  0  0  0  0
  190.5060  178.0440  143.1580 C   0  0  0  0  0  2  0  0  0  0  0  0
  191.5050  177.0710  142.5390 C   0  0  0  0  0  2  0  0  0  0  0  0
  191.6010  177.2510  141.0610 C   0  0  0  0  0  0  0  0  0  0  0  0
  190.5610  176.8420  140.2350 O   0  0  0  0  0  0  0  0  0  0  0  0
  192.6410  177.7480  140.5580 O   0  0  0  0  0  1  0  0  0  0  0  0
  1 10  1  0  0  0  0
  2 12  2  0  0  0  0
  4  3  1  0  0  0  0
  5  6  1  1  0  0  0
  5 26  1  0  0  0  0
  6 24  1  0  0  0  0
  7 18  1  6  0  0  0
  7 16  1  0  0  0  0
 11  3  2  0  0  0  0
 12 13  1  0  0  0  0
 12  8  1  0  0  0  0
 13 11  1  0  0  0  0
 14 21  2  0  0  0  0
 15  9  2  0  0  0  0
 15 17  1  0  0  0  0
 16  8  1  0  0  0  0
 16 10  1  1  0  0  0
 17  6  2  0  0  0  0
 18 19  1  0  0  0  0
 19 28  1  6  0  0  0
 19  1  1  0  0  0  0
 20  4  1  0  0  0  0
 21 20  1  0  0  0  0
 21 13  1  0  0  0  0
 22 14  1  0  0  0  0
 23 24  1  6  0  0  0
 23  2  1  0  0  0  0
 23  7  1  0  0  0  0
 25  9  1  0  0  0  0
 26 14  1  0  0  0  0
 26  2  1  0  0  0  0
 27  9  1  1  0  0  0
 27  5  1  0  0  0  0
 27 22  1  0  0  0  0
 29 28  1  0  0  0  0
 30 29  1  0  0  0  0
 31 30  2  0  0  0  0
 32 30  1  0  0  0  0
M  END
>  <MODEL>
9

>  <REMARK>
 VINA RESULT:      -8.0      3.162      4.648
  Name = 
  3 active torsions:
  status: ('A' for Active; 'I' for Inactive)
    1  A    between atoms: C_1  and  C_10
    2  A    between atoms: C_10  and  C_19
    3  A    between atoms: C_19  and  C_24
                            x       y       z     vdW  Elec       q    Type
                         _______ _______ _______ _____ _____    ______ ____

>  <TORSDO>
F 3

$$$$
