=
 OpenBabel10272413143D

 32 36  0  0  1  0  0  0  0  0999 V2000
  190.1150  177.4710  139.5520 C   0  0  0  0  0  0  0  0  0  0  0  0
  187.7950  178.3360  139.2220 C   0  0  2  0  0  3  0  0  0  0  0  0
  191.2020  176.9500  140.4070 C   0  0  0  0  0  3  0  0  0  0  0  0
  188.9000  177.7590  140.0930 C   0  0  0  0  0  0  0  0  0  0  0  0
  186.5220  177.8760  139.5980 O   0  0  0  0  0  0  0  0  0  0  0  0
  186.1320  176.7210  135.4700 C   0  0  0  0  0  3  0  0  0  0  0  0
  187.9740  177.9720  137.7550 C   0  0  2  0  0  3  0  0  0  0  0  0
  184.7520  177.0870  137.5130 C   0  0  0  0  0  2  0  0  0  0  0  0
  185.4950  178.4300  137.7090 C   0  0  1  0  0  3  0  0  0  0  0  0
  188.6780  177.5350  141.5870 C   0  0  1  0  0  3  0  0  0  0  0  0
  185.6590  178.7470  139.0810 O   0  0  0  0  0  0  0  0  0  0  0  0
  189.9740  177.7230  142.3850 C   0  0  0  0  0  2  0  0  0  0  0  0
  189.3500  178.4140  137.2960 C   0  0  0  0  0  2  0  0  0  0  0  0
  190.4010  177.6060  138.0650 C   0  0  2  0  0  3  0  0  0  0  0  0
  186.8360  178.5800  136.9340 C   0  0  2  0  0  3  0  0  0  0  0  0
  191.1250  177.0220  141.7350 C   0  0  0  0  0  3  0  0  0  0  0  0
  185.5470  176.0680  136.6880 C   0  0  0  0  0  2  0  0  0  0  0  0
  186.7420  177.9070  135.5880 C   0  0  0  0  0  3  0  0  0  0  0  0
  192.3500  174.9280  135.9350 C   0  0  1  0  0  3  0  0  0  0  0  0
  190.3190  172.0490  135.7910 F   0  0  0  0  0  0  0  0  0  0  0  0
  193.7690  174.9320  135.3790 C   0  0  0  0  0  1  0  0  0  0  0  0
  189.5990  174.0620  136.6650 C   0  0  0  0  0  3  0  0  0  0  0  0
  190.6860  176.2760  137.4030 C   0  0  0  0  0  0  0  0  0  0  0  0
  192.0450  173.5890  136.5610 C   0  0  0  0  0  2  0  0  0  0  0  0
  189.6520  175.4270  137.2380 C   0  0  0  0  0  3  0  0  0  0  0  0
  192.0750  176.0030  136.9520 C   0  0  0  0  0  0  0  0  0  0  0  0
  193.0850  176.6500  137.5370 C   0  0  0  0  0  2  0  0  0  0  0  0
  190.6100  173.2510  136.3430 C   0  0  0  0  0  0  0  0  0  0  0  0
  187.6130  178.4570  142.1710 C   0  0  0  0  0  2  0  0  0  0  0  0
  185.5040  178.0060  143.1840 O   0  0  0  0  0  0  0  0  0  0  0  0
  187.2400  176.6780  143.8790 O   0  0  0  0  0  1  0  0  0  0  0  0
  186.7260  177.7140  143.1080 C   0  0  0  0  0  0  0  0  0  0  0  0
  1  4  2  0  0  0  0
  1  3  1  0  0  0  0
  2  5  1  1  0  0  0
  2  4  1  0  0  0  0
  3 16  2  0  0  0  0
  4 10  1  0  0  0  0
  6 18  2  0  0  0  0
  6 17  1  0  0  0  0
  7 13  1  6  0  0  0
  7  2  1  0  0  0  0
  9  8  1  1  0  0  0
  9 11  1  0  0  0  0
 10 29  1  1  0  0  0
 10 12  1  0  0  0  0
 11  5  1  0  0  0  0
 13 14  1  0  0  0  0
 14 23  1  6  0  0  0
 14  1  1  0  0  0  0
 15 18  1  6  0  0  0
 15  9  1  0  0  0  0
 15  7  1  0  0  0  0
 16 12  1  0  0  0  0
 17  8  1  0  0  0  0
 19 21  1  1  0  0  0
 19 24  1  0  0  0  0
 19 26  1  0  0  0  0
 20 28  1  0  0  0  0
 22 25  1  0  0  0  0
 25 23  2  0  0  0  0
 26 23  1  0  0  0  0
 26 27  2  0  0  0  0
 28 24  1  0  0  0  0
 28 22  2  0  0  0  0
 29 32  1  0  0  0  0
 32 30  2  0  0  0  0
 32 31  1  0  0  0  0
M  END
>  <MODEL>
1

>  <REMARK>
 VINA RESULT:      -7.0      0.000      0.000
  Name = 
  3 active torsions:
  status: ('A' for Active; 'I' for Inactive)
    1  A    between atoms: C_14  and  C_18
    2  A    between atoms: C_16  and  C_27
    3  A    between atoms: C_18  and  C_29
                            x       y       z     vdW  Elec       q    Type
                         _______ _______ _______ _____ _____    ______ ____

>  <TORSDO>
F 3

$$$$
=
 OpenBabel10272413143D

 32 36  0  0  1  0  0  0  0  0999 V2000
  185.5520  178.6870  140.4680 C   0  0  0  0  0  0  0  0  0  0  0  0
  183.3170  179.0920  141.5080 C   0  0  2  0  0  3  0  0  0  0  0  0
  186.9810  178.3200  140.5540 C   0  0  0  0  0  3  0  0  0  0  0  0
  184.7760  178.6720  141.5870 C   0  0  0  0  0  0  0  0  0  0  0  0
  182.4990  178.3500  142.3760 O   0  0  0  0  0  0  0  0  0  0  0  0
  180.1500  177.5350  138.8630 C   0  0  0  0  0  3  0  0  0  0  0  0
  182.7440  178.9110  140.1090 C   0  0  2  0  0  3  0  0  0  0  0  0
  180.0130  177.4190  141.3490 C   0  0  0  0  0  2  0  0  0  0  0  0
  180.5740  178.8600  141.3930 C   0  0  1  0  0  3  0  0  0  0  0  0
  185.4000  178.2670  142.9200 C   0  0  1  0  0  3  0  0  0  0  0  0
  181.3920  179.0740  142.5310 O   0  0  0  0  0  0  0  0  0  0  0  0
  186.8870  178.6380  142.9840 C   0  0  0  0  0  2  0  0  0  0  0  0
  183.6080  179.6640  139.1170 C   0  0  0  0  0  2  0  0  0  0  0  0
  184.9970  179.0170  139.0930 C   0  0  2  0  0  3  0  0  0  0  0  0
  181.2790  179.3510  140.0960 C   0  0  2  0  0  3  0  0  0  0  0  0
  187.6030  178.2490  141.7290 C   0  0  0  0  0  3  0  0  0  0  0  0
  180.3770  176.6650  140.0650 C   0  0  0  0  0  2  0  0  0  0  0  0
  180.5790  178.8030  138.8780 C   0  0  0  0  0  3  0  0  0  0  0  0
  185.9120  176.9830  135.8470 C   0  0  1  0  0  3  0  0  0  0  0  0
  184.3830  173.8200  136.1490 F   0  0  0  0  0  0  0  0  0  0  0  0
  186.8650  177.3030  134.7010 C   0  0  0  0  0  1  0  0  0  0  0  0
  183.9830  175.5620  137.6100 C   0  0  0  0  0  3  0  0  0  0  0  0
  185.0550  177.8420  138.1430 C   0  0  0  0  0  0  0  0  0  0  0  0
  186.0950  175.5510  136.2860 C   0  0  0  0  0  2  0  0  0  0  0  0
  184.1690  176.8430  138.3310 C   0  0  0  0  0  3  0  0  0  0  0  0
  186.0630  177.8740  137.0510 C   0  0  0  0  0  0  0  0  0  0  0  0
  187.1570  178.6230  137.2020 C   0  0  0  0  0  2  0  0  0  0  0  0
  184.7820  174.9870  136.7090 C   0  0  0  0  0  0  0  0  0  0  0  0
  184.6930  178.8960  144.1170 C   0  0  0  0  0  2  0  0  0  0  0  0
  185.5360  179.4810  146.2670 O   0  0  0  0  0  1  0  0  0  0  0  0
  185.9570  177.3300  145.5920 O   0  0  0  0  0  0  0  0  0  0  0  0
  185.4240  178.5960  145.3800 C   0  0  0  0  0  0  0  0  0  0  0  0
  1  3  1  0  0  0  0
  1  4  2  0  0  0  0
  2  4  1  6  0  0  0
  2  5  1  0  0  0  0
  3 16  2  0  0  0  0
  4 10  1  0  0  0  0
  5 11  1  0  0  0  0
  6 18  2  0  0  0  0
  6 17  1  0  0  0  0
  7 13  1  6  0  0  0
  7  2  1  0  0  0  0
  9  8  1  6  0  0  0
  9 11  1  0  0  0  0
 10 12  1  0  0  0  0
 10 29  1  1  0  0  0
 14 23  1  6  0  0  0
 14 13  1  0  0  0  0
 14  1  1  0  0  0  0
 15 18  1  6  0  0  0
 15  7  1  0  0  0  0
 15  9  1  0  0  0  0
 16 12  1  0  0  0  0
 17  8  1  0  0  0  0
 19 21  1  6  0  0  0
 19 24  1  0  0  0  0
 19 26  1  0  0  0  0
 20 28  1  0  0  0  0
 22 25  1  0  0  0  0
 23 25  2  0  0  0  0
 24 28  1  0  0  0  0
 26 27  2  0  0  0  0
 26 23  1  0  0  0  0
 28 22  2  0  0  0  0
 29 32  1  0  0  0  0
 32 31  2  0  0  0  0
 32 30  1  0  0  0  0
M  END
>  <MODEL>
2

>  <REMARK>
 VINA RESULT:      -6.6      3.741      5.506
  Name = 
  3 active torsions:
  status: ('A' for Active; 'I' for Inactive)
    1  A    between atoms: C_14  and  C_18
    2  A    between atoms: C_16  and  C_27
    3  A    between atoms: C_18  and  C_29
                            x       y       z     vdW  Elec       q    Type
                         _______ _______ _______ _____ _____    ______ ____

>  <TORSDO>
F 3

$$$$
=
 OpenBabel10272413143D

 32 36  0  0  1  0  0  0  0  0999 V2000
  188.3450  177.1120  138.3030 C   0  0  0  0  0  0  0  0  0  0  0  0
  186.9300  178.5220  139.8040 C   0  0  2  0  0  3  0  0  0  0  0  0
  189.5340  176.2740  138.0440 C   0  0  0  0  0  3  0  0  0  0  0  0
  188.1300  177.6240  139.5460 C   0  0  0  0  0  0  0  0  0  0  0  0
  186.3900  178.3380  141.0880 O   0  0  0  0  0  0  0  0  0  0  0  0
  182.6680  177.6990  139.0240 C   0  0  0  0  0  3  0  0  0  0  0  0
  185.8000  178.2650  138.8160 C   0  0  2  0  0  3  0  0  0  0  0  0
  183.5560  178.1820  141.3020 C   0  0  0  0  0  2  0  0  0  0  0  0
  184.4290  179.2910  140.6670 C   0  0  1  0  0  3  0  0  0  0  0  0
  189.1290  177.3180  140.6600 C   0  0  1  0  0  3  0  0  0  0  0  0
  185.6730  179.4310  141.3340 O   0  0  0  0  0  0  0  0  0  0  0  0
  190.5470  177.1230  140.1100 C   0  0  0  0  0  2  0  0  0  0  0  0
  186.3310  178.4150  137.4040 C   0  0  0  0  0  2  0  0  0  0  0  0
  187.3700  177.3150  137.1550 C   0  0  2  0  0  3  0  0  0  0  0  0
  184.6280  179.1960  139.1270 C   0  0  2  0  0  3  0  0  0  0  0  0
  190.5500  176.2370  138.9040 C   0  0  0  0  0  3  0  0  0  0  0  0
  183.1480  177.0880  140.3090 C   0  0  0  0  0  2  0  0  0  0  0  0
  183.3700  178.6930  138.4660 C   0  0  0  0  0  3  0  0  0  0  0  0
  184.7760  174.9610  135.3560 C   0  0  1  0  0  3  0  0  0  0  0  0
  185.6630  171.6450  136.1610 F   0  0  0  0  0  0  0  0  0  0  0  0
  183.6770  175.2710  134.3460 C   0  0  0  0  0  1  0  0  0  0  0  0
  186.6410  173.4900  137.1460 C   0  0  0  0  0  3  0  0  0  0  0  0
  186.7270  176.0250  136.7010 C   0  0  0  0  0  0  0  0  0  0  0  0
  185.5480  173.7400  134.9190 C   0  0  0  0  0  2  0  0  0  0  0  0
  187.0600  174.8950  137.3570 C   0  0  0  0  0  3  0  0  0  0  0  0
  185.7510  176.0860  135.5810 C   0  0  0  0  0  0  0  0  0  0  0  0
  185.8210  177.1000  134.7170 C   0  0  0  0  0  2  0  0  0  0  0  0
  185.9720  172.9630  136.1180 C   0  0  0  0  0  0  0  0  0  0  0  0
  189.1710  178.4050  141.7300 C   0  0  0  0  0  2  0  0  0  0  0  0
  188.6870  176.7290  143.3520 O   0  0  0  0  0  0  0  0  0  0  0  0
  190.0720  178.4160  144.0560 O   0  0  0  0  0  1  0  0  0  0  0  0
  189.2840  177.8050  143.0880 C   0  0  0  0  0  0  0  0  0  0  0  0
  1  4  2  0  0  0  0
  2  4  1  6  0  0  0
  2  5  1  0  0  0  0
  3  1  1  0  0  0  0
  3 16  2  0  0  0  0
  4 10  1  0  0  0  0
  5 11  1  0  0  0  0
  6 17  1  0  0  0  0
  7 13  1  6  0  0  0
  7 15  1  0  0  0  0
  7  2  1  0  0  0  0
  9  8  1  1  0  0  0
  9 11  1  0  0  0  0
 10 29  1  1  0  0  0
 12 10  1  0  0  0  0
 14 23  1  1  0  0  0
 14 13  1  0  0  0  0
 14  1  1  0  0  0  0
 15 18  1  6  0  0  0
 15  9  1  0  0  0  0
 16 12  1  0  0  0  0
 17  8  1  0  0  0  0
 18  6  2  0  0  0  0
 19 21  1  6  0  0  0
 19 26  1  0  0  0  0
 22 25  1  0  0  0  0
 23 25  2  0  0  0  0
 24 19  1  0  0  0  0
 24 28  1  0  0  0  0
 26 23  1  0  0  0  0
 27 26  2  0  0  0  0
 28 20  1  0  0  0  0
 28 22  2  0  0  0  0
 29 32  1  0  0  0  0
 32 30  2  0  0  0  0
 32 31  1  0  0  0  0
M  END
>  <MODEL>
3

>  <REMARK>
 VINA RESULT:      -6.2      2.244      4.275
  Name = 
  3 active torsions:
  status: ('A' for Active; 'I' for Inactive)
    1  A    between atoms: C_14  and  C_18
    2  A    between atoms: C_16  and  C_27
    3  A    between atoms: C_18  and  C_29
                            x       y       z     vdW  Elec       q    Type
                         _______ _______ _______ _____ _____    ______ ____

>  <TORSDO>
F 3

$$$$
=
 OpenBabel10272413143D

 32 36  0  0  1  0  0  0  0  0999 V2000
  186.3730  176.4030  136.4930 C   0  0  0  0  0  0  0  0  0  0  0  0
  185.7370  178.2240  138.0820 C   0  0  2  0  0  3  0  0  0  0  0  0
  187.3530  175.4550  135.9240 C   0  0  0  0  0  3  0  0  0  0  0  0
  186.7310  177.2170  137.5240 C   0  0  0  0  0  0  0  0  0  0  0  0
  185.8710  178.3950  139.4690 O   0  0  0  0  0  0  0  0  0  0  0  0
  181.6630  177.5010  139.6080 C   0  0  0  0  0  3  0  0  0  0  0  0
  184.2950  177.8030  137.8320 C   0  0  2  0  0  3  0  0  0  0  0  0
  183.4790  178.4730  141.0100 C   0  0  0  0  0  2  0  0  0  0  0  0
  183.8850  179.3350  139.7910 C   0  0  1  0  0  3  0  0  0  0  0  0
  188.1510  177.1330  138.0790 C   0  0  1  0  0  3  0  0  0  0  0  0
  185.2850  179.5570  139.7440 O   0  0  0  0  0  0  0  0  0  0  0  0
  189.1580  176.7210  136.9990 C   0  0  0  0  0  2  0  0  0  0  0  0
  184.0960  177.5680  136.3470 C   0  0  0  0  0  2  0  0  0  0  0  0
  184.9650  176.3780  135.9220 C   0  0  2  0  0  3  0  0  0  0  0  0
  183.3480  178.8530  138.4130 C   0  0  2  0  0  3  0  0  0  0  0  0
  188.6530  175.5670  136.1900 C   0  0  0  0  0  3  0  0  0  0  0  0
  182.7230  177.1960  140.6260 C   0  0  0  0  0  2  0  0  0  0  0  0
  181.9610  178.2820  138.5620 C   0  0  0  0  0  3  0  0  0  0  0  0
  182.0250  173.7580  135.9560 C   0  0  1  0  0  3  0  0  0  0  0  0
  183.2790  170.8220  137.4520 F   0  0  0  0  0  0  0  0  0  0  0  0
  180.6380  173.8040  135.3270 C   0  0  0  0  0  1  0  0  0  0  0  0
  184.4480  172.8130  137.4000 C   0  0  0  0  0  3  0  0  0  0  0  0
  184.2650  175.0580  136.1530 C   0  0  0  0  0  0  0  0  0  0  0  0
  182.6590  172.4110  135.7100 C   0  0  0  0  0  2  0  0  0  0  0  0
  184.8500  174.1790  136.9900 C   0  0  0  0  0  3  0  0  0  0  0  0
  182.9670  174.8260  135.4660 C   0  0  0  0  0  0  0  0  0  0  0  0
  182.6960  175.5010  134.3480 C   0  0  0  0  0  2  0  0  0  0  0  0
  183.4960  172.0320  136.8830 C   0  0  0  0  0  0  0  0  0  0  0  0
  188.6200  178.4450  138.7020 C   0  0  0  0  0  2  0  0  0  0  0  0
  188.6390  178.4510  141.0840 O   0  0  0  0  0  1  0  0  0  0  0  0
  190.5500  177.6730  140.0810 O   0  0  0  0  0  0  0  0  0  0  0  0
  189.2660  178.2020  140.0220 C   0  0  0  0  0  0  0  0  0  0  0  0
  1  4  2  0  0  0  0
  2  4  1  1  0  0  0
  2  5  1  0  0  0  0
  3 16  2  0  0  0  0
  3  1  1  0  0  0  0
  4 10  1  0  0  0  0
  5 11  1  0  0  0  0
  6 17  1  0  0  0  0
  7 13  1  6  0  0  0
  7  2  1  0  0  0  0
  7 15  1  0  0  0  0
  9  8  1  1  0  0  0
 10 29  1  6  0  0  0
 11  9  1  0  0  0  0
 12 10  1  0  0  0  0
 14 23  1  1  0  0  0
 14 13  1  0  0  0  0
 14  1  1  0  0  0  0
 15 18  1  1  0  0  0
 15  9  1  0  0  0  0
 16 12  1  0  0  0  0
 17  8  1  0  0  0  0
 18  6  2  0  0  0  0
 19 21  1  6  0  0  0
 23 25  2  0  0  0  0
 24 19  1  0  0  0  0
 24 28  1  0  0  0  0
 25 22  1  0  0  0  0
 26 19  1  0  0  0  0
 26 23  1  0  0  0  0
 27 26  2  0  0  0  0
 28 22  2  0  0  0  0
 28 20  1  0  0  0  0
 29 32  1  0  0  0  0
 32 31  2  0  0  0  0
 32 30  1  0  0  0  0
M  END
>  <MODEL>
4

>  <REMARK>
 VINA RESULT:      -6.0      3.048      6.188
  Name = 
  3 active torsions:
  status: ('A' for Active; 'I' for Inactive)
    1  A    between atoms: C_14  and  C_18
    2  A    between atoms: C_16  and  C_27
    3  A    between atoms: C_18  and  C_29
                            x       y       z     vdW  Elec       q    Type
                         _______ _______ _______ _____ _____    ______ ____

>  <TORSDO>
F 3

$$$$
=
 OpenBabel10272413143D

 32 36  0  0  1  0  0  0  0  0999 V2000
  187.6660  177.8370  138.8900 C   0  0  0  0  0  0  0  0  0  0  0  0
  185.2320  178.3730  139.0680 C   0  0  2  0  0  3  0  0  0  0  0  0
  189.0060  177.6510  139.4850 C   0  0  0  0  0  3  0  0  0  0  0  0
  186.6030  178.1380  139.6850 C   0  0  0  0  0  0  0  0  0  0  0  0
  184.1900  177.9060  139.8870 O   0  0  0  0  0  0  0  0  0  0  0  0
  182.9330  175.7230  136.3980 C   0  0  0  0  0  3  0  0  0  0  0  0
  185.0810  177.6710  137.7260 C   0  0  2  0  0  3  0  0  0  0  0  0
  182.0900  176.4590  138.6240 C   0  0  0  0  0  2  0  0  0  0  0  0
  182.6340  177.8710  138.3030 C   0  0  1  0  0  3  0  0  0  0  0  0
  186.8140  178.2760  141.1910 C   0  0  1  0  0  3  0  0  0  0  0  0
  183.0960  178.5360  139.4670 O   0  0  0  0  0  0  0  0  0  0  0  0
  188.2260  178.7780  141.5200 C   0  0  0  0  0  2  0  0  0  0  0  0
  186.2020  178.1100  136.8060 C   0  0  0  0  0  2  0  0  0  0  0  0
  187.5320  177.6210  137.3920 C   0  0  2  0  0  3  0  0  0  0  0  0
  183.6870  177.9460  137.1600 C   0  0  2  0  0  3  0  0  0  0  0  0
  189.2650  178.0450  140.7300 C   0  0  0  0  0  3  0  0  0  0  0  0
  182.7950  175.3440  137.8430 C   0  0  0  0  0  2  0  0  0  0  0  0
  183.3560  176.9520  136.0760 C   0  0  0  0  0  3  0  0  0  0  0  0
  189.2200  174.6900  135.3760 C   0  0  1  0  0  3  0  0  0  0  0  0
  187.7800  171.6850  136.5270 F   0  0  0  0  0  0  0  0  0  0  0  0
  190.3920  174.6920  134.4010 C   0  0  0  0  0  1  0  0  0  0  0  0
  187.0000  173.7730  137.1300 C   0  0  0  0  0  3  0  0  0  0  0  0
  187.8430  176.2010  136.9770 C   0  0  0  0  0  0  0  0  0  0  0  0
  189.3530  173.5380  136.3410 C   0  0  0  0  0  2  0  0  0  0  0  0
  186.9740  175.2380  137.3460 C   0  0  0  0  0  3  0  0  0  0  0  0
  189.0660  175.9610  136.1680 C   0  0  0  0  0  0  0  0  0  0  0  0
  190.0710  176.8360  136.2390 C   0  0  0  0  0  2  0  0  0  0  0  0
  188.0010  173.0120  136.6800 C   0  0  0  0  0  0  0  0  0  0  0  0
  185.8040  179.2120  141.8460 C   0  0  0  0  0  2  0  0  0  0  0  0
  183.9440  178.4710  143.1360 O   0  0  0  0  0  0  0  0  0  0  0  0
  186.0070  178.0700  144.0540 O   0  0  0  0  0  1  0  0  0  0  0  0
  185.1950  178.5760  143.0470 C   0  0  0  0  0  0  0  0  0  0  0  0
  1  3  1  0  0  0  0
  1  4  2  0  0  0  0
  2  4  1  1  0  0  0
  2  5  1  0  0  0  0
  3 16  2  0  0  0  0
  4 10  1  0  0  0  0
  6 17  1  0  0  0  0
  7 13  1  6  0  0  0
  7  2  1  0  0  0  0
  9  8  1  1  0  0  0
  9 11  1  0  0  0  0
 10 12  1  0  0  0  0
 10 29  1  6  0  0  0
 11  5  1  0  0  0  0
 13 14  1  0  0  0  0
 14 23  1  1  0  0  0
 14  1  1  0  0  0  0
 15 18  1  6  0  0  0
 15  7  1  0  0  0  0
 15  9  1  0  0  0  0
 16 12  1  0  0  0  0
 17  8  1  0  0  0  0
 18  6  2  0  0  0  0
 19 21  1  1  0  0  0
 19 26  1  0  0  0  0
 19 24  1  0  0  0  0
 20 28  1  0  0  0  0
 22 25  1  0  0  0  0
 23 25  2  0  0  0  0
 24 28  1  0  0  0  0
 26 27  2  0  0  0  0
 26 23  1  0  0  0  0
 28 22  2  0  0  0  0
 29 32  1  0  0  0  0
 32 30  2  0  0  0  0
 32 31  1  0  0  0  0
M  END
>  <MODEL>
5

>  <REMARK>
 VINA RESULT:      -5.9      1.844      2.747
  Name = 
  3 active torsions:
  status: ('A' for Active; 'I' for Inactive)
    1  A    between atoms: C_14  and  C_18
    2  A    between atoms: C_16  and  C_27
    3  A    between atoms: C_18  and  C_29
                            x       y       z     vdW  Elec       q    Type
                         _______ _______ _______ _____ _____    ______ ____

>  <TORSDO>
F 3

$$$$
=
 OpenBabel10272413143D

 32 36  0  0  1  0  0  0  0  0999 V2000
  183.7320  177.3220  139.1420 C   0  0  0  0  0  0  0  0  0  0  0  0
  185.2870  177.0260  137.2090 C   0  0  2  0  0  3  0  0  0  0  0  0
  182.6020  176.8770  139.9850 C   0  0  0  0  0  3  0  0  0  0  0  0
  184.1530  176.5490  138.1030 C   0  0  0  0  0  0  0  0  0  0  0  0
  186.0990  175.9690  136.7660 O   0  0  0  0  0  0  0  0  0  0  0  0
  189.3480  178.2940  138.3670 C   0  0  0  0  0  3  0  0  0  0  0  0
  186.2020  178.0110  137.9220 C   0  0  2  0  0  3  0  0  0  0  0  0
  188.9160  176.3700  136.8430 C   0  0  0  0  0  2  0  0  0  0  0  0
  187.8250  177.2270  136.1580 C   0  0  1  0  0  3  0  0  0  0  0  0
  183.4450  175.2250  137.8260 C   0  0  1  0  0  3  0  0  0  0  0  0
  186.7420  176.4350  135.6990 O   0  0  0  0  0  0  0  0  0  0  0  0
  181.9690  175.2750  138.2380 C   0  0  0  0  0  2  0  0  0  0  0  0
  185.3740  179.1630  138.4550 C   0  0  0  0  0  2  0  0  0  0  0  0
  184.4190  178.6220  139.5250 C   0  0  2  0  0  3  0  0  0  0  0  0
  187.3170  178.4520  136.9730 C   0  0  2  0  0  3  0  0  0  0  0  0
  181.7990  175.8900  139.5930 C   0  0  0  0  0  3  0  0  0  0  0  0
  189.2120  176.8020  138.2840 C   0  0  0  0  0  2  0  0  0  0  0  0
  188.4510  179.0720  137.7480 C   0  0  0  0  0  3  0  0  0  0  0  0
  184.9110  179.2630  143.3790 C   0  0  1  0  0  3  0  0  0  0  0  0
  188.0120  177.8430  144.2720 F   0  0  0  0  0  0  0  0  0  0  0  0
  183.9620  179.8320  144.4270 C   0  0  0  0  0  1  0  0  0  0  0  0
  187.2930  178.0370  142.0860 C   0  0  0  0  0  3  0  0  0  0  0  0
  185.0760  178.5570  140.8860 C   0  0  0  0  0  0  0  0  0  0  0  0
  185.6070  178.0400  143.9240 C   0  0  0  0  0  2  0  0  0  0  0  0
  186.3790  178.2170  140.9350 C   0  0  0  0  0  3  0  0  0  0  0  0
  184.2530  178.8960  142.0760 C   0  0  0  0  0  0  0  0  0  0  0  0
  182.9260  178.7690  142.0040 C   0  0  0  0  0  2  0  0  0  0  0  0
  186.9960  177.9760  143.3870 C   0  0  0  0  0  0  0  0  0  0  0  0
  183.5230  174.8090  136.3600 C   0  0  0  0  0  2  0  0  0  0  0  0
  183.6050  172.7650  135.1390 O   0  0  0  0  0  0  0  0  0  0  0  0
  184.2750  172.6370  137.3290 O   0  0  0  0  0  1  0  0  0  0  0  0
  183.7910  173.3490  136.2380 C   0  0  0  0  0  0  0  0  0  0  0  0
  1 14  1  0  0  0  0
  1  3  1  0  0  0  0
  2  5  1  1  0  0  0
  2  7  1  0  0  0  0
  2  4  1  0  0  0  0
  4  1  2  0  0  0  0
  7 13  1  6  0  0  0
  8 17  1  0  0  0  0
  9  8  1  1  0  0  0
  9 15  1  0  0  0  0
 10 29  1  6  0  0  0
 10  4  1  0  0  0  0
 10 12  1  0  0  0  0
 11  9  1  0  0  0  0
 11  5  1  0  0  0  0
 12 16  1  0  0  0  0
 13 14  1  0  0  0  0
 14 23  1  1  0  0  0
 15 18  1  1  0  0  0
 15  7  1  0  0  0  0
 16  3  2  0  0  0  0
 17  6  1  0  0  0  0
 18  6  2  0  0  0  0
 19 24  1  0  0  0  0
 19 21  1  1  0  0  0
 22 28  2  0  0  0  0
 23 25  2  0  0  0  0
 23 26  1  0  0  0  0
 25 22  1  0  0  0  0
 26 19  1  0  0  0  0
 27 26  2  0  0  0  0
 28 24  1  0  0  0  0
 28 20  1  0  0  0  0
 30 32  2  0  0  0  0
 32 29  1  0  0  0  0
 32 31  1  0  0  0  0
M  END
>  <MODEL>
6

>  <REMARK>
 VINA RESULT:      -5.9      3.532      7.596
  Name = 
  3 active torsions:
  status: ('A' for Active; 'I' for Inactive)
    1  A    between atoms: C_14  and  C_18
    2  A    between atoms: C_16  and  C_27
    3  A    between atoms: C_18  and  C_29
                            x       y       z     vdW  Elec       q    Type
                         _______ _______ _______ _____ _____    ______ ____

>  <TORSDO>
F 3

$$$$
=
 OpenBabel10272413143D

 32 36  0  0  1  0  0  0  0  0999 V2000
  184.8780  175.3780  136.9680 C   0  0  0  0  0  0  0  0  0  0  0  0
  187.3460  175.4150  136.5770 C   0  0  2  0  0  3  0  0  0  0  0  0
  183.6240  174.6750  137.3110 C   0  0  0  0  0  3  0  0  0  0  0  0
  186.0610  174.7030  136.9720 C   0  0  0  0  0  0  0  0  0  0  0  0
  188.4540  174.9640  137.3130 O   0  0  0  0  0  0  0  0  0  0  0  0
  189.0540  179.1220  138.2450 C   0  0  0  0  0  3  0  0  0  0  0  0
  187.2580  176.9180  136.7980 C   0  0  2  0  0  3  0  0  0  0  0  0
  190.2490  176.9360  138.3070 C   0  0  0  0  0  2  0  0  0  0  0  0
  189.7690  176.6940  136.8560 C   0  0  1  0  0  3  0  0  0  0  0  0
  186.0700  173.2200  137.3360 C   0  0  1  0  0  3  0  0  0  0  0  0
  189.5230  175.3210  136.6040 O   0  0  0  0  0  0  0  0  0  0  0  0
  184.7590  172.5320  136.9400 C   0  0  0  0  0  2  0  0  0  0  0  0
  186.0540  177.4610  136.0540 C   0  0  0  0  0  2  0  0  0  0  0  0
  184.7870  176.8670  136.6790 C   0  0  2  0  0  3  0  0  0  0  0  0
  188.5760  177.5730  136.3830 C   0  0  2  0  0  3  0  0  0  0  0  0
  183.5690  173.3450  137.3450 C   0  0  0  0  0  3  0  0  0  0  0  0
  189.3630  177.9170  139.0840 C   0  0  0  0  0  2  0  0  0  0  0  0
  188.6800  178.9580  136.9690 C   0  0  0  0  0  3  0  0  0  0  0  0
  182.6480  179.4600  138.7300 C   0  0  1  0  0  3  0  0  0  0  0  0
  183.9770  179.5380  141.9950 F   0  0  0  0  0  0  0  0  0  0  0  0
  181.3720  180.2110  138.3690 C   0  0  0  0  0  1  0  0  0  0  0  0
  184.9830  178.4130  140.2470 C   0  0  0  0  0  3  0  0  0  0  0  0
  184.3200  177.6660  137.8740 C   0  0  0  0  0  0  0  0  0  0  0  0
  182.5420  178.9040  140.1290 C   0  0  0  0  0  2  0  0  0  0  0  0
  185.1480  177.7470  138.9340 C   0  0  0  0  0  3  0  0  0  0  0  0
  182.9930  178.3320  137.7940 C   0  0  0  0  0  0  0  0  0  0  0  0
  182.0750  177.8480  136.9550 C   0  0  0  0  0  2  0  0  0  0  0  0
  183.8800  178.9400  140.7840 C   0  0  0  0  0  0  0  0  0  0  0  0
  187.2280  172.4620  136.6930 C   0  0  0  0  0  2  0  0  0  0  0  0
  186.7440  172.7020  134.3730 O   0  0  0  0  0  0  0  0  0  0  0  0
  186.5930  170.5680  135.1990 O   0  0  0  0  0  1  0  0  0  0  0  0
  186.8330  171.9270  135.3600 C   0  0  0  0  0  0  0  0  0  0  0  0
  1  4  2  0  0  0  0
  1  3  1  0  0  0  0
  2  7  1  0  0  0  0
  2  4  1  1  0  0  0
  2  5  1  0  0  0  0
  3 16  2  0  0  0  0
  4 10  1  0  0  0  0
  6 17  1  0  0  0  0
  7 13  1  6  0  0  0
  8 17  1  0  0  0  0
  9  8  1  1  0  0  0
 10 29  1  6  0  0  0
 11  9  1  0  0  0  0
 11  5  1  0  0  0  0
 12 10  1  0  0  0  0
 12 16  1  0  0  0  0
 13 14  1  0  0  0  0
 14  1  1  0  0  0  0
 14 23  1  1  0  0  0
 15  7  1  0  0  0  0
 15  9  1  0  0  0  0
 15 18  1  1  0  0  0
 18  6  2  0  0  0  0
 19 21  1  6  0  0  0
 19 24  1  0  0  0  0
 22 28  2  0  0  0  0
 23 25  2  0  0  0  0
 24 28  1  0  0  0  0
 25 22  1  0  0  0  0
 26 23  1  0  0  0  0
 26 19  1  0  0  0  0
 27 26  2  0  0  0  0
 28 20  1  0  0  0  0
 30 32  2  0  0  0  0
 31 32  1  0  0  0  0
 32 29  1  0  0  0  0
M  END
>  <MODEL>
7

>  <REMARK>
 VINA RESULT:      -5.8      3.808      7.852
  Name = 
  3 active torsions:
  status: ('A' for Active; 'I' for Inactive)
    1  A    between atoms: C_14  and  C_18
    2  A    between atoms: C_16  and  C_27
    3  A    between atoms: C_18  and  C_29
                            x       y       z     vdW  Elec       q    Type
                         _______ _______ _______ _____ _____    ______ ____

>  <TORSDO>
F 3

$$$$
=
 OpenBabel10272413143D

 32 36  0  0  1  0  0  0  0  0999 V2000
  188.8590  177.5460  139.7860 C   0  0  0  0  0  0  0  0  0  0  0  0
  186.7690  178.5300  140.7380 C   0  0  2  0  0  3  0  0  0  0  0  0
  190.1700  176.8800  139.9340 C   0  0  0  0  0  3  0  0  0  0  0  0
  188.0980  177.8060  140.8850 C   0  0  0  0  0  0  0  0  0  0  0  0
  185.8060  178.0720  141.6520 O   0  0  0  0  0  0  0  0  0  0  0  0
  183.3360  177.4770  138.1770 C   0  0  0  0  0  3  0  0  0  0  0  0
  186.1710  178.3530  139.3490 C   0  0  2  0  0  3  0  0  0  0  0  0
  183.1760  177.6240  140.6600 C   0  0  0  0  0  2  0  0  0  0  0  0
  184.0440  178.9030  140.5860 C   0  0  1  0  0  3  0  0  0  0  0  0
  188.6160  177.3980  142.2620 C   0  0  1  0  0  3  0  0  0  0  0  0
  184.8890  179.0340  141.7170 O   0  0  0  0  0  0  0  0  0  0  0  0
  190.1480  177.4340  142.3230 C   0  0  0  0  0  2  0  0  0  0  0  0
  187.1820  178.8010  138.3110 C   0  0  0  0  0  2  0  0  0  0  0  0
  188.3920  177.8620  138.3750 C   0  0  2  0  0  3  0  0  0  0  0  0
  184.8410  179.1030  139.2650 C   0  0  2  0  0  3  0  0  0  0  0  0
  190.7600  176.7820  141.1230 C   0  0  0  0  0  3  0  0  0  0  0  0
  183.3640  176.6930  139.4570 C   0  0  0  0  0  2  0  0  0  0  0  0
  184.0370  178.6150  138.0880 C   0  0  0  0  0  3  0  0  0  0  0  0
  188.9340  175.3200  135.4160 C   0  0  1  0  0  3  0  0  0  0  0  0
  186.5610  172.7450  135.8220 F   0  0  0  0  0  0  0  0  0  0  0  0
  190.0200  175.2440  134.3500 C   0  0  0  0  0  1  0  0  0  0  0  0
  186.5590  174.6770  137.0880 C   0  0  0  0  0  3  0  0  0  0  0  0
  188.1870  176.6210  137.5360 C   0  0  0  0  0  0  0  0  0  0  0  0
  188.6750  173.9480  135.9870 C   0  0  0  0  0  2  0  0  0  0  0  0
  187.0450  175.9280  137.7150 C   0  0  0  0  0  3  0  0  0  0  0  0
  189.2400  176.2600  136.5520 C   0  0  0  0  0  0  0  0  0  0  0  0
  190.4870  176.6940  136.7490 C   0  0  0  0  0  2  0  0  0  0  0  0
  187.2290  173.8120  136.3220 C   0  0  0  0  0  0  0  0  0  0  0  0
  188.0660  178.2750  143.3830 C   0  0  0  0  0  2  0  0  0  0  0  0
  188.6020  176.9240  145.2700 O   0  0  0  0  0  1  0  0  0  0  0  0
  186.3650  177.2870  144.9160 O   0  0  0  0  0  0  0  0  0  0  0  0
  187.7000  177.4510  144.5680 C   0  0  0  0  0  0  0  0  0  0  0  0
  1  3  1  0  0  0  0
  1  4  2  0  0  0  0
  2  4  1  6  0  0  0
  2  5  1  0  0  0  0
  3 16  2  0  0  0  0
  4 10  1  0  0  0  0
  5 11  1  0  0  0  0
  6 17  1  0  0  0  0
  7 13  1  6  0  0  0
  7  2  1  0  0  0  0
  9  8  1  6  0  0  0
  9 11  1  0  0  0  0
 10 12  1  0  0  0  0
 10 29  1  1  0  0  0
 13 14  1  0  0  0  0
 14 23  1  1  0  0  0
 14  1  1  0  0  0  0
 15 18  1  6  0  0  0
 15  7  1  0  0  0  0
 15  9  1  0  0  0  0
 16 12  1  0  0  0  0
 17  8  1  0  0  0  0
 18  6  2  0  0  0  0
 19 21  1  6  0  0  0
 19 24  1  0  0  0  0
 19 26  1  0  0  0  0
 20 28  1  0  0  0  0
 22 25  1  0  0  0  0
 23 25  2  0  0  0  0
 24 28  1  0  0  0  0
 26 27  2  0  0  0  0
 26 23  1  0  0  0  0
 28 22  2  0  0  0  0
 29 32  1  0  0  0  0
 32 31  2  0  0  0  0
 32 30  1  0  0  0  0
M  END
>  <MODEL>
8

>  <REMARK>
 VINA RESULT:      -5.7      1.943      2.736
  Name = 
  3 active torsions:
  status: ('A' for Active; 'I' for Inactive)
    1  A    between atoms: C_14  and  C_18
    2  A    between atoms: C_16  and  C_27
    3  A    between atoms: C_18  and  C_29
                            x       y       z     vdW  Elec       q    Type
                         _______ _______ _______ _____ _____    ______ ____

>  <TORSDO>
F 3

$$$$
=
 OpenBabel10272413143D

 32 36  0  0  1  0  0  0  0  0999 V2000
  186.5680  178.4200  140.0360 C   0  0  0  0  0  0  0  0  0  0  0  0
  184.2450  178.8200  140.8660 C   0  0  2  0  0  3  0  0  0  0  0  0
  187.9790  178.0380  140.2500 C   0  0  0  0  0  3  0  0  0  0  0  0
  185.6870  178.3850  141.0740 C   0  0  0  0  0  0  0  0  0  0  0  0
  183.3430  178.0660  141.6340 O   0  0  0  0  0  0  0  0  0  0  0  0
  181.3370  177.3550  137.8920 C   0  0  0  0  0  3  0  0  0  0  0  0
  183.8080  178.6780  139.4150 C   0  0  2  0  0  3  0  0  0  0  0  0
  180.9610  177.1820  140.3500 C   0  0  0  0  0  2  0  0  0  0  0  0
  181.5250  178.6160  140.4830 C   0  0  1  0  0  3  0  0  0  0  0  0
  186.1780  177.9430  142.4510 C   0  0  1  0  0  3  0  0  0  0  0  0
  182.2320  178.7950  141.6990 O   0  0  0  0  0  0  0  0  0  0  0  0
  187.6540  178.2990  142.6670 C   0  0  0  0  0  2  0  0  0  0  0  0
  184.7690  179.4470  138.5290 C   0  0  0  0  0  2  0  0  0  0  0  0
  186.1500  178.7870  138.6220 C   0  0  2  0  0  3  0  0  0  0  0  0
  182.3550  179.1310  139.2720 C   0  0  2  0  0  3  0  0  0  0  0  0
  188.4850  177.9330  141.4770 C   0  0  0  0  0  3  0  0  0  0  0  0
  181.4420  176.4550  139.0880 C   0  0  0  0  0  2  0  0  0  0  0  0
  181.7710  178.6190  137.9800 C   0  0  0  0  0  3  0  0  0  0  0  0
  187.3250  176.8360  135.4100 C   0  0  1  0  0  3  0  0  0  0  0  0
  185.8120  173.6530  135.5270 F   0  0  0  0  0  0  0  0  0  0  0  0
  188.3570  177.1910  134.3460 C   0  0  0  0  0  1  0  0  0  0  0  0
  185.2850  175.3580  136.9930 C   0  0  0  0  0  3  0  0  0  0  0  0
  186.2910  177.6340  137.6540 C   0  0  0  0  0  0  0  0  0  0  0  0
  187.4900  175.3960  135.8290 C   0  0  0  0  0  2  0  0  0  0  0  0
  185.4040  176.6240  137.7530 C   0  0  0  0  0  3  0  0  0  0  0  0
  187.3760  177.7010  136.6410 C   0  0  0  0  0  0  0  0  0  0  0  0
  188.4480  178.4560  136.8890 C   0  0  0  0  0  2  0  0  0  0  0  0
  186.1560  174.8100  136.1410 C   0  0  0  0  0  0  0  0  0  0  0  0
  185.3640  178.5490  143.5900 C   0  0  0  0  0  2  0  0  0  0  0  0
  185.9430  179.0220  145.8520 O   0  0  0  0  0  1  0  0  0  0  0  0
  186.4760  176.9170  145.1130 O   0  0  0  0  0  0  0  0  0  0  0  0
  185.9490  178.1870  144.9100 C   0  0  0  0  0  0  0  0  0  0  0  0
  1  3  1  0  0  0  0
  1  4  2  0  0  0  0
  2  4  1  6  0  0  0
  2  5  1  0  0  0  0
  3 16  2  0  0  0  0
  4 10  1  0  0  0  0
  5 11  1  0  0  0  0
  6 18  2  0  0  0  0
  6 17  1  0  0  0  0
  7 13  1  6  0  0  0
  7  2  1  0  0  0  0
  9  8  1  6  0  0  0
  9 11  1  0  0  0  0
 10 12  1  0  0  0  0
 10 29  1  1  0  0  0
 13 14  1  0  0  0  0
 14 23  1  6  0  0  0
 14  1  1  0  0  0  0
 15 18  1  6  0  0  0
 15  7  1  0  0  0  0
 15  9  1  0  0  0  0
 16 12  1  0  0  0  0
 17  8  1  0  0  0  0
 19 21  1  6  0  0  0
 19 24  1  0  0  0  0
 19 26  1  0  0  0  0
 20 28  1  0  0  0  0
 22 25  1  0  0  0  0
 23 25  2  0  0  0  0
 24 28  1  0  0  0  0
 26 27  2  0  0  0  0
 26 23  1  0  0  0  0
 28 22  2  0  0  0  0
 29 32  1  0  0  0  0
 32 31  2  0  0  0  0
 32 30  1  0  0  0  0
M  END
>  <MODEL>
9

>  <REMARK>
 VINA RESULT:      -5.7      2.893      4.303
  Name = 
  3 active torsions:
  status: ('A' for Active; 'I' for Inactive)
    1  A    between atoms: C_14  and  C_18
    2  A    between atoms: C_16  and  C_27
    3  A    between atoms: C_18  and  C_29
                            x       y       z     vdW  Elec       q    Type
                         _______ _______ _______ _____ _____    ______ ____

>  <TORSDO>
F 3

$$$$
