=
 OpenBabel10272400593D

 27 31  0  0  1  0  0  0  0  0999 V2000
  190.9340  177.6470  139.5950 C   0  0  0  0  0  2  0  0  0  0  0  0
  188.5460  178.1370  138.9240 C   0  0  2  0  0  3  0  0  0  0  0  0
  188.9010  175.8530  137.9700 C   0  0  0  0  0  2  0  0  0  0  0  0
  189.1090  179.1950  137.9550 C   0  0  0  0  0  2  0  0  0  0  0  0
  192.2170  175.6990  136.0710 C   0  0  0  0  0  2  0  0  0  0  0  0
  193.1370  176.0140  137.2150 C   0  0  0  0  0  0  0  0  0  0  0  0
  187.1640  177.2390  137.0420 C   0  0  1  0  0  3  0  0  0  0  0  0
  189.5180  177.7550  139.9570 N   0  0  0  0  0  0  0  0  0  0  0  0
  187.0190  178.6790  136.8120 N   0  0  0  0  0  2  0  0  0  0  0  0
  191.2070  176.3960  138.7650 C   0  0  2  0  0  3  0  0  0  0  0  0
  187.9590  176.9490  138.2550 N   0  0  2  0  0  0  0  0  0  0  0  0
  190.8350  175.2750  136.5520 C   0  0  0  0  0  2  0  0  0  0  0  0
  188.3530  179.2270  136.6350 C   0  0  0  0  0  2  0  0  0  0  0  0
  194.5090  175.9970  137.0000 O   0  0  0  0  0  1  0  0  0  0  0  0
  192.6720  176.3710  138.4160 C   0  0  0  0  0  3  0  0  0  0  0  0
  190.2900  176.3080  137.5290 C   0  0  1  0  0  3  0  0  0  0  0  0
  188.1920  176.5530  143.8150 C   0  0  0  0  0  3  0  0  0  0  0  0
  189.0690  177.3470  141.2640 C   0  0  0  0  0  0  0  0  0  0  0  0
  189.8200  176.4390  142.0290 C   0  0  0  0  0  3  0  0  0  0  0  0
  189.3840  176.0440  143.2970 C   0  0  0  0  0  3  0  0  0  0  0  0
  187.4350  177.4570  143.0670 C   0  0  0  0  0  3  0  0  0  0  0  0
  187.8710  177.8520  141.7990 C   0  0  0  0  0  3  0  0  0  0  0  0
  185.7800  176.5800  137.1380 C   0  0  2  0  0  3  0  0  0  0  0  0
  185.5590  175.6610  135.9420 C   0  0  0  0  0  1  0  0  0  0  0  0
  184.5040  177.9450  138.5830 C   0  0  0  0  0  2  0  0  0  0  0  0
  183.5890  177.0320  137.9190 C   0  0  0  0  0  2  0  0  0  0  0  0
  184.7280  177.5920  137.1690 N   0  0  0  0  0  0  0  0  0  0  0  0
  1  8  1  0  0  0  0
  2  4  1  6  0  0  0
  2  8  1  0  0  0  0
  5 12  1  0  0  0  0
  5  6  1  0  0  0  0
  6 15  2  0  0  0  0
  7 23  1  1  0  0  0
  7 11  1  0  0  0  0
  8 18  1  0  0  0  0
  9  7  1  0  0  0  0
 10 15  1  6  0  0  0
 10  1  1  0  0  0  0
 11  3  1  6  0  0  0
 11  2  1  0  0  0  0
 13  9  1  0  0  0  0
 13  4  1  0  0  0  0
 14  6  1  0  0  0  0
 16 12  1  6  0  0  0
 16  3  1  0  0  0  0
 16 10  1  0  0  0  0
 18 22  2  0  0  0  0
 18 19  1  0  0  0  0
 19 20  2  0  0  0  0
 20 17  1  0  0  0  0
 21 17  2  0  0  0  0
 22 21  1  0  0  0  0
 23 24  1  6  0  0  0
 23 27  1  0  0  0  0
 26 25  1  0  0  0  0
 27 26  1  0  0  0  0
 27 25  1  0  0  0  0
M  END
>  <MODEL>
1

>  <REMARK>
 VINA RESULT:      -6.6      0.000      0.000
  Name = 
  3 active torsions:
  status: ('A' for Active; 'I' for Inactive)
    1  A    between atoms: C_8  and  C_14
    2  A    between atoms: C_8  and  N_16
    3  A    between atoms: C_9  and  N_15
                            x       y       z     vdW  Elec       q    Type
                         _______ _______ _______ _____ _____    ______ ____

>  <TORSDO>
F 3

$$$$
=
 OpenBabel10272400593D

 27 31  0  0  1  0  0  0  0  0999 V2000
  190.7930  177.6270  139.6090 C   0  0  0  0  0  2  0  0  0  0  0  0
  188.4650  178.1260  138.7560 C   0  0  2  0  0  3  0  0  0  0  0  0
  188.8400  175.7960  137.9280 C   0  0  0  0  0  2  0  0  0  0  0  0
  189.1140  179.1300  137.7830 C   0  0  0  0  0  2  0  0  0  0  0  0
  192.2730  175.5030  136.2680 C   0  0  0  0  0  2  0  0  0  0  0  0
  193.1200  175.8530  137.4580 C   0  0  0  0  0  0  0  0  0  0  0  0
  187.1970  177.1680  136.8240 C   0  0  1  0  0  3  0  0  0  0  0  0
  189.3580  177.7740  139.8680 N   0  0  0  0  0  0  0  0  0  0  0  0
  187.0950  178.5980  136.5230 N   0  0  0  0  0  2  0  0  0  0  0  0
  191.0970  176.3350  138.8550 C   0  0  2  0  0  3  0  0  0  0  0  0
  187.9020  176.9190  138.1010 N   0  0  2  0  0  0  0  0  0  0  0  0
  190.8540  175.1240  136.6720 C   0  0  0  0  0  2  0  0  0  0  0  0
  188.4490  179.1160  136.4140 C   0  0  0  0  0  2  0  0  0  0  0  0
  194.5020  175.8050  137.3380 O   0  0  0  0  0  1  0  0  0  0  0  0
  192.5820  176.2710  138.6080 C   0  0  0  0  0  3  0  0  0  0  0  0
  190.2650  176.2080  137.5630 C   0  0  1  0  0  3  0  0  0  0  0  0
  187.7530  176.7600  143.6740 C   0  0  0  0  0  3  0  0  0  0  0  0
  188.8140  177.4310  141.1580 C   0  0  0  0  0  0  0  0  0  0  0  0
  187.6250  178.0240  141.6150 C   0  0  0  0  0  3  0  0  0  0  0  0
  187.0980  177.6910  142.8660 C   0  0  0  0  0  3  0  0  0  0  0  0
  188.9350  176.1610  143.2330 C   0  0  0  0  0  3  0  0  0  0  0  0
  189.4630  176.4950  141.9820 C   0  0  0  0  0  3  0  0  0  0  0  0
  185.7970  176.5360  136.8540 C   0  0  2  0  0  3  0  0  0  0  0  0
  184.9580  177.1860  137.9470 C   0  0  0  0  0  1  0  0  0  0  0  0
  186.2610  174.4570  135.8320 C   0  0  0  0  0  2  0  0  0  0  0  0
  184.8740  174.4340  136.2640 C   0  0  0  0  0  2  0  0  0  0  0  0
  185.8860  175.1000  137.1040 N   0  0  0  0  0  0  0  0  0  0  0  0
  1  8  1  0  0  0  0
  2  4  1  6  0  0  0
  2  8  1  0  0  0  0
  5 12  1  0  0  0  0
  5  6  1  0  0  0  0
  6 15  2  0  0  0  0
  7 23  1  1  0  0  0
  7 11  1  0  0  0  0
  8 18  1  0  0  0  0
  9  7  1  0  0  0  0
 10 15  1  6  0  0  0
 10  1  1  0  0  0  0
 11  3  1  6  0  0  0
 11  2  1  0  0  0  0
 13  9  1  0  0  0  0
 13  4  1  0  0  0  0
 14  6  1  0  0  0  0
 16 12  1  6  0  0  0
 16  3  1  0  0  0  0
 16 10  1  0  0  0  0
 18 19  2  0  0  0  0
 18 22  1  0  0  0  0
 19 20  1  0  0  0  0
 20 17  2  0  0  0  0
 21 17  1  0  0  0  0
 22 21  2  0  0  0  0
 23 27  1  0  0  0  0
 23 24  1  1  0  0  0
 25 26  1  0  0  0  0
 25 27  1  0  0  0  0
 26 27  1  0  0  0  0
M  END
>  <MODEL>
2

>  <REMARK>
 VINA RESULT:      -6.4      0.738      1.649
  Name = 
  3 active torsions:
  status: ('A' for Active; 'I' for Inactive)
    1  A    between atoms: C_8  and  C_14
    2  A    between atoms: C_8  and  N_16
    3  A    between atoms: C_9  and  N_15
                            x       y       z     vdW  Elec       q    Type
                         _______ _______ _______ _____ _____    ______ ____

>  <TORSDO>
F 3

$$$$
=
 OpenBabel10272400593D

 27 31  0  0  1  0  0  0  0  0999 V2000
  188.2040  178.7130  141.5570 C   0  0  0  0  0  2  0  0  0  0  0  0
  190.4590  178.2290  142.5930 C   0  0  2  0  0  3  0  0  0  0  0  0
  188.9910  176.5470  143.7200 C   0  0  0  0  0  2  0  0  0  0  0  0
  190.3390  179.5850  143.3160 C   0  0  0  0  0  2  0  0  0  0  0  0
  185.7850  178.2040  144.9850 C   0  0  0  0  0  2  0  0  0  0  0  0
  185.2460  178.6720  143.6640 C   0  0  0  0  0  0  0  0  0  0  0  0
  191.0540  177.1820  144.7860 C   0  0  1  0  0  3  0  0  0  0  0  0
  189.5420  178.1250  141.4500 N   0  0  0  0  0  0  0  0  0  0  0  0
  191.8170  178.4290  144.8730 N   0  0  0  0  0  2  0  0  0  0  0  0
  187.2960  177.8820  142.4600 C   0  0  2  0  0  3  0  0  0  0  0  0
  190.3560  177.0490  143.4880 N   0  0  2  0  0  0  0  0  0  0  0  0
  186.8630  177.1400  144.8170 C   0  0  0  0  0  2  0  0  0  0  0  0
  190.8730  179.5260  144.7400 C   0  0  0  0  0  2  0  0  0  0  0  0
  184.0060  179.2940  143.6250 O   0  0  0  0  0  1  0  0  0  0  0  0
  185.9540  178.5630  142.5350 C   0  0  0  0  0  3  0  0  0  0  0  0
  187.9250  177.6330  143.8450 C   0  0  1  0  0  3  0  0  0  0  0  0
  190.5890  175.7770  138.0620 C   0  0  0  0  0  3  0  0  0  0  0  0
  189.8960  177.3290  140.3020 C   0  0  0  0  0  0  0  0  0  0  0  0
  188.9180  176.9340  139.3740 C   0  0  0  0  0  3  0  0  0  0  0  0
  189.2620  176.1630  138.2600 C   0  0  0  0  0  3  0  0  0  0  0  0
  191.5730  176.1630  138.9760 C   0  0  0  0  0  3  0  0  0  0  0  0
  191.2280  176.9340  140.0890 C   0  0  0  0  0  3  0  0  0  0  0  0
  191.9820  175.9810  145.0200 C   0  0  2  0  0  3  0  0  0  0  0  0
  191.9220  175.0380  143.8240 C   0  0  0  0  0  1  0  0  0  0  0  0
  191.0140  176.2380  147.1590 C   0  0  0  0  0  2  0  0  0  0  0  0
  192.3830  175.7880  147.3480 C   0  0  0  0  0  2  0  0  0  0  0  0
  191.5900  175.2550  146.2250 N   0  0  0  0  0  0  0  0  0  0  0  0
  2  4  1  1  0  0  0
  2 11  1  0  0  0  0
  4 13  1  0  0  0  0
  6  5  1  0  0  0  0
  7  9  1  0  0  0  0
  7 23  1  6  0  0  0
  8  1  1  0  0  0  0
  8  2  1  0  0  0  0
 10  1  1  6  0  0  0
 10 15  1  0  0  0  0
 10 16  1  0  0  0  0
 11  3  1  1  0  0  0
 11  7  1  0  0  0  0
 12  5  1  0  0  0  0
 13  9  1  0  0  0  0
 14  6  1  0  0  0  0
 15  6  2  0  0  0  0
 16  3  1  6  0  0  0
 16 12  1  0  0  0  0
 17 20  2  0  0  0  0
 17 21  1  0  0  0  0
 18  8  1  0  0  0  0
 19 18  2  0  0  0  0
 20 19  1  0  0  0  0
 21 22  2  0  0  0  0
 22 18  1  0  0  0  0
 23 24  1  6  0  0  0
 23 27  1  0  0  0  0
 25 26  1  0  0  0  0
 27 25  1  0  0  0  0
 27 26  1  0  0  0  0
M  END
>  <MODEL>
3

>  <REMARK>
 VINA RESULT:      -6.3      3.789      8.052
  Name = 
  3 active torsions:
  status: ('A' for Active; 'I' for Inactive)
    1  A    between atoms: C_8  and  C_14
    2  A    between atoms: C_8  and  N_16
    3  A    between atoms: C_9  and  N_15
                            x       y       z     vdW  Elec       q    Type
                         _______ _______ _______ _____ _____    ______ ____

>  <TORSDO>
F 3

$$$$
=
 OpenBabel10272400593D

 27 31  0  0  1  0  0  0  0  0999 V2000
  189.4680  178.2560  139.0640 C   0  0  0  0  0  2  0  0  0  0  0  0
  187.2730  178.0840  137.8230 C   0  0  2  0  0  3  0  0  0  0  0  0
  188.0200  175.6990  137.8990 C   0  0  0  0  0  2  0  0  0  0  0  0
  187.9620  178.8040  136.6470 C   0  0  0  0  0  2  0  0  0  0  0  0
  191.6900  175.4150  136.8610 C   0  0  0  0  0  2  0  0  0  0  0  0
  192.2890  176.2600  137.9480 C   0  0  0  0  0  0  0  0  0  0  0  0
  186.4450  176.3660  136.2040 C   0  0  1  0  0  3  0  0  0  0  0  0
  188.0030  178.2560  139.0850 N   0  0  0  0  0  0  0  0  0  0  0  0
  186.2440  177.5860  135.4190 N   0  0  0  0  0  2  0  0  0  0  0  0
  190.0260  176.8520  138.8430 C   0  0  2  0  0  3  0  0  0  0  0  0
  186.9540  176.6580  137.5620 N   0  0  2  0  0  0  0  0  0  0  0  0
  190.2720  174.9740  137.1990 C   0  0  0  0  0  2  0  0  0  0  0  0
  187.5350  178.2420  135.2990 C   0  0  0  0  0  2  0  0  0  0  0  0
  193.6700  176.3890  138.0170 O   0  0  0  0  0  1  0  0  0  0  0  0
  191.5290  176.9410  138.8110 C   0  0  0  0  0  3  0  0  0  0  0  0
  189.4340  176.1840  137.5860 C   0  0  1  0  0  3  0  0  0  0  0  0
  185.9110  178.3090  142.7880 C   0  0  0  0  0  3  0  0  0  0  0  0
  187.2940  178.2730  140.3400 C   0  0  0  0  0  0  0  0  0  0  0  0
  187.9240  177.8550  141.5250 C   0  0  0  0  0  3  0  0  0  0  0  0
  187.2360  177.8720  142.7410 C   0  0  0  0  0  3  0  0  0  0  0  0
  185.2720  178.7280  141.6190 C   0  0  0  0  0  3  0  0  0  0  0  0
  185.9600  178.7100  140.4020 C   0  0  0  0  0  3  0  0  0  0  0  0
  185.1340  175.5700  136.2840 C   0  0  2  0  0  3  0  0  0  0  0  0
  184.3120  176.0420  137.4780 C   0  0  0  0  0  1  0  0  0  0  0  0
  186.1620  173.7250  135.2270 C   0  0  0  0  0  2  0  0  0  0  0  0
  184.7380  173.4490  135.3050 C   0  0  0  0  0  2  0  0  0  0  0  0
  185.4050  174.1410  136.4210 N   0  0  0  0  0  0  0  0  0  0  0  0
  1  8  1  0  0  0  0
  2  4  1  6  0  0  0
  2  8  1  0  0  0  0
  5 12  1  0  0  0  0
  5  6  1  0  0  0  0
  6 14  1  0  0  0  0
  6 15  2  0  0  0  0
  7 23  1  1  0  0  0
  7 11  1  0  0  0  0
  8 18  1  0  0  0  0
  9  7  1  0  0  0  0
 10 15  1  6  0  0  0
 10  1  1  0  0  0  0
 11  2  1  0  0  0  0
 11  3  1  6  0  0  0
 13  9  1  0  0  0  0
 13  4  1  0  0  0  0
 16 12  1  1  0  0  0
 16  3  1  0  0  0  0
 16 10  1  0  0  0  0
 18 22  2  0  0  0  0
 18 19  1  0  0  0  0
 19 20  2  0  0  0  0
 20 17  1  0  0  0  0
 21 17  2  0  0  0  0
 22 21  1  0  0  0  0
 23 27  1  0  0  0  0
 23 24  1  1  0  0  0
 25 26  1  0  0  0  0
 25 27  1  0  0  0  0
 26 27  1  0  0  0  0
M  END
>  <MODEL>
4

>  <REMARK>
 VINA RESULT:      -6.1      1.582      2.340
  Name = 
  3 active torsions:
  status: ('A' for Active; 'I' for Inactive)
    1  A    between atoms: C_8  and  C_14
    2  A    between atoms: C_8  and  N_16
    3  A    between atoms: C_9  and  N_15
                            x       y       z     vdW  Elec       q    Type
                         _______ _______ _______ _____ _____    ______ ____

>  <TORSDO>
F 3

$$$$
=
 OpenBabel10272400593D

 27 31  0  0  1  0  0  0  0  0999 V2000
  190.8870  176.3070  137.8570 C   0  0  0  0  0  2  0  0  0  0  0  0
  188.7290  177.4820  137.2610 C   0  0  2  0  0  3  0  0  0  0  0  0
  188.0170  175.0870  137.3460 C   0  0  0  0  0  2  0  0  0  0  0  0
  189.3570  177.7860  135.8870 C   0  0  0  0  0  2  0  0  0  0  0  0
  190.4720  172.8920  135.4020 C   0  0  0  0  0  2  0  0  0  0  0  0
  191.7040  173.1740  136.2130 C   0  0  0  0  0  0  0  0  0  0  0  0
  186.6910  176.6460  136.0770 C   0  0  1  0  0  3  0  0  0  0  0  0
  189.7390  177.1200  138.2650 N   0  0  0  0  0  0  0  0  0  0  0  0
  186.9990  177.8290  135.2700 N   0  0  0  0  0  2  0  0  0  0  0  0
  190.4900  174.8530  137.6200 C   0  0  2  0  0  3  0  0  0  0  0  0
  187.6180  176.4990  137.2210 N   0  0  2  0  0  0  0  0  0  0  0  0
  189.2010  173.2890  136.1410 C   0  0  0  0  0  2  0  0  0  0  0  0
  188.3470  177.6630  134.7540 C   0  0  0  0  0  2  0  0  0  0  0  0
  192.8820  172.5080  135.9020 O   0  0  0  0  0  1  0  0  0  0  0  0
  191.7140  174.0930  137.1830 C   0  0  0  0  0  3  0  0  0  0  0  0
  189.3160  174.7270  136.6290 C   0  0  1  0  0  3  0  0  0  0  0  0
  189.1100  178.0380  142.3710 C   0  0  0  0  0  3  0  0  0  0  0  0
  189.5260  177.4300  139.6570 C   0  0  0  0  0  0  0  0  0  0  0  0
  190.4130  176.9600  140.6400 C   0  0  0  0  0  3  0  0  0  0  0  0
  190.2060  177.2620  141.9890 C   0  0  0  0  0  3  0  0  0  0  0  0
  188.2210  178.5130  141.4050 C   0  0  0  0  0  3  0  0  0  0  0  0
  188.4270  178.2110  140.0560 C   0  0  0  0  0  3  0  0  0  0  0  0
  185.2380  176.7100  136.5710 C   0  0  2  0  0  3  0  0  0  0  0  0
  185.1470  177.6070  137.8010 C   0  0  0  0  0  1  0  0  0  0  0  0
  184.7310  174.5880  135.6650 C   0  0  0  0  0  2  0  0  0  0  0  0
  183.4930  175.1570  136.1720 C   0  0  0  0  0  2  0  0  0  0  0  0
  184.7500  175.3760  136.9110 N   0  0  0  0  0  0  0  0  0  0  0  0
  1  8  1  0  0  0  0
  2  4  1  6  0  0  0
  2  8  1  0  0  0  0
  5 12  1  0  0  0  0
  5  6  1  0  0  0  0
  6 15  2  0  0  0  0
  7 23  1  1  0  0  0
  7 11  1  0  0  0  0
  8 18  1  0  0  0  0
  9  7  1  0  0  0  0
 10 15  1  6  0  0  0
 10  1  1  0  0  0  0
 11  2  1  0  0  0  0
 11  3  1  6  0  0  0
 13  9  1  0  0  0  0
 13  4  1  0  0  0  0
 14  6  1  0  0  0  0
 16 12  1  1  0  0  0
 16  3  1  0  0  0  0
 16 10  1  0  0  0  0
 18 22  2  0  0  0  0
 18 19  1  0  0  0  0
 19 20  2  0  0  0  0
 20 17  1  0  0  0  0
 21 17  2  0  0  0  0
 22 21  1  0  0  0  0
 23 27  1  0  0  0  0
 23 24  1  1  0  0  0
 25 26  1  0  0  0  0
 25 27  1  0  0  0  0
 26 27  1  0  0  0  0
M  END
>  <MODEL>
5

>  <REMARK>
 VINA RESULT:      -5.8      1.796      2.393
  Name = 
  3 active torsions:
  status: ('A' for Active; 'I' for Inactive)
    1  A    between atoms: C_8  and  C_14
    2  A    between atoms: C_8  and  N_16
    3  A    between atoms: C_9  and  N_15
                            x       y       z     vdW  Elec       q    Type
                         _______ _______ _______ _____ _____    ______ ____

>  <TORSDO>
F 3

$$$$
=
 OpenBabel10272400593D

 27 31  0  0  1  0  0  0  0  0999 V2000
  184.4730  179.2260  139.1440 C   0  0  0  0  0  2  0  0  0  0  0  0
  182.0780  178.4160  139.1090 C   0  0  2  0  0  3  0  0  0  0  0  0
  183.3530  176.3030  138.7010 C   0  0  0  0  0  2  0  0  0  0  0  0
  181.9120  179.1830  137.7830 C   0  0  0  0  0  2  0  0  0  0  0  0
  186.0140  176.8470  136.0090 C   0  0  0  0  0  2  0  0  0  0  0  0
  186.8210  177.9010  136.7110 C   0  0  0  0  0  0  0  0  0  0  0  0
  181.0490  176.4180  138.0100 C   0  0  1  0  0  3  0  0  0  0  0  0
  183.2520  178.8660  139.8690 N   0  0  0  0  0  0  0  0  0  0  0  0
  180.1930  177.4820  137.4790 N   0  0  0  0  0  2  0  0  0  0  0  0
  185.1950  177.9890  138.6140 C   0  0  2  0  0  3  0  0  0  0  0  0
  182.0510  176.9390  138.9660 N   0  0  2  0  0  0  0  0  0  0  0  0
  185.0960  176.0990  136.9680 C   0  0  0  0  0  2  0  0  0  0  0  0
  181.0530  178.4230  136.7820 C   0  0  0  0  0  2  0  0  0  0  0  0
  187.9820  178.3710  136.1120 O   0  0  0  0  0  1  0  0  0  0  0  0
  186.4210  178.4430  137.8660 C   0  0  0  0  0  3  0  0  0  0  0  0
  184.2680  177.0940  137.7690 C   0  0  1  0  0  3  0  0  0  0  0  0
  183.2480  178.7090  144.1200 C   0  0  0  0  0  3  0  0  0  0  0  0
  183.2510  178.8120  141.3100 C   0  0  0  0  0  0  0  0  0  0  0  0
  184.4580  178.7340  142.0240 C   0  0  0  0  0  3  0  0  0  0  0  0
  184.4560  178.6820  143.4210 C   0  0  0  0  0  3  0  0  0  0  0  0
  182.0400  178.7880  143.4220 C   0  0  0  0  0  3  0  0  0  0  0  0
  182.0410  178.8400  142.0260 C   0  0  0  0  0  3  0  0  0  0  0  0
  180.1880  175.3330  138.6750 C   0  0  2  0  0  3  0  0  0  0  0  0
  180.0510  175.6200  140.1650 C   0  0  0  0  0  1  0  0  0  0  0  0
  181.2240  173.9250  137.0860 C   0  0  0  0  0  2  0  0  0  0  0  0
  179.9820  173.2890  137.4940 C   0  0  0  0  0  2  0  0  0  0  0  0
  180.7890  174.0150  138.4910 N   0  0  0  0  0  0  0  0  0  0  0  0
  1  8  1  0  0  0  0
  2  4  1  6  0  0  0
  2  8  1  0  0  0  0
  5  6  1  0  0  0  0
  5 12  1  0  0  0  0
  6 15  2  0  0  0  0
  7 23  1  1  0  0  0
  7 11  1  0  0  0  0
  8 18  1  0  0  0  0
  9  7  1  0  0  0  0
 10 15  1  6  0  0  0
 10  1  1  0  0  0  0
 11  3  1  6  0  0  0
 11  2  1  0  0  0  0
 13  9  1  0  0  0  0
 13  4  1  0  0  0  0
 14  6  1  0  0  0  0
 16 12  1  1  0  0  0
 16 10  1  0  0  0  0
 16  3  1  0  0  0  0
 18 19  2  0  0  0  0
 18 22  1  0  0  0  0
 19 20  1  0  0  0  0
 20 17  2  0  0  0  0
 21 17  1  0  0  0  0
 22 21  2  0  0  0  0
 23 24  1  1  0  0  0
 25 26  1  0  0  0  0
 25 27  1  0  0  0  0
 26 27  1  0  0  0  0
 27 23  1  0  0  0  0
M  END
>  <MODEL>
6

>  <REMARK>
 VINA RESULT:      -5.8      4.367      6.203
  Name = 
  3 active torsions:
  status: ('A' for Active; 'I' for Inactive)
    1  A    between atoms: C_8  and  C_14
    2  A    between atoms: C_8  and  N_16
    3  A    between atoms: C_9  and  N_15
                            x       y       z     vdW  Elec       q    Type
                         _______ _______ _______ _____ _____    ______ ____

>  <TORSDO>
F 3

$$$$
=
 OpenBabel10272400593D

 27 31  0  0  1  0  0  0  0  0999 V2000
  182.0280  179.6230  140.0550 C   0  0  0  0  0  2  0  0  0  0  0  0
  182.1570  177.1070  139.8510 C   0  0  2  0  0  3  0  0  0  0  0  0
  182.8270  177.8540  137.5600 C   0  0  0  0  0  2  0  0  0  0  0  0
  180.6200  177.0900  139.9600 C   0  0  0  0  0  2  0  0  0  0  0  0
  180.3990  180.5070  136.2570 C   0  0  0  0  0  2  0  0  0  0  0  0
  180.6300  181.5500  137.3130 C   0  0  0  0  0  0  0  0  0  0  0  0
  181.9690  175.6230  137.8460 C   0  0  1  0  0  3  0  0  0  0  0  0
  182.7350  178.3690  140.3300 N   0  0  0  0  0  0  0  0  0  0  0  0
  180.9560  175.0210  138.7150 N   0  0  0  0  0  2  0  0  0  0  0  0
  182.1590  180.0310  138.5900 C   0  0  2  0  0  3  0  0  0  0  0  0
  182.6770  176.7380  138.5100 N   0  0  2  0  0  0  0  0  0  0  0  0
  181.5100  179.4650  136.2340 C   0  0  0  0  0  2  0  0  0  0  0  0
  179.9890  176.0570  139.0370 C   0  0  0  0  0  2  0  0  0  0  0  0
  179.9820  182.7730  137.2040 O   0  0  0  0  0  1  0  0  0  0  0  0
  181.3900  181.3100  138.3860 C   0  0  0  0  0  3  0  0  0  0  0  0
  181.7200  178.9040  137.6340 C   0  0  1  0  0  3  0  0  0  0  0  0
  186.6040  178.4300  142.0950 C   0  0  0  0  0  3  0  0  0  0  0  0
  184.0470  178.3890  140.9270 C   0  0  0  0  0  0  0  0  0  0  0  0
  185.1720  178.7570  140.1720 C   0  0  0  0  0  3  0  0  0  0  0  0
  186.4440  178.7770  140.7520 C   0  0  0  0  0  3  0  0  0  0  0  0
  185.4940  178.0630  142.8590 C   0  0  0  0  0  3  0  0  0  0  0  0
  184.2220  178.0430  142.2780 C   0  0  0  0  0  3  0  0  0  0  0  0
  182.9700  174.5520  137.3850 C   0  0  2  0  0  3  0  0  0  0  0  0
  184.3920  175.0000  137.7020 C   0  0  0  0  0  1  0  0  0  0  0  0
  181.4700  173.8570  135.6980 C   0  0  0  0  0  2  0  0  0  0  0  0
  182.5490  172.8850  135.7540 C   0  0  0  0  0  2  0  0  0  0  0  0
  182.8480  174.3150  135.9500 N   0  0  0  0  0  0  0  0  0  0  0  0
  1  8  1  0  0  0  0
  2  4  1  6  0  0  0
  2  8  1  0  0  0  0
  3 16  1  0  0  0  0
  5  6  1  0  0  0  0
  6 15  2  0  0  0  0
  7 23  1  1  0  0  0
  7 11  1  0  0  0  0
  7  9  1  0  0  0  0
  8 18  1  0  0  0  0
  9 13  1  0  0  0  0
 10 15  1  1  0  0  0
 10  1  1  0  0  0  0
 11  3  1  6  0  0  0
 11  2  1  0  0  0  0
 12  5  1  0  0  0  0
 13  4  1  0  0  0  0
 14  6  1  0  0  0  0
 16 12  1  6  0  0  0
 16 10  1  0  0  0  0
 17 21  1  0  0  0  0
 18 22  1  0  0  0  0
 19 20  1  0  0  0  0
 19 18  2  0  0  0  0
 20 17  2  0  0  0  0
 22 21  2  0  0  0  0
 23 24  1  6  0  0  0
 25 26  1  0  0  0  0
 25 27  1  0  0  0  0
 26 27  1  0  0  0  0
 27 23  1  0  0  0  0
M  END
>  <MODEL>
7

>  <REMARK>
 VINA RESULT:      -4.9      5.498      7.997
  Name = 
  3 active torsions:
  status: ('A' for Active; 'I' for Inactive)
    1  A    between atoms: C_8  and  C_14
    2  A    between atoms: C_8  and  N_16
    3  A    between atoms: C_9  and  N_15
                            x       y       z     vdW  Elec       q    Type
                         _______ _______ _______ _____ _____    ______ ____

>  <TORSDO>
F 3

$$$$
=
 OpenBabel10272400593D

 27 31  0  0  1  0  0  0  0  0999 V2000
  186.5470  174.7800  135.2890 C   0  0  0  0  0  2  0  0  0  0  0  0
  184.8390  176.5330  135.9210 C   0  0  2  0  0  3  0  0  0  0  0  0
  184.4530  174.7740  137.6560 C   0  0  0  0  0  2  0  0  0  0  0  0
  184.0830  176.1610  134.6310 C   0  0  0  0  0  2  0  0  0  0  0  0
  184.2380  171.3190  136.0320 C   0  0  0  0  0  2  0  0  0  0  0  0
  185.6160  171.2730  135.4370 C   0  0  0  0  0  0  0  0  0  0  0  0
  182.6810  176.3310  137.1700 C   0  0  1  0  0  3  0  0  0  0  0  0
  186.2340  176.0740  135.9010 N   0  0  0  0  0  0  0  0  0  0  0  0
  182.2210  177.0090  135.9560 N   0  0  0  0  0  2  0  0  0  0  0  0
  186.0970  173.6190  136.1720 C   0  0  2  0  0  3  0  0  0  0  0  0
  184.1470  176.1320  137.1710 N   0  0  2  0  0  0  0  0  0  0  0  0
  184.1170  172.3940  137.1050 C   0  0  0  0  0  2  0  0  0  0  0  0
  182.5740  176.1640  134.8270 C   0  0  0  0  0  2  0  0  0  0  0  0
  186.0280  170.1210  134.7810 O   0  0  0  0  0  1  0  0  0  0  0  0
  186.4320  172.3310  135.4660 C   0  0  0  0  0  3  0  0  0  0  0  0
  184.6090  173.7260  136.5570 C   0  0  1  0  0  3  0  0  0  0  0  0
  189.2440  178.2500  137.9740 C   0  0  0  0  0  3  0  0  0  0  0  0
  187.2540  176.8120  136.6030 C   0  0  0  0  0  0  0  0  0  0  0  0
  187.5340  178.1470  136.2650 C   0  0  0  0  0  3  0  0  0  0  0  0
  188.5230  178.8610  136.9470 C   0  0  0  0  0  3  0  0  0  0  0  0
  188.9760  176.9240  138.3220 C   0  0  0  0  0  3  0  0  0  0  0  0
  187.9870  176.2090  137.6400 C   0  0  0  0  0  3  0  0  0  0  0  0
  182.2490  177.1260  138.4120 C   0  0  2  0  0  3  0  0  0  0  0  0
  183.3580  178.0860  138.8260 C   0  0  0  0  0  1  0  0  0  0  0  0
  180.9270  175.2760  139.0530 C   0  0  0  0  0  2  0  0  0  0  0  0
  180.5330  176.4050  139.8790 C   0  0  0  0  0  2  0  0  0  0  0  0
  181.9520  176.2250  139.5230 N   0  0  0  0  0  0  0  0  0  0  0  0
  1  8  1  0  0  0  0
  2  4  1  6  0  0  0
  2 11  1  0  0  0  0
  4 13  1  0  0  0  0
  5 12  1  0  0  0  0
  6 15  2  0  0  0  0
  6  5  1  0  0  0  0
  7 11  1  0  0  0  0
  7 23  1  1  0  0  0
  8  2  1  0  0  0  0
  8 18  1  0  0  0  0
  9  7  1  0  0  0  0
 10  1  1  6  0  0  0
 10 16  1  0  0  0  0
 11  3  1  6  0  0  0
 13  9  1  0  0  0  0
 14  6  1  0  0  0  0
 15 10  1  0  0  0  0
 16 12  1  1  0  0  0
 16  3  1  0  0  0  0
 17 21  1  0  0  0  0
 18 22  1  0  0  0  0
 19 18  2  0  0  0  0
 19 20  1  0  0  0  0
 20 17  2  0  0  0  0
 22 21  2  0  0  0  0
 23 24  1  1  0  0  0
 23 27  1  0  0  0  0
 25 27  1  0  0  0  0
 25 26  1  0  0  0  0
 27 26  1  0  0  0  0
M  END
>  <MODEL>
8

>  <REMARK>
 VINA RESULT:      -4.8      3.680      6.187
  Name = 
  3 active torsions:
  status: ('A' for Active; 'I' for Inactive)
    1  A    between atoms: C_8  and  C_14
    2  A    between atoms: C_8  and  N_16
    3  A    between atoms: C_9  and  N_15
                            x       y       z     vdW  Elec       q    Type
                         _______ _______ _______ _____ _____    ______ ____

>  <TORSDO>
F 3

$$$$
=
 OpenBabel10272400593D

 27 31  0  0  1  0  0  0  0  0999 V2000
  188.2210  175.3340  134.5650 C   0  0  0  0  0  2  0  0  0  0  0  0
  189.3120  177.0270  136.0930 C   0  0  2  0  0  3  0  0  0  0  0  0
  188.0040  175.6310  137.7040 C   0  0  0  0  0  2  0  0  0  0  0  0
  188.3900  178.0870  135.4610 C   0  0  0  0  0  2  0  0  0  0  0  0
  184.4360  175.1110  136.4320 C   0  0  0  0  0  2  0  0  0  0  0  0
  184.7640  174.3920  135.1540 C   0  0  0  0  0  0  0  0  0  0  0  0
  188.6280  177.8660  138.3480 C   0  0  1  0  0  3  0  0  0  0  0  0
  189.4120  175.8150  135.2700 N   0  0  0  0  0  0  0  0  0  0  0  0
  188.7760  179.1330  137.6290 N   0  0  0  0  0  2  0  0  0  0  0  0
  187.2230  174.6920  135.5250 C   0  0  2  0  0  3  0  0  0  0  0  0
  188.9930  176.7050  137.5070 N   0  0  2  0  0  0  0  0  0  0  0  0
  185.6120  175.1150  137.4000 C   0  0  0  0  0  2  0  0  0  0  0  0
  187.8800  179.0900  136.4860 C   0  0  0  0  0  2  0  0  0  0  0  0
  183.7260  173.9240  134.3590 O   0  0  0  0  0  1  0  0  0  0  0  0
  186.0230  174.2470  134.7300 C   0  0  0  0  0  3  0  0  0  0  0  0
  186.8590  175.6270  136.6940 C   0  0  1  0  0  3  0  0  0  0  0  0
  192.9780  173.4950  135.2820 C   0  0  0  0  0  3  0  0  0  0  0  0
  190.6210  175.0280  135.2750 C   0  0  0  0  0  0  0  0  0  0  0  0
  190.6640  173.7850  135.9280 C   0  0  0  0  0  3  0  0  0  0  0  0
  191.8360  173.0230  135.9320 C   0  0  0  0  0  3  0  0  0  0  0  0
  192.9490  174.7290  134.6270 C   0  0  0  0  0  3  0  0  0  0  0  0
  191.7770  175.4910  134.6230 C   0  0  0  0  0  3  0  0  0  0  0  0
  189.4780  177.8860  139.6280 C   0  0  2  0  0  3  0  0  0  0  0  0
  190.7130  177.0140  139.4450 C   0  0  0  0  0  1  0  0  0  0  0  0
  187.5870  178.3330  140.9730 C   0  0  0  0  0  2  0  0  0  0  0  0
  188.7620  178.4220  141.8230 C   0  0  0  0  0  2  0  0  0  0  0  0
  188.7060  177.3960  140.7670 N   0  0  0  0  0  0  0  0  0  0  0  0
  1  8  1  0  0  0  0
  2  4  1  6  0  0  0
  2 11  1  0  0  0  0
  4 13  1  0  0  0  0
  5 12  1  0  0  0  0
  6  5  1  0  0  0  0
  7 23  1  1  0  0  0
  8 18  1  0  0  0  0
  8  2  1  0  0  0  0
  9  7  1  0  0  0  0
 10  1  1  6  0  0  0
 10 16  1  0  0  0  0
 11  3  1  6  0  0  0
 11  7  1  0  0  0  0
 13  9  1  0  0  0  0
 14  6  1  0  0  0  0
 15  6  2  0  0  0  0
 15 10  1  0  0  0  0
 16 12  1  1  0  0  0
 16  3  1  0  0  0  0
 17 20  1  0  0  0  0
 18 19  1  0  0  0  0
 19 20  2  0  0  0  0
 21 17  2  0  0  0  0
 22 21  1  0  0  0  0
 22 18  2  0  0  0  0
 23 24  1  6  0  0  0
 23 27  1  0  0  0  0
 25 26  1  0  0  0  0
 27 25  1  0  0  0  0
 27 26  1  0  0  0  0
M  END
>  <MODEL>
9

>  <REMARK>
 VINA RESULT:      -4.8      2.933      6.341
  Name = 
  3 active torsions:
  status: ('A' for Active; 'I' for Inactive)
    1  A    between atoms: C_8  and  C_14
    2  A    between atoms: C_8  and  N_16
    3  A    between atoms: C_9  and  N_15
                            x       y       z     vdW  Elec       q    Type
                         _______ _______ _______ _____ _____    ______ ____

>  <TORSDO>
F 3

$$$$
