=
 OpenBabel10272401583D

 28 32  0  0  1  0  0  0  0  0999 V2000
  184.6610  178.5100  143.1230 N   0  0  0  0  0  0  0  0  0  0  0  0
  189.3630  177.6660  140.9340 C   0  0  0  0  0  2  0  0  0  0  0  0
  187.5790  177.7720  146.9240 C   0  0  0  0  0  2  0  0  0  0  0  0
  190.8290  177.5470  142.9790 C   0  0  0  0  0  0  0  0  0  0  0  0
  188.3830  177.8410  143.2710 C   0  0  1  0  0  3  0  0  0  0  0  0
  191.8480  177.6240  140.6980 C   0  0  1  0  0  3  0  0  0  0  0  0
  189.4690  177.2210  142.3920 C   0  0  1  0  0  3  0  0  0  0  0  0
  189.9490  177.6580  145.2070 C   0  0  0  0  0  3  0  0  0  0  0  0
  191.9120  177.6570  142.2030 C   0  0  0  0  0  3  0  0  0  0  0  0
  186.1480  178.2160  145.0070 C   0  0  0  0  0  0  0  0  0  0  0  0
  186.9840  177.4730  142.7920 C   0  0  0  0  0  2  0  0  0  0  0  0
  190.9660  177.7150  144.3970 N   0  0  0  0  0  0  0  0  0  0  0  0
  183.7330  178.8610  145.3470 C   0  0  0  0  0  2  0  0  0  0  0  0
  187.4650  177.8700  145.6020 C   0  0  0  0  0  0  0  0  0  0  0  0
  185.0950  178.7150  145.8460 N   0  0  0  0  0  2  0  0  0  0  0  0
  193.0130  176.8300  140.1450 C   0  0  0  0  0  1  0  0  0  0  0  0
  190.5290  177.0630  140.1630 C   0  0  0  0  0  2  0  0  0  0  0  0
  188.5620  177.3380  144.7090 C   0  0  1  0  0  3  0  0  0  0  0  0
  183.7770  179.3640  143.9130 C   0  0  0  0  0  2  0  0  0  0  0  0
  185.9350  178.1010  143.6760 C   0  0  0  0  0  0  0  0  0  0  0  0
  184.1860  178.1040  141.8030 C   0  0  1  0  0  3  0  0  0  0  0  0
  182.6510  178.0730  141.7300 C   0  0  0  0  0  2  0  0  0  0  0  0
  182.4770  179.0060  139.3700 C   0  0  1  0  0  3  0  0  0  0  0  0
  185.0340  179.0310  140.4620 S   0  0  0  0  0  0  0  0  0  0  0  0
  180.6830  179.1740  140.9480 O   0  0  0  0  0  1  0  0  0  0  0  0
  182.0730  179.1700  140.8390 C   0  0  1  0  0  3  0  0  0  0  0  0
  182.3600  180.3380  138.6560 C   0  0  0  0  0  1  0  0  0  0  0  0
  183.8860  178.4380  139.1770 C   0  0  0  0  0  2  0  0  0  0  0  0
  1 20  1  0  0  0  0
  1 19  1  0  0  0  0
  4 12  1  0  0  0  0
  5 11  1  6  0  0  0
  5 18  1  0  0  0  0
  6 16  1  1  0  0  0
  6  9  1  0  0  0  0
  7  2  1  6  0  0  0
  7  4  1  0  0  0  0
  7  5  1  0  0  0  0
  9  4  2  0  0  0  0
 10 14  1  0  0  0  0
 10 15  1  0  0  0  0
 11 20  1  0  0  0  0
 12  8  2  0  0  0  0
 13 15  1  0  0  0  0
 14  3  2  0  0  0  0
 17  6  1  0  0  0  0
 17  2  1  0  0  0  0
 18  8  1  1  0  0  0
 18 14  1  0  0  0  0
 19 13  1  0  0  0  0
 20 10  2  0  0  0  0
 21 22  1  1  0  0  0
 21  1  1  0  0  0  0
 23 27  1  6  0  0  0
 23 26  1  0  0  0  0
 24 21  1  0  0  0  0
 26 25  1  6  0  0  0
 26 22  1  0  0  0  0
 28 23  1  0  0  0  0
 28 24  1  0  0  0  0
M  END
>  <MODEL>
1

>  <REMARK>
 VINA RESULT:      -9.5      0.000      0.000
  Name = 
  1 active torsions:
  status: ('A' for Active; 'I' for Inactive)
    1  A    between atoms: N_1  and  C_2
                            x       y       z     vdW  Elec       q    Type
                         _______ _______ _______ _____ _____    ______ ____

>  <TORSDO>
F 1

$$$$
=
 OpenBabel10272401583D

 28 32  0  0  1  0  0  0  0  0999 V2000
  190.0850  177.3000  143.5200 N   0  0  0  0  0  0  0  0  0  0  0  0
  185.0110  178.5280  142.9150 C   0  0  0  0  0  2  0  0  0  0  0  0
  188.4840  177.8310  148.0660 C   0  0  0  0  0  2  0  0  0  0  0  0
  184.2310  178.5330  145.3090 C   0  0  0  0  0  0  0  0  0  0  0  0
  186.6280  178.1110  144.8300 C   0  0  1  0  0  3  0  0  0  0  0  0
  182.5770  178.6950  143.4430 C   0  0  1  0  0  3  0  0  0  0  0  0
  185.3730  178.8490  144.3640 C   0  0  1  0  0  3  0  0  0  0  0  0
  185.7240  178.1930  147.1560 C   0  0  0  0  0  3  0  0  0  0  0  0
  182.9610  178.5350  144.8910 C   0  0  0  0  0  3  0  0  0  0  0  0
  189.2480  177.4940  145.7800 C   0  0  0  0  0  0  0  0  0  0  0  0
  187.8420  178.4600  143.9780 C   0  0  0  0  0  2  0  0  0  0  0  0
  184.5100  178.2490  146.6880 N   0  0  0  0  0  0  0  0  0  0  0  0
  191.6070  176.7210  145.3300 C   0  0  0  0  0  2  0  0  0  0  0  0
  188.1930  177.8430  146.7670 C   0  0  0  0  0  0  0  0  0  0  0  0
  190.4670  176.8810  146.2260 N   0  0  0  0  0  2  0  0  0  0  0  0
  181.3550  179.5820  143.3230 C   0  0  0  0  0  1  0  0  0  0  0  0
  183.7110  179.2440  142.5750 C   0  0  0  0  0  2  0  0  0  0  0  0
  186.9180  178.4950  146.2850 C   0  0  1  0  0  3  0  0  0  0  0  0
  191.1050  176.3450  143.9450 C   0  0  0  0  0  2  0  0  0  0  0  0
  189.0620  177.7140  144.4580 C   0  0  0  0  0  0  0  0  0  0  0  0
  190.1720  177.7990  142.1490 C   0  0  1  0  0  3  0  0  0  0  0  0
  191.6300  177.9750  141.6940 C   0  0  0  0  0  2  0  0  0  0  0  0
  191.2690  177.1520  139.3150 C   0  0  1  0  0  3  0  0  0  0  0  0
  189.0870  176.8470  141.0120 S   0  0  0  0  0  0  0  0  0  0  0  0
  193.4140  177.0940  140.3780 O   0  0  0  0  0  1  0  0  0  0  0  0
  192.0470  176.9710  140.6230 C   0  0  1  0  0  3  0  0  0  0  0  0
  191.3070  175.8640  138.5170 C   0  0  0  0  0  1  0  0  0  0  0  0
  189.8160  177.5920  139.5170 C   0  0  0  0  0  2  0  0  0  0  0  0
  1 19  1  0  0  0  0
  1 20  1  0  0  0  0
  4 12  1  0  0  0  0
  5 11  1  6  0  0  0
  5 18  1  0  0  0  0
  6 16  1  1  0  0  0
  6  9  1  0  0  0  0
  7  2  1  6  0  0  0
  7  5  1  0  0  0  0
  7  4  1  0  0  0  0
  9  4  2  0  0  0  0
 10 15  1  0  0  0  0
 10 14  1  0  0  0  0
 11 20  1  0  0  0  0
 12  8  2  0  0  0  0
 13 15  1  0  0  0  0
 14  3  2  0  0  0  0
 17  2  1  0  0  0  0
 17  6  1  0  0  0  0
 18 14  1  0  0  0  0
 18  8  1  1  0  0  0
 19 13  1  0  0  0  0
 20 10  2  0  0  0  0
 21 22  1  6  0  0  0
 21  1  1  0  0  0  0
 23 27  1  1  0  0  0
 23 28  1  0  0  0  0
 23 26  1  0  0  0  0
 24 21  1  0  0  0  0
 26 25  1  6  0  0  0
 26 22  1  0  0  0  0
 28 24  1  0  0  0  0
M  END
>  <MODEL>
2

>  <REMARK>
 VINA RESULT:      -9.3      3.139      7.118
  Name = 
  1 active torsions:
  status: ('A' for Active; 'I' for Inactive)
    1  A    between atoms: N_1  and  C_2
                            x       y       z     vdW  Elec       q    Type
                         _______ _______ _______ _____ _____    ______ ____

>  <TORSDO>
F 1

$$$$
=
 OpenBabel10272401583D

 28 32  0  0  1  0  0  0  0  0999 V2000
  189.8830  177.1730  139.0940 N   0  0  0  0  0  0  0  0  0  0  0  0
  191.5920  176.1580  143.9580 C   0  0  0  0  0  2  0  0  0  0  0  0
  186.1990  178.5740  141.9190 C   0  0  0  0  0  2  0  0  0  0  0  0
  189.7290  177.1440  145.3360 C   0  0  0  0  0  0  0  0  0  0  0  0
  189.5400  177.1790  142.8630 C   0  0  1  0  0  3  0  0  0  0  0  0
  191.8400  176.3780  146.4320 C   0  0  1  0  0  3  0  0  0  0  0  0
  190.0880  176.4050  144.0620 C   0  0  1  0  0  3  0  0  0  0  0  0
  187.7490  178.0760  144.3540 C   0  0  0  0  0  3  0  0  0  0  0  0
  190.4990  177.0650  146.4260 C   0  0  0  0  0  3  0  0  0  0  0  0
  188.0890  177.9370  140.5240 C   0  0  0  0  0  0  0  0  0  0  0  0
  189.7830  176.4420  141.5510 C   0  0  0  0  0  2  0  0  0  0  0  0
  188.5260  177.9250  145.3870 N   0  0  0  0  0  0  0  0  0  0  0  0
  188.0100  178.3090  138.0300 C   0  0  0  0  0  2  0  0  0  0  0  0
  187.4320  178.0750  141.8490 C   0  0  0  0  0  0  0  0  0  0  0  0
  187.5260  178.5900  139.3760 N   0  0  0  0  0  2  0  0  0  0  0  0
  192.0210  175.6020  147.7200 C   0  0  0  0  0  1  0  0  0  0  0  0
  192.0520  175.4580  145.2290 C   0  0  0  0  0  2  0  0  0  0  0  0
  188.0310  177.3750  143.0470 C   0  0  1  0  0  3  0  0  0  0  0  0
  189.5210  178.1460  138.0660 C   0  0  0  0  0  2  0  0  0  0  0  0
  189.2350  177.2310  140.3880 C   0  0  0  0  0  0  0  0  0  0  0  0
  190.8880  176.1740  138.7380 C   0  0  1  0  0  3  0  0  0  0  0  0
  190.5000  175.3970  137.4690 C   0  0  0  0  0  2  0  0  0  0  0  0
  192.8480  175.2820  136.4980 C   0  0  1  0  0  3  0  0  0  0  0  0
  192.5840  176.8810  138.7580 S   0  0  0  0  0  0  0  0  0  0  0  0
  190.8880  175.0980  135.1340 O   0  0  0  0  0  1  0  0  0  0  0  0
  191.3950  175.7180  136.2750 C   0  0  1  0  0  3  0  0  0  0  0  0
  193.7630  176.0710  135.5840 C   0  0  0  0  0  1  0  0  0  0  0  0
  193.3180  175.4220  137.9490 C   0  0  0  0  0  2  0  0  0  0  0  0
  1 20  1  0  0  0  0
  2 17  1  0  0  0  0
  4 12  1  0  0  0  0
  4  9  2  0  0  0  0
  5 11  1  6  0  0  0
  5 18  1  0  0  0  0
  5  7  1  0  0  0  0
  6 16  1  1  0  0  0
  7  2  1  6  0  0  0
  7  4  1  0  0  0  0
  8 12  2  0  0  0  0
  9  6  1  0  0  0  0
 10 14  1  0  0  0  0
 13 19  1  0  0  0  0
 13 15  1  0  0  0  0
 14  3  2  0  0  0  0
 14 18  1  0  0  0  0
 15 10  1  0  0  0  0
 17  6  1  0  0  0  0
 18  8  1  1  0  0  0
 19  1  1  0  0  0  0
 20 10  2  0  0  0  0
 20 11  1  0  0  0  0
 21 22  1  6  0  0  0
 21 24  1  0  0  0  0
 21  1  1  0  0  0  0
 23 27  1  6  0  0  0
 23 28  1  0  0  0  0
 26 25  1  6  0  0  0
 26 23  1  0  0  0  0
 26 22  1  0  0  0  0
 28 24  1  0  0  0  0
M  END
>  <MODEL>
3

>  <REMARK>
 VINA RESULT:      -9.3      3.900      7.053
  Name = 
  1 active torsions:
  status: ('A' for Active; 'I' for Inactive)
    1  A    between atoms: N_1  and  C_2
                            x       y       z     vdW  Elec       q    Type
                         _______ _______ _______ _____ _____    ______ ____

>  <TORSDO>
F 1

$$$$
=
 OpenBabel10272401583D

 28 32  0  0  1  0  0  0  0  0999 V2000
  185.3270  178.4660  139.4830 N   0  0  0  0  0  0  0  0  0  0  0  0
  186.3740  177.9890  144.6100 C   0  0  0  0  0  2  0  0  0  0  0  0
  190.1290  177.8130  139.6160 C   0  0  0  0  0  2  0  0  0  0  0  0
  188.8240  177.4100  144.5470 C   0  0  0  0  0  0  0  0  0  0  0  0
  187.6480  177.8860  142.4150 C   0  0  1  0  0  3  0  0  0  0  0  0
  187.5460  177.2580  146.6890 C   0  0  1  0  0  3  0  0  0  0  0  0
  187.7110  178.2160  143.9060 C   0  0  1  0  0  3  0  0  0  0  0  0
  190.0840  177.3460  142.5070 C   0  0  0  0  0  3  0  0  0  0  0  0
  188.7660  177.0430  145.8310 C   0  0  0  0  0  3  0  0  0  0  0  0
  187.7090  178.0620  139.5660 C   0  0  0  0  0  0  0  0  0  0  0  0
  186.6110  178.7330  141.6880 C   0  0  0  0  0  2  0  0  0  0  0  0
  189.9780  177.0540  143.7710 N   0  0  0  0  0  0  0  0  0  0  0  0
  186.4900  178.1920  137.3610 C   0  0  0  0  0  2  0  0  0  0  0  0
  188.9910  177.9000  140.3000 C   0  0  0  0  0  0  0  0  0  0  0  0
  187.6660  177.8390  138.1490 N   0  0  0  0  0  2  0  0  0  0  0  0
  187.9590  177.6900  148.0810 C   0  0  0  0  0  1  0  0  0  0  0  0
  186.5610  178.2660  146.0960 C   0  0  0  0  0  2  0  0  0  0  0  0
  189.0240  178.1460  141.7910 C   0  0  1  0  0  3  0  0  0  0  0  0
  185.2380  177.8600  138.1560 C   0  0  0  0  0  2  0  0  0  0  0  0
  186.5690  178.3820  140.2220 C   0  0  0  0  0  0  0  0  0  0  0  0
  184.1340  179.1430  139.9850 C   0  0  1  0  0  3  0  0  0  0  0  0
  183.4180  179.9380  138.8800 C   0  0  0  0  0  2  0  0  0  0  0  0
  181.0550  179.3790  139.6370 C   0  0  1  0  0  3  0  0  0  0  0  0
  183.0750  178.0110  140.9710 S   0  0  0  0  0  0  0  0  0  0  0  0
  181.5600  180.0180  137.3850 O   0  0  0  0  0  1  0  0  0  0  0  0
  182.0700  179.3370  138.4890 C   0  0  1  0  0  3  0  0  0  0  0  0
  179.9820  178.3330  139.4060 C   0  0  0  0  0  1  0  0  0  0  0  0
  181.6800  179.1830  141.0210 C   0  0  0  0  0  2  0  0  0  0  0  0
  1 21  1  0  0  0  0
  1 20  1  0  0  0  0
  2 17  1  0  0  0  0
  3 14  2  0  0  0  0
  4  9  2  0  0  0  0
  5 11  1  6  0  0  0
  5  7  1  0  0  0  0
  6 16  1  1  0  0  0
  7  4  1  0  0  0  0
  7  2  1  1  0  0  0
  8 12  2  0  0  0  0
  9  6  1  0  0  0  0
 10 20  2  0  0  0  0
 10 14  1  0  0  0  0
 12  4  1  0  0  0  0
 13 15  1  0  0  0  0
 13 19  1  0  0  0  0
 14 18  1  0  0  0  0
 15 10  1  0  0  0  0
 17  6  1  0  0  0  0
 18  5  1  0  0  0  0
 18  8  1  1  0  0  0
 19  1  1  0  0  0  0
 20 11  1  0  0  0  0
 21 22  1  6  0  0  0
 21 24  1  0  0  0  0
 23 27  1  6  0  0  0
 23 28  1  0  0  0  0
 24 28  1  0  0  0  0
 26 25  1  6  0  0  0
 26 22  1  0  0  0  0
 26 23  1  0  0  0  0
M  END
>  <MODEL>
4

>  <REMARK>
 VINA RESULT:      -9.1      2.073      4.874
  Name = 
  1 active torsions:
  status: ('A' for Active; 'I' for Inactive)
    1  A    between atoms: N_1  and  C_2
                            x       y       z     vdW  Elec       q    Type
                         _______ _______ _______ _____ _____    ______ ____

>  <TORSDO>
F 1

$$$$
=
 OpenBabel10272401583D

 28 32  0  0  1  0  0  0  0  0999 V2000
  188.8100  176.5710  137.9190 N   0  0  0  0  0  0  0  0  0  0  0  0
  187.3770  177.2270  142.9320 C   0  0  0  0  0  2  0  0  0  0  0  0
  192.9990  177.4240  140.2070 C   0  0  0  0  0  2  0  0  0  0  0  0
  189.6240  177.4110  144.0520 C   0  0  0  0  0  0  0  0  0  0  0  0
  189.5300  177.1760  141.5850 C   0  0  1  0  0  3  0  0  0  0  0  0
  187.5430  177.2120  145.4220 C   0  0  1  0  0  3  0  0  0  0  0  0
  188.8130  177.7350  142.8130 C   0  0  1  0  0  3  0  0  0  0  0  0
  191.6840  177.4160  142.8240 C   0  0  0  0  0  3  0  0  0  0  0  0
  189.0390  177.2450  145.2430 C   0  0  0  0  0  3  0  0  0  0  0  0
  190.8950  176.9220  139.0910 C   0  0  0  0  0  0  0  0  0  0  0  0
  188.8160  177.5480  140.2910 C   0  0  0  0  0  2  0  0  0  0  0  0
  191.0520  177.3040  143.9560 N   0  0  0  0  0  0  0  0  0  0  0  0
  190.8670  176.3380  136.6370 C   0  0  0  0  0  2  0  0  0  0  0  0
  191.6800  177.2690  140.3040 C   0  0  0  0  0  0  0  0  0  0  0  0
  191.5730  176.4810  137.9040 N   0  0  0  0  0  2  0  0  0  0  0  0
  187.1530  177.9570  146.6820 C   0  0  0  0  0  1  0  0  0  0  0  0
  186.7790  177.7720  144.2220 C   0  0  0  0  0  2  0  0  0  0  0  0
  190.9550  177.7390  141.5430 C   0  0  1  0  0  3  0  0  0  0  0  0
  189.4810  175.7700  136.8980 C   0  0  0  0  0  2  0  0  0  0  0  0
  189.5440  176.9810  139.0980 C   0  0  0  0  0  0  0  0  0  0  0  0
  187.4140  176.9260  137.6730 C   0  0  1  0  0  3  0  0  0  0  0  0
  187.2820  178.0320  136.6120 C   0  0  0  0  0  2  0  0  0  0  0  0
  185.2160  177.0710  135.4810 C   0  0  1  0  0  3  0  0  0  0  0  0
  186.3710  175.4370  137.4120 S   0  0  0  0  0  0  0  0  0  0  0  0
  186.7230  178.5490  134.3510 O   0  0  0  0  0  1  0  0  0  0  0  0
  186.6660  177.5360  135.3070 C   0  0  1  0  0  3  0  0  0  0  0  0
  184.8460  176.1220  134.3590 C   0  0  0  0  0  1  0  0  0  0  0  0
  184.9400  176.4060  136.8330 C   0  0  0  0  0  2  0  0  0  0  0  0
  1 20  1  0  0  0  0
  2 17  1  0  0  0  0
  3 14  2  0  0  0  0
  4  9  2  0  0  0  0
  5 11  1  6  0  0  0
  5  7  1  0  0  0  0
  6 16  1  1  0  0  0
  7  2  1  1  0  0  0
  7  4  1  0  0  0  0
  8 12  2  0  0  0  0
  9  6  1  0  0  0  0
 10 20  2  0  0  0  0
 10 14  1  0  0  0  0
 12  4  1  0  0  0  0
 13 19  1  0  0  0  0
 13 15  1  0  0  0  0
 14 18  1  0  0  0  0
 15 10  1  0  0  0  0
 17  6  1  0  0  0  0
 18  5  1  0  0  0  0
 18  8  1  1  0  0  0
 19  1  1  0  0  0  0
 20 11  1  0  0  0  0
 21 22  1  6  0  0  0
 21  1  1  0  0  0  0
 23 27  1  6  0  0  0
 23 28  1  0  0  0  0
 24 21  1  0  0  0  0
 26 25  1  6  0  0  0
 26 23  1  0  0  0  0
 26 22  1  0  0  0  0
 28 24  1  0  0  0  0
M  END
>  <MODEL>
5

>  <REMARK>
 VINA RESULT:      -9.0      3.532      6.366
  Name = 
  1 active torsions:
  status: ('A' for Active; 'I' for Inactive)
    1  A    between atoms: N_1  and  C_2
                            x       y       z     vdW  Elec       q    Type
                         _______ _______ _______ _____ _____    ______ ____

>  <TORSDO>
F 1

$$$$
=
 OpenBabel10272401583D

 28 32  0  0  1  0  0  0  0  0999 V2000
  186.4720  178.3450  141.2530 N   0  0  0  0  0  0  0  0  0  0  0  0
  190.3050  176.9290  144.5580 C   0  0  0  0  0  2  0  0  0  0  0  0
  184.3380  178.4700  145.6040 C   0  0  0  0  0  2  0  0  0  0  0  0
  189.1700  177.2680  146.7800 C   0  0  0  0  0  0  0  0  0  0  0  0
  187.8770  177.6650  144.7000 C   0  0  1  0  0  3  0  0  0  0  0  0
  191.6210  176.7900  146.6740 C   0  0  1  0  0  3  0  0  0  0  0  0
  188.9930  176.8380  145.3370 C   0  0  1  0  0  3  0  0  0  0  0  0
  186.8680  177.9150  146.9710 C   0  0  0  0  0  3  0  0  0  0  0  0
  190.3540  177.1750  147.3940 C   0  0  0  0  0  3  0  0  0  0  0  0
  185.4480  178.4760  143.4390 C   0  0  0  0  0  0  0  0  0  0  0  0
  187.5810  177.2190  143.2740 C   0  0  0  0  0  2  0  0  0  0  0  0
  188.0410  177.7620  147.5150 N   0  0  0  0  0  0  0  0  0  0  0  0
  184.2050  179.2250  141.3760 C   0  0  0  0  0  2  0  0  0  0  0  0
  185.4520  178.2570  144.9090 C   0  0  0  0  0  0  0  0  0  0  0  0
  184.3550  179.1760  142.8250 N   0  0  0  0  0  2  0  0  0  0  0  0
  192.4530  175.8690  147.5420 C   0  0  0  0  0  1  0  0  0  0  0  0
  191.3670  176.1420  145.3120 C   0  0  0  0  0  2  0  0  0  0  0  0
  186.6050  177.5110  145.5410 C   0  0  1  0  0  3  0  0  0  0  0  0
  185.5750  179.3760  140.7360 C   0  0  0  0  0  2  0  0  0  0  0  0
  186.4800  178.0550  142.6720 C   0  0  0  0  0  0  0  0  0  0  0  0
  187.3130  177.6490  140.2820 C   0  0  1  0  0  3  0  0  0  0  0  0
  186.5740  177.4010  138.9570 C   0  0  0  0  0  2  0  0  0  0  0  0
  188.5690  177.8620  137.4480 C   0  0  1  0  0  3  0  0  0  0  0  0
  188.9720  178.4240  140.1420 S   0  0  0  0  0  0  0  0  0  0  0  0
  186.3100  178.0700  136.6820 O   0  0  0  0  0  1  0  0  0  0  0  0
  187.1250  178.2330  137.8020 C   0  0  1  0  0  3  0  0  0  0  0  0
  189.2290  179.0170  136.7210 C   0  0  0  0  0  1  0  0  0  0  0  0
  189.4170  177.4620  138.6590 C   0  0  0  0  0  2  0  0  0  0  0  0
  1 20  1  0  0  0  0
  2 17  1  0  0  0  0
  4  9  2  0  0  0  0
  4 12  1  0  0  0  0
  5 11  1  6  0  0  0
  5  7  1  0  0  0  0
  5 18  1  0  0  0  0
  6  9  1  0  0  0  0
  6 16  1  1  0  0  0
  7  2  1  6  0  0  0
  7  4  1  0  0  0  0
  8 12  2  0  0  0  0
 10 14  1  0  0  0  0
 13 15  1  0  0  0  0
 14 18  1  0  0  0  0
 14  3  2  0  0  0  0
 15 10  1  0  0  0  0
 17  6  1  0  0  0  0
 18  8  1  1  0  0  0
 19  1  1  0  0  0  0
 19 13  1  0  0  0  0
 20 11  1  0  0  0  0
 20 10  2  0  0  0  0
 21 22  1  6  0  0  0
 21  1  1  0  0  0  0
 23 27  1  1  0  0  0
 23 26  1  0  0  0  0
 23 28  1  0  0  0  0
 24 21  1  0  0  0  0
 26 25  1  6  0  0  0
 26 22  1  0  0  0  0
 28 24  1  0  0  0  0
M  END
>  <MODEL>
6

>  <REMARK>
 VINA RESULT:      -8.9      2.611      4.482
  Name = 
  1 active torsions:
  status: ('A' for Active; 'I' for Inactive)
    1  A    between atoms: N_1  and  C_2
                            x       y       z     vdW  Elec       q    Type
                         _______ _______ _______ _____ _____    ______ ____

>  <TORSDO>
F 1

$$$$
=
 OpenBabel10272401583D

 28 32  0  0  1  0  0  0  0  0999 V2000
  189.2230  177.3280  141.8740 N   0  0  0  0  0  0  0  0  0  0  0  0
  184.4410  178.7390  140.2110 C   0  0  0  0  0  2  0  0  0  0  0  0
  186.7190  177.9480  145.9790 C   0  0  0  0  0  2  0  0  0  0  0  0
  183.1740  178.7880  142.3860 C   0  0  0  0  0  0  0  0  0  0  0  0
  185.6000  178.2750  142.4240 C   0  0  1  0  0  3  0  0  0  0  0  0
  181.9590  179.0000  140.2120 C   0  0  1  0  0  3  0  0  0  0  0  0
  184.5010  179.0560  141.7050 C   0  0  1  0  0  3  0  0  0  0  0  0
  184.2280  178.4050  144.5060 C   0  0  0  0  0  3  0  0  0  0  0  0
  182.0220  178.8350  141.7090 C   0  0  0  0  0  3  0  0  0  0  0  0
  187.9350  177.5680  143.9060 C   0  0  0  0  0  0  0  0  0  0  0  0
  186.9790  178.5730  141.8490 C   0  0  0  0  0  2  0  0  0  0  0  0
  183.1440  178.5030  143.7930 N   0  0  0  0  0  0  0  0  0  0  0  0
  190.3050  176.7050  143.9640 C   0  0  0  0  0  2  0  0  0  0  0  0
  186.7090  177.9620  144.6480 C   0  0  0  0  0  0  0  0  0  0  0  0
  189.0090  176.9130  144.5990 N   0  0  0  0  0  2  0  0  0  0  0  0
  180.8240  179.9300  139.8390 C   0  0  0  0  0  1  0  0  0  0  0  0
  183.2710  179.5000  139.6050 C   0  0  0  0  0  2  0  0  0  0  0  0
  185.5900  178.6580  143.9080 C   0  0  1  0  0  3  0  0  0  0  0  0
  190.0940  176.3390  142.5040 C   0  0  0  0  0  2  0  0  0  0  0  0
  188.0410  177.7860  142.5750 C   0  0  0  0  0  0  0  0  0  0  0  0
  189.6160  177.8140  140.5530 C   0  0  1  0  0  3  0  0  0  0  0  0
  190.8340  177.0540  140.0020 C   0  0  0  0  0  2  0  0  0  0  0  0
  190.0230  176.9640  137.5920 C   0  0  1  0  0  3  0  0  0  0  0  0
  188.1740  177.9460  139.4220 S   0  0  0  0  0  0  0  0  0  0  0  0
  191.6040  175.3940  138.4700 O   0  0  0  0  0  1  0  0  0  0  0  0
  190.4910  176.1620  138.8110 C   0  0  1  0  0  3  0  0  0  0  0  0
  189.2090  176.0720  136.6770 C   0  0  0  0  0  1  0  0  0  0  0  0
  189.2150  178.2150  137.9500 C   0  0  0  0  0  2  0  0  0  0  0  0
  1 19  1  0  0  0  0
  1 20  1  0  0  0  0
  4 12  1  0  0  0  0
  5 11  1  6  0  0  0
  5 18  1  0  0  0  0
  6 16  1  1  0  0  0
  6  9  1  0  0  0  0
  7  2  1  6  0  0  0
  7  4  1  0  0  0  0
  7  5  1  0  0  0  0
  9  4  2  0  0  0  0
 10 15  1  0  0  0  0
 10 14  1  0  0  0  0
 11 20  1  0  0  0  0
 12  8  2  0  0  0  0
 13 15  1  0  0  0  0
 14  3  2  0  0  0  0
 17  2  1  0  0  0  0
 17  6  1  0  0  0  0
 18  8  1  1  0  0  0
 18 14  1  0  0  0  0
 19 13  1  0  0  0  0
 20 10  2  0  0  0  0
 21 22  1  6  0  0  0
 21  1  1  0  0  0  0
 23 27  1  6  0  0  0
 23 28  1  0  0  0  0
 23 26  1  0  0  0  0
 24 21  1  0  0  0  0
 26 25  1  6  0  0  0
 26 22  1  0  0  0  0
 28 24  1  0  0  0  0
M  END
>  <MODEL>
7

>  <REMARK>
 VINA RESULT:      -8.9      2.812      6.837
  Name = 
  1 active torsions:
  status: ('A' for Active; 'I' for Inactive)
    1  A    between atoms: N_1  and  C_2
                            x       y       z     vdW  Elec       q    Type
                         _______ _______ _______ _____ _____    ______ ____

>  <TORSDO>
F 1

$$$$
=
 OpenBabel10272401583D

 28 32  0  0  1  0  0  0  0  0999 V2000
  184.8900  178.5770  139.8400 N   0  0  1  0  0  0  0  0  0  0  0  0
  187.5630  177.8000  144.2980 C   0  0  0  0  0  2  0  0  0  0  0  0
  181.5540  179.2060  143.3020 C   0  0  0  0  0  2  0  0  0  0  0  0
  185.8160  178.3910  146.0120 C   0  0  0  0  0  0  0  0  0  0  0  0
  185.2030  178.4410  143.6090 C   0  0  1  0  0  3  0  0  0  0  0  0
  188.1870  178.0110  146.7050 C   0  0  1  0  0  3  0  0  0  0  0  0
  186.0790  177.7590  144.6600 C   0  0  1  0  0  3  0  0  0  0  0  0
  183.5620  178.9560  145.4200 C   0  0  0  0  0  3  0  0  0  0  0  0
  186.7630  178.4350  146.9550 C   0  0  0  0  0  3  0  0  0  0  0  0
  183.2600  178.9620  141.5840 C   0  0  0  0  0  0  0  0  0  0  0  0
  185.3470  177.7900  142.2390 C   0  0  0  0  0  2  0  0  0  0  0  0
  184.5190  178.9320  146.3020 N   0  0  0  0  0  0  0  0  0  0  0  0
  182.6890  179.3640  139.1600 C   0  0  0  0  0  2  0  0  0  0  0  0
  182.8260  178.9480  143.0050 C   0  0  0  0  0  0  0  0  0  0  0  0
  182.4000  179.5220  140.5800 N   0  0  0  0  0  0  0  0  0  0  0  0
  188.7230  177.2560  147.9030 C   0  0  0  0  0  1  0  0  0  0  0  0
  188.3530  177.1720  145.4370 C   0  0  0  0  0  2  0  0  0  0  0  0
  183.7380  178.3480  144.0500 C   0  0  1  0  0  3  0  0  0  0  0  0
  184.1870  179.4860  138.9380 C   0  0  0  0  0  2  0  0  0  0  0  0
  184.4740  178.4860  141.2240 C   0  0  1  0  0  3  0  0  0  0  0  0
  185.9830  177.7910  139.2720 C   0  0  1  0  0  3  0  0  0  0  0  0
  185.8300  177.6110  137.7530 C   0  0  0  0  0  2  0  0  0  0  0  0
  188.3020  177.8550  137.2060 C   0  0  1  0  0  3  0  0  0  0  0  0
  187.6210  178.3920  139.8480 S   0  0  0  0  0  0  0  0  0  0  0  0
  186.5850  178.2870  135.5930 O   0  0  0  0  0  1  0  0  0  0  0  0
  186.8820  178.3730  136.9530 C   0  0  1  0  0  3  0  0  0  0  0  0
  189.3090  178.9310  136.8510 C   0  0  0  0  0  1  0  0  0  0  0  0
  188.5380  177.3790  138.6420 C   0  0  0  0  0  2  0  0  0  0  0  0
  1 19  1  6  0  0  0
  1 20  1  0  0  0  0
  2 17  1  0  0  0  0
  4 12  1  0  0  0  0
  4  9  2  0  0  0  0
  5 11  1  6  0  0  0
  5 18  1  0  0  0  0
  5  7  1  0  0  0  0
  6  9  1  0  0  0  0
  6 16  1  1  0  0  0
  7  2  1  6  0  0  0
  7  4  1  0  0  0  0
  8 12  2  0  0  0  0
 10 14  1  0  0  0  0
 13 15  1  0  0  0  0
 14  3  2  0  0  0  0
 14 18  1  0  0  0  0
 15 10  2  0  0  0  0
 17  6  1  0  0  0  0
 18  8  1  1  0  0  0
 19 13  1  0  0  0  0
 20 10  1  0  0  0  0
 20 11  1  6  0  0  0
 21 22  1  6  0  0  0
 21  1  1  0  0  0  0
 21 24  1  0  0  0  0
 23 27  1  1  0  0  0
 23 28  1  0  0  0  0
 26 25  1  6  0  0  0
 26 23  1  0  0  0  0
 26 22  1  0  0  0  0
 28 24  1  0  0  0  0
M  END
>  <MODEL>
8

>  <REMARK>
 VINA RESULT:      -8.8      2.934      5.634
  Name = 
  1 active torsions:
  status: ('A' for Active; 'I' for Inactive)
    1  A    between atoms: N_1  and  C_2
                            x       y       z     vdW  Elec       q    Type
                         _______ _______ _______ _____ _____    ______ ____

>  <TORSDO>
F 1

$$$$
=
 OpenBabel10272401583D

 28 32  0  0  1  0  0  0  0  0999 V2000
  187.7580  177.7040  144.0640 N   0  0  0  0  0  0  0  0  0  0  0  0
  189.1180  177.4230  138.9950 C   0  0  0  0  0  2  0  0  0  0  0  0
  183.7230  179.0170  141.7200 C   0  0  0  0  0  2  0  0  0  0  0  0
  186.9060  177.8750  137.8800 C   0  0  0  0  0  0  0  0  0  0  0  0
  187.0390  177.9500  140.3560 C   0  0  1  0  0  3  0  0  0  0  0  0
  188.8680  177.1160  136.5310 C   0  0  1  0  0  3  0  0  0  0  0  0
  187.8040  178.2010  139.0570 C   0  0  1  0  0  3  0  0  0  0  0  0
  184.9240  178.4240  139.1150 C   0  0  0  0  0  3  0  0  0  0  0  0
  187.4100  177.4500  136.7170 C   0  0  0  0  0  3  0  0  0  0  0  0
  185.7350  178.2810  142.8740 C   0  0  0  0  0  0  0  0  0  0  0  0
  187.8520  178.3480  141.5820 C   0  0  0  0  0  2  0  0  0  0  0  0
  185.4870  178.0500  138.0030 N   0  0  0  0  0  0  0  0  0  0  0  0
  185.7380  178.0270  145.3840 C   0  0  0  0  0  2  0  0  0  0  0  0
  184.9860  178.6080  141.6320 C   0  0  0  0  0  0  0  0  0  0  0  0
  185.0280  178.1330  144.1150 N   0  0  0  0  0  2  0  0  0  0  0  0
  189.3450  177.6050  135.1790 C   0  0  0  0  0  1  0  0  0  0  0  0
  189.7620  177.6750  137.6390 C   0  0  0  0  0  2  0  0  0  0  0  0
  185.7440  178.7700  140.3340 C   0  0  1  0  0  3  0  0  0  0  0  0
  186.9870  177.1820  145.1890 C   0  0  0  0  0  2  0  0  0  0  0  0
  187.0730  178.0860  142.8460 C   0  0  0  0  0  0  0  0  0  0  0  0
  189.2030  177.8220  144.2470 C   0  0  1  0  0  3  0  0  0  0  0  0
  189.5700  178.1830  145.6960 C   0  0  0  0  0  2  0  0  0  0  0  0
  191.6260  176.6930  145.8310 C   0  0  1  0  0  3  0  0  0  0  0  0
  190.0980  176.3860  143.5290 S   0  0  0  0  0  0  0  0  0  0  0  0
  190.4220  177.3920  147.7790 O   0  0  0  0  0  1  0  0  0  0  0  0
  190.2640  177.0440  146.4380 C   0  0  1  0  0  3  0  0  0  0  0  0
  192.0080  175.2780  146.2200 C   0  0  0  0  0  1  0  0  0  0  0  0
  191.6800  176.8440  144.3080 C   0  0  0  0  0  2  0  0  0  0  0  0
  1 19  1  0  0  0  0
  4 12  1  0  0  0  0
  4  7  1  0  0  0  0
  5 11  1  1  0  0  0
  6 16  1  6  0  0  0
  6  9  1  0  0  0  0
  6 17  1  0  0  0  0
  7  2  1  1  0  0  0
  7  5  1  0  0  0  0
  9  4  2  0  0  0  0
 10 15  1  0  0  0  0
 11 20  1  0  0  0  0
 12  8  2  0  0  0  0
 14  3  2  0  0  0  0
 14 10  1  0  0  0  0
 15 13  1  0  0  0  0
 17  2  1  0  0  0  0
 18  8  1  6  0  0  0
 18  5  1  0  0  0  0
 18 14  1  0  0  0  0
 19 13  1  0  0  0  0
 20 10  2  0  0  0  0
 20  1  1  0  0  0  0
 21  1  1  1  0  0  0
 21 22  1  0  0  0  0
 22 26  1  0  0  0  0
 23 27  1  6  0  0  0
 23 26  1  0  0  0  0
 24 21  1  0  0  0  0
 24 28  1  0  0  0  0
 26 25  1  1  0  0  0
 28 23  1  0  0  0  0
M  END
>  <MODEL>
9

>  <REMARK>
 VINA RESULT:      -8.7      3.567      6.679
  Name = 
  1 active torsions:
  status: ('A' for Active; 'I' for Inactive)
    1  A    between atoms: N_1  and  C_2
                            x       y       z     vdW  Elec       q    Type
                         _______ _______ _______ _____ _____    ______ ____

>  <TORSDO>
F 1

$$$$
