=
 OpenBabel10272413263D

 32 37  0  0  1  0  0  0  0  0999 V2000
  190.7320  177.0120  140.2330 C   0  0  0  0  0  2  0  0  0  0  0  0
  187.0760  178.0390  143.6840 C   0  0  0  0  0  0  0  0  0  0  0  0
  189.4730  177.6550  147.8920 C   0  0  0  0  0  3  0  0  0  0  0  0
  188.2750  177.8480  148.5800 C   0  0  0  0  0  3  0  0  0  0  0  0
  184.6600  178.4220  143.5900 C   0  0  0  0  0  0  0  0  0  0  0  0
  184.7170  178.4120  142.1830 C   0  0  0  0  0  0  0  0  0  0  0  0
  188.3220  177.8480  141.5900 C   0  0  0  0  0  0  0  0  0  0  0  0
  189.4500  177.6550  143.6900 N   0  0  0  0  0  0  0  0  0  0  0  0
  182.2510  178.8020  143.4280 C   0  0  0  0  0  0  0  0  0  0  0  0
  190.8420  177.5000  141.6710 C   0  0  0  0  0  2  0  0  0  0  0  0
  189.4820  177.6520  146.4950 C   0  0  0  0  0  3  0  0  0  0  0  0
  188.2900  177.8410  144.3790 C   0  0  0  0  0  0  0  0  0  0  0  0
  188.2920  177.8420  145.7740 C   0  0  0  0  0  0  0  0  0  0  0  0
  185.8910  178.2280  145.7490 C   0  0  0  0  0  0  0  0  0  0  0  0
  182.3300  178.7880  142.0360 C   0  0  0  0  0  3  0  0  0  0  0  0
  189.4990  177.6370  142.3350 C   0  0  0  0  0  0  0  0  0  0  0  0
  183.5640  178.5940  141.4140 C   0  0  0  0  0  3  0  0  0  0  0  0
  188.3180  177.7760  140.0830 C   0  0  0  0  0  2  0  0  0  0  0  0
  189.7250  177.8810  139.4810 C   0  0  2  0  0  3  0  0  0  0  0  0
  187.0850  178.0390  147.8720 C   0  0  0  0  0  3  0  0  0  0  0  0
  187.0830  178.0380  146.4660 C   0  0  0  0  0  0  0  0  0  0  0  0
  184.8220  178.4000  146.4010 O   0  0  0  0  0  0  0  0  0  0  0  0
  187.1120  178.0360  142.2720 C   0  0  0  0  0  0  0  0  0  0  0  0
  185.9370  178.2200  141.5440 O   0  0  0  0  0  0  0  0  0  0  0  0
  180.9390  179.0100  144.0960 C   0  0  0  0  0  1  0  0  0  0  0  0
  185.8870  178.2280  144.3650 N   0  0  0  0  0  0  0  0  0  0  0  0
  183.4030  178.6210  144.1950 C   0  0  0  0  0  3  0  0  0  0  0  0
  189.7430  177.6740  138.0840 O   0  0  0  0  0  0  0  0  0  0  0  0
  188.4460  177.3600  137.6450 C   0  0  0  0  0  2  0  0  0  0  0  0
  188.0070  178.3510  136.6290 C   0  0  0  0  0  0  0  0  0  0  0  0
  187.8200  177.9580  135.3110 O   0  0  0  0  0  0  0  0  0  0  0  0
  187.7660  179.5380  136.9710 O   0  0  0  0  0  1  0  0  0  0  0  0
  1 10  1  0  0  0  0
  2 26  1  0  0  0  0
  2 12  1  0  0  0  0
  3  4  1  0  0  0  0
  5 27  1  0  0  0  0
  5 26  1  0  0  0  0
  6  5  2  0  0  0  0
  7 23  1  0  0  0  0
  7 16  2  0  0  0  0
  8 12  2  0  0  0  0
  9 25  1  0  0  0  0
  9 27  2  0  0  0  0
 10 16  1  0  0  0  0
 11  3  2  0  0  0  0
 12 13  1  0  0  0  0
 13 21  2  0  0  0  0
 13 11  1  0  0  0  0
 14 22  2  0  0  0  0
 14 21  1  0  0  0  0
 15  9  1  0  0  0  0
 16  8  1  0  0  0  0
 17 15  2  0  0  0  0
 17  6  1  0  0  0  0
 18  7  1  0  0  0  0
 19 28  1  6  0  0  0
 19 18  1  0  0  0  0
 19  1  1  0  0  0  0
 20  4  2  0  0  0  0
 21 20  1  0  0  0  0
 23  2  2  0  0  0  0
 24  6  1  0  0  0  0
 24 23  1  0  0  0  0
 26 14  1  0  0  0  0
 29 28  1  0  0  0  0
 30 32  1  0  0  0  0
 30 29  1  0  0  0  0
 31 30  2  0  0  0  0
M  END
>  <MODEL>
1

>  <REMARK>
 VINA RESULT:     -11.3      0.000      0.000
  Name = 
  3 active torsions:
  status: ('A' for Active; 'I' for Inactive)
    1  A    between atoms: C_1  and  C_10
    2  A    between atoms: C_10  and  O_19
    3  A    between atoms: O_19  and  C_24
                            x       y       z     vdW  Elec       q    Type
                         _______ _______ _______ _____ _____    ______ ____

>  <TORSDO>
F 3

$$$$
=
 OpenBabel10272413263D

 32 37  0  0  1  0  0  0  0  0999 V2000
  183.6940  179.2560  144.7770 C   0  0  0  0  0  2  0  0  0  0  0  0
  188.3550  177.5760  143.4410 C   0  0  0  0  0  0  0  0  0  0  0  0
  190.4890  176.8800  147.7500 C   0  0  0  0  0  3  0  0  0  0  0  0
  191.6830  176.5720  147.0970 C   0  0  0  0  0  3  0  0  0  0  0  0
  189.5640  177.3090  141.3300 C   0  0  0  0  0  0  0  0  0  0  0  0
  188.3940  177.6470  140.6220 C   0  0  0  0  0  0  0  0  0  0  0  0
  185.9960  178.2090  143.3780 C   0  0  0  0  0  0  0  0  0  0  0  0
  187.0990  177.8660  145.4720 N   0  0  0  0  0  0  0  0  0  0  0  0
  190.7150  177.0620  139.1870 C   0  0  0  0  0  0  0  0  0  0  0  0
  184.7120  178.4410  145.5630 C   0  0  0  0  0  2  0  0  0  0  0  0
  189.3530  177.2100  147.0070 C   0  0  0  0  0  3  0  0  0  0  0  0
  188.2730  177.5630  144.8520 C   0  0  0  0  0  0  0  0  0  0  0  0
  189.4020  177.2350  145.6040 C   0  0  0  0  0  0  0  0  0  0  0  0
  190.6580  176.9490  143.5400 C   0  0  0  0  0  0  0  0  0  0  0  0
  189.5450  177.3980  138.5070 C   0  0  0  0  0  3  0  0  0  0  0  0
  185.9770  178.1990  144.7870 C   0  0  0  0  0  0  0  0  0  0  0  0
  188.3850  177.6910  139.2250 C   0  0  0  0  0  3  0  0  0  0  0  0
  184.7900  178.6320  142.5760 C   0  0  0  0  0  2  0  0  0  0  0  0
  183.4960  178.6230  143.4000 C   0  0  2  0  0  3  0  0  0  0  0  0
  191.7420  176.5940  145.7010 C   0  0  0  0  0  3  0  0  0  0  0  0
  190.6050  176.9250  144.9440 C   0  0  0  0  0  0  0  0  0  0  0  0
  191.7540  176.6670  142.9790 O   0  0  0  0  0  0  0  0  0  0  0  0
  187.1920  177.9080  142.7130 C   0  0  0  0  0  0  0  0  0  0  0  0
  187.2270  177.9410  141.3190 O   0  0  0  0  0  0  0  0  0  0  0  0
  191.9530  176.7480  138.4270 C   0  0  0  0  0  1  0  0  0  0  0  0
  189.5390  177.2740  142.7930 N   0  0  0  0  0  0  0  0  0  0  0  0
  190.7230  177.0180  140.5830 C   0  0  0  0  0  3  0  0  0  0  0  0
  182.3910  179.1500  142.6970 O   0  0  0  0  0  0  0  0  0  0  0  0
  182.4020  178.6590  141.3810 C   0  0  0  0  0  2  0  0  0  0  0  0
  181.0190  178.6570  140.8360 C   0  0  0  0  0  0  0  0  0  0  0  0
  180.3790  177.4540  140.5700 O   0  0  0  0  0  0  0  0  0  0  0  0
  180.4140  179.7450  140.6520 O   0  0  0  0  0  1  0  0  0  0  0  0
  1 10  1  0  0  0  0
  2 12  1  0  0  0  0
  4  3  1  0  0  0  0
  5 26  1  0  0  0  0
  6 24  1  0  0  0  0
  6  5  1  0  0  0  0
  7 16  2  0  0  0  0
  9 27  1  0  0  0  0
 11  3  2  0  0  0  0
 12  8  2  0  0  0  0
 12 13  1  0  0  0  0
 13 11  1  0  0  0  0
 14 21  1  0  0  0  0
 15  9  2  0  0  0  0
 15 17  1  0  0  0  0
 16  8  1  0  0  0  0
 16 10  1  0  0  0  0
 17  6  2  0  0  0  0
 18  7  1  0  0  0  0
 18 19  1  0  0  0  0
 19 28  1  6  0  0  0
 19  1  1  0  0  0  0
 20  4  2  0  0  0  0
 21 13  2  0  0  0  0
 21 20  1  0  0  0  0
 22 14  2  0  0  0  0
 23  7  1  0  0  0  0
 23  2  2  0  0  0  0
 24 23  1  0  0  0  0
 25  9  1  0  0  0  0
 26  2  1  0  0  0  0
 26 14  1  0  0  0  0
 27  5  2  0  0  0  0
 29 28  1  0  0  0  0
 30 29  1  0  0  0  0
 31 30  2  0  0  0  0
 32 30  1  0  0  0  0
M  END
>  <MODEL>
2

>  <REMARK>
 VINA RESULT:     -11.1      2.230      6.189
  Name = 
  3 active torsions:
  status: ('A' for Active; 'I' for Inactive)
    1  A    between atoms: C_1  and  C_10
    2  A    between atoms: C_10  and  O_19
    3  A    between atoms: O_19  and  C_24
                            x       y       z     vdW  Elec       q    Type
                         _______ _______ _______ _____ _____    ______ ____

>  <TORSDO>
F 3

$$$$
=
 OpenBabel10272413263D

 32 37  0  0  1  0  0  0  0  0999 V2000
  188.0800  177.1640  147.8860 C   0  0  0  0  0  2  0  0  0  0  0  0
  186.6090  178.1520  143.0700 C   0  0  0  0  0  0  0  0  0  0  0  0
  181.8590  179.0330  143.5880 C   0  0  0  0  0  3  0  0  0  0  0  0
  181.7380  179.1330  142.2020 C   0  0  0  0  0  3  0  0  0  0  0  0
  187.6860  178.0620  140.8740 C   0  0  0  0  0  0  0  0  0  0  0  0
  188.9200  177.7910  141.4950 C   0  0  0  0  0  0  0  0  0  0  0  0
  187.9700  177.7910  145.0670 C   0  0  0  0  0  0  0  0  0  0  0  0
  185.6250  178.2170  145.2640 N   0  0  0  0  0  0  0  0  0  0  0  0
  188.8200  177.9560  138.7110 C   0  0  0  0  0  0  0  0  0  0  0  0
  186.8750  177.9320  147.3600 C   0  0  0  0  0  2  0  0  0  0  0  0
  183.1040  178.7620  144.1610 C   0  0  0  0  0  3  0  0  0  0  0  0
  185.4870  178.3170  143.9130 C   0  0  0  0  0  0  0  0  0  0  0  0
  184.2380  178.5890  143.3510 C   0  0  0  0  0  0  0  0  0  0  0  0
  185.2500  178.5160  141.1400 C   0  0  0  0  0  0  0  0  0  0  0  0
  190.0320  177.6890  139.3470 C   0  0  0  0  0  3  0  0  0  0  0  0
  186.8140  177.9470  145.8580 C   0  0  0  0  0  0  0  0  0  0  0  0
  190.0820  177.6060  140.7390 C   0  0  0  0  0  3  0  0  0  0  0  0
  189.3010  177.4300  145.6790 C   0  0  0  0  0  2  0  0  0  0  0  0
  189.3440  177.6720  147.1930 C   0  0  2  0  0  3  0  0  0  0  0  0
  182.8600  178.9620  141.3880 C   0  0  0  0  0  3  0  0  0  0  0  0
  184.1170  178.6900  141.9540 C   0  0  0  0  0  0  0  0  0  0  0  0
  185.1070  178.6130  139.8880 O   0  0  0  0  0  0  0  0  0  0  0  0
  187.8570  177.8830  143.6740 C   0  0  0  0  0  0  0  0  0  0  0  0
  188.9910  177.7050  142.8810 O   0  0  0  0  0  0  0  0  0  0  0  0
  188.7630  178.0460  137.2290 C   0  0  0  0  0  1  0  0  0  0  0  0
  186.4880  178.2490  141.6960 N   0  0  0  0  0  0  0  0  0  0  0  0
  187.6610  178.1400  139.4670 C   0  0  0  0  0  3  0  0  0  0  0  0
  190.5350  177.2060  147.7930 O   0  0  0  0  0  0  0  0  0  0  0  0
  191.4780  176.9260  146.7900 C   0  0  0  0  0  2  0  0  0  0  0  0
  192.3460  175.7980  147.2210 C   0  0  0  0  0  0  0  0  0  0  0  0
  192.9090  175.8000  148.4900 O   0  0  0  0  0  1  0  0  0  0  0  0
  192.5380  174.8220  146.4500 O   0  0  0  0  0  0  0  0  0  0  0  0
  2 23  2  0  0  0  0
  2 12  1  0  0  0  0
  3 11  1  0  0  0  0
  4  3  2  0  0  0  0
  5  6  1  0  0  0  0
  5 26  1  0  0  0  0
  6 24  1  0  0  0  0
  7 18  1  0  0  0  0
  7 16  2  0  0  0  0
  8 16  1  0  0  0  0
  9 15  2  0  0  0  0
  9 27  1  0  0  0  0
 10  1  1  0  0  0  0
 12  8  2  0  0  0  0
 13 12  1  0  0  0  0
 13 11  2  0  0  0  0
 14 26  1  0  0  0  0
 14 21  1  0  0  0  0
 15 17  1  0  0  0  0
 16 10  1  0  0  0  0
 17  6  2  0  0  0  0
 18 19  1  0  0  0  0
 19 28  1  1  0  0  0
 19  1  1  0  0  0  0
 20 21  2  0  0  0  0
 20  4  1  0  0  0  0
 21 13  1  0  0  0  0
 22 14  2  0  0  0  0
 23  7  1  0  0  0  0
 24 23  1  0  0  0  0
 25  9  1  0  0  0  0
 26  2  1  0  0  0  0
 27  5  2  0  0  0  0
 29 30  1  0  0  0  0
 29 28  1  0  0  0  0
 30 31  1  0  0  0  0
 32 30  2  0  0  0  0
M  END
>  <MODEL>
3

>  <REMARK>
 VINA RESULT:     -11.1      2.737      7.292
  Name = 
  3 active torsions:
  status: ('A' for Active; 'I' for Inactive)
    1  A    between atoms: C_1  and  C_10
    2  A    between atoms: C_10  and  O_19
    3  A    between atoms: O_19  and  C_24
                            x       y       z     vdW  Elec       q    Type
                         _______ _______ _______ _____ _____    ______ ____

>  <TORSDO>
F 3

$$$$
=
 OpenBabel10272413263D

 32 37  0  0  1  0  0  0  0  0999 V2000
  191.1560  176.8270  138.6520 C   0  0  0  0  0  2  0  0  0  0  0  0
  188.6350  177.5940  143.0550 C   0  0  0  0  0  0  0  0  0  0  0  0
  191.9490  176.3590  146.3860 C   0  0  0  0  0  3  0  0  0  0  0  0
  190.9950  176.5390  147.3870 C   0  0  0  0  0  3  0  0  0  0  0  0
  186.3370  178.1840  143.6600 C   0  0  0  0  0  0  0  0  0  0  0  0
  186.0380  178.3910  142.2990 C   0  0  0  0  0  0  0  0  0  0  0  0
  189.2830  177.6330  140.6990 C   0  0  0  0  0  0  0  0  0  0  0  0
  190.8710  177.0210  142.3800 N   0  0  0  0  0  0  0  0  0  0  0  0
  184.0280  178.7810  144.1960 C   0  0  0  0  0  0  0  0  0  0  0  0
  191.6810  177.0720  140.0600 C   0  0  0  0  0  2  0  0  0  0  0  0
  191.6070  176.5750  145.0490 C   0  0  0  0  0  3  0  0  0  0  0  0
  189.9520  177.1910  143.3700 C   0  0  0  0  0  0  0  0  0  0  0  0
  190.3050  176.9730  144.7030 C   0  0  0  0  0  0  0  0  0  0  0  0
  188.0390  177.5530  145.3680 C   0  0  0  0  0  0  0  0  0  0  0  0
  183.7530  178.9800  142.8440 C   0  0  0  0  0  3  0  0  0  0  0  0
  190.5750  177.2120  141.0700 C   0  0  0  0  0  0  0  0  0  0  0  0
  184.7590  178.7850  141.8950 C   0  0  0  0  0  3  0  0  0  0  0  0
  188.8910  177.8000  139.2520 C   0  0  0  0  0  2  0  0  0  0  0  0
  190.1040  177.8830  138.3150 C   0  0  2  0  0  3  0  0  0  0  0  0
  189.6970  176.9350  147.0530 C   0  0  0  0  0  3  0  0  0  0  0  0
  189.3420  177.1550  145.7110 C   0  0  0  0  0  0  0  0  0  0  0  0
  187.1970  177.7070  146.2980 O   0  0  0  0  0  0  0  0  0  0  0  0
  188.3150  177.8110  141.6970 C   0  0  0  0  0  0  0  0  0  0  0  0
  187.0250  178.2020  141.3390 O   0  0  0  0  0  0  0  0  0  0  0  0
  182.9620  178.9880  145.2100 C   0  0  0  0  0  1  0  0  0  0  0  0
  187.6880  177.7710  144.0470 N   0  0  0  0  0  0  0  0  0  0  0  0
  185.3060  178.3880  144.5980 C   0  0  0  0  0  3  0  0  0  0  0  0
  189.7450  177.8980  136.9500 O   0  0  0  0  0  0  0  0  0  0  0  0
  189.4700  176.5850  136.5290 C   0  0  0  0  0  2  0  0  0  0  0  0
  188.1970  176.5630  135.7610 C   0  0  0  0  0  0  0  0  0  0  0  0
  187.1110  177.3120  136.1940 O   0  0  0  0  0  1  0  0  0  0  0  0
  188.1160  175.8960  134.6970 O   0  0  0  0  0  0  0  0  0  0  0  0
  1 10  1  0  0  0  0
  2 12  1  0  0  0  0
  2 26  1  0  0  0  0
  3  4  1  0  0  0  0
  5 26  1  0  0  0  0
  5 27  1  0  0  0  0
  6  5  2  0  0  0  0
  7 16  2  0  0  0  0
  7 23  1  0  0  0  0
  8 12  2  0  0  0  0
  9 27  2  0  0  0  0
  9 25  1  0  0  0  0
 10 16  1  0  0  0  0
 11  3  2  0  0  0  0
 12 13  1  0  0  0  0
 13 11  1  0  0  0  0
 13 21  2  0  0  0  0
 14 21  1  0  0  0  0
 14 22  2  0  0  0  0
 15  9  1  0  0  0  0
 16  8  1  0  0  0  0
 17  6  1  0  0  0  0
 17 15  2  0  0  0  0
 18  7  1  0  0  0  0
 19 28  1  6  0  0  0
 19  1  1  0  0  0  0
 19 18  1  0  0  0  0
 20  4  2  0  0  0  0
 21 20  1  0  0  0  0
 23  2  2  0  0  0  0
 24 23  1  0  0  0  0
 24  6  1  0  0  0  0
 26 14  1  0  0  0  0
 29 28  1  0  0  0  0
 30 31  1  0  0  0  0
 30 29  1  0  0  0  0
 32 30  2  0  0  0  0
M  END
>  <MODEL>
4

>  <REMARK>
 VINA RESULT:     -10.9      1.507      2.112
  Name = 
  3 active torsions:
  status: ('A' for Active; 'I' for Inactive)
    1  A    between atoms: C_1  and  C_10
    2  A    between atoms: C_10  and  O_19
    3  A    between atoms: O_19  and  C_24
                            x       y       z     vdW  Elec       q    Type
                         _______ _______ _______ _____ _____    ______ ____

>  <TORSDO>
F 3

$$$$
=
 OpenBabel10272413263D

 32 37  0  0  1  0  0  0  0  0999 V2000
  188.6860  178.2800  137.5240 C   0  0  0  0  0  2  0  0  0  0  0  0
  187.8320  177.8340  142.5640 C   0  0  0  0  0  0  0  0  0  0  0  0
  183.1450  179.0590  142.9430 C   0  0  0  0  0  3  0  0  0  0  0  0
  183.2450  178.9700  144.3310 C   0  0  0  0  0  3  0  0  0  0  0  0
  189.2230  177.3830  144.5270 C   0  0  0  0  0  0  0  0  0  0  0  0
  190.3230  177.1300  143.6830 C   0  0  0  0  0  0  0  0  0  0  0  0
  188.8330  177.6570  140.3420 C   0  0  0  0  0  0  0  0  0  0  0  0
  186.5330  178.2690  140.5870 N   0  0  0  0  0  0  0  0  0  0  0  0
  190.6670  176.9230  146.4450 C   0  0  0  0  0  0  0  0  0  0  0  0
  187.3860  178.0730  138.2900 C   0  0  0  0  0  2  0  0  0  0  0  0
  184.2620  178.7990  142.1450 C   0  0  0  0  0  3  0  0  0  0  0  0
  186.6130  178.1880  141.9440 C   0  0  0  0  0  0  0  0  0  0  0  0
  185.4900  178.4490  142.7310 C   0  0  0  0  0  0  0  0  0  0  0  0
  186.8190  178.0090  144.7200 C   0  0  0  0  0  0  0  0  0  0  0  0
  191.7420  176.6760  145.5920 C   0  0  0  0  0  3  0  0  0  0  0  0
  187.5970  178.0320  139.7790 C   0  0  0  0  0  0  0  0  0  0  0  0
  191.5690  176.7800  144.2100 C   0  0  0  0  0  3  0  0  0  0  0  0
  190.0570  177.4440  139.4870 C   0  0  0  0  0  2  0  0  0  0  0  0
  189.7200  177.2610  138.0020 C   0  0  2  0  0  3  0  0  0  0  0  0
  184.4620  178.6220  144.9240 C   0  0  0  0  0  3  0  0  0  0  0  0
  185.5920  178.3590  144.1310 C   0  0  0  0  0  0  0  0  0  0  0  0
  186.8770  177.9380  145.9800 O   0  0  0  0  0  0  0  0  0  0  0  0
  188.9450  177.5720  141.7360 C   0  0  0  0  0  0  0  0  0  0  0  0
  190.1710  177.2270  142.3050 O   0  0  0  0  0  0  0  0  0  0  0  0
  190.8460  176.8130  147.9160 C   0  0  0  0  0  1  0  0  0  0  0  0
  187.9320  177.7480  143.9410 N   0  0  0  0  0  0  0  0  0  0  0  0
  189.4230  177.2720  145.9170 C   0  0  0  0  0  3  0  0  0  0  0  0
  190.8660  177.2020  137.1790 O   0  0  0  0  0  0  0  0  0  0  0  0
  191.6680  176.1200  137.5800 C   0  0  0  0  0  2  0  0  0  0  0  0
  193.0660  176.5820  137.7860 C   0  0  0  0  0  0  0  0  0  0  0  0
  193.4940  176.9590  139.0510 O   0  0  0  0  0  1  0  0  0  0  0  0
  193.8720  176.5950  136.8200 O   0  0  0  0  0  0  0  0  0  0  0  0
  1 19  1  0  0  0  0
  1 10  1  0  0  0  0
  2 26  1  0  0  0  0
  3  4  1  0  0  0  0
  4 20  2  0  0  0  0
  5 27  1  0  0  0  0
  6 17  1  0  0  0  0
  6  5  2  0  0  0  0
  7 23  1  0  0  0  0
  8 12  2  0  0  0  0
  9 25  1  0  0  0  0
 10 16  1  0  0  0  0
 11 13  1  0  0  0  0
 11  3  2  0  0  0  0
 12  2  1  0  0  0  0
 12 13  1  0  0  0  0
 13 21  2  0  0  0  0
 14 22  2  0  0  0  0
 15  9  1  0  0  0  0
 16  7  2  0  0  0  0
 16  8  1  0  0  0  0
 17 15  2  0  0  0  0
 18  7  1  0  0  0  0
 19 28  1  6  0  0  0
 19 18  1  0  0  0  0
 21 14  1  0  0  0  0
 21 20  1  0  0  0  0
 23 24  1  0  0  0  0
 23  2  2  0  0  0  0
 24  6  1  0  0  0  0
 26  5  1  0  0  0  0
 26 14  1  0  0  0  0
 27  9  2  0  0  0  0
 28 29  1  0  0  0  0
 29 30  1  0  0  0  0
 30 31  1  0  0  0  0
 32 30  2  0  0  0  0
M  END
>  <MODEL>
5

>  <REMARK>
 VINA RESULT:     -10.8      2.055      5.411
  Name = 
  3 active torsions:
  status: ('A' for Active; 'I' for Inactive)
    1  A    between atoms: C_1  and  C_10
    2  A    between atoms: C_10  and  O_19
    3  A    between atoms: O_19  and  C_24
                            x       y       z     vdW  Elec       q    Type
                         _______ _______ _______ _____ _____    ______ ____

>  <TORSDO>
F 3

$$$$
=
 OpenBabel10272413263D

 32 37  0  0  1  0  0  0  0  0999 V2000
  188.7810  178.2530  138.2550 C   0  0  0  0  0  2  0  0  0  0  0  0
  186.6570  178.1320  142.9250 C   0  0  0  0  0  0  0  0  0  0  0  0
  181.9930  179.1120  141.9780 C   0  0  0  0  0  3  0  0  0  0  0  0
  181.7310  179.1320  143.3480 C   0  0  0  0  0  3  0  0  0  0  0  0
  187.5030  177.9070  145.2100 C   0  0  0  0  0  0  0  0  0  0  0  0
  188.7930  177.6550  144.7030 C   0  0  0  0  0  0  0  0  0  0  0  0
  188.2090  177.8500  141.0580 C   0  0  0  0  0  0  0  0  0  0  0  0
  185.9050  178.3450  140.6500 N   0  0  0  0  0  0  0  0  0  0  0  0
  188.4120  177.6720  147.4680 C   0  0  0  0  0  0  0  0  0  0  0  0
  187.3340  178.0300  138.6750 C   0  0  0  0  0  2  0  0  0  0  0  0
  183.2890  178.8590  141.5200 C   0  0  0  0  0  3  0  0  0  0  0  0
  185.6300  178.3690  141.9830 C   0  0  0  0  0  0  0  0  0  0  0  0
  184.3320  178.6230  142.4290 C   0  0  0  0  0  0  0  0  0  0  0  0
  185.1110  178.4070  144.7240 C   0  0  0  0  0  0  0  0  0  0  0  0
  189.6800  177.4250  146.9440 C   0  0  0  0  0  3  0  0  0  0  0  0
  187.1510  178.1110  140.1660 C   0  0  0  0  0  0  0  0  0  0  0  0
  189.8700  177.4170  145.5610 C   0  0  0  0  0  3  0  0  0  0  0  0
  189.6210  177.6450  140.5690 C   0  0  0  0  0  2  0  0  0  0  0  0
  189.6900  177.3330  139.0680 C   0  0  2  0  0  3  0  0  0  0  0  0
  182.7620  178.8980  144.2610 C   0  0  0  0  0  3  0  0  0  0  0  0
  184.0690  178.6420  143.8110 C   0  0  0  0  0  0  0  0  0  0  0  0
  184.8410  178.4320  145.9580 O   0  0  0  0  0  0  0  0  0  0  0  0
  187.9570  177.8740  142.4370 C   0  0  0  0  0  0  0  0  0  0  0  0
  189.0040  177.6420  143.3290 O   0  0  0  0  0  0  0  0  0  0  0  0
  188.2040  177.6820  148.9390 C   0  0  0  0  0  1  0  0  0  0  0  0
  186.3970  178.1540  144.2830 N   0  0  0  0  0  0  0  0  0  0  0  0
  187.3370  177.9100  146.6090 C   0  0  0  0  0  3  0  0  0  0  0  0
  191.0130  177.2790  138.5760 O   0  0  0  0  0  0  0  0  0  0  0  0
  191.9100  177.2890  139.6580 C   0  0  0  0  0  2  0  0  0  0  0  0
  193.2730  176.9400  139.1810 C   0  0  0  0  0  0  0  0  0  0  0  0
  193.5030  176.7270  137.8280 O   0  0  0  0  0  0  0  0  0  0  0  0
  194.2290  176.8760  139.9980 O   0  0  0  0  0  1  0  0  0  0  0  0
  1 10  1  0  0  0  0
  1 19  1  0  0  0  0
  2 26  1  0  0  0  0
  3  4  1  0  0  0  0
  4 20  2  0  0  0  0
  5 27  1  0  0  0  0
  6  5  2  0  0  0  0
  6 17  1  0  0  0  0
  7 23  2  0  0  0  0
  8 12  1  0  0  0  0
  9 25  1  0  0  0  0
 10 16  1  0  0  0  0
 11  3  2  0  0  0  0
 11 13  1  0  0  0  0
 12 13  1  0  0  0  0
 12  2  2  0  0  0  0
 13 21  2  0  0  0  0
 14 22  2  0  0  0  0
 15  9  1  0  0  0  0
 16  8  2  0  0  0  0
 16  7  1  0  0  0  0
 17 15  2  0  0  0  0
 18  7  1  0  0  0  0
 19 28  1  6  0  0  0
 19 18  1  0  0  0  0
 21 20  1  0  0  0  0
 21 14  1  0  0  0  0
 23  2  1  0  0  0  0
 23 24  1  0  0  0  0
 24  6  1  0  0  0  0
 26 14  1  0  0  0  0
 26  5  1  0  0  0  0
 27  9  2  0  0  0  0
 28 29  1  0  0  0  0
 30 29  1  0  0  0  0
 30 32  1  0  0  0  0
 31 30  2  0  0  0  0
M  END
>  <MODEL>
6

>  <REMARK>
 VINA RESULT:     -10.6      1.729      5.252
  Name = 
  3 active torsions:
  status: ('A' for Active; 'I' for Inactive)
    1  A    between atoms: C_1  and  C_10
    2  A    between atoms: C_10  and  O_19
    3  A    between atoms: O_19  and  C_24
                            x       y       z     vdW  Elec       q    Type
                         _______ _______ _______ _____ _____    ______ ____

>  <TORSDO>
F 3

$$$$
=
 OpenBabel10272413263D

 32 37  0  0  1  0  0  0  0  0999 V2000
  188.7120  177.2270  146.7460 C   0  0  0  0  0  2  0  0  0  0  0  0
  186.3080  178.2870  142.3390 C   0  0  0  0  0  0  0  0  0  0  0  0
  181.7210  178.9720  143.7880 C   0  0  0  0  0  3  0  0  0  0  0  0
  181.3310  179.1040  142.4550 C   0  0  0  0  0  3  0  0  0  0  0  0
  186.9430  178.2980  139.9750 C   0  0  0  0  0  0  0  0  0  0  0  0
  188.2820  178.0570  140.3380 C   0  0  0  0  0  0  0  0  0  0  0  0
  188.0400  177.9250  144.0240 C   0  0  0  0  0  0  0  0  0  0  0  0
  185.7640  178.2550  144.6810 N   0  0  0  0  0  0  0  0  0  0  0  0
  187.6420  178.2940  137.6320 C   0  0  0  0  0  0  0  0  0  0  0  0
  187.4040  177.9630  146.4880 C   0  0  0  0  0  2  0  0  0  0  0  0
  183.0610  178.7330  144.1020 C   0  0  0  0  0  3  0  0  0  0  0  0
  185.3650  178.3870  143.3860 C   0  0  0  0  0  0  0  0  0  0  0  0
  184.0230  178.6250  143.0840 C   0  0  0  0  0  0  0  0  0  0  0  0
  184.5910  178.6510  140.7190 C   0  0  0  0  0  0  0  0  0  0  0  0
  188.9620  178.0560  138.0140 C   0  0  0  0  0  3  0  0  0  0  0  0
  187.0540  178.0150  145.0260 C   0  0  0  0  0  0  0  0  0  0  0  0
  189.2810  177.9380  139.3680 C   0  0  0  0  0  3  0  0  0  0  0  0
  189.4750  177.5990  144.3560 C   0  0  0  0  0  2  0  0  0  0  0  0
  189.8010  177.8020  145.8410 C   0  0  2  0  0  3  0  0  0  0  0  0
  182.2800  178.9990  141.4350 C   0  0  0  0  0  3  0  0  0  0  0  0
  183.6320  178.7590  141.7400 C   0  0  0  0  0  0  0  0  0  0  0  0
  184.2060  178.7760  139.5220 O   0  0  0  0  0  0  0  0  0  0  0  0
  187.6570  178.0510  142.6820 C   0  0  0  0  0  0  0  0  0  0  0  0
  188.6220  177.9370  141.6810 O   0  0  0  0  0  0  0  0  0  0  0  0
  187.2960  178.4210  136.1920 C   0  0  0  0  0  1  0  0  0  0  0  0
  185.9210  178.4160  141.0170 N   0  0  0  0  0  0  0  0  0  0  0  0
  186.6450  178.4130  138.6020 C   0  0  0  0  0  3  0  0  0  0  0  0
  191.0990  177.3660  146.1850 O   0  0  0  0  0  0  0  0  0  0  0  0
  191.0180  176.4880  147.2790 C   0  0  0  0  0  2  0  0  0  0  0  0
  192.3350  175.8310  147.4920 C   0  0  0  0  0  0  0  0  0  0  0  0
  193.1070  176.1630  148.5970 O   0  0  0  0  0  1  0  0  0  0  0  0
  192.7320  174.9440  146.6920 O   0  0  0  0  0  0  0  0  0  0  0  0
  2 23  2  0  0  0  0
  2 12  1  0  0  0  0
  3 11  1  0  0  0  0
  4  3  2  0  0  0  0
  5  6  1  0  0  0  0
  5 26  1  0  0  0  0
  6 24  1  0  0  0  0
  7 18  1  0  0  0  0
  7 16  2  0  0  0  0
  8 16  1  0  0  0  0
  9 15  2  0  0  0  0
  9 27  1  0  0  0  0
 10  1  1  0  0  0  0
 12  8  2  0  0  0  0
 13 12  1  0  0  0  0
 13 11  2  0  0  0  0
 14 26  1  0  0  0  0
 14 21  1  0  0  0  0
 15 17  1  0  0  0  0
 16 10  1  0  0  0  0
 17  6  2  0  0  0  0
 18 19  1  0  0  0  0
 19 28  1  1  0  0  0
 19  1  1  0  0  0  0
 20 21  2  0  0  0  0
 20  4  1  0  0  0  0
 21 13  1  0  0  0  0
 22 14  2  0  0  0  0
 23  7  1  0  0  0  0
 24 23  1  0  0  0  0
 25  9  1  0  0  0  0
 26  2  1  0  0  0  0
 27  5  2  0  0  0  0
 28 29  1  0  0  0  0
 29 30  1  0  0  0  0
 30 31  1  0  0  0  0
 32 30  2  0  0  0  0
M  END
>  <MODEL>
7

>  <REMARK>
 VINA RESULT:     -10.5      2.836      7.120
  Name = 
  3 active torsions:
  status: ('A' for Active; 'I' for Inactive)
    1  A    between atoms: C_1  and  C_10
    2  A    between atoms: C_10  and  O_19
    3  A    between atoms: O_19  and  C_24
                            x       y       z     vdW  Elec       q    Type
                         _______ _______ _______ _____ _____    ______ ____

>  <TORSDO>
F 3

$$$$
=
 OpenBabel10272413263D

 32 37  0  0  1  0  0  0  0  0999 V2000
  191.4630  177.8920  144.6300 C   0  0  0  0  0  2  0  0  0  0  0  0
  187.1490  178.1860  141.8670 C   0  0  0  0  0  0  0  0  0  0  0  0
  188.8200  178.0720  137.3060 C   0  0  0  0  0  3  0  0  0  0  0  0
  187.5230  178.2810  136.8370 C   0  0  0  0  0  3  0  0  0  0  0  0
  184.7810  178.5310  142.3790 C   0  0  0  0  0  0  0  0  0  0  0  0
  185.0710  178.4470  143.7550 C   0  0  0  0  0  0  0  0  0  0  0  0
  188.7240  177.8840  143.7120 C   0  0  0  0  0  0  0  0  0  0  0  0
  189.4930  177.8490  141.4470 N   0  0  0  0  0  0  0  0  0  0  0  0
  182.4310  178.8750  142.9580 C   0  0  0  0  0  0  0  0  0  0  0  0
  191.1810  177.4730  143.1930 C   0  0  0  0  0  2  0  0  0  0  0  0
  189.0610  177.9960  138.6800 C   0  0  0  0  0  3  0  0  0  0  0  0
  188.2340  178.0530  140.9710 C   0  0  0  0  0  0  0  0  0  0  0  0
  188.0050  178.1280  139.5970 C   0  0  0  0  0  0  0  0  0  0  0  0
  185.6380  178.4710  140.0400 C   0  0  0  0  0  0  0  0  0  0  0  0
  182.7400  178.7870  144.3150 C   0  0  0  0  0  3  0  0  0  0  0  0
  189.7690  177.7770  142.7730 C   0  0  0  0  0  0  0  0  0  0  0  0
  184.0600  178.5730  144.7130 C   0  0  0  0  0  3  0  0  0  0  0  0
  188.9910  177.8710  145.1960 C   0  0  0  0  0  2  0  0  0  0  0  0
  190.3800  177.3200  145.5440 C   0  0  2  0  0  3  0  0  0  0  0  0
  186.4650  178.4140  137.7410 C   0  0  0  0  0  3  0  0  0  0  0  0
  186.6960  178.3380  139.1260 C   0  0  0  0  0  0  0  0  0  0  0  0
  184.4750  178.6590  139.5830 O   0  0  0  0  0  0  0  0  0  0  0  0
  187.4180  178.1000  143.2500 C   0  0  0  0  0  0  0  0  0  0  0  0
  186.3800  178.2330  144.1720 O   0  0  0  0  0  0  0  0  0  0  0  0
  181.0260  179.1020  142.5280 C   0  0  0  0  0  1  0  0  0  0  0  0
  185.8640  178.3950  141.4030 N   0  0  0  0  0  0  0  0  0  0  0  0
  183.4410  178.7480  142.0020 C   0  0  0  0  0  3  0  0  0  0  0  0
  190.6910  177.4350  146.9170 O   0  0  0  0  0  0  0  0  0  0  0  0
  190.8230  176.1510  147.4710 C   0  0  0  0  0  2  0  0  0  0  0  0
  192.2570  175.7630  147.5000 C   0  0  0  0  0  0  0  0  0  0  0  0
  193.0640  176.1640  148.5570 O   0  0  0  0  0  1  0  0  0  0  0  0
  192.7320  175.0380  146.5870 O   0  0  0  0  0  0  0  0  0  0  0  0
  1 19  1  0  0  0  0
  2 23  1  0  0  0  0
  3 11  1  0  0  0  0
  4  3  2  0  0  0  0
  4 20  1  0  0  0  0
  5  6  1  0  0  0  0
  6 24  1  0  0  0  0
  6 17  2  0  0  0  0
  7 18  1  0  0  0  0
  8 16  2  0  0  0  0
  9 15  2  0  0  0  0
 10  1  1  0  0  0  0
 11 13  2  0  0  0  0
 12  8  1  0  0  0  0
 12  2  2  0  0  0  0
 13 12  1  0  0  0  0
 14 26  1  0  0  0  0
 15 17  1  0  0  0  0
 16 10  1  0  0  0  0
 16  7  1  0  0  0  0
 18 19  1  0  0  0  0
 19 28  1  1  0  0  0
 20 21  2  0  0  0  0
 21 13  1  0  0  0  0
 21 14  1  0  0  0  0
 22 14  2  0  0  0  0
 23  7  2  0  0  0  0
 23 24  1  0  0  0  0
 25  9  1  0  0  0  0
 26  2  1  0  0  0  0
 26  5  1  0  0  0  0
 27  5  2  0  0  0  0
 27  9  1  0  0  0  0
 28 29  1  0  0  0  0
 29 30  1  0  0  0  0
 30 31  1  0  0  0  0
 32 30  2  0  0  0  0
M  END
>  <MODEL>
8

>  <REMARK>
 VINA RESULT:     -10.1      2.873      6.648
  Name = 
  3 active torsions:
  status: ('A' for Active; 'I' for Inactive)
    1  A    between atoms: C_1  and  C_10
    2  A    between atoms: C_10  and  O_19
    3  A    between atoms: O_19  and  C_24
                            x       y       z     vdW  Elec       q    Type
                         _______ _______ _______ _____ _____    ______ ____

>  <TORSDO>
F 3

$$$$
=
 OpenBabel10272413263D

 32 37  0  0  1  0  0  0  0  0999 V2000
  183.0540  178.6870  139.1250 C   0  0  0  0  0  2  0  0  0  0  0  0
  187.1130  178.1580  142.2200 C   0  0  0  0  0  0  0  0  0  0  0  0
  190.7590  177.5470  139.0670 C   0  0  0  0  0  3  0  0  0  0  0  0
  191.6290  177.3220  140.1340 C   0  0  0  0  0  3  0  0  0  0  0  0
  187.4390  177.9800  144.6390 C   0  0  0  0  0  0  0  0  0  0  0  0
  186.0710  178.2520  144.8390 C   0  0  0  0  0  0  0  0  0  0  0  0
  184.8810  178.6650  141.3640 C   0  0  0  0  0  0  0  0  0  0  0  0
  186.7090  178.3430  139.8560 N   0  0  0  0  0  0  0  0  0  0  0  0
  187.6970  177.8130  147.0640 C   0  0  0  0  0  0  0  0  0  0  0  0
  184.5370  178.9040  138.8540 C   0  0  0  0  0  2  0  0  0  0  0  0
  189.4090  177.8130  139.3120 C   0  0  0  0  0  3  0  0  0  0  0  0
  187.5730  178.1190  140.8850 C   0  0  0  0  0  0  0  0  0  0  0  0
  188.9190  177.8550  140.6280 C   0  0  0  0  0  0  0  0  0  0  0  0
  189.3090  177.6690  143.0220 C   0  0  0  0  0  0  0  0  0  0  0  0
  186.3400  178.0840  147.2390 C   0  0  0  0  0  3  0  0  0  0  0  0
  185.3910  178.5960  140.0520 C   0  0  0  0  0  0  0  0  0  0  0  0
  185.5270  178.3040  146.1260 C   0  0  0  0  0  3  0  0  0  0  0  0
  183.4120  178.8830  141.6280 C   0  0  0  0  0  2  0  0  0  0  0  0
  182.6620  179.4250  140.4050 C   0  0  2  0  0  3  0  0  0  0  0  0
  191.1510  177.3620  141.4460 C   0  0  0  0  0  3  0  0  0  0  0  0
  189.7960  177.6280  141.7040 C   0  0  0  0  0  0  0  0  0  0  0  0
  190.1220  177.4600  143.9660 O   0  0  0  0  0  0  0  0  0  0  0  0
  185.7460  178.4330  142.4420 C   0  0  0  0  0  0  0  0  0  0  0  0
  185.2450  178.4740  143.7430 O   0  0  0  0  0  0  0  0  0  0  0  0
  188.5660  177.5790  148.2470 C   0  0  0  0  0  1  0  0  0  0  0  0
  187.9750  177.9320  143.2780 N   0  0  0  0  0  0  0  0  0  0  0  0
  188.2380  177.7620  145.7790 C   0  0  0  0  0  3  0  0  0  0  0  0
  181.2660  179.4990  140.6010 O   0  0  0  0  0  0  0  0  0  0  0  0
  180.9080  178.6830  141.6870 C   0  0  0  0  0  2  0  0  0  0  0  0
  180.2770  179.5110  142.7480 C   0  0  0  0  0  0  0  0  0  0  0  0
  180.0070  178.9580  143.9930 O   0  0  0  0  0  1  0  0  0  0  0  0
  180.0240  180.7250  142.5320 O   0  0  0  0  0  0  0  0  0  0  0  0
  1 19  1  0  0  0  0
  2 23  1  0  0  0  0
  2 26  1  0  0  0  0
  3 11  2  0  0  0  0
  3  4  1  0  0  0  0
  4 20  2  0  0  0  0
  5  6  2  0  0  0  0
  5 27  1  0  0  0  0
  6 17  1  0  0  0  0
  7 18  1  0  0  0  0
  7 23  2  0  0  0  0
  8 16  2  0  0  0  0
  8 12  1  0  0  0  0
  9 15  1  0  0  0  0
  9 25  1  0  0  0  0
 10  1  1  0  0  0  0
 10 16  1  0  0  0  0
 11 13  1  0  0  0  0
 12  2  2  0  0  0  0
 13 12  1  0  0  0  0
 13 21  2  0  0  0  0
 14 26  1  0  0  0  0
 14 22  2  0  0  0  0
 16  7  1  0  0  0  0
 17 15  2  0  0  0  0
 19 28  1  1  0  0  0
 19 18  1  0  0  0  0
 20 21  1  0  0  0  0
 21 14  1  0  0  0  0
 23 24  1  0  0  0  0
 24  6  1  0  0  0  0
 26  5  1  0  0  0  0
 27  9  2  0  0  0  0
 28 29  1  0  0  0  0
 29 30  1  0  0  0  0
 30 31  1  0  0  0  0
 32 30  2  0  0  0  0
M  END
>  <MODEL>
9

>  <REMARK>
 VINA RESULT:      -9.9      2.650      6.576
  Name = 
  3 active torsions:
  status: ('A' for Active; 'I' for Inactive)
    1  A    between atoms: C_1  and  C_10
    2  A    between atoms: C_10  and  O_19
    3  A    between atoms: O_19  and  C_24
                            x       y       z     vdW  Elec       q    Type
                         _______ _______ _______ _____ _____    ______ ____

>  <TORSDO>
F 3

$$$$
