=
 OpenBabel10272413573D

 30 34  0  0  1  0  0  0  0  0999 V2000
  187.9060  177.5400  145.2150 C   0  0  0  0  0  0  0  0  0  0  0  0
  188.0250  177.9540  147.7400 C   0  0  0  0  0  3  0  0  0  0  0  0
  191.4570  176.2150  143.7190 C   0  0  0  0  0  2  0  0  0  0  0  0
  187.1170  177.6010  144.0280 C   0  0  0  0  0  0  0  0  0  0  0  0
  185.7890  178.1220  144.0820 C   0  0  0  0  0  0  0  0  0  0  0  0
  183.6170  178.7550  143.1380 C   0  0  0  0  0  3  0  0  0  0  0  0
  188.2970  178.8860  141.0390 C   0  0  0  0  0  2  0  0  0  0  0  0
  184.8920  178.2090  142.9690 C   0  0  0  0  0  0  0  0  0  0  0  0
  185.3220  178.5830  145.3390 C   0  0  0  0  0  0  0  0  0  0  0  0
  190.0920  177.2480  141.8690 C   0  0  2  0  0  3  0  0  0  0  0  0
  191.1760  177.4920  142.9340 C   0  0  2  0  0  3  0  0  0  0  0  0
  186.1060  178.5030  146.4390 N   0  0  0  0  0  0  0  0  0  0  0  0
  185.1860  177.7790  141.7470 C   0  0  0  0  0  1  0  0  0  0  0  0
  189.2590  177.5960  148.0770 C   0  0  0  0  0  2  0  0  0  0  0  0
  190.5850  177.4700  140.4290 C   0  0  0  0  0  2  0  0  0  0  0  0
  189.1730  175.9240  139.2640 O   0  0  0  0  0  1  0  0  0  0  0  0
  184.0420  179.1240  145.4760 C   0  0  0  0  0  3  0  0  0  0  0  0
  187.3640  178.0020  146.4290 C   0  0  0  0  0  0  0  0  0  0  0  0
  191.6100  176.5080  145.2190 C   0  0  0  0  0  2  0  0  0  0  0  0
  191.5820  176.9400  147.9160 O   0  0  0  0  0  1  0  0  0  0  0  0
  183.1920  179.2120  144.3810 C   0  0  0  0  0  3  0  0  0  0  0  0
  189.1450  177.0710  145.0780 C   0  0  0  0  0  3  0  0  0  0  0  0
  187.7210  177.1070  142.7230 C   0  0  0  0  0  2  0  0  0  0  0  0
  192.3650  177.9950  142.3980 O   0  0  0  0  0  1  0  0  0  0  0  0
  188.8150  178.0480  142.2100 C   0  0  2  0  0  3  0  0  0  0  0  0
  189.4580  177.2810  139.4110 C   0  0  1  0  0  3  0  0  0  0  0  0
  187.7900  178.8500  138.7010 O   0  0  0  0  0  1  0  0  0  0  0  0
  190.3780  177.1420  147.2460 C   0  0  0  0  0  0  0  0  0  0  0  0
  190.3310  176.9110  145.9270 C   0  0  0  0  0  0  0  0  0  0  0  0
  188.1710  178.0400  139.7700 C   0  0  2  0  0  3  0  0  0  0  0  0
  1 18  1  0  0  0  0
  2 14  1  0  0  0  0
  3 19  1  0  0  0  0
  4  5  2  0  0  0  0
  4  1  1  0  0  0  0
  5  9  1  0  0  0  0
  6 21  1  0  0  0  0
  8  6  2  0  0  0  0
  8  5  1  0  0  0  0
  9 17  1  0  0  0  0
  9 12  2  0  0  0  0
 10 15  1  6  0  0  0
 10 25  1  0  0  0  0
 10 11  1  0  0  0  0
 11 24  1  6  0  0  0
 11  3  1  0  0  0  0
 13  8  1  0  0  0  0
 18 12  1  0  0  0  0
 18  2  2  0  0  0  0
 19 29  1  0  0  0  0
 21 17  2  0  0  0  0
 22  1  2  0  0  0  0
 22 29  1  0  0  0  0
 23  4  1  0  0  0  0
 25  7  1  6  0  0  0
 25 23  1  0  0  0  0
 26 16  1  1  0  0  0
 26 30  1  0  0  0  0
 26 15  1  0  0  0  0
 28 20  1  0  0  0  0
 28 14  1  0  0  0  0
 29 28  2  0  0  0  0
 30 27  1  6  0  0  0
 30  7  1  0  0  0  0
M  END
>  <MODEL>
1

>  <REMARK>
 VINA RESULT:     -13.1      0.000      0.000
  Name = 
  0 active torsions:
  status: ('A' for Active; 'I' for Inactive)
                            x       y       z     vdW  Elec       q    Type
                         _______ _______ _______ _____ _____    ______ ____

>  <TORSDO>
F 0

$$$$
=
 OpenBabel10272413573D

 30 34  0  0  1  0  0  0  0  0999 V2000
  186.4340  178.0220  142.5060 C   0  0  0  0  0  0  0  0  0  0  0  0
  184.8050  179.0620  140.8260 C   0  0  0  0  0  3  0  0  0  0  0  0
  184.9000  177.9610  146.2800 C   0  0  0  0  0  2  0  0  0  0  0  0
  187.7240  177.4540  142.7280 C   0  0  0  0  0  0  0  0  0  0  0  0
  188.6610  177.3740  141.6540 C   0  0  0  0  0  0  0  0  0  0  0  0
  190.8100  176.7940  140.6260 C   0  0  0  0  0  3  0  0  0  0  0  0
  189.7380  178.3250  145.4050 C   0  0  0  0  0  2  0  0  0  0  0  0
  189.9710  176.8020  141.7440 C   0  0  0  0  0  0  0  0  0  0  0  0
  188.2580  177.8970  140.3990 C   0  0  0  0  0  0  0  0  0  0  0  0
  187.4150  177.8410  146.3870 C   0  0  2  0  0  3  0  0  0  0  0  0
  186.1880  178.7680  146.4150 C   0  0  2  0  0  3  0  0  0  0  0  0
  187.0230  178.4240  140.2350 N   0  0  0  0  0  0  0  0  0  0  0  0
  190.4590  176.2440  142.8450 C   0  0  0  0  0  1  0  0  0  0  0  0
  183.7220  179.3430  141.5440 C   0  0  0  0  0  2  0  0  0  0  0  0
  188.2450  177.8810  147.6810 C   0  0  0  0  0  2  0  0  0  0  0  0
  189.1270  175.6530  147.6800 O   0  0  0  0  0  1  0  0  0  0  0  0
  189.1190  177.8740  139.3000 C   0  0  0  0  0  3  0  0  0  0  0  0
  186.1040  178.5040  141.2260 C   0  0  0  0  0  0  0  0  0  0  0  0
  183.9080  178.6540  145.3350 C   0  0  0  0  0  2  0  0  0  0  0  0
  182.2480  179.6920  143.4290 O   0  0  0  0  0  1  0  0  0  0  0  0
  190.3910  177.3260  139.4110 C   0  0  0  0  0  3  0  0  0  0  0  0
  185.6290  178.0910  143.5640 C   0  0  0  0  0  3  0  0  0  0  0  0
  188.0700  176.9480  144.1190 C   0  0  0  0  0  2  0  0  0  0  0  0
  186.1330  179.5670  147.5600 O   0  0  0  0  0  1  0  0  0  0  0  0
  188.2530  178.0960  145.1140 C   0  0  2  0  0  3  0  0  0  0  0  0
  189.4890  176.9960  147.5820 C   0  0  1  0  0  3  0  0  0  0  0  0
  191.6260  177.5020  146.6210 O   0  0  0  0  0  1  0  0  0  0  0  0
  183.4730  179.2030  142.9810 C   0  0  0  0  0  0  0  0  0  0  0  0
  184.3090  178.6530  143.8720 C   0  0  0  0  0  0  0  0  0  0  0  0
  190.3010  177.2160  146.2970 C   0  0  2  0  0  3  0  0  0  0  0  0
  1  4  1  0  0  0  0
  1 22  2  0  0  0  0
  2 18  2  0  0  0  0
  2 14  1  0  0  0  0
  3 11  1  0  0  0  0
  4 23  1  0  0  0  0
  5  8  1  0  0  0  0
  5  4  2  0  0  0  0
  6  8  2  0  0  0  0
  7 30  1  0  0  0  0
  8 13  1  0  0  0  0
  9  5  1  0  0  0  0
 10 11  1  0  0  0  0
 10 15  1  1  0  0  0
 11 24  1  1  0  0  0
 12  9  2  0  0  0  0
 12 18  1  0  0  0  0
 14 28  1  0  0  0  0
 17 21  2  0  0  0  0
 17  9  1  0  0  0  0
 18  1  1  0  0  0  0
 19  3  1  0  0  0  0
 21  6  1  0  0  0  0
 22 29  1  0  0  0  0
 25 23  1  6  0  0  0
 25  7  1  0  0  0  0
 25 10  1  0  0  0  0
 26 16  1  6  0  0  0
 26 15  1  0  0  0  0
 28 20  1  0  0  0  0
 28 29  2  0  0  0  0
 29 19  1  0  0  0  0
 30 27  1  1  0  0  0
 30 26  1  0  0  0  0
M  END
>  <MODEL>
2

>  <REMARK>
 VINA RESULT:     -11.7      2.579      6.789
  Name = 
  0 active torsions:
  status: ('A' for Active; 'I' for Inactive)
                            x       y       z     vdW  Elec       q    Type
                         _______ _______ _______ _____ _____    ______ ____

>  <TORSDO>
F 0

$$$$
=
 OpenBabel10272413573D

 30 34  0  0  1  0  0  0  0  0999 V2000
  186.0000  178.0970  144.8410 C   0  0  0  0  0  0  0  0  0  0  0  0
  185.2510  178.7450  147.2030 C   0  0  0  0  0  3  0  0  0  0  0  0
  189.9270  177.0140  144.7290 C   0  0  0  0  0  2  0  0  0  0  0  0
  185.6440  177.9700  143.4650 C   0  0  0  0  0  0  0  0  0  0  0  0
  184.3400  178.3550  143.0290 C   0  0  0  0  0  0  0  0  0  0  0  0
  182.5630  178.6750  141.3700 C   0  0  0  0  0  3  0  0  0  0  0  0
  187.6530  179.0960  140.8820 C   0  0  0  0  0  2  0  0  0  0  0  0
  183.8570  178.2500  141.6840 C   0  0  0  0  0  0  0  0  0  0  0  0
  183.4550  178.8770  144.0060 C   0  0  0  0  0  0  0  0  0  0  0  0
  189.1810  177.7330  142.4310 C   0  0  2  0  0  3  0  0  0  0  0  0
  189.8340  178.1800  143.7500 C   0  0  2  0  0  3  0  0  0  0  0  0
  183.8360  178.9760  145.3000 N   0  0  0  0  0  0  0  0  0  0  0  0
  184.5650  177.7450  140.6820 C   0  0  0  0  0  1  0  0  0  0  0  0
  186.3270  178.5470  147.9580 C   0  0  0  0  0  2  0  0  0  0  0  0
  190.1040  177.8740  141.2100 C   0  0  0  0  0  2  0  0  0  0  0  0
  189.2630  176.0930  139.8440 O   0  0  0  0  0  1  0  0  0  0  0  0
  182.1680  179.2930  143.6610 C   0  0  0  0  0  3  0  0  0  0  0  0
  185.0580  178.6080  145.7530 C   0  0  0  0  0  0  0  0  0  0  0  0
  189.5560  177.4550  146.1530 C   0  0  0  0  0  2  0  0  0  0  0  0
  188.6110  178.1220  148.6280 O   0  0  0  0  0  1  0  0  0  0  0  0
  181.7220  179.1950  142.3480 C   0  0  0  0  0  3  0  0  0  0  0  0
  187.2440  177.7470  145.1640 C   0  0  0  0  0  3  0  0  0  0  0  0
  186.6760  177.4260  142.4900 C   0  0  0  0  0  2  0  0  0  0  0  0
  191.0960  178.7530  143.5680 O   0  0  0  0  0  1  0  0  0  0  0  0
  187.8110  178.4240  142.2470 C   0  0  2  0  0  3  0  0  0  0  0  0
  189.3910  177.4800  139.9140 C   0  0  1  0  0  3  0  0  0  0  0  0
  187.9490  178.7990  138.5270 O   0  0  0  0  0  1  0  0  0  0  0  0
  187.6850  178.1380  147.5880 C   0  0  0  0  0  0  0  0  0  0  0  0
  188.0910  177.7870  146.3610 C   0  0  0  0  0  0  0  0  0  0  0  0
  188.0100  178.1320  139.7490 C   0  0  2  0  0  3  0  0  0  0  0  0
  1 22  2  0  0  0  0
  1 18  1  0  0  0  0
  2 14  1  0  0  0  0
  3 19  1  0  0  0  0
  4  1  1  0  0  0  0
  5  4  2  0  0  0  0
  5  9  1  0  0  0  0
  6  8  2  0  0  0  0
  6 21  1  0  0  0  0
  8  5  1  0  0  0  0
  9 12  2  0  0  0  0
 10 15  1  6  0  0  0
 10 11  1  0  0  0  0
 11 24  1  6  0  0  0
 11  3  1  0  0  0  0
 12 18  1  0  0  0  0
 13  8  1  0  0  0  0
 17  9  1  0  0  0  0
 18  2  2  0  0  0  0
 19 29  1  0  0  0  0
 21 17  2  0  0  0  0
 22 29  1  0  0  0  0
 23  4  1  0  0  0  0
 25  7  1  6  0  0  0
 25 10  1  0  0  0  0
 25 23  1  0  0  0  0
 26 16  1  1  0  0  0
 26 15  1  0  0  0  0
 28 14  1  0  0  0  0
 28 20  1  0  0  0  0
 29 28  2  0  0  0  0
 30 27  1  6  0  0  0
 30 26  1  0  0  0  0
 30  7  1  0  0  0  0
M  END
>  <MODEL>
3

>  <REMARK>
 VINA RESULT:     -10.9      1.342      1.996
  Name = 
  0 active torsions:
  status: ('A' for Active; 'I' for Inactive)
                            x       y       z     vdW  Elec       q    Type
                         _______ _______ _______ _____ _____    ______ ____

>  <TORSDO>
F 0

$$$$
=
 OpenBabel10272413573D

 30 34  0  0  1  0  0  0  0  0999 V2000
  185.6810  178.5030  140.4990 C   0  0  0  0  0  0  0  0  0  0  0  0
  184.2030  178.2490  138.4230 C   0  0  0  0  0  3  0  0  0  0  0  0
  189.6430  178.2000  139.5980 C   0  0  0  0  0  2  0  0  0  0  0  0
  185.7370  178.6800  141.9130 C   0  0  0  0  0  0  0  0  0  0  0  0
  184.5290  178.7360  142.6730 C   0  0  0  0  0  0  0  0  0  0  0  0
  183.2110  178.9570  144.7290 C   0  0  0  0  0  3  0  0  0  0  0  0
  187.8190  176.8310  143.9690 C   0  0  0  0  0  2  0  0  0  0  0  0
  184.4540  178.9370  144.0890 C   0  0  0  0  0  0  0  0  0  0  0  0
  183.3090  178.5850  141.9650 C   0  0  0  0  0  0  0  0  0  0  0  0
  189.2860  177.6710  142.0360 C   0  0  2  0  0  3  0  0  0  0  0  0
  189.4070  177.0900  140.6170 C   0  0  2  0  0  3  0  0  0  0  0  0
  183.3050  178.4220  140.6230 N   0  0  0  0  0  0  0  0  0  0  0  0
  185.5130  179.1300  144.8650 C   0  0  0  0  0  1  0  0  0  0  0  0
  185.0630  178.1090  137.4190 C   0  0  0  0  0  3  0  0  0  0  0  0
  190.3780  177.1740  142.9980 C   0  0  0  0  0  2  0  0  0  0  0  0
  190.5460  179.0710  144.4530 O   0  0  0  0  0  1  0  0  0  0  0  0
  182.0830  178.6100  142.6330 C   0  0  0  0  0  3  0  0  0  0  0  0
  184.4290  178.3790  139.8690 C   0  0  2  0  0  3  0  0  0  0  0  0
  188.8090  177.9730  138.3280 C   0  0  0  0  0  2  0  0  0  0  0  0
  187.1180  177.7730  136.1910 O   0  0  0  0  0  1  0  0  0  0  0  0
  182.0320  178.7930  144.0100 C   0  0  0  0  0  3  0  0  0  0  0  0
  186.8500  178.4290  139.8660 C   0  0  0  0  0  3  0  0  0  0  0  0
  187.0970  178.8020  142.5820 C   0  0  0  0  0  2  0  0  0  0  0  0
  190.4070  176.1200  140.5070 O   0  0  0  0  0  1  0  0  0  0  0  0
  187.8540  177.4720  142.5790 C   0  0  2  0  0  3  0  0  0  0  0  0
  190.1800  177.7260  144.4120 C   0  0  1  0  0  3  0  0  0  0  0  0
  188.7650  176.9060  146.1650 O   0  0  0  0  0  1  0  0  0  0  0  0
  186.5260  178.0220  137.4260 C   0  0  0  0  0  0  0  0  0  0  0  0
  187.3140  178.1620  138.5000 C   0  0  0  0  0  0  0  0  0  0  0  0
  188.7450  177.5690  144.9380 C   0  0  2  0  0  3  0  0  0  0  0  0
  1  4  1  0  0  0  0
  3 11  1  0  0  0  0
  4 23  1  0  0  0  0
  4  5  2  0  0  0  0
  5  8  1  0  0  0  0
  7 30  1  0  0  0  0
  8  6  2  0  0  0  0
  8 13  1  0  0  0  0
  9 17  1  0  0  0  0
  9  5  1  0  0  0  0
 10 25  1  0  0  0  0
 10 15  1  1  0  0  0
 11 24  1  1  0  0  0
 11 10  1  0  0  0  0
 12  9  2  0  0  0  0
 14 28  1  0  0  0  0
 14  2  2  0  0  0  0
 15 26  1  0  0  0  0
 17 21  2  0  0  0  0
 18  2  1  6  0  0  0
 18  1  1  0  0  0  0
 18 12  1  0  0  0  0
 19 29  1  0  0  0  0
 19  3  1  0  0  0  0
 20 28  1  0  0  0  0
 21  6  1  0  0  0  0
 22  1  2  0  0  0  0
 25 23  1  1  0  0  0
 25  7  1  0  0  0  0
 26 16  1  6  0  0  0
 26 30  1  0  0  0  0
 28 29  2  0  0  0  0
 29 22  1  0  0  0  0
 30 27  1  1  0  0  0
M  END
>  <MODEL>
4

>  <REMARK>
 VINA RESULT:     -10.3      2.171      5.946
  Name = 
  0 active torsions:
  status: ('A' for Active; 'I' for Inactive)
                            x       y       z     vdW  Elec       q    Type
                         _______ _______ _______ _____ _____    ______ ____

>  <TORSDO>
F 0

$$$$
