=
 OpenBabel10272413573D

 30 34  0  0  1  0  0  0  0  0999 V2000
  190.5000  177.0070  139.8700 C   0  0  0  0  0  0  0  0  0  0  0  0
  188.8660  175.5850  136.5800 C   0  0  0  0  0  2  0  0  0  0  0  0
  187.9370  177.1300  136.4180 S   0  0  2  0  0  0  0  0  0  0  0  0
  190.9050  176.0110  138.8240 C   0  0  1  0  0  3  0  0  0  0  0  0
  191.3850  177.6560  140.5370 N   0  0  0  0  0  2  0  0  0  0  0  0
  190.3700  175.8020  136.4300 C   0  0  0  0  0  2  0  0  0  0  0  0
  190.8800  176.7500  137.4980 C   0  0  2  0  0  3  0  0  0  0  0  0
  189.0320  177.3290  139.9980 C   0  0  2  0  0  3  0  0  0  0  0  0
  187.4130  177.5390  138.1100 C   0  0  1  0  0  3  0  0  0  0  0  0
  186.6580  176.6750  135.7300 O   0  0  0  0  0  0  0  0  0  0  0  0
  192.2020  176.3240  138.0900 C   0  0  0  0  0  2  0  0  0  0  0  0
  188.5490  178.2170  138.8560 C   0  0  0  0  0  2  0  0  0  0  0  0
  188.6310  177.8300  141.3660 C   0  0  0  0  0  0  0  0  0  0  0  0
  188.9220  178.9750  141.6750 O   0  0  0  0  0  0  0  0  0  0  0  0
  187.9620  176.9390  142.3890 C   0  0  2  0  0  3  0  0  0  0  0  0
  188.0020  177.5620  143.7750 C   0  0  2  0  0  3  0  0  0  0  0  0
  188.8790  176.3640  143.4820 C   0  0  2  0  0  3  0  0  0  0  0  0
  185.9900  178.3340  144.9770 C   0  0  0  0  0  2  0  0  0  0  0  0
  186.8910  177.6390  145.9750 C   0  0  0  0  0  2  0  0  0  0  0  0
  186.7860  177.1140  144.5570 C   0  0  0  0  0  3  0  0  0  0  0  0
  190.3420  176.8160  143.4230 C   0  0  0  0  0  2  0  0  0  0  0  0
  191.4410  177.0750  145.6750 C   0  0  0  0  0  1  0  0  0  0  0  0
  191.5200  178.9560  144.0410 C   0  0  0  0  0  1  0  0  0  0  0  0
  190.7070  177.7810  144.5500 C   0  0  0  0  0  3  0  0  0  0  0  0
  186.2290  178.4890  138.0880 C   0  0  0  0  0  2  0  0  0  0  0  0
  185.1360  177.9410  138.8800 N   0  0  0  0  0  2  0  0  0  0  0  0
  184.6210  179.0040  139.7330 C   0  0  0  0  0  0  0  0  0  0  0  0
  184.3640  180.2470  139.1540 O   0  0  0  0  0  1  0  0  0  0  0  0
  183.8080  178.6050  140.9390 C   0  0  0  0  0  2  0  0  0  0  0  0
  185.2570  179.0670  141.0960 C   0  0  0  0  0  2  0  0  0  0  0  0
  1  8  1  0  0  0  0
  1  5  2  0  0  0  0
  3 10  2  6  0  0  0
  3  2  1  0  0  0  0
  3  9  1  0  0  0  0
  4 11  1  1  0  0  0
  4  1  1  0  0  0  0
  6  2  1  0  0  0  0
  7  6  1  6  0  0  0
  7 11  1  0  0  0  0
  7  4  1  0  0  0  0
  8 13  1  1  0  0  0
  9 25  1  6  0  0  0
  9 12  1  0  0  0  0
 12  8  1  0  0  0  0
 13 14  2  0  0  0  0
 15 13  1  6  0  0  0
 15 17  1  0  0  0  0
 15 16  1  0  0  0  0
 16 20  1  1  0  0  0
 17 21  1  6  0  0  0
 17 16  1  0  0  0  0
 18 19  1  0  0  0  0
 20 18  1  0  0  0  0
 20 19  1  0  0  0  0
 21 24  1  0  0  0  0
 23 24  1  0  0  0  0
 24 22  1  0  0  0  0
 25 26  1  0  0  0  0
 26 27  1  0  0  0  0
 27 29  1  0  0  0  0
 27 30  1  0  0  0  0
 28 27  1  0  0  0  0
 29 30  1  0  0  0  0
M  END
>  <MODEL>
1

>  <REMARK>
 VINA RESULT:      -8.1      0.000      0.000
  Name = 
  8 active torsions:
  status: ('A' for Active; 'I' for Inactive)
    1  A    between atoms: C_1  and  C_4
    2  A    between atoms: C_1  and  C_22
    3  A    between atoms: N_7  and  C_10
    4  A    between atoms: N_7  and  C_25
    5  A    between atoms: C_8  and  C_30
    6  A    between atoms: C_9  and  C_12
    7  A    between atoms: C_9  and  C_21
    8  A    between atoms: C_23  and  C_25
                            x       y       z     vdW  Elec       q    Type
                         _______ _______ _______ _____ _____    ______ ____

>  <TORSDO>
F 8

$$$$
=
 OpenBabel10272413573D

 30 34  0  0  1  0  0  0  0  0999 V2000
  190.2930  176.7260  141.1540 C   0  0  0  0  0  0  0  0  0  0  0  0
  188.3080  177.2030  137.7850 C   0  0  0  0  0  2  0  0  0  0  0  0
  187.4540  178.6130  138.5320 S   0  0  2  0  0  0  0  0  0  0  0  0
  190.5530  176.4080  139.7110 C   0  0  1  0  0  3  0  0  0  0  0  0
  191.2670  176.9370  141.9660 N   0  0  0  0  0  2  0  0  0  0  0  0
  189.8040  177.4610  137.6150 C   0  0  0  0  0  2  0  0  0  0  0  0
  190.4540  177.7240  138.9600 C   0  0  2  0  0  3  0  0  0  0  0  0
  188.8610  176.9400  141.5780 C   0  0  2  0  0  3  0  0  0  0  0  0
  187.1010  178.0950  140.2380 C   0  0  1  0  0  3  0  0  0  0  0  0
  186.0980  178.5800  137.8410 O   0  0  0  0  0  0  0  0  0  0  0  0
  191.7970  177.0500  139.1130 C   0  0  0  0  0  2  0  0  0  0  0  0
  188.3320  178.2900  141.1060 C   0  0  0  0  0  2  0  0  0  0  0  0
  188.6070  176.6690  143.0420 C   0  0  0  0  0  0  0  0  0  0  0  0
  188.1150  175.5980  143.3590 O   0  0  0  0  0  0  0  0  0  0  0  0
  188.8600  177.7080  144.1120 C   0  0  2  0  0  3  0  0  0  0  0  0
  188.4510  177.1980  145.4840 C   0  0  2  0  0  3  0  0  0  0  0  0
  187.6120  178.2660  144.8160 C   0  0  2  0  0  3  0  0  0  0  0  0
  189.8720  176.7600  147.4540 C   0  0  0  0  0  2  0  0  0  0  0  0
  188.7110  177.6220  147.9000 C   0  0  0  0  0  2  0  0  0  0  0  0
  189.3330  177.8380  146.5360 C   0  0  0  0  0  3  0  0  0  0  0  0
  186.2770  177.6540  144.3800 C   0  0  0  0  0  2  0  0  0  0  0  0
  185.3510  178.6440  146.5030 C   0  0  0  0  0  1  0  0  0  0  0  0
  184.6440  179.5710  144.2990 C   0  0  0  0  0  1  0  0  0  0  0  0
  185.0760  178.3230  145.0460 C   0  0  0  0  0  3  0  0  0  0  0  0
  185.9730  178.9250  140.8250 C   0  0  0  0  0  2  0  0  0  0  0  0
  184.8290  178.0730  141.1180 N   0  0  0  0  0  2  0  0  0  0  0  0
  183.6550  178.6620  140.4870 C   0  0  0  0  0  0  0  0  0  0  0  0
  183.8240  179.8280  139.7390 O   0  0  0  0  0  1  0  0  0  0  0  0
  182.5230  177.7400  140.1100 C   0  0  0  0  0  2  0  0  0  0  0  0
  182.4150  178.6400  141.3420 C   0  0  0  0  0  2  0  0  0  0  0  0
  1  8  1  0  0  0  0
  1  5  2  0  0  0  0
  2  3  1  0  0  0  0
  3 10  2  6  0  0  0
  3  9  1  0  0  0  0
  4 11  1  1  0  0  0
  4  1  1  0  0  0  0
  6  2  1  0  0  0  0
  7  6  1  6  0  0  0
  7 11  1  0  0  0  0
  7  4  1  0  0  0  0
  8 13  1  1  0  0  0
  9 25  1  1  0  0  0
  9 12  1  0  0  0  0
 12  8  1  0  0  0  0
 13 14  2  0  0  0  0
 15 13  1  6  0  0  0
 15 17  1  0  0  0  0
 15 16  1  0  0  0  0
 16 20  1  1  0  0  0
 17 21  1  6  0  0  0
 17 16  1  0  0  0  0
 18 19  1  0  0  0  0
 20 18  1  0  0  0  0
 20 19  1  0  0  0  0
 21 24  1  0  0  0  0
 23 24  1  0  0  0  0
 24 22  1  0  0  0  0
 25 26  1  0  0  0  0
 27 26  1  0  0  0  0
 27 30  1  0  0  0  0
 28 27  1  0  0  0  0
 29 27  1  0  0  0  0
 29 30  1  0  0  0  0
M  END
>  <MODEL>
2

>  <REMARK>
 VINA RESULT:      -7.6      1.767      3.096
  Name = 
  8 active torsions:
  status: ('A' for Active; 'I' for Inactive)
    1  A    between atoms: C_1  and  C_4
    2  A    between atoms: C_1  and  C_22
    3  A    between atoms: N_7  and  C_10
    4  A    between atoms: N_7  and  C_25
    5  A    between atoms: C_8  and  C_30
    6  A    between atoms: C_9  and  C_12
    7  A    between atoms: C_9  and  C_21
    8  A    between atoms: C_23  and  C_25
                            x       y       z     vdW  Elec       q    Type
                         _______ _______ _______ _____ _____    ______ ____

>  <TORSDO>
F 8

$$$$
=
 OpenBabel10272413573D

 30 34  0  0  1  0  0  0  0  0999 V2000
  188.2410  178.1500  139.7240 C   0  0  0  0  0  0  0  0  0  0  0  0
  191.7040  177.6290  141.5250 C   0  0  0  0  0  2  0  0  0  0  0  0
  190.8690  176.5900  142.7490 S   0  0  2  0  0  0  0  0  0  0  0  0
  189.6780  178.1700  139.2940 C   0  0  1  0  0  3  0  0  0  0  0  0
  187.3100  177.8480  138.8910 N   0  0  0  0  0  2  0  0  0  0  0  0
  191.6800  177.0060  140.1310 C   0  0  0  0  0  2  0  0  0  0  0  0
  190.2510  176.8120  139.6600 C   0  0  2  0  0  3  0  0  0  0  0  0
  187.9450  178.3440  141.1900 C   0  0  2  0  0  3  0  0  0  0  0  0
  189.2950  177.4350  143.0820 C   0  0  1  0  0  3  0  0  0  0  0  0
  191.6970  176.8290  144.0040 O   0  0  0  0  0  0  0  0  0  0  0  0
  190.0490  177.1700  138.2070 C   0  0  0  0  0  2  0  0  0  0  0  0
  188.2840  177.0970  142.0010 C   0  0  0  0  0  2  0  0  0  0  0  0
  186.5660  178.8920  141.4710 C   0  0  0  0  0  0  0  0  0  0  0  0
  186.4360  180.0970  141.6180 O   0  0  0  0  0  0  0  0  0  0  0  0
  185.3630  177.9940  141.6630 C   0  0  2  0  0  3  0  0  0  0  0  0
  184.1070  178.8050  141.9360 C   0  0  2  0  0  3  0  0  0  0  0  0
  184.7280  178.0090  143.0630 C   0  0  2  0  0  3  0  0  0  0  0  0
  182.1750  178.9410  140.4060 C   0  0  0  0  0  2  0  0  0  0  0  0
  181.6440  178.7840  141.8150 C   0  0  0  0  0  2  0  0  0  0  0  0
  182.9050  178.0570  141.3970 C   0  0  0  0  0  3  0  0  0  0  0  0
  185.3640  178.9770  144.0670 C   0  0  0  0  0  2  0  0  0  0  0  0
  183.0740  178.7810  145.0970 C   0  0  0  0  0  1  0  0  0  0  0  0
  185.0940  178.3490  146.4920 C   0  0  0  0  0  1  0  0  0  0  0  0
  184.5270  179.1470  145.3340 C   0  0  0  0  0  3  0  0  0  0  0  0
  188.7230  176.9930  144.4180 C   0  0  0  0  0  2  0  0  0  0  0  0
  188.8580  178.0630  145.3960 N   0  0  0  0  0  2  0  0  0  0  0  0
  189.3100  177.4740  146.6490 C   0  0  0  0  0  0  0  0  0  0  0  0
  190.4910  176.7300  146.6390 O   0  0  0  0  0  1  0  0  0  0  0  0
  188.9240  178.1680  147.9320 C   0  0  0  0  0  2  0  0  0  0  0  0
  188.2080  176.8900  147.4930 C   0  0  0  0  0  2  0  0  0  0  0  0
  1  8  1  0  0  0  0
  2  3  1  0  0  0  0
  3  9  1  0  0  0  0
  3 10  2  1  0  0  0
  4 11  1  6  0  0  0
  4  7  1  0  0  0  0
  4  1  1  0  0  0  0
  5  1  2  0  0  0  0
  6  2  1  0  0  0  0
  7 11  1  6  0  0  0
  7  6  1  0  0  0  0
  8 13  1  6  0  0  0
  8 12  1  0  0  0  0
  9 25  1  1  0  0  0
 12  9  1  0  0  0  0
 13 14  2  0  0  0  0
 15 13  1  1  0  0  0
 15 16  1  0  0  0  0
 15 17  1  0  0  0  0
 16 20  1  6  0  0  0
 16 17  1  0  0  0  0
 17 21  1  1  0  0  0
 18 20  1  0  0  0  0
 18 19  1  0  0  0  0
 20 19  1  0  0  0  0
 21 24  1  0  0  0  0
 22 24  1  0  0  0  0
 24 23  1  0  0  0  0
 25 26  1  0  0  0  0
 26 27  1  0  0  0  0
 27 30  1  0  0  0  0
 27 29  1  0  0  0  0
 28 27  1  0  0  0  0
 30 29  1  0  0  0  0
M  END
>  <MODEL>
3

>  <REMARK>
 VINA RESULT:      -7.3      2.648      5.932
  Name = 
  8 active torsions:
  status: ('A' for Active; 'I' for Inactive)
    1  A    between atoms: C_1  and  C_4
    2  A    between atoms: C_1  and  C_22
    3  A    between atoms: N_7  and  C_10
    4  A    between atoms: N_7  and  C_25
    5  A    between atoms: C_8  and  C_30
    6  A    between atoms: C_9  and  C_12
    7  A    between atoms: C_9  and  C_21
    8  A    between atoms: C_23  and  C_25
                            x       y       z     vdW  Elec       q    Type
                         _______ _______ _______ _____ _____    ______ ____

>  <TORSDO>
F 8

$$$$
=
 OpenBabel10272413573D

 30 34  0  0  1  0  0  0  0  0999 V2000
  190.3090  176.7610  141.1730 C   0  0  0  0  0  0  0  0  0  0  0  0
  187.9110  177.1030  138.0670 C   0  0  0  0  0  2  0  0  0  0  0  0
  187.2180  178.5990  138.8130 S   0  0  2  0  0  0  0  0  0  0  0  0
  190.3610  176.3350  139.7360 C   0  0  1  0  0  3  0  0  0  0  0  0
  191.3890  176.9810  141.8340 N   0  0  0  0  0  2  0  0  0  0  0  0
  189.3790  177.2790  137.6850 C   0  0  0  0  0  2  0  0  0  0  0  0
  190.2130  177.6010  138.9100 C   0  0  2  0  0  3  0  0  0  0  0  0
  188.9550  177.0700  141.7630 C   0  0  2  0  0  3  0  0  0  0  0  0
  187.0770  178.2140  140.5840 C   0  0  1  0  0  3  0  0  0  0  0  0
  185.7820  178.5830  138.3100 O   0  0  0  0  0  0  0  0  0  0  0  0
  191.5380  176.8770  138.9360 C   0  0  0  0  0  2  0  0  0  0  0  0
  188.4180  178.4090  141.2670 C   0  0  0  0  0  2  0  0  0  0  0  0
  188.8890  176.9100  143.2640 C   0  0  0  0  0  0  0  0  0  0  0  0
  187.9750  176.2550  143.7400 O   0  0  0  0  0  0  0  0  0  0  0  0
  189.8600  177.6030  144.1940 C   0  0  2  0  0  3  0  0  0  0  0  0
  190.0370  176.8240  145.4870 C   0  0  2  0  0  3  0  0  0  0  0  0
  189.2700  178.1280  145.5140 C   0  0  2  0  0  3  0  0  0  0  0  0
  192.0220  175.7290  146.4630 C   0  0  0  0  0  2  0  0  0  0  0  0
  191.4710  176.6940  147.4900 C   0  0  0  0  0  2  0  0  0  0  0  0
  191.4370  177.0540  146.0190 C   0  0  0  0  0  3  0  0  0  0  0  0
  187.7840  177.8300  145.7390 C   0  0  0  0  0  2  0  0  0  0  0  0
  185.7460  178.4310  147.0910 C   0  0  0  0  0  1  0  0  0  0  0  0
  187.8020  177.6280  148.2510 C   0  0  0  0  0  1  0  0  0  0  0  0
  187.2620  178.3960  147.0580 C   0  0  0  0  0  3  0  0  0  0  0  0
  186.0680  179.1340  141.2520 C   0  0  0  0  0  2  0  0  0  0  0  0
  184.7430  178.5330  141.2090 N   0  0  0  0  0  2  0  0  0  0  0  0
  184.1370  178.6860  142.5250 C   0  0  0  0  0  0  0  0  0  0  0  0
  182.7470  178.7870  142.6030 O   0  0  0  0  0  1  0  0  0  0  0  0
  184.8700  178.1040  143.7080 C   0  0  0  0  0  2  0  0  0  0  0  0
  184.8850  179.6110  143.4490 C   0  0  0  0  0  2  0  0  0  0  0  0
  1  8  1  0  0  0  0
  1  5  2  0  0  0  0
  2  3  1  0  0  0  0
  3 10  2  6  0  0  0
  3  9  1  0  0  0  0
  4 11  1  1  0  0  0
  4  1  1  0  0  0  0
  6  2  1  0  0  0  0
  7  6  1  6  0  0  0
  7 11  1  0  0  0  0
  7  4  1  0  0  0  0
  8 13  1  1  0  0  0
  9 25  1  1  0  0  0
  9 12  1  0  0  0  0
 12  8  1  0  0  0  0
 13 14  2  0  0  0  0
 15 13  1  6  0  0  0
 15 16  1  0  0  0  0
 15 17  1  0  0  0  0
 16 17  1  0  0  0  0
 16 20  1  1  0  0  0
 17 21  1  6  0  0  0
 18 19  1  0  0  0  0
 20 18  1  0  0  0  0
 20 19  1  0  0  0  0
 21 24  1  0  0  0  0
 24 22  1  0  0  0  0
 24 23  1  0  0  0  0
 26 25  1  0  0  0  0
 26 27  1  0  0  0  0
 27 28  1  0  0  0  0
 27 30  1  0  0  0  0
 27 29  1  0  0  0  0
 30 29  1  0  0  0  0
M  END
>  <MODEL>
4

>  <REMARK>
 VINA RESULT:      -7.2      1.821      3.392
  Name = 
  8 active torsions:
  status: ('A' for Active; 'I' for Inactive)
    1  A    between atoms: C_1  and  C_4
    2  A    between atoms: C_1  and  C_22
    3  A    between atoms: N_7  and  C_10
    4  A    between atoms: N_7  and  C_25
    5  A    between atoms: C_8  and  C_30
    6  A    between atoms: C_9  and  C_12
    7  A    between atoms: C_9  and  C_21
    8  A    between atoms: C_23  and  C_25
                            x       y       z     vdW  Elec       q    Type
                         _______ _______ _______ _____ _____    ______ ____

>  <TORSDO>
F 8

$$$$
=
 OpenBabel10272413573D

 30 34  0  0  1  0  0  0  0  0999 V2000
  185.4700  178.4900  143.0910 C   0  0  0  0  0  0  0  0  0  0  0  0
  188.6680  176.2110  143.3880 C   0  0  0  0  0  2  0  0  0  0  0  0
  189.4920  177.2720  142.1750 S   0  0  2  0  0  0  0  0  0  0  0  0
  186.0530  177.6080  144.1540 C   0  0  1  0  0  3  0  0  0  0  0  0
  184.7260  179.4910  143.4030 N   0  0  0  0  0  2  0  0  0  0  0  0
  188.3660  176.9530  144.6890 C   0  0  0  0  0  2  0  0  0  0  0  0
  187.4510  178.1340  144.4260 C   0  0  2  0  0  3  0  0  0  0  0  0
  185.9100  178.2560  141.6670 C   0  0  2  0  0  3  0  0  0  0  0  0
  188.2150  177.6410  140.9350 C   0  0  1  0  0  3  0  0  0  0  0  0
  190.4290  176.3020  141.4710 O   0  0  0  0  0  0  0  0  0  0  0  0
  186.3750  178.2980  145.4730 C   0  0  0  0  0  2  0  0  0  0  0  0
  187.3250  178.7700  141.4250 C   0  0  0  0  0  2  0  0  0  0  0  0
  184.9120  178.7200  140.6320 C   0  0  0  0  0  0  0  0  0  0  0  0
  184.8650  179.9090  140.3590 O   0  0  0  0  0  0  0  0  0  0  0  0
  183.9150  177.7790  139.9920 C   0  0  2  0  0  3  0  0  0  0  0  0
  182.8250  178.5430  139.2600 C   0  0  2  0  0  3  0  0  0  0  0  0
  182.4840  177.8320  140.5520 C   0  0  2  0  0  3  0  0  0  0  0  0
  181.8590  178.6460  136.9920 C   0  0  0  0  0  2  0  0  0  0  0  0
  180.8560  177.9610  137.8940 C   0  0  0  0  0  2  0  0  0  0  0  0
  182.3380  177.7170  138.0880 C   0  0  0  0  0  3  0  0  0  0  0  0
  182.2410  178.8740  141.6480 C   0  0  0  0  0  2  0  0  0  0  0  0
  180.8150  178.7690  143.7220 C   0  0  0  0  0  1  0  0  0  0  0  0
  179.9820  179.9890  141.7120 C   0  0  0  0  0  1  0  0  0  0  0  0
  180.8190  178.8230  142.2050 C   0  0  0  0  0  3  0  0  0  0  0  0
  188.8510  178.0740  139.6260 C   0  0  0  0  0  2  0  0  0  0  0  0
  187.8480  178.6780  138.7600 N   0  0  0  0  0  2  0  0  0  0  0  0
  187.5180  177.7180  137.7150 C   0  0  0  0  0  0  0  0  0  0  0  0
  188.2420  176.5260  137.6630 O   0  0  0  0  0  1  0  0  0  0  0  0
  186.1040  177.7090  137.1910 C   0  0  0  0  0  2  0  0  0  0  0  0
  187.2330  178.3380  136.3730 C   0  0  0  0  0  2  0  0  0  0  0  0
  1  5  2  0  0  0  0
  1  4  1  0  0  0  0
  2  6  1  0  0  0  0
  3 10  2  6  0  0  0
  3  2  1  0  0  0  0
  4  7  1  0  0  0  0
  4 11  1  1  0  0  0
  7  6  1  1  0  0  0
  7 11  1  0  0  0  0
  8 13  1  6  0  0  0
  8  1  1  0  0  0  0
  9 25  1  6  0  0  0
  9 12  1  0  0  0  0
  9  3  1  0  0  0  0
 12  8  1  0  0  0  0
 14 13  2  0  0  0  0
 15 17  1  0  0  0  0
 15 13  1  1  0  0  0
 16 20  1  6  0  0  0
 16 15  1  0  0  0  0
 16 17  1  0  0  0  0
 17 21  1  1  0  0  0
 18 19  1  0  0  0  0
 18 20  1  0  0  0  0
 19 20  1  0  0  0  0
 21 24  1  0  0  0  0
 23 24  1  0  0  0  0
 24 22  1  0  0  0  0
 26 25  1  0  0  0  0
 27 26  1  0  0  0  0
 28 27  1  0  0  0  0
 29 27  1  0  0  0  0
 30 29  1  0  0  0  0
 30 27  1  0  0  0  0
M  END
>  <MODEL>
5

>  <REMARK>
 VINA RESULT:      -6.7      2.589      7.032
  Name = 
  8 active torsions:
  status: ('A' for Active; 'I' for Inactive)
    1  A    between atoms: C_1  and  C_4
    2  A    between atoms: C_1  and  C_22
    3  A    between atoms: N_7  and  C_10
    4  A    between atoms: N_7  and  C_25
    5  A    between atoms: C_8  and  C_30
    6  A    between atoms: C_9  and  C_12
    7  A    between atoms: C_9  and  C_21
    8  A    between atoms: C_23  and  C_25
                            x       y       z     vdW  Elec       q    Type
                         _______ _______ _______ _____ _____    ______ ____

>  <TORSDO>
F 8

$$$$
=
 OpenBabel10272413573D

 30 34  0  0  1  0  0  0  0  0999 V2000
  190.8730  177.0880  139.7970 C   0  0  0  0  0  0  0  0  0  0  0  0
  189.1100  175.1250  136.8720 C   0  0  0  0  0  2  0  0  0  0  0  0
  188.0850  176.5850  136.5610 S   0  0  2  0  0  0  0  0  0  0  0  0
  191.2650  175.9700  138.8770 C   0  0  1  0  0  3  0  0  0  0  0  0
  191.7620  177.8690  140.2980 N   0  0  0  0  0  2  0  0  0  0  0  0
  190.5860  175.3880  136.5830 C   0  0  0  0  0  2  0  0  0  0  0  0
  191.1100  176.5060  137.4640 C   0  0  2  0  0  3  0  0  0  0  0  0
  189.4010  177.3560  139.9860 C   0  0  2  0  0  3  0  0  0  0  0  0
  187.6520  177.2110  138.2120 C   0  0  1  0  0  3  0  0  0  0  0  0
  186.7920  175.9730  136.0410 O   0  0  0  0  0  0  0  0  0  0  0  0
  192.4910  176.2340  138.0120 C   0  0  0  0  0  2  0  0  0  0  0  0
  188.7940  178.0430  138.7680 C   0  0  0  0  0  2  0  0  0  0  0  0
  189.0630  178.0330  141.2940 C   0  0  0  0  0  0  0  0  0  0  0  0
  188.0760  178.7500  141.3410 O   0  0  0  0  0  0  0  0  0  0  0  0
  189.9510  177.9210  142.5140 C   0  0  2  0  0  3  0  0  0  0  0  0
  190.2680  176.4710  142.8360 C   0  0  2  0  0  3  0  0  0  0  0  0
  189.3260  177.2350  143.7400 C   0  0  2  0  0  3  0  0  0  0  0  0
  191.7780  175.0510  144.1750 C   0  0  0  0  0  2  0  0  0  0  0  0
  191.4620  176.2880  144.9870 C   0  0  0  0  0  2  0  0  0  0  0  0
  191.6340  176.3920  143.4850 C   0  0  0  0  0  3  0  0  0  0  0  0
  187.9030  176.7020  143.5470 C   0  0  0  0  0  2  0  0  0  0  0  0
  187.6780  177.8530  145.7760 C   0  0  0  0  0  1  0  0  0  0  0  0
  185.8730  178.0980  144.0730 C   0  0  0  0  0  1  0  0  0  0  0  0
  186.9420  177.1780  144.6340 C   0  0  0  0  0  3  0  0  0  0  0  0
  186.4160  178.0910  138.1420 C   0  0  0  0  0  2  0  0  0  0  0  0
  186.1460  178.6750  139.4480 N   0  0  0  0  0  2  0  0  0  0  0  0
  184.7230  178.9820  139.5180 C   0  0  0  0  0  0  0  0  0  0  0  0
  184.2990  180.2410  139.0940 O   0  0  0  0  0  1  0  0  0  0  0  0
  183.7510  177.8340  139.4060 C   0  0  0  0  0  2  0  0  0  0  0  0
  184.0410  178.4770  140.7630 C   0  0  0  0  0  2  0  0  0  0  0  0
  1  8  1  0  0  0  0
  1  5  2  0  0  0  0
  3 10  2  1  0  0  0
  3  2  1  0  0  0  0
  3  9  1  0  0  0  0
  4 11  1  1  0  0  0
  4  1  1  0  0  0  0
  6  2  1  0  0  0  0
  7  6  1  6  0  0  0
  7 11  1  0  0  0  0
  7  4  1  0  0  0  0
  8 13  1  1  0  0  0
  9 25  1  6  0  0  0
  9 12  1  0  0  0  0
 12  8  1  0  0  0  0
 13 14  2  0  0  0  0
 15 13  1  6  0  0  0
 15 16  1  0  0  0  0
 15 17  1  0  0  0  0
 16 20  1  1  0  0  0
 16 17  1  0  0  0  0
 17 21  1  6  0  0  0
 18 19  1  0  0  0  0
 20 18  1  0  0  0  0
 20 19  1  0  0  0  0
 21 24  1  0  0  0  0
 23 24  1  0  0  0  0
 24 22  1  0  0  0  0
 25 26  1  0  0  0  0
 26 27  1  0  0  0  0
 27 30  1  0  0  0  0
 28 27  1  0  0  0  0
 29 27  1  0  0  0  0
 29 30  1  0  0  0  0
M  END
>  <MODEL>
6

>  <REMARK>
 VINA RESULT:      -6.7      0.878      2.488
  Name = 
  8 active torsions:
  status: ('A' for Active; 'I' for Inactive)
    1  A    between atoms: C_1  and  C_4
    2  A    between atoms: C_1  and  C_22
    3  A    between atoms: N_7  and  C_10
    4  A    between atoms: N_7  and  C_25
    5  A    between atoms: C_8  and  C_30
    6  A    between atoms: C_9  and  C_12
    7  A    between atoms: C_9  and  C_21
    8  A    between atoms: C_23  and  C_25
                            x       y       z     vdW  Elec       q    Type
                         _______ _______ _______ _____ _____    ______ ____

>  <TORSDO>
F 8

$$$$
=
 OpenBabel10272413573D

 30 34  0  0  1  0  0  0  0  0999 V2000
  185.6240  178.2640  144.0460 C   0  0  0  0  0  0  0  0  0  0  0  0
  188.9500  176.2930  143.2920 C   0  0  0  0  0  2  0  0  0  0  0  0
  189.3350  177.5080  142.0070 S   0  0  2  0  0  0  0  0  0  0  0  0
  186.5360  177.3730  144.8360 C   0  0  1  0  0  3  0  0  0  0  0  0
  184.9170  179.1640  144.6300 N   0  0  0  0  0  2  0  0  0  0  0  0
  188.9500  176.9130  144.6880 C   0  0  0  0  0  2  0  0  0  0  0  0
  187.9120  178.0140  144.7810 C   0  0  2  0  0  3  0  0  0  0  0  0
  185.6830  178.1690  142.5420 C   0  0  2  0  0  3  0  0  0  0  0  0
  187.7480  177.8330  141.1820 C   0  0  1  0  0  3  0  0  0  0  0  0
  190.1210  176.6830  140.9980 O   0  0  0  0  0  0  0  0  0  0  0  0
  187.1450  178.0010  146.0820 C   0  0  0  0  0  2  0  0  0  0  0  0
  186.9380  178.8340  141.9860 C   0  0  0  0  0  2  0  0  0  0  0  0
  184.4120  178.6020  141.8490 C   0  0  0  0  0  0  0  0  0  0  0  0
  183.3570  178.5100  142.4560 O   0  0  0  0  0  0  0  0  0  0  0  0
  184.3940  179.0610  140.4070 C   0  0  2  0  0  3  0  0  0  0  0  0
  182.9730  179.1720  139.8810 C   0  0  2  0  0  3  0  0  0  0  0  0
  183.8540  178.0460  139.3850 C   0  0  2  0  0  3  0  0  0  0  0  0
  181.5560  180.9330  138.8900 C   0  0  0  0  0  2  0  0  0  0  0  0
  181.8490  179.9110  137.8130 C   0  0  0  0  0  2  0  0  0  0  0  0
  182.9140  180.2620  138.8320 C   0  0  0  0  0  3  0  0  0  0  0  0
  183.3520  176.7220  139.9700 C   0  0  0  0  0  2  0  0  0  0  0  0
  181.0770  175.9600  139.2020 C   0  0  0  0  0  1  0  0  0  0  0  0
  182.8960  176.2920  137.5290 C   0  0  0  0  0  1  0  0  0  0  0  0
  182.5720  175.8870  138.9550 C   0  0  0  0  0  3  0  0  0  0  0  0
  187.9760  178.4130  139.7970 C   0  0  0  0  0  2  0  0  0  0  0  0
  187.6870  177.4090  138.7820 N   0  0  0  0  0  2  0  0  0  0  0  0
  187.6770  178.0700  137.4840 C   0  0  0  0  0  0  0  0  0  0  0  0
  188.3490  179.2870  137.3590 O   0  0  0  0  0  1  0  0  0  0  0  0
  187.5510  177.2040  136.2560 C   0  0  0  0  0  2  0  0  0  0  0  0
  186.3550  178.0080  136.7670 C   0  0  0  0  0  2  0  0  0  0  0  0
  1  5  2  0  0  0  0
  1  4  1  0  0  0  0
  2  6  1  0  0  0  0
  3 10  2  6  0  0  0
  3  2  1  0  0  0  0
  4 11  1  1  0  0  0
  7  6  1  1  0  0  0
  7  4  1  0  0  0  0
  7 11  1  0  0  0  0
  8 13  1  6  0  0  0
  8  1  1  0  0  0  0
  9 25  1  6  0  0  0
  9 12  1  0  0  0  0
  9  3  1  0  0  0  0
 12  8  1  0  0  0  0
 13 14  2  0  0  0  0
 15 13  1  1  0  0  0
 16 20  1  6  0  0  0
 16 15  1  0  0  0  0
 17 16  1  0  0  0  0
 17 21  1  1  0  0  0
 17 15  1  0  0  0  0
 19 20  1  0  0  0  0
 19 18  1  0  0  0  0
 20 18  1  0  0  0  0
 23 24  1  0  0  0  0
 24 22  1  0  0  0  0
 24 21  1  0  0  0  0
 26 25  1  0  0  0  0
 27 26  1  0  0  0  0
 28 27  1  0  0  0  0
 29 30  1  0  0  0  0
 29 27  1  0  0  0  0
 30 27  1  0  0  0  0
M  END
>  <MODEL>
7

>  <REMARK>
 VINA RESULT:      -6.7      2.682      6.996
  Name = 
  8 active torsions:
  status: ('A' for Active; 'I' for Inactive)
    1  A    between atoms: C_1  and  C_4
    2  A    between atoms: C_1  and  C_22
    3  A    between atoms: N_7  and  C_10
    4  A    between atoms: N_7  and  C_25
    5  A    between atoms: C_8  and  C_30
    6  A    between atoms: C_9  and  C_12
    7  A    between atoms: C_9  and  C_21
    8  A    between atoms: C_23  and  C_25
                            x       y       z     vdW  Elec       q    Type
                         _______ _______ _______ _____ _____    ______ ____

>  <TORSDO>
F 8

$$$$
=
 OpenBabel10272413573D

 30 34  0  0  1  0  0  0  0  0999 V2000
  188.8230  177.6630  144.1530 C   0  0  0  0  0  0  0  0  0  0  0  0
  185.6090  179.1730  145.8580 C   0  0  0  0  0  2  0  0  0  0  0  0
  184.6110  178.4520  144.5310 S   0  0  2  0  0  0  0  0  0  0  0  0
  188.4380  178.0410  145.5530 C   0  0  1  0  0  3  0  0  0  0  0  0
  189.6990  176.7480  143.9370 N   0  0  0  0  0  2  0  0  0  0  0  0
  186.2720  178.1030  146.7230 C   0  0  0  0  0  2  0  0  0  0  0  0
  187.1920  177.2370  145.8850 C   0  0  2  0  0  3  0  0  0  0  0  0
  188.0390  178.2790  143.0210 C   0  0  2  0  0  3  0  0  0  0  0  0
  185.5830  178.7220  143.0180 C   0  0  1  0  0  3  0  0  0  0  0  0
  183.4560  179.4370  144.4150 O   0  0  0  0  0  0  0  0  0  0  0  0
  188.4970  176.9130  146.5750 C   0  0  0  0  0  2  0  0  0  0  0  0
  186.6540  177.6540  142.8910 C   0  0  0  0  0  2  0  0  0  0  0  0
  188.7970  178.3480  141.7160 C   0  0  0  0  0  0  0  0  0  0  0  0
  188.9810  179.4420  141.2060 O   0  0  0  0  0  0  0  0  0  0  0  0
  189.2560  177.1070  140.9820 C   0  0  2  0  0  3  0  0  0  0  0  0
  190.1120  177.4630  139.7780 C   0  0  2  0  0  3  0  0  0  0  0  0
  188.7130  176.9310  139.5540 C   0  0  2  0  0  3  0  0  0  0  0  0
  192.2970  176.9130  138.7700 C   0  0  0  0  0  2  0  0  0  0  0  0
  191.2360  176.1150  138.0440 C   0  0  0  0  0  2  0  0  0  0  0  0
  191.1150  176.3540  139.5360 C   0  0  0  0  0  3  0  0  0  0  0  0
  187.8230  178.0670  139.0400 C   0  0  0  0  0  2  0  0  0  0  0  0
  188.6120  178.7660  136.7520 C   0  0  0  0  0  1  0  0  0  0  0  0
  187.5110  176.5490  137.0530 C   0  0  0  0  0  1  0  0  0  0  0  0
  187.5720  177.9860  137.5350 C   0  0  0  0  0  3  0  0  0  0  0  0
  184.6920  178.6480  141.7910 C   0  0  0  0  0  2  0  0  0  0  0  0
  185.1990  179.5330  140.7520 N   0  0  0  0  0  2  0  0  0  0  0  0
  184.2900  179.4630  139.6170 C   0  0  0  0  0  0  0  0  0  0  0  0
  184.1090  180.6130  138.8460 O   0  0  0  0  0  1  0  0  0  0  0  0
  184.1070  178.1260  138.9440 C   0  0  0  0  0  2  0  0  0  0  0  0
  183.0310  178.6790  139.8780 C   0  0  0  0  0  2  0  0  0  0  0  0
  1  4  1  0  0  0  0
  2  6  1  0  0  0  0
  3 10  2  6  0  0  0
  3  2  1  0  0  0  0
  4  7  1  0  0  0  0
  4 11  1  1  0  0  0
  5  1  2  0  0  0  0
  7 11  1  1  0  0  0
  7  6  1  0  0  0  0
  8 13  1  6  0  0  0
  8  1  1  0  0  0  0
  9 25  1  6  0  0  0
  9  3  1  0  0  0  0
 12  9  1  0  0  0  0
 12  8  1  0  0  0  0
 14 13  2  0  0  0  0
 15 13  1  1  0  0  0
 16 20  1  6  0  0  0
 16 15  1  0  0  0  0
 17 21  1  1  0  0  0
 17 16  1  0  0  0  0
 17 15  1  0  0  0  0
 18 20  1  0  0  0  0
 19 18  1  0  0  0  0
 19 20  1  0  0  0  0
 22 24  1  0  0  0  0
 23 24  1  0  0  0  0
 24 21  1  0  0  0  0
 26 25  1  0  0  0  0
 27 30  1  0  0  0  0
 27 26  1  0  0  0  0
 28 27  1  0  0  0  0
 29 27  1  0  0  0  0
 29 30  1  0  0  0  0
M  END
>  <MODEL>
8

>  <REMARK>
 VINA RESULT:      -6.6      2.473      6.488
  Name = 
  8 active torsions:
  status: ('A' for Active; 'I' for Inactive)
    1  A    between atoms: C_1  and  C_4
    2  A    between atoms: C_1  and  C_22
    3  A    between atoms: N_7  and  C_10
    4  A    between atoms: N_7  and  C_25
    5  A    between atoms: C_8  and  C_30
    6  A    between atoms: C_9  and  C_12
    7  A    between atoms: C_9  and  C_21
    8  A    between atoms: C_23  and  C_25
                            x       y       z     vdW  Elec       q    Type
                         _______ _______ _______ _____ _____    ______ ____

>  <TORSDO>
F 8

$$$$
=
 OpenBabel10272413573D

 30 34  0  0  1  0  0  0  0  0999 V2000
  185.6040  178.3860  143.3150 C   0  0  0  0  0  0  0  0  0  0  0  0
  188.9190  176.2670  143.1150 C   0  0  0  0  0  2  0  0  0  0  0  0
  189.5630  177.4570  141.9130 S   0  0  2  0  0  0  0  0  0  0  0  0
  186.3340  177.4610  144.2430 C   0  0  1  0  0  3  0  0  0  0  0  0
  184.8510  179.3190  143.7760 N   0  0  0  0  0  2  0  0  0  0  0  0
  188.7180  176.8950  144.4930 C   0  0  0  0  0  2  0  0  0  0  0  0
  187.7270  178.0410  144.4160 C   0  0  2  0  0  3  0  0  0  0  0  0
  185.9060  178.2800  141.8410 C   0  0  2  0  0  3  0  0  0  0  0  0
  188.1490  177.8450  140.8380 C   0  0  1  0  0  3  0  0  0  0  0  0
  190.4670  176.5920  141.0460 O   0  0  0  0  0  0  0  0  0  0  0  0
  186.7580  178.0690  145.5730 C   0  0  0  0  0  2  0  0  0  0  0  0
  187.2630  178.8850  141.5000 C   0  0  0  0  0  2  0  0  0  0  0  0
  184.7860  178.7630  140.9490 C   0  0  0  0  0  0  0  0  0  0  0  0
  184.9300  179.8200  140.3550 O   0  0  0  0  0  0  0  0  0  0  0  0
  183.4680  178.0300  140.8380 C   0  0  2  0  0  3  0  0  0  0  0  0
  183.3050  177.3900  139.4700 C   0  0  2  0  0  3  0  0  0  0  0  0
  182.4640  178.5990  139.8220 C   0  0  2  0  0  3  0  0  0  0  0  0
  182.6330  175.2930  138.3560 C   0  0  0  0  0  2  0  0  0  0  0  0
  181.3950  176.1460  138.5270 C   0  0  0  0  0  2  0  0  0  0  0  0
  182.4630  176.1380  139.6020 C   0  0  0  0  0  3  0  0  0  0  0  0
  182.9550  179.8030  139.0110 C   0  0  0  0  0  2  0  0  0  0  0  0
  180.5380  179.6880  138.3110 C   0  0  0  0  0  1  0  0  0  0  0  0
  181.6770  181.9010  138.4530 C   0  0  0  0  0  1  0  0  0  0  0  0
  181.8550  180.4250  138.1530 C   0  0  0  0  0  3  0  0  0  0  0  0
  188.6270  178.4060  139.5100 C   0  0  0  0  0  2  0  0  0  0  0  0
  188.3320  177.4670  138.4370 N   0  0  0  0  0  2  0  0  0  0  0  0
  187.5650  178.1730  137.4190 C   0  0  0  0  0  0  0  0  0  0  0  0
  187.9870  179.4490  137.0430 O   0  0  0  0  0  1  0  0  0  0  0  0
  186.8230  177.3450  136.4000 C   0  0  0  0  0  2  0  0  0  0  0  0
  186.0730  178.0190  137.5490 C   0  0  0  0  0  2  0  0  0  0  0  0
  1  5  2  0  0  0  0
  1  4  1  0  0  0  0
  2  6  1  0  0  0  0
  3 10  2  6  0  0  0
  3  2  1  0  0  0  0
  4  7  1  0  0  0  0
  4 11  1  1  0  0  0
  7  6  1  1  0  0  0
  7 11  1  0  0  0  0
  8 13  1  6  0  0  0
  8  1  1  0  0  0  0
  9 25  1  6  0  0  0
  9 12  1  0  0  0  0
  9  3  1  0  0  0  0
 12  8  1  0  0  0  0
 14 13  2  0  0  0  0
 15 13  1  6  0  0  0
 16 20  1  1  0  0  0
 16 17  1  0  0  0  0
 16 15  1  0  0  0  0
 17 21  1  6  0  0  0
 17 15  1  0  0  0  0
 18 19  1  0  0  0  0
 18 20  1  0  0  0  0
 19 20  1  0  0  0  0
 24 22  1  0  0  0  0
 24 23  1  0  0  0  0
 24 21  1  0  0  0  0
 26 25  1  0  0  0  0
 27 30  1  0  0  0  0
 27 26  1  0  0  0  0
 28 27  1  0  0  0  0
 29 27  1  0  0  0  0
 29 30  1  0  0  0  0
M  END
>  <MODEL>
9

>  <REMARK>
 VINA RESULT:      -6.6      2.677      7.049
  Name = 
  8 active torsions:
  status: ('A' for Active; 'I' for Inactive)
    1  A    between atoms: C_1  and  C_4
    2  A    between atoms: C_1  and  C_22
    3  A    between atoms: N_7  and  C_10
    4  A    between atoms: N_7  and  C_25
    5  A    between atoms: C_8  and  C_30
    6  A    between atoms: C_9  and  C_12
    7  A    between atoms: C_9  and  C_21
    8  A    between atoms: C_23  and  C_25
                            x       y       z     vdW  Elec       q    Type
                         _______ _______ _______ _____ _____    ______ ____

>  <TORSDO>
F 8

$$$$
