=
 OpenBabel10272400283D

 31 35  0  0  1  0  0  0  0  0999 V2000
  185.7330  179.1830  146.7060 C   0  0  0  0  0  0  0  0  0  0  0  0
  187.5660  177.9510  143.7120 N   0  0  0  0  0  0  0  0  0  0  0  0
  188.8990  177.5870  144.1630 C   0  0  0  0  0  0  0  0  0  0  0  0
  190.4270  176.8400  145.9100 C   0  0  0  0  0  0  0  0  0  0  0  0
  186.4220  177.9970  144.6550 C   0  0  1  0  0  3  0  0  0  0  0  0
  184.3970  179.0830  146.2780 O   0  0  0  0  0  0  0  0  0  0  0  0
  189.1410  177.1780  145.4860 C   0  0  0  0  0  3  0  0  0  0  0  0
  185.9850  178.4080  141.7770 C   0  0  1  0  0  3  0  0  0  0  0  0
  186.0450  179.8480  147.9970 C   0  0  0  0  0  1  0  0  0  0  0  0
  189.7890  177.9370  141.8030 C   0  0  0  0  0  2  0  0  0  0  0  0
  190.6580  176.4200  147.3170 C   0  0  0  0  0  1  0  0  0  0  0  0
  184.8720  177.9840  142.7140 C   0  0  0  0  0  2  0  0  0  0  0  0
  187.3440  177.8760  142.2490 C   0  0  1  0  0  3  0  0  0  0  0  0
  186.7290  178.7290  145.9380 C   0  0  0  0  0  3  0  0  0  0  0  0
  191.4940  176.8960  145.0140 C   0  0  0  0  0  3  0  0  0  0  0  0
  185.1740  178.6240  144.0410 C   0  0  1  0  0  3  0  0  0  0  0  0
  184.0330  178.4670  145.0360 C   0  0  0  0  0  2  0  0  0  0  0  0
  188.4570  178.6250  141.5320 C   0  0  0  0  0  2  0  0  0  0  0  0
  189.9890  177.6320  143.2600 C   0  0  0  0  0  0  0  0  0  0  0  0
  191.2730  177.2830  143.6910 C   0  0  0  0  0  3  0  0  0  0  0  0
  184.7000  179.8970  139.7200 O   0  0  0  0  0  0  0  0  0  0  0  0
  185.0460  178.7160  139.4420 C   0  0  0  0  0  0  0  0  0  0  0  0
  185.7100  177.9230  140.4320 N   0  0  0  0  0  2  0  0  0  0  0  0
  184.1680  177.0640  135.5780 C   0  0  0  0  0  0  0  0  0  0  0  0
  183.4480  177.8850  137.7350 C   0  0  0  0  0  3  0  0  0  0  0  0
  187.1430  178.0920  137.4860 O   0  0  0  0  0  1  0  0  0  0  0  0
  183.8740  176.5420  134.3620 F   0  0  0  0  0  0  0  0  0  0  0  0
  183.1430  177.3480  136.4810 C   0  0  0  0  0  3  0  0  0  0  0  0
  185.8090  177.8550  137.1790 C   0  0  0  0  0  0  0  0  0  0  0  0
  184.7780  178.1450  138.1010 C   0  0  0  0  0  0  0  0  0  0  0  0
  185.4950  177.3170  135.9260 C   0  0  0  0  0  3  0  0  0  0  0  0
  1  9  1  0  0  0  0
  2  3  1  0  0  0  0
  2  5  1  0  0  0  0
  3  7  1  0  0  0  0
  4 11  1  0  0  0  0
  5 14  1  1  0  0  0
  6  1  1  0  0  0  0
  7  4  2  0  0  0  0
  8 23  1  6  0  0  0
  8 13  1  0  0  0  0
  8 12  1  0  0  0  0
 10 19  1  0  0  0  0
 13 18  1  6  0  0  0
 13  2  1  0  0  0  0
 14  1  2  0  0  0  0
 15  4  1  0  0  0  0
 16 12  1  6  0  0  0
 16  5  1  0  0  0  0
 16 17  1  0  0  0  0
 17  6  1  0  0  0  0
 18 10  1  0  0  0  0
 19 20  1  0  0  0  0
 19  3  2  0  0  0  0
 20 15  2  0  0  0  0
 22 21  2  0  0  0  0
 22 23  1  0  0  0  0
 24 31  2  0  0  0  0
 24 28  1  0  0  0  0
 25 30  1  0  0  0  0
 27 24  1  0  0  0  0
 28 25  2  0  0  0  0
 29 26  1  0  0  0  0
 29 30  2  0  0  0  0
 30 22  1  0  0  0  0
 31 29  1  0  0  0  0
M  END
>  <MODEL>
1

>  <REMARK>
 VINA RESULT:      -9.0      0.000      0.000
  Name = 
  2 active torsions:
  status: ('A' for Active; 'I' for Inactive)
    1  A    between atoms: C_9  and  C_22
    2  A    between atoms: C_15  and  N_23
                            x       y       z     vdW  Elec       q    Type
                         _______ _______ _______ _____ _____    ______ ____

>  <TORSDO>
F 2

$$$$
=
 OpenBabel10272400283D

 31 35  0  0  1  0  0  0  0  0999 V2000
  189.3940  176.4720  142.3130 C   0  0  0  0  0  0  0  0  0  0  0  0
  186.2030  178.3000  142.8710 N   0  0  0  0  0  0  0  0  0  0  0  0
  185.9910  178.3350  144.3080 C   0  0  0  0  0  0  0  0  0  0  0  0
  186.8530  178.3170  146.5890 C   0  0  0  0  0  0  0  0  0  0  0  0
  187.5590  178.1200  142.2990 C   0  0  1  0  0  3  0  0  0  0  0  0
  189.7200  176.8680  141.0040 O   0  0  0  0  0  0  0  0  0  0  0  0
  187.0690  178.2920  145.2110 C   0  0  0  0  0  3  0  0  0  0  0  0
  185.2670  178.6550  140.5360 C   0  0  1  0  0  3  0  0  0  0  0  0
  190.1940  175.4140  142.9820 C   0  0  0  0  0  1  0  0  0  0  0  0
  183.4870  178.6000  143.9300 C   0  0  0  0  0  2  0  0  0  0  0  0
  188.0080  178.2600  147.5230 C   0  0  0  0  0  1  0  0  0  0  0  0
  186.6980  178.9180  140.1090 C   0  0  0  0  0  2  0  0  0  0  0  0
  185.0950  178.8400  142.0490 C   0  0  1  0  0  3  0  0  0  0  0  0
  188.3410  177.0030  142.9430 C   0  0  0  0  0  3  0  0  0  0  0  0
  185.5540  178.3960  147.0910 C   0  0  0  0  0  3  0  0  0  0  0  0
  187.5370  177.8750  140.7930 C   0  0  1  0  0  3  0  0  0  0  0  0
  188.9780  177.8710  140.2980 C   0  0  0  0  0  2  0  0  0  0  0  0
  183.7850  178.2040  142.4900 C   0  0  0  0  0  2  0  0  0  0  0  0
  184.6770  178.4230  144.8300 C   0  0  0  0  0  0  0  0  0  0  0  0
  184.4710  178.4570  146.2120 C   0  0  0  0  0  3  0  0  0  0  0  0
  182.8880  177.8760  139.1840 O   0  0  0  0  0  0  0  0  0  0  0  0
  183.1900  179.1000  139.1530 C   0  0  0  0  0  0  0  0  0  0  0  0
  184.3680  179.5540  139.8280 N   0  0  0  0  0  2  0  0  0  0  0  0
  180.7470  181.9900  137.1240 C   0  0  0  0  0  0  0  0  0  0  0  0
  182.3470  181.4140  138.8430 C   0  0  0  0  0  3  0  0  0  0  0  0
  181.4560  178.3850  136.8960 O   0  0  0  0  0  1  0  0  0  0  0  0
  179.9820  182.9140  136.4940 F   0  0  0  0  0  0  0  0  0  0  0  0
  181.5590  182.3680  138.1940 C   0  0  0  0  0  3  0  0  0  0  0  0
  181.5090  179.6980  137.3470 C   0  0  0  0  0  0  0  0  0  0  0  0
  182.3340  180.0710  138.4320 C   0  0  0  0  0  0  0  0  0  0  0  0
  180.7230  180.6600  136.7020 C   0  0  0  0  0  3  0  0  0  0  0  0
  1 14  2  0  0  0  0
  1  9  1  0  0  0  0
  2  3  1  0  0  0  0
  3 19  2  0  0  0  0
  3  7  1  0  0  0  0
  4 15  1  0  0  0  0
  4 11  1  0  0  0  0
  5  2  1  0  0  0  0
  5 14  1  1  0  0  0
  6  1  1  0  0  0  0
  7  4  2  0  0  0  0
  8 23  1  6  0  0  0
  8 13  1  0  0  0  0
 10 19  1  0  0  0  0
 12  8  1  0  0  0  0
 13 18  1  1  0  0  0
 13  2  1  0  0  0  0
 16 12  1  6  0  0  0
 16  5  1  0  0  0  0
 17 16  1  0  0  0  0
 17  6  1  0  0  0  0
 18 10  1  0  0  0  0
 19 20  1  0  0  0  0
 20 15  2  0  0  0  0
 22 21  2  0  0  0  0
 22 23  1  0  0  0  0
 24 28  1  0  0  0  0
 26 29  1  0  0  0  0
 27 24  1  0  0  0  0
 28 25  2  0  0  0  0
 29 30  2  0  0  0  0
 30 25  1  0  0  0  0
 30 22  1  0  0  0  0
 31 24  2  0  0  0  0
 31 29  1  0  0  0  0
M  END
>  <MODEL>
2

>  <REMARK>
 VINA RESULT:      -8.8      2.963      4.968
  Name = 
  2 active torsions:
  status: ('A' for Active; 'I' for Inactive)
    1  A    between atoms: C_9  and  C_22
    2  A    between atoms: C_15  and  N_23
                            x       y       z     vdW  Elec       q    Type
                         _______ _______ _______ _____ _____    ______ ____

>  <TORSDO>
F 2

$$$$
=
 OpenBabel10272400283D

 31 35  0  0  1  0  0  0  0  0999 V2000
  185.7710  179.1210  146.6420 C   0  0  0  0  0  0  0  0  0  0  0  0
  187.0740  177.9830  143.3480 N   0  0  0  0  0  0  0  0  0  0  0  0
  188.4710  177.6390  143.5520 C   0  0  0  0  0  0  0  0  0  0  0  0
  190.2930  176.8920  144.9890 C   0  0  0  0  0  0  0  0  0  0  0  0
  186.1120  177.9880  144.4780 C   0  0  1  0  0  3  0  0  0  0  0  0
  184.3830  179.0010  146.4520 O   0  0  0  0  0  0  0  0  0  0  0  0
  188.9470  177.2100  144.8030 C   0  0  0  0  0  3  0  0  0  0  0  0
  185.1720  178.4430  141.7290 C   0  0  1  0  0  3  0  0  0  0  0  0
  186.2920  179.7680  147.8730 C   0  0  0  0  0  1  0  0  0  0  0  0
  188.9290  178.0510  141.0820 C   0  0  0  0  0  2  0  0  0  0  0  0
  190.7740  176.4510  146.3250 C   0  0  0  0  0  1  0  0  0  0  0  0
  184.2460  177.9780  142.8370 C   0  0  0  0  0  2  0  0  0  0  0  0
  186.6010  177.9300  141.9460 C   0  0  1  0  0  3  0  0  0  0  0  0
  186.6250  178.7020  145.7030 C   0  0  0  0  0  3  0  0  0  0  0  0
  191.1870  176.9860  143.9220 C   0  0  0  0  0  3  0  0  0  0  0  0
  184.7650  178.6000  144.1030 C   0  0  1  0  0  3  0  0  0  0  0  0
  183.8180  178.4010  145.2790 C   0  0  0  0  0  2  0  0  0  0  0  0
  187.5590  178.7160  141.0620 C   0  0  0  0  0  2  0  0  0  0  0  0
  189.3860  177.7230  142.4740 C   0  0  0  0  0  0  0  0  0  0  0  0
  190.7310  177.3930  142.6670 C   0  0  0  0  0  3  0  0  0  0  0  0
  184.6180  180.0970  139.4800 O   0  0  0  0  0  0  0  0  0  0  0  0
  184.4010  178.8610  139.3500 C   0  0  0  0  0  0  0  0  0  0  0  0
  184.6740  177.9770  140.4430 N   0  0  0  0  0  2  0  0  0  0  0  0
  182.9640  177.2470  135.6400 C   0  0  0  0  0  0  0  0  0  0  0  0
  184.7580  177.6630  137.2060 C   0  0  0  0  0  3  0  0  0  0  0  0
  181.5900  179.0640  138.5320 O   0  0  0  0  0  1  0  0  0  0  0  0
  182.5260  176.7330  134.4650 F   0  0  0  0  0  0  0  0  0  0  0  0
  184.3080  177.1310  135.9940 C   0  0  0  0  0  3  0  0  0  0  0  0
  182.5120  178.4290  137.7090 C   0  0  0  0  0  0  0  0  0  0  0  0
  183.8720  178.3160  138.0780 C   0  0  0  0  0  0  0  0  0  0  0  0
  182.0700  177.8940  136.4940 C   0  0  0  0  0  3  0  0  0  0  0  0
  1  9  1  0  0  0  0
  2  3  1  0  0  0  0
  2  5  1  0  0  0  0
  3  7  1  0  0  0  0
  4 11  1  0  0  0  0
  5 14  1  1  0  0  0
  6  1  1  0  0  0  0
  7  4  2  0  0  0  0
  8 23  1  6  0  0  0
  8 13  1  0  0  0  0
  8 12  1  0  0  0  0
 10 19  1  0  0  0  0
 13 18  1  6  0  0  0
 13  2  1  0  0  0  0
 14  1  2  0  0  0  0
 15  4  1  0  0  0  0
 16 12  1  6  0  0  0
 16  5  1  0  0  0  0
 16 17  1  0  0  0  0
 17  6  1  0  0  0  0
 18 10  1  0  0  0  0
 19 20  1  0  0  0  0
 19  3  2  0  0  0  0
 20 15  2  0  0  0  0
 22 21  2  0  0  0  0
 22 23  1  0  0  0  0
 24 28  2  0  0  0  0
 24 31  1  0  0  0  0
 25 30  2  0  0  0  0
 27 24  1  0  0  0  0
 28 25  1  0  0  0  0
 29 30  1  0  0  0  0
 29 26  1  0  0  0  0
 30 22  1  0  0  0  0
 31 29  2  0  0  0  0
M  END
>  <MODEL>
3

>  <REMARK>
 VINA RESULT:      -8.6      1.012      1.584
  Name = 
  2 active torsions:
  status: ('A' for Active; 'I' for Inactive)
    1  A    between atoms: C_9  and  C_22
    2  A    between atoms: C_15  and  N_23
                            x       y       z     vdW  Elec       q    Type
                         _______ _______ _______ _____ _____    ______ ____

>  <TORSDO>
F 2

$$$$
=
 OpenBabel10272400283D

 31 35  0  0  1  0  0  0  0  0999 V2000
  193.0990  176.5310  137.5970 C   0  0  0  0  0  0  0  0  0  0  0  0
  189.4850  176.6360  138.4730 N   0  0  0  0  0  0  0  0  0  0  0  0
  188.7800  175.9530  137.4010 C   0  0  0  0  0  0  0  0  0  0  0  0
  188.7150  174.3080  135.6030 C   0  0  0  0  0  0  0  0  0  0  0  0
  190.9200  176.3680  138.7400 C   0  0  1  0  0  3  0  0  0  0  0  0
  193.6980  176.7970  138.8420 O   0  0  0  0  0  0  0  0  0  0  0  0
  189.3990  174.9490  136.6360 C   0  0  0  0  0  3  0  0  0  0  0  0
  189.3810  178.1210  140.5310 C   0  0  1  0  0  3  0  0  0  0  0  0
  193.9400  176.4770  136.3730 C   0  0  0  0  0  1  0  0  0  0  0  0
  186.6670  177.2580  137.9650 C   0  0  0  0  0  2  0  0  0  0  0  0
  189.3950  173.2570  134.8020 C   0  0  0  0  0  1  0  0  0  0  0  0
  190.6640  177.4400  140.9670 C   0  0  0  0  0  2  0  0  0  0  0  0
  188.6270  177.2770  139.4950 C   0  0  1  0  0  3  0  0  0  0  0  0
  191.7750  176.3760  137.4980 C   0  0  0  0  0  3  0  0  0  0  0  0
  187.3930  174.6520  135.3230 C   0  0  0  0  0  3  0  0  0  0  0  0
  191.5270  177.3480  139.7390 C   0  0  1  0  0  3  0  0  0  0  0  0
  192.9410  176.8780  140.0560 C   0  0  0  0  0  2  0  0  0  0  0  0
  187.5810  178.1410  138.8050 C   0  0  0  0  0  2  0  0  0  0  0  0
  187.4340  176.2880  137.1130 C   0  0  0  0  0  0  0  0  0  0  0  0
  186.7530  175.6330  136.0820 C   0  0  0  0  0  3  0  0  0  0  0  0
  188.6700  176.1660  142.4720 O   0  0  0  0  0  0  0  0  0  0  0  0
  188.1950  177.3240  142.6250 C   0  0  0  0  0  0  0  0  0  0  0  0
  188.5290  178.3540  141.6870 N   0  0  0  0  0  2  0  0  0  0  0  0
  185.5280  178.2350  145.8640 C   0  0  0  0  0  0  0  0  0  0  0  0
  185.9970  178.0760  143.4980 C   0  0  0  0  0  3  0  0  0  0  0  0
  188.9880  177.0520  145.4370 O   0  0  0  0  0  1  0  0  0  0  0  0
  184.6750  178.5270  146.8750 F   0  0  0  0  0  0  0  0  0  0  0  0
  185.1150  178.3770  144.5390 C   0  0  0  0  0  3  0  0  0  0  0  0
  187.7100  177.4900  145.1110 C   0  0  0  0  0  0  0  0  0  0  0  0
  187.3010  177.6300  143.7660 C   0  0  0  0  0  0  0  0  0  0  0  0
  186.8210  177.7930  146.1490 C   0  0  0  0  0  3  0  0  0  0  0  0
  1  6  1  0  0  0  0
  2  5  1  0  0  0  0
  2 13  1  0  0  0  0
  3  2  1  0  0  0  0
  4  7  1  0  0  0  0
  5 14  1  6  0  0  0
  5 16  1  0  0  0  0
  6 17  1  0  0  0  0
  7  3  2  0  0  0  0
  8 12  1  0  0  0  0
  8 23  1  1  0  0  0
  9  1  1  0  0  0  0
 10 18  1  0  0  0  0
 11  4  1  0  0  0  0
 13 18  1  6  0  0  0
 13  8  1  0  0  0  0
 14  1  2  0  0  0  0
 15  4  2  0  0  0  0
 15 20  1  0  0  0  0
 16 17  1  1  0  0  0
 16 12  1  0  0  0  0
 19  3  1  0  0  0  0
 19 10  1  0  0  0  0
 20 19  2  0  0  0  0
 21 22  2  0  0  0  0
 22 30  1  0  0  0  0
 23 22  1  0  0  0  0
 24 31  1  0  0  0  0
 24 27  1  0  0  0  0
 25 30  2  0  0  0  0
 25 28  1  0  0  0  0
 28 24  2  0  0  0  0
 29 26  1  0  0  0  0
 29 31  2  0  0  0  0
 30 29  1  0  0  0  0
M  END
>  <MODEL>
4

>  <REMARK>
 VINA RESULT:      -8.5      4.257      8.688
  Name = 
  2 active torsions:
  status: ('A' for Active; 'I' for Inactive)
    1  A    between atoms: C_9  and  C_22
    2  A    between atoms: C_15  and  N_23
                            x       y       z     vdW  Elec       q    Type
                         _______ _______ _______ _____ _____    ______ ____

>  <TORSDO>
F 2

$$$$
=
 OpenBabel10272400283D

 31 35  0  0  1  0  0  0  0  0999 V2000
  185.3220  179.1600  143.7130 C   0  0  0  0  0  0  0  0  0  0  0  0
  188.7330  177.6800  143.5730 N   0  0  0  0  0  0  0  0  0  0  0  0
  189.1590  177.4910  144.9490 C   0  0  0  0  0  0  0  0  0  0  0  0
  188.6520  177.1180  147.3040 C   0  0  0  0  0  0  0  0  0  0  0  0
  187.2940  177.7630  143.2190 C   0  0  1  0  0  3  0  0  0  0  0  0
  184.8470  178.8940  142.4170 O   0  0  0  0  0  0  0  0  0  0  0  0
  188.2300  177.2890  145.9850 C   0  0  0  0  0  3  0  0  0  0  0  0
  189.3400  177.7380  141.1070 C   0  0  1  0  0  3  0  0  0  0  0  0
  184.5270  180.0200  144.6270 C   0  0  0  0  0  1  0  0  0  0  0  0
  191.5920  177.5840  144.2040 C   0  0  0  0  0  2  0  0  0  0  0  0
  187.6500  176.9160  148.3830 C   0  0  0  0  0  1  0  0  0  0  0  0
  187.8950  177.3580  140.8430 C   0  0  0  0  0  2  0  0  0  0  0  0
  189.7540  177.3870  142.5410 C   0  0  1  0  0  3  0  0  0  0  0  0
  186.5070  178.6870  144.1140 C   0  0  0  0  0  3  0  0  0  0  0  0
  190.0120  177.1370  147.6100 C   0  0  0  0  0  3  0  0  0  0  0  0
  187.0650  178.1960  141.7740 C   0  0  1  0  0  3  0  0  0  0  0  0
  185.5740  178.0860  141.4830 C   0  0  0  0  0  2  0  0  0  0  0  0
  191.0430  178.1180  142.8870 C   0  0  0  0  0  2  0  0  0  0  0  0
  190.5390  177.5000  145.2710 C   0  0  0  0  0  0  0  0  0  0  0  0
  190.9520  177.3190  146.5940 C   0  0  0  0  0  3  0  0  0  0  0  0
  189.7440  178.4890  138.3920 O   0  0  0  0  0  0  0  0  0  0  0  0
  190.3630  177.4690  138.8030 C   0  0  0  0  0  0  0  0  0  0  0  0
  190.2100  177.0510  140.1630 N   0  0  0  0  0  2  0  0  0  0  0  0
  192.8500  175.2370  136.1070 C   0  0  0  0  0  0  0  0  0  0  0  0
  190.6890  176.1080  136.7530 C   0  0  0  0  0  3  0  0  0  0  0  0
  193.2440  177.1270  139.2420 O   0  0  0  0  0  1  0  0  0  0  0  0
  193.6210  174.5300  135.2470 F   0  0  0  0  0  0  0  0  0  0  0  0
  191.4830  175.3780  135.8650 C   0  0  0  0  0  3  0  0  0  0  0  0
  192.6350  176.5570  138.1300 C   0  0  0  0  0  0  0  0  0  0  0  0
  191.2490  176.7060  137.8930 C   0  0  0  0  0  0  0  0  0  0  0  0
  193.4230  175.8250  137.2360 C   0  0  0  0  0  3  0  0  0  0  0  0
  1 14  2  0  0  0  0
  1  9  1  0  0  0  0
  2  3  1  0  0  0  0
  3 19  2  0  0  0  0
  3  7  1  0  0  0  0
  4 15  1  0  0  0  0
  4 11  1  0  0  0  0
  5  2  1  0  0  0  0
  5 14  1  1  0  0  0
  6  1  1  0  0  0  0
  7  4  2  0  0  0  0
  8 23  1  6  0  0  0
  8 13  1  0  0  0  0
 10 19  1  0  0  0  0
 12  8  1  0  0  0  0
 13 18  1  1  0  0  0
 13  2  1  0  0  0  0
 16 12  1  6  0  0  0
 16  5  1  0  0  0  0
 17 16  1  0  0  0  0
 17  6  1  0  0  0  0
 18 10  1  0  0  0  0
 19 20  1  0  0  0  0
 20 15  2  0  0  0  0
 21 22  2  0  0  0  0
 22 23  1  0  0  0  0
 24 31  1  0  0  0  0
 25 30  2  0  0  0  0
 27 24  1  0  0  0  0
 28 24  2  0  0  0  0
 28 25  1  0  0  0  0
 29 26  1  0  0  0  0
 30 29  1  0  0  0  0
 30 22  1  0  0  0  0
 31 29  2  0  0  0  0
M  END
>  <MODEL>
5

>  <REMARK>
 VINA RESULT:      -8.1      3.656      4.916
  Name = 
  2 active torsions:
  status: ('A' for Active; 'I' for Inactive)
    1  A    between atoms: C_9  and  C_22
    2  A    between atoms: C_15  and  N_23
                            x       y       z     vdW  Elec       q    Type
                         _______ _______ _______ _____ _____    ______ ____

>  <TORSDO>
F 2

$$$$
=
 OpenBabel10272400283D

 31 35  0  0  1  0  0  0  0  0999 V2000
  185.2350  179.1020  143.8730 C   0  0  0  0  0  0  0  0  0  0  0  0
  188.6530  177.6740  143.5190 N   0  0  0  0  0  0  0  0  0  0  0  0
  189.1550  177.4650  144.8670 C   0  0  0  0  0  0  0  0  0  0  0  0
  188.7810  177.0390  147.2380 C   0  0  0  0  0  0  0  0  0  0  0  0
  187.1960  177.7440  143.2460 C   0  0  1  0  0  3  0  0  0  0  0  0
  184.6940  178.8550  142.5990 O   0  0  0  0  0  0  0  0  0  0  0  0
  188.2870  177.2290  145.9470 C   0  0  0  0  0  3  0  0  0  0  0  0
  189.1250  177.7890  141.0260 C   0  0  1  0  0  3  0  0  0  0  0  0
  184.4790  179.9320  144.8460 C   0  0  0  0  0  1  0  0  0  0  0  0
  191.5430  177.6080  143.9940 C   0  0  0  0  0  2  0  0  0  0  0  0
  187.8410  176.8010  148.3650 C   0  0  0  0  0  1  0  0  0  0  0  0
  187.6740  177.3930  140.8330 C   0  0  0  0  0  2  0  0  0  0  0  0
  189.6210  177.4160  142.4290 C   0  0  1  0  0  3  0  0  0  0  0  0
  186.4460  178.6380  144.2000 C   0  0  0  0  0  3  0  0  0  0  0  0
  190.1560  177.0710  147.4710 C   0  0  0  0  0  3  0  0  0  0  0  0
  186.8840  178.2020  141.8240 C   0  0  1  0  0  3  0  0  0  0  0  0
  185.3810  178.0760  141.6110 C   0  0  0  0  0  2  0  0  0  0  0  0
  190.9170  178.1590  142.7200 C   0  0  0  0  0  2  0  0  0  0  0  0
  190.5500  177.4870  145.1140 C   0  0  0  0  0  0  0  0  0  0  0  0
  191.0370  177.2860  146.4100 C   0  0  0  0  0  3  0  0  0  0  0  0
  189.4650  178.6680  138.3410 O   0  0  0  0  0  0  0  0  0  0  0  0
  190.0740  177.6170  138.6820 C   0  0  0  0  0  0  0  0  0  0  0  0
  189.9520  177.1330  140.0240 N   0  0  0  0  0  2  0  0  0  0  0  0
  192.5930  175.4900  135.9310 C   0  0  0  0  0  0  0  0  0  0  0  0
  192.2390  176.5720  138.0630 C   0  0  0  0  0  3  0  0  0  0  0  0
  189.1390  176.7610  136.0350 O   0  0  0  0  0  1  0  0  0  0  0  0
  193.4010  174.8200  135.0740 F   0  0  0  0  0  0  0  0  0  0  0  0
  193.0730  175.8810  137.1810 C   0  0  0  0  0  3  0  0  0  0  0  0
  190.4390  176.4820  136.4400 C   0  0  0  0  0  0  0  0  0  0  0  0
  190.9160  176.8820  137.7090 C   0  0  0  0  0  0  0  0  0  0  0  0
  191.2810  175.7900  135.5620 C   0  0  0  0  0  3  0  0  0  0  0  0
  1 14  2  0  0  0  0
  1  9  1  0  0  0  0
  2  3  1  0  0  0  0
  3 19  2  0  0  0  0
  3  7  1  0  0  0  0
  4 15  1  0  0  0  0
  4 11  1  0  0  0  0
  5  2  1  0  0  0  0
  5 14  1  1  0  0  0
  6  1  1  0  0  0  0
  7  4  2  0  0  0  0
  8 23  1  6  0  0  0
  8 13  1  0  0  0  0
 10 19  1  0  0  0  0
 12  8  1  0  0  0  0
 13 18  1  1  0  0  0
 13  2  1  0  0  0  0
 16 12  1  6  0  0  0
 16  5  1  0  0  0  0
 17 16  1  0  0  0  0
 17  6  1  0  0  0  0
 18 10  1  0  0  0  0
 19 20  1  0  0  0  0
 20 15  2  0  0  0  0
 21 22  2  0  0  0  0
 22 23  1  0  0  0  0
 24 28  1  0  0  0  0
 26 29  1  0  0  0  0
 27 24  1  0  0  0  0
 28 25  2  0  0  0  0
 29 30  2  0  0  0  0
 30 25  1  0  0  0  0
 30 22  1  0  0  0  0
 31 24  2  0  0  0  0
 31 29  1  0  0  0  0
M  END
>  <MODEL>
6

>  <REMARK>
 VINA RESULT:      -7.9      3.412      4.643
  Name = 
  2 active torsions:
  status: ('A' for Active; 'I' for Inactive)
    1  A    between atoms: C_9  and  C_22
    2  A    between atoms: C_15  and  N_23
                            x       y       z     vdW  Elec       q    Type
                         _______ _______ _______ _____ _____    ______ ____

>  <TORSDO>
F 2

$$$$
=
 OpenBabel10272400283D

 31 35  0  0  1  0  0  0  0  0999 V2000
  187.3200  178.1480  136.2230 C   0  0  0  0  0  0  0  0  0  0  0  0
  186.3720  178.1610  139.8200 N   0  0  0  0  0  0  0  0  0  0  0  0
  184.9230  178.0540  139.8670 C   0  0  0  0  0  0  0  0  0  0  0  0
  182.8080  177.3320  138.8920 C   0  0  0  0  0  0  0  0  0  0  0  0
  187.1390  177.6920  138.6400 C   0  0  1  0  0  3  0  0  0  0  0  0
  188.6840  177.8140  136.2920 O   0  0  0  0  0  0  0  0  0  0  0  0
  184.2000  177.4210  138.8410 C   0  0  0  0  0  3  0  0  0  0  0  0
  188.5470  178.6420  141.0400 C   0  0  1  0  0  3  0  0  0  0  0  0
  186.7260  178.5490  134.9210 C   0  0  0  0  0  1  0  0  0  0  0  0
  184.9190  179.1630  142.1590 C   0  0  0  0  0  2  0  0  0  0  0  0
  182.0650  176.6670  137.7900 C   0  0  0  0  0  1  0  0  0  0  0  0
  189.2070  177.7410  140.0150 C   0  0  0  0  0  2  0  0  0  0  0  0
  187.0390  178.3770  141.1240 C   0  0  1  0  0  3  0  0  0  0  0  0
  186.5640  178.1560  137.3250 C   0  0  0  0  0  3  0  0  0  0  0  0
  182.1140  177.8670  139.9780 C   0  0  0  0  0  3  0  0  0  0  0  0
  188.6060  178.1070  138.6860 C   0  0  1  0  0  3  0  0  0  0  0  0
  189.3200  177.4360  137.5200 C   0  0  0  0  0  2  0  0  0  0  0  0
  186.3630  179.5330  141.8500 C   0  0  0  0  0  2  0  0  0  0  0  0
  184.2080  178.5860  140.9680 C   0  0  0  0  0  0  0  0  0  0  0  0
  182.8150  178.4840  141.0160 C   0  0  0  0  0  3  0  0  0  0  0  0
  188.2730  176.2950  142.6250 O   0  0  0  0  0  0  0  0  0  0  0  0
  188.9700  177.2310  143.1030 C   0  0  0  0  0  0  0  0  0  0  0  0
  189.1550  178.4320  142.3460 N   0  0  0  0  0  2  0  0  0  0  0  0
  190.8890  176.8240  146.9230 C   0  0  0  0  0  0  0  0  0  0  0  0
  190.9570  176.7430  144.5080 C   0  0  0  0  0  3  0  0  0  0  0  0
  187.5470  177.6720  145.6320 O   0  0  0  0  0  1  0  0  0  0  0  0
  191.5090  176.6910  148.1200 F   0  0  0  0  0  0  0  0  0  0  0  0
  191.5980  176.6060  145.7420 C   0  0  0  0  0  3  0  0  0  0  0  0
  188.8900  177.3170  145.6400 C   0  0  0  0  0  0  0  0  0  0  0  0
  189.6010  177.0990  144.4370 C   0  0  0  0  0  0  0  0  0  0  0  0
  189.5400  177.1780  146.8710 C   0  0  0  0  0  3  0  0  0  0  0  0
  1  6  1  0  0  0  0
  1 14  2  0  0  0  0
  2  3  1  0  0  0  0
  2 13  1  0  0  0  0
  3 19  1  0  0  0  0
  4 15  2  0  0  0  0
  5 14  1  6  0  0  0
  5 16  1  0  0  0  0
  5  2  1  0  0  0  0
  6 17  1  0  0  0  0
  7  4  1  0  0  0  0
  7  3  2  0  0  0  0
  8 13  1  0  0  0  0
  8 23  1  1  0  0  0
  9  1  1  0  0  0  0
 11  4  1  0  0  0  0
 12  8  1  0  0  0  0
 13 18  1  6  0  0  0
 15 20  1  0  0  0  0
 16 17  1  6  0  0  0
 16 12  1  0  0  0  0
 18 10  1  0  0  0  0
 19 20  2  0  0  0  0
 19 10  1  0  0  0  0
 21 22  2  0  0  0  0
 22 30  1  0  0  0  0
 23 22  1  0  0  0  0
 24 27  1  0  0  0  0
 25 28  1  0  0  0  0
 26 29  1  0  0  0  0
 28 24  2  0  0  0  0
 29 31  2  0  0  0  0
 30 25  2  0  0  0  0
 30 29  1  0  0  0  0
 31 24  1  0  0  0  0
M  END
>  <MODEL>
7

>  <REMARK>
 VINA RESULT:      -7.7      3.581      8.886
  Name = 
  2 active torsions:
  status: ('A' for Active; 'I' for Inactive)
    1  A    between atoms: C_9  and  C_22
    2  A    between atoms: C_15  and  N_23
                            x       y       z     vdW  Elec       q    Type
                         _______ _______ _______ _____ _____    ______ ____

>  <TORSDO>
F 2

$$$$
=
 OpenBabel10272400283D

 31 35  0  0  1  0  0  0  0  0999 V2000
  193.1260  176.4670  137.1940 C   0  0  0  0  0  0  0  0  0  0  0  0
  189.7760  176.7980  138.7790 N   0  0  0  0  0  0  0  0  0  0  0  0
  188.8100  176.3130  137.8080 C   0  0  0  0  0  0  0  0  0  0  0  0
  188.2230  174.9020  135.9090 C   0  0  0  0  0  0  0  0  0  0  0  0
  191.1960  176.3710  138.7270 C   0  0  1  0  0  3  0  0  0  0  0  0
  193.9740  176.5290  138.3140 O   0  0  0  0  0  0  0  0  0  0  0  0
  189.1570  175.3530  136.8420 C   0  0  0  0  0  3  0  0  0  0  0  0
  190.2300  178.0360  140.9500 C   0  0  1  0  0  3  0  0  0  0  0  0
  193.7090  176.4790  135.8280 C   0  0  0  0  0  1  0  0  0  0  0  0
  187.0020  177.7300  138.9060 C   0  0  0  0  0  2  0  0  0  0  0  0
  188.6170  173.8940  134.8900 C   0  0  0  0  0  1  0  0  0  0  0  0
  191.4870  177.1940  141.0530 C   0  0  0  0  0  2  0  0  0  0  0  0
  189.2040  177.3910  140.0090 C   0  0  1  0  0  3  0  0  0  0  0  0
  191.7980  176.4460  137.3460 C   0  0  0  0  0  3  0  0  0  0  0  0
  186.9180  175.3950  135.9320 C   0  0  0  0  0  3  0  0  0  0  0  0
  192.0870  177.1680  139.6750 C   0  0  1  0  0  3  0  0  0  0  0  0
  193.4730  176.5370  139.6570 C   0  0  0  0  0  2  0  0  0  0  0  0
  188.1510  178.4220  139.6270 C   0  0  0  0  0  2  0  0  0  0  0  0
  187.4800  176.8010  137.8270 C   0  0  0  0  0  0  0  0  0  0  0  0
  186.5480  176.3360  136.8950 C   0  0  0  0  0  3  0  0  0  0  0  0
  189.0220  175.9760  142.4970 O   0  0  0  0  0  0  0  0  0  0  0  0
  189.0350  177.1340  142.9960 C   0  0  0  0  0  0  0  0  0  0  0  0
  189.6420  178.2090  142.2700 N   0  0  0  0  0  2  0  0  0  0  0  0
  187.3900  177.8690  146.8930 C   0  0  0  0  0  0  0  0  0  0  0  0
  189.2670  177.3670  145.4560 C   0  0  0  0  0  3  0  0  0  0  0  0
  186.1860  177.6980  143.4180 O   0  0  0  0  0  1  0  0  0  0  0  0
  186.8860  178.0980  148.1300 F   0  0  0  0  0  0  0  0  0  0  0  0
  188.7500  177.6040  146.7320 C   0  0  0  0  0  3  0  0  0  0  0  0
  187.0580  177.6600  144.4990 C   0  0  0  0  0  0  0  0  0  0  0  0
  188.4350  177.3910  144.3260 C   0  0  0  0  0  0  0  0  0  0  0  0
  186.5470  177.8970  145.7800 C   0  0  0  0  0  3  0  0  0  0  0  0
  1 14  2  0  0  0  0
  1  6  1  0  0  0  0
  2 13  1  0  0  0  0
  3 19  1  0  0  0  0
  3  2  1  0  0  0  0
  4 15  2  0  0  0  0
  4  7  1  0  0  0  0
  5 14  1  6  0  0  0
  5  2  1  0  0  0  0
  5 16  1  0  0  0  0
  6 17  1  0  0  0  0
  7  3  2  0  0  0  0
  8 12  1  0  0  0  0
  8 23  1  1  0  0  0
  9  1  1  0  0  0  0
 10 18  1  0  0  0  0
 11  4  1  0  0  0  0
 13 18  1  6  0  0  0
 13  8  1  0  0  0  0
 15 20  1  0  0  0  0
 16 17  1  1  0  0  0
 16 12  1  0  0  0  0
 19 10  1  0  0  0  0
 20 19  2  0  0  0  0
 21 22  2  0  0  0  0
 22 30  1  0  0  0  0
 23 22  1  0  0  0  0
 24 27  1  0  0  0  0
 25 28  2  0  0  0  0
 26 29  1  0  0  0  0
 28 24  1  0  0  0  0
 29 31  1  0  0  0  0
 30 29  2  0  0  0  0
 30 25  1  0  0  0  0
 31 24  2  0  0  0  0
M  END
>  <MODEL>
8

>  <REMARK>
 VINA RESULT:      -7.7      4.342      9.023
  Name = 
  2 active torsions:
  status: ('A' for Active; 'I' for Inactive)
    1  A    between atoms: C_9  and  C_22
    2  A    between atoms: C_15  and  N_23
                            x       y       z     vdW  Elec       q    Type
                         _______ _______ _______ _____ _____    ______ ____

>  <TORSDO>
F 2

$$$$
=
 OpenBabel10272400283D

 31 35  0  0  1  0  0  0  0  0999 V2000
  189.3750  177.4230  136.5050 C   0  0  0  0  0  0  0  0  0  0  0  0
  187.0810  177.8830  139.3970 N   0  0  0  0  0  0  0  0  0  0  0  0
  185.7290  177.7920  138.8720 C   0  0  0  0  0  0  0  0  0  0  0  0
  184.1370  176.9730  137.2180 C   0  0  0  0  0  0  0  0  0  0  0  0
  188.2250  177.2670  138.6810 C   0  0  1  0  0  3  0  0  0  0  0  0
  190.5790  177.0900  137.1510 O   0  0  0  0  0  0  0  0  0  0  0  0
  185.4370  177.0440  137.7180 C   0  0  0  0  0  3  0  0  0  0  0  0
  188.6180  178.4930  141.3250 C   0  0  1  0  0  3  0  0  0  0  0  0
  189.3690  177.6660  135.0390 C   0  0  0  0  0  1  0  0  0  0  0  0
  184.8780  179.1730  140.8350 C   0  0  0  0  0  2  0  0  0  0  0  0
  183.8560  176.1840  135.9900 C   0  0  0  0  0  1  0  0  0  0  0  0
  189.5790  177.4680  140.7550 C   0  0  0  0  0  2  0  0  0  0  0  0
  187.1870  178.2520  140.8280 C   0  0  1  0  0  3  0  0  0  0  0  0
  188.2450  177.5710  137.2040 C   0  0  0  0  0  3  0  0  0  0  0  0
  183.1000  177.6410  137.8690 C   0  0  0  0  0  3  0  0  0  0  0  0
  189.5750  177.6740  139.2660 C   0  0  1  0  0  3  0  0  0  0  0  0
  190.6540  176.8600  138.5640 C   0  0  0  0  0  2  0  0  0  0  0  0
  186.3450  179.4920  141.0910 C   0  0  0  0  0  2  0  0  0  0  0  0
  184.6670  178.4600  139.5300 C   0  0  0  0  0  0  0  0  0  0  0  0
  183.3650  178.3760  139.0270 C   0  0  0  0  0  3  0  0  0  0  0  0
  187.8890  176.2410  142.9050 O   0  0  0  0  0  0  0  0  0  0  0  0
  188.2530  177.2790  143.5210 C   0  0  0  0  0  0  0  0  0  0  0  0
  188.6460  178.4400  142.7800 N   0  0  0  0  0  2  0  0  0  0  0  0
  188.2450  177.3870  147.8130 C   0  0  0  0  0  0  0  0  0  0  0  0
  187.1170  177.6630  145.6940 C   0  0  0  0  0  3  0  0  0  0  0  0
  190.6310  176.6290  145.1140 O   0  0  0  0  0  1  0  0  0  0  0  0
  188.2270  177.4270  149.1680 F   0  0  0  0  0  0  0  0  0  0  0  0
  187.0950  177.7040  147.0900 C   0  0  0  0  0  3  0  0  0  0  0  0
  189.4460  176.9890  145.7440 C   0  0  0  0  0  0  0  0  0  0  0  0
  188.2850  177.3070  145.0020 C   0  0  0  0  0  0  0  0  0  0  0  0
  189.4160  177.0310  147.1420 C   0  0  0  0  0  3  0  0  0  0  0  0
  1  6  1  0  0  0  0
  1 14  2  0  0  0  0
  2 13  1  0  0  0  0
  3  2  1  0  0  0  0
  3 19  1  0  0  0  0
  4  7  1  0  0  0  0
  4 15  2  0  0  0  0
  5 14  1  6  0  0  0
  5 16  1  0  0  0  0
  5  2  1  0  0  0  0
  6 17  1  0  0  0  0
  7  3  2  0  0  0  0
  8 23  1  1  0  0  0
  9  1  1  0  0  0  0
 10 18  1  0  0  0  0
 11  4  1  0  0  0  0
 12  8  1  0  0  0  0
 13 18  1  6  0  0  0
 13  8  1  0  0  0  0
 15 20  1  0  0  0  0
 16 17  1  6  0  0  0
 16 12  1  0  0  0  0
 19 10  1  0  0  0  0
 20 19  2  0  0  0  0
 21 22  2  0  0  0  0
 22 30  1  0  0  0  0
 23 22  1  0  0  0  0
 24 27  1  0  0  0  0
 25 28  1  0  0  0  0
 26 29  1  0  0  0  0
 28 24  2  0  0  0  0
 29 31  2  0  0  0  0
 30 25  2  0  0  0  0
 30 29  1  0  0  0  0
 31 24  1  0  0  0  0
M  END
>  <MODEL>
9

>  <REMARK>
 VINA RESULT:      -7.6      3.712      8.923
  Name = 
  2 active torsions:
  status: ('A' for Active; 'I' for Inactive)
    1  A    between atoms: C_9  and  C_22
    2  A    between atoms: C_15  and  N_23
                            x       y       z     vdW  Elec       q    Type
                         _______ _______ _______ _____ _____    ______ ____

>  <TORSDO>
F 2

$$$$
