=
 OpenBabel10272415313D

 34 39  0  0  1  0  0  0  0  0999 V2000
  186.2730  178.4230  141.8230 C   0  0  0  0  0  0  0  0  0  0  0  0
  184.4370  178.9810  143.4810 C   0  0  0  0  0  0  0  0  0  0  0  0
  186.2990  178.2450  144.8850 N   0  0  0  0  0  0  0  0  0  0  0  0
  188.0690  177.9650  140.4500 C   0  0  2  0  0  3  0  0  0  0  0  0
  186.7220  178.4180  140.5130 O   0  0  0  0  0  0  0  0  0  0  0  0
  188.5160  177.8270  141.9090 C   0  0  2  0  0  3  0  0  0  0  0  0
  188.9230  176.1340  143.7240 C   0  0  0  0  0  3  0  0  0  0  0  0
  188.9260  176.3870  142.2310 C   0  0  0  0  0  2  0  0  0  0  0  0
  187.1510  177.7160  144.0590 C   0  0  0  0  0  0  0  0  0  0  0  0
  187.2650  178.1350  142.6530 C   0  0  0  0  0  0  0  0  0  0  0  0
  188.0800  176.7270  144.5270 N   0  0  0  0  0  0  0  0  0  0  0  0
  183.0760  179.1110  143.7650 C   0  0  0  0  0  3  0  0  0  0  0  0
  182.1100  178.8540  142.7840 C   0  0  0  0  0  0  0  0  0  0  0  0
  182.5230  178.4780  141.5010 C   0  0  0  0  0  3  0  0  0  0  0  0
  185.4170  179.3550  144.5470 C   0  0  0  0  0  2  0  0  0  0  0  0
  183.8820  178.3520  141.2060 C   0  0  0  0  0  3  0  0  0  0  0  0
  184.8510  178.5990  142.1860 C   0  0  0  0  0  0  0  0  0  0  0  0
  180.6760  178.9900  143.0960 C   0  0  0  0  0  0  0  0  0  0  0  0
  180.0160  177.9980  143.5030 O   0  0  0  0  0  0  0  0  0  0  0  0
  180.0200  180.2460  142.9400 N   0  0  0  0  0  1  0  0  0  0  0  0
  188.9900  178.8820  139.6180 C   0  0  0  0  0  2  0  0  0  0  0  0
  189.3090  177.0900  138.0280 C   0  0  2  0  0  3  0  0  0  0  0  0
  188.1010  178.9910  137.3440 C   0  0  0  0  0  2  0  0  0  0  0  0
  187.1930  175.3420  135.4040 N   0  0  0  0  0  0  0  0  0  0  0  0
  186.2860  176.4330  135.2090 C   0  0  0  0  0  0  0  0  0  0  0  0
  188.1210  175.3810  136.5290 C   0  0  1  0  0  3  0  0  0  0  0  0
  185.3720  176.3710  134.3460 O   0  0  0  0  0  0  0  0  0  0  0  0
  188.7870  176.7720  136.6390 C   0  0  1  0  0  3  0  0  0  0  0  0
  187.2410  174.2250  134.4760 C   0  0  0  0  0  1  0  0  0  0  0  0
  186.4330  177.6480  136.0610 C   0  0  0  0  0  2  0  0  0  0  0  0
  187.9170  177.9690  136.2400 C   0  0  1  0  0  3  0  0  0  0  0  0
  187.4380  175.0510  137.7020 O   0  0  0  0  0  1  0  0  0  0  0  0
  189.1930  178.5340  138.1990 N   0  0  0  0  0  0  0  0  0  0  0  0
  190.7620  176.6680  138.1370 C   0  0  0  0  0  1  0  0  0  0  0  0
  1 17  1  0  0  0  0
  1 10  2  0  0  0  0
  2 12  1  0  0  0  0
  2 15  1  0  0  0  0
  4 21  1  6  0  0  0
  4  5  1  0  0  0  0
  4  6  1  0  0  0  0
  5  1  1  0  0  0  0
  6  8  1  6  0  0  0
  6 10  1  0  0  0  0
  7 11  2  0  0  0  0
  8  7  1  0  0  0  0
  9 11  1  0  0  0  0
  9  3  2  0  0  0  0
 10  9  1  0  0  0  0
 13 18  1  0  0  0  0
 13 12  2  0  0  0  0
 14 13  1  0  0  0  0
 15  3  1  0  0  0  0
 16 14  2  0  0  0  0
 16 17  1  0  0  0  0
 17  2  2  0  0  0  0
 18 19  2  0  0  0  0
 20 18  1  0  0  0  0
 22 34  1  6  0  0  0
 22 33  1  0  0  0  0
 23 33  1  0  0  0  0
 24 26  1  0  0  0  0
 25 24  1  0  0  0  0
 25 30  1  0  0  0  0
 26 28  1  0  0  0  0
 26 32  1  1  0  0  0
 27 25  2  0  0  0  0
 28 22  1  0  0  0  0
 29 24  1  0  0  0  0
 30 31  1  0  0  0  0
 31 28  1  0  0  0  0
 31 23  1  0  0  0  0
 33 21  1  0  0  0  0
M  END
>  <MODEL>
1

>  <REMARK>
 VINA RESULT:      -8.2      0.000      0.000
  Name = 
  3 active torsions:
  status: ('A' for Active; 'I' for Inactive)
    1  A    between atoms: C_3  and  C_25
    2  A    between atoms: C_8  and  C_18
    3  A    between atoms: C_18  and  N_30
                            x       y       z     vdW  Elec       q    Type
                         _______ _______ _______ _____ _____    ______ ____

>  <TORSDO>
F 3

$$$$
=
 OpenBabel10272415313D

 34 39  0  0  1  0  0  0  0  0999 V2000
  188.6690  177.7500  140.9610 C   0  0  0  0  0  0  0  0  0  0  0  0
  189.8350  177.8830  143.2090 C   0  0  0  0  0  0  0  0  0  0  0  0
  191.6400  177.3920  141.6350 N   0  0  0  0  0  0  0  0  0  0  0  0
  187.7720  177.6910  138.8380 C   0  0  2  0  0  3  0  0  0  0  0  0
  187.5100  177.9010  140.2200 O   0  0  0  0  0  0  0  0  0  0  0  0
  189.2920  177.5420  138.7350 C   0  0  2  0  0  3  0  0  0  0  0  0
  191.1230  175.8370  138.4730 C   0  0  0  0  0  3  0  0  0  0  0  0
  189.6810  176.1770  138.1600 C   0  0  0  0  0  2  0  0  0  0  0  0
  191.0390  177.0680  140.5290 C   0  0  0  0  0  0  0  0  0  0  0  0
  189.7120  177.5860  140.1610 C   0  0  0  0  0  0  0  0  0  0  0  0
  191.7040  176.2270  139.5760 N   0  0  0  0  0  0  0  0  0  0  0  0
  189.7780  177.7610  144.6000 C   0  0  0  0  0  3  0  0  0  0  0  0
  188.5860  177.4040  145.2410 C   0  0  0  0  0  0  0  0  0  0  0  0
  187.4370  177.1820  144.4730 C   0  0  0  0  0  3  0  0  0  0  0  0
  191.1150  178.3540  142.5970 C   0  0  0  0  0  2  0  0  0  0  0  0
  187.4830  177.3080  143.0830 C   0  0  0  0  0  3  0  0  0  0  0  0
  188.6750  177.6580  142.4370 C   0  0  0  0  0  0  0  0  0  0  0  0
  188.5380  177.2730  146.7080 C   0  0  0  0  0  0  0  0  0  0  0  0
  189.4030  176.5870  147.3150 O   0  0  0  0  0  0  0  0  0  0  0  0
  187.5130  177.9220  147.4570 N   0  0  0  0  0  1  0  0  0  0  0  0
  187.2060  178.8000  137.9260 C   0  0  0  0  0  2  0  0  0  0  0  0
  185.6790  177.3430  136.7490 C   0  0  2  0  0  3  0  0  0  0  0  0
  184.8290  178.6940  138.4790 C   0  0  0  0  0  2  0  0  0  0  0  0
  182.7780  175.0800  137.6830 N   0  0  0  0  0  0  0  0  0  0  0  0
  182.4540  175.7650  138.8990 C   0  0  0  0  0  0  0  0  0  0  0  0
  184.0250  175.3990  136.9970 C   0  0  1  0  0  3  0  0  0  0  0  0
  181.4680  175.4150  139.5990 O   0  0  0  0  0  0  0  0  0  0  0  0
  184.2300  176.9300  136.9230 C   0  0  1  0  0  3  0  0  0  0  0  0
  181.8660  174.1120  137.0970 C   0  0  0  0  0  1  0  0  0  0  0  0
  183.3180  176.9000  139.3340 C   0  0  0  0  0  2  0  0  0  0  0  0
  183.7090  177.7380  138.1170 C   0  0  1  0  0  3  0  0  0  0  0  0
  185.0870  174.7770  137.6570 O   0  0  0  0  0  1  0  0  0  0  0  0
  185.8320  178.6300  137.4200 N   0  0  0  0  0  0  0  0  0  0  0  0
  185.9970  177.4850  135.2720 C   0  0  0  0  0  1  0  0  0  0  0  0
  1 17  1  0  0  0  0
  2 12  1  0  0  0  0
  3 15  1  0  0  0  0
  4 21  1  6  0  0  0
  4  5  1  0  0  0  0
  5  1  1  0  0  0  0
  6  8  1  1  0  0  0
  6  4  1  0  0  0  0
  6 10  1  0  0  0  0
  7 11  2  0  0  0  0
  8  7  1  0  0  0  0
  9  3  2  0  0  0  0
 10  9  1  0  0  0  0
 10  1  2  0  0  0  0
 11  9  1  0  0  0  0
 12 13  2  0  0  0  0
 13 18  1  0  0  0  0
 14 13  1  0  0  0  0
 15  2  1  0  0  0  0
 16 14  2  0  0  0  0
 17 16  1  0  0  0  0
 17  2  2  0  0  0  0
 18 19  2  0  0  0  0
 18 20  1  0  0  0  0
 22 34  1  6  0  0  0
 22 28  1  0  0  0  0
 22 33  1  0  0  0  0
 24 25  1  0  0  0  0
 25 30  1  0  0  0  0
 25 27  2  0  0  0  0
 26 32  1  1  0  0  0
 26 24  1  0  0  0  0
 28 26  1  0  0  0  0
 28 31  1  0  0  0  0
 29 24  1  0  0  0  0
 31 23  1  0  0  0  0
 31 30  1  0  0  0  0
 33 21  1  0  0  0  0
 33 23  1  0  0  0  0
M  END
>  <MODEL>
2

>  <REMARK>
 VINA RESULT:      -8.2      3.015      5.374
  Name = 
  3 active torsions:
  status: ('A' for Active; 'I' for Inactive)
    1  A    between atoms: C_3  and  C_25
    2  A    between atoms: C_8  and  C_18
    3  A    between atoms: C_18  and  N_30
                            x       y       z     vdW  Elec       q    Type
                         _______ _______ _______ _____ _____    ______ ____

>  <TORSDO>
F 3

$$$$
=
 OpenBabel10272415313D

 34 39  0  0  1  0  0  0  0  0999 V2000
  188.8130  177.7220  141.0780 C   0  0  0  0  0  0  0  0  0  0  0  0
  189.8410  178.0180  143.3770 C   0  0  0  0  0  0  0  0  0  0  0  0
  191.7700  177.7680  141.8950 N   0  0  0  0  0  0  0  0  0  0  0  0
  188.0350  177.5360  138.9150 C   0  0  2  0  0  3  0  0  0  0  0  0
  187.6810  177.7140  140.2810 O   0  0  0  0  0  0  0  0  0  0  0  0
  189.5650  177.5930  138.8860 C   0  0  2  0  0  3  0  0  0  0  0  0
  191.6170  176.1470  138.7280 C   0  0  0  0  0  3  0  0  0  0  0  0
  190.1600  176.2900  138.3430 C   0  0  0  0  0  2  0  0  0  0  0  0
  191.2710  177.3630  140.7650 C   0  0  0  0  0  0  0  0  0  0  0  0
  189.9060  177.6970  140.3300 C   0  0  0  0  0  0  0  0  0  0  0  0
  192.0880  176.6150  139.8520 N   0  0  0  0  0  0  0  0  0  0  0  0
  189.7340  177.8940  144.7650 C   0  0  0  0  0  3  0  0  0  0  0  0
  188.5710  177.3810  145.3530 C   0  0  0  0  0  0  0  0  0  0  0  0
  187.5000  177.0060  144.5330 C   0  0  0  0  0  3  0  0  0  0  0  0
  191.0750  178.6540  142.8220 C   0  0  0  0  0  2  0  0  0  0  0  0
  187.5960  177.1320  143.1460 C   0  0  0  0  0  3  0  0  0  0  0  0
  188.7600  177.6370  142.5530 C   0  0  0  0  0  0  0  0  0  0  0  0
  188.4700  177.2500  146.8170 C   0  0  0  0  0  0  0  0  0  0  0  0
  189.2790  176.5200  147.4480 O   0  0  0  0  0  0  0  0  0  0  0  0
  187.4570  177.9490  147.5350 N   0  0  0  0  0  1  0  0  0  0  0  0
  187.3710  178.5570  137.9670 C   0  0  0  0  0  2  0  0  0  0  0  0
  186.9490  176.7620  136.4050 C   0  0  2  0  0  3  0  0  0  0  0  0
  185.1080  177.8090  137.4310 C   0  0  0  0  0  2  0  0  0  0  0  0
  184.5950  173.7900  136.2130 N   0  0  0  0  0  0  0  0  0  0  0  0
  183.6010  174.3460  137.0820 C   0  0  0  0  0  0  0  0  0  0  0  0
  185.8950  174.4430  136.1120 C   0  0  1  0  0  3  0  0  0  0  0  0
  182.5250  173.7330  137.3130 O   0  0  0  0  0  0  0  0  0  0  0  0
  185.7290  175.9730  135.9700 C   0  0  1  0  0  3  0  0  0  0  0  0
  184.3140  172.6230  135.3940 C   0  0  0  0  0  1  0  0  0  0  0  0
  183.8670  175.6640  137.7260 C   0  0  0  0  0  2  0  0  0  0  0  0
  184.5450  176.5940  136.7210 C   0  0  1  0  0  3  0  0  0  0  0  0
  186.6630  174.1180  137.2320 O   0  0  0  0  0  1  0  0  0  0  0  0
  186.4620  178.0320  136.9320 N   0  0  0  0  0  0  0  0  0  0  0  0
  187.8520  177.0070  135.2100 C   0  0  0  0  0  1  0  0  0  0  0  0
  1 17  1  0  0  0  0
  2 12  1  0  0  0  0
  3 15  1  0  0  0  0
  4 21  1  6  0  0  0
  4  5  1  0  0  0  0
  5  1  1  0  0  0  0
  6  8  1  1  0  0  0
  6  4  1  0  0  0  0
  6 10  1  0  0  0  0
  7 11  2  0  0  0  0
  8  7  1  0  0  0  0
  9  3  2  0  0  0  0
 10  9  1  0  0  0  0
 10  1  2  0  0  0  0
 11  9  1  0  0  0  0
 12 13  2  0  0  0  0
 13 18  1  0  0  0  0
 14 13  1  0  0  0  0
 15  2  1  0  0  0  0
 16 14  2  0  0  0  0
 17 16  1  0  0  0  0
 17  2  2  0  0  0  0
 18 19  2  0  0  0  0
 18 20  1  0  0  0  0
 22 34  1  6  0  0  0
 22 33  1  0  0  0  0
 24 25  1  0  0  0  0
 25 27  2  0  0  0  0
 25 30  1  0  0  0  0
 26 24  1  0  0  0  0
 26 32  1  1  0  0  0
 28 26  1  0  0  0  0
 28 22  1  0  0  0  0
 28 31  1  0  0  0  0
 29 24  1  0  0  0  0
 31 23  1  0  0  0  0
 31 30  1  0  0  0  0
 33 23  1  0  0  0  0
 33 21  1  0  0  0  0
M  END
>  <MODEL>
3

>  <REMARK>
 VINA RESULT:      -8.1      3.501      4.976
  Name = 
  3 active torsions:
  status: ('A' for Active; 'I' for Inactive)
    1  A    between atoms: C_3  and  C_25
    2  A    between atoms: C_8  and  C_18
    3  A    between atoms: C_18  and  N_30
                            x       y       z     vdW  Elec       q    Type
                         _______ _______ _______ _____ _____    ______ ____

>  <TORSDO>
F 3

$$$$
=
 OpenBabel10272415313D

 34 39  0  0  1  0  0  0  0  0999 V2000
  182.4930  178.1980  141.1300 C   0  0  0  0  0  0  0  0  0  0  0  0
  182.7620  178.7020  143.6010 C   0  0  0  0  0  0  0  0  0  0  0  0
  180.7290  179.9040  142.9710 N   0  0  0  0  0  0  0  0  0  0  0  0
  182.0600  177.7580  138.9080 C   0  0  2  0  0  3  0  0  0  0  0  0
  182.9210  177.5040  140.0110 O   0  0  0  0  0  0  0  0  0  0  0  0
  180.9040  178.5820  139.4820 C   0  0  2  0  0  3  0  0  0  0  0  0
  180.0020  180.9260  139.6370 C   0  0  0  0  0  3  0  0  0  0  0  0
  180.8040  179.9510  138.8010 C   0  0  0  0  0  2  0  0  0  0  0  0
  180.7120  179.8730  141.6720 C   0  0  0  0  0  0  0  0  0  0  0  0
  181.3330  178.7910  140.8910 C   0  0  0  0  0  0  0  0  0  0  0  0
  180.0070  180.8880  140.9420 N   0  0  0  0  0  0  0  0  0  0  0  0
  183.5950  178.8380  144.7140 C   0  0  0  0  0  3  0  0  0  0  0  0
  184.9770  178.6340  144.6070 C   0  0  0  0  0  0  0  0  0  0  0  0
  185.5200  178.2740  143.3680 C   0  0  0  0  0  3  0  0  0  0  0  0
  181.2880  178.8460  143.8040 C   0  0  0  0  0  2  0  0  0  0  0  0
  184.6940  178.1290  142.2510 C   0  0  0  0  0  3  0  0  0  0  0  0
  183.3130  178.3400  142.3520 C   0  0  0  0  0  0  0  0  0  0  0  0
  185.8470  178.7850  145.7860 C   0  0  0  0  0  0  0  0  0  0  0  0
  185.5070  179.5380  146.7360 O   0  0  0  0  0  0  0  0  0  0  0  0
  187.0830  178.0800  145.8650 N   0  0  0  0  0  1  0  0  0  0  0  0
  181.5920  176.4780  138.1840 C   0  0  0  0  0  2  0  0  0  0  0  0
  183.2250  177.1110  136.5190 C   0  0  2  0  0  3  0  0  0  0  0  0
  183.2280  174.8930  137.3030 C   0  0  0  0  0  2  0  0  0  0  0  0
  186.9070  176.4340  135.8920 N   0  0  0  0  0  0  0  0  0  0  0  0
  186.9480  175.2050  136.6270 C   0  0  0  0  0  0  0  0  0  0  0  0
  185.7300  177.2880  136.0010 C   0  0  1  0  0  3  0  0  0  0  0  0
  188.0000  174.5150  136.6800 O   0  0  0  0  0  0  0  0  0  0  0  0
  184.4360  176.4510  135.8870 C   0  0  1  0  0  3  0  0  0  0  0  0
  187.9910  176.8180  135.0040 C   0  0  0  0  0  1  0  0  0  0  0  0
  185.7200  174.7580  137.3460 C   0  0  0  0  0  2  0  0  0  0  0  0
  184.4920  175.0380  136.4800 C   0  0  1  0  0  3  0  0  0  0  0  0
  185.7780  177.9870  137.2090 O   0  0  0  0  0  1  0  0  0  0  0  0
  182.3700  176.0370  137.0110 N   0  0  0  0  0  0  0  0  0  0  0  0
  182.4850  177.9280  135.4750 C   0  0  0  0  0  1  0  0  0  0  0  0
  1 17  1  0  0  0  0
  2 15  1  0  0  0  0
  2 12  1  0  0  0  0
  3 15  1  0  0  0  0
  4 21  1  1  0  0  0
  4  6  1  0  0  0  0
  4  5  1  0  0  0  0
  5  1  1  0  0  0  0
  6  8  1  6  0  0  0
  6 10  1  0  0  0  0
  7 11  2  0  0  0  0
  8  7  1  0  0  0  0
  9  3  2  0  0  0  0
 10  1  2  0  0  0  0
 10  9  1  0  0  0  0
 11  9  1  0  0  0  0
 13 12  2  0  0  0  0
 13 18  1  0  0  0  0
 14 13  1  0  0  0  0
 16 17  1  0  0  0  0
 16 14  2  0  0  0  0
 17  2  2  0  0  0  0
 18 20  1  0  0  0  0
 18 19  2  0  0  0  0
 22 34  1  6  0  0  0
 22 33  1  0  0  0  0
 24 26  1  0  0  0  0
 24 25  1  0  0  0  0
 25 27  2  0  0  0  0
 25 30  1  0  0  0  0
 26 32  1  1  0  0  0
 28 26  1  0  0  0  0
 28 31  1  0  0  0  0
 28 22  1  0  0  0  0
 29 24  1  0  0  0  0
 31 23  1  0  0  0  0
 31 30  1  0  0  0  0
 33 23  1  0  0  0  0
 33 21  1  0  0  0  0
M  END
>  <MODEL>
4

>  <REMARK>
 VINA RESULT:      -7.9      2.663      5.768
  Name = 
  3 active torsions:
  status: ('A' for Active; 'I' for Inactive)
    1  A    between atoms: C_3  and  C_25
    2  A    between atoms: C_8  and  C_18
    3  A    between atoms: C_18  and  N_30
                            x       y       z     vdW  Elec       q    Type
                         _______ _______ _______ _____ _____    ______ ____

>  <TORSDO>
F 3

$$$$
=
 OpenBabel10272415313D

 34 39  0  0  1  0  0  0  0  0999 V2000
  186.4200  178.0380  138.7930 C   0  0  0  0  0  0  0  0  0  0  0  0
  184.1830  177.3150  137.8430 C   0  0  0  0  0  0  0  0  0  0  0  0
  185.8230  176.1850  136.4230 N   0  0  0  0  0  0  0  0  0  0  0  0
  188.5250  178.5290  139.5990 C   0  0  2  0  0  3  0  0  0  0  0  0
  187.1250  178.7080  139.7790 O   0  0  0  0  0  0  0  0  0  0  0  0
  188.6570  177.5140  138.4600 C   0  0  2  0  0  3  0  0  0  0  0  0
  189.1740  177.3170  136.0060 C   0  0  0  0  0  3  0  0  0  0  0  0
  189.4260  178.1040  137.2750 C   0  0  0  0  0  2  0  0  0  0  0  0
  186.9600  176.7370  136.7240 C   0  0  0  0  0  0  0  0  0  0  0  0
  187.2420  177.3150  138.0480 C   0  0  0  0  0  0  0  0  0  0  0  0
  188.0300  176.7350  135.7670 N   0  0  0  0  0  0  0  0  0  0  0  0
  182.8250  177.5720  137.6410 C   0  0  0  0  0  3  0  0  0  0  0  0
  182.2360  178.7440  138.1330 C   0  0  0  0  0  0  0  0  0  0  0  0
  183.0210  179.6560  138.8460 C   0  0  0  0  0  3  0  0  0  0  0  0
  184.7280  176.0050  137.3700 C   0  0  0  0  0  2  0  0  0  0  0  0
  184.3780  179.4040  139.0580 C   0  0  0  0  0  3  0  0  0  0  0  0
  184.9740  178.2380  138.5610 C   0  0  0  0  0  0  0  0  0  0  0  0
  180.8030  179.0070  137.9110 C   0  0  0  0  0  0  0  0  0  0  0  0
  180.2200  179.9280  138.5430 O   0  0  0  0  0  0  0  0  0  0  0  0
  180.0610  178.2240  136.9800 N   0  0  0  0  0  1  0  0  0  0  0  0
  189.2620  178.0980  140.8850 C   0  0  0  0  0  2  0  0  0  0  0  0
  189.3210  177.0020  143.0380 C   0  0  2  0  0  3  0  0  0  0  0  0
  187.2710  177.8780  142.2840 C   0  0  0  0  0  2  0  0  0  0  0  0
  187.8200  177.6170  146.4700 N   0  0  0  0  0  0  0  0  0  0  0  0
  186.7150  178.3980  146.0000 C   0  0  0  0  0  0  0  0  0  0  0  0
  188.9060  177.2960  145.5520 C   0  0  1  0  0  3  0  0  0  0  0  0
  185.8360  178.8230  146.7940 O   0  0  0  0  0  0  0  0  0  0  0  0
  188.3480  176.8280  144.1890 C   0  0  1  0  0  3  0  0  0  0  0  0
  187.8520  177.0970  147.8270 C   0  0  0  0  0  1  0  0  0  0  0  0
  186.6300  178.7160  144.5460 C   0  0  0  0  0  2  0  0  0  0  0  0
  187.0430  177.4900  143.7310 C   0  0  1  0  0  3  0  0  0  0  0  0
  189.7320  178.4130  145.4050 O   0  0  0  0  0  1  0  0  0  0  0  0
  188.5210  177.2620  141.8460 N   0  0  0  0  0  0  0  0  0  0  0  0
  190.1300  175.7320  142.8550 C   0  0  0  0  0  1  0  0  0  0  0  0
  1  5  1  0  0  0  0
  2 17  1  0  0  0  0
  3  9  2  0  0  0  0
  3 15  1  0  0  0  0
  4  5  1  0  0  0  0
  4 21  1  1  0  0  0
  6  8  1  6  0  0  0
  6  4  1  0  0  0  0
  7  8  1  0  0  0  0
  9 10  1  0  0  0  0
 10  6  1  0  0  0  0
 10  1  2  0  0  0  0
 11  7  2  0  0  0  0
 11  9  1  0  0  0  0
 12  2  2  0  0  0  0
 12 13  1  0  0  0  0
 13 14  2  0  0  0  0
 14 16  1  0  0  0  0
 15  2  1  0  0  0  0
 17  1  1  0  0  0  0
 17 16  2  0  0  0  0
 18 13  1  0  0  0  0
 18 19  2  0  0  0  0
 20 18  1  0  0  0  0
 21 33  1  0  0  0  0
 22 34  1  6  0  0  0
 22 28  1  0  0  0  0
 23 31  1  0  0  0  0
 24 29  1  0  0  0  0
 25 24  1  0  0  0  0
 25 27  2  0  0  0  0
 26 32  1  6  0  0  0
 26 24  1  0  0  0  0
 28 26  1  0  0  0  0
 30 25  1  0  0  0  0
 31 28  1  0  0  0  0
 31 30  1  0  0  0  0
 33 23  1  0  0  0  0
 33 22  1  0  0  0  0
M  END
>  <MODEL>
5

>  <REMARK>
 VINA RESULT:      -7.9      2.908      6.992
  Name = 
  3 active torsions:
  status: ('A' for Active; 'I' for Inactive)
    1  A    between atoms: C_3  and  C_25
    2  A    between atoms: C_8  and  C_18
    3  A    between atoms: C_18  and  N_30
                            x       y       z     vdW  Elec       q    Type
                         _______ _______ _______ _____ _____    ______ ____

>  <TORSDO>
F 3

$$$$
=
 OpenBabel10272415313D

 34 39  0  0  1  0  0  0  0  0999 V2000
  187.1080  176.7060  137.7620 C   0  0  0  0  0  0  0  0  0  0  0  0
  185.7090  174.9610  136.5660 C   0  0  0  0  0  0  0  0  0  0  0  0
  187.9850  174.0740  136.4530 N   0  0  0  0  0  0  0  0  0  0  0  0
  188.4980  178.1520  138.9010 C   0  0  2  0  0  3  0  0  0  0  0  0
  187.1610  177.8740  138.5040 O   0  0  0  0  0  0  0  0  0  0  0  0
  189.3080  176.9270  138.4680 C   0  0  2  0  0  3  0  0  0  0  0  0
  190.9010  176.1040  136.7030 C   0  0  0  0  0  3  0  0  0  0  0  0
  190.4090  177.3100  137.4740 C   0  0  0  0  0  2  0  0  0  0  0  0
  188.7450  175.0590  136.8270 C   0  0  0  0  0  0  0  0  0  0  0  0
  188.2920  176.1130  137.7490 C   0  0  0  0  0  0  0  0  0  0  0  0
  190.1120  175.1100  136.3920 N   0  0  0  0  0  0  0  0  0  0  0  0
  184.5650  174.6360  135.8320 C   0  0  0  0  0  3  0  0  0  0  0  0
  183.6180  175.6160  135.5080 C   0  0  0  0  0  0  0  0  0  0  0  0
  183.8210  176.9320  135.9400 C   0  0  0  0  0  3  0  0  0  0  0  0
  186.6330  173.8520  136.9540 C   0  0  0  0  0  2  0  0  0  0  0  0
  184.9580  177.2640  136.6800 C   0  0  0  0  0  3  0  0  0  0  0  0
  185.9110  176.2890  137.0000 C   0  0  0  0  0  0  0  0  0  0  0  0
  182.4180  175.2640  134.7300 C   0  0  0  0  0  0  0  0  0  0  0  0
  182.2330  174.0780  134.3460 O   0  0  0  0  0  0  0  0  0  0  0  0
  181.4530  176.2600  134.4020 N   0  0  0  0  0  1  0  0  0  0  0  0
  188.6410  178.4750  140.4030 C   0  0  0  0  0  2  0  0  0  0  0  0
  190.2600  177.6880  142.0160 C   0  0  2  0  0  3  0  0  0  0  0  0
  188.0060  177.0750  142.3020 C   0  0  0  0  0  2  0  0  0  0  0  0
  190.3960  177.2740  145.7870 N   0  0  0  0  0  0  0  0  0  0  0  0
  188.9780  177.1840  145.9670 C   0  0  0  0  0  0  0  0  0  0  0  0
  190.9230  177.6920  144.4930 C   0  0  1  0  0  3  0  0  0  0  0  0
  188.4790  176.9760  147.1050 O   0  0  0  0  0  0  0  0  0  0  0  0
  190.1950  176.9580  143.3450 C   0  0  1  0  0  3  0  0  0  0  0  0
  191.3160  176.9090  146.8510 C   0  0  0  0  0  1  0  0  0  0  0  0
  188.0920  177.3580  144.7800 C   0  0  0  0  0  2  0  0  0  0  0  0
  188.7110  176.6510  143.5750 C   0  0  1  0  0  3  0  0  0  0  0  0
  190.7980  179.0780  144.3700 O   0  0  0  0  0  1  0  0  0  0  0  0
  189.0280  177.3720  141.3020 N   0  0  0  0  0  0  0  0  0  0  0  0
  191.4600  177.2020  141.2240 C   0  0  0  0  0  1  0  0  0  0  0  0
  1  5  1  0  0  0  0
  2 15  1  0  0  0  0
  2 17  1  0  0  0  0
  3  9  2  0  0  0  0
  3 15  1  0  0  0  0
  4 21  1  1  0  0  0
  5  4  1  0  0  0  0
  6  8  1  6  0  0  0
  6  4  1  0  0  0  0
  7  8  1  0  0  0  0
  9 10  1  0  0  0  0
 10  1  2  0  0  0  0
 10  6  1  0  0  0  0
 11  7  2  0  0  0  0
 11  9  1  0  0  0  0
 12  2  2  0  0  0  0
 13 12  1  0  0  0  0
 13 14  2  0  0  0  0
 14 16  1  0  0  0  0
 16 17  2  0  0  0  0
 17  1  1  0  0  0  0
 18 13  1  0  0  0  0
 19 18  2  0  0  0  0
 20 18  1  0  0  0  0
 21 33  1  0  0  0  0
 22 34  1  6  0  0  0
 22 28  1  0  0  0  0
 23 31  1  0  0  0  0
 24 25  1  0  0  0  0
 24 29  1  0  0  0  0
 25 27  2  0  0  0  0
 26 32  1  6  0  0  0
 26 24  1  0  0  0  0
 28 31  1  0  0  0  0
 28 26  1  0  0  0  0
 30 25  1  0  0  0  0
 31 30  1  0  0  0  0
 33 22  1  0  0  0  0
 33 23  1  0  0  0  0
M  END
>  <MODEL>
6

>  <REMARK>
 VINA RESULT:      -7.9      3.793      7.759
  Name = 
  3 active torsions:
  status: ('A' for Active; 'I' for Inactive)
    1  A    between atoms: C_3  and  C_25
    2  A    between atoms: C_8  and  C_18
    3  A    between atoms: C_18  and  N_30
                            x       y       z     vdW  Elec       q    Type
                         _______ _______ _______ _____ _____    ______ ____

>  <TORSDO>
F 3

$$$$
=
 OpenBabel10272415313D

 34 39  0  0  1  0  0  0  0  0999 V2000
  189.9970  176.4660  139.9610 C   0  0  0  0  0  0  0  0  0  0  0  0
  188.9860  177.2780  142.1400 C   0  0  0  0  0  0  0  0  0  0  0  0
  187.7120  178.4600  140.4210 N   0  0  0  0  0  0  0  0  0  0  0  0
  190.7450  175.7550  137.8990 C   0  0  2  0  0  3  0  0  0  0  0  0
  190.8740  175.6160  139.3080 O   0  0  0  0  0  0  0  0  0  0  0  0
  189.5490  176.6890  137.6940 C   0  0  2  0  0  3  0  0  0  0  0  0
  188.9380  179.0630  137.1310 C   0  0  0  0  0  3  0  0  0  0  0  0
  189.9560  177.9590  136.9410 C   0  0  0  0  0  2  0  0  0  0  0  0
  188.3730  178.2610  139.3200 C   0  0  0  0  0  0  0  0  0  0  0  0
  189.1980  177.0640  139.0900 C   0  0  0  0  0  0  0  0  0  0  0  0
  188.2570  179.1970  138.2380 N   0  0  0  0  0  0  0  0  0  0  0  0
  189.1240  177.5290  143.5080 C   0  0  0  0  0  3  0  0  0  0  0  0
  190.3300  177.2620  144.1680 C   0  0  0  0  0  0  0  0  0  0  0  0
  191.4010  176.7240  143.4450 C   0  0  0  0  0  3  0  0  0  0  0  0
  187.6450  177.5010  141.5170 C   0  0  0  0  0  2  0  0  0  0  0  0
  191.2700  176.4650  142.0790 C   0  0  0  0  0  3  0  0  0  0  0  0
  190.0680  176.7370  141.4120 C   0  0  0  0  0  0  0  0  0  0  0  0
  190.4670  177.5340  145.6090 C   0  0  0  0  0  0  0  0  0  0  0  0
  189.5200  178.0600  146.2510 O   0  0  0  0  0  0  0  0  0  0  0  0
  191.6730  177.2050  146.2940 N   0  0  0  0  0  1  0  0  0  0  0  0
  190.5990  174.4090  137.1570 C   0  0  0  0  0  2  0  0  0  0  0  0
  192.3000  175.2100  135.6390 C   0  0  2  0  0  3  0  0  0  0  0  0
  192.7250  173.2430  136.8590 C   0  0  0  0  0  2  0  0  0  0  0  0
  196.0820  175.5310  135.6810 N   0  0  0  0  0  0  0  0  0  0  0  0
  196.2970  174.5010  136.6530 C   0  0  0  0  0  0  0  0  0  0  0  0
  194.7270  176.0160  135.4470 C   0  0  1  0  0  3  0  0  0  0  0  0
  197.4610  174.1620  136.9930 O   0  0  0  0  0  0  0  0  0  0  0  0
  193.7370  174.8340  135.3310 C   0  0  1  0  0  3  0  0  0  0  0  0
  197.1800  176.0630  134.8910 C   0  0  0  0  0  1  0  0  0  0  0  0
  195.1120  173.8420  137.2730 C   0  0  0  0  0  2  0  0  0  0  0  0
  194.0410  173.6120  136.2060 C   0  0  1  0  0  3  0  0  0  0  0  0
  194.3620  176.8840  136.4780 O   0  0  0  0  0  1  0  0  0  0  0  0
  191.6720  174.0290  136.2210 N   0  0  0  0  0  0  0  0  0  0  0  0
  191.5880  175.5990  134.3570 C   0  0  0  0  0  1  0  0  0  0  0  0
  1 17  1  0  0  0  0
  2 12  1  0  0  0  0
  3 15  1  0  0  0  0
  4 21  1  6  0  0  0
  4  5  1  0  0  0  0
  5  1  1  0  0  0  0
  6  8  1  6  0  0  0
  6  4  1  0  0  0  0
  6 10  1  0  0  0  0
  7 11  2  0  0  0  0
  8  7  1  0  0  0  0
  9  3  2  0  0  0  0
 10  9  1  0  0  0  0
 10  1  2  0  0  0  0
 11  9  1  0  0  0  0
 12 13  2  0  0  0  0
 13 18  1  0  0  0  0
 14 13  1  0  0  0  0
 15  2  1  0  0  0  0
 16 14  2  0  0  0  0
 17 16  1  0  0  0  0
 17  2  2  0  0  0  0
 18 19  2  0  0  0  0
 18 20  1  0  0  0  0
 22 34  1  6  0  0  0
 22 33  1  0  0  0  0
 24 25  1  0  0  0  0
 25 27  2  0  0  0  0
 25 30  1  0  0  0  0
 26 24  1  0  0  0  0
 26 32  1  1  0  0  0
 28 26  1  0  0  0  0
 28 22  1  0  0  0  0
 28 31  1  0  0  0  0
 29 24  1  0  0  0  0
 31 23  1  0  0  0  0
 31 30  1  0  0  0  0
 33 23  1  0  0  0  0
 33 21  1  0  0  0  0
M  END
>  <MODEL>
7

>  <REMARK>
 VINA RESULT:      -7.7      4.194      7.351
  Name = 
  3 active torsions:
  status: ('A' for Active; 'I' for Inactive)
    1  A    between atoms: C_3  and  C_25
    2  A    between atoms: C_8  and  C_18
    3  A    between atoms: C_18  and  N_30
                            x       y       z     vdW  Elec       q    Type
                         _______ _______ _______ _____ _____    ______ ____

>  <TORSDO>
F 3

$$$$
=
 OpenBabel10272415313D

 34 39  0  0  1  0  0  0  0  0999 V2000
  182.5710  178.7160  140.5370 C   0  0  0  0  0  0  0  0  0  0  0  0
  182.4360  178.8110  143.0680 C   0  0  0  0  0  0  0  0  0  0  0  0
  180.4500  180.0270  142.3240 N   0  0  0  0  0  0  0  0  0  0  0  0
  182.5030  178.6360  138.2340 C   0  0  2  0  0  3  0  0  0  0  0  0
  183.2040  178.2340  139.4040 O   0  0  0  0  0  0  0  0  0  0  0  0
  181.2260  179.3120  138.7410 C   0  0  2  0  0  3  0  0  0  0  0  0
  180.1700  181.5630  139.1230 C   0  0  0  0  0  3  0  0  0  0  0  0
  181.1460  180.7700  138.2790 C   0  0  0  0  0  2  0  0  0  0  0  0
  180.6310  180.2130  141.0500 C   0  0  0  0  0  0  0  0  0  0  0  0
  181.4260  179.2980  140.2150 C   0  0  0  0  0  0  0  0  0  0  0  0
  179.9820  181.3090  140.3900 N   0  0  0  0  0  0  0  0  0  0  0  0
  183.0830  178.7900  144.3060 C   0  0  0  0  0  3  0  0  0  0  0  0
  184.4750  178.6560  144.3870 C   0  0  0  0  0  0  0  0  0  0  0  0
  185.2180  178.5270  143.2080 C   0  0  0  0  0  3  0  0  0  0  0  0
  180.9420  178.8670  143.0570 C   0  0  0  0  0  2  0  0  0  0  0  0
  184.5800  178.5400  141.9660 C   0  0  0  0  0  3  0  0  0  0  0  0
  183.1890  178.6820  141.8800 C   0  0  0  0  0  0  0  0  0  0  0  0
  185.1480  178.6390  145.6970 C   0  0  0  0  0  0  0  0  0  0  0  0
  184.4880  178.8250  146.7540 O   0  0  0  0  0  0  0  0  0  0  0  0
  186.5530  178.4130  145.7840 N   0  0  0  0  0  1  0  0  0  0  0  0
  182.2280  177.4790  137.2500 C   0  0  0  0  0  2  0  0  0  0  0  0
  180.9600  175.4400  137.5270 C   0  0  2  0  0  3  0  0  0  0  0  0
  183.2900  175.2790  137.2300 C   0  0  0  0  0  2  0  0  0  0  0  0
  180.9630  171.9770  135.9720 N   0  0  0  0  0  0  0  0  0  0  0  0
  182.3300  172.0180  135.5460 C   0  0  0  0  0  0  0  0  0  0  0  0
  180.3290  173.2010  136.4470 C   0  0  1  0  0  3  0  0  0  0  0  0
  182.8680  171.0240  134.9910 O   0  0  0  0  0  0  0  0  0  0  0  0
  181.2620  173.9570  137.4200 C   0  0  1  0  0  3  0  0  0  0  0  0
  180.2160  170.7310  135.9890 C   0  0  0  0  0  1  0  0  0  0  0  0
  183.1100  173.2710  135.7580 C   0  0  0  0  0  2  0  0  0  0  0  0
  182.7640  173.8610  137.1250 C   0  0  1  0  0  3  0  0  0  0  0  0
  179.9860  173.9970  135.3520 O   0  0  0  0  0  1  0  0  0  0  0  0
  182.2290  176.1090  137.7950 N   0  0  0  0  0  0  0  0  0  0  0  0
  179.9920  175.6830  138.6700 C   0  0  0  0  0  1  0  0  0  0  0  0
  1 17  1  0  0  0  0
  2 12  1  0  0  0  0
  3 15  1  0  0  0  0
  4 21  1  6  0  0  0
  4  6  1  0  0  0  0
  4  5  1  0  0  0  0
  5  1  1  0  0  0  0
  6  8  1  6  0  0  0
  6 10  1  0  0  0  0
  7 11  2  0  0  0  0
  8  7  1  0  0  0  0
  9  3  2  0  0  0  0
 10  1  2  0  0  0  0
 10  9  1  0  0  0  0
 11  9  1  0  0  0  0
 12 13  2  0  0  0  0
 13 18  1  0  0  0  0
 14 13  1  0  0  0  0
 15  2  1  0  0  0  0
 16 14  2  0  0  0  0
 17 16  1  0  0  0  0
 17  2  2  0  0  0  0
 18 20  1  0  0  0  0
 18 19  2  0  0  0  0
 21 33  1  0  0  0  0
 22 33  1  0  0  0  0
 22 34  1  1  0  0  0
 23 33  1  0  0  0  0
 24 29  1  0  0  0  0
 24 26  1  0  0  0  0
 25 30  1  0  0  0  0
 25 24  1  0  0  0  0
 26 32  1  6  0  0  0
 26 28  1  0  0  0  0
 27 25  2  0  0  0  0
 28 22  1  0  0  0  0
 30 31  1  0  0  0  0
 31 23  1  0  0  0  0
 31 28  1  0  0  0  0
M  END
>  <MODEL>
8

>  <REMARK>
 VINA RESULT:      -7.6      4.144      6.749
  Name = 
  3 active torsions:
  status: ('A' for Active; 'I' for Inactive)
    1  A    between atoms: C_3  and  C_25
    2  A    between atoms: C_8  and  C_18
    3  A    between atoms: C_18  and  N_30
                            x       y       z     vdW  Elec       q    Type
                         _______ _______ _______ _____ _____    ______ ____

>  <TORSDO>
F 3

$$$$
=
 OpenBabel10272415313D

 34 39  0  0  1  0  0  0  0  0999 V2000
  189.1250  176.4090  138.2130 C   0  0  0  0  0  0  0  0  0  0  0  0
  187.4440  175.0560  136.8810 C   0  0  0  0  0  0  0  0  0  0  0  0
  189.5310  173.8050  136.6420 N   0  0  0  0  0  0  0  0  0  0  0  0
  190.7460  177.4750  139.4590 C   0  0  2  0  0  3  0  0  0  0  0  0
  189.3800  177.4720  139.0620 O   0  0  0  0  0  0  0  0  0  0  0  0
  191.3320  176.1770  138.8960 C   0  0  2  0  0  3  0  0  0  0  0  0
  192.7550  175.2680  137.0320 C   0  0  0  0  0  3  0  0  0  0  0  0
  192.4810  176.4600  137.9240 C   0  0  0  0  0  2  0  0  0  0  0  0
  190.4510  174.6040  137.0940 C   0  0  0  0  0  0  0  0  0  0  0  0
  190.1880  175.6250  138.1210 C   0  0  0  0  0  0  0  0  0  0  0  0
  191.8060  174.4600  136.6420 N   0  0  0  0  0  0  0  0  0  0  0  0
  186.2600  175.0070  136.1400 C   0  0  0  0  0  3  0  0  0  0  0  0
  185.4970  176.1620  135.9280 C   0  0  0  0  0  0  0  0  0  0  0  0
  185.9240  177.3740  136.4810 C   0  0  0  0  0  3  0  0  0  0  0  0
  188.1620  173.7720  137.1440 C   0  0  0  0  0  2  0  0  0  0  0  0
  187.1030  177.4320  137.2280 C   0  0  0  0  0  3  0  0  0  0  0  0
  187.8740  176.2810  137.4360 C   0  0  0  0  0  0  0  0  0  0  0  0
  184.2520  176.0990  135.1420 C   0  0  0  0  0  0  0  0  0  0  0  0
  183.5440  175.0580  135.1520 O   0  0  0  0  0  0  0  0  0  0  0  0
  183.8360  177.2160  134.3600 N   0  0  0  0  0  1  0  0  0  0  0  0
  190.9450  177.6210  140.9830 C   0  0  0  0  0  2  0  0  0  0  0  0
  190.5960  176.8440  143.2440 C   0  0  2  0  0  3  0  0  0  0  0  0
  188.7240  177.0620  141.8340 C   0  0  0  0  0  2  0  0  0  0  0  0
  188.0490  177.4560  145.9920 N   0  0  0  0  0  0  0  0  0  0  0  0
  186.9940  177.8620  145.1140 C   0  0  0  0  0  0  0  0  0  0  0  0
  189.4020  177.3190  145.4630 C   0  0  1  0  0  3  0  0  0  0  0  0
  185.8480  178.1380  145.5590 O   0  0  0  0  0  0  0  0  0  0  0  0
  189.3860  176.5620  144.1160 C   0  0  1  0  0  3  0  0  0  0  0  0
  187.7880  177.1280  147.3840 C   0  0  0  0  0  1  0  0  0  0  0  0
  187.2780  177.9710  143.6540 C   0  0  0  0  0  2  0  0  0  0  0  0
  188.1660  176.8050  143.2200 C   0  0  1  0  0  3  0  0  0  0  0  0
  189.9740  178.5860  145.3270 O   0  0  0  0  0  1  0  0  0  0  0  0
  190.1490  176.7420  141.8590 N   0  0  0  0  0  0  0  0  0  0  0  0
  191.6760  175.8130  143.5200 C   0  0  0  0  0  1  0  0  0  0  0  0
  1  5  1  0  0  0  0
  2 15  1  0  0  0  0
  2 17  1  0  0  0  0
  3  9  2  0  0  0  0
  3 15  1  0  0  0  0
  4 21  1  1  0  0  0
  5  4  1  0  0  0  0
  6  8  1  6  0  0  0
  6  4  1  0  0  0  0
  7  8  1  0  0  0  0
  9 10  1  0  0  0  0
 10  1  2  0  0  0  0
 10  6  1  0  0  0  0
 11  7  2  0  0  0  0
 11  9  1  0  0  0  0
 12  2  2  0  0  0  0
 13 12  1  0  0  0  0
 13 14  2  0  0  0  0
 14 16  1  0  0  0  0
 16 17  2  0  0  0  0
 17  1  1  0  0  0  0
 18 19  2  0  0  0  0
 18 13  1  0  0  0  0
 20 18  1  0  0  0  0
 21 33  1  0  0  0  0
 22 34  1  6  0  0  0
 22 28  1  0  0  0  0
 23 33  1  0  0  0  0
 23 31  1  0  0  0  0
 24 29  1  0  0  0  0
 25 27  2  0  0  0  0
 25 24  1  0  0  0  0
 26 32  1  6  0  0  0
 26 24  1  0  0  0  0
 28 26  1  0  0  0  0
 30 25  1  0  0  0  0
 31 30  1  0  0  0  0
 31 28  1  0  0  0  0
 33 22  1  0  0  0  0
M  END
>  <MODEL>
9

>  <REMARK>
 VINA RESULT:      -7.6      3.311      7.829
  Name = 
  3 active torsions:
  status: ('A' for Active; 'I' for Inactive)
    1  A    between atoms: C_3  and  C_25
    2  A    between atoms: C_8  and  C_18
    3  A    between atoms: C_18  and  N_30
                            x       y       z     vdW  Elec       q    Type
                         _______ _______ _______ _____ _____    ______ ____

>  <TORSDO>
F 3

$$$$
