=
 OpenBabel10272415263D

 34 39  0  0  0  0  0  0  0  0999 V2000
  187.6680  177.7840  142.6730 C   0  0  0  0  0  3  0  0  0  0  0  0
  184.7120  178.4810  144.9330 C   0  0  0  0  0  0  0  0  0  0  0  0
  185.3830  178.3810  146.2430 C   0  0  0  0  0  0  0  0  0  0  0  0
  189.6240  177.4120  143.9880 N   0  0  0  0  0  0  0  0  0  0  0  0
  186.9090  177.9810  143.8330 C   0  0  0  0  0  0  0  0  0  0  0  0
  188.9260  177.5960  145.1380 C   0  0  0  0  0  0  0  0  0  0  0  0
  188.8630  177.6870  147.5570 C   0  0  0  0  0  3  0  0  0  0  0  0
  189.5760  177.4980  146.3700 C   0  0  0  0  0  3  0  0  0  0  0  0
  189.0370  177.4970  142.7610 C   0  0  0  0  0  0  0  0  0  0  0  0
  186.8270  178.0770  146.2890 C   0  0  0  0  0  0  0  0  0  0  0  0
  187.5440  177.8870  145.0880 C   0  0  0  0  0  0  0  0  0  0  0  0
  187.4960  177.9740  147.5170 C   0  0  0  0  0  3  0  0  0  0  0  0
  183.3430  178.7700  144.8540 C   0  0  0  0  0  3  0  0  0  0  0  0
  182.7100  178.8600  143.6100 C   0  0  0  0  0  0  0  0  0  0  0  0
  183.4470  178.6730  142.4380 C   0  0  0  0  0  3  0  0  0  0  0  0
  184.7320  178.5540  147.3100 O   0  0  0  0  0  0  0  0  0  0  0  0
  184.8130  178.3860  142.5070 C   0  0  0  0  0  3  0  0  0  0  0  0
  185.4570  178.2870  143.7500 C   0  0  0  0  0  0  0  0  0  0  0  0
  192.0290  177.2390  140.4150 C   0  0  0  0  0  3  0  0  0  0  0  0
  189.2100  176.9330  140.3310 C   0  0  0  0  0  3  0  0  0  0  0  0
  190.7450  176.3440  137.2160 C   0  0  0  0  0  0  0  0  0  0  0  0
  191.8770  176.6430  137.9840 C   0  0  0  0  0  3  0  0  0  0  0  0
  191.3650  176.8910  139.2430 C   0  0  0  0  0  0  0  0  0  0  0  0
  189.6120  176.4070  137.9630 N   0  0  0  0  0  0  0  0  0  0  0  0
  190.0060  176.7440  139.2010 C   0  0  0  0  0  0  0  0  0  0  0  0
  188.2410  176.1660  137.5340 C   0  0  0  0  0  1  0  0  0  0  0  0
  189.8440  177.2870  141.5400 C   0  0  0  0  0  0  0  0  0  0  0  0
  191.2530  177.4380  141.5700 C   0  0  0  0  0  3  0  0  0  0  0  0
  190.7990  176.0060  135.7810 C   0  0  0  0  0  0  0  0  0  0  0  0
  190.3690  176.8110  134.9150 O   0  0  0  0  0  0  0  0  0  0  0  0
  191.3400  174.7570  135.3630 N   0  0  0  0  0  1  0  0  0  0  0  0
  181.2590  179.1840  143.5350 C   0  0  0  0  0  2  0  0  0  0  0  0
  180.8580  179.4580  142.0990 C   0  0  0  0  0  2  0  0  0  0  0  0
  180.0480  180.5900  142.0500 O   0  0  0  0  0  1  0  0  0  0  0  0
  1  9  2  0  0  0  0
  1  5  1  0  0  0  0
  2  3  1  0  0  0  0
  3 10  1  0  0  0  0
  3 16  2  0  0  0  0
  4  6  2  0  0  0  0
  5 11  2  0  0  0  0
  6  8  1  0  0  0  0
  8  7  2  0  0  0  0
  9  4  1  0  0  0  0
 10 12  2  0  0  0  0
 11  6  1  0  0  0  0
 11 10  1  0  0  0  0
 12  7  1  0  0  0  0
 13  2  1  0  0  0  0
 14 13  2  0  0  0  0
 15 17  2  0  0  0  0
 15 14  1  0  0  0  0
 17 18  1  0  0  0  0
 18  5  1  0  0  0  0
 18  2  2  0  0  0  0
 19 28  1  0  0  0  0
 20 27  1  0  0  0  0
 21 24  1  0  0  0  0
 21 22  2  0  0  0  0
 22 23  1  0  0  0  0
 23 19  2  0  0  0  0
 24 25  1  0  0  0  0
 25 23  1  0  0  0  0
 25 20  2  0  0  0  0
 26 24  1  0  0  0  0
 27 28  2  0  0  0  0
 27  9  1  0  0  0  0
 29 21  1  0  0  0  0
 30 29  2  0  0  0  0
 31 29  1  0  0  0  0
 32 14  1  0  0  0  0
 33 32  1  0  0  0  0
 34 33  1  0  0  0  0
M  END
>  <MODEL>
1

>  <REMARK>
 VINA RESULT:     -11.7      0.000      0.000
  Name = 
  4 active torsions:
  status: ('A' for Active; 'I' for Inactive)
    1  A    between atoms: C_3  and  C_13
    2  A    between atoms: C_3  and  C_25
    3  A    between atoms: C_7  and  C_11
    4  A    between atoms: C_18  and  C_30
                            x       y       z     vdW  Elec       q    Type
                         _______ _______ _______ _____ _____    ______ ____

>  <TORSDO>
F 4

$$$$
=
 OpenBabel10272415263D

 34 39  0  0  0  0  0  0  0  0999 V2000
  187.3630  177.7500  142.0670 C   0  0  0  0  0  3  0  0  0  0  0  0
  184.7470  178.5050  144.6970 C   0  0  0  0  0  0  0  0  0  0  0  0
  185.5800  178.3740  145.9080 C   0  0  0  0  0  0  0  0  0  0  0  0
  189.4630  177.3130  143.1130 N   0  0  0  0  0  0  0  0  0  0  0  0
  186.7680  177.9560  143.3180 C   0  0  0  0  0  0  0  0  0  0  0  0
  188.9260  177.5050  144.3450 C   0  0  0  0  0  0  0  0  0  0  0  0
  189.1800  177.5760  146.7530 C   0  0  0  0  0  3  0  0  0  0  0  0
  189.7270  177.3780  145.4820 C   0  0  0  0  0  3  0  0  0  0  0  0
  188.7230  177.4250  141.9740 C   0  0  0  0  0  0  0  0  0  0  0  0
  187.0090  178.0310  145.7630 C   0  0  0  0  0  0  0  0  0  0  0  0
  187.5580  177.8340  144.4780 C   0  0  0  0  0  0  0  0  0  0  0  0
  187.8290  177.9000  146.8930 C   0  0  0  0  0  3  0  0  0  0  0  0
  183.3870  178.8300  144.7990 C   0  0  0  0  0  3  0  0  0  0  0  0
  182.6010  178.9500  143.6490 C   0  0  0  0  0  0  0  0  0  0  0  0
  183.1740  178.7540  142.3890 C   0  0  0  0  0  3  0  0  0  0  0  0
  185.0780  178.5550  147.0510 O   0  0  0  0  0  0  0  0  0  0  0  0
  184.5280  178.4300  142.2780 C   0  0  0  0  0  3  0  0  0  0  0  0
  185.3260  178.3010  143.4260 C   0  0  0  0  0  0  0  0  0  0  0  0
  189.1700  176.9300  138.2220 C   0  0  0  0  0  3  0  0  0  0  0  0
  190.7590  177.0590  140.5690 C   0  0  0  0  0  3  0  0  0  0  0  0
  192.6620  176.5240  137.6540 C   0  0  0  0  0  0  0  0  0  0  0  0
  191.3810  176.5790  137.0920 C   0  0  0  0  0  3  0  0  0  0  0  0
  190.5530  176.7910  138.1780 C   0  0  0  0  0  0  0  0  0  0  0  0
  192.6160  176.6910  139.0010 N   0  0  0  0  0  0  0  0  0  0  0  0
  191.3210  176.8530  139.3090 C   0  0  0  0  0  0  0  0  0  0  0  0
  193.7290  176.6960  139.9410 C   0  0  0  0  0  1  0  0  0  0  0  0
  189.3580  177.2050  140.6570 C   0  0  0  0  0  0  0  0  0  0  0  0
  188.5740  177.1380  139.4780 C   0  0  0  0  0  3  0  0  0  0  0  0
  193.8900  176.3100  136.8650 C   0  0  0  0  0  0  0  0  0  0  0  0
  194.4940  177.2800  136.3390 O   0  0  0  0  0  0  0  0  0  0  0  0
  194.4040  174.9930  136.6910 N   0  0  0  0  0  1  0  0  0  0  0  0
  181.1620  179.3130  143.7660 C   0  0  0  0  0  2  0  0  0  0  0  0
  180.5610  179.5140  142.3890 C   0  0  0  0  0  2  0  0  0  0  0  0
  179.9830  180.7790  142.3140 O   0  0  0  0  0  1  0  0  0  0  0  0
  1  5  1  0  0  0  0
  2 13  1  0  0  0  0
  2  3  1  0  0  0  0
  3 16  2  0  0  0  0
  4  6  2  0  0  0  0
  5 18  1  0  0  0  0
  5 11  2  0  0  0  0
  6 11  1  0  0  0  0
  6  8  1  0  0  0  0
  7 12  1  0  0  0  0
  8  7  2  0  0  0  0
  9  1  2  0  0  0  0
  9  4  1  0  0  0  0
 10  3  1  0  0  0  0
 10 12  2  0  0  0  0
 11 10  1  0  0  0  0
 14 32  1  0  0  0  0
 14 13  2  0  0  0  0
 15 14  1  0  0  0  0
 17 15  2  0  0  0  0
 17 18  1  0  0  0  0
 18  2  2  0  0  0  0
 19 28  1  0  0  0  0
 20 27  1  0  0  0  0
 21 24  1  0  0  0  0
 22 21  2  0  0  0  0
 22 23  1  0  0  0  0
 23 19  2  0  0  0  0
 23 25  1  0  0  0  0
 24 25  1  0  0  0  0
 24 26  1  0  0  0  0
 25 20  2  0  0  0  0
 27  9  1  0  0  0  0
 28 27  2  0  0  0  0
 29 21  1  0  0  0  0
 30 29  2  0  0  0  0
 31 29  1  0  0  0  0
 33 32  1  0  0  0  0
 34 33  1  0  0  0  0
M  END
>  <MODEL>
2

>  <REMARK>
 VINA RESULT:     -11.3      1.358      1.964
  Name = 
  4 active torsions:
  status: ('A' for Active; 'I' for Inactive)
    1  A    between atoms: C_3  and  C_13
    2  A    between atoms: C_3  and  C_25
    3  A    between atoms: C_7  and  C_11
    4  A    between atoms: C_18  and  C_30
                            x       y       z     vdW  Elec       q    Type
                         _______ _______ _______ _____ _____    ______ ____

>  <TORSDO>
F 4

$$$$
=
 OpenBabel10272415263D

 34 39  0  0  0  0  0  0  0  0999 V2000
  186.8610  178.0200  143.4030 C   0  0  0  0  0  3  0  0  0  0  0  0
  190.5850  177.3870  143.6490 C   0  0  0  0  0  0  0  0  0  0  0  0
  190.7200  177.3180  145.1160 C   0  0  0  0  0  0  0  0  0  0  0  0
  185.9070  178.1120  145.5880 N   0  0  0  0  0  0  0  0  0  0  0  0
  188.1290  177.7900  143.9510 C   0  0  0  0  0  0  0  0  0  0  0  0
  187.1180  177.8900  146.1610 C   0  0  0  0  0  0  0  0  0  0  0  0
  188.4720  177.6000  148.1470 C   0  0  0  0  0  3  0  0  0  0  0  0
  187.2290  177.8280  147.5520 C   0  0  0  0  0  3  0  0  0  0  0  0
  185.7470  178.1810  144.2360 C   0  0  0  0  0  0  0  0  0  0  0  0
  189.5190  177.4940  145.9570 C   0  0  0  0  0  0  0  0  0  0  0  0
  188.2640  177.7230  145.3520 C   0  0  0  0  0  0  0  0  0  0  0  0
  189.6110  177.4340  147.3550 C   0  0  0  0  0  3  0  0  0  0  0  0
  191.7050  177.2240  142.8220 C   0  0  0  0  0  3  0  0  0  0  0  0
  191.5740  177.2930  141.4320 C   0  0  0  0  0  0  0  0  0  0  0  0
  190.3170  177.5150  140.8610 C   0  0  0  0  0  3  0  0  0  0  0  0
  191.8460  177.1110  145.6460 O   0  0  0  0  0  0  0  0  0  0  0  0
  189.1960  177.6780  141.6770 C   0  0  0  0  0  3  0  0  0  0  0  0
  189.3170  177.6170  143.0740 C   0  0  0  0  0  0  0  0  0  0  0  0
  182.0050  178.8550  143.9740 C   0  0  0  0  0  3  0  0  0  0  0  0
  184.2340  178.4610  142.2650 C   0  0  0  0  0  3  0  0  0  0  0  0
  181.2350  179.0080  140.5010 C   0  0  0  0  0  0  0  0  0  0  0  0
  180.7540  179.0880  141.8130 C   0  0  0  0  0  3  0  0  0  0  0  0
  181.8790  178.8840  142.5890 C   0  0  0  0  0  0  0  0  0  0  0  0
  182.5720  178.7680  140.4800 N   0  0  0  0  0  0  0  0  0  0  0  0
  182.9530  178.6940  141.7640 C   0  0  0  0  0  0  0  0  0  0  0  0
  183.4360  178.6170  139.3170 C   0  0  0  0  0  1  0  0  0  0  0  0
  184.4050  178.4250  143.6650 C   0  0  0  0  0  0  0  0  0  0  0  0
  183.2840  178.6220  144.5090 C   0  0  0  0  0  3  0  0  0  0  0  0
  180.3800  179.1660  139.3090 C   0  0  0  0  0  0  0  0  0  0  0  0
  179.9930  180.3060  138.9410 O   0  0  0  0  0  0  0  0  0  0  0  0
  179.9840  178.0210  138.5600 N   0  0  0  0  0  1  0  0  0  0  0  0
  192.7660  177.1010  140.5610 C   0  0  0  0  0  2  0  0  0  0  0  0
  192.3320  176.8440  139.1310 C   0  0  0  0  0  2  0  0  0  0  0  0
  193.4520  176.8170  138.3030 O   0  0  0  0  0  1  0  0  0  0  0  0
  1  5  2  0  0  0  0
  1  9  1  0  0  0  0
  2  3  1  0  0  0  0
  3 16  2  0  0  0  0
  3 10  1  0  0  0  0
  4  6  1  0  0  0  0
  5 11  1  0  0  0  0
  6  8  1  0  0  0  0
  8  7  2  0  0  0  0
  9  4  2  0  0  0  0
 10 12  2  0  0  0  0
 11 10  1  0  0  0  0
 11  6  2  0  0  0  0
 12  7  1  0  0  0  0
 13  2  2  0  0  0  0
 14 13  1  0  0  0  0
 15 14  2  0  0  0  0
 15 17  1  0  0  0  0
 17 18  2  0  0  0  0
 18  2  1  0  0  0  0
 18  5  1  0  0  0  0
 19 28  1  0  0  0  0
 20 27  1  0  0  0  0
 21 22  2  0  0  0  0
 22 23  1  0  0  0  0
 23 19  2  0  0  0  0
 24 21  1  0  0  0  0
 24 25  1  0  0  0  0
 25 20  2  0  0  0  0
 25 23  1  0  0  0  0
 26 24  1  0  0  0  0
 27  9  1  0  0  0  0
 27 28  2  0  0  0  0
 29 21  1  0  0  0  0
 30 29  2  0  0  0  0
 31 29  1  0  0  0  0
 32 14  1  0  0  0  0
 33 32  1  0  0  0  0
 34 33  1  0  0  0  0
M  END
>  <MODEL>
3

>  <REMARK>
 VINA RESULT:     -11.2      3.174      7.889
  Name = 
  4 active torsions:
  status: ('A' for Active; 'I' for Inactive)
    1  A    between atoms: C_3  and  C_13
    2  A    between atoms: C_3  and  C_25
    3  A    between atoms: C_7  and  C_11
    4  A    between atoms: C_18  and  C_30
                            x       y       z     vdW  Elec       q    Type
                         _______ _______ _______ _____ _____    ______ ____

>  <TORSDO>
F 4

$$$$
=
 OpenBabel10272415263D

 34 39  0  0  0  0  0  0  0  0999 V2000
  188.2310  177.6950  141.8350 C   0  0  0  0  0  3  0  0  0  0  0  0
  188.1720  177.6640  145.6190 C   0  0  0  0  0  0  0  0  0  0  0  0
  186.7830  178.1070  145.8410 C   0  0  0  0  0  0  0  0  0  0  0  0
  186.1070  178.3880  140.9950 N   0  0  0  0  0  0  0  0  0  0  0  0
  187.7690  177.8260  143.1500 C   0  0  0  0  0  0  0  0  0  0  0  0
  185.6190  178.5280  142.2550 C   0  0  0  0  0  0  0  0  0  0  0  0
  183.7930  179.0930  143.7420 C   0  0  0  0  0  3  0  0  0  0  0  0
  184.3010  178.9480  142.4480 C   0  0  0  0  0  3  0  0  0  0  0  0
  187.3850  177.9810  140.7540 C   0  0  0  0  0  0  0  0  0  0  0  0
  185.9260  178.3970  144.6740 C   0  0  0  0  0  0  0  0  0  0  0  0
  186.4420  178.2490  143.3680 C   0  0  0  0  0  0  0  0  0  0  0  0
  184.6010  178.8200  144.8480 C   0  0  0  0  0  3  0  0  0  0  0  0
  189.0110  177.3790  146.7050 C   0  0  0  0  0  3  0  0  0  0  0  0
  190.3280  176.9630  146.4910 C   0  0  0  0  0  0  0  0  0  0  0  0
  190.8110  176.8190  145.1860 C   0  0  0  0  0  3  0  0  0  0  0  0
  186.3310  178.2350  147.0120 O   0  0  0  0  0  0  0  0  0  0  0  0
  189.9810  177.1000  144.0980 C   0  0  0  0  0  3  0  0  0  0  0  0
  188.6590  177.5240  144.3020 C   0  0  0  0  0  0  0  0  0  0  0  0
  187.6660  178.4040  136.9770 C   0  0  0  0  0  3  0  0  0  0  0  0
  188.9830  177.0310  139.0810 C   0  0  0  0  0  3  0  0  0  0  0  0
  190.4440  176.4380  135.9320 C   0  0  0  0  0  0  0  0  0  0  0  0
  189.4090  177.2990  135.5520 C   0  0  0  0  0  3  0  0  0  0  0  0
  188.7700  177.5920  136.7420 C   0  0  0  0  0  0  0  0  0  0  0  0
  190.4350  176.2170  137.2730 N   0  0  0  0  0  0  0  0  0  0  0  0
  189.4060  176.9290  137.7560 C   0  0  0  0  0  0  0  0  0  0  0  0
  191.3440  175.3850  138.0490 C   0  0  0  0  0  1  0  0  0  0  0  0
  187.8660  177.8460  139.3620 C   0  0  0  0  0  0  0  0  0  0  0  0
  187.2150  178.5260  138.3030 C   0  0  0  0  0  3  0  0  0  0  0  0
  191.4090  175.8530  134.9810 C   0  0  0  0  0  0  0  0  0  0  0  0
  192.4910  176.4410  134.7190 O   0  0  0  0  0  0  0  0  0  0  0  0
  191.1200  174.6120  134.3460 N   0  0  0  0  0  1  0  0  0  0  0  0
  191.2080  176.6460  147.6500 C   0  0  0  0  0  2  0  0  0  0  0  0
  192.3360  175.7320  147.2150 C   0  0  0  0  0  2  0  0  0  0  0  0
  193.3260  175.7160  148.1960 O   0  0  0  0  0  1  0  0  0  0  0  0
  1  5  1  0  0  0  0
  2  3  1  0  0  0  0
  2 13  1  0  0  0  0
  3 16  2  0  0  0  0
  4  6  2  0  0  0  0
  5 11  2  0  0  0  0
  5 18  1  0  0  0  0
  6  8  1  0  0  0  0
  6 11  1  0  0  0  0
  7 12  1  0  0  0  0
  8  7  2  0  0  0  0
  9  4  1  0  0  0  0
  9  1  2  0  0  0  0
 10 12  2  0  0  0  0
 10  3  1  0  0  0  0
 11 10  1  0  0  0  0
 14 13  2  0  0  0  0
 14 32  1  0  0  0  0
 15 14  1  0  0  0  0
 17 18  1  0  0  0  0
 17 15  2  0  0  0  0
 18  2  2  0  0  0  0
 19 28  1  0  0  0  0
 20 27  1  0  0  0  0
 21 24  1  0  0  0  0
 22 21  2  0  0  0  0
 22 23  1  0  0  0  0
 23 19  2  0  0  0  0
 23 25  1  0  0  0  0
 24 25  1  0  0  0  0
 24 26  1  0  0  0  0
 25 20  2  0  0  0  0
 27  9  1  0  0  0  0
 28 27  2  0  0  0  0
 29 21  1  0  0  0  0
 30 29  2  0  0  0  0
 31 29  1  0  0  0  0
 33 32  1  0  0  0  0
 33 34  1  0  0  0  0
M  END
>  <MODEL>
4

>  <REMARK>
 VINA RESULT:     -10.3      2.293      5.551
  Name = 
  4 active torsions:
  status: ('A' for Active; 'I' for Inactive)
    1  A    between atoms: C_3  and  C_13
    2  A    between atoms: C_3  and  C_25
    3  A    between atoms: C_7  and  C_11
    4  A    between atoms: C_18  and  C_30
                            x       y       z     vdW  Elec       q    Type
                         _______ _______ _______ _____ _____    ______ ____

>  <TORSDO>
F 4

$$$$
=
 OpenBabel10272415263D

 34 39  0  0  0  0  0  0  0  0999 V2000
  188.9940  177.3770  142.9070 C   0  0  0  0  0  3  0  0  0  0  0  0
  189.4480  177.1560  146.6590 C   0  0  0  0  0  0  0  0  0  0  0  0
  188.1150  177.6180  147.0890 C   0  0  0  0  0  0  0  0  0  0  0  0
  186.7960  178.1580  142.4000 N   0  0  0  0  0  0  0  0  0  0  0  0
  188.7190  177.4520  144.2780 C   0  0  0  0  0  0  0  0  0  0  0  0
  186.4880  178.2450  143.7200 C   0  0  0  0  0  0  0  0  0  0  0  0
  184.8980  178.7750  145.4670 C   0  0  0  0  0  3  0  0  0  0  0  0
  185.2210  178.6840  144.1110 C   0  0  0  0  0  3  0  0  0  0  0  0
  188.0180  177.7360  141.9680 C   0  0  0  0  0  0  0  0  0  0  0  0
  187.1170  177.9860  146.0650 C   0  0  0  0  0  0  0  0  0  0  0  0
  187.4460  177.8920  144.6960 C   0  0  0  0  0  0  0  0  0  0  0  0
  185.8400  178.4280  146.4390 C   0  0  0  0  0  3  0  0  0  0  0  0
  190.4180  176.7990  147.6050 C   0  0  0  0  0  3  0  0  0  0  0  0
  191.6810  176.3650  147.1930 C   0  0  0  0  0  0  0  0  0  0  0  0
  191.9780  176.2770  145.8300 C   0  0  0  0  0  3  0  0  0  0  0  0
  187.8300  177.6970  148.3160 O   0  0  0  0  0  0  0  0  0  0  0  0
  191.0170  176.6300  144.8800 C   0  0  0  0  0  3  0  0  0  0  0  0
  189.7470  177.0730  145.2820 C   0  0  0  0  0  0  0  0  0  0  0  0
  187.6580  178.1420  138.1950 C   0  0  0  0  0  3  0  0  0  0  0  0
  189.4830  177.0360  140.0650 C   0  0  0  0  0  3  0  0  0  0  0  0
  190.5350  176.6430  136.7270 C   0  0  0  0  0  0  0  0  0  0  0  0
  189.3270  177.3170  136.5150 C   0  0  0  0  0  3  0  0  0  0  0  0
  188.8340  177.5190  137.7900 C   0  0  0  0  0  0  0  0  0  0  0  0
  190.7630  176.4450  138.0520 N   0  0  0  0  0  0  0  0  0  0  0  0
  189.7140  176.9850  138.6900 C   0  0  0  0  0  0  0  0  0  0  0  0
  191.9020  175.7840  138.6760 C   0  0  0  0  0  1  0  0  0  0  0  0
  188.3010  177.6600  140.5180 C   0  0  0  0  0  0  0  0  0  0  0  0
  187.3960  178.2080  139.5750 C   0  0  0  0  0  3  0  0  0  0  0  0
  191.4300  176.2110  135.6370 C   0  0  0  0  0  0  0  0  0  0  0  0
  192.6800  176.2870  135.7620 O   0  0  0  0  0  0  0  0  0  0  0  0
  190.8820  175.7020  134.4250 N   0  0  0  0  0  1  0  0  0  0  0  0
  192.7000  175.9710  148.2050 C   0  0  0  0  0  2  0  0  0  0  0  0
  192.9280  177.1030  149.1860 C   0  0  0  0  0  2  0  0  0  0  0  0
  194.1560  176.9280  149.8210 O   0  0  0  0  0  1  0  0  0  0  0  0
  1  5  1  0  0  0  0
  2  3  1  0  0  0  0
  2 13  1  0  0  0  0
  3 16  2  0  0  0  0
  4  6  2  0  0  0  0
  5 11  2  0  0  0  0
  5 18  1  0  0  0  0
  6  8  1  0  0  0  0
  6 11  1  0  0  0  0
  7 12  1  0  0  0  0
  8  7  2  0  0  0  0
  9  4  1  0  0  0  0
  9  1  2  0  0  0  0
 10 12  2  0  0  0  0
 10  3  1  0  0  0  0
 11 10  1  0  0  0  0
 14 13  2  0  0  0  0
 14 32  1  0  0  0  0
 15 14  1  0  0  0  0
 17 18  1  0  0  0  0
 17 15  2  0  0  0  0
 18  2  2  0  0  0  0
 19 28  1  0  0  0  0
 20 27  1  0  0  0  0
 21 24  1  0  0  0  0
 22 21  2  0  0  0  0
 22 23  1  0  0  0  0
 23 19  2  0  0  0  0
 23 25  1  0  0  0  0
 24 26  1  0  0  0  0
 24 25  1  0  0  0  0
 25 20  2  0  0  0  0
 27  9  1  0  0  0  0
 28 27  2  0  0  0  0
 29 30  2  0  0  0  0
 29 21  1  0  0  0  0
 31 29  1  0  0  0  0
 32 33  1  0  0  0  0
 33 34  1  0  0  0  0
M  END
>  <MODEL>
5

>  <REMARK>
 VINA RESULT:     -10.3      2.560      5.879
  Name = 
  4 active torsions:
  status: ('A' for Active; 'I' for Inactive)
    1  A    between atoms: C_3  and  C_13
    2  A    between atoms: C_3  and  C_25
    3  A    between atoms: C_7  and  C_11
    4  A    between atoms: C_18  and  C_30
                            x       y       z     vdW  Elec       q    Type
                         _______ _______ _______ _____ _____    ______ ____

>  <TORSDO>
F 4

$$$$
=
 OpenBabel10272415263D

 34 39  0  0  0  0  0  0  0  0999 V2000
  186.1480  178.2210  142.6310 C   0  0  0  0  0  3  0  0  0  0  0  0
  184.8560  178.5900  139.0920 C   0  0  0  0  0  0  0  0  0  0  0  0
  183.4280  178.8170  139.3810 C   0  0  0  0  0  0  0  0  0  0  0  0
  184.3490  178.4560  144.1800 N   0  0  0  0  0  0  0  0  0  0  0  0
  185.2680  178.4140  141.5590 C   0  0  0  0  0  0  0  0  0  0  0  0
  183.4610  178.6490  143.1710 C   0  0  0  0  0  0  0  0  0  0  0  0
  181.1950  179.0630  142.4250 C   0  0  0  0  0  3  0  0  0  0  0  0
  182.1120  178.8630  143.4600 C   0  0  0  0  0  3  0  0  0  0  0  0
  185.6750  178.2430  143.9490 C   0  0  0  0  0  0  0  0  0  0  0  0
  182.9730  178.8330  140.7850 C   0  0  0  0  0  0  0  0  0  0  0  0
  183.9020  178.6330  141.8280 C   0  0  0  0  0  0  0  0  0  0  0  0
  181.6220  179.0470  141.0960 C   0  0  0  0  0  3  0  0  0  0  0  0
  185.3220  178.5690  137.7700 C   0  0  0  0  0  3  0  0  0  0  0  0
  186.6760  178.3500  137.5000 C   0  0  0  0  0  0  0  0  0  0  0  0
  187.5740  178.1600  138.5540 C   0  0  0  0  0  3  0  0  0  0  0  0
  182.6060  178.9970  138.4400 O   0  0  0  0  0  0  0  0  0  0  0  0
  187.1200  178.1790  139.8740 C   0  0  0  0  0  3  0  0  0  0  0  0
  185.7610  178.3930  140.1560 C   0  0  0  0  0  0  0  0  0  0  0  0
  187.0440  178.0950  147.5030 C   0  0  0  0  0  3  0  0  0  0  0  0
  187.9150  177.5930  144.8510 C   0  0  0  0  0  3  0  0  0  0  0  0
  190.4170  176.9830  147.2530 C   0  0  0  0  0  0  0  0  0  0  0  0
  189.3760  177.3900  148.0950 C   0  0  0  0  0  3  0  0  0  0  0  0
  188.3340  177.6540  147.2280 C   0  0  0  0  0  0  0  0  0  0  0  0
  190.0320  176.9990  145.9500 N   0  0  0  0  0  0  0  0  0  0  0  0
  188.7560  177.4130  145.9490 C   0  0  0  0  0  0  0  0  0  0  0  0
  190.8220  176.6470  144.7780 C   0  0  0  0  0  1  0  0  0  0  0  0
  186.5980  178.0390  145.0870 C   0  0  0  0  0  0  0  0  0  0  0  0
  186.1730  178.2870  146.4160 C   0  0  0  0  0  3  0  0  0  0  0  0
  191.7540  176.5910  147.7390 C   0  0  0  0  0  0  0  0  0  0  0  0
  192.3570  177.2880  148.5960 O   0  0  0  0  0  0  0  0  0  0  0  0
  192.3770  175.4130  147.2370 N   0  0  0  0  0  1  0  0  0  0  0  0
  187.1640  178.3470  136.0940 C   0  0  0  0  0  2  0  0  0  0  0  0
  188.4900  177.6180  136.0030 C   0  0  0  0  0  2  0  0  0  0  0  0
  188.2660  176.2850  135.6630 O   0  0  0  0  0  1  0  0  0  0  0  0
  1  9  1  0  0  0  0
  2  3  1  0  0  0  0
  2 18  1  0  0  0  0
  3 10  1  0  0  0  0
  5 11  1  0  0  0  0
  5  1  2  0  0  0  0
  6  8  1  0  0  0  0
  6  4  1  0  0  0  0
  7  8  2  0  0  0  0
  9  4  2  0  0  0  0
  9 27  1  0  0  0  0
 10 12  2  0  0  0  0
 10 11  1  0  0  0  0
 11  6  2  0  0  0  0
 12  7  1  0  0  0  0
 13  2  2  0  0  0  0
 14 13  1  0  0  0  0
 14 15  2  0  0  0  0
 15 17  1  0  0  0  0
 16  3  2  0  0  0  0
 17 18  2  0  0  0  0
 18  5  1  0  0  0  0
 20 27  2  0  0  0  0
 20 25  1  0  0  0  0
 21 29  1  0  0  0  0
 21 22  2  0  0  0  0
 23 19  1  0  0  0  0
 23 22  1  0  0  0  0
 24 21  1  0  0  0  0
 25 24  1  0  0  0  0
 25 23  2  0  0  0  0
 26 24  1  0  0  0  0
 27 28  1  0  0  0  0
 28 19  2  0  0  0  0
 29 30  2  0  0  0  0
 31 29  1  0  0  0  0
 32 14  1  0  0  0  0
 33 32  1  0  0  0  0
 34 33  1  0  0  0  0
M  END
>  <MODEL>
6

>  <REMARK>
 VINA RESULT:     -10.2      3.466      7.940
  Name = 
  4 active torsions:
  status: ('A' for Active; 'I' for Inactive)
    1  A    between atoms: C_3  and  C_13
    2  A    between atoms: C_3  and  C_25
    3  A    between atoms: C_7  and  C_11
    4  A    between atoms: C_18  and  C_30
                            x       y       z     vdW  Elec       q    Type
                         _______ _______ _______ _____ _____    ______ ____

>  <TORSDO>
F 4

$$$$
=
 OpenBabel10272415263D

 34 39  0  0  0  0  0  0  0  0999 V2000
  189.3240  177.2170  143.2030 C   0  0  0  0  0  3  0  0  0  0  0  0
  189.7770  177.0430  146.9570 C   0  0  0  0  0  0  0  0  0  0  0  0
  188.4570  177.5450  147.3810 C   0  0  0  0  0  0  0  0  0  0  0  0
  187.1470  178.0450  142.6860 N   0  0  0  0  0  0  0  0  0  0  0  0
  189.0530  177.3200  144.5730 C   0  0  0  0  0  0  0  0  0  0  0  0
  186.8420  178.1600  144.0040 C   0  0  0  0  0  0  0  0  0  0  0  0
  185.2680  178.7570  145.7440 C   0  0  0  0  0  3  0  0  0  0  0  0
  185.5870  178.6370  144.3890 C   0  0  0  0  0  3  0  0  0  0  0  0
  188.3570  177.5850  142.2590 C   0  0  0  0  0  0  0  0  0  0  0  0
  187.4670  177.9220  146.3520 C   0  0  0  0  0  0  0  0  0  0  0  0
  187.7930  177.7980  144.9850 C   0  0  0  0  0  0  0  0  0  0  0  0
  186.2020  178.4020  146.7200 C   0  0  0  0  0  3  0  0  0  0  0  0
  190.7390  176.6760  147.9090 C   0  0  0  0  0  3  0  0  0  0  0  0
  191.9900  176.2030  147.5030 C   0  0  0  0  0  0  0  0  0  0  0  0
  192.2830  176.0860  146.1400 C   0  0  0  0  0  3  0  0  0  0  0  0
  188.1750  177.6490  148.6070 O   0  0  0  0  0  0  0  0  0  0  0  0
  191.3310  176.4490  145.1860 C   0  0  0  0  0  3  0  0  0  0  0  0
  190.0730  176.9300  145.5820 C   0  0  0  0  0  0  0  0  0  0  0  0
  190.2360  177.1890  138.9670 C   0  0  0  0  0  3  0  0  0  0  0  0
  187.5780  177.5690  139.8820 C   0  0  0  0  0  3  0  0  0  0  0  0
  187.8040  177.3710  136.3730 C   0  0  0  0  0  0  0  0  0  0  0  0
  189.1540  177.2170  136.7050 C   0  0  0  0  0  3  0  0  0  0  0  0
  189.1650  177.2820  138.0850 C   0  0  0  0  0  0  0  0  0  0  0  0
  187.0370  177.5210  137.4850 N   0  0  0  0  0  0  0  0  0  0  0  0
  187.8830  177.4650  138.5250 C   0  0  0  0  0  0  0  0  0  0  0  0
  185.5940  177.7070  137.5600 C   0  0  0  0  0  1  0  0  0  0  0  0
  188.6370  177.4800  140.8110 C   0  0  0  0  0  0  0  0  0  0  0  0
  189.9610  177.2910  140.3420 C   0  0  0  0  0  3  0  0  0  0  0  0
  187.2990  177.3680  134.9870 C   0  0  0  0  0  0  0  0  0  0  0  0
  187.1520  178.4460  134.3540 O   0  0  0  0  0  0  0  0  0  0  0  0
  186.9690  176.1370  134.3510 N   0  0  0  0  0  1  0  0  0  0  0  0
  193.0000  175.7990  148.5190 C   0  0  0  0  0  2  0  0  0  0  0  0
  193.2640  176.9440  149.4770 C   0  0  0  0  0  2  0  0  0  0  0  0
  194.5980  176.9130  149.8810 O   0  0  0  0  0  1  0  0  0  0  0  0
  1  5  1  0  0  0  0
  2  3  1  0  0  0  0
  2 13  1  0  0  0  0
  3 16  2  0  0  0  0
  4  6  2  0  0  0  0
  5 11  2  0  0  0  0
  5 18  1  0  0  0  0
  6  8  1  0  0  0  0
  6 11  1  0  0  0  0
  7 12  1  0  0  0  0
  8  7  2  0  0  0  0
  9  4  1  0  0  0  0
  9  1  2  0  0  0  0
 10 12  2  0  0  0  0
 10  3  1  0  0  0  0
 11 10  1  0  0  0  0
 14 13  2  0  0  0  0
 14 32  1  0  0  0  0
 15 14  1  0  0  0  0
 17 18  1  0  0  0  0
 17 15  2  0  0  0  0
 18  2  2  0  0  0  0
 19 28  1  0  0  0  0
 20 27  1  0  0  0  0
 21 22  2  0  0  0  0
 21 24  1  0  0  0  0
 22 23  1  0  0  0  0
 23 25  1  0  0  0  0
 23 19  2  0  0  0  0
 24 26  1  0  0  0  0
 24 25  1  0  0  0  0
 25 20  2  0  0  0  0
 27  9  1  0  0  0  0
 28 27  2  0  0  0  0
 29 21  1  0  0  0  0
 30 29  2  0  0  0  0
 31 29  1  0  0  0  0
 32 33  1  0  0  0  0
 33 34  1  0  0  0  0
M  END
>  <MODEL>
7

>  <REMARK>
 VINA RESULT:      -9.9      2.904      6.103
  Name = 
  4 active torsions:
  status: ('A' for Active; 'I' for Inactive)
    1  A    between atoms: C_3  and  C_13
    2  A    between atoms: C_3  and  C_25
    3  A    between atoms: C_7  and  C_11
    4  A    between atoms: C_18  and  C_30
                            x       y       z     vdW  Elec       q    Type
                         _______ _______ _______ _____ _____    ______ ____

>  <TORSDO>
F 4

$$$$
=
 OpenBabel10272415263D

 34 39  0  0  0  0  0  0  0  0999 V2000
  187.2510  177.9440  142.2470 C   0  0  0  0  0  3  0  0  0  0  0  0
  187.8140  177.8030  145.9880 C   0  0  0  0  0  0  0  0  0  0  0  0
  186.4640  178.1810  146.4480 C   0  0  0  0  0  0  0  0  0  0  0  0
  184.9950  178.5710  141.7890 N   0  0  0  0  0  0  0  0  0  0  0  0
  187.0060  178.0180  143.6240 C   0  0  0  0  0  0  0  0  0  0  0  0
  184.7140  178.6540  143.1150 C   0  0  0  0  0  0  0  0  0  0  0  0
  183.1370  179.1010  144.8970 C   0  0  0  0  0  3  0  0  0  0  0  0
  183.4310  179.0140  143.5340 C   0  0  0  0  0  3  0  0  0  0  0  0
  186.2300  178.2250  141.3290 C   0  0  0  0  0  0  0  0  0  0  0  0
  185.4180  178.4680  145.4460 C   0  0  0  0  0  0  0  0  0  0  0  0
  185.7190  178.3780  144.0700 C   0  0  0  0  0  0  0  0  0  0  0  0
  184.1250  178.8300  145.8480 C   0  0  0  0  0  3  0  0  0  0  0  0
  188.8290  177.5220  146.9130 C   0  0  0  0  0  3  0  0  0  0  0  0
  190.1080  177.1680  146.4730 C   0  0  0  0  0  0  0  0  0  0  0  0
  190.3750  177.0810  145.1030 C   0  0  0  0  0  3  0  0  0  0  0  0
  186.2060  178.2560  147.6800 O   0  0  0  0  0  0  0  0  0  0  0  0
  189.3690  177.3580  144.1750 C   0  0  0  0  0  3  0  0  0  0  0  0
  188.0830  177.7210  144.6050 C   0  0  0  0  0  0  0  0  0  0  0  0
  185.6780  178.3640  137.5610 C   0  0  0  0  0  3  0  0  0  0  0  0
  187.7610  177.7910  139.4000 C   0  0  0  0  0  3  0  0  0  0  0  0
  188.7780  177.4940  136.0410 C   0  0  0  0  0  0  0  0  0  0  0  0
  187.4420  177.8650  135.8500 C   0  0  0  0  0  3  0  0  0  0  0  0
  186.9530  178.0070  137.1350 C   0  0  0  0  0  0  0  0  0  0  0  0
  189.0840  177.4140  137.3620 N   0  0  0  0  0  0  0  0  0  0  0  0
  187.9580  177.7300  138.0200 C   0  0  0  0  0  0  0  0  0  0  0  0
  190.3610  177.0600  137.9660 C   0  0  0  0  0  1  0  0  0  0  0  0
  186.4810  178.1490  139.8740 C   0  0  0  0  0  0  0  0  0  0  0  0
  185.4480  178.4320  138.9460 C   0  0  0  0  0  3  0  0  0  0  0  0
  189.7160  177.2280  134.9340 C   0  0  0  0  0  0  0  0  0  0  0  0
  190.3370  178.1700  134.3750 O   0  0  0  0  0  0  0  0  0  0  0  0
  189.9280  175.8930  134.4850 N   0  0  0  0  0  1  0  0  0  0  0  0
  191.1760  176.8550  147.4620 C   0  0  0  0  0  2  0  0  0  0  0  0
  191.7300  175.4660  147.2110 C   0  0  0  0  0  2  0  0  0  0  0  0
  192.6670  175.1550  148.1950 O   0  0  0  0  0  1  0  0  0  0  0  0
  1  5  1  0  0  0  0
  2  3  1  0  0  0  0
  2 13  1  0  0  0  0
  3 16  2  0  0  0  0
  4  6  2  0  0  0  0
  5 11  2  0  0  0  0
  5 18  1  0  0  0  0
  6  8  1  0  0  0  0
  6 11  1  0  0  0  0
  7 12  1  0  0  0  0
  8  7  2  0  0  0  0
  9  4  1  0  0  0  0
  9  1  2  0  0  0  0
 10 12  2  0  0  0  0
 10  3  1  0  0  0  0
 11 10  1  0  0  0  0
 14 13  2  0  0  0  0
 14 32  1  0  0  0  0
 15 14  1  0  0  0  0
 17 18  1  0  0  0  0
 17 15  2  0  0  0  0
 18  2  2  0  0  0  0
 19 28  1  0  0  0  0
 20 27  1  0  0  0  0
 21 24  1  0  0  0  0
 22 21  2  0  0  0  0
 22 23  1  0  0  0  0
 23 19  2  0  0  0  0
 23 25  1  0  0  0  0
 24 26  1  0  0  0  0
 24 25  1  0  0  0  0
 25 20  2  0  0  0  0
 27  9  1  0  0  0  0
 28 27  2  0  0  0  0
 29 21  1  0  0  0  0
 30 29  2  0  0  0  0
 31 29  1  0  0  0  0
 33 32  1  0  0  0  0
 33 34  1  0  0  0  0
M  END
>  <MODEL>
8

>  <REMARK>
 VINA RESULT:      -9.9      2.428      5.628
  Name = 
  4 active torsions:
  status: ('A' for Active; 'I' for Inactive)
    1  A    between atoms: C_3  and  C_13
    2  A    between atoms: C_3  and  C_25
    3  A    between atoms: C_7  and  C_11
    4  A    between atoms: C_18  and  C_30
                            x       y       z     vdW  Elec       q    Type
                         _______ _______ _______ _____ _____    ______ ____

>  <TORSDO>
F 4

$$$$
=
 OpenBabel10272415263D

 34 39  0  0  0  0  0  0  0  0999 V2000
  187.2270  177.9730  141.3480 C   0  0  0  0  0  3  0  0  0  0  0  0
  186.5840  178.0500  145.0770 C   0  0  0  0  0  0  0  0  0  0  0  0
  185.1500  178.3950  145.0660 C   0  0  0  0  0  0  0  0  0  0  0  0
  185.2180  178.4830  140.1660 N   0  0  0  0  0  0  0  0  0  0  0  0
  186.5590  178.1090  142.5710 C   0  0  0  0  0  0  0  0  0  0  0  0
  184.5310  178.6230  141.3290 C   0  0  0  0  0  0  0  0  0  0  0  0
  182.4620  179.0970  142.4960 C   0  0  0  0  0  3  0  0  0  0  0  0
  183.1740  178.9510  141.3020 C   0  0  0  0  0  3  0  0  0  0  0  0
  186.5420  178.1640  140.1400 C   0  0  0  0  0  0  0  0  0  0  0  0
  184.4670  178.5870  143.7700 C   0  0  0  0  0  0  0  0  0  0  0  0
  185.1890  178.4390  142.5660 C   0  0  0  0  0  0  0  0  0  0  0  0
  183.1050  178.9160  143.7230 C   0  0  0  0  0  3  0  0  0  0  0  0
  187.2610  177.8600  146.2890 C   0  0  0  0  0  3  0  0  0  0  0  0
  188.6210  177.5350  146.2960 C   0  0  0  0  0  0  0  0  0  0  0  0
  189.3090  177.3890  145.0870 C   0  0  0  0  0  3  0  0  0  0  0  0
  184.5140  178.5240  146.1480 O   0  0  0  0  0  0  0  0  0  0  0  0
  188.6410  177.5750  143.8750 C   0  0  0  0  0  3  0  0  0  0  0  0
  187.2770  177.9070  143.8560 C   0  0  0  0  0  0  0  0  0  0  0  0
  187.4710  178.6260  136.4730 C   0  0  0  0  0  3  0  0  0  0  0  0
  188.3490  177.1550  138.7350 C   0  0  0  0  0  3  0  0  0  0  0  0
  190.2840  176.5310  135.8590 C   0  0  0  0  0  0  0  0  0  0  0  0
  189.3710  177.4510  135.3330 C   0  0  0  0  0  3  0  0  0  0  0  0
  188.5570  177.7600  136.4060 C   0  0  0  0  0  0  0  0  0  0  0  0
  190.0400  176.2920  137.1740 N   0  0  0  0  0  0  0  0  0  0  0  0
  188.9810  177.0500  137.4960 C   0  0  0  0  0  0  0  0  0  0  0  0
  190.7640  175.4010  138.0720 C   0  0  0  0  0  1  0  0  0  0  0  0
  187.2420  178.0230  138.8450 C   0  0  0  0  0  0  0  0  0  0  0  0
  186.8110  178.7530  137.7080 C   0  0  0  0  0  3  0  0  0  0  0  0
  191.3640  175.9100  135.0690 C   0  0  0  0  0  0  0  0  0  0  0  0
  191.1390  174.8990  134.3530 O   0  0  0  0  0  0  0  0  0  0  0  0
  192.6800  176.4530  135.1110 N   0  0  0  0  0  1  0  0  0  0  0  0
  189.3290  177.3180  147.5870 C   0  0  0  0  0  2  0  0  0  0  0  0
  188.9680  178.4130  148.5720 C   0  0  0  0  0  2  0  0  0  0  0  0
  187.8880  178.0000  149.3500 O   0  0  0  0  0  1  0  0  0  0  0  0
  1  5  1  0  0  0  0
  2 13  1  0  0  0  0
  3  2  1  0  0  0  0
  3 16  2  0  0  0  0
  4  6  2  0  0  0  0
  5 18  1  0  0  0  0
  6 11  1  0  0  0  0
  7 12  1  0  0  0  0
  8  6  1  0  0  0  0
  8  7  2  0  0  0  0
  9  4  1  0  0  0  0
  9  1  2  0  0  0  0
 10  3  1  0  0  0  0
 11  5  2  0  0  0  0
 11 10  1  0  0  0  0
 12 10  2  0  0  0  0
 13 14  2  0  0  0  0
 14 32  1  0  0  0  0
 15 14  1  0  0  0  0
 17 15  2  0  0  0  0
 18 17  1  0  0  0  0
 18  2  2  0  0  0  0
 19 28  1  0  0  0  0
 20 27  1  0  0  0  0
 21 24  1  0  0  0  0
 22 21  2  0  0  0  0
 22 23  1  0  0  0  0
 23 19  2  0  0  0  0
 23 25  1  0  0  0  0
 24 25  1  0  0  0  0
 24 26  1  0  0  0  0
 25 20  2  0  0  0  0
 27  9  1  0  0  0  0
 28 27  2  0  0  0  0
 29 31  1  0  0  0  0
 29 21  1  0  0  0  0
 30 29  2  0  0  0  0
 32 33  1  0  0  0  0
 33 34  1  0  0  0  0
M  END
>  <MODEL>
9

>  <REMARK>
 VINA RESULT:      -9.2      2.115      5.084
  Name = 
  4 active torsions:
  status: ('A' for Active; 'I' for Inactive)
    1  A    between atoms: C_3  and  C_13
    2  A    between atoms: C_3  and  C_25
    3  A    between atoms: C_7  and  C_11
    4  A    between atoms: C_18  and  C_30
                            x       y       z     vdW  Elec       q    Type
                         _______ _______ _______ _____ _____    ______ ____

>  <TORSDO>
F 4

$$$$
