=
 OpenBabel10272401513D

 28 33  0  0  1  0  0  0  0  0999 V2000
  187.7050  177.4550  143.9880 C   0  0  0  0  0  0  0  0  0  0  0  0
  189.1180  176.9300  143.8340 C   0  0  1  0  0  3  0  0  0  0  0  0
  188.7880  177.3670  141.3300 C   0  0  2  0  0  3  0  0  0  0  0  0
  186.2150  177.7380  138.2610 C   0  0  0  0  0  3  0  0  0  0  0  0
  183.7520  178.8320  144.6350 N   0  0  0  0  0  1  0  0  0  0  0  0
  190.5730  178.7670  143.9590 C   0  0  1  0  0  3  0  0  0  0  0  0
  189.7780  177.2430  142.4880 C   0  0  1  0  0  3  0  0  0  0  0  0
  191.1070  176.6430  145.2490 C   0  0  0  0  0  1  0  0  0  0  0  0
  189.2070  177.9270  137.6730 C   0  0  0  0  0  3  0  0  0  0  0  0
  186.7950  178.7710  140.4360 C   0  0  2  0  0  3  0  0  0  0  0  0
  190.0270  177.6250  144.8050 C   0  0  2  0  0  3  0  0  0  0  0  0
  187.3090  177.7950  136.0600 C   0  0  0  0  0  0  0  0  0  0  0  0
  187.1730  178.0870  139.1310 C   0  0  0  0  0  0  0  0  0  0  0  0
  189.5410  177.6930  140.0440 C   0  0  0  0  0  2  0  0  0  0  0  0
  188.5530  178.1580  136.3710 C   0  0  0  0  0  3  0  0  0  0  0  0
  185.7210  178.6170  143.1750 C   0  0  0  0  0  0  0  0  0  0  0  0
  187.7380  178.4410  141.6390 C   0  0  1  0  0  3  0  0  0  0  0  0
  188.6200  177.8320  138.8750 C   0  0  0  0  0  0  0  0  0  0  0  0
  185.7400  177.6600  145.4010 C   0  0  0  0  0  3  0  0  0  0  0  0
  185.0080  179.3620  142.0910 C   0  0  0  0  0  2  0  0  0  0  0  0
  185.0800  178.3730  144.4010 C   0  0  0  0  0  0  0  0  0  0  0  0
  191.9290  179.2950  144.4060 C   0  0  0  0  0  1  0  0  0  0  0  0
  186.8010  178.1270  134.8110 O   0  0  0  0  0  1  0  0  0  0  0  0
  186.4670  176.9960  136.9930 C   0  0  0  0  0  2  0  0  0  0  0  0
  185.2950  178.6860  140.7650 C   0  0  0  0  0  2  0  0  0  0  0  0
  187.0400  177.2030  145.1940 C   0  0  0  0  0  3  0  0  0  0  0  0
  187.0360  178.1530  142.9560 C   0  0  0  0  0  0  0  0  0  0  0  0
  190.5990  178.3860  142.6070 O   0  0  0  0  0  0  0  0  0  0  0  0
  1 26  1  0  0  0  0
  2  1  1  6  0  0  0
  2 11  1  0  0  0  0
  3 14  1  6  0  0  0
  3 17  1  0  0  0  0
  3  7  1  0  0  0  0
  4 13  2  0  0  0  0
  6 22  1  1  0  0  0
  6 11  1  0  0  0  0
  7 28  1  1  0  0  0
  7  2  1  0  0  0  0
  9 18  2  0  0  0  0
 10 25  1  1  0  0  0
 10 17  1  0  0  0  0
 11  8  1  6  0  0  0
 12 15  2  0  0  0  0
 12 24  1  0  0  0  0
 13 10  1  0  0  0  0
 15  9  1  0  0  0  0
 16 21  2  0  0  0  0
 17 27  1  1  0  0  0
 18 13  1  0  0  0  0
 18 14  1  0  0  0  0
 20 16  1  0  0  0  0
 21  5  1  0  0  0  0
 21 19  1  0  0  0  0
 23 12  1  0  0  0  0
 24  4  1  0  0  0  0
 25 20  1  0  0  0  0
 26 19  2  0  0  0  0
 27 16  1  0  0  0  0
 27  1  2  0  0  0  0
 28  6  1  0  0  0  0
M  END
>  <MODEL>
1

>  <REMARK>
 VINA RESULT:     -10.2      0.000      0.000
  Name = 
  0 active torsions:
  status: ('A' for Active; 'I' for Inactive)
                            x       y       z     vdW  Elec       q    Type
                         _______ _______ _______ _____ _____    ______ ____

>  <TORSDO>
F 0

$$$$
=
 OpenBabel10272401513D

 28 33  0  0  1  0  0  0  0  0999 V2000
  184.8110  177.7940  138.4290 C   0  0  0  0  0  0  0  0  0  0  0  0
  183.3380  177.8120  138.7850 C   0  0  1  0  0  3  0  0  0  0  0  0
  184.1350  178.1430  141.1980 C   0  0  2  0  0  3  0  0  0  0  0  0
  187.0620  177.6180  143.9070 C   0  0  0  0  0  3  0  0  0  0  0  0
  188.8700  177.6520  137.2270 N   0  0  0  0  0  1  0  0  0  0  0  0
  182.6230  180.0470  138.7190 C   0  0  1  0  0  3  0  0  0  0  0  0
  183.0190  178.3640  140.1770 C   0  0  1  0  0  3  0  0  0  0  0  0
  181.2040  178.2350  137.6400 C   0  0  0  0  0  1  0  0  0  0  0  0
  184.4370  178.8760  144.8360 C   0  0  0  0  0  3  0  0  0  0  0  0
  186.5970  178.7540  141.7560 C   0  0  2  0  0  3  0  0  0  0  0  0
  182.6110  178.7710  137.8880 C   0  0  2  0  0  3  0  0  0  0  0  0
  186.3660  178.1000  146.2150 C   0  0  0  0  0  0  0  0  0  0  0  0
  186.1800  178.2730  143.1380 C   0  0  0  0  0  0  0  0  0  0  0  0
  183.7260  178.7380  142.5430 C   0  0  0  0  0  2  0  0  0  0  0  0
  185.3010  178.8790  146.0330 C   0  0  0  0  0  3  0  0  0  0  0  0
  187.1680  178.1810  138.9230 C   0  0  0  0  0  0  0  0  0  0  0  0
  185.4450  178.7650  140.6980 C   0  0  1  0  0  3  0  0  0  0  0  0
  184.7860  178.5570  143.5810 C   0  0  0  0  0  0  0  0  0  0  0  0
  186.5120  177.2580  136.7810 C   0  0  0  0  0  3  0  0  0  0  0  0
  188.2360  178.6380  139.8640 C   0  0  0  0  0  2  0  0  0  0  0  0
  187.5090  177.7030  137.6470 C   0  0  0  0  0  0  0  0  0  0  0  0
  181.4930  181.0180  138.4050 C   0  0  0  0  0  1  0  0  0  0  0  0
  187.1210  178.2470  147.3700 O   0  0  0  0  0  1  0  0  0  0  0  0
  186.7370  177.0360  145.2400 C   0  0  0  0  0  2  0  0  0  0  0  0
  187.9100  178.1320  141.2560 C   0  0  0  0  0  2  0  0  0  0  0  0
  185.1750  177.3000  137.1700 C   0  0  0  0  0  3  0  0  0  0  0  0
  185.8160  178.2220  139.3270 C   0  0  0  0  0  0  0  0  0  0  0  0
  182.6460  179.7230  140.0860 O   0  0  0  0  0  0  0  0  0  0  0  0
  1 27  1  0  0  0  0
  2  1  1  6  0  0  0
  2  7  1  0  0  0  0
  3 14  1  1  0  0  0
  4 24  1  0  0  0  0
  5 21  1  0  0  0  0
  6 22  1  1  0  0  0
  6 28  1  0  0  0  0
  7 28  1  6  0  0  0
  7  3  1  0  0  0  0
  9 15  1  0  0  0  0
 10 25  1  6  0  0  0
 10 13  1  0  0  0  0
 11  8  1  1  0  0  0
 11  6  1  0  0  0  0
 11  2  1  0  0  0  0
 12 23  1  0  0  0  0
 13 18  1  0  0  0  0
 13  4  2  0  0  0  0
 14 18  1  0  0  0  0
 15 12  2  0  0  0  0
 16 27  2  0  0  0  0
 16 20  1  0  0  0  0
 17 27  1  6  0  0  0
 17  3  1  0  0  0  0
 17 10  1  0  0  0  0
 18  9  2  0  0  0  0
 19 26  1  0  0  0  0
 19 21  2  0  0  0  0
 20 25  1  0  0  0  0
 21 16  1  0  0  0  0
 24 12  1  0  0  0  0
 26  1  2  0  0  0  0
M  END
>  <MODEL>
2

>  <REMARK>
 VINA RESULT:      -9.6      3.154      7.859
  Name = 
  0 active torsions:
  status: ('A' for Active; 'I' for Inactive)
                            x       y       z     vdW  Elec       q    Type
                         _______ _______ _______ _____ _____    ______ ____

>  <TORSDO>
F 0

$$$$
=
 OpenBabel10272401513D

 28 33  0  0  1  0  0  0  0  0999 V2000
  188.3940  176.9900  145.4710 C   0  0  0  0  0  0  0  0  0  0  0  0
  188.7070  176.4250  144.1000 C   0  0  1  0  0  3  0  0  0  0  0  0
  186.4650  177.4450  143.3930 C   0  0  2  0  0  3  0  0  0  0  0  0
  182.7970  178.6730  144.4970 C   0  0  0  0  0  3  0  0  0  0  0  0
  187.6840  178.4310  149.3910 N   0  0  0  0  0  1  0  0  0  0  0  0
  189.8400  178.0890  142.8920 C   0  0  1  0  0  3  0  0  0  0  0  0
  187.8600  176.9970  142.9600 C   0  0  1  0  0  3  0  0  0  0  0  0
  190.6980  175.6960  142.8540 C   0  0  0  0  0  1  0  0  0  0  0  0
  183.5370  178.8010  141.5350 C   0  0  0  0  0  3  0  0  0  0  0  0
  185.1960  179.1400  144.8960 C   0  0  2  0  0  3  0  0  0  0  0  0
  190.0980  176.8210  143.6940 C   0  0  2  0  0  3  0  0  0  0  0  0
  181.3100  179.1630  142.6010 C   0  0  0  0  0  0  0  0  0  0  0  0
  184.0370  178.7510  143.9920 C   0  0  0  0  0  0  0  0  0  0  0  0
  185.7110  178.0080  142.1920 C   0  0  0  0  0  2  0  0  0  0  0  0
  182.1750  179.3650  141.6080 C   0  0  0  0  0  3  0  0  0  0  0  0
  187.1430  178.4310  146.9900 C   0  0  0  0  0  0  0  0  0  0  0  0
  186.5640  178.4840  144.5160 C   0  0  1  0  0  3  0  0  0  0  0  0
  184.3380  178.4700  142.5590 C   0  0  0  0  0  0  0  0  0  0  0  0
  188.8920  176.9910  147.8480 C   0  0  0  0  0  3  0  0  0  0  0  0
  186.0720  179.4480  147.2240 C   0  0  0  0  0  2  0  0  0  0  0  0
  187.9090  177.9540  148.0670 C   0  0  0  0  0  0  0  0  0  0  0  0
  190.9090  178.4130  141.8580 C   0  0  0  0  0  1  0  0  0  0  0  0
  180.0790  179.8040  142.5660 O   0  0  0  0  0  1  0  0  0  0  0  0
  181.6050  178.2260  143.7210 C   0  0  0  0  0  2  0  0  0  0  0  0
  184.8580  179.0780  146.3950 C   0  0  0  0  0  2  0  0  0  0  0  0
  189.1300  176.5110  146.5610 C   0  0  0  0  0  3  0  0  0  0  0  0
  187.3750  177.9470  145.6850 C   0  0  0  0  0  0  0  0  0  0  0  0
  188.5670  178.0270  142.3010 O   0  0  0  0  0  0  0  0  0  0  0  0
  1 27  2  0  0  0  0
  1 26  1  0  0  0  0
  2  1  1  1  0  0  0
  3 14  1  6  0  0  0
  3 17  1  0  0  0  0
  6 22  1  6  0  0  0
  6 11  1  0  0  0  0
  7 28  1  1  0  0  0
  7  3  1  0  0  0  0
  7  2  1  0  0  0  0
  9 15  1  0  0  0  0
  9 18  2  0  0  0  0
 10 25  1  1  0  0  0
 11  8  1  6  0  0  0
 11  2  1  0  0  0  0
 12 24  1  0  0  0  0
 13  4  2  0  0  0  0
 13 10  1  0  0  0  0
 14 18  1  0  0  0  0
 15 12  2  0  0  0  0
 16 20  1  0  0  0  0
 16 21  2  0  0  0  0
 17 10  1  0  0  0  0
 17 27  1  1  0  0  0
 18 13  1  0  0  0  0
 19 21  1  0  0  0  0
 21  5  1  0  0  0  0
 23 12  1  0  0  0  0
 24  4  1  0  0  0  0
 25 20  1  0  0  0  0
 26 19  2  0  0  0  0
 27 16  1  0  0  0  0
 28  6  1  0  0  0  0
M  END
>  <MODEL>
3

>  <REMARK>
 VINA RESULT:      -9.3      3.357      5.186
  Name = 
  0 active torsions:
  status: ('A' for Active; 'I' for Inactive)
                            x       y       z     vdW  Elec       q    Type
                         _______ _______ _______ _____ _____    ______ ____

>  <TORSDO>
F 0

$$$$
=
 OpenBabel10272401513D

 28 33  0  0  1  0  0  0  0  0999 V2000
  187.9890  177.3200  145.2170 C   0  0  0  0  0  0  0  0  0  0  0  0
  189.1470  176.8900  144.3410 C   0  0  1  0  0  3  0  0  0  0  0  0
  187.6330  177.5330  142.3760 C   0  0  2  0  0  3  0  0  0  0  0  0
  183.8860  178.0390  141.0040 C   0  0  0  0  0  3  0  0  0  0  0  0
  184.8520  178.4130  147.8460 N   0  0  0  0  0  1  0  0  0  0  0  0
  190.4700  178.7860  143.9360 C   0  0  1  0  0  3  0  0  0  0  0  0
  189.0630  177.3600  142.8860 C   0  0  1  0  0  3  0  0  0  0  0  0
  191.5760  176.5870  144.5710 C   0  0  0  0  0  1  0  0  0  0  0  0
  186.2070  178.4440  139.0590 C   0  0  0  0  0  3  0  0  0  0  0  0
  185.4520  178.9000  142.7180 C   0  0  2  0  0  3  0  0  0  0  0  0
  190.4130  177.5440  144.8150 C   0  0  2  0  0  3  0  0  0  0  0  0
  183.7630  178.3550  138.5680 C   0  0  0  0  0  0  0  0  0  0  0  0
  185.1460  178.3600  141.3290 C   0  0  0  0  0  0  0  0  0  0  0  0
  187.6590  178.0150  140.9280 C   0  0  0  0  0  2  0  0  0  0  0  0
  184.9980  178.7560  138.2720 C   0  0  0  0  0  3  0  0  0  0  0  0
  185.8560  178.4400  145.5990 C   0  0  0  0  0  0  0  0  0  0  0  0
  186.8640  178.5150  143.2680 C   0  0  1  0  0  3  0  0  0  0  0  0
  186.2840  178.2090  140.3770 C   0  0  0  0  0  0  0  0  0  0  0  0
  186.9650  177.2880  147.4200 C   0  0  0  0  0  3  0  0  0  0  0  0
  184.7010  179.2390  145.0840 C   0  0  0  0  0  2  0  0  0  0  0  0
  185.8980  178.0510  146.9490 C   0  0  0  0  0  0  0  0  0  0  0  0
  191.8700  179.3450  143.7210 C   0  0  0  0  0  1  0  0  0  0  0  0
  182.7080  178.7690  137.7670 O   0  0  0  0  0  1  0  0  0  0  0  0
  183.4890  177.4290  139.7030 C   0  0  0  0  0  2  0  0  0  0  0  0
  184.3050  178.7030  143.7230 C   0  0  0  0  0  2  0  0  0  0  0  0
  187.9990  176.9240  146.5600 C   0  0  0  0  0  3  0  0  0  0  0  0
  186.8970  178.0710  144.7210 C   0  0  0  0  0  0  0  0  0  0  0  0
  189.8330  178.5310  142.7100 O   0  0  0  0  0  0  0  0  0  0  0  0
  1 26  1  0  0  0  0
  2 11  1  0  0  0  0
  2  1  1  1  0  0  0
  3 14  1  6  0  0  0
  3  7  1  0  0  0  0
  3 17  1  0  0  0  0
  4 13  2  0  0  0  0
  6 22  1  6  0  0  0
  6 11  1  0  0  0  0
  7 28  1  1  0  0  0
  7  2  1  0  0  0  0
  9 18  2  0  0  0  0
 10 17  1  0  0  0  0
 10 25  1  1  0  0  0
 11  8  1  6  0  0  0
 12 24  1  0  0  0  0
 13 10  1  0  0  0  0
 15 12  2  0  0  0  0
 15  9  1  0  0  0  0
 16 21  2  0  0  0  0
 17 27  1  1  0  0  0
 18 14  1  0  0  0  0
 18 13  1  0  0  0  0
 20 16  1  0  0  0  0
 21 19  1  0  0  0  0
 21  5  1  0  0  0  0
 23 12  1  0  0  0  0
 24  4  1  0  0  0  0
 25 20  1  0  0  0  0
 26 19  2  0  0  0  0
 27  1  2  0  0  0  0
 27 16  1  0  0  0  0
 28  6  1  0  0  0  0
M  END
>  <MODEL>
4

>  <REMARK>
 VINA RESULT:      -8.4      1.915      2.649
  Name = 
  0 active torsions:
  status: ('A' for Active; 'I' for Inactive)
                            x       y       z     vdW  Elec       q    Type
                         _______ _______ _______ _____ _____    ______ ____

>  <TORSDO>
F 0

$$$$
=
 OpenBabel10272401513D

 28 33  0  0  1  0  0  0  0  0999 V2000
  187.2600  178.7050  141.4700 C   0  0  0  0  0  0  0  0  0  0  0  0
  188.4880  178.7170  140.5820 C   0  0  1  0  0  3  0  0  0  0  0  0
  189.6850  177.6330  142.5730 C   0  0  2  0  0  3  0  0  0  0  0  0
  189.8360  177.0900  146.5550 C   0  0  0  0  0  3  0  0  0  0  0  0
  183.7270  178.8230  143.8040 N   0  0  0  0  0  1  0  0  0  0  0  0
  188.5510  176.6700  139.4350 C   0  0  1  0  0  3  0  0  0  0  0  0
  189.6330  177.8180  141.0560 C   0  0  1  0  0  3  0  0  0  0  0  0
  188.9820  178.8360  138.1770 C   0  0  0  0  0  1  0  0  0  0  0  0
  192.0450  175.8580  144.8400 C   0  0  0  0  0  3  0  0  0  0  0  0
  188.3780  176.6690  144.5980 C   0  0  2  0  0  3  0  0  0  0  0  0
  188.1530  178.1260  139.2430 C   0  0  2  0  0  3  0  0  0  0  0  0
  191.9150  176.0270  147.3260 C   0  0  0  0  0  0  0  0  0  0  0  0
  189.7450  176.7660  145.2570 C   0  0  0  0  0  0  0  0  0  0  0  0
  190.8480  176.7150  142.9380 C   0  0  0  0  0  2  0  0  0  0  0  0
  192.3570  175.4330  146.2190 C   0  0  0  0  0  3  0  0  0  0  0  0
  186.0100  177.9820  143.4360 C   0  0  0  0  0  0  0  0  0  0  0  0
  188.3560  177.0680  143.0860 C   0  0  1  0  0  3  0  0  0  0  0  0
  190.9430  176.4930  144.4130 C   0  0  0  0  0  0  0  0  0  0  0  0
  185.0140  179.5380  141.8690 C   0  0  0  0  0  3  0  0  0  0  0  0
  185.9260  177.1780  144.6940 C   0  0  0  0  0  2  0  0  0  0  0  0
  184.9230  178.7750  143.0310 C   0  0  0  0  0  0  0  0  0  0  0  0
  188.9070  175.9360  138.1500 C   0  0  0  0  0  1  0  0  0  0  0  0
  192.2440  175.4850  148.5610 O   0  0  0  0  0  1  0  0  0  0  0  0
  191.1240  177.2890  147.2780 C   0  0  0  0  0  2  0  0  0  0  0  0
  187.2450  177.2880  145.4330 C   0  0  0  0  0  2  0  0  0  0  0  0
  186.1740  179.5060  141.0970 C   0  0  0  0  0  3  0  0  0  0  0  0
  187.1900  177.9470  142.6620 C   0  0  0  0  0  0  0  0  0  0  0  0
  189.5930  176.5820  140.3740 O   0  0  0  0  0  0  0  0  0  0  0  0
  1 27  1  0  0  0  0
  2  7  1  0  0  0  0
  2  1  1  1  0  0  0
  3 14  1  6  0  0  0
  3 17  1  0  0  0  0
  4 24  1  0  0  0  0
  6 22  1  6  0  0  0
  6 28  1  0  0  0  0
  7 28  1  6  0  0  0
  7  3  1  0  0  0  0
  9 15  1  0  0  0  0
 10 13  1  0  0  0  0
 10 25  1  1  0  0  0
 11  8  1  6  0  0  0
 11  6  1  0  0  0  0
 11  2  1  0  0  0  0
 12 23  1  0  0  0  0
 13  4  2  0  0  0  0
 14 18  1  0  0  0  0
 15 12  2  0  0  0  0
 16 20  1  0  0  0  0
 17 27  1  1  0  0  0
 17 10  1  0  0  0  0
 18  9  2  0  0  0  0
 18 13  1  0  0  0  0
 19 21  2  0  0  0  0
 20 25  1  0  0  0  0
 21 16  1  0  0  0  0
 21  5  1  0  0  0  0
 24 12  1  0  0  0  0
 26  1  2  0  0  0  0
 26 19  1  0  0  0  0
 27 16  2  0  0  0  0
M  END
>  <MODEL>
5

>  <REMARK>
 VINA RESULT:      -8.3      1.939      6.531
  Name = 
  0 active torsions:
  status: ('A' for Active; 'I' for Inactive)
                            x       y       z     vdW  Elec       q    Type
                         _______ _______ _______ _____ _____    ______ ____

>  <TORSDO>
F 0

$$$$
=
 OpenBabel10272401513D

 28 33  0  0  1  0  0  0  0  0999 V2000
  188.0440  177.6150  142.4650 C   0  0  0  0  0  0  0  0  0  0  0  0
  189.2480  177.1000  143.2270 C   0  0  1  0  0  3  0  0  0  0  0  0
  190.2800  176.6940  140.9160 C   0  0  2  0  0  3  0  0  0  0  0  0
  189.6680  175.9920  137.0030 C   0  0  0  0  0  3  0  0  0  0  0  0
  184.5540  179.0400  140.5320 N   0  0  0  0  0  1  0  0  0  0  0  0
  190.7060  178.9100  143.5550 C   0  0  1  0  0  3  0  0  0  0  0  0
  190.5290  176.9740  142.3980 C   0  0  1  0  0  3  0  0  0  0  0  0
  190.1990  177.3320  145.4830 C   0  0  0  0  0  1  0  0  0  0  0  0
  192.5440  176.0460  138.0330 C   0  0  0  0  0  3  0  0  0  0  0  0
  189.2350  177.6870  138.7570 C   0  0  2  0  0  3  0  0  0  0  0  0
  189.6460  178.0930  144.2810 C   0  0  2  0  0  3  0  0  0  0  0  0
  191.7070  175.3560  135.7860 C   0  0  0  0  0  0  0  0  0  0  0  0
  190.1060  176.6260  138.1010 C   0  0  0  0  0  0  0  0  0  0  0  0
  191.6130  176.6010  140.1800 C   0  0  0  0  0  2  0  0  0  0  0  0
  192.6690  175.8280  136.5780 C   0  0  0  0  0  3  0  0  0  0  0  0
  186.9300  178.4060  140.4450 C   0  0  0  0  0  0  0  0  0  0  0  0
  189.3920  177.7860  140.3090 C   0  0  1  0  0  3  0  0  0  0  0  0
  191.4290  176.3330  138.7210 C   0  0  0  0  0  0  0  0  0  0  0  0
  185.6940  178.2240  142.5200 C   0  0  0  0  0  3  0  0  0  0  0  0
  186.9750  178.7430  138.9880 C   0  0  0  0  0  2  0  0  0  0  0  0
  185.7360  178.5590  141.1680 C   0  0  0  0  0  0  0  0  0  0  0  0
  191.7200  179.5850  144.4680 C   0  0  0  0  0  1  0  0  0  0  0  0
  191.9450  175.2530  134.4220 O   0  0  0  0  0  1  0  0  0  0  0  0
  190.4030  174.8840  136.3290 C   0  0  0  0  0  2  0  0  0  0  0  0
  187.7780  177.6800  138.2650 C   0  0  0  0  0  2  0  0  0  0  0  0
  186.8370  177.7530  143.1620 C   0  0  0  0  0  3  0  0  0  0  0  0
  188.0920  177.9260  141.0860 C   0  0  0  0  0  0  0  0  0  0  0  0
  191.3440  178.1120  142.5910 O   0  0  0  0  0  0  0  0  0  0  0  0
  1 26  1  0  0  0  0
  2  1  1  6  0  0  0
  2 11  1  0  0  0  0
  3 14  1  6  0  0  0
  3  7  1  0  0  0  0
  4 13  2  0  0  0  0
  5 21  1  0  0  0  0
  6 11  1  0  0  0  0
  6 22  1  1  0  0  0
  7 28  1  6  0  0  0
  7  2  1  0  0  0  0
  9 18  2  0  0  0  0
 10 25  1  1  0  0  0
 10 17  1  0  0  0  0
 11  8  1  1  0  0  0
 12 24  1  0  0  0  0
 12 15  2  0  0  0  0
 13 18  1  0  0  0  0
 13 10  1  0  0  0  0
 15  9  1  0  0  0  0
 16 27  1  0  0  0  0
 16 21  2  0  0  0  0
 17  3  1  0  0  0  0
 17 27  1  1  0  0  0
 18 14  1  0  0  0  0
 19 26  2  0  0  0  0
 20 16  1  0  0  0  0
 21 19  1  0  0  0  0
 23 12  1  0  0  0  0
 24  4  1  0  0  0  0
 25 20  1  0  0  0  0
 27  1  2  0  0  0  0
 28  6  1  0  0  0  0
M  END
>  <MODEL>
6

>  <REMARK>
 VINA RESULT:      -8.1      2.272      3.097
  Name = 
  0 active torsions:
  status: ('A' for Active; 'I' for Inactive)
                            x       y       z     vdW  Elec       q    Type
                         _______ _______ _______ _____ _____    ______ ____

>  <TORSDO>
F 0

$$$$
=
 OpenBabel10272401513D

 28 33  0  0  1  0  0  0  0  0999 V2000
  184.2860  179.0340  142.9470 C   0  0  0  0  0  0  0  0  0  0  0  0
  184.0370  179.3690  141.4900 C   0  0  1  0  0  3  0  0  0  0  0  0
  186.4450  178.5800  141.1080 C   0  0  2  0  0  3  0  0  0  0  0  0
  190.1150  178.0140  142.6540 C   0  0  0  0  0  3  0  0  0  0  0  0
  184.7930  178.2200  147.0730 N   0  0  0  0  0  1  0  0  0  0  0  0
  183.2390  177.4260  140.4430 C   0  0  1  0  0  3  0  0  0  0  0  0
  185.0520  178.7760  140.5100 C   0  0  1  0  0  3  0  0  0  0  0  0
  182.0990  179.6550  140.0040 C   0  0  0  0  0  1  0  0  0  0  0  0
  189.6820  177.4070  139.6910 C   0  0  0  0  0  3  0  0  0  0  0  0
  187.7660  177.2810  142.9280 C   0  0  2  0  0  3  0  0  0  0  0  0
  182.7510  178.7400  141.0370 C   0  0  2  0  0  3  0  0  0  0  0  0
  191.8250  177.4900  140.9660 C   0  0  0  0  0  0  0  0  0  0  0  0
  188.9490  177.7040  142.0700 C   0  0  0  0  0  0  0  0  0  0  0  0
  187.3740  177.9750  140.0600 C   0  0  0  0  0  2  0  0  0  0  0  0
  191.0900  177.0460  139.9470 C   0  0  0  0  0  3  0  0  0  0  0  0
  185.5560  177.9840  144.7450 C   0  0  0  0  0  0  0  0  0  0  0  0
  186.3700  177.6910  142.3550 C   0  0  1  0  0  3  0  0  0  0  0  0
  188.7530  177.7550  140.5930 C   0  0  0  0  0  0  0  0  0  0  0  0
  183.5680  179.2720  145.2540 C   0  0  0  0  0  3  0  0  0  0  0  0
  186.7180  177.1600  145.2010 C   0  0  0  0  0  2  0  0  0  0  0  0
  184.6380  178.4870  145.6820 C   0  0  0  0  0  0  0  0  0  0  0  0
  182.3210  176.8280  139.3860 C   0  0  0  0  0  1  0  0  0  0  0  0
  193.1230  177.0240  141.1160 O   0  0  0  0  0  1  0  0  0  0  0  0
  191.3110  178.5150  141.9170 C   0  0  0  0  0  2  0  0  0  0  0  0
  187.9500  177.5820  144.4240 C   0  0  0  0  0  2  0  0  0  0  0  0
  183.3960  179.5450  143.8990 C   0  0  0  0  0  3  0  0  0  0  0  0
  185.3910  178.2590  143.3700 C   0  0  0  0  0  0  0  0  0  0  0  0
  184.5450  177.5830  139.9500 O   0  0  0  0  0  0  0  0  0  0  0  0
  1 27  2  0  0  0  0
  1 26  1  0  0  0  0
  2  1  1  1  0  0  0
  3 14  1  6  0  0  0
  3 17  1  0  0  0  0
  6 22  1  6  0  0  0
  6 11  1  0  0  0  0
  7 28  1  1  0  0  0
  7  3  1  0  0  0  0
  7  2  1  0  0  0  0
  9 15  1  0  0  0  0
  9 18  2  0  0  0  0
 10 25  1  1  0  0  0
 11  8  1  6  0  0  0
 11  2  1  0  0  0  0
 12 23  1  0  0  0  0
 12 24  1  0  0  0  0
 13  4  2  0  0  0  0
 13 10  1  0  0  0  0
 14 18  1  0  0  0  0
 15 12  2  0  0  0  0
 16 20  1  0  0  0  0
 16 21  2  0  0  0  0
 17 10  1  0  0  0  0
 17 27  1  1  0  0  0
 18 13  1  0  0  0  0
 19 21  1  0  0  0  0
 21  5  1  0  0  0  0
 24  4  1  0  0  0  0
 25 20  1  0  0  0  0
 26 19  2  0  0  0  0
 27 16  1  0  0  0  0
 28  6  1  0  0  0  0
M  END
>  <MODEL>
7

>  <REMARK>
 VINA RESULT:      -7.9      2.205      5.539
  Name = 
  0 active torsions:
  status: ('A' for Active; 'I' for Inactive)
                            x       y       z     vdW  Elec       q    Type
                         _______ _______ _______ _____ _____    ______ ____

>  <TORSDO>
F 0

$$$$
=
 OpenBabel10272401513D

 28 33  0  0  1  0  0  0  0  0999 V2000
  186.2570  177.6480  145.3310 C   0  0  0  0  0  0  0  0  0  0  0  0
  187.3530  176.8600  146.0190 C   0  0  1  0  0  3  0  0  0  0  0  0
  188.5730  176.9830  143.7680 C   0  0  2  0  0  3  0  0  0  0  0  0
  188.2920  177.3640  139.7740 C   0  0  0  0  0  3  0  0  0  0  0  0
  183.0500  179.7930  143.5830 N   0  0  0  0  0  1  0  0  0  0  0  0
  188.8730  178.4040  146.9220 C   0  0  1  0  0  3  0  0  0  0  0  0
  188.6970  176.8520  145.2860 C   0  0  1  0  0  3  0  0  0  0  0  0
  188.1000  176.4280  148.3210 C   0  0  0  0  0  1  0  0  0  0  0  0
  191.0570  176.9230  140.9960 C   0  0  0  0  0  3  0  0  0  0  0  0
  187.7930  178.5780  141.8730 C   0  0  2  0  0  3  0  0  0  0  0  0
  187.7060  177.5130  147.3240 C   0  0  2  0  0  3  0  0  0  0  0  0
  190.3970  176.9040  138.5900 C   0  0  0  0  0  0  0  0  0  0  0  0
  188.6600  177.6560  141.0290 C   0  0  0  0  0  0  0  0  0  0  0  0
  189.9620  176.9780  143.1360 C   0  0  0  0  0  2  0  0  0  0  0  0
  191.3050  177.0780  139.5490 C   0  0  0  0  0  3  0  0  0  0  0  0
  185.3840  179.0180  143.5120 C   0  0  0  0  0  0  0  0  0  0  0  0
  187.8080  178.2620  143.4050 C   0  0  1  0  0  3  0  0  0  0  0  0
  189.9010  177.1110  141.6490 C   0  0  0  0  0  0  0  0  0  0  0  0
  183.9500  178.4050  145.3660 C   0  0  0  0  0  3  0  0  0  0  0  0
  185.5830  179.7140  142.2030 C   0  0  0  0  0  2  0  0  0  0  0  0
  184.1370  179.0730  144.1570 C   0  0  0  0  0  0  0  0  0  0  0  0
  189.8340  178.7390  148.0540 C   0  0  0  0  0  1  0  0  0  0  0  0
  190.7560  177.1370  137.2700 O   0  0  0  0  0  1  0  0  0  0  0  0
  189.0230  176.4120  138.8890 C   0  0  0  0  0  2  0  0  0  0  0  0
  186.3900  178.8130  141.2890 C   0  0  0  0  0  2  0  0  0  0  0  0
  185.0000  177.6960  145.9460 C   0  0  0  0  0  3  0  0  0  0  0  0
  186.4520  178.2980  144.0900 C   0  0  0  0  0  0  0  0  0  0  0  0
  189.5530  177.8330  145.8330 O   0  0  0  0  0  0  0  0  0  0  0  0
  1 26  1  0  0  0  0
  2  1  1  6  0  0  0
  2 11  1  0  0  0  0
  3 14  1  6  0  0  0
  3  7  1  0  0  0  0
  4 13  2  0  0  0  0
  5 21  1  0  0  0  0
  6 11  1  0  0  0  0
  6 22  1  1  0  0  0
  7 28  1  1  0  0  0
  7  2  1  0  0  0  0
  9 18  2  0  0  0  0
 10 25  1  6  0  0  0
 10 17  1  0  0  0  0
 11  8  1  1  0  0  0
 12 24  1  0  0  0  0
 12 15  2  0  0  0  0
 13 18  1  0  0  0  0
 13 10  1  0  0  0  0
 15  9  1  0  0  0  0
 16 27  1  0  0  0  0
 16 21  2  0  0  0  0
 17  3  1  0  0  0  0
 17 27  1  6  0  0  0
 18 14  1  0  0  0  0
 19 26  2  0  0  0  0
 20 16  1  0  0  0  0
 21 19  1  0  0  0  0
 23 12  1  0  0  0  0
 24  4  1  0  0  0  0
 25 20  1  0  0  0  0
 27  1  2  0  0  0  0
 28  6  1  0  0  0  0
M  END
>  <MODEL>
8

>  <REMARK>
 VINA RESULT:      -7.5      2.045      2.921
  Name = 
  0 active torsions:
  status: ('A' for Active; 'I' for Inactive)
                            x       y       z     vdW  Elec       q    Type
                         _______ _______ _______ _____ _____    ______ ____

>  <TORSDO>
F 0

$$$$
=
 OpenBabel10272401513D

 28 33  0  0  1  0  0  0  0  0999 V2000
  185.5700  178.8560  142.2750 C   0  0  0  0  0  0  0  0  0  0  0  0
  185.1990  179.3090  140.8780 C   0  0  1  0  0  3  0  0  0  0  0  0
  187.4820  178.3690  140.1890 C   0  0  2  0  0  3  0  0  0  0  0  0
  191.2330  177.4210  141.2880 C   0  0  0  0  0  3  0  0  0  0  0  0
  186.4330  177.7210  146.2640 N   0  0  0  0  0  1  0  0  0  0  0  0
  184.1390  177.5090  139.8080 C   0  0  1  0  0  3  0  0  0  0  0  0
  186.0550  178.7110  139.7590 C   0  0  1  0  0  3  0  0  0  0  0  0
  183.1480  179.8430  139.6320 C   0  0  0  0  0  1  0  0  0  0  0  0
  190.4460  177.0560  138.3590 C   0  0  0  0  0  3  0  0  0  0  0  0
  188.8720  176.8510  141.7710 C   0  0  2  0  0  3  0  0  0  0  0  0
  183.8260  178.8120  140.5300 C   0  0  2  0  0  3  0  0  0  0  0  0
  192.7090  176.8880  139.3950 C   0  0  0  0  0  0  0  0  0  0  0  0
  189.9900  177.2410  140.8170 C   0  0  0  0  0  0  0  0  0  0  0  0
  188.2430  177.7690  139.0100 C   0  0  0  0  0  2  0  0  0  0  0  0
  191.8390  176.5730  138.4370 C   0  0  0  0  0  3  0  0  0  0  0  0
  186.9280  177.5900  143.8580 C   0  0  0  0  0  0  0  0  0  0  0  0
  187.4620  177.4040  141.3800 C   0  0  1  0  0  3  0  0  0  0  0  0
  189.6470  177.4090  139.3760 C   0  0  0  0  0  0  0  0  0  0  0  0
  185.1170  178.9860  144.6580 C   0  0  0  0  0  3  0  0  0  0  0  0
  188.0590  176.6510  144.1330 C   0  0  0  0  0  2  0  0  0  0  0  0
  186.1570  178.0960  144.9170 C   0  0  0  0  0  0  0  0  0  0  0  0
  183.0710  177.0580  138.8220 C   0  0  0  0  0  1  0  0  0  0  0  0
  193.9730  176.3150  139.3750 O   0  0  0  0  0  1  0  0  0  0  0  0
  192.3830  177.8800  140.4580 C   0  0  0  0  0  2  0  0  0  0  0  0
  189.2340  177.0320  143.2540 C   0  0  0  0  0  2  0  0  0  0  0  0
  184.8280  179.3650  143.3480 C   0  0  0  0  0  3  0  0  0  0  0  0
  186.6450  177.9720  142.5280 C   0  0  0  0  0  0  0  0  0  0  0  0
  185.3960  177.6010  139.1860 O   0  0  0  0  0  0  0  0  0  0  0  0
  1 27  2  0  0  0  0
  1 26  1  0  0  0  0
  2  1  1  1  0  0  0
  3 14  1  6  0  0  0
  3 17  1  0  0  0  0
  6 22  1  6  0  0  0
  6 11  1  0  0  0  0
  7 28  1  1  0  0  0
  7  3  1  0  0  0  0
  7  2  1  0  0  0  0
  9 15  1  0  0  0  0
  9 18  2  0  0  0  0
 10 25  1  1  0  0  0
 11  8  1  6  0  0  0
 11  2  1  0  0  0  0
 12 24  1  0  0  0  0
 13  4  2  0  0  0  0
 13 10  1  0  0  0  0
 14 18  1  0  0  0  0
 15 12  2  0  0  0  0
 16 20  1  0  0  0  0
 16 21  2  0  0  0  0
 17 10  1  0  0  0  0
 17 27  1  1  0  0  0
 18 13  1  0  0  0  0
 19 21  1  0  0  0  0
 21  5  1  0  0  0  0
 23 12  1  0  0  0  0
 24  4  1  0  0  0  0
 25 20  1  0  0  0  0
 26 19  2  0  0  0  0
 27 16  1  0  0  0  0
 28  6  1  0  0  0  0
M  END
>  <MODEL>
9

>  <REMARK>
 VINA RESULT:      -7.5      2.158      5.234
  Name = 
  0 active torsions:
  status: ('A' for Active; 'I' for Inactive)
                            x       y       z     vdW  Elec       q    Type
                         _______ _______ _______ _____ _____    ______ ____

>  <TORSDO>
F 0

$$$$
