=
 OpenBabel10272401043D

 27 32  0  0  1  0  0  0  0  0999 V2000
  189.8510  178.3370  145.7040 N   0  0  0  0  0  2  0  0  0  0  0  0
  187.2770  178.2730  145.9660 C   0  0  0  0  0  0  0  0  0  0  0  0
  187.6360  177.1900  143.7560 N   0  0  0  0  0  0  0  0  0  0  0  0
  183.3490  179.2540  144.9160 C   0  0  0  0  0  3  0  0  0  0  0  0
  181.4310  179.2380  143.3170 C   0  0  0  0  0  1  0  0  0  0  0  0
  186.4300  178.9720  146.8370 C   0  0  0  0  0  3  0  0  0  0  0  0
  184.9420  177.8480  143.0910 C   0  0  0  0  0  3  0  0  0  0  0  0
  188.7420  176.4260  146.9590 C   0  0  1  0  0  3  0  0  0  0  0  0
  191.0690  176.1840  143.0250 C   0  0  0  0  0  2  0  0  0  0  0  0
  188.8860  177.6150  147.9010 C   0  0  0  0  0  2  0  0  0  0  0  0
  183.6250  178.1800  142.7630 C   0  0  0  0  0  3  0  0  0  0  0  0
  191.9540  177.3240  142.5580 C   0  0  0  0  0  2  0  0  0  0  0  0
  185.4710  178.2130  144.3370 C   0  0  0  0  0  0  0  0  0  0  0  0
  188.6600  177.8530  146.4220 C   0  0  1  0  0  0  0  0  0  0  0  0
  182.8290  178.8810  143.6750 C   0  0  0  0  0  0  0  0  0  0  0  0
  184.6620  178.9190  145.2560 C   0  0  0  0  0  0  0  0  0  0  0  0
  189.5540  178.5880  144.2930 C   0  0  1  0  0  3  0  0  0  0  0  0
  186.7970  177.9090  144.6840 C   0  0  0  0  0  0  0  0  0  0  0  0
  189.6620  176.4850  142.8030 N   0  0  0  0  0  2  0  0  0  0  0  0
  185.1600  179.2810  146.4660 N   0  0  0  0  0  0  0  0  0  0  0  0
  191.9910  178.4280  143.5970 C   0  0  0  0  0  2  0  0  0  0  0  0
  190.7140  179.2510  143.5560 C   0  0  0  0  0  2  0  0  0  0  0  0
  188.9090  177.4090  143.5950 C   0  0  0  0  0  0  0  0  0  0  0  0
  190.1020  175.7820  146.7300 C   0  0  0  0  0  2  0  0  0  0  0  0
  192.4620  176.1290  147.2640 C   0  0  0  0  0  2  0  0  0  0  0  0
  191.9260  175.1600  148.1340 O   0  0  0  0  0  0  0  0  0  0  0  0
  191.0840  176.2370  147.7920 C   0  0  2  0  0  3  0  0  0  0  0  0
  1 14  1  0  0  0  0
  2 14  1  0  0  0  0
  2  6  1  0  0  0  0
  3 18  1  0  0  0  0
  4 16  1  0  0  0  0
  5 15  1  0  0  0  0
  7 13  1  0  0  0  0
  8 24  1  6  0  0  0
  8 10  1  0  0  0  0
 11  7  2  0  0  0  0
 11 15  1  0  0  0  0
 12  9  1  0  0  0  0
 12 21  1  0  0  0  0
 13 18  1  0  0  0  0
 13 16  2  0  0  0  0
 14  8  1  0  0  0  0
 14 10  1  1  0  0  0
 15  4  2  0  0  0  0
 16 20  1  0  0  0  0
 17 22  1  6  0  0  0
 17  1  1  0  0  0  0
 18  2  2  0  0  0  0
 19  9  1  0  0  0  0
 19 23  1  0  0  0  0
 20  6  2  0  0  0  0
 22 21  1  0  0  0  0
 23  3  2  0  0  0  0
 23 17  1  0  0  0  0
 25 27  1  0  0  0  0
 25 26  1  0  0  0  0
 27 24  1  6  0  0  0
 27 26  1  0  0  0  0
M  END
>  <MODEL>
1

>  <REMARK>
 VINA RESULT:      -7.9      0.000      0.000
  Name = 
  2 active torsions:
  status: ('A' for Active; 'I' for Inactive)
    1  A    between atoms: C_9  and  C_27
    2  A    between atoms: C_25  and  C_27
                            x       y       z     vdW  Elec       q    Type
                         _______ _______ _______ _____ _____    ______ ____

>  <TORSDO>
F 2

$$$$
=
 OpenBabel10272401043D

 27 32  0  0  1  0  0  0  0  0999 V2000
  180.9460  177.7330  139.4640 N   0  0  0  0  0  2  0  0  0  0  0  0
  181.9060  178.7940  141.6200 C   0  0  0  0  0  0  0  0  0  0  0  0
  183.9520  178.1270  140.3730 N   0  0  0  0  0  0  0  0  0  0  0  0
  184.0190  178.7590  145.2300 C   0  0  0  0  0  3  0  0  0  0  0  0
  186.1170  178.4450  146.5460 C   0  0  0  0  0  1  0  0  0  0  0  0
  181.2900  179.0950  142.8420 C   0  0  0  0  0  3  0  0  0  0  0  0
  185.3650  178.1460  142.8500 C   0  0  0  0  0  3  0  0  0  0  0  0
  181.3090  180.2430  139.5980 C   0  0  1  0  0  3  0  0  0  0  0  0
  183.4560  177.2710  136.8590 C   0  0  0  0  0  2  0  0  0  0  0  0
  179.9820  179.9020  140.2650 C   0  0  0  0  0  2  0  0  0  0  0  0
  186.0540  178.1460  144.0670 C   0  0  0  0  0  3  0  0  0  0  0  0
  182.9210  175.8680  136.6410 C   0  0  0  0  0  2  0  0  0  0  0  0
  183.9990  178.4570  142.8150 C   0  0  0  0  0  0  0  0  0  0  0  0
  181.1280  178.9120  140.3250 C   0  0  1  0  0  0  0  0  0  0  0  0
  185.3820  178.4540  145.2540 C   0  0  0  0  0  0  0  0  0  0  0  0
  183.3240  178.7690  144.0170 C   0  0  0  0  0  0  0  0  0  0  0  0
  182.0640  176.7980  139.6020 C   0  0  1  0  0  3  0  0  0  0  0  0
  183.2790  178.4450  141.6090 C   0  0  0  0  0  0  0  0  0  0  0  0
  184.1150  177.3880  138.1520 N   0  0  0  0  0  2  0  0  0  0  0  0
  182.0000  179.0710  143.9990 N   0  0  0  0  0  0  0  0  0  0  0  0
  181.6030  175.6820  137.3670 C   0  0  0  0  0  2  0  0  0  0  0  0
  181.8320  175.4860  138.8570 C   0  0  0  0  0  2  0  0  0  0  0  0
  183.4180  177.4460  139.4000 C   0  0  0  0  0  0  0  0  0  0  0  0
  181.1750  180.1190  138.0870 C   0  0  0  0  0  2  0  0  0  0  0  0
  180.6120  181.5650  136.1990 C   0  0  0  0  0  2  0  0  0  0  0  0
  180.8920  182.3610  137.3270 O   0  0  0  0  0  0  0  0  0  0  0  0
  180.2020  181.1550  137.5590 C   0  0  2  0  0  3  0  0  0  0  0  0
  1 17  1  0  0  0  0
  1 14  1  0  0  0  0
  2  6  1  0  0  0  0
  3 18  1  0  0  0  0
  4 15  1  0  0  0  0
  6 20  2  0  0  0  0
  7 11  1  0  0  0  0
  8 24  1  6  0  0  0
  8 10  1  0  0  0  0
  8 14  1  0  0  0  0
  9 19  1  0  0  0  0
 11 15  2  0  0  0  0
 12  9  1  0  0  0  0
 12 21  1  0  0  0  0
 13  7  2  0  0  0  0
 13 16  1  0  0  0  0
 14 10  1  1  0  0  0
 14  2  1  0  0  0  0
 15  5  1  0  0  0  0
 16  4  2  0  0  0  0
 17 22  1  6  0  0  0
 18  2  2  0  0  0  0
 18 13  1  0  0  0  0
 19 23  1  0  0  0  0
 20 16  1  0  0  0  0
 21 22  1  0  0  0  0
 23 17  1  0  0  0  0
 23  3  2  0  0  0  0
 25 26  1  0  0  0  0
 25 27  1  0  0  0  0
 26 27  1  0  0  0  0
 27 24  1  1  0  0  0
M  END
>  <MODEL>
2

>  <REMARK>
 VINA RESULT:      -7.8      5.366      9.359
  Name = 
  2 active torsions:
  status: ('A' for Active; 'I' for Inactive)
    1  A    between atoms: C_9  and  C_27
    2  A    between atoms: C_25  and  C_27
                            x       y       z     vdW  Elec       q    Type
                         _______ _______ _______ _____ _____    ______ ____

>  <TORSDO>
F 2

$$$$
=
 OpenBabel10272401043D

 27 32  0  0  1  0  0  0  0  0999 V2000
  190.5330  177.5830  137.3940 N   0  0  0  0  0  2  0  0  0  0  0  0
  191.0370  177.1290  139.8910 C   0  0  0  0  0  0  0  0  0  0  0  0
  188.6270  176.5500  139.7000 N   0  0  0  0  0  0  0  0  0  0  0  0
  190.6220  177.7640  144.0050 C   0  0  0  0  0  3  0  0  0  0  0  0
  189.2600  177.8030  146.0960 C   0  0  0  0  0  1  0  0  0  0  0  0
  192.1160  177.5280  140.6920 C   0  0  0  0  0  3  0  0  0  0  0  0
  188.3910  176.9610  142.5120 C   0  0  0  0  0  3  0  0  0  0  0  0
  191.4720  175.3360  138.1190 C   0  0  1  0  0  3  0  0  0  0  0  0
  187.3550  176.1690  136.2980 C   0  0  0  0  0  2  0  0  0  0  0  0
  192.6200  176.3300  137.9880 C   0  0  0  0  0  2  0  0  0  0  0  0
  188.2760  177.1720  143.8890 C   0  0  0  0  0  3  0  0  0  0  0  0
  187.0460  177.4850  135.6100 C   0  0  0  0  0  2  0  0  0  0  0  0
  189.6250  177.1450  141.8730 C   0  0  0  0  0  0  0  0  0  0  0  0
  191.2530  176.8170  138.4240 C   0  0  1  0  0  0  0  0  0  0  0  0
  189.3900  177.5720  144.6340 C   0  0  0  0  0  0  0  0  0  0  0  0
  190.7490  177.5470  142.6310 C   0  0  0  0  0  0  0  0  0  0  0  0
  189.2420  178.0610  137.8940 C   0  0  1  0  0  3  0  0  0  0  0  0
  189.7640  176.9590  140.4870 C   0  0  0  0  0  0  0  0  0  0  0  0
  187.3460  176.3180  137.7470 N   0  0  0  0  0  2  0  0  0  0  0  0
  191.9500  177.7320  142.0250 N   0  0  0  0  0  0  0  0  0  0  0  0
  188.2820  178.3620  135.5620 C   0  0  0  0  0  2  0  0  0  0  0  0
  188.5430  179.0010  136.9160 C   0  0  0  0  0  2  0  0  0  0  0  0
  188.3850  176.9640  138.4900 C   0  0  0  0  0  0  0  0  0  0  0  0
  190.9760  174.9350  136.7370 C   0  0  0  0  0  2  0  0  0  0  0  0
  189.4220  173.2350  135.9200 C   0  0  0  0  0  2  0  0  0  0  0  0
  189.4120  173.2350  137.3270 O   0  0  0  0  0  0  0  0  0  0  0  0
  190.6570  173.4530  136.7040 C   0  0  2  0  0  3  0  0  0  0  0  0
  1 17  1  0  0  0  0
  1 14  1  0  0  0  0
  2 18  2  0  0  0  0
  2  6  1  0  0  0  0
  3 18  1  0  0  0  0
  4 15  1  0  0  0  0
  6 20  2  0  0  0  0
  7 11  1  0  0  0  0
  8 24  1  6  0  0  0
  8 14  1  0  0  0  0
  9 19  1  0  0  0  0
 10  8  1  0  0  0  0
 11 15  2  0  0  0  0
 12  9  1  0  0  0  0
 13  7  2  0  0  0  0
 13 16  1  0  0  0  0
 14 10  1  6  0  0  0
 14  2  1  0  0  0  0
 15  5  1  0  0  0  0
 16  4  2  0  0  0  0
 17 22  1  6  0  0  0
 17 23  1  0  0  0  0
 18 13  1  0  0  0  0
 19 23  1  0  0  0  0
 20 16  1  0  0  0  0
 21 12  1  0  0  0  0
 21 22  1  0  0  0  0
 23  3  2  0  0  0  0
 25 27  1  0  0  0  0
 25 26  1  0  0  0  0
 27 24  1  6  0  0  0
 27 26  1  0  0  0  0
M  END
>  <MODEL>
3

>  <REMARK>
 VINA RESULT:      -7.5      5.212      7.989
  Name = 
  2 active torsions:
  status: ('A' for Active; 'I' for Inactive)
    1  A    between atoms: C_9  and  C_27
    2  A    between atoms: C_25  and  C_27
                            x       y       z     vdW  Elec       q    Type
                         _______ _______ _______ _____ _____    ______ ____

>  <TORSDO>
F 2

$$$$
=
 OpenBabel10272401043D

 27 32  0  0  1  0  0  0  0  0999 V2000
  189.2070  178.6770  143.0590 N   0  0  0  0  0  2  0  0  0  0  0  0
  188.7160  178.0380  140.6000 C   0  0  0  0  0  0  0  0  0  0  0  0
  190.2650  176.2390  141.3410 N   0  0  0  0  0  0  0  0  0  0  0  0
  189.7320  177.3520  136.6010 C   0  0  0  0  0  3  0  0  0  0  0  0
  190.9910  176.1180  134.8330 C   0  0  0  0  0  1  0  0  0  0  0  0
  188.1600  178.7880  139.5550 C   0  0  0  0  0  3  0  0  0  0  0  0
  190.9070  175.7800  138.6000 C   0  0  0  0  0  3  0  0  0  0  0  0
  187.1580  177.2880  142.4860 C   0  0  1  0  0  3  0  0  0  0  0  0
  190.7940  175.9900  144.9450 C   0  0  0  0  0  2  0  0  0  0  0  0
  186.8370  178.7590  142.2480 C   0  0  0  0  0  2  0  0  0  0  0  0
  191.2280  175.5630  137.2570 C   0  0  0  0  0  3  0  0  0  0  0  0
  191.7830  177.0020  145.4890 C   0  0  0  0  0  2  0  0  0  0  0  0
  189.9930  176.7820  138.9530 C   0  0  0  0  0  0  0  0  0  0  0  0
  188.2480  178.2540  142.0250 C   0  0  1  0  0  0  0  0  0  0  0  0
  190.6400  176.3470  136.2590 C   0  0  0  0  0  0  0  0  0  0  0  0
  189.3990  177.5700  137.9400 C   0  0  0  0  0  0  0  0  0  0  0  0
  190.5560  178.1940  142.7610 C   0  0  1  0  0  3  0  0  0  0  0  0
  189.6670  177.0340  140.2960 C   0  0  0  0  0  0  0  0  0  0  0  0
  190.9980  175.7680  143.5200 N   0  0  0  0  0  2  0  0  0  0  0  0
  188.5130  178.5460  138.2660 N   0  0  0  0  0  0  0  0  0  0  0  0
  191.3290  178.4140  145.1710 C   0  0  0  0  0  2  0  0  0  0  0  0
  191.6070  178.7540  143.7150 C   0  0  0  0  0  2  0  0  0  0  0  0
  190.6180  176.7030  142.5050 C   0  0  0  0  0  0  0  0  0  0  0  0
  187.2070  177.0050  143.9800 C   0  0  0  0  0  2  0  0  0  0  0  0
  186.7850  178.4130  145.9330 C   0  0  0  0  0  2  0  0  0  0  0  0
  185.9390  177.2880  145.9800 O   0  0  0  0  0  0  0  0  0  0  0  0
  186.1780  177.8480  144.7080 C   0  0  2  0  0  3  0  0  0  0  0  0
  2 14  1  0  0  0  0
  3 23  2  0  0  0  0
  4 16  1  0  0  0  0
  5 15  1  0  0  0  0
  6  2  2  0  0  0  0
  7 13  1  0  0  0  0
  8 24  1  1  0  0  0
  9 12  1  0  0  0  0
 10  8  1  0  0  0  0
 11  7  2  0  0  0  0
 13 18  2  0  0  0  0
 14 10  1  6  0  0  0
 14  8  1  0  0  0  0
 14  1  1  0  0  0  0
 15  4  2  0  0  0  0
 15 11  1  0  0  0  0
 16 20  2  0  0  0  0
 16 13  1  0  0  0  0
 17  1  1  0  0  0  0
 17 22  1  1  0  0  0
 18  2  1  0  0  0  0
 18  3  1  0  0  0  0
 19  9  1  0  0  0  0
 20  6  1  0  0  0  0
 21 12  1  0  0  0  0
 22 21  1  0  0  0  0
 23 17  1  0  0  0  0
 23 19  1  0  0  0  0
 25 26  1  0  0  0  0
 27 24  1  6  0  0  0
 27 25  1  0  0  0  0
 27 26  1  0  0  0  0
M  END
>  <MODEL>
4

>  <REMARK>
 VINA RESULT:      -7.1      3.799      6.539
  Name = 
  2 active torsions:
  status: ('A' for Active; 'I' for Inactive)
    1  A    between atoms: C_9  and  C_27
    2  A    between atoms: C_25  and  C_27
                            x       y       z     vdW  Elec       q    Type
                         _______ _______ _______ _____ _____    ______ ____

>  <TORSDO>
F 2

$$$$
=
 OpenBabel10272401043D

 27 32  0  0  1  0  0  0  0  0999 V2000
  183.7120  179.5370  138.2710 N   0  0  0  0  0  2  0  0  0  0  0  0
  184.8420  178.5930  140.3990 C   0  0  0  0  0  0  0  0  0  0  0  0
  182.4480  178.7300  141.0580 N   0  0  0  0  0  0  0  0  0  0  0  0
  186.0170  178.6910  144.4120 C   0  0  0  0  0  3  0  0  0  0  0  0
  185.4980  178.7860  146.8530 C   0  0  0  0  0  1  0  0  0  0  0  0
  186.1910  178.5570  140.7770 C   0  0  0  0  0  3  0  0  0  0  0  0
  183.2870  178.7620  143.7840 C   0  0  0  0  0  3  0  0  0  0  0  0
  184.0940  177.0370  138.5110 C   0  0  1  0  0  3  0  0  0  0  0  0
  180.0790  179.2260  138.3240 C   0  0  0  0  0  2  0  0  0  0  0  0
  185.3830  177.6870  138.0220 C   0  0  0  0  0  2  0  0  0  0  0  0
  183.7010  178.7880  145.1180 C   0  0  0  0  0  3  0  0  0  0  0  0
  179.9830  180.6640  137.8520 C   0  0  0  0  0  2  0  0  0  0  0  0
  184.2360  178.6960  142.7530 C   0  0  0  0  0  0  0  0  0  0  0  0
  184.4560  178.4580  138.9400 C   0  0  1  0  0  0  0  0  0  0  0  0
  185.0630  178.7510  145.4320 C   0  0  0  0  0  0  0  0  0  0  0  0
  185.6120  178.6580  143.0760 C   0  0  0  0  0  0  0  0  0  0  0  0
  182.8710  180.2690  139.2200 C   0  0  1  0  0  3  0  0  0  0  0  0
  183.8480  178.6890  141.4030 C   0  0  0  0  0  0  0  0  0  0  0  0
  180.5920  179.1530  139.6850 N   0  0  0  0  0  2  0  0  0  0  0  0
  186.5430  178.5960  142.0890 N   0  0  0  0  0  0  0  0  0  0  0  0
  181.3420  181.1680  137.4030 C   0  0  0  0  0  2  0  0  0  0  0  0
  182.2170  181.5000  138.6010 C   0  0  0  0  0  2  0  0  0  0  0  0
  181.9630  179.3710  140.0340 C   0  0  0  0  0  0  0  0  0  0  0  0
  183.0750  176.9990  137.3820 C   0  0  0  0  0  2  0  0  0  0  0  0
  180.9250  175.9040  136.9930 C   0  0  0  0  0  2  0  0  0  0  0  0
  181.2920  175.7390  138.3420 O   0  0  0  0  0  0  0  0  0  0  0  0
  182.3310  175.6780  137.3910 C   0  0  2  0  0  3  0  0  0  0  0  0
  1 14  1  0  0  0  0
  1 17  1  0  0  0  0
  2  6  2  0  0  0  0
  2 18  1  0  0  0  0
  3 18  1  0  0  0  0
  4 15  2  0  0  0  0
  6 20  1  0  0  0  0
  7 11  2  0  0  0  0
  8 24  1  6  0  0  0
  8 14  1  0  0  0  0
  9 19  1  0  0  0  0
 10  8  1  0  0  0  0
 11 15  1  0  0  0  0
 12  9  1  0  0  0  0
 13 16  1  0  0  0  0
 13  7  1  0  0  0  0
 14 10  1  6  0  0  0
 14  2  1  0  0  0  0
 15  5  1  0  0  0  0
 16  4  1  0  0  0  0
 17 22  1  6  0  0  0
 17 23  1  0  0  0  0
 18 13  2  0  0  0  0
 19 23  1  0  0  0  0
 20 16  2  0  0  0  0
 21 12  1  0  0  0  0
 21 22  1  0  0  0  0
 23  3  2  0  0  0  0
 25 27  1  0  0  0  0
 25 26  1  0  0  0  0
 27 24  1  1  0  0  0
 27 26  1  0  0  0  0
M  END
>  <MODEL>
5

>  <REMARK>
 VINA RESULT:      -7.0      5.166      9.000
  Name = 
  2 active torsions:
  status: ('A' for Active; 'I' for Inactive)
    1  A    between atoms: C_9  and  C_27
    2  A    between atoms: C_25  and  C_27
                            x       y       z     vdW  Elec       q    Type
                         _______ _______ _______ _____ _____    ______ ____

>  <TORSDO>
F 2

$$$$
=
 OpenBabel10272401043D

 27 32  0  0  1  0  0  0  0  0999 V2000
  188.9990  176.8750  136.0280 N   0  0  0  0  0  2  0  0  0  0  0  0
  186.5790  176.2880  136.7310 C   0  0  0  0  0  0  0  0  0  0  0  0
  187.8390  174.2230  137.3050 N   0  0  0  0  0  0  0  0  0  0  0  0
  183.0050  174.1250  136.5240 C   0  0  0  0  0  3  0  0  0  0  0  0
  181.7080  171.9990  136.7090 C   0  0  0  0  0  1  0  0  0  0  0  0
  185.3600  176.9000  136.4080 C   0  0  0  0  0  3  0  0  0  0  0  0
  185.3760  172.7880  137.1860 C   0  0  0  0  0  3  0  0  0  0  0  0
  188.1450  177.5270  138.3300 C   0  0  1  0  0  3  0  0  0  0  0  0
  191.4760  174.5460  137.3460 C   0  0  0  0  0  2  0  0  0  0  0  0
  187.6800  178.5700  137.3200 C   0  0  0  0  0  2  0  0  0  0  0  0
  184.1700  172.0860  137.1180 C   0  0  0  0  0  3  0  0  0  0  0  0
  192.1090  174.4940  135.9690 C   0  0  0  0  0  2  0  0  0  0  0  0
  185.4050  174.1660  136.9280 C   0  0  0  0  0  0  0  0  0  0  0  0
  187.8330  177.1250  136.8900 C   0  0  1  0  0  0  0  0  0  0  0  0
  182.9860  172.7530  136.7880 C   0  0  0  0  0  0  0  0  0  0  0  0
  184.2050  174.8370  136.5970 C   0  0  0  0  0  0  0  0  0  0  0  0
  189.0630  175.4730  135.6130 C   0  0  1  0  0  3  0  0  0  0  0  0
  186.6060  174.8920  136.9710 C   0  0  0  0  0  0  0  0  0  0  0  0
  190.1650  173.9120  137.3460 N   0  0  0  0  0  2  0  0  0  0  0  0
  184.2160  176.1710  136.3430 N   0  0  0  0  0  0  0  0  0  0  0  0
  191.5430  175.5860  135.0810 C   0  0  0  0  0  2  0  0  0  0  0  0
  190.1570  175.2120  134.5830 C   0  0  0  0  0  2  0  0  0  0  0  0
  188.9930  174.5000  136.7720 C   0  0  0  0  0  0  0  0  0  0  0  0
  189.6350  177.6900  138.5910 C   0  0  0  0  0  2  0  0  0  0  0  0
  191.3870  177.2880  140.2480 C   0  0  0  0  0  2  0  0  0  0  0  0
  190.4820  176.2100  140.2580 O   0  0  0  0  0  0  0  0  0  0  0  0
  189.9340  177.4940  140.0650 C   0  0  2  0  0  3  0  0  0  0  0  0
  1 14  1  0  0  0  0
  2 14  1  0  0  0  0
  2 18  1  0  0  0  0
  4 16  1  0  0  0  0
  4 15  2  0  0  0  0
  5 15  1  0  0  0  0
  6  2  2  0  0  0  0
  8 24  1  6  0  0  0
 10  8  1  0  0  0  0
 11  7  2  0  0  0  0
 12  9  1  0  0  0  0
 13 18  2  0  0  0  0
 13  7  1  0  0  0  0
 14 10  1  6  0  0  0
 14  8  1  0  0  0  0
 15 11  1  0  0  0  0
 16 13  1  0  0  0  0
 17 22  1  1  0  0  0
 17  1  1  0  0  0  0
 17 23  1  0  0  0  0
 18  3  1  0  0  0  0
 19  9  1  0  0  0  0
 20  6  1  0  0  0  0
 20 16  2  0  0  0  0
 21 12  1  0  0  0  0
 22 21  1  0  0  0  0
 23  3  2  0  0  0  0
 23 19  1  0  0  0  0
 25 26  1  0  0  0  0
 27 24  1  6  0  0  0
 27 25  1  0  0  0  0
 27 26  1  0  0  0  0
M  END
>  <MODEL>
6

>  <REMARK>
 VINA RESULT:      -6.3      6.942      8.771
  Name = 
  2 active torsions:
  status: ('A' for Active; 'I' for Inactive)
    1  A    between atoms: C_9  and  C_27
    2  A    between atoms: C_25  and  C_27
                            x       y       z     vdW  Elec       q    Type
                         _______ _______ _______ _____ _____    ______ ____

>  <TORSDO>
F 2

$$$$
=
 OpenBabel10272401043D

 27 32  0  0  1  0  0  0  0  0999 V2000
  189.5140  176.5130  135.7720 N   0  0  0  0  0  2  0  0  0  0  0  0
  190.7350  176.3230  138.0450 C   0  0  0  0  0  0  0  0  0  0  0  0
  188.3510  176.5490  138.7150 N   0  0  0  0  0  0  0  0  0  0  0  0
  191.9830  177.7070  141.7900 C   0  0  0  0  0  3  0  0  0  0  0  0
  191.5090  178.5270  144.1000 C   0  0  0  0  0  1  0  0  0  0  0  0
  192.0910  176.4660  138.3680 C   0  0  0  0  0  3  0  0  0  0  0  0
  189.2410  177.4580  141.2680 C   0  0  0  0  0  3  0  0  0  0  0  0
  190.0340  174.2280  136.7540 C   0  0  1  0  0  3  0  0  0  0  0  0
  185.9050  176.0720  136.0470 C   0  0  0  0  0  2  0  0  0  0  0  0
  191.2760  174.7520  136.0440 C   0  0  0  0  0  2  0  0  0  0  0  0
  189.6800  177.9130  142.5140 C   0  0  0  0  0  3  0  0  0  0  0  0
  185.7230  177.2880  135.1590 C   0  0  0  0  0  2  0  0  0  0  0  0
  190.1710  177.1200  140.2740 C   0  0  0  0  0  0  0  0  0  0  0  0
  190.3280  175.7270  136.7130 C   0  0  1  0  0  0  0  0  0  0  0  0
  191.0480  178.0360  142.7760 C   0  0  0  0  0  0  0  0  0  0  0  0
  191.5530  177.2440  140.5440 C   0  0  0  0  0  0  0  0  0  0  0  0
  188.6540  177.4630  136.4800 C   0  0  1  0  0  3  0  0  0  0  0  0
  189.7570  176.6800  139.0060 C   0  0  0  0  0  0  0  0  0  0  0  0
  186.4480  176.4440  137.3450 N   0  0  0  0  0  2  0  0  0  0  0  0
  192.4670  176.9230  139.5910 N   0  0  0  0  0  0  0  0  0  0  0  0
  187.0430  177.6890  134.5290 C   0  0  0  0  0  2  0  0  0  0  0  0
  187.9230  178.4130  135.5360 C   0  0  0  0  0  2  0  0  0  0  0  0
  187.8120  176.8210  137.5620 C   0  0  0  0  0  0  0  0  0  0  0  0
  188.9950  173.7980  135.7280 C   0  0  0  0  0  2  0  0  0  0  0  0
  186.9190  172.5110  135.6450 C   0  0  0  0  0  2  0  0  0  0  0  0
  187.1790  172.8870  136.9770 O   0  0  0  0  0  0  0  0  0  0  0  0
  188.2940  172.5350  136.1890 C   0  0  2  0  0  3  0  0  0  0  0  0
  1 17  1  0  0  0  0
  1 14  1  0  0  0  0
  2  6  2  0  0  0  0
  2 18  1  0  0  0  0
  3 18  1  0  0  0  0
  4 15  2  0  0  0  0
  6 20  1  0  0  0  0
  7 11  2  0  0  0  0
  8 24  1  6  0  0  0
  9 19  1  0  0  0  0
 10  8  1  0  0  0  0
 11 15  1  0  0  0  0
 12  9  1  0  0  0  0
 13 16  1  0  0  0  0
 13  7  1  0  0  0  0
 14 10  1  6  0  0  0
 14  8  1  0  0  0  0
 14  2  1  0  0  0  0
 15  5  1  0  0  0  0
 16  4  1  0  0  0  0
 17 22  1  6  0  0  0
 17 23  1  0  0  0  0
 18 13  2  0  0  0  0
 19 23  1  0  0  0  0
 20 16  2  0  0  0  0
 21 12  1  0  0  0  0
 21 22  1  0  0  0  0
 23  3  2  0  0  0  0
 25 27  1  0  0  0  0
 25 26  1  0  0  0  0
 27 24  1  6  0  0  0
 27 26  1  0  0  0  0
M  END
>  <MODEL>
7

>  <REMARK>
 VINA RESULT:      -6.2      6.254      9.360
  Name = 
  2 active torsions:
  status: ('A' for Active; 'I' for Inactive)
    1  A    between atoms: C_9  and  C_27
    2  A    between atoms: C_25  and  C_27
                            x       y       z     vdW  Elec       q    Type
                         _______ _______ _______ _____ _____    ______ ____

>  <TORSDO>
F 2

$$$$
=
 OpenBabel10272401043D

 27 32  0  0  1  0  0  0  0  0999 V2000
  181.4200  177.4440  140.3230 N   0  0  0  0  0  2  0  0  0  0  0  0
  183.3770  178.4150  141.7100 C   0  0  0  0  0  0  0  0  0  0  0  0
  184.2970  178.3870  139.4000 N   0  0  0  0  0  0  0  0  0  0  0  0
  187.2400  178.4040  143.3150 C   0  0  0  0  0  3  0  0  0  0  0  0
  189.7240  178.4070  143.0650 C   0  0  0  0  0  1  0  0  0  0  0  0
  183.6050  178.4130  143.0930 C   0  0  0  0  0  3  0  0  0  0  0  0
  186.9140  178.4130  140.5320 C   0  0  0  0  0  3  0  0  0  0  0  0
  181.5260  179.9350  140.8110 C   0  0  1  0  0  3  0  0  0  0  0  0
  181.8570  177.8900  136.7300 C   0  0  0  0  0  2  0  0  0  0  0  0
  180.9230  179.2220  142.0160 C   0  0  0  0  0  2  0  0  0  0  0  0
  188.1960  178.4160  141.0890 C   0  0  0  0  0  3  0  0  0  0  0  0
  181.4500  176.4420  136.5350 C   0  0  0  0  0  2  0  0  0  0  0  0
  185.7850  178.4110  141.3630 C   0  0  0  0  0  0  0  0  0  0  0  0
  181.9640  178.5160  141.1710 C   0  0  1  0  0  0  0  0  0  0  0  0
  188.3580  178.4130  142.4780 C   0  0  0  0  0  0  0  0  0  0  0  0
  185.9550  178.4090  142.7670 C   0  0  0  0  0  0  0  0  0  0  0  0
  182.4810  176.7750  139.5670 C   0  0  1  0  0  3  0  0  0  0  0  0
  184.4860  178.3880  140.8300 C   0  0  0  0  0  0  0  0  0  0  0  0
  183.1500  177.9890  137.3910 N   0  0  0  0  0  2  0  0  0  0  0  0
  184.8710  178.4050  143.5850 N   0  0  0  0  0  0  0  0  0  0  0  0
  180.8750  175.8740  137.8190 C   0  0  0  0  0  2  0  0  0  0  0  0
  181.9820  175.5490  138.8090 C   0  0  0  0  0  2  0  0  0  0  0  0
  183.3560  177.7320  138.7840 C   0  0  0  0  0  0  0  0  0  0  0  0
  180.5140  179.9740  139.6750 C   0  0  0  0  0  2  0  0  0  0  0  0
  180.7220  181.2290  137.5890 C   0  0  0  0  0  2  0  0  0  0  0  0
  181.7460  181.6220  138.4710 O   0  0  0  0  0  0  0  0  0  0  0  0
  180.4870  181.3520  139.0440 C   0  0  2  0  0  3  0  0  0  0  0  0
  1 14  1  0  0  0  0
  2  6  1  0  0  0  0
  3 18  1  0  0  0  0
  6 20  2  0  0  0  0
  7 11  2  0  0  0  0
  7 13  1  0  0  0  0
  8 24  1  6  0  0  0
  8 14  1  0  0  0  0
  8 10  1  0  0  0  0
  9 19  1  0  0  0  0
 11 15  1  0  0  0  0
 12  9  1  0  0  0  0
 12 21  1  0  0  0  0
 13 16  2  0  0  0  0
 14  2  1  0  0  0  0
 14 10  1  1  0  0  0
 15  5  1  0  0  0  0
 15  4  2  0  0  0  0
 16  4  1  0  0  0  0
 16 20  1  0  0  0  0
 17 22  1  6  0  0  0
 17  1  1  0  0  0  0
 18 13  1  0  0  0  0
 18  2  2  0  0  0  0
 19 23  1  0  0  0  0
 21 22  1  0  0  0  0
 23  3  2  0  0  0  0
 23 17  1  0  0  0  0
 25 26  1  0  0  0  0
 25 27  1  0  0  0  0
 26 27  1  0  0  0  0
 27 24  1  1  0  0  0
M  END
>  <MODEL>
8

>  <REMARK>
 VINA RESULT:      -5.6      5.076      9.210
  Name = 
  2 active torsions:
  status: ('A' for Active; 'I' for Inactive)
    1  A    between atoms: C_9  and  C_27
    2  A    between atoms: C_25  and  C_27
                            x       y       z     vdW  Elec       q    Type
                         _______ _______ _______ _____ _____    ______ ____

>  <TORSDO>
F 2

$$$$
=
 OpenBabel10272401043D

 27 32  0  0  1  0  0  0  0  0999 V2000
  184.3910  179.3240  138.0680 N   0  0  0  0  0  2  0  0  0  0  0  0
  186.0930  178.2980  139.7250 C   0  0  0  0  0  0  0  0  0  0  0  0
  183.9280  178.0280  140.9180 N   0  0  0  0  0  0  0  0  0  0  0  0
  188.1830  178.0810  143.3420 C   0  0  0  0  0  3  0  0  0  0  0  0
  188.2610  177.8150  145.8230 C   0  0  0  0  0  1  0  0  0  0  0  0
  187.4900  178.4030  139.7820 C   0  0  0  0  0  3  0  0  0  0  0  0
  185.3910  177.8520  143.3600 C   0  0  0  0  0  3  0  0  0  0  0  0
  185.0810  176.8890  137.8450 C   0  0  1  0  0  3  0  0  0  0  0  0
  180.9310  178.5160  138.8890 C   0  0  0  0  0  2  0  0  0  0  0  0
  186.1380  177.7620  137.1810 C   0  0  0  0  0  2  0  0  0  0  0  0
  186.1090  177.7760  144.5560 C   0  0  0  0  0  3  0  0  0  0  0  0
  180.5740  179.9730  138.6670 C   0  0  0  0  0  2  0  0  0  0  0  0
  186.0650  178.0390  142.1450 C   0  0  0  0  0  0  0  0  0  0  0  0
  185.3840  178.2850  138.3860 C   0  0  1  0  0  0  0  0  0  0  0  0
  187.5030  177.8890  144.5470 C   0  0  0  0  0  0  0  0  0  0  0  0
  187.4740  178.1500  142.1410 C   0  0  0  0  0  0  0  0  0  0  0  0
  183.7310  179.8160  139.2790 C   0  0  1  0  0  3  0  0  0  0  0  0
  185.3660  178.1380  140.9300 C   0  0  0  0  0  0  0  0  0  0  0  0
  181.7620  178.3520  140.0740 N   0  0  0  0  0  2  0  0  0  0  0  0
  188.1410  178.3340  140.9720 N   0  0  0  0  0  0  0  0  0  0  0  0
  181.7240  180.7070  138.0040 C   0  0  0  0  0  2  0  0  0  0  0  0
  182.8220  181.0110  139.0100 C   0  0  0  0  0  2  0  0  0  0  0  0
  183.1460  178.7130  140.1350 C   0  0  0  0  0  0  0  0  0  0  0  0
  183.8290  176.8460  136.9810 C   0  0  0  0  0  2  0  0  0  0  0  0
  181.7600  175.5530  136.8240 C   0  0  0  0  0  2  0  0  0  0  0  0
  182.3380  175.3520  138.0920 O   0  0  0  0  0  0  0  0  0  0  0  0
  183.2250  175.4550  137.0010 C   0  0  2  0  0  3  0  0  0  0  0  0
  1 14  1  0  0  0  0
  1 17  1  0  0  0  0
  2  6  2  0  0  0  0
  2 18  1  0  0  0  0
  3 18  1  0  0  0  0
  4 15  2  0  0  0  0
  6 20  1  0  0  0  0
  7 11  2  0  0  0  0
  8 24  1  6  0  0  0
  8 14  1  0  0  0  0
  9 19  1  0  0  0  0
 10  8  1  0  0  0  0
 12  9  1  0  0  0  0
 13  7  1  0  0  0  0
 14 10  1  6  0  0  0
 14  2  1  0  0  0  0
 15 11  1  0  0  0  0
 15  5  1  0  0  0  0
 16 13  1  0  0  0  0
 16  4  1  0  0  0  0
 17 22  1  6  0  0  0
 17 23  1  0  0  0  0
 18 13  2  0  0  0  0
 19 23  1  0  0  0  0
 20 16  2  0  0  0  0
 21 12  1  0  0  0  0
 21 22  1  0  0  0  0
 23  3  2  0  0  0  0
 25 27  1  0  0  0  0
 25 26  1  0  0  0  0
 27 24  1  1  0  0  0
 27 26  1  0  0  0  0
M  END
>  <MODEL>
9

>  <REMARK>
 VINA RESULT:      -5.5      5.068      8.839
  Name = 
  2 active torsions:
  status: ('A' for Active; 'I' for Inactive)
    1  A    between atoms: C_9  and  C_27
    2  A    between atoms: C_25  and  C_27
                            x       y       z     vdW  Elec       q    Type
                         _______ _______ _______ _____ _____    ______ ____

>  <TORSDO>
F 2

$$$$
