=
 OpenBabel10272401543D

 28 32  0  0  0  0  0  0  0  0999 V2000
  187.4760  178.3510  140.8280 N   0  0  0  0  0  0  0  0  0  0  0  0
  190.3880  177.0090  144.7400 C   0  0  0  0  0  3  0  0  0  0  0  0
  184.3840  178.6440  144.7410 C   0  0  0  0  0  1  0  0  0  0  0  0
  188.9010  177.1430  146.6600 C   0  0  0  0  0  0  0  0  0  0  0  0
  188.0570  177.6900  144.4510 C   0  0  0  0  0  0  0  0  0  0  0  0
  191.2080  176.4670  146.9550 C   0  0  0  0  0  0  0  0  0  0  0  0
  189.1190  177.2820  145.2700 C   0  0  0  0  0  0  0  0  0  0  0  0
  186.6330  177.7980  146.4100 C   0  0  0  0  0  3  0  0  0  0  0  0
  189.9460  176.7370  147.4930 C   0  0  0  0  0  3  0  0  0  0  0  0
  185.9370  178.4930  142.7720 C   0  0  0  0  0  0  0  0  0  0  0  0
  188.2430  177.8420  143.0320 N   0  0  0  0  0  0  0  0  0  0  0  0
  187.6760  177.4030  147.1870 N   0  0  0  0  0  0  0  0  0  0  0  0
  185.2140  178.9740  140.5390 C   0  0  0  0  0  3  0  0  0  0  0  0
  185.7030  178.3650  144.1830 N   0  0  0  0  0  0  0  0  0  0  0  0
  184.9890  178.8490  141.9550 N   0  0  0  0  0  0  0  0  0  0  0  0
  192.3180  176.0350  147.8450 C   0  0  0  0  0  1  0  0  0  0  0  0
  191.4280  176.6030  145.5810 C   0  0  0  0  0  3  0  0  0  0  0  0
  186.7960  177.9510  145.0260 C   0  0  0  0  0  0  0  0  0  0  0  0
  186.3870  178.7340  140.0230 N   0  0  0  0  0  0  0  0  0  0  0  0
  187.2780  178.2100  142.2410 C   0  0  0  0  0  0  0  0  0  0  0  0
  188.7550  178.0420  140.2020 C   0  0  0  0  0  2  0  0  0  0  0  0
  188.5850  177.9000  138.7270 C   0  0  0  0  0  0  0  0  0  0  0  0
  188.3190  177.6160  135.9580 C   0  0  0  0  0  0  0  0  0  0  0  0
  188.0430  176.7260  138.1930 C   0  0  0  0  0  3  0  0  0  0  0  0
  189.0020  178.9280  137.8740 C   0  0  0  0  0  3  0  0  0  0  0  0
  188.8670  178.7860  136.4900 C   0  0  0  0  0  3  0  0  0  0  0  0
  188.1880  177.4790  134.6160 F   0  0  0  0  0  0  0  0  0  0  0  0
  187.9080  176.5850  136.8080 C   0  0  0  0  0  3  0  0  0  0  0  0
  1 20  1  0  0  0  0
  2  7  2  0  0  0  0
  2 17  1  0  0  0  0
  4 12  1  0  0  0  0
  4  9  2  0  0  0  0
  5 18  2  0  0  0  0
  5  7  1  0  0  0  0
  6  9  1  0  0  0  0
  6 16  1  0  0  0  0
  7  4  1  0  0  0  0
  8 12  2  0  0  0  0
 10 14  1  0  0  0  0
 11  5  1  0  0  0  0
 13 15  1  0  0  0  0
 14  3  1  0  0  0  0
 14 18  1  0  0  0  0
 15 10  2  0  0  0  0
 17  6  2  0  0  0  0
 18  8  1  0  0  0  0
 19 13  2  0  0  0  0
 19  1  1  0  0  0  0
 20 10  1  0  0  0  0
 20 11  2  0  0  0  0
 21  1  1  0  0  0  0
 22 21  1  0  0  0  0
 23 26  2  0  0  0  0
 23 28  1  0  0  0  0
 24 22  1  0  0  0  0
 25 22  2  0  0  0  0
 26 25  1  0  0  0  0
 27 23  1  0  0  0  0
 28 24  2  0  0  0  0
M  END
>  <MODEL>
1

>  <REMARK>
 VINA RESULT:     -10.4      0.000      0.000
  Name = 
  2 active torsions:
  status: ('A' for Active; 'I' for Inactive)
    1  A    between atoms: N_1  and  C_2
    2  A    between atoms: C_2  and  C_3
                            x       y       z     vdW  Elec       q    Type
                         _______ _______ _______ _____ _____    ______ ____

>  <TORSDO>
F 2

$$$$
=
 OpenBabel10272401543D

 28 32  0  0  0  0  0  0  0  0999 V2000
  189.8250  177.0610  142.4860 N   0  0  0  0  0  0  0  0  0  0  0  0
  184.9460  178.3660  142.7720 C   0  0  0  0  0  3  0  0  0  0  0  0
  189.0150  177.4860  147.3970 C   0  0  0  0  0  1  0  0  0  0  0  0
  184.5280  178.5810  145.1580 C   0  0  0  0  0  0  0  0  0  0  0  0
  186.7410  177.9540  144.3810 C   0  0  0  0  0  0  0  0  0  0  0  0
  182.7460  178.9920  143.5710 C   0  0  0  0  0  0  0  0  0  0  0  0
  185.4130  178.2970  144.0920 C   0  0  0  0  0  0  0  0  0  0  0  0
  186.2520  178.1900  146.7440 C   0  0  0  0  0  3  0  0  0  0  0  0
  183.2010  178.9260  144.8910 C   0  0  0  0  0  3  0  0  0  0  0  0
  189.4240  177.2770  144.9270 C   0  0  0  0  0  0  0  0  0  0  0  0
  187.6690  177.6590  143.3210 N   0  0  0  0  0  0  0  0  0  0  0  0
  184.9680  178.5190  146.4420 N   0  0  0  0  0  0  0  0  0  0  0  0
  191.5710  176.6970  144.0360 C   0  0  0  0  0  3  0  0  0  0  0  0
  188.5350  177.5530  146.0200 N   0  0  0  0  0  0  0  0  0  0  0  0
  190.6730  176.9700  145.1270 N   0  0  0  0  0  0  0  0  0  0  0  0
  181.3330  179.3590  143.2900 C   0  0  0  0  0  1  0  0  0  0  0  0
  183.6170  178.7130  142.5130 C   0  0  0  0  0  3  0  0  0  0  0  0
  187.1690  177.9000  145.7240 C   0  0  0  0  0  0  0  0  0  0  0  0
  191.1600  176.7460  142.8010 N   0  0  0  0  0  0  0  0  0  0  0  0
  188.9100  177.3460  143.5520 C   0  0  0  0  0  0  0  0  0  0  0  0
  189.4220  177.1560  141.0890 C   0  0  0  0  0  2  0  0  0  0  0  0
  190.5960  176.9280  140.1980 C   0  0  0  0  0  0  0  0  0  0  0  0
  192.7810  176.5420  138.4950 C   0  0  0  0  0  0  0  0  0  0  0  0
  191.8280  177.5210  140.4950 C   0  0  0  0  0  3  0  0  0  0  0  0
  190.4560  176.1490  139.0440 C   0  0  0  0  0  3  0  0  0  0  0  0
  191.5480  175.9550  138.1940 C   0  0  0  0  0  3  0  0  0  0  0  0
  193.8400  176.3530  137.6720 F   0  0  0  0  0  0  0  0  0  0  0  0
  192.9210  177.3260  139.6440 C   0  0  0  0  0  3  0  0  0  0  0  0
  1 19  1  0  0  0  0
  1 20  1  0  0  0  0
  2  7  1  0  0  0  0
  4 12  1  0  0  0  0
  5 18  2  0  0  0  0
  6  9  2  0  0  0  0
  7  5  1  0  0  0  0
  7  4  2  0  0  0  0
  9  4  1  0  0  0  0
 10 15  2  0  0  0  0
 10 14  1  0  0  0  0
 11 20  2  0  0  0  0
 11  5  1  0  0  0  0
 12  8  2  0  0  0  0
 13 15  1  0  0  0  0
 14  3  1  0  0  0  0
 16  6  1  0  0  0  0
 17  2  2  0  0  0  0
 17  6  1  0  0  0  0
 18 14  1  0  0  0  0
 18  8  1  0  0  0  0
 19 13  2  0  0  0  0
 20 10  1  0  0  0  0
 21  1  1  0  0  0  0
 22 24  1  0  0  0  0
 22 21  1  0  0  0  0
 23 28  1  0  0  0  0
 25 22  2  0  0  0  0
 26 23  2  0  0  0  0
 26 25  1  0  0  0  0
 27 23  1  0  0  0  0
 28 24  2  0  0  0  0
M  END
>  <MODEL>
2

>  <REMARK>
 VINA RESULT:      -9.8      2.611      5.468
  Name = 
  2 active torsions:
  status: ('A' for Active; 'I' for Inactive)
    1  A    between atoms: N_1  and  C_2
    2  A    between atoms: C_2  and  C_3
                            x       y       z     vdW  Elec       q    Type
                         _______ _______ _______ _____ _____    ______ ____

>  <TORSDO>
F 2

$$$$
=
 OpenBabel10272401543D

 28 32  0  0  0  0  0  0  0  0999 V2000
  186.4410  178.4780  140.0580 N   0  0  0  0  0  0  0  0  0  0  0  0
  187.6690  178.0490  144.9460 C   0  0  0  0  0  3  0  0  0  0  0  0
  182.0930  179.1680  142.4200 C   0  0  0  0  0  1  0  0  0  0  0  0
  185.5640  178.3800  146.1180 C   0  0  0  0  0  0  0  0  0  0  0  0
  185.6130  178.4810  143.6930 C   0  0  0  0  0  0  0  0  0  0  0  0
  187.5940  177.9530  147.3660 C   0  0  0  0  0  0  0  0  0  0  0  0
  186.2910  178.3030  144.9080 C   0  0  0  0  0  0  0  0  0  0  0  0
  183.5520  178.7980  144.9280 C   0  0  0  0  0  3  0  0  0  0  0  0
  186.2200  178.2050  147.3380 C   0  0  0  0  0  3  0  0  0  0  0  0
  184.2790  178.8170  141.2300 C   0  0  0  0  0  0  0  0  0  0  0  0
  186.3220  178.4090  142.4420 N   0  0  0  0  0  0  0  0  0  0  0  0
  184.2270  178.6240  146.0950 N   0  0  0  0  0  0  0  0  0  0  0  0
  184.4500  178.8590  138.8410 C   0  0  0  0  0  3  0  0  0  0  0  0
  183.5290  178.9080  142.4520 N   0  0  0  0  0  0  0  0  0  0  0  0
  183.7070  178.9540  140.0700 N   0  0  0  0  0  0  0  0  0  0  0  0
  188.2890  177.7670  148.6670 C   0  0  0  0  0  1  0  0  0  0  0  0
  188.3180  177.8750  146.1720 C   0  0  0  0  0  3  0  0  0  0  0  0
  184.2250  178.7310  143.7010 C   0  0  0  0  0  0  0  0  0  0  0  0
  185.7330  178.6330  138.8510 N   0  0  0  0  0  0  0  0  0  0  0  0
  185.7240  178.5590  141.2960 C   0  0  0  0  0  0  0  0  0  0  0  0
  187.8650  178.1740  140.0190 C   0  0  0  0  0  2  0  0  0  0  0  0
  188.2850  177.8520  138.6250 C   0  0  0  0  0  0  0  0  0  0  0  0
  189.1230  177.2370  136.0280 C   0  0  0  0  0  0  0  0  0  0  0  0
  188.0820  176.5670  138.1090 C   0  0  0  0  0  3  0  0  0  0  0  0
  188.9150  178.8270  137.8420 C   0  0  0  0  0  3  0  0  0  0  0  0
  189.3330  178.5190  136.5440 C   0  0  0  0  0  3  0  0  0  0  0  0
  189.5270  176.9390  134.7690 F   0  0  0  0  0  0  0  0  0  0  0  0
  188.4990  176.2600  136.8100 C   0  0  0  0  0  3  0  0  0  0  0  0
  1 20  1  0  0  0  0
  2 17  1  0  0  0  0
  3 14  1  0  0  0  0
  4  9  2  0  0  0  0
  5 18  2  0  0  0  0
  5  7  1  0  0  0  0
  6 16  1  0  0  0  0
  7  2  2  0  0  0  0
  7  4  1  0  0  0  0
  8 12  2  0  0  0  0
  9  6  1  0  0  0  0
 10 20  1  0  0  0  0
 10 14  1  0  0  0  0
 11  5  1  0  0  0  0
 12  4  1  0  0  0  0
 13 19  2  0  0  0  0
 13 15  1  0  0  0  0
 14 18  1  0  0  0  0
 15 10  2  0  0  0  0
 17  6  2  0  0  0  0
 18  8  1  0  0  0  0
 19  1  1  0  0  0  0
 20 11  2  0  0  0  0
 21  1  1  0  0  0  0
 22 21  1  0  0  0  0
 23 26  2  0  0  0  0
 23 28  1  0  0  0  0
 24 22  1  0  0  0  0
 25 22  2  0  0  0  0
 26 25  1  0  0  0  0
 27 23  1  0  0  0  0
 28 24  2  0  0  0  0
M  END
>  <MODEL>
3

>  <REMARK>
 VINA RESULT:      -9.6      1.860      2.577
  Name = 
  2 active torsions:
  status: ('A' for Active; 'I' for Inactive)
    1  A    between atoms: N_1  and  C_2
    2  A    between atoms: C_2  and  C_3
                            x       y       z     vdW  Elec       q    Type
                         _______ _______ _______ _____ _____    ______ ____

>  <TORSDO>
F 2

$$$$
=
 OpenBabel10272401543D

 28 32  0  0  0  0  0  0  0  0999 V2000
  186.1660  178.6150  140.2010 N   0  0  0  0  0  0  0  0  0  0  0  0
  187.0750  178.1020  145.1510 C   0  0  0  0  0  3  0  0  0  0  0  0
  190.8210  176.8080  140.3530 C   0  0  0  0  0  1  0  0  0  0  0  0
  189.3400  177.2240  145.2500 C   0  0  0  0  0  0  0  0  0  0  0  0
  188.3260  177.6790  143.0920 C   0  0  0  0  0  0  0  0  0  0  0  0
  188.1090  177.6400  147.2930 C   0  0  0  0  0  0  0  0  0  0  0  0
  188.2350  177.6730  144.4910 C   0  0  0  0  0  0  0  0  0  0  0  0
  190.5810  176.8060  143.2690 C   0  0  0  0  0  3  0  0  0  0  0  0
  189.2710  177.2100  146.6450 C   0  0  0  0  0  3  0  0  0  0  0  0
  188.4810  177.7220  140.2760 C   0  0  0  0  0  0  0  0  0  0  0  0
  187.2200  178.1300  142.2880 N   0  0  0  0  0  0  0  0  0  0  0  0
  190.4720  176.8060  144.6230 N   0  0  0  0  0  0  0  0  0  0  0  0
  187.3850  178.2420  138.2110 C   0  0  0  0  0  3  0  0  0  0  0  0
  189.6090  177.2540  141.0330 N   0  0  0  0  0  0  0  0  0  0  0  0
  188.5080  177.7700  138.9760 N   0  0  0  0  0  0  0  0  0  0  0  0
  188.0380  177.6250  148.7780 C   0  0  0  0  0  1  0  0  0  0  0  0
  187.0140  178.0860  146.5470 C   0  0  0  0  0  3  0  0  0  0  0  0
  189.5140  177.2410  142.4700 C   0  0  0  0  0  0  0  0  0  0  0  0
  186.2920  178.6390  138.8000 N   0  0  0  0  0  0  0  0  0  0  0  0
  187.2720  178.1580  140.9890 C   0  0  0  0  0  0  0  0  0  0  0  0
  184.9460  179.1180  140.8190 C   0  0  0  0  0  2  0  0  0  0  0  0
  183.7540  178.6730  140.0400 C   0  0  0  0  0  0  0  0  0  0  0  0
  181.4860  177.8570  138.6210 C   0  0  0  0  0  0  0  0  0  0  0  0
  183.1680  179.5310  139.1030 C   0  0  0  0  0  3  0  0  0  0  0  0
  183.1990  177.4090  140.2730 C   0  0  0  0  0  3  0  0  0  0  0  0
  182.0670  177.0020  139.5630 C   0  0  0  0  0  3  0  0  0  0  0  0
  180.3890  177.4600  137.9320 F   0  0  0  0  0  0  0  0  0  0  0  0
  182.0360  179.1210  138.3920 C   0  0  0  0  0  3  0  0  0  0  0  0
  1 21  1  0  0  0  0
  1 20  1  0  0  0  0
  2 17  1  0  0  0  0
  3 14  1  0  0  0  0
  4  9  2  0  0  0  0
  5  7  1  0  0  0  0
  6 16  1  0  0  0  0
  7  2  2  0  0  0  0
  7  4  1  0  0  0  0
  8 12  2  0  0  0  0
  9  6  1  0  0  0  0
 10 20  1  0  0  0  0
 10 14  1  0  0  0  0
 11  5  1  0  0  0  0
 12  4  1  0  0  0  0
 13 19  2  0  0  0  0
 13 15  1  0  0  0  0
 14 18  1  0  0  0  0
 15 10  2  0  0  0  0
 17  6  2  0  0  0  0
 18  5  2  0  0  0  0
 18  8  1  0  0  0  0
 19  1  1  0  0  0  0
 20 11  2  0  0  0  0
 22 25  1  0  0  0  0
 22 21  1  0  0  0  0
 23 26  1  0  0  0  0
 24 22  2  0  0  0  0
 26 25  2  0  0  0  0
 27 23  1  0  0  0  0
 28 23  2  0  0  0  0
 28 24  1  0  0  0  0
M  END
>  <MODEL>
4

>  <REMARK>
 VINA RESULT:      -9.6      2.572      4.698
  Name = 
  2 active torsions:
  status: ('A' for Active; 'I' for Inactive)
    1  A    between atoms: N_1  and  C_2
    2  A    between atoms: C_2  and  C_3
                            x       y       z     vdW  Elec       q    Type
                         _______ _______ _______ _____ _____    ______ ____

>  <TORSDO>
F 2

$$$$
=
 OpenBabel10272401543D

 28 32  0  0  0  0  0  0  0  0999 V2000
  189.5520  177.8140  139.4290 N   0  0  0  0  0  0  0  0  0  0  0  0
  188.9670  177.4640  144.4410 C   0  0  0  0  0  3  0  0  0  0  0  0
  184.7520  179.0050  140.1310 C   0  0  0  0  0  1  0  0  0  0  0  0
  186.6330  178.0390  144.8080 C   0  0  0  0  0  0  0  0  0  0  0  0
  187.5260  178.0380  142.5500 C   0  0  0  0  0  0  0  0  0  0  0  0
  188.0520  177.4700  146.6850 C   0  0  0  0  0  0  0  0  0  0  0  0
  187.7200  177.8450  143.9260 C   0  0  0  0  0  0  0  0  0  0  0  0
  185.2090  178.5980  142.9920 C   0  0  0  0  0  3  0  0  0  0  0  0
  186.8050  177.8500  146.1810 C   0  0  0  0  0  3  0  0  0  0  0  0
  187.1650  178.4020  139.7770 C   0  0  0  0  0  0  0  0  0  0  0  0
  188.6110  177.8500  141.6240 N   0  0  0  0  0  0  0  0  0  0  0  0
  185.4180  178.4070  144.3210 N   0  0  0  0  0  0  0  0  0  0  0  0
  188.1540  178.3330  137.5960 C   0  0  0  0  0  3  0  0  0  0  0  0
  186.0530  178.6110  140.6610 N   0  0  0  0  0  0  0  0  0  0  0  0
  187.0460  178.5460  138.4890 N   0  0  0  0  0  0  0  0  0  0  0  0
  188.2320  177.2710  148.1470 C   0  0  0  0  0  1  0  0  0  0  0  0
  189.1310  177.2770  145.8170 C   0  0  0  0  0  3  0  0  0  0  0  0
  186.2540  178.4190  142.0750 C   0  0  0  0  0  0  0  0  0  0  0  0
  189.3240  177.9860  138.0510 N   0  0  0  0  0  0  0  0  0  0  0  0
  188.4650  178.0110  140.3410 C   0  0  0  0  0  0  0  0  0  0  0  0
  190.8630  177.3740  139.8890 C   0  0  0  0  0  2  0  0  0  0  0  0
  191.5190  176.5340  138.8470 C   0  0  0  0  0  0  0  0  0  0  0  0
  192.7750  174.9280  136.9310 C   0  0  0  0  0  0  0  0  0  0  0  0
  190.8590  175.4120  138.3310 C   0  0  0  0  0  3  0  0  0  0  0  0
  192.8110  176.8460  138.4080 C   0  0  0  0  0  3  0  0  0  0  0  0
  193.4380  176.0440  137.4500 C   0  0  0  0  0  3  0  0  0  0  0  0
  193.3820  174.1510  136.0010 F   0  0  0  0  0  0  0  0  0  0  0  0
  191.4870  174.6110  137.3720 C   0  0  0  0  0  3  0  0  0  0  0  0
  1 21  1  0  0  0  0
  1 20  1  0  0  0  0
  2 17  1  0  0  0  0
  3 14  1  0  0  0  0
  4  9  2  0  0  0  0
  5  7  1  0  0  0  0
  6 16  1  0  0  0  0
  7  2  2  0  0  0  0
  7  4  1  0  0  0  0
  8 12  2  0  0  0  0
  9  6  1  0  0  0  0
 10 20  1  0  0  0  0
 10 14  1  0  0  0  0
 11  5  1  0  0  0  0
 12  4  1  0  0  0  0
 13 19  2  0  0  0  0
 13 15  1  0  0  0  0
 14 18  1  0  0  0  0
 15 10  2  0  0  0  0
 17  6  2  0  0  0  0
 18  5  2  0  0  0  0
 18  8  1  0  0  0  0
 19  1  1  0  0  0  0
 20 11  2  0  0  0  0
 22 21  1  0  0  0  0
 23 28  2  0  0  0  0
 23 26  1  0  0  0  0
 24 22  2  0  0  0  0
 25 22  1  0  0  0  0
 26 25  2  0  0  0  0
 27 23  1  0  0  0  0
 28 24  1  0  0  0  0
M  END
>  <MODEL>
5

>  <REMARK>
 VINA RESULT:      -9.5      2.606      3.634
  Name = 
  2 active torsions:
  status: ('A' for Active; 'I' for Inactive)
    1  A    between atoms: N_1  and  C_2
    2  A    between atoms: C_2  and  C_3
                            x       y       z     vdW  Elec       q    Type
                         _______ _______ _______ _____ _____    ______ ____

>  <TORSDO>
F 2

$$$$
=
 OpenBabel10272401543D

 28 32  0  0  0  0  0  0  0  0999 V2000
  189.7450  177.7720  139.8790 N   0  0  0  0  0  0  0  0  0  0  0  0
  185.3670  178.4260  142.3260 C   0  0  0  0  0  3  0  0  0  0  0  0
  190.9760  177.1080  144.6740 C   0  0  0  0  0  1  0  0  0  0  0  0
  185.9430  178.1090  144.6670 C   0  0  0  0  0  0  0  0  0  0  0  0
  187.6680  177.9070  142.9720 C   0  0  0  0  0  0  0  0  0  0  0  0
  183.6620  178.6220  144.0370 C   0  0  0  0  0  0  0  0  0  0  0  0
  186.3280  178.1470  143.3080 C   0  0  0  0  0  0  0  0  0  0  0  0
  188.1680  177.6080  145.3240 C   0  0  0  0  0  3  0  0  0  0  0  0
  184.6130  178.3460  145.0230 C   0  0  0  0  0  3  0  0  0  0  0  0
  190.3590  177.4460  142.2620 C   0  0  0  0  0  0  0  0  0  0  0  0
  188.0950  177.9390  141.5980 N   0  0  0  0  0  0  0  0  0  0  0  0
  186.8650  177.8410  145.6290 N   0  0  0  0  0  0  0  0  0  0  0  0
  191.9770  177.3070  140.5010 C   0  0  0  0  0  3  0  0  0  0  0  0
  189.9810  177.3940  143.6470 N   0  0  0  0  0  0  0  0  0  0  0  0
  191.5890  177.2510  141.8850 N   0  0  0  0  0  0  0  0  0  0  0  0
  182.2480  178.8740  144.4190 C   0  0  0  0  0  1  0  0  0  0  0  0
  184.0380  178.6630  142.6910 C   0  0  0  0  0  3  0  0  0  0  0  0
  188.6030  177.6340  143.9920 C   0  0  0  0  0  0  0  0  0  0  0  0
  191.1010  177.5550  139.5690 N   0  0  0  0  0  0  0  0  0  0  0  0
  189.3320  177.7300  141.2500 C   0  0  0  0  0  0  0  0  0  0  0  0
  188.8100  178.0980  138.8100 C   0  0  0  0  0  2  0  0  0  0  0  0
  189.0400  177.2090  137.6350 C   0  0  0  0  0  0  0  0  0  0  0  0
  189.4190  175.5450  135.4190 C   0  0  0  0  0  0  0  0  0  0  0  0
  189.4360  177.7550  136.4080 C   0  0  0  0  0  3  0  0  0  0  0  0
  188.8260  175.8310  137.7490 C   0  0  0  0  0  3  0  0  0  0  0  0
  189.0170  174.9990  136.6420 C   0  0  0  0  0  3  0  0  0  0  0  0
  189.6040  174.7380  134.3460 F   0  0  0  0  0  0  0  0  0  0  0  0
  189.6270  176.9220  135.3010 C   0  0  0  0  0  3  0  0  0  0  0  0
  1 20  1  0  0  0  0
  2 17  2  0  0  0  0
  2  7  1  0  0  0  0
  4  9  1  0  0  0  0
  4 12  1  0  0  0  0
  5  7  1  0  0  0  0
  5 18  2  0  0  0  0
  6 16  1  0  0  0  0
  6  9  2  0  0  0  0
  7  4  2  0  0  0  0
  8 12  2  0  0  0  0
 10 14  1  0  0  0  0
 11  5  1  0  0  0  0
 13 15  1  0  0  0  0
 14 18  1  0  0  0  0
 14  3  1  0  0  0  0
 15 10  2  0  0  0  0
 17  6  1  0  0  0  0
 18  8  1  0  0  0  0
 19  1  1  0  0  0  0
 19 13  2  0  0  0  0
 20 11  2  0  0  0  0
 20 10  1  0  0  0  0
 21  1  1  0  0  0  0
 22 25  1  0  0  0  0
 22 21  1  0  0  0  0
 23 26  1  0  0  0  0
 24 22  2  0  0  0  0
 26 25  2  0  0  0  0
 27 23  1  0  0  0  0
 28 23  2  0  0  0  0
 28 24  1  0  0  0  0
M  END
>  <MODEL>
6

>  <REMARK>
 VINA RESULT:      -9.1      1.903      4.788
  Name = 
  2 active torsions:
  status: ('A' for Active; 'I' for Inactive)
    1  A    between atoms: N_1  and  C_2
    2  A    between atoms: C_2  and  C_3
                            x       y       z     vdW  Elec       q    Type
                         _______ _______ _______ _____ _____    ______ ____

>  <TORSDO>
F 2

$$$$
=
 OpenBabel10272401543D

 28 32  0  0  0  0  0  0  0  0999 V2000
  189.8800  177.8260  139.8450 N   0  0  0  0  0  0  0  0  0  0  0  0
  185.3590  178.4870  142.0150 C   0  0  0  0  0  3  0  0  0  0  0  0
  190.7940  177.0800  144.6990 C   0  0  0  0  0  1  0  0  0  0  0  0
  185.7800  178.1300  144.3830 C   0  0  0  0  0  0  0  0  0  0  0  0
  187.6100  177.9370  142.7990 C   0  0  0  0  0  0  0  0  0  0  0  0
  183.5490  178.6750  143.6150 C   0  0  0  0  0  0  0  0  0  0  0  0
  186.2530  178.1850  143.0520 C   0  0  0  0  0  0  0  0  0  0  0  0
  187.9540  177.5980  145.1750 C   0  0  0  0  0  3  0  0  0  0  0  0
  184.4320  178.3750  144.6560 C   0  0  0  0  0  3  0  0  0  0  0  0
  190.3360  177.4600  142.2580 C   0  0  0  0  0  0  0  0  0  0  0  0
  188.1250  177.9850  141.4570 N   0  0  0  0  0  0  0  0  0  0  0  0
  186.6360  177.8400  145.3980 N   0  0  0  0  0  0  0  0  0  0  0  0
  192.0630  177.3310  140.6030 C   0  0  0  0  0  3  0  0  0  0  0  0
  189.8690  177.3910  143.6140 N   0  0  0  0  0  0  0  0  0  0  0  0
  191.5860  177.2580  141.9580 N   0  0  0  0  0  0  0  0  0  0  0  0
  182.1150  178.9360  143.9090 C   0  0  0  0  0  1  0  0  0  0  0  0
  184.0120  178.7320  142.2970 C   0  0  0  0  0  3  0  0  0  0  0  0
  188.4740  177.6400  143.8740 C   0  0  0  0  0  0  0  0  0  0  0  0
  191.2510  177.6010  139.6200 N   0  0  0  0  0  0  0  0  0  0  0  0
  189.3790  177.7690  141.1860 C   0  0  0  0  0  0  0  0  0  0  0  0
  189.0190  178.1780  138.7230 C   0  0  0  0  0  2  0  0  0  0  0  0
  188.5870  176.9470  138.0010 C   0  0  0  0  0  0  0  0  0  0  0  0
  187.7680  174.6130  136.6940 C   0  0  0  0  0  0  0  0  0  0  0  0
  187.2460  176.7830  137.6340 C   0  0  0  0  0  3  0  0  0  0  0  0
  189.5160  175.9380  137.7190 C   0  0  0  0  0  3  0  0  0  0  0  0
  189.1070  174.7730  137.0650 C   0  0  0  0  0  3  0  0  0  0  0  0
  187.3720  173.4840  136.0590 F   0  0  0  0  0  0  0  0  0  0  0  0
  186.8380  175.6170  136.9790 C   0  0  0  0  0  3  0  0  0  0  0  0
  1 20  1  0  0  0  0
  2 17  2  0  0  0  0
  2  7  1  0  0  0  0
  4  9  1  0  0  0  0
  4 12  1  0  0  0  0
  5  7  1  0  0  0  0
  5 18  2  0  0  0  0
  6 16  1  0  0  0  0
  6  9  2  0  0  0  0
  7  4  2  0  0  0  0
  8 12  2  0  0  0  0
 10 14  1  0  0  0  0
 11  5  1  0  0  0  0
 13 15  1  0  0  0  0
 14 18  1  0  0  0  0
 14  3  1  0  0  0  0
 15 10  2  0  0  0  0
 17  6  1  0  0  0  0
 18  8  1  0  0  0  0
 19  1  1  0  0  0  0
 19 13  2  0  0  0  0
 20 11  2  0  0  0  0
 20 10  1  0  0  0  0
 21  1  1  0  0  0  0
 22 21  1  0  0  0  0
 23 28  2  0  0  0  0
 23 26  1  0  0  0  0
 24 22  2  0  0  0  0
 25 22  1  0  0  0  0
 26 25  2  0  0  0  0
 27 23  1  0  0  0  0
 28 24  1  0  0  0  0
M  END
>  <MODEL>
7

>  <REMARK>
 VINA RESULT:      -9.0      2.006      4.906
  Name = 
  2 active torsions:
  status: ('A' for Active; 'I' for Inactive)
    1  A    between atoms: N_1  and  C_2
    2  A    between atoms: C_2  and  C_3
                            x       y       z     vdW  Elec       q    Type
                         _______ _______ _______ _____ _____    ______ ____

>  <TORSDO>
F 2

$$$$
=
 OpenBabel10272401543D

 28 32  0  0  0  0  0  0  0  0999 V2000
  189.2790  177.7720  138.7730 N   0  0  0  0  0  0  0  0  0  0  0  0
  185.5730  178.5830  142.1190 C   0  0  0  0  0  3  0  0  0  0  0  0
  191.2570  176.2470  143.0990 C   0  0  0  0  0  1  0  0  0  0  0  0
  186.5160  177.8490  144.2370 C   0  0  0  0  0  0  0  0  0  0  0  0
  187.8500  177.6940  142.2150 C   0  0  0  0  0  0  0  0  0  0  0  0
  184.2610  178.7280  144.1510 C   0  0  0  0  0  0  0  0  0  0  0  0
  186.6460  178.0440  142.8440 C   0  0  0  0  0  0  0  0  0  0  0  0
  188.7240  176.9850  144.3620 C   0  0  0  0  0  3  0  0  0  0  0  0
  185.3250  178.1920  144.8820 C   0  0  0  0  0  3  0  0  0  0  0  0
  190.2650  177.0180  140.9240 C   0  0  0  0  0  0  0  0  0  0  0  0
  188.0180  177.8800  140.7980 N   0  0  0  0  0  0  0  0  0  0  0  0
  187.5480  177.3290  144.9520 N   0  0  0  0  0  0  0  0  0  0  0  0
  191.4920  176.9480  138.8670 C   0  0  0  0  0  3  0  0  0  0  0  0
  190.1440  176.8050  142.3390 N   0  0  0  0  0  0  0  0  0  0  0  0
  191.3610  176.7320  140.2840 N   0  0  0  0  0  0  0  0  0  0  0  0
  182.9950  179.0920  144.8400 C   0  0  0  0  0  1  0  0  0  0  0  0
  184.3850  178.9240  142.7720 C   0  0  0  0  0  3  0  0  0  0  0  0
  188.9050  177.1580  142.9830 C   0  0  0  0  0  0  0  0  0  0  0  0
  190.5070  177.4390  138.1710 N   0  0  0  0  0  0  0  0  0  0  0  0
  189.1230  177.5760  140.1840 C   0  0  0  0  0  0  0  0  0  0  0  0
  188.2230  178.3680  137.9650 C   0  0  0  0  0  2  0  0  0  0  0  0
  187.1970  177.3420  137.6190 C   0  0  0  0  0  0  0  0  0  0  0  0
  185.2750  175.4000  137.0220 C   0  0  0  0  0  0  0  0  0  0  0  0
  185.8360  177.6620  137.6800 C   0  0  0  0  0  3  0  0  0  0  0  0
  187.5950  176.0470  137.2660 C   0  0  0  0  0  3  0  0  0  0  0  0
  186.6350  175.0780  136.9670 C   0  0  0  0  0  3  0  0  0  0  0  0
  184.3440  174.4600  136.7310 F   0  0  0  0  0  0  0  0  0  0  0  0
  184.8760  176.6910  137.3800 C   0  0  0  0  0  3  0  0  0  0  0  0
  1 20  1  0  0  0  0
  2 17  2  0  0  0  0
  2  7  1  0  0  0  0
  4  9  1  0  0  0  0
  4 12  1  0  0  0  0
  5  7  1  0  0  0  0
  5 18  2  0  0  0  0
  6 16  1  0  0  0  0
  6  9  2  0  0  0  0
  7  4  2  0  0  0  0
  8 12  2  0  0  0  0
 10 14  1  0  0  0  0
 11  5  1  0  0  0  0
 13 15  1  0  0  0  0
 14 18  1  0  0  0  0
 14  3  1  0  0  0  0
 15 10  2  0  0  0  0
 17  6  1  0  0  0  0
 18  8  1  0  0  0  0
 19  1  1  0  0  0  0
 19 13  2  0  0  0  0
 20 11  2  0  0  0  0
 20 10  1  0  0  0  0
 21  1  1  0  0  0  0
 22 24  1  0  0  0  0
 22 21  1  0  0  0  0
 23 28  1  0  0  0  0
 25 22  2  0  0  0  0
 26 23  2  0  0  0  0
 26 25  1  0  0  0  0
 27 23  1  0  0  0  0
 28 24  2  0  0  0  0
M  END
>  <MODEL>
8

>  <REMARK>
 VINA RESULT:      -9.0      2.267      4.949
  Name = 
  2 active torsions:
  status: ('A' for Active; 'I' for Inactive)
    1  A    between atoms: N_1  and  C_2
    2  A    between atoms: C_2  and  C_3
                            x       y       z     vdW  Elec       q    Type
                         _______ _______ _______ _____ _____    ______ ____

>  <TORSDO>
F 2

$$$$
=
 OpenBabel10272401543D

 28 32  0  0  0  0  0  0  0  0999 V2000
  189.3470  177.9280  139.4360 N   0  0  0  0  0  0  0  0  0  0  0  0
  190.8830  177.0970  144.1830 C   0  0  0  0  0  3  0  0  0  0  0  0
  185.1680  178.4450  142.1230 C   0  0  0  0  0  1  0  0  0  0  0  0
  188.8610  177.3420  145.5120 C   0  0  0  0  0  0  0  0  0  0  0  0
  188.7550  177.6390  143.1050 C   0  0  0  0  0  0  0  0  0  0  0  0
  190.9630  176.8050  146.5870 C   0  0  0  0  0  0  0  0  0  0  0  0
  189.5080  177.3600  144.2550 C   0  0  0  0  0  0  0  0  0  0  0  0
  186.7810  177.8650  144.4930 C   0  0  0  0  0  3  0  0  0  0  0  0
  189.5920  177.0650  146.6690 C   0  0  0  0  0  3  0  0  0  0  0  0
  187.2690  178.1800  140.7700 C   0  0  0  0  0  0  0  0  0  0  0  0
  189.3810  177.6650  141.8090 N   0  0  0  0  0  0  0  0  0  0  0  0
  187.5280  177.5940  145.5960 N   0  0  0  0  0  0  0  0  0  0  0  0
  187.2870  178.4160  138.3860 C   0  0  0  0  0  3  0  0  0  0  0  0
  186.6000  178.1750  142.0410 N   0  0  0  0  0  0  0  0  0  0  0  0
  186.6250  178.4140  139.6630 N   0  0  0  0  0  0  0  0  0  0  0  0
  191.7380  176.5110  147.8210 C   0  0  0  0  0  1  0  0  0  0  0  0
  191.6070  176.8210  145.3470 C   0  0  0  0  0  3  0  0  0  0  0  0
  187.3730  177.8950  143.2230 C   0  0  0  0  0  0  0  0  0  0  0  0
  188.5660  178.1830  138.2930 N   0  0  0  0  0  0  0  0  0  0  0  0
  188.7130  177.9110  140.7200 C   0  0  0  0  0  0  0  0  0  0  0  0
  190.7630  177.6210  139.2800 C   0  0  0  0  0  2  0  0  0  0  0  0
  190.9350  176.3680  138.4890 C   0  0  0  0  0  0  0  0  0  0  0  0
  191.2490  174.0470  136.9600 C   0  0  0  0  0  0  0  0  0  0  0  0
  192.2140  175.9480  138.1080 C   0  0  0  0  0  3  0  0  0  0  0  0
  189.8120  175.6300  138.0970 C   0  0  0  0  0  3  0  0  0  0  0  0
  189.9700  174.4700  137.3340 C   0  0  0  0  0  3  0  0  0  0  0  0
  191.4010  172.9220  136.2200 F   0  0  0  0  0  0  0  0  0  0  0  0
  192.3710  174.7870  137.3450 C   0  0  0  0  0  3  0  0  0  0  0  0
  1 20  1  0  0  0  0
  2  7  2  0  0  0  0
  2 17  1  0  0  0  0
  4 12  1  0  0  0  0
  4  9  2  0  0  0  0
  5 18  2  0  0  0  0
  5  7  1  0  0  0  0
  6  9  1  0  0  0  0
  6 16  1  0  0  0  0
  7  4  1  0  0  0  0
  8 12  2  0  0  0  0
 10 14  1  0  0  0  0
 11  5  1  0  0  0  0
 13 15  1  0  0  0  0
 14  3  1  0  0  0  0
 14 18  1  0  0  0  0
 15 10  2  0  0  0  0
 17  6  2  0  0  0  0
 18  8  1  0  0  0  0
 19 13  2  0  0  0  0
 19  1  1  0  0  0  0
 20 10  1  0  0  0  0
 20 11  2  0  0  0  0
 21  1  1  0  0  0  0
 22 21  1  0  0  0  0
 23 26  2  0  0  0  0
 23 28  1  0  0  0  0
 24 22  1  0  0  0  0
 25 22  2  0  0  0  0
 26 25  1  0  0  0  0
 27 23  1  0  0  0  0
 28 24  2  0  0  0  0
M  END
>  <MODEL>
9

>  <REMARK>
 VINA RESULT:      -8.7      2.330      2.783
  Name = 
  2 active torsions:
  status: ('A' for Active; 'I' for Inactive)
    1  A    between atoms: N_1  and  C_2
    2  A    between atoms: C_2  and  C_3
                            x       y       z     vdW  Elec       q    Type
                         _______ _______ _______ _____ _____    ______ ____

>  <TORSDO>
F 2

$$$$
