=
 OpenBabel10272401103D

 27 31  0  0  0  0  0  0  0  0999 V2000
  188.2920  177.2980  143.2460 C   0  0  0  0  0  3  0  0  0  0  0  0
  186.1540  178.3570  144.0100 C   0  0  0  0  0  0  0  0  0  0  0  0
  186.3450  178.7700  141.5050 C   0  0  0  0  0  3  0  0  0  0  0  0
  181.9680  178.9450  143.5630 C   0  0  0  0  0  3  0  0  0  0  0  0
  179.9820  178.9550  142.1930 O   0  0  0  0  0  1  0  0  0  0  0  0
  185.2800  178.7140  145.1560 C   0  0  0  0  0  3  0  0  0  0  0  0
  182.1370  178.5710  141.1790 C   0  0  0  0  0  3  0  0  0  0  0  0
  189.3790  178.4880  138.1410 O   0  0  0  0  0  0  0  0  0  0  0  0
  183.5230  178.4420  141.2970 C   0  0  0  0  0  3  0  0  0  0  0  0
  189.0730  178.1630  139.3170 C   0  0  0  0  0  0  0  0  0  0  0  0
  184.1500  178.5650  142.5510 C   0  0  0  0  0  0  0  0  0  0  0  0
  187.3800  177.8470  144.2630 C   0  0  0  0  0  0  0  0  0  0  0  0
  181.3600  178.8250  142.3110 C   0  0  0  0  0  0  0  0  0  0  0  0
  183.3530  178.8120  143.6850 C   0  0  0  0  0  0  0  0  0  0  0  0
  188.3920  177.5140  141.9370 C   0  0  0  0  0  0  0  0  0  0  0  0
  185.5880  178.4490  142.6820 N   0  0  0  0  0  0  0  0  0  0  0  0
  187.9510  178.6680  139.8910 N   0  0  0  0  0  2  0  0  0  0  0  0
  183.9780  178.9320  145.0030 C   0  0  0  0  0  3  0  0  0  0  0  0
  189.8700  177.2700  140.0220 C   0  0  0  0  0  3  0  0  0  0  0  0
  189.5250  176.9560  141.3350 C   0  0  0  0  0  3  0  0  0  0  0  0
  187.5610  178.3530  141.1590 C   0  0  0  0  0  0  0  0  0  0  0  0
  188.9030  177.5620  148.2660 C   0  0  0  0  0  3  0  0  0  0  0  0
  187.8950  177.7260  145.6510 C   0  0  0  0  0  0  0  0  0  0  0  0
  187.0930  178.0850  146.7470 C   0  0  0  0  0  3  0  0  0  0  0  0
  187.5940  177.9990  148.0480 C   0  0  0  0  0  3  0  0  0  0  0  0
  189.7130  177.2160  147.1820 C   0  0  0  0  0  3  0  0  0  0  0  0
  189.2130  177.3020  145.8790 C   0  0  0  0  0  3  0  0  0  0  0  0
  1 12  1  0  0  0  0
  2 12  2  0  0  0  0
  2  6  1  0  0  0  0
  3 16  1  0  0  0  0
  4 14  1  0  0  0  0
  5 13  1  0  0  0  0
  7  9  2  0  0  0  0
  7 13  1  0  0  0  0
  8 10  2  0  0  0  0
  9 11  1  0  0  0  0
 10 17  1  0  0  0  0
 10 19  1  0  0  0  0
 11 16  1  0  0  0  0
 11 14  2  0  0  0  0
 12 23  1  0  0  0  0
 13  4  2  0  0  0  0
 14 18  1  0  0  0  0
 15  1  2  0  0  0  0
 16  2  1  0  0  0  0
 17 21  1  0  0  0  0
 18  6  2  0  0  0  0
 19 20  2  0  0  0  0
 20 15  1  0  0  0  0
 21  3  2  0  0  0  0
 21 15  1  0  0  0  0
 23 27  2  0  0  0  0
 23 24  1  0  0  0  0
 24 25  2  0  0  0  0
 25 22  1  0  0  0  0
 26 22  2  0  0  0  0
 27 26  1  0  0  0  0
M  END
>  <MODEL>
1

>  <REMARK>
 VINA RESULT:     -12.3      0.000      0.000
  Name = 
  1 active torsions:
  status: ('A' for Active; 'I' for Inactive)
    1  A    between atoms: C_9  and  C_15
                            x       y       z     vdW  Elec       q    Type
                         _______ _______ _______ _____ _____    ______ ____

>  <TORSDO>
F 1

$$$$
=
 OpenBabel10272401103D

 27 31  0  0  0  0  0  0  0  0999 V2000
  189.1900  176.9640  142.6120 C   0  0  0  0  0  3  0  0  0  0  0  0
  187.3390  178.0010  143.9430 C   0  0  0  0  0  0  0  0  0  0  0  0
  186.9950  178.6870  141.5150 C   0  0  0  0  0  3  0  0  0  0  0  0
  183.1980  178.7740  144.5150 C   0  0  0  0  0  3  0  0  0  0  0  0
  180.9630  179.0060  143.6360 O   0  0  0  0  0  1  0  0  0  0  0  0
  186.7600  178.2550  145.2870 C   0  0  0  0  0  3  0  0  0  0  0  0
  182.8150  178.6670  142.1280 C   0  0  0  0  0  3  0  0  0  0  0  0
  189.1910  178.6870  137.5430 O   0  0  0  0  0  0  0  0  0  0  0  0
  184.1840  178.4790  141.9170 C   0  0  0  0  0  3  0  0  0  0  0  0
  189.1340  178.2410  138.7180 C   0  0  0  0  0  0  0  0  0  0  0  0
  185.0780  178.4380  143.0030 C   0  0  0  0  0  0  0  0  0  0  0  0
  188.5580  177.4240  143.8590 C   0  0  0  0  0  0  0  0  0  0  0  0
  182.3230  178.8170  143.4270 C   0  0  0  0  0  0  0  0  0  0  0  0
  184.5660  178.5820  144.3060 C   0  0  0  0  0  0  0  0  0  0  0  0
  189.0110  177.3230  141.3430 C   0  0  0  0  0  0  0  0  0  0  0  0
  186.4990  178.2610  142.7930 N   0  0  0  0  0  0  0  0  0  0  0  0
  188.1970  178.7160  139.5790 N   0  0  0  0  0  2  0  0  0  0  0  0
  185.4720  178.5320  145.4550 C   0  0  0  0  0  3  0  0  0  0  0  0
  190.0140  177.2480  139.1300 C   0  0  0  0  0  3  0  0  0  0  0  0
  189.9490  176.7990  140.4470 C   0  0  0  0  0  3  0  0  0  0  0  0
  188.0790  178.2720  140.8630 C   0  0  0  0  0  0  0  0  0  0  0  0
  190.8930  176.6450  147.3750 C   0  0  0  0  0  3  0  0  0  0  0  0
  189.3590  177.1300  145.0750 C   0  0  0  0  0  0  0  0  0  0  0  0
  188.7500  177.0790  146.3400 C   0  0  0  0  0  3  0  0  0  0  0  0
  189.5130  176.8330  147.4830 C   0  0  0  0  0  3  0  0  0  0  0  0
  191.5110  176.7080  146.1240 C   0  0  0  0  0  3  0  0  0  0  0  0
  190.7480  176.9540  144.9790 C   0  0  0  0  0  3  0  0  0  0  0  0
  1 12  1  0  0  0  0
  2  6  1  0  0  0  0
  3 16  1  0  0  0  0
  6 18  2  0  0  0  0
  7 13  1  0  0  0  0
  8 10  2  0  0  0  0
  9  7  2  0  0  0  0
  9 11  1  0  0  0  0
 10 19  1  0  0  0  0
 10 17  1  0  0  0  0
 11 14  2  0  0  0  0
 12  2  2  0  0  0  0
 12 23  1  0  0  0  0
 13  5  1  0  0  0  0
 13  4  2  0  0  0  0
 14  4  1  0  0  0  0
 14 18  1  0  0  0  0
 15  1  2  0  0  0  0
 16 11  1  0  0  0  0
 16  2  1  0  0  0  0
 17 21  1  0  0  0  0
 19 20  2  0  0  0  0
 20 15  1  0  0  0  0
 21 15  1  0  0  0  0
 21  3  2  0  0  0  0
 22 25  1  0  0  0  0
 23 24  1  0  0  0  0
 24 25  2  0  0  0  0
 26 22  2  0  0  0  0
 27 23  2  0  0  0  0
 27 26  1  0  0  0  0
M  END
>  <MODEL>
2

>  <REMARK>
 VINA RESULT:     -12.3      1.006      1.405
  Name = 
  1 active torsions:
  status: ('A' for Active; 'I' for Inactive)
    1  A    between atoms: C_9  and  C_15
                            x       y       z     vdW  Elec       q    Type
                         _______ _______ _______ _____ _____    ______ ____

>  <TORSDO>
F 1

$$$$
=
 OpenBabel10272401103D

 27 31  0  0  0  0  0  0  0  0999 V2000
  187.2290  178.4100  141.3680 C   0  0  0  0  0  3  0  0  0  0  0  0
  187.4630  177.5320  143.7020 C   0  0  0  0  0  0  0  0  0  0  0  0
  189.4640  176.6840  142.3760 C   0  0  0  0  0  3  0  0  0  0  0  0
  189.8090  176.9370  147.1970 C   0  0  0  0  0  3  0  0  0  0  0  0
  191.9570  176.7160  148.2730 O   0  0  0  0  0  1  0  0  0  0  0  0
  186.8530  177.3950  145.0500 C   0  0  0  0  0  3  0  0  0  0  0  0
  191.8310  176.8840  145.8700 C   0  0  0  0  0  3  0  0  0  0  0  0
  190.9140  176.3270  138.0890 O   0  0  0  0  0  0  0  0  0  0  0  0
  191.0700  177.0120  144.7050 C   0  0  0  0  0  3  0  0  0  0  0  0
  190.0990  176.8580  138.8880 C   0  0  0  0  0  0  0  0  0  0  0  0
  189.6670  177.1020  144.7710 C   0  0  0  0  0  0  0  0  0  0  0  0
  186.7200  178.0620  142.7040 C   0  0  0  0  0  0  0  0  0  0  0  0
  191.2000  176.8450  147.1160 C   0  0  0  0  0  0  0  0  0  0  0  0
  189.0460  177.0690  146.0340 C   0  0  0  0  0  0  0  0  0  0  0  0
  188.2740  177.9670  140.6740 C   0  0  0  0  0  0  0  0  0  0  0  0
  188.8690  177.2170  143.5690 N   0  0  0  0  0  0  0  0  0  0  0  0
  190.0810  176.4770  140.1920 N   0  0  0  0  0  2  0  0  0  0  0  0
  187.5900  177.1730  146.1330 C   0  0  0  0  0  3  0  0  0  0  0  0
  189.2330  177.8490  138.4440 C   0  0  0  0  0  3  0  0  0  0  0  0
  188.3190  178.3930  139.3430 C   0  0  0  0  0  3  0  0  0  0  0  0
  189.2270  177.0160  141.1090 C   0  0  0  0  0  0  0  0  0  0  0  0
  182.6100  179.1560  143.2800 C   0  0  0  0  0  3  0  0  0  0  0  0
  185.2920  178.4160  142.9090 C   0  0  0  0  0  0  0  0  0  0  0  0
  184.3440  178.1840  141.9000 C   0  0  0  0  0  3  0  0  0  0  0  0
  183.0080  178.5480  142.0870 C   0  0  0  0  0  3  0  0  0  0  0  0
  183.5480  179.4050  144.2840 C   0  0  0  0  0  3  0  0  0  0  0  0
  184.8850  179.0410  144.0980 C   0  0  0  0  0  3  0  0  0  0  0  0
  1 12  1  0  0  0  0
  2  6  1  0  0  0  0
  3 16  1  0  0  0  0
  6 18  2  0  0  0  0
  7 13  2  0  0  0  0
  8 10  2  0  0  0  0
  9 11  2  0  0  0  0
  9  7  1  0  0  0  0
 10 17  1  0  0  0  0
 11 14  1  0  0  0  0
 12 23  1  0  0  0  0
 12  2  2  0  0  0  0
 13  4  1  0  0  0  0
 13  5  1  0  0  0  0
 14 18  1  0  0  0  0
 14  4  2  0  0  0  0
 15 21  1  0  0  0  0
 15  1  2  0  0  0  0
 16  2  1  0  0  0  0
 16 11  1  0  0  0  0
 17 21  1  0  0  0  0
 19 10  1  0  0  0  0
 19 20  2  0  0  0  0
 20 15  1  0  0  0  0
 21  3  2  0  0  0  0
 22 26  1  0  0  0  0
 23 27  1  0  0  0  0
 24 25  1  0  0  0  0
 24 23  2  0  0  0  0
 25 22  2  0  0  0  0
 27 26  2  0  0  0  0
M  END
>  <MODEL>
3

>  <REMARK>
 VINA RESULT:     -12.0      2.717      6.083
  Name = 
  1 active torsions:
  status: ('A' for Active; 'I' for Inactive)
    1  A    between atoms: C_9  and  C_15
                            x       y       z     vdW  Elec       q    Type
                         _______ _______ _______ _____ _____    ______ ____

>  <TORSDO>
F 1

$$$$
=
 OpenBabel10272401103D

 27 31  0  0  0  0  0  0  0  0999 V2000
  187.1680  177.3420  144.7680 C   0  0  0  0  0  3  0  0  0  0  0  0
  187.4040  178.0920  142.3890 C   0  0  0  0  0  0  0  0  0  0  0  0
  189.7540  177.7720  143.3120 C   0  0  0  0  0  3  0  0  0  0  0  0
  189.0960  177.5990  138.5200 C   0  0  0  0  0  3  0  0  0  0  0  0
  190.8480  176.7710  137.0840 O   0  0  0  0  0  1  0  0  0  0  0  0
  186.7220  178.5750  141.1600 C   0  0  0  0  0  3  0  0  0  0  0  0
  191.0700  176.5790  139.4780 C   0  0  0  0  0  3  0  0  0  0  0  0
  191.9000  177.1680  147.2660 O   0  0  0  0  0  0  0  0  0  0  0  0
  190.5590  176.7950  140.7610 C   0  0  0  0  0  3  0  0  0  0  0  0
  190.8060  177.1490  146.6440 C   0  0  0  0  0  0  0  0  0  0  0  0
  189.3090  177.4170  140.9400 C   0  0  0  0  0  0  0  0  0  0  0  0
  186.6800  177.9580  143.5230 C   0  0  0  0  0  0  0  0  0  0  0  0
  190.3390  176.9830  138.3580 C   0  0  0  0  0  0  0  0  0  0  0  0
  188.5810  177.8110  139.8020 C   0  0  0  0  0  0  0  0  0  0  0  0
  188.3970  177.1760  145.2510 C   0  0  0  0  0  0  0  0  0  0  0  0
  188.7790  177.6600  142.2650 N   0  0  0  0  0  0  0  0  0  0  0  0
  190.7570  177.5460  145.3470 N   0  0  0  0  0  2  0  0  0  0  0  0
  187.2730  178.4500  139.9580 C   0  0  0  0  0  3  0  0  0  0  0  0
  189.6540  176.7000  147.2760 C   0  0  0  0  0  3  0  0  0  0  0  0
  188.4520  176.7240  146.5730 C   0  0  0  0  0  3  0  0  0  0  0  0
  189.6050  177.5460  144.6150 C   0  0  0  0  0  0  0  0  0  0  0  0
  182.5400  179.0770  143.6980 C   0  0  0  0  0  3  0  0  0  0  0  0
  185.2540  178.3700  143.5820 C   0  0  0  0  0  0  0  0  0  0  0  0
  184.6830  178.8060  144.7890 C   0  0  0  0  0  3  0  0  0  0  0  0
  183.3340  179.1630  144.8450 C   0  0  0  0  0  3  0  0  0  0  0  0
  183.0940  178.6310  142.4960 C   0  0  0  0  0  3  0  0  0  0  0  0
  184.4450  178.2740  142.4390 C   0  0  0  0  0  3  0  0  0  0  0  0
  1 15  2  0  0  0  0
  2 12  2  0  0  0  0
  3 21  2  0  0  0  0
  4 14  1  0  0  0  0
  5 13  1  0  0  0  0
  6  2  1  0  0  0  0
  7  9  2  0  0  0  0
  9 11  1  0  0  0  0
 10  8  2  0  0  0  0
 10 19  1  0  0  0  0
 11 16  1  0  0  0  0
 12 23  1  0  0  0  0
 12  1  1  0  0  0  0
 13  4  2  0  0  0  0
 13  7  1  0  0  0  0
 14 18  1  0  0  0  0
 14 11  2  0  0  0  0
 15 20  1  0  0  0  0
 16  2  1  0  0  0  0
 16  3  1  0  0  0  0
 17 10  1  0  0  0  0
 18  6  2  0  0  0  0
 20 19  2  0  0  0  0
 21 15  1  0  0  0  0
 21 17  1  0  0  0  0
 22 25  1  0  0  0  0
 23 24  1  0  0  0  0
 24 25  2  0  0  0  0
 26 22  2  0  0  0  0
 27 26  1  0  0  0  0
 27 23  2  0  0  0  0
M  END
>  <MODEL>
4

>  <REMARK>
 VINA RESULT:     -11.5      2.748      6.515
  Name = 
  1 active torsions:
  status: ('A' for Active; 'I' for Inactive)
    1  A    between atoms: C_9  and  C_15
                            x       y       z     vdW  Elec       q    Type
                         _______ _______ _______ _____ _____    ______ ____

>  <TORSDO>
F 1

$$$$
=
 OpenBabel10272401103D

 27 31  0  0  0  0  0  0  0  0999 V2000
  186.6430  178.5240  141.2590 C   0  0  0  0  0  3  0  0  0  0  0  0
  186.3350  177.9180  143.6700 C   0  0  0  0  0  0  0  0  0  0  0  0
  188.6750  177.1740  143.0010 C   0  0  0  0  0  3  0  0  0  0  0  0
  187.7330  177.9480  147.6840 C   0  0  0  0  0  3  0  0  0  0  0  0
  189.5380  178.0810  149.2790 O   0  0  0  0  0  1  0  0  0  0  0  0
  185.4090  177.8490  144.8300 C   0  0  0  0  0  3  0  0  0  0  0  0
  190.0270  177.9920  146.9190 C   0  0  0  0  0  3  0  0  0  0  0  0
  191.2150  176.5540  139.2890 O   0  0  0  0  0  0  0  0  0  0  0  0
  189.5880  177.9140  145.5950 C   0  0  0  0  0  3  0  0  0  0  0  0
  190.1790  177.0660  139.7870 C   0  0  0  0  0  0  0  0  0  0  0  0
  188.2130  177.8510  145.2980 C   0  0  0  0  0  0  0  0  0  0  0  0
  185.8350  178.2570  142.4600 C   0  0  0  0  0  0  0  0  0  0  0  0
  189.1000  178.0070  147.9630 C   0  0  0  0  0  0  0  0  0  0  0  0
  187.2900  177.8750  146.3610 C   0  0  0  0  0  0  0  0  0  0  0  0
  187.8660  178.1350  140.9080 C   0  0  0  0  0  0  0  0  0  0  0  0
  187.7480  177.7530  143.9310 N   0  0  0  0  0  0  0  0  0  0  0  0
  189.8550  176.8200  141.0820 N   0  0  0  0  0  2  0  0  0  0  0  0
  185.8550  177.8220  146.0810 C   0  0  0  0  0  3  0  0  0  0  0  0
  189.3780  177.9030  139.0200 C   0  0  0  0  0  3  0  0  0  0  0  0
  188.2200  178.4280  139.5870 C   0  0  0  0  0  3  0  0  0  0  0  0
  188.7490  177.3470  141.6830 C   0  0  0  0  0  0  0  0  0  0  0  0
  181.6150  178.7880  141.8840 C   0  0  0  0  0  3  0  0  0  0  0  0
  184.3790  178.4650  142.2570 C   0  0  0  0  0  0  0  0  0  0  0  0
  183.5740  178.9660  143.2940 C   0  0  0  0  0  3  0  0  0  0  0  0
  182.2000  179.1310  143.1060 C   0  0  0  0  0  3  0  0  0  0  0  0
  182.4040  178.2770  140.8510 C   0  0  0  0  0  3  0  0  0  0  0  0
  183.7790  178.1120  141.0380 C   0  0  0  0  0  3  0  0  0  0  0  0
  1 12  1  0  0  0  0
  2 16  1  0  0  0  0
  2  6  1  0  0  0  0
  3 16  1  0  0  0  0
  4 13  1  0  0  0  0
  6 18  2  0  0  0  0
  7 13  2  0  0  0  0
  8 10  2  0  0  0  0
  9  7  1  0  0  0  0
 10 17  1  0  0  0  0
 11  9  2  0  0  0  0
 11 14  1  0  0  0  0
 12  2  2  0  0  0  0
 13  5  1  0  0  0  0
 14  4  2  0  0  0  0
 15  1  2  0  0  0  0
 15 21  1  0  0  0  0
 16 11  1  0  0  0  0
 17 21  1  0  0  0  0
 18 14  1  0  0  0  0
 19 20  2  0  0  0  0
 19 10  1  0  0  0  0
 20 15  1  0  0  0  0
 21  3  2  0  0  0  0
 22 25  1  0  0  0  0
 23 12  1  0  0  0  0
 23 24  1  0  0  0  0
 25 24  2  0  0  0  0
 26 27  1  0  0  0  0
 26 22  2  0  0  0  0
 27 23  2  0  0  0  0
M  END
>  <MODEL>
5

>  <REMARK>
 VINA RESULT:     -10.7      2.551      5.785
  Name = 
  1 active torsions:
  status: ('A' for Active; 'I' for Inactive)
    1  A    between atoms: C_9  and  C_15
                            x       y       z     vdW  Elec       q    Type
                         _______ _______ _______ _____ _____    ______ ____

>  <TORSDO>
F 1

$$$$
=
 OpenBabel10272401103D

 27 31  0  0  0  0  0  0  0  0999 V2000
  187.6120  178.1590  145.1670 C   0  0  0  0  0  3  0  0  0  0  0  0
  188.8700  177.1670  143.2410 C   0  0  0  0  0  0  0  0  0  0  0  0
  186.5140  177.6750  142.4200 C   0  0  0  0  0  3  0  0  0  0  0  0
  190.0800  177.3060  139.1680 C   0  0  0  0  0  3  0  0  0  0  0  0
  189.7320  178.0420  136.8970 O   0  0  0  0  0  1  0  0  0  0  0  0
  190.1240  176.5290  142.7670 C   0  0  0  0  0  3  0  0  0  0  0  0
  188.0600  178.4980  138.5750 C   0  0  0  0  0  3  0  0  0  0  0  0
  182.4180  178.7860  144.0310 O   0  0  0  0  0  0  0  0  0  0  0  0
  187.6150  178.4030  139.8960 C   0  0  0  0  0  3  0  0  0  0  0  0
  183.6530  178.6950  144.2570 C   0  0  0  0  0  0  0  0  0  0  0  0
  188.3970  177.7550  140.8710 C   0  0  0  0  0  0  0  0  0  0  0  0
  188.7170  177.3950  144.5650 C   0  0  0  0  0  0  0  0  0  0  0  0
  189.2910  177.9480  138.2110 C   0  0  0  0  0  0  0  0  0  0  0  0
  189.6390  177.2130  140.4910 C   0  0  0  0  0  0  0  0  0  0  0  0
  186.3810  178.4240  144.7390 C   0  0  0  0  0  0  0  0  0  0  0  0
  187.9370  177.6360  142.2390 N   0  0  0  0  0  0  0  0  0  0  0  0
  184.4760  178.1580  143.3190 N   0  0  0  0  0  2  0  0  0  0  0  0
  190.4780  176.5450  141.4860 C   0  0  0  0  0  3  0  0  0  0  0  0
  184.1790  179.1630  145.4540 C   0  0  0  0  0  3  0  0  0  0  0  0
  185.5430  179.0180  145.6890 C   0  0  0  0  0  3  0  0  0  0  0  0
  185.8230  178.0350  143.4990 C   0  0  0  0  0  0  0  0  0  0  0  0
  191.6780  176.1370  147.4060 C   0  0  0  0  0  3  0  0  0  0  0  0
  189.7300  176.9360  145.5490 C   0  0  0  0  0  0  0  0  0  0  0  0
  189.4390  176.9190  146.9230 C   0  0  0  0  0  3  0  0  0  0  0  0
  190.4070  176.5160  147.8460 C   0  0  0  0  0  3  0  0  0  0  0  0
  191.9820  176.1630  146.0430 C   0  0  0  0  0  3  0  0  0  0  0  0
  191.0140  176.5660  145.1180 C   0  0  0  0  0  3  0  0  0  0  0  0
  2 12  2  0  0  0  0
  3 21  2  0  0  0  0
  4 14  1  0  0  0  0
  5 13  1  0  0  0  0
  6  2  1  0  0  0  0
  7  9  2  0  0  0  0
  8 10  2  0  0  0  0
  9 11  1  0  0  0  0
 10 19  1  0  0  0  0
 11 16  1  0  0  0  0
 12  1  1  0  0  0  0
 12 23  1  0  0  0  0
 13  7  1  0  0  0  0
 13  4  2  0  0  0  0
 14 11  2  0  0  0  0
 14 18  1  0  0  0  0
 15  1  2  0  0  0  0
 15 20  1  0  0  0  0
 16  3  1  0  0  0  0
 16  2  1  0  0  0  0
 17 21  1  0  0  0  0
 17 10  1  0  0  0  0
 18  6  2  0  0  0  0
 19 20  2  0  0  0  0
 21 15  1  0  0  0  0
 22 25  1  0  0  0  0
 23 24  1  0  0  0  0
 24 25  2  0  0  0  0
 26 22  2  0  0  0  0
 27 23  2  0  0  0  0
 27 26  1  0  0  0  0
M  END
>  <MODEL>
6

>  <REMARK>
 VINA RESULT:     -10.5      1.698      5.697
  Name = 
  1 active torsions:
  status: ('A' for Active; 'I' for Inactive)
    1  A    between atoms: C_9  and  C_15
                            x       y       z     vdW  Elec       q    Type
                         _______ _______ _______ _____ _____    ______ ____

>  <TORSDO>
F 1

$$$$
=
 OpenBabel10272401103D

 27 31  0  0  0  0  0  0  0  0999 V2000
  187.0030  177.6140  141.9600 C   0  0  0  0  0  3  0  0  0  0  0  0
  189.3030  177.6480  142.9540 C   0  0  0  0  0  0  0  0  0  0  0  0
  187.6710  178.2470  144.8140 C   0  0  0  0  0  3  0  0  0  0  0  0
  192.0130  176.4750  146.0120 C   0  0  0  0  0  3  0  0  0  0  0  0
  192.4440  175.7430  148.2700 O   0  0  0  0  0  1  0  0  0  0  0  0
  190.7650  177.5430  142.7160 C   0  0  0  0  0  3  0  0  0  0  0  0
  190.2030  176.3450  147.6110 C   0  0  0  0  0  3  0  0  0  0  0  0
  183.3320  179.4420  145.4020 O   0  0  0  0  0  0  0  0  0  0  0  0
  189.3080  176.7940  146.6360 C   0  0  0  0  0  3  0  0  0  0  0  0
  184.1970  178.9520  144.6310 C   0  0  0  0  0  0  0  0  0  0  0  0
  189.7560  177.0920  145.3360 C   0  0  0  0  0  0  0  0  0  0  0  0
  188.4720  177.6760  141.8880 C   0  0  0  0  0  0  0  0  0  0  0  0
  191.5550  176.1880  147.3000 C   0  0  0  0  0  0  0  0  0  0  0  0
  191.1200  176.9210  145.0340 C   0  0  0  0  0  0  0  0  0  0  0  0
  186.1500  177.9280  142.9320 C   0  0  0  0  0  0  0  0  0  0  0  0
  188.8400  177.5740  144.3230 N   0  0  0  0  0  0  0  0  0  0  0  0
  185.5000  178.9140  145.0110 N   0  0  0  0  0  2  0  0  0  0  0  0
  191.6110  177.2120  143.6860 C   0  0  0  0  0  3  0  0  0  0  0  0
  183.8190  178.4290  143.4010 C   0  0  0  0  0  3  0  0  0  0  0  0
  184.8030  177.9250  142.5550 C   0  0  0  0  0  3  0  0  0  0  0  0
  186.4860  178.3920  144.2250 C   0  0  0  0  0  0  0  0  0  0  0  0
  189.9440  177.6910  137.8560 C   0  0  0  0  0  3  0  0  0  0  0  0
  188.9990  177.6990  140.4990 C   0  0  0  0  0  0  0  0  0  0  0  0
  188.6120  178.7080  139.6020 C   0  0  0  0  0  3  0  0  0  0  0  0
  189.0870  178.7060  138.2880 C   0  0  0  0  0  3  0  0  0  0  0  0
  190.3240  176.6760  138.7360 C   0  0  0  0  0  3  0  0  0  0  0  0
  189.8500  176.6770  140.0510 C   0  0  0  0  0  3  0  0  0  0  0  0
  1 15  2  0  0  0  0
  2 16  1  0  0  0  0
  4 13  1  0  0  0  0
  6  2  1  0  0  0  0
  6 18  2  0  0  0  0
  9  7  1  0  0  0  0
 10 17  1  0  0  0  0
 10  8  2  0  0  0  0
 11  9  2  0  0  0  0
 12  1  1  0  0  0  0
 12  2  2  0  0  0  0
 13  7  2  0  0  0  0
 13  5  1  0  0  0  0
 14 11  1  0  0  0  0
 14  4  2  0  0  0  0
 15 21  1  0  0  0  0
 16  3  1  0  0  0  0
 16 11  1  0  0  0  0
 18 14  1  0  0  0  0
 19 10  1  0  0  0  0
 20 15  1  0  0  0  0
 20 19  2  0  0  0  0
 21  3  2  0  0  0  0
 21 17  1  0  0  0  0
 22 25  2  0  0  0  0
 22 26  1  0  0  0  0
 23 12  1  0  0  0  0
 24 23  2  0  0  0  0
 25 24  1  0  0  0  0
 26 27  2  0  0  0  0
 27 23  1  0  0  0  0
M  END
>  <MODEL>
7

>  <REMARK>
 VINA RESULT:     -10.4      2.778      7.565
  Name = 
  1 active torsions:
  status: ('A' for Active; 'I' for Inactive)
    1  A    between atoms: C_9  and  C_15
                            x       y       z     vdW  Elec       q    Type
                         _______ _______ _______ _____ _____    ______ ____

>  <TORSDO>
F 1

$$$$
=
 OpenBabel10272401103D

 27 31  0  0  0  0  0  0  0  0999 V2000
  185.8520  178.8050  144.8690 C   0  0  0  0  0  3  0  0  0  0  0  0
  187.7290  177.6610  143.6660 C   0  0  0  0  0  0  0  0  0  0  0  0
  185.7690  177.7940  142.0470 C   0  0  0  0  0  3  0  0  0  0  0  0
  190.2350  177.2920  140.2530 C   0  0  0  0  0  3  0  0  0  0  0  0
  190.6420  177.6290  137.8990 O   0  0  0  0  0  1  0  0  0  0  0  0
  189.0970  177.0880  143.7490 C   0  0  0  0  0  3  0  0  0  0  0  0
  188.4840  178.1670  138.8320 C   0  0  0  0  0  3  0  0  0  0  0  0
  181.3240  178.7180  142.0140 O   0  0  0  0  0  0  0  0  0  0  0  0
  187.6240  178.2320  139.9310 C   0  0  0  0  0  3  0  0  0  0  0  0
  182.4130  178.7890  142.6400 C   0  0  0  0  0  0  0  0  0  0  0  0
  188.0590  177.8250  141.2070 C   0  0  0  0  0  0  0  0  0  0  0  0
  187.1280  178.0730  144.8050 C   0  0  0  0  0  0  0  0  0  0  0  0
  189.7890  177.6950  138.9920 C   0  0  0  0  0  0  0  0  0  0  0  0
  189.3790  177.3600  141.3550 C   0  0  0  0  0  0  0  0  0  0  0  0
  184.8280  178.8750  144.0230 C   0  0  0  0  0  0  0  0  0  0  0  0
  187.1700  177.8730  142.3490 N   0  0  0  0  0  0  0  0  0  0  0  0
  183.5270  178.2010  142.1340 N   0  0  0  0  0  2  0  0  0  0  0  0
  189.8610  176.9420  142.6720 C   0  0  0  0  0  3  0  0  0  0  0  0
  182.4830  179.4880  143.8390 C   0  0  0  0  0  3  0  0  0  0  0  0
  183.6930  179.5200  144.5270 C   0  0  0  0  0  3  0  0  0  0  0  0
  184.7380  178.2440  142.7600 C   0  0  0  0  0  0  0  0  0  0  0  0
  189.0140  177.5740  148.6280 C   0  0  0  0  0  3  0  0  0  0  0  0
  187.7690  177.8780  146.1310 C   0  0  0  0  0  0  0  0  0  0  0  0
  187.0610  178.1390  147.3150 C   0  0  0  0  0  3  0  0  0  0  0  0
  187.6790  177.9830  148.5580 C   0  0  0  0  0  3  0  0  0  0  0  0
  189.7310  177.3250  147.4560 C   0  0  0  0  0  3  0  0  0  0  0  0
  189.1130  177.4810  146.2120 C   0  0  0  0  0  3  0  0  0  0  0  0
  2  6  1  0  0  0  0
  2 12  2  0  0  0  0
  3 16  1  0  0  0  0
  3 21  2  0  0  0  0
  4 14  1  0  0  0  0
  5 13  1  0  0  0  0
  7 13  1  0  0  0  0
  7  9  2  0  0  0  0
  8 10  2  0  0  0  0
  9 11  1  0  0  0  0
 10 19  1  0  0  0  0
 11 14  2  0  0  0  0
 11 16  1  0  0  0  0
 12  1  1  0  0  0  0
 12 23  1  0  0  0  0
 13  4  2  0  0  0  0
 14 18  1  0  0  0  0
 15 20  1  0  0  0  0
 15  1  2  0  0  0  0
 16  2  1  0  0  0  0
 17 10  1  0  0  0  0
 17 21  1  0  0  0  0
 18  6  2  0  0  0  0
 19 20  2  0  0  0  0
 21 15  1  0  0  0  0
 23 27  2  0  0  0  0
 23 24  1  0  0  0  0
 24 25  2  0  0  0  0
 25 22  1  0  0  0  0
 26 22  2  0  0  0  0
 27 26  1  0  0  0  0
M  END
>  <MODEL>
8

>  <REMARK>
 VINA RESULT:     -10.2      1.084      5.523
  Name = 
  1 active torsions:
  status: ('A' for Active; 'I' for Inactive)
    1  A    between atoms: C_9  and  C_15
                            x       y       z     vdW  Elec       q    Type
                         _______ _______ _______ _____ _____    ______ ____

>  <TORSDO>
F 1

$$$$
=
 OpenBabel10272401103D

 27 31  0  0  0  0  0  0  0  0999 V2000
  188.2950  177.3810  139.5250 C   0  0  0  0  0  3  0  0  0  0  0  0
  189.3700  177.6400  141.7730 C   0  0  0  0  0  0  0  0  0  0  0  0
  187.0580  178.6970  141.9180 C   0  0  0  0  0  3  0  0  0  0  0  0
  189.2090  177.2400  146.0020 C   0  0  0  0  0  3  0  0  0  0  0  0
  187.9450  177.0870  148.0510 O   0  0  0  0  0  1  0  0  0  0  0  0
  190.5930  177.4660  142.5970 C   0  0  0  0  0  3  0  0  0  0  0  0
  186.8070  177.5260  145.9700 C   0  0  0  0  0  3  0  0  0  0  0  0
  183.6570  180.0390  139.2280 O   0  0  0  0  0  0  0  0  0  0  0  0
  186.8490  177.7270  144.5880 C   0  0  0  0  0  3  0  0  0  0  0  0
  184.7140  179.3650  139.3380 C   0  0  0  0  0  0  0  0  0  0  0  0
  188.0730  177.6890  143.8950 C   0  0  0  0  0  0  0  0  0  0  0  0
  189.4450  177.4100  140.4420 C   0  0  0  0  0  0  0  0  0  0  0  0
  187.9870  177.2850  146.6770 C   0  0  0  0  0  0  0  0  0  0  0  0
  189.2530  177.4360  144.6190 C   0  0  0  0  0  0  0  0  0  0  0  0
  187.0870  177.9330  139.6000 C   0  0  0  0  0  0  0  0  0  0  0  0
  188.1290  177.9130  142.4650 N   0  0  0  0  0  0  0  0  0  0  0  0
  185.4310  179.4100  140.4900 N   0  0  0  0  0  2  0  0  0  0  0  0
  190.5380  177.3790  143.9220 C   0  0  0  0  0  3  0  0  0  0  0  0
  185.1360  178.5560  138.2910 C   0  0  0  0  0  3  0  0  0  0  0  0
  186.3280  177.8490  138.4280 C   0  0  0  0  0  3  0  0  0  0  0  0
  186.5820  178.7010  140.6750 C   0  0  0  0  0  0  0  0  0  0  0  0
  193.1680  176.5170  138.5010 C   0  0  0  0  0  3  0  0  0  0  0  0
  190.7380  177.0820  139.7880 C   0  0  0  0  0  0  0  0  0  0  0  0
  191.9500  177.5580  140.3150 C   0  0  0  0  0  3  0  0  0  0  0  0
  193.1590  177.2720  139.6770 C   0  0  0  0  0  3  0  0  0  0  0  0
  191.9670  176.0510  137.9610 C   0  0  0  0  0  3  0  0  0  0  0  0
  190.7560  176.3370  138.5990 C   0  0  0  0  0  3  0  0  0  0  0  0
  1 15  2  0  0  0  0
  1 12  1  0  0  0  0
  2 16  1  0  0  0  0
  2  6  1  0  0  0  0
  3 16  1  0  0  0  0
  4 13  1  0  0  0  0
  6 18  2  0  0  0  0
  7 13  2  0  0  0  0
  8 10  2  0  0  0  0
  9  7  1  0  0  0  0
 10 17  1  0  0  0  0
 11  9  2  0  0  0  0
 11 14  1  0  0  0  0
 12  2  2  0  0  0  0
 13  5  1  0  0  0  0
 14  4  2  0  0  0  0
 15 21  1  0  0  0  0
 16 11  1  0  0  0  0
 17 21  1  0  0  0  0
 18 14  1  0  0  0  0
 19 20  2  0  0  0  0
 19 10  1  0  0  0  0
 20 15  1  0  0  0  0
 21  3  2  0  0  0  0
 22 25  1  0  0  0  0
 23 24  1  0  0  0  0
 23 12  1  0  0  0  0
 25 24  2  0  0  0  0
 26 22  2  0  0  0  0
 26 27  1  0  0  0  0
 27 23  2  0  0  0  0
M  END
>  <MODEL>
9

>  <REMARK>
 VINA RESULT:     -10.0      2.901      6.331
  Name = 
  1 active torsions:
  status: ('A' for Active; 'I' for Inactive)
    1  A    between atoms: C_9  and  C_15
                            x       y       z     vdW  Elec       q    Type
                         _______ _______ _______ _____ _____    ______ ____

>  <TORSDO>
F 1

$$$$
