=
 OpenBabel10272415153D

 34 40  0  0  1  0  0  0  0  0999 V2000
  188.2550  177.1840  138.7620 C   0  0  0  0  0  3  0  0  0  0  0  0
  190.7190  175.6910  138.1070 C   0  0  0  0  0  2  0  0  0  0  0  0
  187.9400  174.7750  135.8830 C   0  0  2  0  0  0  0  0  0  0  0  0
  187.2500  175.8250  136.7860 C   0  0  0  0  0  2  0  0  0  0  0  0
  188.3350  176.2380  137.7130 C   0  0  0  0  0  0  0  0  0  0  0  0
  191.3960  177.2430  140.2140 N   0  0  0  0  0  0  0  0  0  0  0  0
  189.2940  174.6870  136.3390 O   0  0  0  0  0  0  0  0  0  0  0  0
  189.5040  175.5340  137.4040 C   0  0  0  0  0  0  0  0  0  0  0  0
  187.9150  175.2400  134.4390 C   0  0  0  0  0  1  0  0  0  0  0  0
  190.6290  176.6200  139.1350 C   0  0  2  0  0  0  0  0  0  0  0  0
  189.4530  177.3360  139.4480 C   0  0  0  0  0  0  0  0  0  0  0  0
  190.2060  177.9740  140.4970 C   0  0  2  0  0  0  0  0  0  0  0  0
  187.5870  176.1000  143.1650 C   0  0  0  0  0  2  0  0  0  0  0  0
  189.7700  176.2770  142.1480 O   0  0  0  0  0  0  0  0  0  0  0  0
  187.3440  177.5960  143.0710 C   0  0  1  0  0  3  0  0  0  0  0  0
  188.0830  179.5520  141.8620 O   0  0  0  0  0  1  0  0  0  0  0  0
  188.1690  178.1580  141.9100 C   0  0  1  0  0  3  0  0  0  0  0  0
  189.0800  175.8730  143.3100 C   0  0  0  0  0  2  0  0  0  0  0  0
  189.6540  177.6820  141.9160 C   0  0  2  0  0  0  0  0  0  0  0  0
  185.9230  177.8490  142.8560 N   0  0  0  0  0  0  0  0  0  0  0  0
  185.6560  179.2410  143.2620 C   0  0  0  0  0  2  0  0  0  0  0  0
  185.3310  178.1510  144.1710 C   0  0  0  0  0  2  0  0  0  0  0  0
  190.5460  178.5040  142.8880 C   0  0  0  0  0  2  0  0  0  0  0  0
  189.5430  178.4370  145.2600 C   0  0  0  0  0  3  0  0  0  0  0  0
  190.2760  176.6130  146.7500 C   0  0  0  0  0  2  0  0  0  0  0  0
  189.4050  177.7980  146.4260 C   0  0  0  0  0  3  0  0  0  0  0  0
  191.5800  177.2140  144.7080 C   0  0  0  0  0  3  0  0  0  0  0  0
  190.6100  178.0490  144.3130 C   0  0  0  0  0  0  0  0  0  0  0  0
  191.6750  176.7880  146.1490 C   0  0  0  0  0  2  0  0  0  0  0  0
  187.2580  173.4450  136.0000 C   0  0  0  0  0  0  0  0  0  0  0  0
  186.6330  173.0790  137.1860 O   0  0  0  0  0  1  0  0  0  0  0  0
  187.2040  172.6680  135.0090 O   0  0  0  0  0  0  0  0  0  0  0  0
  192.7560  177.1730  140.7160 C   0  0  0  0  0  2  0  0  0  0  0  0
  193.6510  177.1920  139.6470 O   0  0  0  0  0  1  0  0  0  0  0  0
  1 11  2  0  0  0  0
  3  9  1  6  0  0  0
  3 30  1  0  0  0  0
  3  7  1  0  0  0  0
  3  4  1  0  0  0  0
  4  5  1  0  0  0  0
  5  1  1  0  0  0  0
  6 12  1  0  0  0  0
  6 33  1  0  0  0  0
  7  8  1  0  0  0  0
  8  5  2  0  0  0  0
  8  2  1  0  0  0  0
 10  2  1  6  0  0  0
 10 11  1  0  0  0  0
 10  6  1  0  0  0  0
 10 12  1  0  0  0  0
 12 11  1  6  0  0  0
 12 19  1  0  0  0  0
 13 18  1  0  0  0  0
 14 18  1  0  0  0  0
 15 20  1  6  0  0  0
 15 13  1  0  0  0  0
 17 16  1  1  0  0  0
 17 19  1  0  0  0  0
 17 15  1  0  0  0  0
 19 14  1  0  0  0  0
 19 23  1  1  0  0  0
 20 21  1  0  0  0  0
 20 22  1  0  0  0  0
 21 22  1  0  0  0  0
 23 28  1  0  0  0  0
 24 26  2  0  0  0  0
 26 25  1  0  0  0  0
 27 29  1  0  0  0  0
 28 27  2  0  0  0  0
 28 24  1  0  0  0  0
 29 25  1  0  0  0  0
 30 31  1  0  0  0  0
 32 30  2  0  0  0  0
 34 33  1  0  0  0  0
M  END
>  <MODEL>
1

>  <REMARK>
 VINA RESULT:      -7.0      0.000      0.000
  Name = 
  6 active torsions:
  status: ('A' for Active; 'I' for Inactive)
    1  A    between atoms: C_1  and  C_20
    2  A    between atoms: C_1  and  C_34
    3  A    between atoms: N_3  and  C_23
    4  A    between atoms: C_7  and  C_11
    5  A    between atoms: C_8  and  N_18
    6  A    between atoms: C_33  and  C_34
                            x       y       z     vdW  Elec       q    Type
                         _______ _______ _______ _____ _____    ______ ____

>  <TORSDO>
F 6

$$$$
=
 OpenBabel10272415153D

 34 40  0  0  1  0  0  0  0  0999 V2000
  190.1890  177.6190  139.3830 C   0  0  0  0  0  3  0  0  0  0  0  0
  187.8650  178.1020  141.1430 C   0  0  0  0  0  2  0  0  0  0  0  0
  190.9380  177.5210  143.0730 C   0  0  2  0  0  0  0  0  0  0  0  0
  191.4790  177.3950  141.6290 C   0  0  0  0  0  2  0  0  0  0  0  0
  190.2710  177.6250  140.7950 C   0  0  0  0  0  0  0  0  0  0  0  0
  186.8660  178.2320  138.6350 N   0  0  0  0  0  0  0  0  0  0  0  0
  189.5410  177.8070  142.9510 O   0  0  0  0  0  0  0  0  0  0  0  0
  189.1700  177.8560  141.6260 C   0  0  0  0  0  0  0  0  0  0  0  0
  191.6350  178.6640  143.7870 C   0  0  0  0  0  1  0  0  0  0  0  0
  187.7950  178.0920  139.7560 C   0  0  2  0  0  0  0  0  0  0  0  0
  188.9050  177.8640  138.9140 C   0  0  0  0  0  0  0  0  0  0  0  0
  188.0030  178.0250  137.8020 C   0  0  2  0  0  0  0  0  0  0  0  0
  188.7610  174.0060  136.9290 C   0  0  0  0  0  2  0  0  0  0  0  0
  187.2720  175.7330  137.7240 O   0  0  0  0  0  0  0  0  0  0  0  0
  189.4490  174.9480  135.9570 C   0  0  1  0  0  3  0  0  0  0  0  0
  189.8240  177.3010  135.5610 O   0  0  0  0  0  1  0  0  0  0  0  0
  189.3210  176.3800  136.4840 C   0  0  1  0  0  3  0  0  0  0  0  0
  187.3260  174.4690  137.1010 C   0  0  0  0  0  2  0  0  0  0  0  0
  187.8740  176.7530  136.9250 C   0  0  2  0  0  0  0  0  0  0  0  0
  190.8530  174.5770  135.8250 N   0  0  0  0  0  0  0  0  0  0  0  0
  191.1540  174.4930  134.3840 C   0  0  0  0  0  2  0  0  0  0  0  0
  190.8960  173.2730  135.1360 C   0  0  0  0  0  2  0  0  0  0  0  0
  186.9660  177.1610  135.7310 C   0  0  0  0  0  2  0  0  0  0  0  0
  185.9600  175.1820  134.4220 C   0  0  0  0  0  3  0  0  0  0  0  0
  183.9370  174.1190  135.3500 C   0  0  0  0  0  2  0  0  0  0  0  0
  185.0640  174.1930  134.3550 C   0  0  0  0  0  3  0  0  0  0  0  0
  184.6590  176.3900  136.0940 C   0  0  0  0  0  3  0  0  0  0  0  0
  185.8060  176.2680  135.4130 C   0  0  0  0  0  0  0  0  0  0  0  0
  183.4760  175.5250  135.7500 C   0  0  0  0  0  2  0  0  0  0  0  0
  191.1490  176.2450  143.8320 C   0  0  0  0  0  0  0  0  0  0  0  0
  191.6430  176.2750  145.1310 O   0  0  0  0  0  1  0  0  0  0  0  0
  190.8340  175.1380  143.3170 O   0  0  0  0  0  0  0  0  0  0  0  0
  185.4510  178.5070  138.4680 C   0  0  0  0  0  2  0  0  0  0  0  0
  185.0820  179.5780  139.2790 O   0  0  0  0  0  1  0  0  0  0  0  0
  1  5  1  0  0  0  0
  2  8  1  0  0  0  0
  3  9  1  1  0  0  0
  3 30  1  0  0  0  0
  4  3  1  0  0  0  0
  5  8  2  0  0  0  0
  5  4  1  0  0  0  0
  6 10  1  0  0  0  0
  7  3  1  0  0  0  0
  8  7  1  0  0  0  0
 10  2  1  1  0  0  0
 11  1  2  0  0  0  0
 11 10  1  0  0  0  0
 12  6  1  0  0  0  0
 12 11  1  6  0  0  0
 12 10  1  0  0  0  0
 13 18  1  0  0  0  0
 15 20  1  1  0  0  0
 15 17  1  0  0  0  0
 15 13  1  0  0  0  0
 17 16  1  6  0  0  0
 17 19  1  0  0  0  0
 18 14  1  0  0  0  0
 19 23  1  6  0  0  0
 19 14  1  0  0  0  0
 19 12  1  0  0  0  0
 21 22  1  0  0  0  0
 21 20  1  0  0  0  0
 22 20  1  0  0  0  0
 24 28  1  0  0  0  0
 25 29  1  0  0  0  0
 26 24  2  0  0  0  0
 26 25  1  0  0  0  0
 28 23  1  0  0  0  0
 28 27  2  0  0  0  0
 29 27  1  0  0  0  0
 30 31  1  0  0  0  0
 32 30  2  0  0  0  0
 33  6  1  0  0  0  0
 33 34  1  0  0  0  0
M  END
>  <MODEL>
2

>  <REMARK>
 VINA RESULT:      -6.7      2.515      8.416
  Name = 
  6 active torsions:
  status: ('A' for Active; 'I' for Inactive)
    1  A    between atoms: C_1  and  C_20
    2  A    between atoms: C_1  and  C_34
    3  A    between atoms: N_3  and  C_23
    4  A    between atoms: C_7  and  C_11
    5  A    between atoms: C_8  and  N_18
    6  A    between atoms: C_33  and  C_34
                            x       y       z     vdW  Elec       q    Type
                         _______ _______ _______ _____ _____    ______ ____

>  <TORSDO>
F 6

$$$$
=
 OpenBabel10272415153D

 34 40  0  0  1  0  0  0  0  0999 V2000
  191.1020  177.3030  139.5220 C   0  0  0  0  0  3  0  0  0  0  0  0
  188.4540  177.7190  140.7670 C   0  0  0  0  0  2  0  0  0  0  0  0
  191.1430  177.6670  143.2710 C   0  0  2  0  0  0  0  0  0  0  0  0
  191.9570  177.4490  141.9730 C   0  0  0  0  0  2  0  0  0  0  0  0
  190.9140  177.4630  140.9160 C   0  0  0  0  0  0  0  0  0  0  0  0
  187.9410  177.4830  138.1240 N   0  0  0  0  0  0  0  0  0  0  0  0
  189.7750  177.7910  142.8680 O   0  0  0  0  0  0  0  0  0  0  0  0
  189.6600  177.6630  141.5020 C   0  0  0  0  0  0  0  0  0  0  0  0
  191.5940  178.9450  143.9540 C   0  0  0  0  0  1  0  0  0  0  0  0
  188.6490  177.5580  139.4020 C   0  0  2  0  0  0  0  0  0  0  0  0
  189.9140  177.3610  138.8050 C   0  0  0  0  0  0  0  0  0  0  0  0
  189.2290  177.3110  137.5390 C   0  0  2  0  0  0  0  0  0  0  0  0
  191.3360  173.8530  136.4900 C   0  0  0  0  0  2  0  0  0  0  0  0
  189.6350  174.9530  137.8060 O   0  0  0  0  0  0  0  0  0  0  0  0
  191.1180  174.7800  135.3060 C   0  0  1  0  0  3  0  0  0  0  0  0
  190.2210  176.9540  134.7560 O   0  0  0  0  0  1  0  0  0  0  0  0
  190.5630  176.1110  135.8170 C   0  0  1  0  0  3  0  0  0  0  0  0
  190.0200  173.7220  137.2350 C   0  0  0  0  0  2  0  0  0  0  0  0
  189.3750  175.9480  136.8140 C   0  0  2  0  0  0  0  0  0  0  0  0
  192.3820  174.9880  134.6090 N   0  0  0  0  0  0  0  0  0  0  0  0
  193.4060  174.1840  135.3010 C   0  0  0  0  0  2  0  0  0  0  0  0
  193.3120  175.6110  135.5690 C   0  0  0  0  0  2  0  0  0  0  0  0
  188.0160  175.7080  136.0990 C   0  0  0  0  0  2  0  0  0  0  0  0
  186.5270  173.9890  137.3090 C   0  0  0  0  0  3  0  0  0  0  0  0
  185.7080  172.0710  135.9900 C   0  0  0  0  0  2  0  0  0  0  0  0
  185.7490  172.9040  137.2440 C   0  0  0  0  0  3  0  0  0  0  0  0
  187.6340  173.4510  135.2030 C   0  0  0  0  0  3  0  0  0  0  0  0
  187.4260  174.3350  136.1870 C   0  0  0  0  0  0  0  0  0  0  0  0
  187.0800  172.0550  135.3060 C   0  0  0  0  0  2  0  0  0  0  0  0
  191.3130  176.5060  144.2050 C   0  0  0  0  0  0  0  0  0  0  0  0
  190.9830  176.6330  145.5490 O   0  0  0  0  0  1  0  0  0  0  0  0
  191.7090  175.3920  143.7690 O   0  0  0  0  0  0  0  0  0  0  0  0
  186.5650  177.5880  137.6740 C   0  0  0  0  0  2  0  0  0  0  0  0
  185.9330  178.6360  138.3420 O   0  0  0  0  0  1  0  0  0  0  0  0
  1  5  1  0  0  0  0
  2  8  1  0  0  0  0
  3  9  1  1  0  0  0
  3 30  1  0  0  0  0
  4  3  1  0  0  0  0
  5  8  2  0  0  0  0
  5  4  1  0  0  0  0
  6 10  1  0  0  0  0
  7  3  1  0  0  0  0
  8  7  1  0  0  0  0
 10  2  1  6  0  0  0
 11 10  1  0  0  0  0
 11  1  2  0  0  0  0
 12  6  1  0  0  0  0
 12 11  1  6  0  0  0
 12 10  1  0  0  0  0
 13 18  1  0  0  0  0
 15 20  1  1  0  0  0
 15 17  1  0  0  0  0
 15 13  1  0  0  0  0
 17 16  1  6  0  0  0
 17 19  1  0  0  0  0
 18 14  1  0  0  0  0
 19 23  1  6  0  0  0
 19 12  1  0  0  0  0
 19 14  1  0  0  0  0
 20 21  1  0  0  0  0
 20 22  1  0  0  0  0
 21 22  1  0  0  0  0
 23 28  1  0  0  0  0
 25 26  1  0  0  0  0
 26 24  2  0  0  0  0
 27 29  1  0  0  0  0
 27 28  2  0  0  0  0
 28 24  1  0  0  0  0
 29 25  1  0  0  0  0
 30 31  1  0  0  0  0
 32 30  2  0  0  0  0
 33  6  1  0  0  0  0
 33 34  1  0  0  0  0
M  END
>  <MODEL>
3

>  <REMARK>
 VINA RESULT:      -6.4      2.549      8.336
  Name = 
  6 active torsions:
  status: ('A' for Active; 'I' for Inactive)
    1  A    between atoms: C_1  and  C_20
    2  A    between atoms: C_1  and  C_34
    3  A    between atoms: N_3  and  C_23
    4  A    between atoms: C_7  and  C_11
    5  A    between atoms: C_8  and  N_18
    6  A    between atoms: C_33  and  C_34
                            x       y       z     vdW  Elec       q    Type
                         _______ _______ _______ _____ _____    ______ ____

>  <TORSDO>
F 6

$$$$
=
 OpenBabel10272415153D

 34 40  0  0  1  0  0  0  0  0999 V2000
  190.8540  176.5710  139.6760 C   0  0  0  0  0  3  0  0  0  0  0  0
  188.5430  178.4130  139.6540 C   0  0  0  0  0  2  0  0  0  0  0  0
  189.7170  177.7420  143.0720 C   0  0  2  0  0  0  0  0  0  0  0  0
  190.7130  176.8850  142.2530 C   0  0  0  0  0  2  0  0  0  0  0  0
  190.2850  177.1200  140.8500 C   0  0  0  0  0  0  0  0  0  0  0  0
  188.9760  177.8240  137.0530 N   0  0  0  0  0  0  0  0  0  0  0  0
  188.8550  178.3710  142.1180 O   0  0  0  0  0  0  0  0  0  0  0  0
  189.1930  177.9940  140.8370 C   0  0  0  0  0  0  0  0  0  0  0  0
  190.4720  178.8000  143.8560 C   0  0  0  0  0  1  0  0  0  0  0  0
  189.1070  177.8680  138.5090 C   0  0  2  0  0  0  0  0  0  0  0  0
  190.2120  176.9900  138.5170 C   0  0  0  0  0  0  0  0  0  0  0  0
  190.1080  176.9590  137.0810 C   0  0  2  0  0  0  0  0  0  0  0  0
  188.1420  174.3390  134.4810 C   0  0  0  0  0  2  0  0  0  0  0  0
  190.1270  175.5540  135.1270 O   0  0  0  0  0  0  0  0  0  0  0  0
  187.6900  174.1720  135.9210 C   0  0  1  0  0  3  0  0  0  0  0  0
  187.9930  175.1370  138.1140 O   0  0  0  0  0  1  0  0  0  0  0  0
  188.2710  175.3160  136.7560 C   0  0  1  0  0  3  0  0  0  0  0  0
  189.6580  174.3990  134.4660 C   0  0  0  0  0  2  0  0  0  0  0  0
  189.7930  175.5490  136.5160 C   0  0  2  0  0  0  0  0  0  0  0  0
  186.2330  174.1840  135.9810 N   0  0  0  0  0  0  0  0  0  0  0  0
  185.8300  173.3220  137.1080 C   0  0  0  0  0  2  0  0  0  0  0  0
  185.7750  172.8020  135.7490 C   0  0  0  0  0  2  0  0  0  0  0  0
  190.6890  174.5680  137.3220 C   0  0  0  0  0  2  0  0  0  0  0  0
  193.1330  175.3390  137.0530 C   0  0  0  0  0  3  0  0  0  0  0  0
  194.8220  173.6060  136.5740 C   0  0  0  0  0  2  0  0  0  0  0  0
  194.4220  175.0210  136.9000 C   0  0  0  0  0  3  0  0  0  0  0  0
  192.3880  173.1670  136.2300 C   0  0  0  0  0  3  0  0  0  0  0  0
  192.0780  174.3310  136.8150 C   0  0  0  0  0  0  0  0  0  0  0  0
  193.7710  172.9390  135.6800 C   0  0  0  0  0  2  0  0  0  0  0  0
  188.9250  176.8830  144.0110 C   0  0  0  0  0  0  0  0  0  0  0  0
  189.1840  176.9130  145.3760 O   0  0  0  0  0  1  0  0  0  0  0  0
  187.9850  176.1640  143.5760 O   0  0  0  0  0  0  0  0  0  0  0  0
  188.1150  178.4300  136.0530 C   0  0  0  0  0  2  0  0  0  0  0  0
  187.4810  179.5470  136.5960 O   0  0  0  0  0  1  0  0  0  0  0  0
  1  5  1  0  0  0  0
  2  8  1  0  0  0  0
  3  9  1  1  0  0  0
  3 30  1  0  0  0  0
  4  3  1  0  0  0  0
  5  4  1  0  0  0  0
  6 12  1  0  0  0  0
  6 10  1  0  0  0  0
  7  3  1  0  0  0  0
  8  5  2  0  0  0  0
  8  7  1  0  0  0  0
 10 11  1  0  0  0  0
 10  2  1  6  0  0  0
 11  1  2  0  0  0  0
 12 10  1  0  0  0  0
 12 11  1  6  0  0  0
 14 19  1  0  0  0  0
 15 13  1  6  0  0  0
 15 20  1  0  0  0  0
 15 17  1  0  0  0  0
 17 16  1  1  0  0  0
 18 13  1  0  0  0  0
 18 14  1  0  0  0  0
 19 17  1  0  0  0  0
 19 12  1  0  0  0  0
 19 23  1  1  0  0  0
 20 21  1  0  0  0  0
 22 20  1  0  0  0  0
 22 21  1  0  0  0  0
 25 26  1  0  0  0  0
 26 24  2  0  0  0  0
 27 28  2  0  0  0  0
 28 24  1  0  0  0  0
 28 23  1  0  0  0  0
 29 27  1  0  0  0  0
 29 25  1  0  0  0  0
 30 31  1  0  0  0  0
 32 30  2  0  0  0  0
 33 34  1  0  0  0  0
 33  6  1  0  0  0  0
M  END
>  <MODEL>
4

>  <REMARK>
 VINA RESULT:      -6.0      2.697      7.657
  Name = 
  6 active torsions:
  status: ('A' for Active; 'I' for Inactive)
    1  A    between atoms: C_1  and  C_20
    2  A    between atoms: C_1  and  C_34
    3  A    between atoms: N_3  and  C_23
    4  A    between atoms: C_7  and  C_11
    5  A    between atoms: C_8  and  N_18
    6  A    between atoms: C_33  and  C_34
                            x       y       z     vdW  Elec       q    Type
                         _______ _______ _______ _____ _____    ______ ____

>  <TORSDO>
F 6

$$$$
=
 OpenBabel10272415153D

 34 40  0  0  1  0  0  0  0  0999 V2000
  186.9110  178.8740  141.3830 C   0  0  0  0  0  3  0  0  0  0  0  0
  186.1330  177.8770  144.0550 C   0  0  0  0  0  2  0  0  0  0  0  0
  189.6930  177.2830  143.3630 C   0  0  2  0  0  0  0  0  0  0  0  0
  189.2590  177.9800  142.0510 C   0  0  0  0  0  2  0  0  0  0  0  0
  187.8150  178.2490  142.2750 C   0  0  0  0  0  0  0  0  0  0  0  0
  183.8550  178.8860  143.0080 N   0  0  0  0  0  0  0  0  0  0  0  0
  188.5250  177.2240  144.1880 O   0  0  0  0  0  0  0  0  0  0  0  0
  187.4450  177.7810  143.5390 C   0  0  0  0  0  0  0  0  0  0  0  0
  190.7670  178.1050  144.0520 C   0  0  0  0  0  1  0  0  0  0  0  0
  185.2530  178.4900  143.1720 C   0  0  2  0  0  0  0  0  0  0  0  0
  185.6240  178.9680  141.8970 C   0  0  0  0  0  0  0  0  0  0  0  0
  184.2550  179.3860  141.7350 C   0  0  2  0  0  0  0  0  0  0  0  0
  184.0070  176.5420  138.6780 C   0  0  0  0  0  2  0  0  0  0  0  0
  183.4160  177.2910  140.8970 O   0  0  0  0  0  0  0  0  0  0  0  0
  184.0830  177.9610  138.1430 C   0  0  1  0  0  3  0  0  0  0  0  0
  184.3630  180.2420  138.8860 O   0  0  0  0  0  1  0  0  0  0  0  0
  184.4120  178.9080  139.3000 C   0  0  1  0  0  3  0  0  0  0  0  0
  182.9860  176.5140  139.8010 C   0  0  0  0  0  2  0  0  0  0  0  0
  183.5280  178.6750  140.5630 C   0  0  2  0  0  0  0  0  0  0  0  0
  185.1100  178.0410  137.1110 N   0  0  0  0  0  0  0  0  0  0  0  0
  185.8370  176.7580  137.1120 C   0  0  0  0  0  2  0  0  0  0  0  0
  186.4150  177.9120  137.7850 C   0  0  0  0  0  2  0  0  0  0  0  0
  182.1360  179.3590  140.4600 C   0  0  0  0  0  2  0  0  0  0  0  0
  181.5100  180.3430  138.1620 C   0  0  0  0  0  3  0  0  0  0  0  0
  180.7260  178.7700  136.4310 C   0  0  0  0  0  2  0  0  0  0  0  0
  181.1490  180.1390  136.8920 C   0  0  0  0  0  3  0  0  0  0  0  0
  180.7550  178.1250  138.8430 C   0  0  0  0  0  3  0  0  0  0  0  0
  181.4120  179.2500  139.1540 C   0  0  0  0  0  0  0  0  0  0  0  0
  179.9890  178.0260  137.5510 C   0  0  0  0  0  2  0  0  0  0  0  0
  190.2110  175.9030  143.0840 C   0  0  0  0  0  0  0  0  0  0  0  0
  191.4830  175.5340  143.5050 O   0  0  0  0  0  1  0  0  0  0  0  0
  189.4790  175.0530  142.5110 O   0  0  0  0  0  0  0  0  0  0  0  0
  182.6440  178.8340  143.8070 C   0  0  0  0  0  2  0  0  0  0  0  0
  182.9630  179.0050  145.1530 O   0  0  0  0  0  1  0  0  0  0  0  0
  1 11  2  0  0  0  0
  1  5  1  0  0  0  0
  3  9  1  1  0  0  0
  3  7  1  0  0  0  0
  4  5  1  0  0  0  0
  4  3  1  0  0  0  0
  5  8  2  0  0  0  0
  6 10  1  0  0  0  0
  6 33  1  0  0  0  0
  8  2  1  0  0  0  0
  8  7  1  0  0  0  0
 10  2  1  1  0  0  0
 11 10  1  0  0  0  0
 12 11  1  6  0  0  0
 12  6  1  0  0  0  0
 12 10  1  0  0  0  0
 13 18  1  0  0  0  0
 15 20  1  6  0  0  0
 15 13  1  0  0  0  0
 15 17  1  0  0  0  0
 17 16  1  6  0  0  0
 17 19  1  0  0  0  0
 18 14  1  0  0  0  0
 19 23  1  6  0  0  0
 19 14  1  0  0  0  0
 19 12  1  0  0  0  0
 20 21  1  0  0  0  0
 20 22  1  0  0  0  0
 21 22  1  0  0  0  0
 24 28  1  0  0  0  0
 25 26  1  0  0  0  0
 25 29  1  0  0  0  0
 26 24  2  0  0  0  0
 27 28  2  0  0  0  0
 28 23  1  0  0  0  0
 29 27  1  0  0  0  0
 30  3  1  0  0  0  0
 30 31  1  0  0  0  0
 32 30  2  0  0  0  0
 33 34  1  0  0  0  0
M  END
>  <MODEL>
5

>  <REMARK>
 VINA RESULT:      -5.8      4.087      8.526
  Name = 
  6 active torsions:
  status: ('A' for Active; 'I' for Inactive)
    1  A    between atoms: C_1  and  C_20
    2  A    between atoms: C_1  and  C_34
    3  A    between atoms: N_3  and  C_23
    4  A    between atoms: C_7  and  C_11
    5  A    between atoms: C_8  and  N_18
    6  A    between atoms: C_33  and  C_34
                            x       y       z     vdW  Elec       q    Type
                         _______ _______ _______ _____ _____    ______ ____

>  <TORSDO>
F 6

$$$$
=
 OpenBabel10272415153D

 34 40  0  0  1  0  0  0  0  0999 V2000
  192.6910  177.1780  139.7050 C   0  0  0  0  0  3  0  0  0  0  0  0
  189.7820  176.6620  139.6480 C   0  0  0  0  0  2  0  0  0  0  0  0
  190.9430  177.5430  143.0220 C   0  0  2  0  0  0  0  0  0  0  0  0
  192.2730  177.6150  142.2330 C   0  0  0  0  0  2  0  0  0  0  0  0
  191.8630  177.2680  140.8490 C   0  0  0  0  0  0  0  0  0  0  0  0
  190.6010  176.2570  137.1050 N   0  0  0  0  0  0  0  0  0  0  0  0
  189.9350  177.1890  142.0700 O   0  0  0  0  0  0  0  0  0  0  0  0
  190.4860  177.0250  140.8190 C   0  0  0  0  0  0  0  0  0  0  0  0
  190.6270  178.9000  143.6230 C   0  0  0  0  0  1  0  0  0  0  0  0
  190.6040  176.5750  138.5330 C   0  0  2  0  0  0  0  0  0  0  0  0
  191.9940  176.8230  138.5580 C   0  0  0  0  0  0  0  0  0  0  0  0
  191.9970  176.5370  137.1460 C   0  0  2  0  0  0  0  0  0  0  0  0
  194.8010  173.5510  137.9920 C   0  0  0  0  0  2  0  0  0  0  0  0
  192.5110  174.2410  137.6550 O   0  0  0  0  0  0  0  0  0  0  0  0
  195.3290  174.5770  137.0050 C   0  0  1  0  0  3  0  0  0  0  0  0
  194.7190  176.6610  135.9480 O   0  0  0  0  0  1  0  0  0  0  0  0
  194.3460  175.7490  136.9390 C   0  0  1  0  0  3  0  0  0  0  0  0
  193.4020  173.1530  137.5550 C   0  0  0  0  0  2  0  0  0  0  0  0
  192.8620  175.3060  136.7690 C   0  0  2  0  0  0  0  0  0  0  0  0
  196.6440  175.0380  137.4370 N   0  0  0  0  0  0  0  0  0  0  0  0
  197.5020  175.1070  136.2390 C   0  0  0  0  0  2  0  0  0  0  0  0
  197.6040  173.9620  137.1320 C   0  0  0  0  0  2  0  0  0  0  0  0
  192.4950  174.9750  135.2950 C   0  0  0  0  0  2  0  0  0  0  0  0
  193.6430  172.8500  134.3970 C   0  0  0  0  0  3  0  0  0  0  0  0
  192.5790  170.6840  134.9080 C   0  0  0  0  0  2  0  0  0  0  0  0
  193.7040  171.5160  134.3510 C   0  0  0  0  0  3  0  0  0  0  0  0
  191.3140  172.8260  135.1200 C   0  0  0  0  0  3  0  0  0  0  0  0
  192.4350  173.5290  134.9100 C   0  0  0  0  0  0  0  0  0  0  0  0
  191.2320  171.3840  134.6960 C   0  0  0  0  0  2  0  0  0  0  0  0
  191.0270  176.5140  144.1090 C   0  0  0  0  0  0  0  0  0  0  0  0
  191.9750  175.4990  144.0430 O   0  0  0  0  0  0  0  0  0  0  0  0
  190.2710  176.5880  145.1150 O   0  0  0  0  0  1  0  0  0  0  0  0
  189.6120  175.8820  136.1110 C   0  0  0  0  0  2  0  0  0  0  0  0
  189.4510  176.9210  135.1950 O   0  0  0  0  0  1  0  0  0  0  0  0
  1  5  1  0  0  0  0
  2  8  1  0  0  0  0
  3  9  1  1  0  0  0
  3 30  1  0  0  0  0
  4  3  1  0  0  0  0
  5  4  1  0  0  0  0
  6 12  1  0  0  0  0
  6 10  1  0  0  0  0
  7  3  1  0  0  0  0
  8  5  2  0  0  0  0
  8  7  1  0  0  0  0
 10 11  1  0  0  0  0
 10  2  1  6  0  0  0
 11  1  2  0  0  0  0
 12 10  1  0  0  0  0
 12 11  1  6  0  0  0
 15 20  1  1  0  0  0
 15 13  1  0  0  0  0
 17 16  1  6  0  0  0
 17 15  1  0  0  0  0
 18 14  1  0  0  0  0
 18 13  1  0  0  0  0
 19 23  1  6  0  0  0
 19 17  1  0  0  0  0
 19 12  1  0  0  0  0
 19 14  1  0  0  0  0
 21 22  1  0  0  0  0
 21 20  1  0  0  0  0
 22 20  1  0  0  0  0
 24 28  1  0  0  0  0
 26 24  2  0  0  0  0
 26 25  1  0  0  0  0
 28 27  2  0  0  0  0
 28 23  1  0  0  0  0
 29 25  1  0  0  0  0
 29 27  1  0  0  0  0
 30 32  1  0  0  0  0
 31 30  2  0  0  0  0
 33  6  1  0  0  0  0
 34 33  1  0  0  0  0
M  END
>  <MODEL>
6

>  <REMARK>
 VINA RESULT:      -5.8      3.716      9.085
  Name = 
  6 active torsions:
  status: ('A' for Active; 'I' for Inactive)
    1  A    between atoms: C_1  and  C_20
    2  A    between atoms: C_1  and  C_34
    3  A    between atoms: N_3  and  C_23
    4  A    between atoms: C_7  and  C_11
    5  A    between atoms: C_8  and  N_18
    6  A    between atoms: C_33  and  C_34
                            x       y       z     vdW  Elec       q    Type
                         _______ _______ _______ _____ _____    ______ ____

>  <TORSDO>
F 6

$$$$
=
 OpenBabel10272415153D

 34 40  0  0  1  0  0  0  0  0999 V2000
  192.7320  176.5020  138.1840 C   0  0  0  0  0  3  0  0  0  0  0  0
  190.2260  175.1790  137.3470 C   0  0  0  0  0  2  0  0  0  0  0  0
  189.7290  177.2800  140.3210 C   0  0  2  0  0  0  0  0  0  0  0  0
  191.2380  177.5030  140.0620 C   0  0  0  0  0  2  0  0  0  0  0  0
  191.4990  176.6720  138.8580 C   0  0  0  0  0  0  0  0  0  0  0  0
  192.0800  174.3190  135.5790 N   0  0  0  0  0  0  0  0  0  0  0  0
  189.2740  176.3950  139.2920 O   0  0  0  0  0  0  0  0  0  0  0  0
  190.3140  176.0470  138.4590 C   0  0  0  0  0  0  0  0  0  0  0  0
  188.9880  178.6010  140.2240 C   0  0  0  0  0  1  0  0  0  0  0  0
  191.4400  175.0170  136.6940 C   0  0  2  0  0  0  0  0  0  0  0  0
  192.6380  175.6500  137.0910 C   0  0  0  0  0  0  0  0  0  0  0  0
  193.2720  174.9870  135.9810 C   0  0  2  0  0  0  0  0  0  0  0  0
  196.3330  173.6990  138.5240 C   0  0  0  0  0  2  0  0  0  0  0  0
  194.0650  173.5150  137.7120 O   0  0  0  0  0  0  0  0  0  0  0  0
  196.8550  174.1460  137.1710 C   0  0  1  0  0  3  0  0  0  0  0  0
  196.1110  175.1340  135.0960 O   0  0  0  0  0  1  0  0  0  0  0  0
  195.7170  174.8210  136.4000 C   0  0  1  0  0  3  0  0  0  0  0  0
  195.1330  172.7990  138.2930 C   0  0  0  0  0  2  0  0  0  0  0  0
  194.3910  174.0020  136.4090 C   0  0  2  0  0  0  0  0  0  0  0  0
  197.9650  175.0750  137.3570 N   0  0  0  0  0  0  0  0  0  0  0  0
  199.0440  174.6620  136.4410 C   0  0  0  0  0  2  0  0  0  0  0  0
  199.1130  174.2890  137.8460 C   0  0  0  0  0  2  0  0  0  0  0  0
  194.3750  172.8670  135.3480 C   0  0  0  0  0  2  0  0  0  0  0  0
  193.4820  170.6130  136.2210 C   0  0  0  0  0  3  0  0  0  0  0  0
  194.9570  168.6470  136.0010 C   0  0  0  0  0  2  0  0  0  0  0  0
  193.6400  169.2910  136.3450 C   0  0  0  0  0  3  0  0  0  0  0  0
  195.8620  170.9670  135.8210 C   0  0  0  0  0  3  0  0  0  0  0  0
  194.6210  171.4710  135.8310 C   0  0  0  0  0  0  0  0  0  0  0  0
  196.1230  169.5800  136.3460 C   0  0  0  0  0  2  0  0  0  0  0  0
  189.5070  176.6720  141.6740 C   0  0  0  0  0  0  0  0  0  0  0  0
  190.4390  175.7910  142.2080 O   0  0  0  0  0  0  0  0  0  0  0  0
  188.4980  176.9930  142.3580 O   0  0  0  0  0  1  0  0  0  0  0  0
  191.6640  173.4080  134.5280 C   0  0  0  0  0  2  0  0  0  0  0  0
  190.7240  172.5110  135.0300 O   0  0  0  0  0  1  0  0  0  0  0  0
  1  5  1  0  0  0  0
  2  8  1  0  0  0  0
  3  9  1  6  0  0  0
  3 30  1  0  0  0  0
  4  3  1  0  0  0  0
  5  4  1  0  0  0  0
  6 12  1  0  0  0  0
  6 10  1  0  0  0  0
  7  3  1  0  0  0  0
  8  5  2  0  0  0  0
  8  7  1  0  0  0  0
 10 11  1  0  0  0  0
 10  2  1  6  0  0  0
 11  1  2  0  0  0  0
 12 19  1  0  0  0  0
 12 10  1  0  0  0  0
 12 11  1  6  0  0  0
 14 18  1  0  0  0  0
 15 20  1  1  0  0  0
 15 13  1  0  0  0  0
 17 16  1  6  0  0  0
 17 19  1  0  0  0  0
 17 15  1  0  0  0  0
 18 13  1  0  0  0  0
 19 23  1  6  0  0  0
 19 14  1  0  0  0  0
 20 22  1  0  0  0  0
 21 20  1  0  0  0  0
 21 22  1  0  0  0  0
 23 28  1  0  0  0  0
 24 26  2  0  0  0  0
 25 26  1  0  0  0  0
 25 29  1  0  0  0  0
 27 28  2  0  0  0  0
 27 29  1  0  0  0  0
 28 24  1  0  0  0  0
 30 31  2  0  0  0  0
 30 32  1  0  0  0  0
 33 34  1  0  0  0  0
 33  6  1  0  0  0  0
M  END
>  <MODEL>
7

>  <REMARK>
 VINA RESULT:      -5.7      4.913      9.299
  Name = 
  6 active torsions:
  status: ('A' for Active; 'I' for Inactive)
    1  A    between atoms: C_1  and  C_20
    2  A    between atoms: C_1  and  C_34
    3  A    between atoms: N_3  and  C_23
    4  A    between atoms: C_7  and  C_11
    5  A    between atoms: C_8  and  N_18
    6  A    between atoms: C_33  and  C_34
                            x       y       z     vdW  Elec       q    Type
                         _______ _______ _______ _____ _____    ______ ____

>  <TORSDO>
F 6

$$$$
=
 OpenBabel10272415153D

 34 40  0  0  1  0  0  0  0  0999 V2000
  186.1890  178.3360  139.0670 C   0  0  0  0  0  3  0  0  0  0  0  0
  188.0780  176.4740  137.7640 C   0  0  0  0  0  2  0  0  0  0  0  0
  184.7850  176.4360  136.1330 C   0  0  2  0  0  0  0  0  0  0  0  0
  184.5380  177.4770  137.2510 C   0  0  0  0  0  2  0  0  0  0  0  0
  185.8480  177.5370  137.9500 C   0  0  0  0  0  0  0  0  0  0  0  0
  189.4850  177.5690  139.7950 N   0  0  0  0  0  0  0  0  0  0  0  0
  186.1460  176.0170  136.2720 O   0  0  0  0  0  0  0  0  0  0  0  0
  186.7450  176.6590  137.3330 C   0  0  0  0  0  0  0  0  0  0  0  0
  184.5820  177.0810  134.7750 C   0  0  0  0  0  1  0  0  0  0  0  0
  188.4020  177.2600  138.8610 C   0  0  2  0  0  0  0  0  0  0  0  0
  187.5010  178.1520  139.4840 C   0  0  0  0  0  0  0  0  0  0  0  0
  188.5680  178.4820  140.3930 C   0  0  2  0  0  0  0  0  0  0  0  0
  186.3060  176.6180  143.3760 C   0  0  0  0  0  2  0  0  0  0  0  0
  188.2810  176.7020  141.9880 O   0  0  0  0  0  0  0  0  0  0  0  0
  186.1870  178.1310  143.4210 C   0  0  1  0  0  3  0  0  0  0  0  0
  186.8740  180.1110  142.2200 O   0  0  0  0  0  1  0  0  0  0  0  0
  186.8400  178.7150  142.1650 C   0  0  1  0  0  3  0  0  0  0  0  0
  187.7740  176.2640  143.2290 C   0  0  0  0  0  2  0  0  0  0  0  0
  188.2530  178.1260  141.8690 C   0  0  2  0  0  0  0  0  0  0  0  0
  184.7800  178.5100  143.4860 N   0  0  0  0  0  0  0  0  0  0  0  0
  184.7110  179.8500  144.0980 C   0  0  0  0  0  2  0  0  0  0  0  0
  184.4390  178.6730  144.9120 C   0  0  0  0  0  2  0  0  0  0  0  0
  189.3750  178.7980  142.7090 C   0  0  0  0  0  2  0  0  0  0  0  0
  191.0630  177.0790  143.6230 C   0  0  0  0  0  3  0  0  0  0  0  0
  191.5190  177.1170  146.0470 C   0  0  0  0  0  2  0  0  0  0  0  0
  191.7830  176.6190  144.6510 C   0  0  0  0  0  3  0  0  0  0  0  0
  189.4940  178.2260  145.0970 C   0  0  0  0  0  3  0  0  0  0  0  0
  189.9400  178.0130  143.8520 C   0  0  0  0  0  0  0  0  0  0  0  0
  190.0280  177.4110  146.2450 C   0  0  0  0  0  2  0  0  0  0  0  0
  183.8570  175.2670  136.2830 C   0  0  0  0  0  0  0  0  0  0  0  0
  182.8330  175.0620  135.3650 O   0  0  0  0  0  0  0  0  0  0  0  0
  184.0280  174.4340  137.2130 O   0  0  0  0  0  1  0  0  0  0  0  0
  190.8660  177.1620  139.9790 C   0  0  0  0  0  2  0  0  0  0  0  0
  191.0100  175.8220  139.6240 O   0  0  0  0  0  1  0  0  0  0  0  0
  1 11  2  0  0  0  0
  3  9  1  6  0  0  0
  3  7  1  0  0  0  0
  3 30  1  0  0  0  0
  3  4  1  0  0  0  0
  4  5  1  0  0  0  0
  5  1  1  0  0  0  0
  6 33  1  0  0  0  0
  6 12  1  0  0  0  0
  7  8  1  0  0  0  0
  8  2  1  0  0  0  0
  8  5  2  0  0  0  0
 10  2  1  6  0  0  0
 10 11  1  0  0  0  0
 10  6  1  0  0  0  0
 10 12  1  0  0  0  0
 12 11  1  6  0  0  0
 12 19  1  0  0  0  0
 14 18  1  0  0  0  0
 15 13  1  6  0  0  0
 15 20  1  0  0  0  0
 17 16  1  1  0  0  0
 17 15  1  0  0  0  0
 18 13  1  0  0  0  0
 19 14  1  0  0  0  0
 19 17  1  0  0  0  0
 19 23  1  1  0  0  0
 20 21  1  0  0  0  0
 20 22  1  0  0  0  0
 21 22  1  0  0  0  0
 23 28  1  0  0  0  0
 24 28  1  0  0  0  0
 24 26  2  0  0  0  0
 25 29  1  0  0  0  0
 26 25  1  0  0  0  0
 27 29  1  0  0  0  0
 28 27  2  0  0  0  0
 30 32  1  0  0  0  0
 31 30  2  0  0  0  0
 34 33  1  0  0  0  0
M  END
>  <MODEL>
8

>  <REMARK>
 VINA RESULT:      -5.6      1.981      2.509
  Name = 
  6 active torsions:
  status: ('A' for Active; 'I' for Inactive)
    1  A    between atoms: C_1  and  C_20
    2  A    between atoms: C_1  and  C_34
    3  A    between atoms: N_3  and  C_23
    4  A    between atoms: C_7  and  C_11
    5  A    between atoms: C_8  and  N_18
    6  A    between atoms: C_33  and  C_34
                            x       y       z     vdW  Elec       q    Type
                         _______ _______ _______ _____ _____    ______ ____

>  <TORSDO>
F 6

$$$$
=
 OpenBabel10272415153D

 34 40  0  0  1  0  0  0  0  0999 V2000
  186.0860  178.4790  140.3320 C   0  0  0  0  0  3  0  0  0  0  0  0
  185.0900  178.2860  143.1070 C   0  0  0  0  0  2  0  0  0  0  0  0
  188.7320  177.8240  142.9320 C   0  0  2  0  0  0  0  0  0  0  0  0
  188.3990  178.0440  141.4370 C   0  0  0  0  0  2  0  0  0  0  0  0
  186.9260  178.2400  141.4450 C   0  0  0  0  0  0  0  0  0  0  0  0
  182.8800  178.7200  141.6140 N   0  0  0  0  0  0  0  0  0  0  0  0
  187.4890  177.9180  143.6350 O   0  0  0  0  0  0  0  0  0  0  0  0
  186.4530  178.1520  142.7580 C   0  0  0  0  0  0  0  0  0  0  0  0
  189.6770  178.9090  143.4140 C   0  0  0  0  0  1  0  0  0  0  0  0
  184.2740  178.5180  142.0080 C   0  0  2  0  0  0  0  0  0  0  0  0
  184.7480  178.6120  140.6820 C   0  0  0  0  0  0  0  0  0  0  0  0
  183.3820  178.8380  140.2850 C   0  0  2  0  0  0  0  0  0  0  0  0
  183.4400  175.0330  138.5490 C   0  0  0  0  0  2  0  0  0  0  0  0
  182.5130  176.5980  140.1380 O   0  0  0  0  0  0  0  0  0  0  0  0
  183.7590  176.1300  137.5490 C   0  0  1  0  0  3  0  0  0  0  0  0
  184.1210  178.5150  137.4200 O   0  0  0  0  0  1  0  0  0  0  0  0
  183.9540  177.4460  138.3060 C   0  0  1  0  0  3  0  0  0  0  0  0
  182.2250  175.4640  139.3500 C   0  0  0  0  0  2  0  0  0  0  0  0
  182.8260  177.7410  139.3400 C   0  0  2  0  0  0  0  0  0  0  0  0
  184.9690  175.7830  136.8110 N   0  0  0  0  0  0  0  0  0  0  0  0
  184.9280  176.5110  135.5290 C   0  0  0  0  0  2  0  0  0  0  0  0
  184.5430  175.1080  135.5710 C   0  0  0  0  0  2  0  0  0  0  0  0
  181.5560  178.3560  138.6900 C   0  0  0  0  0  2  0  0  0  0  0  0
  182.2260  180.8160  138.3130 C   0  0  0  0  0  3  0  0  0  0  0  0
  180.4810  182.5290  138.6370 C   0  0  0  0  0  2  0  0  0  0  0  0
  181.8620  182.0990  138.2220 C   0  0  0  0  0  3  0  0  0  0  0  0
  180.2140  180.2240  139.5590 C   0  0  0  0  0  3  0  0  0  0  0  0
  181.3110  179.8180  138.9080 C   0  0  0  0  0  0  0  0  0  0  0  0
  179.9850  181.6890  139.8190 C   0  0  0  0  0  2  0  0  0  0  0  0
  189.3550  176.4770  143.1440 C   0  0  0  0  0  0  0  0  0  0  0  0
  188.5830  175.3250  143.0520 O   0  0  0  0  0  0  0  0  0  0  0  0
  190.5930  176.3760  143.3590 O   0  0  0  0  0  1  0  0  0  0  0  0
  181.5970  178.8080  142.2860 C   0  0  0  0  0  2  0  0  0  0  0  0
  181.7920  178.8470  143.6660 O   0  0  0  0  0  1  0  0  0  0  0  0
  1 11  2  0  0  0  0
  1  5  1  0  0  0  0
  3 30  1  0  0  0  0
  3  9  1  1  0  0  0
  3  7  1  0  0  0  0
  4  5  1  0  0  0  0
  4  3  1  0  0  0  0
  5  8  2  0  0  0  0
  6 10  1  0  0  0  0
  6 33  1  0  0  0  0
  8  2  1  0  0  0  0
  8  7  1  0  0  0  0
 10  2  1  1  0  0  0
 11 10  1  0  0  0  0
 12 11  1  6  0  0  0
 12  6  1  0  0  0  0
 12 10  1  0  0  0  0
 13 18  1  0  0  0  0
 15 20  1  1  0  0  0
 15 17  1  0  0  0  0
 15 13  1  0  0  0  0
 17 16  1  6  0  0  0
 17 19  1  0  0  0  0
 18 14  1  0  0  0  0
 19 23  1  6  0  0  0
 19 14  1  0  0  0  0
 19 12  1  0  0  0  0
 21 22  1  0  0  0  0
 21 20  1  0  0  0  0
 22 20  1  0  0  0  0
 23 28  1  0  0  0  0
 24 28  1  0  0  0  0
 25 29  1  0  0  0  0
 26 24  2  0  0  0  0
 26 25  1  0  0  0  0
 27 29  1  0  0  0  0
 28 27  2  0  0  0  0
 30 32  1  0  0  0  0
 31 30  2  0  0  0  0
 33 34  1  0  0  0  0
M  END
>  <MODEL>
9

>  <REMARK>
 VINA RESULT:      -5.6      4.466      8.797
  Name = 
  6 active torsions:
  status: ('A' for Active; 'I' for Inactive)
    1  A    between atoms: C_1  and  C_20
    2  A    between atoms: C_1  and  C_34
    3  A    between atoms: N_3  and  C_23
    4  A    between atoms: C_7  and  C_11
    5  A    between atoms: C_8  and  N_18
    6  A    between atoms: C_33  and  C_34
                            x       y       z     vdW  Elec       q    Type
                         _______ _______ _______ _____ _____    ______ ____

>  <TORSDO>
F 6

$$$$
