=
 OpenBabel10262423473D

 34 37  0  0  1  0  0  0  0  0999 V2000
  182.8070  177.0590  136.2810 C   0  0  1  0  0  3  0  0  0  0  0  0
  184.6260  175.2860  136.8390 C   0  0  2  0  0  3  0  0  0  0  0  0
  188.7430  174.9670  135.3310 C   0  0  0  0  0  2  0  0  0  0  0  0
  185.0700  177.7750  137.1360 C   0  0  1  0  0  3  0  0  0  0  0  0
  186.9000  177.1590  134.9900 O   0  0  0  0  0  1  0  0  0  0  0  0
  180.7370  177.4550  137.6310 C   0  0  0  0  0  1  0  0  0  0  0  0
  184.0620  174.2370  135.8890 C   0  0  0  0  0  1  0  0  0  0  0  0
  186.7340  176.0680  137.7760 O   0  0  0  0  0  0  0  0  0  0  0  0
  190.1430  173.6010  136.6140 C   0  0  0  0  0  1  0  0  0  0  0  0
  188.8710  174.3010  136.6200 N   0  0  0  0  0  0  0  0  0  0  0  0
  184.3050  176.7070  136.3220 C   0  0  2  0  0  3  0  0  0  0  0  0
  189.4320  176.3310  135.3110 C   0  0  0  0  0  2  0  0  0  0  0  0
  187.4050  177.7230  136.1180 N   0  0  0  0  0  0  0  0  0  0  0  0
  182.0910  176.1770  135.4670 O   0  0  0  0  0  1  0  0  0  0  0  0
  186.5790  173.7410  137.3690 C   0  0  0  0  0  2  0  0  0  0  0  0
  184.4350  177.9740  138.5360 C   0  0  2  0  0  3  0  0  0  0  0  0
  182.2180  177.1220  137.6870 C   0  0  2  0  0  3  0  0  0  0  0  0
  186.1500  175.1290  136.9070 C   0  0  1  0  0  3  0  0  0  0  0  0
  188.8510  177.3940  136.2740 C   0  0  1  0  0  3  0  0  0  0  0  0
  186.5490  177.3740  137.2750 C   0  0  1  0  0  3  0  0  0  0  0  0
  182.9300  178.2210  138.4620 C   0  0  0  0  0  2  0  0  0  0  0  0
  187.8380  173.2730  136.6420 C   0  0  0  0  0  2  0  0  0  0  0  0
  189.3850  177.3200  137.7200 C   0  0  0  0  0  3  0  0  0  0  0  0
  189.2080  178.6460  138.4340 C   0  0  0  0  0  1  0  0  0  0  0  0
  190.8600  176.9490  137.7680 C   0  0  0  0  0  1  0  0  0  0  0  0
  184.3790  180.2910  139.1980 O   0  0  0  0  0  1  0  0  0  0  0  0
  185.0790  179.0950  139.3640 C   0  0  1  0  0  3  0  0  0  0  0  0
  184.3820  178.5880  143.0680 C   0  0  0  0  0  0  0  0  0  0  0  0
  185.6360  178.1980  143.5450 C   0  0  0  0  0  3  0  0  0  0  0  0
  185.2810  178.7550  140.8180 C   0  0  0  0  0  0  0  0  0  0  0  0
  186.7140  178.0760  142.6630 C   0  0  0  0  0  3  0  0  0  0  0  0
  184.2040  178.8600  141.7080 C   0  0  0  0  0  3  0  0  0  0  0  0
  186.5390  178.3610  141.3050 C   0  0  0  0  0  3  0  0  0  0  0  0
  183.2350  178.7130  144.0050 C   0  0  0  0  0  1  0  0  0  0  0  0
  1 14  1  6  0  0  0
  1 11  1  0  0  0  0
  1 17  1  0  0  0  0
  2  7  1  6  0  0  0
  2 18  1  0  0  0  0
  3 10  1  0  0  0  0
  4 20  1  0  0  0  0
  4 16  1  0  0  0  0
  5 13  1  0  0  0  0
  6 17  1  0  0  0  0
  9 10  1  0  0  0  0
 10 22  1  0  0  0  0
 11  2  1  0  0  0  0
 11  4  1  0  0  0  0
 12  3  1  0  0  0  0
 12 19  1  0  0  0  0
 13 19  1  0  0  0  0
 13 20  1  0  0  0  0
 16 27  1  0  0  0  0
 17 21  1  0  0  0  0
 18 15  1  0  0  0  0
 18  8  1  0  0  0  0
 19 23  1  0  0  0  0
 20  8  1  0  0  0  0
 21 16  1  0  0  0  0
 22 15  1  0  0  0  0
 23 25  1  0  0  0  0
 23 24  1  0  0  0  0
 26 27  1  0  0  0  0
 27 30  1  0  0  0  0
 28 29  1  0  0  0  0
 28 34  1  0  0  0  0
 30 33  2  0  0  0  0
 30 32  1  0  0  0  0
 31 29  2  0  0  0  0
 32 28  2  0  0  0  0
 33 31  1  0  0  0  0
M  END
>  <MODEL>
1

>  <REMARK>
 VINA RESULT:      -7.5      0.000      0.000
  Name = 
  3 active torsions:
  status: ('A' for Active; 'I' for Inactive)
    1  A    between atoms: C_12  and  C_28
    2  A    between atoms: C_13  and  C_29
    3  A    between atoms: C_21  and  C_28
                            x       y       z     vdW  Elec       q    Type
                         _______ _______ _______ _____ _____    ______ ____

>  <TORSDO>
F 3

$$$$
=
 OpenBabel10262423473D

 34 37  0  0  1  0  0  0  0  0999 V2000
  186.0680  177.5120  136.4270 C   0  0  1  0  0  3  0  0  0  0  0  0
  187.1500  175.1470  136.4340 C   0  0  2  0  0  3  0  0  0  0  0  0
  190.7540  173.7390  134.3460 C   0  0  0  0  0  2  0  0  0  0  0  0
  188.4900  177.2170  137.0690 C   0  0  1  0  0  3  0  0  0  0  0  0
  189.8180  176.4530  134.6220 O   0  0  0  0  0  1  0  0  0  0  0  0
  184.3840  178.3170  138.0940 C   0  0  0  0  0  1  0  0  0  0  0  0
  186.1790  174.5700  135.4130 C   0  0  0  0  0  1  0  0  0  0  0  0
  189.4580  174.9490  137.1890 O   0  0  0  0  0  0  0  0  0  0  0  0
  191.6450  171.7460  135.1860 C   0  0  0  0  0  1  0  0  0  0  0  0
  190.7200  172.8250  135.4800 N   0  0  0  0  0  0  0  0  0  0  0  0
  187.3350  176.6650  136.2050 C   0  0  2  0  0  3  0  0  0  0  0  0
  191.8900  174.7560  134.4550 C   0  0  0  0  0  2  0  0  0  0  0  0
  190.5700  176.5690  135.7470 N   0  0  0  0  0  0  0  0  0  0  0  0
  185.0260  177.1140  135.5860 O   0  0  0  0  0  1  0  0  0  0  0  0
  188.4390  172.9510  136.4340 C   0  0  0  0  0  2  0  0  0  0  0  0
  188.0700  177.3360  138.5570 C   0  0  2  0  0  3  0  0  0  0  0  0
  185.6420  177.4900  137.8910 C   0  0  2  0  0  3  0  0  0  0  0  0
  188.5140  174.4640  136.2670 C   0  0  1  0  0  3  0  0  0  0  0  0
  191.8030  175.7370  135.6480 C   0  0  1  0  0  3  0  0  0  0  0  0
  189.7280  176.3110  136.9380 C   0  0  1  0  0  3  0  0  0  0  0  0
  186.7570  178.0970  138.7310 C   0  0  0  0  0  2  0  0  0  0  0  0
  189.3870  172.2350  135.4750 C   0  0  0  0  0  2  0  0  0  0  0  0
  192.3730  175.1950  136.9760 C   0  0  0  0  0  3  0  0  0  0  0  0
  192.7330  176.3280  137.9180 C   0  0  0  0  0  1  0  0  0  0  0  0
  193.6150  174.3440  136.7620 C   0  0  0  0  0  1  0  0  0  0  0  0
  188.9850  179.3630  139.4870 O   0  0  0  0  0  1  0  0  0  0  0  0
  189.1340  177.9760  139.4610 C   0  0  1  0  0  3  0  0  0  0  0  0
  188.2190  177.1040  143.0470 C   0  0  0  0  0  0  0  0  0  0  0  0
  189.3350  176.3690  143.4570 C   0  0  0  0  0  3  0  0  0  0  0  0
  189.2060  177.3880  140.8460 C   0  0  0  0  0  0  0  0  0  0  0  0
  190.3850  176.1340  142.5640 C   0  0  0  0  0  3  0  0  0  0  0  0
  188.1520  177.6060  141.7450 C   0  0  0  0  0  3  0  0  0  0  0  0
  190.3240  176.6480  141.2650 C   0  0  0  0  0  3  0  0  0  0  0  0
  187.1010  177.3510  143.9950 C   0  0  0  0  0  1  0  0  0  0  0  0
  1 14  1  6  0  0  0
  1 17  1  0  0  0  0
  2  7  1  6  0  0  0
  3 12  1  0  0  0  0
  3 10  1  0  0  0  0
  4 16  1  0  0  0  0
  5 13  1  0  0  0  0
  9 10  1  0  0  0  0
 11  1  1  0  0  0  0
 11  2  1  0  0  0  0
 11  4  1  0  0  0  0
 12 19  1  0  0  0  0
 13 20  1  0  0  0  0
 16 21  1  0  0  0  0
 16 27  1  0  0  0  0
 17  6  1  0  0  0  0
 17 21  1  0  0  0  0
 18  2  1  0  0  0  0
 18 15  1  0  0  0  0
 18  8  1  0  0  0  0
 19 13  1  0  0  0  0
 19 23  1  0  0  0  0
 20  4  1  0  0  0  0
 20  8  1  0  0  0  0
 22 10  1  0  0  0  0
 22 15  1  0  0  0  0
 23 24  1  0  0  0  0
 25 23  1  0  0  0  0
 27 26  1  0  0  0  0
 27 30  1  0  0  0  0
 28 29  1  0  0  0  0
 28 34  1  0  0  0  0
 30 33  2  0  0  0  0
 30 32  1  0  0  0  0
 31 29  2  0  0  0  0
 32 28  2  0  0  0  0
 33 31  1  0  0  0  0
M  END
>  <MODEL>
2

>  <REMARK>
 VINA RESULT:      -6.9      2.345      3.489
  Name = 
  3 active torsions:
  status: ('A' for Active; 'I' for Inactive)
    1  A    between atoms: C_12  and  C_28
    2  A    between atoms: C_13  and  C_29
    3  A    between atoms: C_21  and  C_28
                            x       y       z     vdW  Elec       q    Type
                         _______ _______ _______ _____ _____    ______ ____

>  <TORSDO>
F 3

$$$$
=
 OpenBabel10262423473D

 34 37  0  0  1  0  0  0  0  0999 V2000
  181.3780  179.1220  141.5920 C   0  0  1  0  0  3  0  0  0  0  0  0
  181.5210  176.9040  140.2410 C   0  0  2  0  0  3  0  0  0  0  0  0
  182.4620  176.3020  135.9880 C   0  0  0  0  0  2  0  0  0  0  0  0
  183.4680  178.5450  140.3010 C   0  0  1  0  0  3  0  0  0  0  0  0
  182.6990  178.7310  137.5250 O   0  0  0  0  0  1  0  0  0  0  0  0
  181.4100  179.2780  144.0900 C   0  0  0  0  0  1  0  0  0  0  0  0
  180.0150  176.7830  140.0550 C   0  0  0  0  0  1  0  0  0  0  0  0
  183.6240  176.3770  139.1310 O   0  0  0  0  0  0  0  0  0  0  0  0
  183.0880  174.1180  135.4340 C   0  0  0  0  0  1  0  0  0  0  0  0
  182.8930  175.0280  136.5480 N   0  0  0  0  0  0  0  0  0  0  0  0
  181.9320  178.3910  140.3550 C   0  0  2  0  0  3  0  0  0  0  0  0
  183.6400  177.1730  135.5540 C   0  0  0  0  0  2  0  0  0  0  0  0
  183.9830  178.3930  137.8100 N   0  0  0  0  0  0  0  0  0  0  0  0
  179.9820  179.0990  141.6250 O   0  0  0  0  0  1  0  0  0  0  0  0
  181.8570  174.8410  138.7890 C   0  0  0  0  0  2  0  0  0  0  0  0
  184.1230  178.1020  141.6350 C   0  0  2  0  0  3  0  0  0  0  0  0
  181.9750  178.5580  142.8770 C   0  0  2  0  0  3  0  0  0  0  0  0
  182.2250  176.3020  139.0180 C   0  0  1  0  0  3  0  0  0  0  0  0
  184.5930  177.6310  136.6840 C   0  0  1  0  0  3  0  0  0  0  0  0
  184.0410  177.7250  139.1310 C   0  0  1  0  0  3  0  0  0  0  0  0
  183.4820  178.7730  142.8480 C   0  0  0  0  0  2  0  0  0  0  0  0
  181.7530  174.5170  137.3000 C   0  0  0  0  0  2  0  0  0  0  0  0
  185.6890  176.6110  137.0610 C   0  0  0  0  0  3  0  0  0  0  0  0
  186.8800  177.3020  137.6970 C   0  0  0  0  0  1  0  0  0  0  0  0
  186.1840  175.8290  135.8530 C   0  0  0  0  0  1  0  0  0  0  0  0
  185.9610  179.6270  141.3080 O   0  0  0  0  0  1  0  0  0  0  0  0
  185.6410  178.3240  141.6930 C   0  0  1  0  0  3  0  0  0  0  0  0
  186.2730  178.0770  145.4350 C   0  0  0  0  0  0  0  0  0  0  0  0
  187.4580  177.3380  145.4770 C   0  0  0  0  0  3  0  0  0  0  0  0
  186.2720  177.9520  143.0090 C   0  0  0  0  0  0  0  0  0  0  0  0
  188.0500  176.8950  144.2900 C   0  0  0  0  0  3  0  0  0  0  0  0
  185.6790  178.3780  144.2050 C   0  0  0  0  0  3  0  0  0  0  0  0
  187.4630  177.2080  143.0600 C   0  0  0  0  0  3  0  0  0  0  0  0
  185.6410  178.5440  146.6970 C   0  0  0  0  0  1  0  0  0  0  0  0
  1 14  1  1  0  0  0
  1 17  1  0  0  0  0
  2  7  1  6  0  0  0
  2 11  1  0  0  0  0
  3 10  1  0  0  0  0
  4 11  1  0  0  0  0
  4 16  1  0  0  0  0
  5 13  1  0  0  0  0
  8 20  1  0  0  0  0
  9 10  1  0  0  0  0
 10 22  1  0  0  0  0
 11  1  1  0  0  0  0
 12  3  1  0  0  0  0
 12 19  1  0  0  0  0
 13 20  1  0  0  0  0
 15 18  1  0  0  0  0
 16 27  1  0  0  0  0
 16 21  1  0  0  0  0
 17  6  1  0  0  0  0
 18  8  1  0  0  0  0
 18  2  1  0  0  0  0
 19 23  1  0  0  0  0
 19 13  1  0  0  0  0
 20  4  1  0  0  0  0
 21 17  1  0  0  0  0
 22 15  1  0  0  0  0
 23 24  1  0  0  0  0
 25 23  1  0  0  0  0
 26 27  1  0  0  0  0
 27 30  1  0  0  0  0
 28 29  1  0  0  0  0
 28 34  1  0  0  0  0
 30 33  2  0  0  0  0
 30 32  1  0  0  0  0
 31 29  2  0  0  0  0
 32 28  2  0  0  0  0
 33 31  1  0  0  0  0
M  END
>  <MODEL>
3

>  <REMARK>
 VINA RESULT:      -6.9      2.589      4.671
  Name = 
  3 active torsions:
  status: ('A' for Active; 'I' for Inactive)
    1  A    between atoms: C_12  and  C_28
    2  A    between atoms: C_13  and  C_29
    3  A    between atoms: C_21  and  C_28
                            x       y       z     vdW  Elec       q    Type
                         _______ _______ _______ _____ _____    ______ ____

>  <TORSDO>
F 3

$$$$
=
 OpenBabel10262423473D

 34 37  0  0  1  0  0  0  0  0999 V2000
  189.3750  177.7310  137.1740 C   0  0  1  0  0  3  0  0  0  0  0  0
  190.0580  175.2640  136.7180 C   0  0  2  0  0  3  0  0  0  0  0  0
  193.8050  173.6860  135.0440 C   0  0  0  0  0  2  0  0  0  0  0  0
  191.5010  176.7910  138.1560 C   0  0  1  0  0  3  0  0  0  0  0  0
  193.2460  176.3850  135.8930 O   0  0  0  0  0  1  0  0  0  0  0  0
  187.4800  178.4400  138.6470 C   0  0  0  0  0  1  0  0  0  0  0  0
  189.2850  175.1680  135.4090 C   0  0  0  0  0  1  0  0  0  0  0  0
  192.0610  174.4120  137.8120 O   0  0  0  0  0  0  0  0  0  0  0  0
  194.1610  171.4080  135.4400 C   0  0  0  0  0  1  0  0  0  0  0  0
  193.3640  172.5520  135.8440 N   0  0  0  0  0  0  0  0  0  0  0  0
  190.5170  176.7190  136.9670 C   0  0  2  0  0  3  0  0  0  0  0  0
  195.0200  174.3870  135.6500 C   0  0  0  0  0  2  0  0  0  0  0  0
  193.7150  176.0650  137.1270 N   0  0  0  0  0  0  0  0  0  0  0  0
  188.5170  177.7750  136.0720 O   0  0  0  0  0  1  0  0  0  0  0  0
  190.9660  172.9150  136.3420 C   0  0  0  0  0  2  0  0  0  0  0  0
  190.7590  176.6300  139.5080 C   0  0  2  0  0  3  0  0  0  0  0  0
  188.6120  177.4440  138.4630 C   0  0  2  0  0  3  0  0  0  0  0  0
  191.3040  174.3730  136.6270 C   0  0  1  0  0  3  0  0  0  0  0  0
  194.7980  175.0450  137.0340 C   0  0  1  0  0  3  0  0  0  0  0  0
  192.5840  175.7070  138.0120 C   0  0  1  0  0  3  0  0  0  0  0  0
  189.5710  177.5820  139.6360 C   0  0  0  0  0  2  0  0  0  0  0  0
  191.9980  172.2710  135.4190 C   0  0  0  0  0  2  0  0  0  0  0  0
  194.9450  174.0900  138.2370 C   0  0  0  0  0  3  0  0  0  0  0  0
  195.4640  174.8260  139.4570 C   0  0  0  0  0  1  0  0  0  0  0  0
  195.8920  172.9360  137.9410 C   0  0  0  0  0  1  0  0  0  0  0  0
  192.7160  177.6630  140.4640 O   0  0  0  0  0  1  0  0  0  0  0  0
  191.6590  176.7950  140.7410 C   0  0  1  0  0  3  0  0  0  0  0  0
  188.9530  176.9970  143.4050 C   0  0  0  0  0  0  0  0  0  0  0  0
  189.4930  177.9320  144.2930 C   0  0  0  0  0  3  0  0  0  0  0  0
  190.9240  177.1820  141.9980 C   0  0  0  0  0  0  0  0  0  0  0  0
  190.7510  178.4890  144.0430 C   0  0  0  0  0  3  0  0  0  0  0  0
  189.6680  176.6190  142.2660 C   0  0  0  0  0  3  0  0  0  0  0  0
  191.4610  178.1210  142.8950 C   0  0  0  0  0  3  0  0  0  0  0  0
  187.6170  176.4020  143.6740 C   0  0  0  0  0  1  0  0  0  0  0  0
  1 14  1  6  0  0  0
  1 17  1  0  0  0  0
  2  7  1  6  0  0  0
  2 11  1  0  0  0  0
  3 12  1  0  0  0  0
  3 10  1  0  0  0  0
  4 16  1  0  0  0  0
  5 13  1  0  0  0  0
  8 20  1  0  0  0  0
  9 10  1  0  0  0  0
 11  1  1  0  0  0  0
 11  4  1  0  0  0  0
 12 19  1  0  0  0  0
 13 20  1  0  0  0  0
 15 18  1  0  0  0  0
 16 21  1  0  0  0  0
 16 27  1  0  0  0  0
 17  6  1  0  0  0  0
 17 21  1  0  0  0  0
 18  2  1  0  0  0  0
 18  8  1  0  0  0  0
 19 13  1  0  0  0  0
 19 23  1  0  0  0  0
 20  4  1  0  0  0  0
 22 10  1  0  0  0  0
 22 15  1  0  0  0  0
 23 24  1  0  0  0  0
 25 23  1  0  0  0  0
 26 27  1  0  0  0  0
 27 30  1  0  0  0  0
 28 34  1  0  0  0  0
 28 29  1  0  0  0  0
 30 32  1  0  0  0  0
 30 33  2  0  0  0  0
 31 29  2  0  0  0  0
 32 28  2  0  0  0  0
 33 31  1  0  0  0  0
M  END
>  <MODEL>
4

>  <REMARK>
 VINA RESULT:      -6.7      3.882      6.007
  Name = 
  3 active torsions:
  status: ('A' for Active; 'I' for Inactive)
    1  A    between atoms: C_12  and  C_28
    2  A    between atoms: C_13  and  C_29
    3  A    between atoms: C_21  and  C_28
                            x       y       z     vdW  Elec       q    Type
                         _______ _______ _______ _____ _____    ______ ____

>  <TORSDO>
F 3

$$$$
=
 OpenBabel10262423473D

 34 37  0  0  1  0  0  0  0  0999 V2000
  182.2530  176.9270  138.0310 C   0  0  1  0  0  3  0  0  0  0  0  0
  184.1550  175.2000  137.6270 C   0  0  2  0  0  3  0  0  0  0  0  0
  187.2810  175.1900  134.5360 C   0  0  0  0  0  2  0  0  0  0  0  0
  184.6600  177.6760  137.9400 C   0  0  1  0  0  3  0  0  0  0  0  0
  185.4440  177.3160  135.1850 O   0  0  0  0  0  1  0  0  0  0  0  0
  180.9240  177.1200  140.1440 C   0  0  0  0  0  1  0  0  0  0  0  0
  183.2580  174.2050  136.9020 C   0  0  0  0  0  1  0  0  0  0  0  0
  186.4550  176.0010  137.6800 O   0  0  0  0  0  0  0  0  0  0  0  0
  189.0980  173.7920  134.9990 C   0  0  0  0  0  1  0  0  0  0  0  0
  187.9370  174.4310  135.5920 N   0  0  0  0  0  0  0  0  0  0  0  0
  183.6370  176.6420  137.4200 C   0  0  2  0  0  3  0  0  0  0  0  0
  187.8880  176.5810  134.3580 C   0  0  0  0  0  2  0  0  0  0  0  0
  186.3650  177.8110  136.0510 N   0  0  0  0  0  0  0  0  0  0  0  0
  181.2720  176.0810  137.5080 O   0  0  0  0  0  1  0  0  0  0  0  0
  186.1650  173.7090  137.1630 C   0  0  0  0  0  2  0  0  0  0  0  0
  184.6610  177.7340  139.4890 C   0  0  2  0  0  3  0  0  0  0  0  0
  182.2980  176.8520  139.5540 C   0  0  2  0  0  3  0  0  0  0  0  0
  185.5720  175.1080  137.0470 C   0  0  1  0  0  3  0  0  0  0  0  0
  187.7480  177.5370  135.5680 C   0  0  1  0  0  3  0  0  0  0  0  0
  186.0680  177.3330  137.4210 C   0  0  1  0  0  3  0  0  0  0  0  0
  183.2580  177.9170  140.0640 C   0  0  0  0  0  2  0  0  0  0  0  0
  187.0140  173.3580  135.9430 C   0  0  0  0  0  2  0  0  0  0  0  0
  188.8340  177.3730  136.6530 C   0  0  0  0  0  3  0  0  0  0  0  0
  189.0440  178.6680  137.4130 C   0  0  0  0  0  1  0  0  0  0  0  0
  190.1710  176.9460  136.0660 C   0  0  0  0  0  1  0  0  0  0  0  0
  184.8330  179.9100  140.5130 O   0  0  0  0  0  1  0  0  0  0  0  0
  185.5800  178.8140  140.0770 C   0  0  1  0  0  3  0  0  0  0  0  0
  188.7420  177.5540  141.7720 C   0  0  0  0  0  0  0  0  0  0  0  0
  188.2940  177.3160  143.0750 C   0  0  0  0  0  3  0  0  0  0  0  0
  186.5240  178.3140  141.1390 C   0  0  0  0  0  0  0  0  0  0  0  0
  186.9650  177.5830  143.4180 C   0  0  0  0  0  3  0  0  0  0  0  0
  187.8620  178.0570  140.8100 C   0  0  0  0  0  3  0  0  0  0  0  0
  186.0810  178.0740  142.4510 C   0  0  0  0  0  3  0  0  0  0  0  0
  190.1560  177.2740  141.4090 C   0  0  0  0  0  1  0  0  0  0  0  0
  1 14  1  6  0  0  0
  1 17  1  0  0  0  0
  2  7  1  6  0  0  0
  3 10  1  0  0  0  0
  4 16  1  0  0  0  0
  5 13  1  0  0  0  0
  9 10  1  0  0  0  0
 10 22  1  0  0  0  0
 11  2  1  0  0  0  0
 11  4  1  0  0  0  0
 11  1  1  0  0  0  0
 12  3  1  0  0  0  0
 12 19  1  0  0  0  0
 13 20  1  0  0  0  0
 16 21  1  0  0  0  0
 16 27  1  0  0  0  0
 17 21  1  0  0  0  0
 17  6  1  0  0  0  0
 18 15  1  0  0  0  0
 18  2  1  0  0  0  0
 18  8  1  0  0  0  0
 19 13  1  0  0  0  0
 19 23  1  0  0  0  0
 20  8  1  0  0  0  0
 20  4  1  0  0  0  0
 22 15  1  0  0  0  0
 23 24  1  0  0  0  0
 25 23  1  0  0  0  0
 27 26  1  0  0  0  0
 27 30  1  0  0  0  0
 28 29  1  0  0  0  0
 29 31  2  0  0  0  0
 30 33  2  0  0  0  0
 32 30  1  0  0  0  0
 32 28  2  0  0  0  0
 33 31  1  0  0  0  0
 34 28  1  0  0  0  0
M  END
>  <MODEL>
5

>  <REMARK>
 VINA RESULT:      -6.6      1.426      2.173
  Name = 
  3 active torsions:
  status: ('A' for Active; 'I' for Inactive)
    1  A    between atoms: C_12  and  C_28
    2  A    between atoms: C_13  and  C_29
    3  A    between atoms: C_21  and  C_28
                            x       y       z     vdW  Elec       q    Type
                         _______ _______ _______ _____ _____    ______ ____

>  <TORSDO>
F 3

$$$$
=
 OpenBabel10262423473D

 34 37  0  0  1  0  0  0  0  0999 V2000
  183.9160  179.3100  139.3610 C   0  0  1  0  0  3  0  0  0  0  0  0
  184.7920  177.2650  138.0140 C   0  0  2  0  0  3  0  0  0  0  0  0
  188.0040  177.0860  135.0170 C   0  0  0  0  0  2  0  0  0  0  0  0
  186.3630  178.6970  139.4160 C   0  0  1  0  0  3  0  0  0  0  0  0
  187.3330  179.2830  136.7610 O   0  0  0  0  0  1  0  0  0  0  0  0
  182.5060  179.1640  141.4230 C   0  0  0  0  0  1  0  0  0  0  0  0
  183.6660  177.3070  136.9890 C   0  0  0  0  0  1  0  0  0  0  0  0
  187.1460  176.6780  138.2300 O   0  0  0  0  0  0  0  0  0  0  0  0
  188.8170  174.9350  134.5940 C   0  0  0  0  0  1  0  0  0  0  0  0
  188.0240  175.7200  135.5210 N   0  0  0  0  0  0  0  0  0  0  0  0
  185.0740  178.6820  138.5630 C   0  0  2  0  0  3  0  0  0  0  0  0
  189.2250  177.8890  135.4660 C   0  0  0  0  0  2  0  0  0  0  0  0
  188.2160  178.7950  137.6700 N   0  0  0  0  0  0  0  0  0  0  0  0
  182.7550  179.4130  138.5900 O   0  0  0  0  0  1  0  0  0  0  0  0
  185.8850  175.3660  136.7170 C   0  0  0  0  0  2  0  0  0  0  0  0
  186.1270  178.0390  140.8000 C   0  0  2  0  0  3  0  0  0  0  0  0
  183.6600  178.5430  140.6540 C   0  0  2  0  0  3  0  0  0  0  0  0
  186.0660  176.7480  137.3330 C   0  0  1  0  0  3  0  0  0  0  0  0
  189.3570  178.1180  136.9910 C   0  0  1  0  0  3  0  0  0  0  0  0
  187.4980  177.9720  138.6700 C   0  0  1  0  0  3  0  0  0  0  0  0
  184.9100  178.6180  141.5190 C   0  0  0  0  0  2  0  0  0  0  0  0
  186.6550  175.2330  135.4050 C   0  0  0  0  0  2  0  0  0  0  0  0
  190.0280  176.9630  137.7640 C   0  0  0  0  0  3  0  0  0  0  0  0
  190.5140  177.4270  139.1230 C   0  0  0  0  0  1  0  0  0  0  0  0
  191.2140  176.3800  137.0090 C   0  0  0  0  0  1  0  0  0  0  0  0
  188.0820  179.2640  141.4980 O   0  0  0  0  0  1  0  0  0  0  0  0
  187.3370  178.1090  141.7430 C   0  0  1  0  0  3  0  0  0  0  0  0
  185.4340  178.3030  145.0300 C   0  0  0  0  0  0  0  0  0  0  0  0
  186.3520  177.7490  145.9260 C   0  0  0  0  0  3  0  0  0  0  0  0
  186.9950  177.9550  143.2020 C   0  0  0  0  0  0  0  0  0  0  0  0
  187.5900  177.2890  145.4650 C   0  0  0  0  0  3  0  0  0  0  0  0
  185.7520  178.4000  143.6720 C   0  0  0  0  0  3  0  0  0  0  0  0
  187.9130  177.3980  144.1090 C   0  0  0  0  0  3  0  0  0  0  0  0
  184.1170  178.7880  145.5190 C   0  0  0  0  0  1  0  0  0  0  0  0
  1 14  1  6  0  0  0
  1 17  1  0  0  0  0
  2  7  1  6  0  0  0
  2 11  1  0  0  0  0
  3 12  1  0  0  0  0
  3 10  1  0  0  0  0
  4 16  1  0  0  0  0
  5 13  1  0  0  0  0
  8 20  1  0  0  0  0
  9 10  1  0  0  0  0
 11  1  1  0  0  0  0
 11  4  1  0  0  0  0
 12 19  1  0  0  0  0
 13 20  1  0  0  0  0
 15 18  1  0  0  0  0
 16 21  1  0  0  0  0
 16 27  1  0  0  0  0
 17  6  1  0  0  0  0
 17 21  1  0  0  0  0
 18  2  1  0  0  0  0
 18  8  1  0  0  0  0
 19 13  1  0  0  0  0
 19 23  1  0  0  0  0
 20  4  1  0  0  0  0
 22 10  1  0  0  0  0
 22 15  1  0  0  0  0
 23 24  1  0  0  0  0
 25 23  1  0  0  0  0
 26 27  1  0  0  0  0
 27 30  1  0  0  0  0
 28 34  1  0  0  0  0
 28 29  1  0  0  0  0
 30 32  1  0  0  0  0
 30 33  2  0  0  0  0
 31 29  2  0  0  0  0
 32 28  2  0  0  0  0
 33 31  1  0  0  0  0
M  END
>  <MODEL>
6

>  <REMARK>
 VINA RESULT:      -6.6      1.732      2.772
  Name = 
  3 active torsions:
  status: ('A' for Active; 'I' for Inactive)
    1  A    between atoms: C_12  and  C_28
    2  A    between atoms: C_13  and  C_29
    3  A    between atoms: C_21  and  C_28
                            x       y       z     vdW  Elec       q    Type
                         _______ _______ _______ _____ _____    ______ ____

>  <TORSDO>
F 3

$$$$
=
 OpenBabel10262423473D

 34 37  0  0  1  0  0  0  0  0999 V2000
  187.7820  178.0840  138.2820 C   0  0  1  0  0  3  0  0  0  0  0  0
  188.1820  175.6260  137.5330 C   0  0  2  0  0  3  0  0  0  0  0  0
  191.1120  174.0410  134.6630 C   0  0  0  0  0  2  0  0  0  0  0  0
  190.0740  177.0460  138.4760 C   0  0  1  0  0  3  0  0  0  0  0  0
  190.9660  176.7080  135.7510 O   0  0  0  0  0  1  0  0  0  0  0  0
  186.5010  178.7660  140.3210 C   0  0  0  0  0  1  0  0  0  0  0  0
  187.0210  175.6120  136.5480 C   0  0  0  0  0  1  0  0  0  0  0  0
  190.3980  174.6740  137.8760 O   0  0  0  0  0  0  0  0  0  0  0  0
  191.4890  171.7390  134.8340 C   0  0  0  0  0  1  0  0  0  0  0  0
  190.9130  172.8810  135.5210 N   0  0  0  0  0  0  0  0  0  0  0  0
  188.7530  177.0550  137.6730 C   0  0  2  0  0  3  0  0  0  0  0  0
  192.4850  174.6820  134.8640 C   0  0  0  0  0  2  0  0  0  0  0  0
  191.8000  176.3170  136.7490 N   0  0  0  0  0  0  0  0  0  0  0  0
  186.6140  178.2020  137.5250 O   0  0  0  0  0  1  0  0  0  0  0  0
  188.8250  173.2770  136.7910 C   0  0  0  0  0  2  0  0  0  0  0  0
  189.8090  176.8370  139.9890 C   0  0  2  0  0  3  0  0  0  0  0  0
  187.4720  177.7530  139.7380 C   0  0  2  0  0  3  0  0  0  0  0  0
  189.2950  174.7110  137.0050 C   0  0  1  0  0  3  0  0  0  0  0  0
  192.7530  175.2770  136.2670 C   0  0  1  0  0  3  0  0  0  0  0  0
  191.0080  175.9450  137.9430 C   0  0  1  0  0  3  0  0  0  0  0  0
  188.7660  177.8100  140.5360 C   0  0  0  0  0  2  0  0  0  0  0  0
  189.4730  172.6540  135.5570 C   0  0  0  0  0  2  0  0  0  0  0  0
  193.2480  174.2610  137.3190 C   0  0  0  0  0  3  0  0  0  0  0  0
  194.1280  174.9340  138.3540 C   0  0  0  0  0  1  0  0  0  0  0  0
  194.0390  173.1240  136.6890 C   0  0  0  0  0  1  0  0  0  0  0  0
  192.0370  177.7180  140.2540 O   0  0  0  0  0  1  0  0  0  0  0  0
  191.0680  176.9200  140.8640 C   0  0  1  0  0  3  0  0  0  0  0  0
  189.3420  177.3490  144.2250 C   0  0  0  0  0  0  0  0  0  0  0  0
  190.2540  178.1510  144.9160 C   0  0  0  0  0  3  0  0  0  0  0  0
  190.8070  177.3360  142.2880 C   0  0  0  0  0  0  0  0  0  0  0  0
  191.4480  178.5420  144.3010 C   0  0  0  0  0  3  0  0  0  0  0  0
  189.6200  176.9380  142.9180 C   0  0  0  0  0  3  0  0  0  0  0  0
  191.7200  178.1420  142.9890 C   0  0  0  0  0  3  0  0  0  0  0  0
  188.0750  176.9300  144.8800 C   0  0  0  0  0  1  0  0  0  0  0  0
  1 14  1  6  0  0  0
  1 17  1  0  0  0  0
  2  7  1  6  0  0  0
  2 11  1  0  0  0  0
  3 12  1  0  0  0  0
  3 10  1  0  0  0  0
  4 16  1  0  0  0  0
  5 13  1  0  0  0  0
  8 20  1  0  0  0  0
  9 10  1  0  0  0  0
 10 22  1  0  0  0  0
 11  1  1  0  0  0  0
 11  4  1  0  0  0  0
 12 19  1  0  0  0  0
 13 20  1  0  0  0  0
 15 18  1  0  0  0  0
 16 21  1  0  0  0  0
 16 27  1  0  0  0  0
 17  6  1  0  0  0  0
 17 21  1  0  0  0  0
 18  2  1  0  0  0  0
 18  8  1  0  0  0  0
 19 13  1  0  0  0  0
 19 23  1  0  0  0  0
 20  4  1  0  0  0  0
 22 15  1  0  0  0  0
 23 24  1  0  0  0  0
 25 23  1  0  0  0  0
 26 27  1  0  0  0  0
 27 30  1  0  0  0  0
 28 34  1  0  0  0  0
 28 29  1  0  0  0  0
 30 32  1  0  0  0  0
 30 33  2  0  0  0  0
 31 29  2  0  0  0  0
 32 28  2  0  0  0  0
 33 31  1  0  0  0  0
M  END
>  <MODEL>
7

>  <REMARK>
 VINA RESULT:      -6.6      3.077      4.936
  Name = 
  3 active torsions:
  status: ('A' for Active; 'I' for Inactive)
    1  A    between atoms: C_12  and  C_28
    2  A    between atoms: C_13  and  C_29
    3  A    between atoms: C_21  and  C_28
                            x       y       z     vdW  Elec       q    Type
                         _______ _______ _______ _____ _____    ______ ____

>  <TORSDO>
F 3

$$$$
=
 OpenBabel10262423473D

 34 37  0  0  1  0  0  0  0  0999 V2000
  182.7810  172.1020  136.9490 C   0  0  1  0  0  3  0  0  0  0  0  0
  181.8230  174.3600  136.0840 C   0  0  2  0  0  3  0  0  0  0  0  0
  180.3150  177.7940  138.3780 C   0  0  0  0  0  2  0  0  0  0  0  0
  183.7700  174.2900  137.7240 C   0  0  1  0  0  3  0  0  0  0  0  0
  181.7230  175.4830  139.3750 O   0  0  0  0  0  1  0  0  0  0  0  0
  184.1240  170.4990  135.5730 C   0  0  0  0  0  1  0  0  0  0  0  0
  180.4420  173.7940  135.7820 C   0  0  0  0  0  1  0  0  0  0  0  0
  182.9240  176.4140  136.7920 O   0  0  0  0  0  0  0  0  0  0  0  0
  180.1790  179.7880  137.1630 C   0  0  0  0  0  1  0  0  0  0  0  0
  180.7460  178.4510  137.1520 N   0  0  0  0  0  0  0  0  0  0  0  0
  182.4810  173.5830  137.2470 C   0  0  2  0  0  3  0  0  0  0  0  0
  181.2280  178.1140  139.5610 C   0  0  0  0  0  2  0  0  0  0  0  0
  182.8900  176.1600  139.2150 N   0  0  0  0  0  0  0  0  0  0  0  0
  181.6220  171.3970  136.6140 O   0  0  0  0  0  1  0  0  0  0  0  0
  181.0010  176.6810  135.4400 C   0  0  0  0  0  2  0  0  0  0  0  0
  184.9310  174.0770  136.7200 C   0  0  2  0  0  3  0  0  0  0  0  0
  183.8490  171.9640  135.8680 C   0  0  2  0  0  3  0  0  0  0  0  0
  181.6790  175.8280  136.5050 C   0  0  1  0  0  3  0  0  0  0  0  0
  182.6900  177.6200  139.4350 C   0  0  1  0  0  3  0  0  0  0  0  0
  183.5050  175.7940  137.9190 C   0  0  1  0  0  3  0  0  0  0  0  0
  185.1340  172.6040  136.3710 C   0  0  0  0  0  2  0  0  0  0  0  0
  180.0900  177.7370  136.0640 C   0  0  0  0  0  2  0  0  0  0  0  0
  183.6290  178.5660  138.6570 C   0  0  0  0  0  3  0  0  0  0  0  0
  185.0710  178.3780  139.0880 C   0  0  0  0  0  1  0  0  0  0  0  0
  183.2620  180.0290  138.8540 C   0  0  0  0  0  1  0  0  0  0  0  0
  187.2910  173.7170  137.0590 O   0  0  0  0  0  1  0  0  0  0  0  0
  186.2740  174.6650  137.1790 C   0  0  1  0  0  3  0  0  0  0  0  0
  187.9130  178.0370  136.5420 C   0  0  0  0  0  0  0  0  0  0  0  0
  187.2860  178.4410  135.3600 C   0  0  0  0  0  3  0  0  0  0  0  0
  186.6360  175.9700  136.5200 C   0  0  0  0  0  0  0  0  0  0  0  0
  186.3410  177.6110  134.7490 C   0  0  0  0  0  3  0  0  0  0  0  0
  187.5930  176.8030  137.1160 C   0  0  0  0  0  3  0  0  0  0  0  0
  186.0120  176.3830  135.3310 C   0  0  0  0  0  3  0  0  0  0  0  0
  188.9210  178.9170  137.1880 C   0  0  0  0  0  1  0  0  0  0  0  0
  1 14  1  6  0  0  0
  1 11  1  0  0  0  0
  2  7  1  1  0  0  0
  2 18  1  0  0  0  0
  2 11  1  0  0  0  0
  3 12  1  0  0  0  0
  4 20  1  0  0  0  0
  6 17  1  0  0  0  0
  8 20  1  0  0  0  0
 10  9  1  0  0  0  0
 10  3  1  0  0  0  0
 11  4  1  0  0  0  0
 13  5  1  0  0  0  0
 13 19  1  0  0  0  0
 15 22  1  0  0  0  0
 15 18  1  0  0  0  0
 16 27  1  0  0  0  0
 16  4  1  0  0  0  0
 17 21  1  0  0  0  0
 17  1  1  0  0  0  0
 18  8  1  0  0  0  0
 19 12  1  0  0  0  0
 20 13  1  0  0  0  0
 21 16  1  0  0  0  0
 22 10  1  0  0  0  0
 23 25  1  0  0  0  0
 23 24  1  0  0  0  0
 23 19  1  0  0  0  0
 26 27  1  0  0  0  0
 28 32  1  0  0  0  0
 28 34  1  0  0  0  0
 29 28  2  0  0  0  0
 30 32  2  0  0  0  0
 30 27  1  0  0  0  0
 31 33  2  0  0  0  0
 31 29  1  0  0  0  0
 33 30  1  0  0  0  0
M  END
>  <MODEL>
8

>  <REMARK>
 VINA RESULT:      -5.7      2.925      6.711
  Name = 
  3 active torsions:
  status: ('A' for Active; 'I' for Inactive)
    1  A    between atoms: C_12  and  C_28
    2  A    between atoms: C_13  and  C_29
    3  A    between atoms: C_21  and  C_28
                            x       y       z     vdW  Elec       q    Type
                         _______ _______ _______ _____ _____    ______ ____

>  <TORSDO>
F 3

$$$$
=
 OpenBabel10262423473D

 34 37  0  0  1  0  0  0  0  0999 V2000
  183.8830  179.6730  143.8930 C   0  0  1  0  0  3  0  0  0  0  0  0
  182.8150  178.0260  142.1860 C   0  0  2  0  0  3  0  0  0  0  0  0
  182.2360  178.5090  137.8550 C   0  0  0  0  0  2  0  0  0  0  0  0
  185.1620  178.9540  141.8400 C   0  0  1  0  0  3  0  0  0  0  0  0
  183.7700  180.1850  139.6310 O   0  0  0  0  0  1  0  0  0  0  0  0
  184.6680  179.0450  146.1850 C   0  0  0  0  0  1  0  0  0  0  0  0
  181.3830  178.3950  142.5470 C   0  0  0  0  0  1  0  0  0  0  0  0
  184.1750  177.2930  140.3030 O   0  0  0  0  0  0  0  0  0  0  0  0
  181.8330  176.5140  136.7020 C   0  0  0  0  0  1  0  0  0  0  0  0
  182.3070  177.0580  137.9620 N   0  0  0  0  0  0  0  0  0  0  0  0
  183.7570  179.2290  142.4240 C   0  0  2  0  0  3  0  0  0  0  0  0
  183.4790  179.1030  137.1930 C   0  0  0  0  0  2  0  0  0  0  0  0
  184.8640  179.4290  139.3550 N   0  0  0  0  0  0  0  0  0  0  0  0
  182.6450  180.0340  144.4310 O   0  0  0  0  0  1  0  0  0  0  0  0
  181.9470  176.4960  140.3460 C   0  0  0  0  0  2  0  0  0  0  0  0
  185.9530  177.9600  142.7290 C   0  0  2  0  0  3  0  0  0  0  0  0
  184.5650  178.6010  144.7360 C   0  0  2  0  0  3  0  0  0  0  0  0
  182.8750  177.6520  140.7000 C   0  0  1  0  0  3  0  0  0  0  0  0
  184.8090  178.9070  137.9600 C   0  0  1  0  0  3  0  0  0  0  0  0
  185.0400  178.4030  140.4080 C   0  0  1  0  0  3  0  0  0  0  0  0
  185.9710  178.3810  144.1970 C   0  0  0  0  0  2  0  0  0  0  0  0
  181.3190  176.6840  138.9670 C   0  0  0  0  0  2  0  0  0  0  0  0
  185.5120  177.5570  137.7060 C   0  0  0  0  0  3  0  0  0  0  0  0
  187.0020  177.6580  137.9720 C   0  0  0  0  0  1  0  0  0  0  0  0
  185.3190  177.0690  136.2770 C   0  0  0  0  0  1  0  0  0  0  0  0
  187.7460  178.6160  141.2580 O   0  0  0  0  0  1  0  0  0  0  0  0
  187.3970  177.7180  142.2680 C   0  0  1  0  0  3  0  0  0  0  0  0
  190.5700  178.3880  144.2540 C   0  0  0  0  0  0  0  0  0  0  0  0
  190.3510  177.6310  145.4090 C   0  0  0  0  0  3  0  0  0  0  0  0
  188.4100  177.6990  143.3830 C   0  0  0  0  0  0  0  0  0  0  0  0
  189.1600  176.9130  145.5600 C   0  0  0  0  0  3  0  0  0  0  0  0
  189.6000  178.4260  143.2480 C   0  0  0  0  0  3  0  0  0  0  0  0
  188.1960  176.9410  144.5470 C   0  0  0  0  0  3  0  0  0  0  0  0
  191.8340  179.1540  144.0960 C   0  0  0  0  0  1  0  0  0  0  0  0
  1 14  1  1  0  0  0
  1 17  1  0  0  0  0
  2 11  1  0  0  0  0
  2  7  1  6  0  0  0
  3 10  1  0  0  0  0
  4 11  1  0  0  0  0
  4 16  1  0  0  0  0
  8 20  1  0  0  0  0
  8 18  1  0  0  0  0
  9 10  1  0  0  0  0
 10 22  1  0  0  0  0
 11  1  1  0  0  0  0
 12  3  1  0  0  0  0
 12 19  1  0  0  0  0
 13  5  1  0  0  0  0
 13 20  1  0  0  0  0
 15 18  1  0  0  0  0
 16 21  1  0  0  0  0
 17  6  1  0  0  0  0
 18  2  1  0  0  0  0
 19 13  1  0  0  0  0
 20  4  1  0  0  0  0
 21 17  1  0  0  0  0
 22 15  1  0  0  0  0
 23 19  1  0  0  0  0
 23 24  1  0  0  0  0
 25 23  1  0  0  0  0
 26 27  1  0  0  0  0
 27 16  1  0  0  0  0
 27 30  1  0  0  0  0
 28 29  1  0  0  0  0
 29 31  2  0  0  0  0
 30 33  2  0  0  0  0
 32 30  1  0  0  0  0
 32 28  2  0  0  0  0
 33 31  1  0  0  0  0
 34 28  1  0  0  0  0
M  END
>  <MODEL>
9

>  <REMARK>
 VINA RESULT:      -5.4      3.045      6.259
  Name = 
  3 active torsions:
  status: ('A' for Active; 'I' for Inactive)
    1  A    between atoms: C_12  and  C_28
    2  A    between atoms: C_13  and  C_29
    3  A    between atoms: C_21  and  C_28
                            x       y       z     vdW  Elec       q    Type
                         _______ _______ _______ _____ _____    ______ ____

>  <TORSDO>
F 3

$$$$
