=
 OpenBabel10272414473D

 37 41  0  0  1  0  0  0  0  0999 V2000
  185.8980  180.2430  142.0850 O   0  0  0  0  0  0  0  0  0  0  0  0
  189.1850  177.4070  140.6470 C   0  0  0  0  0  0  0  0  0  0  0  0
  187.4700  176.9290  144.0790 C   0  0  0  0  0  2  0  0  0  0  0  0
  187.5200  177.8330  138.8420 C   0  0  0  0  0  2  0  0  0  0  0  0
  188.2910  178.0320  141.7030 C   0  0  2  0  0  3  0  0  0  0  0  0
  188.8790  177.4560  139.3540 C   0  0  0  0  0  0  0  0  0  0  0  0
  188.5540  177.5220  143.1460 C   0  0  1  0  0  3  0  0  0  0  0  0
  189.8810  176.9690  138.4760 N   0  0  0  0  0  2  0  0  0  0  0  0
  186.7630  178.7530  139.8040 C   0  0  2  0  0  3  0  0  0  0  0  0
  190.8230  176.0680  141.8570 C   0  0  0  0  0  2  0  0  0  0  0  0
  191.4130  176.6750  139.3070 S   0  0  0  0  0  0  0  0  0  0  0  0
  186.0110  176.9680  143.6390 C   0  0  0  0  0  2  0  0  0  0  0  0
  190.5460  176.8910  140.8580 C   0  0  0  0  0  0  0  0  0  0  0  0
  186.8360  178.1940  141.2350 C   0  0  2  0  0  3  0  0  0  0  0  0
  185.5790  178.3410  143.4060 N   0  0  0  0  0  0  0  0  0  0  0  0
  186.0600  179.0020  142.2350 C   0  0  0  0  0  0  0  0  0  0  0  0
  189.5400  178.4330  143.8810 C   0  0  2  0  0  3  0  0  0  0  0  0
  190.6000  178.8050  143.0460 O   0  0  0  0  0  1  0  0  0  0  0  0
  191.2390  177.1190  145.1600 C   0  0  0  0  0  3  0  0  0  0  0  0
  190.0420  177.8420  145.1640 C   0  0  0  0  0  0  0  0  0  0  0  0
  189.3500  178.0280  146.3690 C   0  0  0  0  0  3  0  0  0  0  0  0
  189.1640  177.6440  148.7140 F   0  0  0  0  0  0  0  0  0  0  0  0
  191.0360  176.7480  147.5450 C   0  0  0  0  0  3  0  0  0  0  0  0
  189.8440  177.4770  147.5560 C   0  0  0  0  0  0  0  0  0  0  0  0
  191.7330  176.5700  146.3480 C   0  0  0  0  0  3  0  0  0  0  0  0
  185.3130  178.8430  139.3430 C   0  0  0  0  0  2  0  0  0  0  0  0
  185.0930  178.0150  138.0850 C   0  0  0  0  0  2  0  0  0  0  0  0
  183.6820  177.6970  137.9380 N   0  0  0  0  0  2  0  0  0  0  0  0
  183.5550  176.2520  138.0370 C   0  0  0  0  0  2  0  0  0  0  0  0
  182.2130  175.8390  139.1880 S   0  0  0  0  0  1  0  0  0  0  0  0
  184.5220  178.9510  144.2110 C   0  0  1  0  0  3  0  0  0  0  0  0
  183.0230  178.1930  142.1420 C   0  0  0  0  0  1  0  0  0  0  0  0
  182.0870  179.7240  143.9570 C   0  0  0  0  0  2  0  0  0  0  0  0
  183.1630  178.8130  143.5220 C   0  0  2  0  0  0  0  0  0  0  0  0
  182.1540  178.3840  144.3980 O   0  0  0  0  0  0  0  0  0  0  0  0
  184.5160  178.3820  145.6280 C   0  0  0  0  0  2  0  0  0  0  0  0
  185.5710  179.0610  146.4710 C   0  0  0  0  0  1  0  0  0  0  0  0
  1 16  2  0  0  0  0
  2 13  1  0  0  0  0
  4  6  1  0  0  0  0
  4  9  1  0  0  0  0
  5  2  1  6  0  0  0
  5  7  1  0  0  0  0
  6  2  2  0  0  0  0
  7 17  1  1  0  0  0
  7  3  1  0  0  0  0
  8 11  1  0  0  0  0
  8  6  1  0  0  0  0
  9 26  1  6  0  0  0
  9 14  1  0  0  0  0
 11 13  1  0  0  0  0
 12  3  1  0  0  0  0
 13 10  2  0  0  0  0
 14  5  1  0  0  0  0
 14 16  1  1  0  0  0
 15 12  1  0  0  0  0
 15 31  1  0  0  0  0
 16 15  1  0  0  0  0
 17 18  1  6  0  0  0
 17 20  1  0  0  0  0
 19 20  2  0  0  0  0
 19 25  1  0  0  0  0
 20 21  1  0  0  0  0
 21 24  2  0  0  0  0
 23 24  1  0  0  0  0
 24 22  1  0  0  0  0
 25 23  2  0  0  0  0
 27 26  1  0  0  0  0
 28 29  1  0  0  0  0
 28 27  1  0  0  0  0
 29 30  1  0  0  0  0
 31 36  1  1  0  0  0
 33 35  1  0  0  0  0
 34 32  1  6  0  0  0
 34 33  1  0  0  0  0
 34 31  1  0  0  0  0
 34 35  1  0  0  0  0
 36 37  1  0  0  0  0
M  END
>  <MODEL>
1

>  <REMARK>
 VINA RESULT:      -6.9      0.000      0.000
  Name = 
  9 active torsions:
  status: ('A' for Active; 'I' for Inactive)
    1  A    between atoms: C_3  and  N_21
    2  A    between atoms: C_6  and  C_31
    3  A    between atoms: C_11  and  C_26
    4  A    between atoms: C_14  and  C_31
    5  A    between atoms: C_17  and  C_26
    6  A    between atoms: C_20  and  C_25
    7  A    between atoms: N_21  and  C_30
    8  A    between atoms: C_25  and  C_30
    9  A    between atoms: C_26  and  N_33
                            x       y       z     vdW  Elec       q    Type
                         _______ _______ _______ _____ _____    ______ ____

>  <TORSDO>
F 9

$$$$
=
 OpenBabel10272414473D

 37 41  0  0  1  0  0  0  0  0999 V2000
  185.8890  180.2400  142.1210 O   0  0  0  0  0  0  0  0  0  0  0  0
  189.2090  177.4260  140.7120 C   0  0  0  0  0  0  0  0  0  0  0  0
  187.4500  176.9230  144.1190 C   0  0  0  0  0  2  0  0  0  0  0  0
  187.5660  177.8530  138.8880 C   0  0  0  0  0  2  0  0  0  0  0  0
  188.2980  178.0410  141.7600 C   0  0  2  0  0  3  0  0  0  0  0  0
  188.9190  177.4810  139.4160 C   0  0  0  0  0  0  0  0  0  0  0  0
  188.5450  177.5260  143.2030 C   0  0  1  0  0  3  0  0  0  0  0  0
  189.9360  177.0020  138.5490 N   0  0  0  0  0  2  0  0  0  0  0  0
  186.7920  178.7660  139.8430 C   0  0  2  0  0  3  0  0  0  0  0  0
  190.8360  176.0880  141.9380 C   0  0  0  0  0  2  0  0  0  0  0  0
  191.4570  176.7110  139.3990 S   0  0  0  0  0  0  0  0  0  0  0  0
  185.9970  176.9570  143.6590 C   0  0  0  0  0  2  0  0  0  0  0  0
  190.5700  176.9160  140.9390 C   0  0  0  0  0  0  0  0  0  0  0  0
  186.8490  178.1990  141.2730 C   0  0  2  0  0  3  0  0  0  0  0  0
  185.5620  178.3300  143.4280 N   0  0  0  0  0  0  0  0  0  0  0  0
  186.0560  178.9980  142.2660 C   0  0  0  0  0  0  0  0  0  0  0  0
  189.5160  178.4380  143.9560 C   0  0  2  0  0  3  0  0  0  0  0  0
  190.5960  178.8020  143.1440 O   0  0  0  0  0  1  0  0  0  0  0  0
  189.2470  178.0880  146.4160 C   0  0  0  0  0  3  0  0  0  0  0  0
  189.9870  177.8520  145.2530 C   0  0  0  0  0  0  0  0  0  0  0  0
  191.1360  177.0510  145.3140 C   0  0  0  0  0  3  0  0  0  0  0  0
  192.6670  175.7470  146.5930 F   0  0  0  0  0  0  0  0  0  0  0  0
  190.8100  176.7500  147.6950 C   0  0  0  0  0  3  0  0  0  0  0  0
  191.5480  176.5060  146.5350 C   0  0  0  0  0  0  0  0  0  0  0  0
  189.6590  177.5400  147.6350 C   0  0  0  0  0  3  0  0  0  0  0  0
  185.3480  178.8510  139.3640 C   0  0  0  0  0  2  0  0  0  0  0  0
  185.1460  178.0200  138.1050 C   0  0  0  0  0  2  0  0  0  0  0  0
  183.7400  177.6890  137.9460 N   0  0  0  0  0  2  0  0  0  0  0  0
  183.6250  176.2430  138.0450 C   0  0  0  0  0  2  0  0  0  0  0  0
  182.1870  175.8170  139.0670 S   0  0  0  0  0  1  0  0  0  0  0  0
  184.4920  178.9310  144.2220 C   0  0  1  0  0  3  0  0  0  0  0  0
  183.0260  178.1890  142.1230 C   0  0  0  0  0  1  0  0  0  0  0  0
  182.0560  179.6920  143.9430 C   0  0  0  0  0  2  0  0  0  0  0  0
  183.1430  178.7930  143.5120 C   0  0  2  0  0  0  0  0  0  0  0  0
  182.1250  178.3480  144.3690 O   0  0  0  0  0  0  0  0  0  0  0  0
  184.4670  178.3520  145.6340 C   0  0  0  0  0  2  0  0  0  0  0  0
  185.5090  179.0280  146.4970 C   0  0  0  0  0  1  0  0  0  0  0  0
  1 16  2  0  0  0  0
  2 13  1  0  0  0  0
  4  6  1  0  0  0  0
  4  9  1  0  0  0  0
  5  2  1  6  0  0  0
  5  7  1  0  0  0  0
  6  2  2  0  0  0  0
  7 17  1  1  0  0  0
  7  3  1  0  0  0  0
  8 11  1  0  0  0  0
  8  6  1  0  0  0  0
  9 26  1  6  0  0  0
  9 14  1  0  0  0  0
 11 13  1  0  0  0  0
 12  3  1  0  0  0  0
 13 10  2  0  0  0  0
 14  5  1  0  0  0  0
 14 16  1  1  0  0  0
 15 12  1  0  0  0  0
 15 31  1  0  0  0  0
 16 15  1  0  0  0  0
 17 18  1  6  0  0  0
 17 20  1  0  0  0  0
 19 25  1  0  0  0  0
 20 21  1  0  0  0  0
 20 19  2  0  0  0  0
 21 24  2  0  0  0  0
 24 22  1  0  0  0  0
 24 23  1  0  0  0  0
 25 23  2  0  0  0  0
 27 26  1  0  0  0  0
 28 29  1  0  0  0  0
 28 27  1  0  0  0  0
 29 30  1  0  0  0  0
 31 36  1  1  0  0  0
 33 35  1  0  0  0  0
 34 32  1  6  0  0  0
 34 33  1  0  0  0  0
 34 31  1  0  0  0  0
 34 35  1  0  0  0  0
 36 37  1  0  0  0  0
M  END
>  <MODEL>
2

>  <REMARK>
 VINA RESULT:      -6.8      0.749      1.092
  Name = 
  9 active torsions:
  status: ('A' for Active; 'I' for Inactive)
    1  A    between atoms: C_3  and  N_21
    2  A    between atoms: C_6  and  C_31
    3  A    between atoms: C_11  and  C_26
    4  A    between atoms: C_14  and  C_31
    5  A    between atoms: C_17  and  C_26
    6  A    between atoms: C_20  and  C_25
    7  A    between atoms: N_21  and  C_30
    8  A    between atoms: C_25  and  C_30
    9  A    between atoms: C_26  and  N_33
                            x       y       z     vdW  Elec       q    Type
                         _______ _______ _______ _____ _____    ______ ____

>  <TORSDO>
F 9

$$$$
=
 OpenBabel10272414473D

 37 41  0  0  1  0  0  0  0  0999 V2000
  188.6750  179.1170  138.0910 O   0  0  0  0  0  0  0  0  0  0  0  0
  185.4840  178.3930  141.2870 C   0  0  0  0  0  0  0  0  0  0  0  0
  185.1150  176.9700  137.7100 C   0  0  0  0  0  2  0  0  0  0  0  0
  187.7680  177.9940  142.1990 C   0  0  0  0  0  2  0  0  0  0  0  0
  185.9960  178.4350  139.8570 C   0  0  2  0  0  3  0  0  0  0  0  0
  186.3130  178.3350  142.3240 C   0  0  0  0  0  0  0  0  0  0  0  0
  184.9330  178.0690  138.7870 C   0  0  1  0  0  3  0  0  0  0  0  0
  185.6970  178.4580  143.5960 N   0  0  0  0  0  2  0  0  0  0  0  0
  188.3440  178.3660  140.8300 C   0  0  2  0  0  3  0  0  0  0  0  0
  183.0810  178.0150  141.1290 C   0  0  0  0  0  2  0  0  0  0  0  0
  184.0030  178.9430  143.4760 S   0  0  0  0  0  0  0  0  0  0  0  0
  186.4690  176.2860  137.5700 C   0  0  0  0  0  2  0  0  0  0  0  0
  184.0970  178.6270  141.7180 C   0  0  0  0  0  0  0  0  0  0  0  0
  187.4130  177.8600  139.7130 C   0  0  2  0  0  3  0  0  0  0  0  0
  187.5120  177.2610  137.2740 N   0  0  0  0  0  0  0  0  0  0  0  0
  187.9380  178.1230  138.3310 C   0  0  0  0  0  0  0  0  0  0  0  0
  184.2370  179.3220  138.2500 C   0  0  2  0  0  3  0  0  0  0  0  0
  184.5350  180.4390  139.0370 O   0  0  0  0  0  1  0  0  0  0  0  0
  181.9040  180.1950  138.4610 C   0  0  0  0  0  3  0  0  0  0  0  0
  182.7560  179.1490  138.0920 C   0  0  0  0  0  0  0  0  0  0  0  0
  182.2150  177.9730  137.5540 C   0  0  0  0  0  3  0  0  0  0  0  0
  180.3110  176.6960  136.9020 F   0  0  0  0  0  0  0  0  0  0  0  0
  179.9830  178.8840  137.7830 C   0  0  0  0  0  3  0  0  0  0  0  0
  180.8300  177.8400  137.4050 C   0  0  0  0  0  0  0  0  0  0  0  0
  180.5200  180.0620  138.3100 C   0  0  0  0  0  3  0  0  0  0  0  0
  189.7230  177.7290  140.6980 C   0  0  0  0  0  2  0  0  0  0  0  0
  190.0110  176.8150  141.8810 C   0  0  0  0  0  2  0  0  0  0  0  0
  191.3980  176.9540  142.2920 N   0  0  0  0  0  2  0  0  0  0  0  0
  191.4500  178.0310  143.2670 C   0  0  0  0  0  2  0  0  0  0  0  0
  191.2650  177.3460  144.9380 S   0  0  0  0  0  1  0  0  0  0  0  0
  188.2550  177.2190  136.0160 C   0  0  1  0  0  3  0  0  0  0  0  0
  189.1130  174.6980  136.1120 C   0  0  0  0  0  1  0  0  0  0  0  0
  190.6790  176.6430  136.6360 C   0  0  0  0  0  2  0  0  0  0  0  0
  189.3870  176.1920  136.0850 C   0  0  2  0  0  0  0  0  0  0  0  0
  190.4630  176.5160  135.2460 O   0  0  0  0  0  0  0  0  0  0  0  0
  187.3200  176.9750  134.8350 C   0  0  0  0  0  2  0  0  0  0  0  0
  186.6820  178.2730  134.3940 C   0  0  0  0  0  1  0  0  0  0  0  0
  1 16  2  0  0  0  0
  2 13  1  0  0  0  0
  2  6  2  0  0  0  0
  3  7  1  0  0  0  0
  4  6  1  0  0  0  0
  5  2  1  1  0  0  0
  6  8  1  0  0  0  0
  7 17  1  6  0  0  0
  7  5  1  0  0  0  0
  9 26  1  6  0  0  0
  9  4  1  0  0  0  0
 10 13  2  0  0  0  0
 11  8  1  0  0  0  0
 12  3  1  0  0  0  0
 13 11  1  0  0  0  0
 14 16  1  6  0  0  0
 14  5  1  0  0  0  0
 14  9  1  0  0  0  0
 15 12  1  0  0  0  0
 15 16  1  0  0  0  0
 17 18  1  1  0  0  0
 20 17  1  0  0  0  0
 20 19  2  0  0  0  0
 21 20  1  0  0  0  0
 22 24  1  0  0  0  0
 23 25  2  0  0  0  0
 24 21  2  0  0  0  0
 24 23  1  0  0  0  0
 25 19  1  0  0  0  0
 26 27  1  0  0  0  0
 27 28  1  0  0  0  0
 28 29  1  0  0  0  0
 29 30  1  0  0  0  0
 31 36  1  6  0  0  0
 31 34  1  0  0  0  0
 31 15  1  0  0  0  0
 34 32  1  1  0  0  0
 34 33  1  0  0  0  0
 35 34  1  0  0  0  0
 35 33  1  0  0  0  0
 37 36  1  0  0  0  0
M  END
>  <MODEL>
3

>  <REMARK>
 VINA RESULT:      -6.5      4.011      9.008
  Name = 
  9 active torsions:
  status: ('A' for Active; 'I' for Inactive)
    1  A    between atoms: C_3  and  N_21
    2  A    between atoms: C_6  and  C_31
    3  A    between atoms: C_11  and  C_26
    4  A    between atoms: C_14  and  C_31
    5  A    between atoms: C_17  and  C_26
    6  A    between atoms: C_20  and  C_25
    7  A    between atoms: N_21  and  C_30
    8  A    between atoms: C_25  and  C_30
    9  A    between atoms: C_26  and  N_33
                            x       y       z     vdW  Elec       q    Type
                         _______ _______ _______ _____ _____    ______ ____

>  <TORSDO>
F 9

$$$$
=
 OpenBabel10272414473D

 37 41  0  0  1  0  0  0  0  0999 V2000
  184.8830  179.5430  138.5030 O   0  0  0  0  0  0  0  0  0  0  0  0
  183.9240  178.6250  142.8810 C   0  0  0  0  0  0  0  0  0  0  0  0
  181.7810  177.1850  140.0020 C   0  0  0  0  0  2  0  0  0  0  0  0
  186.3610  178.3650  142.4260 C   0  0  0  0  0  2  0  0  0  0  0  0
  183.5940  178.6990  141.4000 C   0  0  2  0  0  3  0  0  0  0  0  0
  185.1800  178.6170  143.3160 C   0  0  0  0  0  0  0  0  0  0  0  0
  182.1450  178.2690  141.0470 C   0  0  1  0  0  3  0  0  0  0  0  0
  185.3320  178.7020  144.7240 N   0  0  0  0  0  2  0  0  0  0  0  0
  186.0990  178.7710  140.9730 C   0  0  2  0  0  3  0  0  0  0  0  0
  181.8300  178.1020  144.0120 C   0  0  0  0  0  2  0  0  0  0  0  0
  183.8110  179.0840  145.5390 S   0  0  0  0  0  0  0  0  0  0  0  0
  182.8860  176.5830  139.1420 C   0  0  0  0  0  2  0  0  0  0  0  0
  182.9710  178.7750  143.9900 C   0  0  0  0  0  0  0  0  0  0  0  0
  184.7440  178.2110  140.5060 C   0  0  2  0  0  3  0  0  0  0  0  0
  183.5600  177.6200  138.3690 N   0  0  0  0  0  0  0  0  0  0  0  0
  184.4380  178.5050  139.0660 C   0  0  0  0  0  0  0  0  0  0  0  0
  181.2070  179.4780  141.0030 C   0  0  2  0  0  3  0  0  0  0  0  0
  179.9820  179.1870  141.6140 O   0  0  0  0  0  1  0  0  0  0  0  0
  180.1950  179.3150  138.7230 C   0  0  0  0  0  3  0  0  0  0  0  0
  181.0070  180.0180  139.6180 C   0  0  0  0  0  0  0  0  0  0  0  0
  181.5960  181.2260  139.2170 C   0  0  0  0  0  3  0  0  0  0  0  0
  181.9690  182.8720  137.5350 F   0  0  0  0  0  0  0  0  0  0  0  0
  180.5800  181.0050  137.0300 C   0  0  0  0  0  3  0  0  0  0  0  0
  181.3860  181.7140  137.9230 C   0  0  0  0  0  0  0  0  0  0  0  0
  179.9840  179.8060  137.4300 C   0  0  0  0  0  3  0  0  0  0  0  0
  187.2270  178.2200  140.1080 C   0  0  0  0  0  2  0  0  0  0  0  0
  188.5110  178.0850  140.9160 C   0  0  0  0  0  2  0  0  0  0  0  0
  189.6430  177.8980  140.0230 N   0  0  0  0  0  2  0  0  0  0  0  0
  190.4670  176.8440  140.5920 C   0  0  0  0  0  2  0  0  0  0  0  0
  190.7350  177.1690  142.3580 S   0  0  0  0  0  1  0  0  0  0  0  0
  183.5200  177.6240  136.9080 C   0  0  1  0  0  3  0  0  0  0  0  0
  185.0620  175.4510  136.8630 C   0  0  0  0  0  1  0  0  0  0  0  0
  185.7440  177.5760  135.6260 C   0  0  0  0  0  2  0  0  0  0  0  0
  184.6880  176.8230  136.3290 C   0  0  2  0  0  0  0  0  0  0  0  0
  184.7370  176.8750  134.9280 O   0  0  0  0  0  0  0  0  0  0  0  0
  182.1690  177.1340  136.3950 C   0  0  0  0  0  2  0  0  0  0  0  0
  181.8090  177.8390  135.1070 C   0  0  0  0  0  1  0  0  0  0  0  0
  1 16  2  0  0  0  0
  2  6  2  0  0  0  0
  2 13  1  0  0  0  0
  3  7  1  0  0  0  0
  4  6  1  0  0  0  0
  5  2  1  1  0  0  0
  6  8  1  0  0  0  0
  7 17  1  6  0  0  0
  7  5  1  0  0  0  0
  8 11  1  0  0  0  0
  9 26  1  6  0  0  0
  9  4  1  0  0  0  0
 12  3  1  0  0  0  0
 13 10  2  0  0  0  0
 13 11  1  0  0  0  0
 14 16  1  6  0  0  0
 14  9  1  0  0  0  0
 14  5  1  0  0  0  0
 15 16  1  0  0  0  0
 15 12  1  0  0  0  0
 17 18  1  6  0  0  0
 19 20  1  0  0  0  0
 20 17  1  0  0  0  0
 21 20  2  0  0  0  0
 22 24  1  0  0  0  0
 23 25  1  0  0  0  0
 23 24  2  0  0  0  0
 24 21  1  0  0  0  0
 25 19  2  0  0  0  0
 26 27  1  0  0  0  0
 28 29  1  0  0  0  0
 28 27  1  0  0  0  0
 29 30  1  0  0  0  0
 31 36  1  1  0  0  0
 31 15  1  0  0  0  0
 33 34  1  0  0  0  0
 34 32  1  1  0  0  0
 34 31  1  0  0  0  0
 35 33  1  0  0  0  0
 35 34  1  0  0  0  0
 37 36  1  0  0  0  0
M  END
>  <MODEL>
4

>  <REMARK>
 VINA RESULT:      -6.4      4.039      8.776
  Name = 
  9 active torsions:
  status: ('A' for Active; 'I' for Inactive)
    1  A    between atoms: C_3  and  N_21
    2  A    between atoms: C_6  and  C_31
    3  A    between atoms: C_11  and  C_26
    4  A    between atoms: C_14  and  C_31
    5  A    between atoms: C_17  and  C_26
    6  A    between atoms: C_20  and  C_25
    7  A    between atoms: N_21  and  C_30
    8  A    between atoms: C_25  and  C_30
    9  A    between atoms: C_26  and  N_33
                            x       y       z     vdW  Elec       q    Type
                         _______ _______ _______ _____ _____    ______ ____

>  <TORSDO>
F 9

$$$$
=
 OpenBabel10272414473D

 37 41  0  0  1  0  0  0  0  0999 V2000
  188.5020  175.5210  138.3410 O   0  0  0  0  0  0  0  0  0  0  0  0
  192.8080  174.7460  137.0060 C   0  0  0  0  0  0  0  0  0  0  0  0
  189.9330  175.0860  134.4430 C   0  0  0  0  0  2  0  0  0  0  0  0
  192.7170  176.5450  138.7290 C   0  0  0  0  0  2  0  0  0  0  0  0
  191.3040  174.7810  136.8010 C   0  0  2  0  0  3  0  0  0  0  0  0
  193.3980  175.4440  137.9710 C   0  0  0  0  0  0  0  0  0  0  0  0
  190.8370  174.2800  135.4080 C   0  0  1  0  0  3  0  0  0  0  0  0
  194.7840  175.1910  138.1390 N   0  0  0  0  0  2  0  0  0  0  0  0
  191.1970  176.3650  138.7870 C   0  0  2  0  0  3  0  0  0  0  0  0
  193.7270  173.6180  135.0510 C   0  0  0  0  0  2  0  0  0  0  0  0
  195.3280  173.7950  137.2010 S   0  0  0  0  0  0  0  0  0  0  0  0
  189.3250  176.4000  134.9190 C   0  0  0  0  0  2  0  0  0  0  0  0
  193.7490  173.8190  136.3600 C   0  0  0  0  0  0  0  0  0  0  0  0
  190.6510  176.0440  137.3850 C   0  0  2  0  0  3  0  0  0  0  0  0
  188.4950  176.1860  136.1000 N   0  0  0  0  0  0  0  0  0  0  0  0
  189.1550  175.9200  137.3380 C   0  0  0  0  0  0  0  0  0  0  0  0
  190.4880  172.7900  135.4480 C   0  0  2  0  0  3  0  0  0  0  0  0
  191.0300  172.1170  134.3480 O   0  0  0  0  0  1  0  0  0  0  0  0
  188.3130  172.0540  134.4580 C   0  0  0  0  0  3  0  0  0  0  0  0
  189.0150  172.5340  135.5680 C   0  0  0  0  0  0  0  0  0  0  0  0
  188.3390  172.7400  136.7790 C   0  0  0  0  0  3  0  0  0  0  0  0
  186.3140  172.6990  138.0350 F   0  0  0  0  0  0  0  0  0  0  0  0
  186.2680  172.0110  135.7560 C   0  0  0  0  0  3  0  0  0  0  0  0
  186.9670  172.4830  136.8700 C   0  0  0  0  0  0  0  0  0  0  0  0
  186.9420  171.7960  134.5510 C   0  0  0  0  0  3  0  0  0  0  0  0
  190.5800  177.6560  139.3130 C   0  0  0  0  0  2  0  0  0  0  0  0
  190.3510  177.5720  140.8160 C   0  0  0  0  0  2  0  0  0  0  0  0
  190.1840  176.1860  141.2170 N   0  0  0  0  0  2  0  0  0  0  0  0
  190.2320  176.1500  142.6700 C   0  0  0  0  0  2  0  0  0  0  0  0
  188.5910  176.5410  143.3410 S   0  0  0  0  0  1  0  0  0  0  0  0
  187.0580  176.4510  136.0760 C   0  0  1  0  0  3  0  0  0  0  0  0
  187.5680  179.0130  136.6030 C   0  0  0  0  0  1  0  0  0  0  0  0
  185.9480  177.6680  138.0450 C   0  0  0  0  0  2  0  0  0  0  0  0
  186.7330  177.7600  136.7990 C   0  0  2  0  0  0  0  0  0  0  0  0
  185.3580  178.0400  136.8170 O   0  0  0  0  0  0  0  0  0  0  0  0
  186.5210  176.4270  134.6470 C   0  0  0  0  0  2  0  0  0  0  0  0
  185.6210  175.2290  134.4440 C   0  0  0  0  0  1  0  0  0  0  0  0
  2  6  2  0  0  0  0
  3 12  1  0  0  0  0
  3  7  1  0  0  0  0
  4  9  1  0  0  0  0
  5  2  1  6  0  0  0
  5 14  1  0  0  0  0
  6  8  1  0  0  0  0
  6  4  1  0  0  0  0
  7 17  1  1  0  0  0
  7  5  1  0  0  0  0
  9 26  1  6  0  0  0
 10 13  2  0  0  0  0
 11  8  1  0  0  0  0
 12 15  1  0  0  0  0
 13  2  1  0  0  0  0
 13 11  1  0  0  0  0
 14 16  1  1  0  0  0
 14  9  1  0  0  0  0
 15 16  1  0  0  0  0
 16  1  2  0  0  0  0
 17 18  1  6  0  0  0
 17 20  1  0  0  0  0
 19 25  2  0  0  0  0
 19 20  1  0  0  0  0
 20 21  2  0  0  0  0
 21 24  1  0  0  0  0
 23 24  2  0  0  0  0
 24 22  1  0  0  0  0
 25 23  1  0  0  0  0
 26 27  1  0  0  0  0
 27 28  1  0  0  0  0
 28 29  1  0  0  0  0
 29 30  1  0  0  0  0
 31 36  1  6  0  0  0
 31 15  1  0  0  0  0
 31 34  1  0  0  0  0
 34 32  1  6  0  0  0
 34 35  1  0  0  0  0
 34 33  1  0  0  0  0
 35 33  1  0  0  0  0
 37 36  1  0  0  0  0
M  END
>  <MODEL>
5

>  <REMARK>
 VINA RESULT:      -6.2      5.260      8.836
  Name = 
  9 active torsions:
  status: ('A' for Active; 'I' for Inactive)
    1  A    between atoms: C_3  and  N_21
    2  A    between atoms: C_6  and  C_31
    3  A    between atoms: C_11  and  C_26
    4  A    between atoms: C_14  and  C_31
    5  A    between atoms: C_17  and  C_26
    6  A    between atoms: C_20  and  C_25
    7  A    between atoms: N_21  and  C_30
    8  A    between atoms: C_25  and  C_30
    9  A    between atoms: C_26  and  N_33
                            x       y       z     vdW  Elec       q    Type
                         _______ _______ _______ _____ _____    ______ ____

>  <TORSDO>
F 9

$$$$
=
 OpenBabel10272414473D

 37 41  0  0  1  0  0  0  0  0999 V2000
  186.4190  179.6370  141.3900 O   0  0  0  0  0  0  0  0  0  0  0  0
  190.4600  177.5340  140.9760 C   0  0  0  0  0  0  0  0  0  0  0  0
  187.9940  176.6200  143.8100 C   0  0  0  0  0  2  0  0  0  0  0  0
  189.3060  177.6920  138.7730 C   0  0  0  0  0  2  0  0  0  0  0  0
  189.2070  177.9390  141.7310 C   0  0  2  0  0  3  0  0  0  0  0  0
  190.5170  177.5670  139.6480 C   0  0  0  0  0  0  0  0  0  0  0  0
  189.1570  177.4420  143.2000 C   0  0  1  0  0  3  0  0  0  0  0  0
  191.7970  177.3110  139.0920 N   0  0  0  0  0  2  0  0  0  0  0  0
  188.1510  178.4180  139.4680 C   0  0  2  0  0  3  0  0  0  0  0  0
  191.9290  176.4940  142.6200 C   0  0  0  0  0  2  0  0  0  0  0  0
  193.0680  177.2880  140.3200 S   0  0  0  0  0  0  0  0  0  0  0  0
  186.7330  176.3930  142.9840 C   0  0  0  0  0  2  0  0  0  0  0  0
  191.7840  177.2820  141.5650 C   0  0  0  0  0  0  0  0  0  0  0  0
  187.9340  177.8350  140.8760 C   0  0  2  0  0  3  0  0  0  0  0  0
  186.1240  177.6650  142.6120 N   0  0  0  0  0  0  0  0  0  0  0  0
  186.7720  178.4450  141.6050 C   0  0  0  0  0  0  0  0  0  0  0  0
  189.7070  178.5010  144.1600 C   0  0  2  0  0  3  0  0  0  0  0  0
  190.7800  179.1910  143.5860 O   0  0  0  0  0  1  0  0  0  0  0  0
  191.2340  177.1690  145.6230 C   0  0  0  0  0  3  0  0  0  0  0  0
  190.0760  177.9430  145.5020 C   0  0  0  0  0  0  0  0  0  0  0  0
  189.2980  178.2090  146.6380 C   0  0  0  0  0  3  0  0  0  0  0  0
  188.9080  177.9310  148.9720 F   0  0  0  0  0  0  0  0  0  0  0  0
  190.8240  176.9070  147.9960 C   0  0  0  0  0  3  0  0  0  0  0  0
  189.6700  177.6860  147.8810 C   0  0  0  0  0  0  0  0  0  0  0  0
  191.6060  176.6490  146.8670 C   0  0  0  0  0  3  0  0  0  0  0  0
  186.8940  178.2430  138.6230 C   0  0  0  0  0  2  0  0  0  0  0  0
  187.2410  178.1980  137.1420 C   0  0  0  0  0  2  0  0  0  0  0  0
  186.2220  177.4590  136.4140 N   0  0  0  0  0  2  0  0  0  0  0  0
  186.1880  176.1150  136.9690 C   0  0  0  0  0  2  0  0  0  0  0  0
  187.6240  175.1770  136.3750 S   0  0  0  0  0  1  0  0  0  0  0  0
  184.7900  178.0340  143.0800 C   0  0  1  0  0  3  0  0  0  0  0  0
  186.1120  178.7930  145.2660 C   0  0  0  0  0  1  0  0  0  0  0  0
  183.5960  179.1630  145.0520 C   0  0  0  0  0  2  0  0  0  0  0  0
  184.8690  178.8160  144.3930 C   0  0  2  0  0  0  0  0  0  0  0  0
  184.3220  180.1040  144.2890 O   0  0  0  0  0  0  0  0  0  0  0  0
  184.0190  178.7880  142.0000 C   0  0  0  0  0  2  0  0  0  0  0  0
  183.3620  177.8150  141.0470 C   0  0  0  0  0  1  0  0  0  0  0  0
  1 16  2  0  0  0  0
  2 13  1  0  0  0  0
  4  9  1  0  0  0  0
  4  6  1  0  0  0  0
  5  2  1  6  0  0  0
  5  7  1  0  0  0  0
  6  2  2  0  0  0  0
  7  3  1  0  0  0  0
  7 17  1  1  0  0  0
  8  6  1  0  0  0  0
  8 11  1  0  0  0  0
  9 26  1  6  0  0  0
  9 14  1  0  0  0  0
 11 13  1  0  0  0  0
 12  3  1  0  0  0  0
 13 10  2  0  0  0  0
 14 16  1  1  0  0  0
 14  5  1  0  0  0  0
 15 12  1  0  0  0  0
 15 31  1  0  0  0  0
 16 15  1  0  0  0  0
 17 18  1  6  0  0  0
 17 20  1  0  0  0  0
 19 25  1  0  0  0  0
 20 19  2  0  0  0  0
 20 21  1  0  0  0  0
 21 24  2  0  0  0  0
 24 23  1  0  0  0  0
 24 22  1  0  0  0  0
 25 23  2  0  0  0  0
 27 26  1  0  0  0  0
 28 29  1  0  0  0  0
 28 27  1  0  0  0  0
 30 29  1  0  0  0  0
 31 36  1  6  0  0  0
 31 34  1  0  0  0  0
 34 33  1  0  0  0  0
 34 32  1  1  0  0  0
 35 34  1  0  0  0  0
 35 33  1  0  0  0  0
 37 36  1  0  0  0  0
M  END
>  <MODEL>
6

>  <REMARK>
 VINA RESULT:      -6.1      1.682      2.220
  Name = 
  9 active torsions:
  status: ('A' for Active; 'I' for Inactive)
    1  A    between atoms: C_3  and  N_21
    2  A    between atoms: C_6  and  C_31
    3  A    between atoms: C_11  and  C_26
    4  A    between atoms: C_14  and  C_31
    5  A    between atoms: C_17  and  C_26
    6  A    between atoms: C_20  and  C_25
    7  A    between atoms: N_21  and  C_30
    8  A    between atoms: C_25  and  C_30
    9  A    between atoms: C_26  and  N_33
                            x       y       z     vdW  Elec       q    Type
                         _______ _______ _______ _____ _____    ______ ____

>  <TORSDO>
F 9

$$$$
=
 OpenBabel10272414473D

 37 41  0  0  1  0  0  0  0  0999 V2000
  185.7730  179.9290  142.5740 O   0  0  0  0  0  0  0  0  0  0  0  0
  189.2120  177.6320  140.6210 C   0  0  0  0  0  0  0  0  0  0  0  0
  187.8140  176.6120  144.0790 C   0  0  0  0  0  2  0  0  0  0  0  0
  187.3830  178.0630  138.9840 C   0  0  0  0  0  2  0  0  0  0  0  0
  188.3410  178.0410  141.7960 C   0  0  2  0  0  3  0  0  0  0  0  0
  188.8070  177.7840  139.3640 C   0  0  0  0  0  0  0  0  0  0  0  0
  188.7610  177.4140  143.1520 C   0  0  1  0  0  3  0  0  0  0  0  0
  189.7850  177.5030  138.3760 N   0  0  0  0  0  2  0  0  0  0  0  0
  186.6120  178.7900  140.0890 C   0  0  2  0  0  3  0  0  0  0  0  0
  191.0620  176.3570  141.5680 C   0  0  0  0  0  2  0  0  0  0  0  0
  191.3960  177.2900  139.0700 S   0  0  0  0  0  0  0  0  0  0  0  0
  186.3300  176.5390  143.7390 C   0  0  0  0  0  2  0  0  0  0  0  0
  190.6300  177.2470  140.6860 C   0  0  0  0  0  0  0  0  0  0  0  0
  186.8470  178.0940  141.4410 C   0  0  2  0  0  3  0  0  0  0  0  0
  185.7460  177.8750  143.6900 N   0  0  0  0  0  0  0  0  0  0  0  0
  186.0700  178.7030  142.5720 C   0  0  0  0  0  0  0  0  0  0  0  0
  189.7020  178.3440  143.9210 C   0  0  2  0  0  3  0  0  0  0  0  0
  190.7980  178.7150  143.1340 O   0  0  0  0  0  1  0  0  0  0  0  0
  191.3060  176.9950  145.2840 C   0  0  0  0  0  3  0  0  0  0  0  0
  190.1460  177.7750  145.2350 C   0  0  0  0  0  0  0  0  0  0  0  0
  189.4380  178.0360  146.4170 C   0  0  0  0  0  3  0  0  0  0  0  0
  189.1830  177.7420  148.7680 F   0  0  0  0  0  0  0  0  0  0  0  0
  191.0330  176.7170  147.6740 C   0  0  0  0  0  3  0  0  0  0  0  0
  189.8790  177.5020  147.6330 C   0  0  0  0  0  0  0  0  0  0  0  0
  191.7470  176.4640  146.5000 C   0  0  0  0  0  3  0  0  0  0  0  0
  185.1290  178.7710  139.7340 C   0  0  0  0  0  2  0  0  0  0  0  0
  184.9290  178.4120  138.2680 C   0  0  0  0  0  2  0  0  0  0  0  0
  183.5910  177.8860  138.0620 N   0  0  0  0  0  2  0  0  0  0  0  0
  183.6490  176.4540  138.3090 C   0  0  0  0  0  2  0  0  0  0  0  0
  182.1710  175.9350  139.2270 S   0  0  0  0  0  1  0  0  0  0  0  0
  184.6960  178.2780  144.6230 C   0  0  1  0  0  3  0  0  0  0  0  0
  185.9890  180.0630  146.1230 C   0  0  0  0  0  1  0  0  0  0  0  0
  185.6510  177.6640  146.9260 C   0  0  0  0  0  2  0  0  0  0  0  0
  185.2950  178.7210  145.9600 C   0  0  2  0  0  0  0  0  0  0  0  0
  184.4650  178.4210  147.0500 O   0  0  0  0  0  0  0  0  0  0  0  0
  183.7970  179.3470  144.0070 C   0  0  0  0  0  2  0  0  0  0  0  0
  182.4030  178.8020  143.7940 C   0  0  0  0  0  1  0  0  0  0  0  0
  2 13  1  0  0  0  0
  4  6  1  0  0  0  0
  4  9  1  0  0  0  0
  5  2  1  6  0  0  0
  5  7  1  0  0  0  0
  6  2  2  0  0  0  0
  7 17  1  1  0  0  0
  7  3  1  0  0  0  0
  8 11  1  0  0  0  0
  8  6  1  0  0  0  0
  9 26  1  6  0  0  0
  9 14  1  0  0  0  0
 11 13  1  0  0  0  0
 12  3  1  0  0  0  0
 13 10  2  0  0  0  0
 14  5  1  0  0  0  0
 14 16  1  1  0  0  0
 15 12  1  0  0  0  0
 15 31  1  0  0  0  0
 16  1  2  0  0  0  0
 16 15  1  0  0  0  0
 17 18  1  6  0  0  0
 17 20  1  0  0  0  0
 19 25  1  0  0  0  0
 20 19  2  0  0  0  0
 20 21  1  0  0  0  0
 21 24  2  0  0  0  0
 24 23  1  0  0  0  0
 24 22  1  0  0  0  0
 25 23  2  0  0  0  0
 27 26  1  0  0  0  0
 28 27  1  0  0  0  0
 28 29  1  0  0  0  0
 29 30  1  0  0  0  0
 31 36  1  6  0  0  0
 31 34  1  0  0  0  0
 33 35  1  0  0  0  0
 34 32  1  1  0  0  0
 34 33  1  0  0  0  0
 34 35  1  0  0  0  0
 37 36  1  0  0  0  0
M  END
>  <MODEL>
7

>  <REMARK>
 VINA RESULT:      -6.1      0.793      1.665
  Name = 
  9 active torsions:
  status: ('A' for Active; 'I' for Inactive)
    1  A    between atoms: C_3  and  N_21
    2  A    between atoms: C_6  and  C_31
    3  A    between atoms: C_11  and  C_26
    4  A    between atoms: C_14  and  C_31
    5  A    between atoms: C_17  and  C_26
    6  A    between atoms: C_20  and  C_25
    7  A    between atoms: N_21  and  C_30
    8  A    between atoms: C_25  and  C_30
    9  A    between atoms: C_26  and  N_33
                            x       y       z     vdW  Elec       q    Type
                         _______ _______ _______ _____ _____    ______ ____

>  <TORSDO>
F 9

$$$$
=
 OpenBabel10272414473D

 37 41  0  0  1  0  0  0  0  0999 V2000
  190.1340  174.2900  137.7220 O   0  0  0  0  0  0  0  0  0  0  0  0
  188.1040  177.8030  139.8350 C   0  0  0  0  0  0  0  0  0  0  0  0
  191.9330  177.2880  140.0040 C   0  0  0  0  0  2  0  0  0  0  0  0
  187.2470  177.5430  137.5100 C   0  0  0  0  0  2  0  0  0  0  0  0
  189.2570  176.8470  139.5820 C   0  0  2  0  0  3  0  0  0  0  0  0
  187.1410  177.9880  138.9380 C   0  0  0  0  0  0  0  0  0  0  0  0
  190.4840  177.0680  140.5070 C   0  0  1  0  0  3  0  0  0  0  0  0
  186.0540  178.7880  139.3750 N   0  0  0  0  0  2  0  0  0  0  0  0
  188.1790  176.3410  137.3360 C   0  0  2  0  0  3  0  0  0  0  0  0
  188.7050  179.0680  141.8300 C   0  0  0  0  0  2  0  0  0  0  0  0
  186.1160  179.1100  141.1120 S   0  0  0  0  0  0  0  0  0  0  0  0
  192.2330  177.1400  138.5170 C   0  0  0  0  0  2  0  0  0  0  0  0
  187.7770  178.4470  141.1160 C   0  0  0  0  0  0  0  0  0  0  0  0
  189.4990  176.5860  138.0880 C   0  0  2  0  0  3  0  0  0  0  0  0
  191.8870  175.8010  138.0530 N   0  0  0  0  0  0  0  0  0  0  0  0
  190.5020  175.4810  137.9130 C   0  0  0  0  0  0  0  0  0  0  0  0
  190.4120  176.1680  141.7430 C   0  0  2  0  0  3  0  0  0  0  0  0
  189.2340  175.4140  141.7480 O   0  0  0  0  0  1  0  0  0  0  0  0
  191.6060  177.8640  143.1380 C   0  0  0  0  0  3  0  0  0  0  0  0
  190.5800  176.9210  143.0290 C   0  0  0  0  0  0  0  0  0  0  0  0
  189.7090  176.7180  144.1090 C   0  0  0  0  0  3  0  0  0  0  0  0
  189.0470  177.2300  146.3400 F   0  0  0  0  0  0  0  0  0  0  0  0
  190.9100  178.3760  145.4000 C   0  0  0  0  0  3  0  0  0  0  0  0
  189.8790  177.4410  145.2940 C   0  0  0  0  0  0  0  0  0  0  0  0
  191.7730  178.5890  144.3220 C   0  0  0  0  0  3  0  0  0  0  0  0
  188.4450  176.1490  135.8470 C   0  0  0  0  0  2  0  0  0  0  0  0
  187.4440  175.1750  135.2410 C   0  0  0  0  0  2  0  0  0  0  0  0
  187.0700  174.1700  136.2230 N   0  0  0  0  0  2  0  0  0  0  0  0
  185.6310  173.9900  136.1250 C   0  0  0  0  0  2  0  0  0  0  0  0
  185.0190  173.1630  137.6210 S   0  0  0  0  0  1  0  0  0  0  0  0
  192.9060  174.8910  137.5350 C   0  0  1  0  0  3  0  0  0  0  0  0
  192.8390  176.1560  135.1910 C   0  0  0  0  0  1  0  0  0  0  0  0
  192.4340  173.6410  135.3430 C   0  0  0  0  0  2  0  0  0  0  0  0
  192.8980  174.8750  136.0050 C   0  0  2  0  0  0  0  0  0  0  0  0
  193.8060  173.9500  135.4690 O   0  0  0  0  0  0  0  0  0  0  0  0
  194.2820  175.2280  138.1050 C   0  0  0  0  0  2  0  0  0  0  0  0
  195.0230  173.9620  138.4710 C   0  0  0  0  0  1  0  0  0  0  0  0
  1 16  2  0  0  0  0
  2 13  1  0  0  0  0
  3  7  1  0  0  0  0
  4  6  1  0  0  0  0
  5  2  1  6  0  0  0
  5  7  1  0  0  0  0
  6  8  1  0  0  0  0
  6  2  2  0  0  0  0
  7 17  1  1  0  0  0
  8 11  1  0  0  0  0
  9 26  1  6  0  0  0
  9  4  1  0  0  0  0
  9 14  1  0  0  0  0
 11 13  1  0  0  0  0
 12  3  1  0  0  0  0
 13 10  2  0  0  0  0
 14 16  1  1  0  0  0
 14  5  1  0  0  0  0
 15 12  1  0  0  0  0
 16 15  1  0  0  0  0
 17 18  1  1  0  0  0
 17 20  1  0  0  0  0
 19 25  1  0  0  0  0
 20 19  2  0  0  0  0
 20 21  1  0  0  0  0
 21 24  2  0  0  0  0
 24 23  1  0  0  0  0
 24 22  1  0  0  0  0
 25 23  2  0  0  0  0
 27 26  1  0  0  0  0
 27 28  1  0  0  0  0
 29 28  1  0  0  0  0
 29 30  1  0  0  0  0
 31 15  1  0  0  0  0
 31 36  1  6  0  0  0
 33 35  1  0  0  0  0
 33 34  1  0  0  0  0
 34 32  1  6  0  0  0
 34 31  1  0  0  0  0
 35 34  1  0  0  0  0
 36 37  1  0  0  0  0
M  END
>  <MODEL>
8

>  <REMARK>
 VINA RESULT:      -5.9      3.771      7.085
  Name = 
  9 active torsions:
  status: ('A' for Active; 'I' for Inactive)
    1  A    between atoms: C_3  and  N_21
    2  A    between atoms: C_6  and  C_31
    3  A    between atoms: C_11  and  C_26
    4  A    between atoms: C_14  and  C_31
    5  A    between atoms: C_17  and  C_26
    6  A    between atoms: C_20  and  C_25
    7  A    between atoms: N_21  and  C_30
    8  A    between atoms: C_25  and  C_30
    9  A    between atoms: C_26  and  N_33
                            x       y       z     vdW  Elec       q    Type
                         _______ _______ _______ _____ _____    ______ ____

>  <TORSDO>
F 9

$$$$
=
 OpenBabel10272414473D

 37 41  0  0  1  0  0  0  0  0999 V2000
  186.7820  176.1340  143.6260 O   0  0  0  0  0  0  0  0  0  0  0  0
  189.2250  177.4850  140.0020 C   0  0  0  0  0  0  0  0  0  0  0  0
  186.2070  179.5380  141.2770 C   0  0  0  0  0  2  0  0  0  0  0  0
  190.7140  176.7870  141.8740 C   0  0  0  0  0  2  0  0  0  0  0  0
  188.0000  177.4950  140.8990 C   0  0  2  0  0  3  0  0  0  0  0  0
  190.3990  177.0300  140.4280 C   0  0  0  0  0  0  0  0  0  0  0  0
  186.8600  178.4300  140.4140 C   0  0  1  0  0  3  0  0  0  0  0  0
  191.4080  176.9390  139.4350 N   0  0  0  0  0  2  0  0  0  0  0  0
  189.4670  176.4650  142.7020 C   0  0  2  0  0  3  0  0  0  0  0  0
  188.6290  178.7980  138.0370 C   0  0  0  0  0  2  0  0  0  0  0  0
  190.7680  177.1880  137.8060 S   0  0  0  0  0  0  0  0  0  0  0  0
  186.5820  179.6490  142.7510 C   0  0  0  0  0  2  0  0  0  0  0  0
  189.2410  177.7430  138.5540 C   0  0  0  0  0  0  0  0  0  0  0  0
  188.3540  177.4820  142.3950 C   0  0  2  0  0  3  0  0  0  0  0  0
  186.2730  178.4100  143.4550 N   0  0  0  0  0  0  0  0  0  0  0  0
  187.1140  177.2800  143.2170 C   0  0  0  0  0  0  0  0  0  0  0  0
  185.8470  177.6660  139.5580 C   0  0  2  0  0  3  0  0  0  0  0  0
  186.2460  177.6320  138.2170 O   0  0  0  0  0  1  0  0  0  0  0  0
  183.6200  177.6690  140.6930 C   0  0  0  0  0  3  0  0  0  0  0  0
  184.4490  178.1900  139.6940 C   0  0  0  0  0  0  0  0  0  0  0  0
  183.9700  179.2100  138.8600 C   0  0  0  0  0  3  0  0  0  0  0  0
  182.2020  180.6630  138.1960 F   0  0  0  0  0  0  0  0  0  0  0  0
  181.8390  179.1610  140.0080 C   0  0  0  0  0  3  0  0  0  0  0  0
  182.6660  179.6900  139.0150 C   0  0  0  0  0  0  0  0  0  0  0  0
  182.3160  178.1520  140.8480 C   0  0  0  0  0  3  0  0  0  0  0  0
  189.8420  176.5200  144.1790 C   0  0  0  0  0  2  0  0  0  0  0  0
  191.3420  176.7180  144.3480 C   0  0  0  0  0  2  0  0  0  0  0  0
  191.6070  177.5450  145.5130 N   0  0  0  0  0  2  0  0  0  0  0  0
  190.9510  176.9130  146.6470 C   0  0  0  0  0  2  0  0  0  0  0  0
  192.1130  175.7880  147.4710 S   0  0  0  0  0  1  0  0  0  0  0  0
  185.2850  178.3750  144.5320 C   0  0  1  0  0  3  0  0  0  0  0  0
  187.4680  178.3970  146.0590 C   0  0  0  0  0  1  0  0  0  0  0  0
  185.1400  178.2180  147.0900 C   0  0  0  0  0  2  0  0  0  0  0  0
  185.9620  178.5030  145.8980 C   0  0  2  0  0  0  0  0  0  0  0  0
  185.4200  179.5380  146.6750 O   0  0  0  0  0  0  0  0  0  0  0  0
  184.2040  179.4310  144.3170 C   0  0  0  0  0  2  0  0  0  0  0  0
  182.8350  178.7910  144.3250 C   0  0  0  0  0  1  0  0  0  0  0  0
  2  6  2  0  0  0  0
  3 12  1  0  0  0  0
  4  9  1  0  0  0  0
  5  2  1  6  0  0  0
  5 14  1  0  0  0  0
  6  4  1  0  0  0  0
  7 17  1  1  0  0  0
  7  5  1  0  0  0  0
  7  3  1  0  0  0  0
  8  6  1  0  0  0  0
  9 26  1  1  0  0  0
 10 13  2  0  0  0  0
 11 13  1  0  0  0  0
 11  8  1  0  0  0  0
 12 15  1  0  0  0  0
 13  2  1  0  0  0  0
 14  9  1  0  0  0  0
 14 16  1  1  0  0  0
 15 31  1  0  0  0  0
 16 15  1  0  0  0  0
 16  1  2  0  0  0  0
 17 18  1  6  0  0  0
 17 20  1  0  0  0  0
 19 25  1  0  0  0  0
 20 19  2  0  0  0  0
 21 24  2  0  0  0  0
 21 20  1  0  0  0  0
 22 24  1  0  0  0  0
 23 25  2  0  0  0  0
 24 23  1  0  0  0  0
 26 27  1  0  0  0  0
 27 28  1  0  0  0  0
 28 29  1  0  0  0  0
 29 30  1  0  0  0  0
 31 36  1  6  0  0  0
 31 34  1  0  0  0  0
 34 32  1  1  0  0  0
 34 35  1  0  0  0  0
 34 33  1  0  0  0  0
 35 33  1  0  0  0  0
 36 37  1  0  0  0  0
M  END
>  <MODEL>
9

>  <REMARK>
 VINA RESULT:      -5.8      3.261      6.720
  Name = 
  9 active torsions:
  status: ('A' for Active; 'I' for Inactive)
    1  A    between atoms: C_3  and  N_21
    2  A    between atoms: C_6  and  C_31
    3  A    between atoms: C_11  and  C_26
    4  A    between atoms: C_14  and  C_31
    5  A    between atoms: C_17  and  C_26
    6  A    between atoms: C_20  and  C_25
    7  A    between atoms: N_21  and  C_30
    8  A    between atoms: C_25  and  C_30
    9  A    between atoms: C_26  and  N_33
                            x       y       z     vdW  Elec       q    Type
                         _______ _______ _______ _____ _____    ______ ____

>  <TORSDO>
F 9

$$$$
