=
 OpenBabel10272401283D

 55 59  0  0  1  0  0  0  0  0999 V2000
  182.9370  176.6760  139.1280 C   0  0  0  0  0  2  0  0  0  0  0  0
  187.6550  178.0360  138.0210 C   0  0  0  0  0  3  0  0  0  0  0  0
  187.9380  177.3690  140.6750 O   0  0  0  0  0  0  0  0  0  0  0  0
  189.5510  176.4450  134.3460 O   0  0  0  0  0  0  0  0  0  0  0  0
  189.2400  176.9240  135.4710 C   0  0  0  0  0  0  0  0  0  0  0  0
  185.8070  178.4600  144.2730 C   0  0  0  0  0  3  0  0  0  0  0  0
  185.4840  178.8900  145.6810 C   0  0  0  0  0  2  0  0  0  0  0  0
  183.3960  178.4930  143.6410 C   0  0  2  0  0  3  0  0  0  0  0  0
  183.1380  179.2540  144.9360 C   0  0  0  0  0  2  0  0  0  0  0  0
  186.3090  178.9700  141.3440 C   0  0  0  0  0  2  0  0  0  0  0  0
  184.0150  178.6670  146.0330 C   0  0  0  0  0  2  0  0  0  0  0  0
  182.2360  176.5560  136.7510 C   0  0  0  0  0  3  0  0  0  0  0  0
  184.8730  178.3750  143.3050 C   0  0  0  0  0  0  0  0  0  0  0  0
  184.8210  175.9440  135.8820 C   0  0  0  0  0  0  0  0  0  0  0  0
  184.1170  176.9790  140.0000 C   0  0  0  0  0  3  0  0  0  0  0  0
  184.5740  176.1560  137.2440 C   0  0  0  0  0  3  0  0  0  0  0  0
  182.9280  178.7770  141.2350 C   0  0  0  0  0  0  0  0  0  0  0  0
  187.6170  178.4990  136.6100 C   0  0  0  0  0  2  0  0  0  0  0  0
  182.6340  179.0970  142.5020 C   0  0  0  0  0  3  0  0  0  0  0  0
  187.0960  178.7230  138.9610 N   0  0  0  0  0  0  0  0  0  0  0  0
  187.1650  178.3030  140.3250 C   0  0  0  0  0  0  0  0  0  0  0  0
  182.4830  176.3460  135.3930 C   0  0  0  0  0  3  0  0  0  0  0  0
  187.8980  177.3900  135.7060 N   0  0  0  0  0  0  0  0  0  0  0  0
  183.2780  176.4730  137.6830 C   0  0  0  0  0  0  0  0  0  0  0  0
  185.2880  177.9780  141.9020 C   0  0  1  0  0  3  0  0  0  0  0  0
  184.0960  177.8910  140.9790 C   0  0  0  0  0  0  0  0  0  0  0  0
  186.8150  176.9390  134.8420 C   0  0  0  0  0  2  0  0  0  0  0  0
  186.2040  175.6650  135.4030 C   0  0  0  0  0  2  0  0  0  0  0  0
  183.7730  176.0430  134.9590 C   0  0  0  0  0  3  0  0  0  0  0  0
  180.7610  179.5270  140.1970 C   0  0  0  0  0  2  0  0  0  0  0  0
  180.8570  180.3620  137.8450 C   0  0  2  0  0  3  0  0  0  0  0  0
  182.9540  180.2490  139.2140 C   0  0  0  0  0  2  0  0  0  0  0  0
  182.3660  180.1280  137.8120 C   0  0  0  0  0  2  0  0  0  0  0  0
  180.1860  179.3720  138.7940 C   0  0  0  0  0  2  0  0  0  0  0  0
  182.2180  179.4010  140.1520 N   0  0  0  0  0  0  0  0  0  0  0  0
  180.2730  180.2440  136.4770 C   0  0  0  0  0  0  0  0  0  0  0  0
  180.0600  181.2690  135.7750 O   0  0  0  0  0  0  0  0  0  0  0  0
  179.9850  178.9540  135.9460 N   0  0  0  0  0  1  0  0  0  0  0  0
  190.5080  177.0400  136.7470 S   0  0  0  0  0  0  0  0  0  0  0  0
  190.8130  175.2340  136.9130 C   0  0  2  0  0  0  0  0  0  0  0  0
  189.5740  174.5020  136.4220 C   0  0  0  0  0  1  0  0  0  0  0  0
  191.0490  174.8610  138.2550 O   0  0  0  0  0  0  0  0  0  0  0  0
  191.0770  175.9700  138.9730 O   0  0  0  0  0  1  0  0  0  0  0  0
  191.9900  174.8600  135.9970 C   0  0  0  0  0  2  0  0  0  0  0  0
  194.1150  175.9660  136.1300 O   0  0  0  0  0  1  0  0  0  0  0  0
  193.3520  174.9400  136.6960 C   0  0  2  0  0  3  0  0  0  0  0  0
  194.1190  173.6010  136.6660 C   0  0  1  0  0  0  0  0  0  0  0  0
  193.1940  172.4910  136.1840 C   0  0  0  0  0  1  0  0  0  0  0  0
  195.2990  173.6960  135.7380 C   0  0  0  0  0  3  0  0  0  0  0  0
  196.0000  172.7230  135.5000 O   0  0  0  0  0  0  0  0  0  0  0  0
  194.6240  173.2580  138.0700 C   0  0  0  0  0  2  0  0  0  0  0  0
  196.0500  173.2270  138.1200 O   0  0  0  0  0  0  0  0  0  0  0  0
  196.8140  174.2000  138.7730 C   0  0  0  0  0  0  0  0  0  0  0  0
  198.1030  174.6300  138.1720 C   0  0  0  0  0  1  0  0  0  0  0  0
  196.4240  174.7490  139.9200 C   0  0  0  0  0  2  0  0  0  0  0  0
  1 15  1  0  0  0  0
  2 20  2  0  0  0  0
  4  5  2  0  0  0  0
  5 23  1  0  0  0  0
  5 39  1  0  0  0  0
  6  7  1  0  0  0  0
  7 11  1  0  0  0  0
  8 19  1  6  0  0  0
  8  9  1  0  0  0  0
  9 11  1  0  0  0  0
 12 24  1  0  0  0  0
 13  8  1  0  0  0  0
 13  6  2  0  0  0  0
 14 16  1  0  0  0  0
 15 26  2  0  0  0  0
 16 24  2  0  0  0  0
 17 19  2  0  0  0  0
 18  2  1  0  0  0  0
 20 21  1  0  0  0  0
 21  3  2  0  0  0  0
 21 10  1  0  0  0  0
 22 12  2  0  0  0  0
 23 18  1  0  0  0  0
 24  1  1  0  0  0  0
 25 10  1  6  0  0  0
 25 13  1  0  0  0  0
 26 17  1  0  0  0  0
 26 25  1  0  0  0  0
 27 28  1  0  0  0  0
 27 23  1  0  0  0  0
 28 14  1  0  0  0  0
 29 22  1  0  0  0  0
 29 14  2  0  0  0  0
 31 36  1  6  0  0  0
 31 34  1  0  0  0  0
 32 35  1  0  0  0  0
 33 31  1  0  0  0  0
 33 32  1  0  0  0  0
 34 30  1  0  0  0  0
 35 30  1  0  0  0  0
 35 17  1  0  0  0  0
 37 36  2  0  0  0  0
 38 36  1  0  0  0  0
 39 40  1  0  0  0  0
 40 41  1  6  0  0  0
 40 42  1  0  0  0  0
 42 43  1  0  0  0  0
 44 46  1  0  0  0  0
 44 40  1  0  0  0  0
 46 45  1  6  0  0  0
 47 48  1  6  0  0  0
 47 46  1  0  0  0  0
 47 51  1  0  0  0  0
 49 47  1  0  0  0  0
 50 49  2  0  0  0  0
 51 52  1  0  0  0  0
 52 53  1  0  0  0  0
 53 55  2  0  0  0  0
 54 53  1  0  0  0  0
M  END
>  <MODEL>
1

>  <REMARK>
 VINA RESULT:      -6.5      0.000      0.000
  Name = 
  12 active torsions:
  status: ('A' for Active; 'I' for Inactive)
    1  A    between atoms: C_1  and  O_53
    2  A    between atoms: O_6  and  C_20
    3  A    between atoms: C_8  and  S_22
    4  A    between atoms: C_10  and  C_32
    5  A    between atoms: C_11  and  C_29
    6  A    between atoms: C_12  and  C_14
    7  A    between atoms: C_12  and  C_20
    8  A    between atoms: C_14  and  C_29
    9  A    between atoms: C_20  and  S_22
   10  A    between atoms: C_29  and  C_38
   11  A    between atoms: C_33  and  N_52
   12  A    between atoms: C_38  and  O_53
                            x       y       z     vdW  Elec       q    Type
                         _______ _______ _______ _____ _____    ______ ____

>  <TORSDO>
F 12

$$$$
=
 OpenBabel10272401283D

 55 59  0  0  1  0  0  0  0  0999 V2000
  182.7360  176.5270  138.9420 C   0  0  0  0  0  2  0  0  0  0  0  0
  187.4330  177.9950  137.8860 C   0  0  0  0  0  3  0  0  0  0  0  0
  187.6600  177.5000  140.5820 O   0  0  0  0  0  0  0  0  0  0  0  0
  189.4950  176.2570  134.3700 O   0  0  0  0  0  0  0  0  0  0  0  0
  189.1340  176.7910  135.4540 C   0  0  0  0  0  0  0  0  0  0  0  0
  185.3840  178.7260  144.0460 C   0  0  0  0  0  3  0  0  0  0  0  0
  185.0040  179.2280  145.4160 C   0  0  0  0  0  2  0  0  0  0  0  0
  182.9930  178.6300  143.3460 C   0  0  2  0  0  3  0  0  0  0  0  0
  182.6690  179.4570  144.5840 C   0  0  0  0  0  2  0  0  0  0  0  0
  185.9550  179.0760  141.1070 C   0  0  0  0  0  2  0  0  0  0  0  0
  183.5330  178.9710  145.7390 C   0  0  0  0  0  2  0  0  0  0  0  0
  182.1120  176.2380  136.5580 C   0  0  0  0  0  3  0  0  0  0  0  0
  184.4840  178.5470  143.0590 C   0  0  0  0  0  0  0  0  0  0  0  0
  184.7420  175.6720  135.8010 C   0  0  0  0  0  0  0  0  0  0  0  0
  183.8770  176.9270  139.8270 C   0  0  0  0  0  3  0  0  0  0  0  0
  184.4470  175.9570  137.1400 C   0  0  0  0  0  3  0  0  0  0  0  0
  182.5880  178.7500  140.9150 C   0  0  0  0  0  0  0  0  0  0  0  0
  187.4220  178.3700  136.4490 C   0  0  0  0  0  2  0  0  0  0  0  0
  182.2450  179.1350  142.1520 C   0  0  0  0  0  3  0  0  0  0  0  0
  186.8220  178.7160  138.7660 N   0  0  0  0  0  0  0  0  0  0  0  0
  186.8650  178.3820  140.1550 C   0  0  0  0  0  0  0  0  0  0  0  0
  182.4070  175.9560  135.2230 C   0  0  0  0  0  3  0  0  0  0  0  0
  187.7700  177.2200  135.6220 N   0  0  0  0  0  0  0  0  0  0  0  0
  183.1270  176.2510  137.5220 C   0  0  0  0  0  0  0  0  0  0  0  0
  184.9540  178.0820  141.6960 C   0  0  1  0  0  3  0  0  0  0  0  0
  183.7950  177.8950  140.7470 C   0  0  0  0  0  0  0  0  0  0  0  0
  186.7300  176.6770  134.7590 C   0  0  0  0  0  2  0  0  0  0  0  0
  186.1480  175.4170  135.3790 C   0  0  0  0  0  2  0  0  0  0  0  0
  183.7200  175.6760  134.8450 C   0  0  0  0  0  3  0  0  0  0  0  0
  180.4740  178.9740  139.5680 C   0  0  0  0  0  2  0  0  0  0  0  0
  180.6560  180.1040  137.3480 C   0  0  2  0  0  3  0  0  0  0  0  0
  182.4610  180.4210  139.0590 C   0  0  0  0  0  2  0  0  0  0  0  0
  182.1510  180.3210  137.5690 C   0  0  0  0  0  2  0  0  0  0  0  0
  180.1880  178.8470  138.0770 C   0  0  0  0  0  2  0  0  0  0  0  0
  181.8900  179.2800  139.7760 N   0  0  0  0  0  0  0  0  0  0  0  0
  180.3440  180.0040  135.8920 C   0  0  0  0  0  0  0  0  0  0  0  0
  180.0440  178.8970  135.3700 O   0  0  0  0  0  0  0  0  0  0  0  0
  180.3540  181.1810  135.0910 N   0  0  0  0  0  1  0  0  0  0  0  0
  190.3580  177.0320  136.7550 S   0  0  0  0  0  0  0  0  0  0  0  0
  190.4530  175.2740  137.2890 C   0  0  2  0  0  0  0  0  0  0  0  0
  189.0820  174.6480  137.0890 C   0  0  0  0  0  1  0  0  0  0  0  0
  190.8030  175.1570  138.6530 O   0  0  0  0  0  0  0  0  0  0  0  0
  191.1100  176.3660  139.0870 O   0  0  0  0  0  1  0  0  0  0  0  0
  191.4540  174.5490  136.3740 C   0  0  0  0  0  2  0  0  0  0  0  0
  192.7670  175.7320  134.7510 O   0  0  0  0  0  1  0  0  0  0  0  0
  192.7240  175.3630  136.1000 C   0  0  2  0  0  3  0  0  0  0  0  0
  194.0120  174.6170  136.5070 C   0  0  1  0  0  0  0  0  0  0  0  0
  195.1690  175.0710  135.6250 C   0  0  0  0  0  1  0  0  0  0  0  0
  194.3490  174.9020  137.9450 C   0  0  0  0  0  3  0  0  0  0  0  0
  194.0990  175.9850  138.4540 O   0  0  0  0  0  0  0  0  0  0  0  0
  193.8170  173.1080  136.3380 C   0  0  0  0  0  2  0  0  0  0  0  0
  194.8240  172.3690  137.0280 O   0  0  0  0  0  0  0  0  0  0  0  0
  195.2650  171.1070  136.6160 C   0  0  0  0  0  0  0  0  0  0  0  0
  196.6940  170.9250  136.2500 C   0  0  0  0  0  1  0  0  0  0  0  0
  194.4430  170.0650  136.5360 C   0  0  0  0  0  2  0  0  0  0  0  0
  1 15  1  0  0  0  0
  2 20  2  0  0  0  0
  4  5  2  0  0  0  0
  5 23  1  0  0  0  0
  5 39  1  0  0  0  0
  6  7  1  0  0  0  0
  7 11  1  0  0  0  0
  8 19  1  6  0  0  0
  8  9  1  0  0  0  0
  9 11  1  0  0  0  0
 12 24  1  0  0  0  0
 13  8  1  0  0  0  0
 13  6  2  0  0  0  0
 14 16  1  0  0  0  0
 15 26  2  0  0  0  0
 16 24  2  0  0  0  0
 17 19  2  0  0  0  0
 18  2  1  0  0  0  0
 20 21  1  0  0  0  0
 21  3  2  0  0  0  0
 21 10  1  0  0  0  0
 22 12  2  0  0  0  0
 23 18  1  0  0  0  0
 24  1  1  0  0  0  0
 25 10  1  6  0  0  0
 25 13  1  0  0  0  0
 26 17  1  0  0  0  0
 26 25  1  0  0  0  0
 27 28  1  0  0  0  0
 27 23  1  0  0  0  0
 28 14  1  0  0  0  0
 29 22  1  0  0  0  0
 29 14  2  0  0  0  0
 30 35  1  0  0  0  0
 31 36  1  6  0  0  0
 31 33  1  0  0  0  0
 31 34  1  0  0  0  0
 32 35  1  0  0  0  0
 33 32  1  0  0  0  0
 34 30  1  0  0  0  0
 35 17  1  0  0  0  0
 37 36  2  0  0  0  0
 38 36  1  0  0  0  0
 39 40  1  0  0  0  0
 40 41  1  6  0  0  0
 40 42  1  0  0  0  0
 42 43  1  0  0  0  0
 44 40  1  0  0  0  0
 46 45  1  6  0  0  0
 46 44  1  0  0  0  0
 46 47  1  0  0  0  0
 47 48  1  6  0  0  0
 47 49  1  0  0  0  0
 49 50  2  0  0  0  0
 51 47  1  0  0  0  0
 51 52  1  0  0  0  0
 53 52  1  0  0  0  0
 54 53  1  0  0  0  0
 55 53  2  0  0  0  0
M  END
>  <MODEL>
2

>  <REMARK>
 VINA RESULT:      -6.5      1.117      1.644
  Name = 
  12 active torsions:
  status: ('A' for Active; 'I' for Inactive)
    1  A    between atoms: C_1  and  O_53
    2  A    between atoms: O_6  and  C_20
    3  A    between atoms: C_8  and  S_22
    4  A    between atoms: C_10  and  C_32
    5  A    between atoms: C_11  and  C_29
    6  A    between atoms: C_12  and  C_14
    7  A    between atoms: C_12  and  C_20
    8  A    between atoms: C_14  and  C_29
    9  A    between atoms: C_20  and  S_22
   10  A    between atoms: C_29  and  C_38
   11  A    between atoms: C_33  and  N_52
   12  A    between atoms: C_38  and  O_53
                            x       y       z     vdW  Elec       q    Type
                         _______ _______ _______ _____ _____    ______ ____

>  <TORSDO>
F 12

$$$$
=
 OpenBabel10272401283D

 55 59  0  0  1  0  0  0  0  0999 V2000
  186.1960  177.5840  136.4630 C   0  0  0  0  0  2  0  0  0  0  0  0
  186.4050  178.0000  141.4740 C   0  0  0  0  0  3  0  0  0  0  0  0
  188.9600  178.7670  140.8040 O   0  0  0  0  0  0  0  0  0  0  0  0
  183.1390  180.1090  143.6000 O   0  0  0  0  0  0  0  0  0  0  0  0
  184.2020  179.5690  143.1900 C   0  0  0  0  0  0  0  0  0  0  0  0
  192.0410  177.0380  138.3140 C   0  0  0  0  0  3  0  0  0  0  0  0
  193.3700  176.5430  137.8020 C   0  0  0  0  0  2  0  0  0  0  0  0
  190.8590  176.1270  136.3180 C   0  0  2  0  0  3  0  0  0  0  0  0
  192.1290  175.3450  136.0080 C   0  0  0  0  0  2  0  0  0  0  0  0
  189.3910  176.6970  139.7100 C   0  0  0  0  0  2  0  0  0  0  0  0
  193.3330  176.2260  136.3080 C   0  0  0  0  0  2  0  0  0  0  0  0
  183.7220  177.4040  136.4140 C   0  0  0  0  0  3  0  0  0  0  0  0
  190.8750  176.7650  137.6980 C   0  0  0  0  0  0  0  0  0  0  0  0
  183.4350  178.8940  138.7610 C   0  0  0  0  0  0  0  0  0  0  0  0
  187.3530  177.7400  137.4020 C   0  0  0  0  0  3  0  0  0  0  0  0
  184.7130  178.6290  138.2540 C   0  0  0  0  0  3  0  0  0  0  0  0
  188.4560  175.6550  136.6250 C   0  0  0  0  0  0  0  0  0  0  0  0
  185.0850  177.5320  141.9700 C   0  0  0  0  0  2  0  0  0  0  0  0
  189.6440  175.2700  136.1390 C   0  0  0  0  0  3  0  0  0  0  0  0
  187.2530  177.1730  140.9610 N   0  0  0  0  0  0  0  0  0  0  0  0
  188.5400  177.6110  140.5210 C   0  0  0  0  0  0  0  0  0  0  0  0
  182.4480  177.6670  136.9200 C   0  0  0  0  0  3  0  0  0  0  0  0
  184.1590  178.6540  142.0790 N   0  0  0  0  0  0  0  0  0  0  0  0
  184.8610  177.8720  137.0790 C   0  0  0  0  0  0  0  0  0  0  0  0
  189.5770  177.2620  138.3030 C   0  0  1  0  0  3  0  0  0  0  0  0
  188.3920  176.8990  137.4400 C   0  0  0  0  0  0  0  0  0  0  0  0
  183.0180  178.6690  141.1740 C   0  0  0  0  0  2  0  0  0  0  0  0
  183.2730  179.6460  140.0370 C   0  0  0  0  0  2  0  0  0  0  0  0
  182.3040  178.4080  138.0930 C   0  0  0  0  0  3  0  0  0  0  0  0
  186.8330  174.4130  135.1560 C   0  0  0  0  0  2  0  0  0  0  0  0
  184.8610  173.3650  136.2750 C   0  0  2  0  0  3  0  0  0  0  0  0
  186.8690  174.0060  137.6330 C   0  0  0  0  0  2  0  0  0  0  0  0
  185.3490  173.8680  137.6320 C   0  0  0  0  0  2  0  0  0  0  0  0
  185.3120  174.3090  135.1640 C   0  0  0  0  0  2  0  0  0  0  0  0
  187.3090  174.8000  136.4850 N   0  0  0  0  0  0  0  0  0  0  0  0
  183.3750  173.2280  136.2650 C   0  0  0  0  0  0  0  0  0  0  0  0
  182.6520  173.9800  136.9730 O   0  0  0  0  0  0  0  0  0  0  0  0
  182.7660  172.2580  135.4180 N   0  0  0  0  0  1  0  0  0  0  0  0
  185.7490  179.9380  144.0380 S   0  0  0  0  0  0  0  0  0  0  0  0
  185.4290  178.9110  145.5290 C   0  0  2  0  0  0  0  0  0  0  0  0
  183.9760  178.4620  145.4870 C   0  0  0  0  0  1  0  0  0  0  0  0
  185.6370  179.6370  146.7230 O   0  0  0  0  0  0  0  0  0  0  0  0
  185.2570  178.8650  147.7260 O   0  0  0  0  0  1  0  0  0  0  0  0
  186.3220  177.6620  145.4520 C   0  0  0  0  0  2  0  0  0  0  0  0
  188.2310  177.4160  144.0200 O   0  0  0  0  0  1  0  0  0  0  0  0
  187.8020  177.9890  145.2220 C   0  0  2  0  0  3  0  0  0  0  0  0
  188.7030  177.5460  146.3940 C   0  0  1  0  0  0  0  0  0  0  0  0
  189.3240  178.7710  147.0550 C   0  0  0  0  0  1  0  0  0  0  0  0
  187.8970  176.7920  147.4170 C   0  0  0  0  0  3  0  0  0  0  0  0
  187.9010  177.1180  148.5950 O   0  0  0  0  0  0  0  0  0  0  0  0
  189.8190  176.6350  145.8790 C   0  0  0  0  0  2  0  0  0  0  0  0
  191.0100  177.3710  145.6000 O   0  0  0  0  0  0  0  0  0  0  0  0
  191.4160  177.7060  144.3040 C   0  0  0  0  0  0  0  0  0  0  0  0
  191.5580  179.1400  143.9400 C   0  0  0  0  0  1  0  0  0  0  0  0
  191.6750  176.7810  143.3850 C   0  0  0  0  0  2  0  0  0  0  0  0
  1 24  1  0  0  0  0
  1 15  1  0  0  0  0
  2 18  1  0  0  0  0
  5  4  2  0  0  0  0
  5 39  1  0  0  0  0
  7  6  1  0  0  0  0
  8  9  1  1  0  0  0
  8 13  1  0  0  0  0
  9 11  1  0  0  0  0
 10 21  1  0  0  0  0
 11  7  1  0  0  0  0
 12 22  2  0  0  0  0
 12 24  1  0  0  0  0
 13 25  1  0  0  0  0
 13  6  2  0  0  0  0
 14 28  1  0  0  0  0
 15 26  2  0  0  0  0
 16 14  1  0  0  0  0
 17 26  1  0  0  0  0
 18 23  1  0  0  0  0
 19  8  1  0  0  0  0
 19 17  2  0  0  0  0
 20  2  2  0  0  0  0
 21  3  2  0  0  0  0
 21 20  1  0  0  0  0
 22 29  1  0  0  0  0
 23  5  1  0  0  0  0
 24 16  2  0  0  0  0
 25 10  1  1  0  0  0
 26 25  1  0  0  0  0
 27 23  1  0  0  0  0
 28 27  1  0  0  0  0
 29 14  2  0  0  0  0
 30 34  1  0  0  0  0
 30 35  1  0  0  0  0
 31 36  1  1  0  0  0
 31 33  1  0  0  0  0
 33 32  1  0  0  0  0
 34 31  1  0  0  0  0
 35 17  1  0  0  0  0
 35 32  1  0  0  0  0
 36 37  2  0  0  0  0
 38 36  1  0  0  0  0
 39 40  1  0  0  0  0
 40 41  1  6  0  0  0
 40 42  1  0  0  0  0
 42 43  1  0  0  0  0
 44 40  1  0  0  0  0
 46 45  1  6  0  0  0
 46 44  1  0  0  0  0
 46 47  1  0  0  0  0
 47 48  1  1  0  0  0
 47 49  1  0  0  0  0
 49 50  2  0  0  0  0
 51 47  1  0  0  0  0
 52 51  1  0  0  0  0
 53 52  1  0  0  0  0
 54 53  1  0  0  0  0
 55 53  2  0  0  0  0
M  END
>  <MODEL>
3

>  <REMARK>
 VINA RESULT:      -5.5      3.723      8.728
  Name = 
  12 active torsions:
  status: ('A' for Active; 'I' for Inactive)
    1  A    between atoms: C_1  and  O_53
    2  A    between atoms: O_6  and  C_20
    3  A    between atoms: C_8  and  S_22
    4  A    between atoms: C_10  and  C_32
    5  A    between atoms: C_11  and  C_29
    6  A    between atoms: C_12  and  C_14
    7  A    between atoms: C_12  and  C_20
    8  A    between atoms: C_14  and  C_29
    9  A    between atoms: C_20  and  S_22
   10  A    between atoms: C_29  and  C_38
   11  A    between atoms: C_33  and  N_52
   12  A    between atoms: C_38  and  O_53
                            x       y       z     vdW  Elec       q    Type
                         _______ _______ _______ _____ _____    ______ ____

>  <TORSDO>
F 12

$$$$
=
 OpenBabel10272401283D

 55 59  0  0  1  0  0  0  0  0999 V2000
  182.5330  176.2710  138.4330 C   0  0  0  0  0  2  0  0  0  0  0  0
  187.1370  178.1960  137.7760 C   0  0  0  0  0  3  0  0  0  0  0  0
  187.1600  177.7670  140.4930 O   0  0  0  0  0  0  0  0  0  0  0  0
  189.6820  176.6270  134.5060 O   0  0  0  0  0  0  0  0  0  0  0  0
  189.1690  177.1370  135.5390 C   0  0  0  0  0  0  0  0  0  0  0  0
  184.4580  178.8030  143.7030 C   0  0  0  0  0  3  0  0  0  0  0  0
  183.9030  179.2830  145.0200 C   0  0  0  0  0  2  0  0  0  0  0  0
  182.1650  178.4520  142.7910 C   0  0  2  0  0  3  0  0  0  0  0  0
  181.6450  179.2600  143.9730 C   0  0  0  0  0  2  0  0  0  0  0  0
  185.2630  179.1670  140.8210 C   0  0  0  0  0  2  0  0  0  0  0  0
  182.4430  178.8820  145.2140 C   0  0  0  0  0  2  0  0  0  0  0  0
  182.1670  175.8840  136.0100 C   0  0  0  0  0  3  0  0  0  0  0  0
  183.6770  178.5190  142.6430 C   0  0  0  0  0  0  0  0  0  0  0  0
  184.8990  175.5790  135.5100 C   0  0  0  0  0  0  0  0  0  0  0  0
  183.5410  176.7980  139.4090 C   0  0  0  0  0  3  0  0  0  0  0  0
  184.4530  175.8520  136.8090 C   0  0  0  0  0  3  0  0  0  0  0  0
  181.9790  178.4950  140.3310 C   0  0  0  0  0  0  0  0  0  0  0  0
  187.2220  178.5470  136.3350 C   0  0  0  0  0  2  0  0  0  0  0  0
  181.4850  178.8610  141.5210 C   0  0  0  0  0  3  0  0  0  0  0  0
  186.3770  178.8630  138.5790 N   0  0  0  0  0  0  0  0  0  0  0  0
  186.3240  178.5560  139.9730 C   0  0  0  0  0  0  0  0  0  0  0  0
  182.6120  175.6140  134.7140 C   0  0  0  0  0  3  0  0  0  0  0  0
  187.7590  177.4260  135.5710 N   0  0  0  0  0  0  0  0  0  0  0  0
  183.0810  176.0150  137.0620 C   0  0  0  0  0  0  0  0  0  0  0  0
  184.3170  178.0850  141.3400 C   0  0  1  0  0  3  0  0  0  0  0  0
  183.2760  177.7650  140.2940 C   0  0  0  0  0  0  0  0  0  0  0  0
  186.8650  176.7680  134.6300 C   0  0  0  0  0  2  0  0  0  0  0  0
  186.3570  175.4640  135.2240 C   0  0  0  0  0  2  0  0  0  0  0  0
  183.9760  175.4650  134.4640 C   0  0  0  0  0  3  0  0  0  0  0  0
  180.0480  178.3750  138.7200 C   0  0  0  0  0  2  0  0  0  0  0  0
  180.2860  179.6180  136.5670 C   0  0  2  0  0  3  0  0  0  0  0  0
  181.7640  180.1940  138.5080 C   0  0  0  0  0  2  0  0  0  0  0  0
  181.6710  180.1050  136.9880 C   0  0  0  0  0  2  0  0  0  0  0  0
  179.9820  178.2640  137.2010 C   0  0  0  0  0  2  0  0  0  0  0  0
  181.3400  178.9340  139.1200 N   0  0  0  0  0  0  0  0  0  0  0  0
  180.1860  179.5270  135.0810 C   0  0  0  0  0  0  0  0  0  0  0  0
  180.1050  180.5680  134.3740 O   0  0  0  0  0  0  0  0  0  0  0  0
  180.2160  178.2500  134.4530 N   0  0  0  0  0  1  0  0  0  0  0  0
  190.2360  177.5210  136.9400 S   0  0  0  0  0  0  0  0  0  0  0  0
  190.3170  175.8150  137.6230 C   0  0  2  0  0  0  0  0  0  0  0  0
  191.6990  175.2550  137.3250 C   0  0  0  0  0  1  0  0  0  0  0  0
  189.3540  174.9650  137.0330 O   0  0  0  0  0  0  0  0  0  0  0  0
  189.6620  173.7260  137.3710 O   0  0  0  0  0  1  0  0  0  0  0  0
  190.1500  175.9010  139.1490 C   0  0  0  0  0  2  0  0  0  0  0  0
  192.2840  176.9230  139.5450 O   0  0  0  0  0  1  0  0  0  0  0  0
  190.9130  177.0730  139.7770 C   0  0  2  0  0  3  0  0  0  0  0  0
  190.6240  177.2360  141.2850 C   0  0  1  0  0  0  0  0  0  0  0  0
  189.7180  178.4410  141.5060 C   0  0  0  0  0  1  0  0  0  0  0  0
  189.9460  176.0060  141.8240 C   0  0  0  0  0  3  0  0  0  0  0  0
  190.3500  175.4490  142.8350 O   0  0  0  0  0  0  0  0  0  0  0  0
  191.9350  177.4480  142.0470 C   0  0  0  0  0  2  0  0  0  0  0  0
  191.7530  177.2960  143.4540 O   0  0  0  0  0  0  0  0  0  0  0  0
  191.1400  178.2640  144.2560 C   0  0  0  0  0  0  0  0  0  0  0  0
  191.6050  179.6730  144.1710 C   0  0  0  0  0  1  0  0  0  0  0  0
  190.1540  177.9610  145.0960 C   0  0  0  0  0  2  0  0  0  0  0  0
  1 15  1  0  0  0  0
  2 20  2  0  0  0  0
  4  5  2  0  0  0  0
  5 23  1  0  0  0  0
  5 39  1  0  0  0  0
  6  7  1  0  0  0  0
  7 11  1  0  0  0  0
  8 19  1  6  0  0  0
  8  9  1  0  0  0  0
  9 11  1  0  0  0  0
 12 24  1  0  0  0  0
 13  8  1  0  0  0  0
 13  6  2  0  0  0  0
 14 16  1  0  0  0  0
 15 26  2  0  0  0  0
 16 24  2  0  0  0  0
 17 19  2  0  0  0  0
 18  2  1  0  0  0  0
 20 21  1  0  0  0  0
 21  3  2  0  0  0  0
 21 10  1  0  0  0  0
 22 12  2  0  0  0  0
 23 18  1  0  0  0  0
 24  1  1  0  0  0  0
 25 10  1  6  0  0  0
 25 13  1  0  0  0  0
 26 17  1  0  0  0  0
 26 25  1  0  0  0  0
 27 28  1  0  0  0  0
 27 23  1  0  0  0  0
 28 14  1  0  0  0  0
 29 22  1  0  0  0  0
 29 14  2  0  0  0  0
 30 35  1  0  0  0  0
 31 36  1  6  0  0  0
 31 33  1  0  0  0  0
 31 34  1  0  0  0  0
 32 35  1  0  0  0  0
 33 32  1  0  0  0  0
 34 30  1  0  0  0  0
 35 17  1  0  0  0  0
 37 36  2  0  0  0  0
 38 36  1  0  0  0  0
 39 40  1  0  0  0  0
 40 41  1  6  0  0  0
 40 44  1  0  0  0  0
 42 43  1  0  0  0  0
 42 40  1  0  0  0  0
 44 46  1  0  0  0  0
 46 45  1  1  0  0  0
 46 47  1  0  0  0  0
 47 48  1  1  0  0  0
 47 49  1  0  0  0  0
 47 51  1  0  0  0  0
 49 50  2  0  0  0  0
 51 52  1  0  0  0  0
 52 53  1  0  0  0  0
 53 55  2  0  0  0  0
 54 53  1  0  0  0  0
M  END
>  <MODEL>
4

>  <REMARK>
 VINA RESULT:      -5.4      2.324      3.758
  Name = 
  12 active torsions:
  status: ('A' for Active; 'I' for Inactive)
    1  A    between atoms: C_1  and  O_53
    2  A    between atoms: O_6  and  C_20
    3  A    between atoms: C_8  and  S_22
    4  A    between atoms: C_10  and  C_32
    5  A    between atoms: C_11  and  C_29
    6  A    between atoms: C_12  and  C_14
    7  A    between atoms: C_12  and  C_20
    8  A    between atoms: C_14  and  C_29
    9  A    between atoms: C_20  and  S_22
   10  A    between atoms: C_29  and  C_38
   11  A    between atoms: C_33  and  N_52
   12  A    between atoms: C_38  and  O_53
                            x       y       z     vdW  Elec       q    Type
                         _______ _______ _______ _____ _____    ______ ____

>  <TORSDO>
F 12

$$$$
=
 OpenBabel10272401283D

 55 59  0  0  1  0  0  0  0  0999 V2000
  186.7770  177.4660  136.2730 C   0  0  0  0  0  2  0  0  0  0  0  0
  187.7520  177.4560  141.2100 C   0  0  0  0  0  3  0  0  0  0  0  0
  190.2100  178.1920  140.2190 O   0  0  0  0  0  0  0  0  0  0  0  0
  184.9390  179.4850  143.9670 O   0  0  0  0  0  0  0  0  0  0  0  0
  185.9040  178.9460  143.3590 C   0  0  0  0  0  0  0  0  0  0  0  0
  192.8030  176.5780  137.1610 C   0  0  0  0  0  3  0  0  0  0  0  0
  194.0170  176.0850  136.4150 C   0  0  0  0  0  2  0  0  0  0  0  0
  191.2950  175.8760  135.3040 C   0  0  2  0  0  3  0  0  0  0  0  0
  192.4690  175.0820  134.7440 C   0  0  0  0  0  2  0  0  0  0  0  0
  190.3800  176.2080  138.9150 C   0  0  0  0  0  2  0  0  0  0  0  0
  193.7430  175.8960  134.9240 C   0  0  0  0  0  2  0  0  0  0  0  0
  184.3180  177.3720  136.5890 C   0  0  0  0  0  3  0  0  0  0  0  0
  191.5460  176.3960  136.7100 C   0  0  0  0  0  0  0  0  0  0  0  0
  184.4520  178.6690  139.0600 C   0  0  0  0  0  0  0  0  0  0  0  0
  188.0670  177.5060  137.0330 C   0  0  0  0  0  3  0  0  0  0  0  0
  185.6270  178.4060  138.3450 C   0  0  0  0  0  3  0  0  0  0  0  0
  188.9470  175.4580  135.9370 C   0  0  0  0  0  0  0  0  0  0  0  0
  186.5020  176.9910  141.8640 C   0  0  0  0  0  2  0  0  0  0  0  0
  190.0300  175.0770  135.2460 C   0  0  0  0  0  3  0  0  0  0  0  0
  188.4760  176.6470  140.5100 N   0  0  0  0  0  0  0  0  0  0  0  0
  189.7010  177.0790  139.9140 C   0  0  0  0  0  0  0  0  0  0  0  0
  183.1470  177.6330  137.3030 C   0  0  0  0  0  3  0  0  0  0  0  0
  185.6530  178.1290  142.2000 N   0  0  0  0  0  0  0  0  0  0  0  0
  185.5630  177.7450  137.1060 C   0  0  0  0  0  0  0  0  0  0  0  0
  190.3780  176.8820  137.5430 C   0  0  1  0  0  3  0  0  0  0  0  0
  189.0620  176.6310  136.8470 C   0  0  0  0  0  0  0  0  0  0  0  0
  184.3920  178.2570  141.4840 C   0  0  0  0  0  2  0  0  0  0  0  0
  184.5170  179.3160  140.4010 C   0  0  0  0  0  2  0  0  0  0  0  0
  183.2140  178.2780  138.5380 C   0  0  0  0  0  3  0  0  0  0  0  0
  187.1260  174.3100  134.6320 C   0  0  0  0  0  2  0  0  0  0  0  0
  185.2370  173.3310  135.9390 C   0  0  2  0  0  3  0  0  0  0  0  0
  187.4010  173.8640  137.0870 C   0  0  0  0  0  2  0  0  0  0  0  0
  185.8860  173.7910  137.2430 C   0  0  0  0  0  2  0  0  0  0  0  0
  185.6120  174.2720  134.7970 C   0  0  0  0  0  2  0  0  0  0  0  0
  187.7550  174.6550  135.9080 N   0  0  0  0  0  0  0  0  0  0  0  0
  183.7530  173.2580  136.0820 C   0  0  0  0  0  0  0  0  0  0  0  0
  183.2220  172.4630  136.9040 O   0  0  0  0  0  0  0  0  0  0  0  0
  182.9300  174.1210  135.3050 N   0  0  0  0  0  1  0  0  0  0  0  0
  187.5750  179.1930  143.9860 S   0  0  0  0  0  0  0  0  0  0  0  0
  187.4500  178.0230  145.4000 C   0  0  2  0  0  0  0  0  0  0  0  0
  186.3560  177.0160  145.0800 C   0  0  0  0  0  1  0  0  0  0  0  0
  187.1110  178.6840  146.6020 O   0  0  0  0  0  0  0  0  0  0  0  0
  187.8090  178.1210  147.5720 O   0  0  0  0  0  1  0  0  0  0  0  0
  188.7830  177.2670  145.5160 C   0  0  0  0  0  2  0  0  0  0  0  0
  189.2230  175.8450  143.6340 O   0  0  0  0  0  1  0  0  0  0  0  0
  189.5060  177.1040  144.1740 C   0  0  2  0  0  3  0  0  0  0  0  0
  191.0300  177.3250  144.2830 C   0  0  1  0  0  0  0  0  0  0  0  0
  191.7650  176.1360  143.6770 C   0  0  0  0  0  1  0  0  0  0  0  0
  191.4310  178.5760  143.5510 C   0  0  0  0  0  3  0  0  0  0  0  0
  191.1570  179.6840  143.9880 O   0  0  0  0  0  0  0  0  0  0  0  0
  191.4320  177.4660  145.7530 C   0  0  0  0  0  2  0  0  0  0  0  0
  192.1810  176.3370  146.2020 O   0  0  0  0  0  0  0  0  0  0  0  0
  192.0080  175.7570  147.4640 C   0  0  0  0  0  0  0  0  0  0  0  0
  190.7390  175.0430  147.7630 C   0  0  0  0  0  1  0  0  0  0  0  0
  192.9440  175.8280  148.4060 C   0  0  0  0  0  2  0  0  0  0  0  0
  1 15  1  0  0  0  0
  1 24  1  0  0  0  0
  2 18  1  0  0  0  0
  5  4  2  0  0  0  0
  5 39  1  0  0  0  0
  7  6  1  0  0  0  0
  8  9  1  1  0  0  0
  8 13  1  0  0  0  0
  9 11  1  0  0  0  0
 10 21  1  0  0  0  0
 11  7  1  0  0  0  0
 12 24  2  0  0  0  0
 12 22  1  0  0  0  0
 13  6  2  0  0  0  0
 13 25  1  0  0  0  0
 14 28  1  0  0  0  0
 16 14  2  0  0  0  0
 17 26  1  0  0  0  0
 18 23  1  0  0  0  0
 19  8  1  0  0  0  0
 19 17  2  0  0  0  0
 20  2  2  0  0  0  0
 21  3  2  0  0  0  0
 21 20  1  0  0  0  0
 22 29  2  0  0  0  0
 23  5  1  0  0  0  0
 24 16  1  0  0  0  0
 25 10  1  1  0  0  0
 26 15  2  0  0  0  0
 26 25  1  0  0  0  0
 27 23  1  0  0  0  0
 28 27  1  0  0  0  0
 29 14  1  0  0  0  0
 30 34  1  0  0  0  0
 30 35  1  0  0  0  0
 31 36  1  1  0  0  0
 31 33  1  0  0  0  0
 32 33  1  0  0  0  0
 34 31  1  0  0  0  0
 35 17  1  0  0  0  0
 35 32  1  0  0  0  0
 36 37  2  0  0  0  0
 38 36  1  0  0  0  0
 39 40  1  0  0  0  0
 40 41  1  6  0  0  0
 40 44  1  0  0  0  0
 40 42  1  0  0  0  0
 42 43  1  0  0  0  0
 46 45  1  1  0  0  0
 46 47  1  0  0  0  0
 46 44  1  0  0  0  0
 47 48  1  6  0  0  0
 47 51  1  0  0  0  0
 49 50  2  0  0  0  0
 49 47  1  0  0  0  0
 51 52  1  0  0  0  0
 52 53  1  0  0  0  0
 53 54  1  0  0  0  0
 53 55  2  0  0  0  0
M  END
>  <MODEL>
5

>  <REMARK>
 VINA RESULT:      -4.5      3.889      8.515
  Name = 
  12 active torsions:
  status: ('A' for Active; 'I' for Inactive)
    1  A    between atoms: C_1  and  O_53
    2  A    between atoms: O_6  and  C_20
    3  A    between atoms: C_8  and  S_22
    4  A    between atoms: C_10  and  C_32
    5  A    between atoms: C_11  and  C_29
    6  A    between atoms: C_12  and  C_14
    7  A    between atoms: C_12  and  C_20
    8  A    between atoms: C_14  and  C_29
    9  A    between atoms: C_20  and  S_22
   10  A    between atoms: C_29  and  C_38
   11  A    between atoms: C_33  and  N_52
   12  A    between atoms: C_38  and  O_53
                            x       y       z     vdW  Elec       q    Type
                         _______ _______ _______ _____ _____    ______ ____

>  <TORSDO>
F 12

$$$$
