=
 OpenBabel10272413193D

 32 33  0  0  1  0  0  0  0  0999 V2000
  191.7480  177.2490  140.0970 C   0  0  0  0  0  0  0  0  0  0  0  0
  192.9900  177.1840  139.9060 O   0  0  0  0  0  0  0  0  0  0  0  0
  188.9670  177.4730  140.4310 C   0  0  0  0  0  3  0  0  0  0  0  0
  191.2270  177.6390  141.4530 C   0  0  0  0  0  2  0  0  0  0  0  0
  189.5610  177.0100  139.1660 C   0  0  0  0  0  0  0  0  0  0  0  0
  190.8490  176.9280  139.0300 N   0  0  0  0  0  0  0  0  0  0  0  0
  189.7300  177.7960  141.4790 C   0  0  0  0  0  0  0  0  0  0  0  0
  188.6790  176.6830  138.0100 C   0  0  0  0  0  2  0  0  0  0  0  0
  189.0970  179.3060  137.5560 O   0  0  0  0  0  0  0  0  0  0  0  0
  189.3670  177.7830  135.6580 O   0  0  0  0  0  0  0  0  0  0  0  0
  188.5550  178.0700  136.8930 S   0  0  0  0  0  0  0  0  0  0  0  0
  186.9000  178.3360  136.4580 N   0  0  0  0  0  2  0  0  0  0  0  0
  186.0640  177.7530  137.5060 C   0  0  2  0  0  3  0  0  0  0  0  0
  184.9180  176.9330  136.9180 C   0  0  0  0  0  2  0  0  0  0  0  0
  185.0140  176.9110  135.5270 O   0  0  0  0  0  1  0  0  0  0  0  0
  185.6240  178.7250  138.4340 O   0  0  0  0  0  0  0  0  0  0  0  0
  184.2620  178.5180  138.7050 C   0  0  0  0  0  3  0  0  0  0  0  0
  183.9820  178.8650  140.1530 C   0  0  0  0  0  2  0  0  0  0  0  0
  183.6180  179.8430  139.0590 C   0  0  0  0  0  2  0  0  0  0  0  0
  189.0830  178.2710  142.7420 C   0  0  0  0  0  2  0  0  0  0  0  0
  189.0650  177.2070  143.8430 C   0  0  1  0  0  3  0  0  0  0  0  0
  189.5910  177.7240  145.0340 O   0  0  0  0  0  0  0  0  0  0  0  0
  189.9840  176.6690  145.7190 O   0  0  0  0  0  0  0  0  0  0  0  0
  190.0740  177.1130  147.0390 C   0  0  0  0  0  2  0  0  0  0  0  0
  188.4150  178.1490  148.5510 C   0  0  0  0  0  1  0  0  0  0  0  0
  188.7400  176.9200  147.7280 C   0  0  0  0  0  2  0  0  0  0  0  0
  187.6610  176.6650  144.0710 C   0  0  0  0  0  2  0  0  0  0  0  0
  186.6390  177.7860  143.9990 C   0  0  0  0  0  2  0  0  0  0  0  0
  186.3300  178.3060  145.3910 C   0  0  0  0  0  2  0  0  0  0  0  0
  184.8750  178.7260  145.4860 C   0  0  0  0  0  2  0  0  0  0  0  0
  182.7890  178.9840  143.7610 S   0  0  0  0  0  1  0  0  0  0  0  0
  184.4770  179.4580  144.2230 C   0  0  0  0  0  2  0  0  0  0  0  0
  1  4  1  0  0  0  0
  2  1  2  0  0  0  0
  3  7  2  0  0  0  0
  4  7  1  0  0  0  0
  5  3  1  0  0  0  0
  6  5  2  0  0  0  0
  6  1  1  0  0  0  0
  7 20  1  0  0  0  0
  8  5  1  0  0  0  0
 10 11  2  0  0  0  0
 11  9  2  0  0  0  0
 11  8  1  0  0  0  0
 12 11  1  0  0  0  0
 12 13  1  0  0  0  0
 13 14  1  6  0  0  0
 13 16  1  0  0  0  0
 15 14  1  0  0  0  0
 16 17  1  0  0  0  0
 17 19  1  0  0  0  0
 17 18  1  0  0  0  0
 19 18  1  0  0  0  0
 21 20  1  6  0  0  0
 21 27  1  0  0  0  0
 21 22  1  0  0  0  0
 22 23  1  0  0  0  0
 23 24  1  0  0  0  0
 24 26  1  0  0  0  0
 26 25  1  0  0  0  0
 28 27  1  0  0  0  0
 28 29  1  0  0  0  0
 29 30  1  0  0  0  0
 31 32  1  0  0  0  0
 32 30  1  0  0  0  0
M  END
>  <MODEL>
1

>  <REMARK>
 VINA RESULT:      -6.3      0.000      0.000
  Name = 
  18 active torsions:
  status: ('A' for Active; 'I' for Inactive)
    1  A    between atoms: C_1  and  O_30
    2  A    between atoms: N_2  and  C_5
    3  A    between atoms: N_2  and  S_27
    4  A    between atoms: C_5  and  C_14
    5  A    between atoms: C_5  and  O_30
    6  A    between atoms: C_6  and  C_17
    7  A    between atoms: C_6  and  C_31
    8  A    between atoms: C_7  and  C_26
    9  A    between atoms: C_7  and  C_31
   10  A    between atoms: O_9  and  C_31
   11  A    between atoms: O_9  and  O_32
   12  A    between atoms: C_12  and  C_28
   13  A    between atoms: C_12  and  O_32
   14  A    between atoms: C_16  and  C_20
   15  A    between atoms: C_16  and  S_27
   16  A    between atoms: C_17  and  C_29
   17  A    between atoms: C_18  and  C_25
   18  A    between atoms: C_18  and  C_29
                            x       y       z     vdW  Elec       q    Type
                         _______ _______ _______ _____ _____    ______ ____

>  <TORSDO>
F 18

$$$$
=
 OpenBabel10272413193D

 32 33  0  0  1  0  0  0  0  0999 V2000
  184.3220  178.7900  144.6020 C   0  0  0  0  0  0  0  0  0  0  0  0
  183.5600  179.3190  145.4530 O   0  0  0  0  0  0  0  0  0  0  0  0
  185.9320  177.5280  142.6770 C   0  0  0  0  0  3  0  0  0  0  0  0
  185.6810  178.3080  145.0240 C   0  0  0  0  0  2  0  0  0  0  0  0
  184.6250  178.1110  142.3320 C   0  0  0  0  0  0  0  0  0  0  0  0
  183.8910  178.6760  143.2410 N   0  0  0  0  0  0  0  0  0  0  0  0
  186.4120  177.5860  143.9220 C   0  0  0  0  0  0  0  0  0  0  0  0
  184.1120  178.0040  140.9370 C   0  0  0  0  0  2  0  0  0  0  0  0
  184.5750  180.1640  139.3930 O   0  0  0  0  0  0  0  0  0  0  0  0
  186.5100  179.1220  140.4720 O   0  0  0  0  0  0  0  0  0  0  0  0
  185.1920  178.8540  139.7960 S   0  0  0  0  0  0  0  0  0  0  0  0
  185.4440  177.8830  138.3840 N   0  0  0  0  0  2  0  0  0  0  0  0
  186.8770  177.8760  138.0960 C   0  0  2  0  0  3  0  0  0  0  0  0
  187.2200  178.8030  136.9330 C   0  0  0  0  0  2  0  0  0  0  0  0
  188.4010  179.4920  137.2070 O   0  0  0  0  0  1  0  0  0  0  0  0
  187.3740  176.5640  137.9190 O   0  0  0  0  0  0  0  0  0  0  0  0
  186.6520  175.9350  136.8910 C   0  0  0  0  0  3  0  0  0  0  0  0
  187.5860  175.0430  136.0980 C   0  0  0  0  0  2  0  0  0  0  0  0
  186.6560  174.4380  137.1250 C   0  0  0  0  0  2  0  0  0  0  0  0
  187.7410  176.9720  144.2290 C   0  0  0  0  0  2  0  0  0  0  0  0
  188.8790  177.9950  144.2730 C   0  0  1  0  0  3  0  0  0  0  0  0
  189.8150  177.6480  145.2560 O   0  0  0  0  0  0  0  0  0  0  0  0
  189.1020  177.1400  146.2400 O   0  0  0  0  0  0  0  0  0  0  0  0
  190.0310  176.8470  147.2400 C   0  0  0  0  0  2  0  0  0  0  0  0
  192.1970  175.6570  147.3100 C   0  0  0  0  0  1  0  0  0  0  0  0
  191.4160  176.7630  146.6330 C   0  0  0  0  0  2  0  0  0  0  0  0
  189.5570  178.1330  142.9170 C   0  0  0  0  0  2  0  0  0  0  0  0
  190.9530  177.5390  142.9560 C   0  0  0  0  0  2  0  0  0  0  0  0
  191.5050  177.3990  141.5490 C   0  0  0  0  0  2  0  0  0  0  0  0
  190.4880  176.7240  140.6480 C   0  0  0  0  0  2  0  0  0  0  0  0
  190.9270  175.8450  138.1130 S   0  0  0  0  0  1  0  0  0  0  0  0
  190.6430  177.2410  139.2340 C   0  0  0  0  0  2  0  0  0  0  0  0
  1  4  1  0  0  0  0
  1  2  2  0  0  0  0
  3  7  2  0  0  0  0
  5  3  1  0  0  0  0
  5  6  2  0  0  0  0
  6  1  1  0  0  0  0
  7 20  1  0  0  0  0
  7  4  1  0  0  0  0
  8  5  1  0  0  0  0
  9 11  2  0  0  0  0
 11 10  2  0  0  0  0
 11  8  1  0  0  0  0
 12 11  1  0  0  0  0
 13 14  1  6  0  0  0
 13 12  1  0  0  0  0
 14 15  1  0  0  0  0
 16 13  1  0  0  0  0
 17 19  1  0  0  0  0
 17 16  1  0  0  0  0
 18 17  1  0  0  0  0
 18 19  1  0  0  0  0
 20 21  1  0  0  0  0
 21 27  1  6  0  0  0
 21 22  1  0  0  0  0
 22 23  1  0  0  0  0
 23 24  1  0  0  0  0
 26 24  1  0  0  0  0
 26 25  1  0  0  0  0
 27 28  1  0  0  0  0
 29 28  1  0  0  0  0
 30 29  1  0  0  0  0
 31 32  1  0  0  0  0
 32 30  1  0  0  0  0
M  END
>  <MODEL>
2

>  <REMARK>
 VINA RESULT:      -6.0      2.517      5.535
  Name = 
  18 active torsions:
  status: ('A' for Active; 'I' for Inactive)
    1  A    between atoms: C_1  and  O_30
    2  A    between atoms: N_2  and  C_5
    3  A    between atoms: N_2  and  S_27
    4  A    between atoms: C_5  and  C_14
    5  A    between atoms: C_5  and  O_30
    6  A    between atoms: C_6  and  C_17
    7  A    between atoms: C_6  and  C_31
    8  A    between atoms: C_7  and  C_26
    9  A    between atoms: C_7  and  C_31
   10  A    between atoms: O_9  and  C_31
   11  A    between atoms: O_9  and  O_32
   12  A    between atoms: C_12  and  C_28
   13  A    between atoms: C_12  and  O_32
   14  A    between atoms: C_16  and  C_20
   15  A    between atoms: C_16  and  S_27
   16  A    between atoms: C_17  and  C_29
   17  A    between atoms: C_18  and  C_25
   18  A    between atoms: C_18  and  C_29
                            x       y       z     vdW  Elec       q    Type
                         _______ _______ _______ _____ _____    ______ ____

>  <TORSDO>
F 18

$$$$
=
 OpenBabel10272413193D

 32 33  0  0  1  0  0  0  0  0999 V2000
  189.7360  176.3480  142.4400 C   0  0  0  0  0  0  0  0  0  0  0  0
  190.6750  175.6360  142.8820 O   0  0  0  0  0  0  0  0  0  0  0  0
  187.7140  178.0370  141.4640 C   0  0  0  0  0  3  0  0  0  0  0  0
  188.4110  176.3470  143.1490 C   0  0  0  0  0  2  0  0  0  0  0  0
  189.0110  177.9060  140.7810 C   0  0  0  0  0  0  0  0  0  0  0  0
  189.9370  177.1310  141.2590 N   0  0  0  0  0  0  0  0  0  0  0  0
  187.4410  177.3460  142.5740 C   0  0  0  0  0  0  0  0  0  0  0  0
  189.2880  178.7120  139.5580 C   0  0  0  0  0  2  0  0  0  0  0  0
  187.0930  178.6310  137.9980 O   0  0  0  0  0  0  0  0  0  0  0  0
  189.2590  178.3210  136.9010 O   0  0  0  0  0  0  0  0  0  0  0  0
  188.4580  178.0180  138.1380 S   0  0  0  0  0  0  0  0  0  0  0  0
  188.2960  176.3040  138.3260 N   0  0  0  0  0  2  0  0  0  0  0  0
  189.1440  175.6620  137.3230 C   0  0  2  0  0  3  0  0  0  0  0  0
  188.3510  174.6790  136.4650 C   0  0  0  0  0  2  0  0  0  0  0  0
  187.0070  175.0510  136.4340 O   0  0  0  0  0  1  0  0  0  0  0  0
  190.2980  175.0830  137.8970 O   0  0  0  0  0  0  0  0  0  0  0  0
  191.4270  175.4840  137.1640 C   0  0  0  0  0  3  0  0  0  0  0  0
  192.3660  176.2520  138.0720 C   0  0  0  0  0  2  0  0  0  0  0  0
  192.6570  174.8070  137.7350 C   0  0  0  0  0  2  0  0  0  0  0  0
  186.1120  177.5170  143.2410 C   0  0  0  0  0  2  0  0  0  0  0  0
  186.1850  178.3610  144.5160 C   0  0  1  0  0  3  0  0  0  0  0  0
  185.0640  179.1950  144.6180 O   0  0  0  0  0  0  0  0  0  0  0  0
  184.1450  178.6240  143.8650 O   0  0  0  0  0  0  0  0  0  0  0  0
  182.9340  178.9240  144.4910 C   0  0  0  0  0  2  0  0  0  0  0  0
  180.5450  178.5530  143.9730 C   0  0  0  0  0  1  0  0  0  0  0  0
  181.8550  179.0990  143.4440 C   0  0  0  0  0  2  0  0  0  0  0  0
  186.3140  177.4870  145.7560 C   0  0  0  0  0  2  0  0  0  0  0  0
  186.8570  178.2940  146.9210 C   0  0  0  0  0  2  0  0  0  0  0  0
  188.0070  177.5540  147.5820 C   0  0  0  0  0  2  0  0  0  0  0  0
  189.2340  177.5830  146.6900 C   0  0  0  0  0  2  0  0  0  0  0  0
  191.6780  176.5030  146.1850 S   0  0  0  0  0  1  0  0  0  0  0  0
  190.3870  176.9020  147.3940 C   0  0  0  0  0  2  0  0  0  0  0  0
  1  2  2  0  0  0  0
  1  4  1  0  0  0  0
  3  7  2  0  0  0  0
  5  6  2  0  0  0  0
  5  3  1  0  0  0  0
  6  1  1  0  0  0  0
  7  4  1  0  0  0  0
  7 20  1  0  0  0  0
  8  5  1  0  0  0  0
  9 11  2  0  0  0  0
 10 11  2  0  0  0  0
 11 12  1  0  0  0  0
 11  8  1  0  0  0  0
 13 14  1  1  0  0  0
 13 16  1  0  0  0  0
 13 12  1  0  0  0  0
 15 14  1  0  0  0  0
 17 19  1  0  0  0  0
 17 16  1  0  0  0  0
 17 18  1  0  0  0  0
 19 18  1  0  0  0  0
 21 20  1  6  0  0  0
 21 22  1  0  0  0  0
 21 27  1  0  0  0  0
 23 24  1  0  0  0  0
 23 22  1  0  0  0  0
 26 25  1  0  0  0  0
 26 24  1  0  0  0  0
 27 28  1  0  0  0  0
 28 29  1  0  0  0  0
 30 32  1  0  0  0  0
 30 29  1  0  0  0  0
 31 32  1  0  0  0  0
M  END
>  <MODEL>
3

>  <REMARK>
 VINA RESULT:      -6.0      2.948      5.291
  Name = 
  18 active torsions:
  status: ('A' for Active; 'I' for Inactive)
    1  A    between atoms: C_1  and  O_30
    2  A    between atoms: N_2  and  C_5
    3  A    between atoms: N_2  and  S_27
    4  A    between atoms: C_5  and  C_14
    5  A    between atoms: C_5  and  O_30
    6  A    between atoms: C_6  and  C_17
    7  A    between atoms: C_6  and  C_31
    8  A    between atoms: C_7  and  C_26
    9  A    between atoms: C_7  and  C_31
   10  A    between atoms: O_9  and  C_31
   11  A    between atoms: O_9  and  O_32
   12  A    between atoms: C_12  and  C_28
   13  A    between atoms: C_12  and  O_32
   14  A    between atoms: C_16  and  C_20
   15  A    between atoms: C_16  and  S_27
   16  A    between atoms: C_17  and  C_29
   17  A    between atoms: C_18  and  C_25
   18  A    between atoms: C_18  and  C_29
                            x       y       z     vdW  Elec       q    Type
                         _______ _______ _______ _____ _____    ______ ____

>  <TORSDO>
F 18

$$$$
=
 OpenBabel10272413193D

 32 33  0  0  1  0  0  0  0  0999 V2000
  185.2130  178.8840  139.9370 C   0  0  0  0  0  0  0  0  0  0  0  0
  183.9820  179.1470  139.9770 O   0  0  0  0  0  0  0  0  0  0  0  0
  187.9310  178.1920  139.7860 C   0  0  0  0  0  3  0  0  0  0  0  0
  185.9950  178.8070  141.2180 C   0  0  0  0  0  2  0  0  0  0  0  0
  187.1110  178.3790  138.5780 C   0  0  0  0  0  0  0  0  0  0  0  0
  185.8530  178.6840  138.6720 N   0  0  0  0  0  0  0  0  0  0  0  0
  187.4160  178.3560  141.0070 C   0  0  0  0  0  0  0  0  0  0  0  0
  187.7150  178.1620  137.2320 C   0  0  0  0  0  2  0  0  0  0  0  0
  186.5950  175.7120  137.3120 O   0  0  0  0  0  0  0  0  0  0  0  0
  188.0090  176.2370  135.3830 O   0  0  0  0  0  0  0  0  0  0  0  0
  187.8460  176.4190  136.8680 S   0  0  0  0  0  0  0  0  0  0  0  0
  189.2080  175.7410  137.6950 N   0  0  0  0  0  2  0  0  0  0  0  0
  190.2050  175.3770  136.6910 C   0  0  2  0  0  3  0  0  0  0  0  0
  190.4650  173.8720  136.6790 C   0  0  0  0  0  2  0  0  0  0  0  0
  189.4450  173.2080  137.3600 O   0  0  0  0  0  1  0  0  0  0  0  0
  191.3890  176.1380  136.8200 O   0  0  0  0  0  0  0  0  0  0  0  0
  192.2460  175.5020  137.7340 C   0  0  0  0  0  3  0  0  0  0  0  0
  193.6760  175.6240  137.2480 C   0  0  0  0  0  2  0  0  0  0  0  0
  193.1730  176.5330  138.3460 C   0  0  0  0  0  2  0  0  0  0  0  0
  188.2850  178.1470  142.2080 C   0  0  0  0  0  2  0  0  0  0  0  0
  188.2240  176.7170  142.7500 C   0  0  1  0  0  3  0  0  0  0  0  0
  189.5130  176.1840  142.8770 O   0  0  0  0  0  0  0  0  0  0  0  0
  190.3170  177.1280  142.4320 O   0  0  0  0  0  0  0  0  0  0  0  0
  191.5060  176.9480  143.1410 C   0  0  0  0  0  2  0  0  0  0  0  0
  191.2120  179.2510  143.9900 C   0  0  0  0  0  1  0  0  0  0  0  0
  191.4890  177.8160  144.3820 C   0  0  0  0  0  2  0  0  0  0  0  0
  187.4880  176.6570  144.0810 C   0  0  0  0  0  2  0  0  0  0  0  0
  187.7640  177.9060  144.8990 C   0  0  0  0  0  2  0  0  0  0  0  0
  187.1830  177.7600  146.2940 C   0  0  0  0  0  2  0  0  0  0  0  0
  186.1740  178.8600  146.5630 C   0  0  0  0  0  2  0  0  0  0  0  0
  184.0860  179.0050  144.8260 S   0  0  0  0  0  1  0  0  0  0  0  0
  184.7740  178.3230  146.3580 C   0  0  0  0  0  2  0  0  0  0  0  0
  1  2  2  0  0  0  0
  1  4  1  0  0  0  0
  3  7  2  0  0  0  0
  5  6  2  0  0  0  0
  5  3  1  0  0  0  0
  6  1  1  0  0  0  0
  7  4  1  0  0  0  0
  7 20  1  0  0  0  0
  8  5  1  0  0  0  0
 10 11  2  0  0  0  0
 11  8  1  0  0  0  0
 11  9  2  0  0  0  0
 11 12  1  0  0  0  0
 13 14  1  1  0  0  0
 13 16  1  0  0  0  0
 13 12  1  0  0  0  0
 14 15  1  0  0  0  0
 16 17  1  0  0  0  0
 17 19  1  0  0  0  0
 18 17  1  0  0  0  0
 18 19  1  0  0  0  0
 21 20  1  1  0  0  0
 21 22  1  0  0  0  0
 21 27  1  0  0  0  0
 23 22  1  0  0  0  0
 23 24  1  0  0  0  0
 24 26  1  0  0  0  0
 25 26  1  0  0  0  0
 27 28  1  0  0  0  0
 28 29  1  0  0  0  0
 29 30  1  0  0  0  0
 31 32  1  0  0  0  0
 32 30  1  0  0  0  0
M  END
>  <MODEL>
4

>  <REMARK>
 VINA RESULT:      -5.9      2.328      4.948
  Name = 
  18 active torsions:
  status: ('A' for Active; 'I' for Inactive)
    1  A    between atoms: C_1  and  O_30
    2  A    between atoms: N_2  and  C_5
    3  A    between atoms: N_2  and  S_27
    4  A    between atoms: C_5  and  C_14
    5  A    between atoms: C_5  and  O_30
    6  A    between atoms: C_6  and  C_17
    7  A    between atoms: C_6  and  C_31
    8  A    between atoms: C_7  and  C_26
    9  A    between atoms: C_7  and  C_31
   10  A    between atoms: O_9  and  C_31
   11  A    between atoms: O_9  and  O_32
   12  A    between atoms: C_12  and  C_28
   13  A    between atoms: C_12  and  O_32
   14  A    between atoms: C_16  and  C_20
   15  A    between atoms: C_16  and  S_27
   16  A    between atoms: C_17  and  C_29
   17  A    between atoms: C_18  and  C_25
   18  A    between atoms: C_18  and  C_29
                            x       y       z     vdW  Elec       q    Type
                         _______ _______ _______ _____ _____    ______ ____

>  <TORSDO>
F 18

$$$$
=
 OpenBabel10272413193D

 32 33  0  0  1  0  0  0  0  0999 V2000
  191.2460  176.8750  147.0880 C   0  0  0  0  0  0  0  0  0  0  0  0
  192.0190  176.9180  148.0800 O   0  0  0  0  0  0  0  0  0  0  0  0
  189.5970  176.8580  144.8140 C   0  0  0  0  0  3  0  0  0  0  0  0
  189.8000  177.2470  147.2610 C   0  0  0  0  0  2  0  0  0  0  0  0
  191.0020  176.4230  144.7550 C   0  0  0  0  0  0  0  0  0  0  0  0
  191.7490  176.4530  145.8160 N   0  0  0  0  0  0  0  0  0  0  0  0
  189.0440  177.2700  145.9580 C   0  0  0  0  0  0  0  0  0  0  0  0
  191.5900  175.9940  143.4550 C   0  0  0  0  0  2  0  0  0  0  0  0
  191.0840  178.5720  142.8600 O   0  0  0  0  0  0  0  0  0  0  0  0
  192.5960  177.3550  141.3690 O   0  0  0  0  0  0  0  0  0  0  0  0
  191.3500  177.2460  142.2050 S   0  0  0  0  0  0  0  0  0  0  0  0
  190.0040  176.8270  141.1980 N   0  0  0  0  0  2  0  0  0  0  0  0
  190.3860  177.0820  139.8110 C   0  0  2  0  0  3  0  0  0  0  0  0
  189.4680  178.1110  139.1560 C   0  0  0  0  0  2  0  0  0  0  0  0
  188.2110  177.5510  138.9320 O   0  0  0  0  0  1  0  0  0  0  0  0
  190.4940  175.8870  139.0630 O   0  0  0  0  0  0  0  0  0  0  0  0
  191.1970  176.1490  137.8760 C   0  0  0  0  0  3  0  0  0  0  0  0
  192.6850  176.1130  138.1570 C   0  0  0  0  0  2  0  0  0  0  0  0
  192.0130  174.9280  137.5010 C   0  0  0  0  0  2  0  0  0  0  0  0
  187.6150  177.7130  145.9680 C   0  0  0  0  0  2  0  0  0  0  0  0
  186.8970  177.4530  144.6410 C   0  0  1  0  0  3  0  0  0  0  0  0
  185.5120  177.5950  144.7960 O   0  0  0  0  0  0  0  0  0  0  0  0
  185.3640  178.6030  145.6320 O   0  0  0  0  0  0  0  0  0  0  0  0
  183.9890  178.8400  145.6660 C   0  0  0  0  0  2  0  0  0  0  0  0
  182.2310  178.7680  143.9290 C   0  0  0  0  0  1  0  0  0  0  0  0
  183.5420  179.4070  144.3350 C   0  0  0  0  0  2  0  0  0  0  0  0
  187.4080  178.3730  143.5420 C   0  0  0  0  0  2  0  0  0  0  0  0
  186.7640  178.0230  142.2120 C   0  0  0  0  0  2  0  0  0  0  0  0
  185.8380  179.1400  141.7660 C   0  0  0  0  0  2  0  0  0  0  0  0
  185.2080  178.8010  140.4290 C   0  0  0  0  0  2  0  0  0  0  0  0
  182.9900  178.9190  138.8610 S   0  0  0  0  0  1  0  0  0  0  0  0
  183.7050  178.9450  140.5270 C   0  0  0  0  0  2  0  0  0  0  0  0
  1  4  1  0  0  0  0
  1  2  2  0  0  0  0
  3  7  2  0  0  0  0
  5  3  1  0  0  0  0
  5  6  2  0  0  0  0
  6  1  1  0  0  0  0
  7 20  1  0  0  0  0
  7  4  1  0  0  0  0
  8  5  1  0  0  0  0
 10 11  2  0  0  0  0
 11  9  2  0  0  0  0
 11  8  1  0  0  0  0
 12 11  1  0  0  0  0
 13 14  1  6  0  0  0
 13 12  1  0  0  0  0
 15 14  1  0  0  0  0
 16 13  1  0  0  0  0
 17 18  1  0  0  0  0
 17 16  1  0  0  0  0
 19 17  1  0  0  0  0
 19 18  1  0  0  0  0
 21 27  1  6  0  0  0
 21 22  1  0  0  0  0
 21 20  1  0  0  0  0
 22 23  1  0  0  0  0
 23 24  1  0  0  0  0
 25 26  1  0  0  0  0
 26 24  1  0  0  0  0
 28 27  1  0  0  0  0
 29 28  1  0  0  0  0
 30 32  1  0  0  0  0
 30 29  1  0  0  0  0
 31 32  1  0  0  0  0
M  END
>  <MODEL>
5

>  <REMARK>
 VINA RESULT:      -5.8      2.787      5.853
  Name = 
  18 active torsions:
  status: ('A' for Active; 'I' for Inactive)
    1  A    between atoms: C_1  and  O_30
    2  A    between atoms: N_2  and  C_5
    3  A    between atoms: N_2  and  S_27
    4  A    between atoms: C_5  and  C_14
    5  A    between atoms: C_5  and  O_30
    6  A    between atoms: C_6  and  C_17
    7  A    between atoms: C_6  and  C_31
    8  A    between atoms: C_7  and  C_26
    9  A    between atoms: C_7  and  C_31
   10  A    between atoms: O_9  and  C_31
   11  A    between atoms: O_9  and  O_32
   12  A    between atoms: C_12  and  C_28
   13  A    between atoms: C_12  and  O_32
   14  A    between atoms: C_16  and  C_20
   15  A    between atoms: C_16  and  S_27
   16  A    between atoms: C_17  and  C_29
   17  A    between atoms: C_18  and  C_25
   18  A    between atoms: C_18  and  C_29
                            x       y       z     vdW  Elec       q    Type
                         _______ _______ _______ _____ _____    ______ ____

>  <TORSDO>
F 18

$$$$
=
 OpenBabel10272413193D

 32 33  0  0  1  0  0  0  0  0999 V2000
  184.5440  178.8290  144.7530 C   0  0  0  0  0  0  0  0  0  0  0  0
  183.7410  179.1570  145.6650 O   0  0  0  0  0  0  0  0  0  0  0  0
  186.2440  178.0330  142.6630 C   0  0  0  0  0  3  0  0  0  0  0  0
  185.8150  178.1100  145.1100 C   0  0  0  0  0  2  0  0  0  0  0  0
  185.0250  178.8200  142.4130 C   0  0  0  0  0  0  0  0  0  0  0  0
  184.2460  179.1630  143.3930 N   0  0  0  0  0  0  0  0  0  0  0  0
  186.5980  177.6750  143.9000 C   0  0  0  0  0  0  0  0  0  0  0  0
  184.6490  179.1800  141.0170 C   0  0  0  0  0  2  0  0  0  0  0  0
  182.1760  178.5310  141.8680 O   0  0  0  0  0  0  0  0  0  0  0  0
  182.3720  179.5040  139.6300 O   0  0  0  0  0  0  0  0  0  0  0  0
  183.0160  178.5740  140.6220 S   0  0  0  0  0  0  0  0  0  0  0  0
  183.1210  176.9810  139.9500 N   0  0  0  0  0  2  0  0  0  0  0  0
  183.2130  177.1140  138.4970 C   0  0  2  0  0  3  0  0  0  0  0  0
  182.5010  175.9680  137.7830 C   0  0  0  0  0  2  0  0  0  0  0  0
  181.7440  175.2350  138.6970 O   0  0  0  0  0  1  0  0  0  0  0  0
  184.5480  177.2860  138.0650 O   0  0  0  0  0  0  0  0  0  0  0  0
  184.8360  176.3330  137.0740 C   0  0  0  0  0  3  0  0  0  0  0  0
  185.6460  176.9860  135.9730 C   0  0  0  0  0  2  0  0  0  0  0  0
  186.3360  176.1250  137.0060 C   0  0  0  0  0  2  0  0  0  0  0  0
  187.8410  176.8670  144.1060 C   0  0  0  0  0  2  0  0  0  0  0  0
  189.1140  177.7170  144.1110 C   0  0  1  0  0  3  0  0  0  0  0  0
  189.4870  178.0360  145.4240 O   0  0  0  0  0  0  0  0  0  0  0  0
  190.0260  176.9330  145.9020 O   0  0  0  0  0  0  0  0  0  0  0  0
  189.9300  177.0610  147.2890 C   0  0  0  0  0  2  0  0  0  0  0  0
  188.2200  178.2220  148.6450 C   0  0  0  0  0  1  0  0  0  0  0  0
  188.4710  177.0700  147.6940 C   0  0  0  0  0  2  0  0  0  0  0  0
  190.2560  177.0160  143.3890 C   0  0  0  0  0  2  0  0  0  0  0  0
  190.6310  177.7700  142.1260 C   0  0  0  0  0  2  0  0  0  0  0  0
  190.3970  176.9010  140.9040 C   0  0  0  0  0  2  0  0  0  0  0  0
  188.9730  177.0600  140.4090 C   0  0  0  0  0  2  0  0  0  0  0  0
  189.1080  178.5430  138.1330 S   0  0  0  0  0  1  0  0  0  0  0  0
  188.7650  178.4740  139.9120 C   0  0  0  0  0  2  0  0  0  0  0  0
  1  4  1  0  0  0  0
  1  2  2  0  0  0  0
  3  7  2  0  0  0  0
  5  3  1  0  0  0  0
  5  6  2  0  0  0  0
  6  1  1  0  0  0  0
  7 20  1  0  0  0  0
  7  4  1  0  0  0  0
  8  5  1  0  0  0  0
 10 11  2  0  0  0  0
 11  8  1  0  0  0  0
 11  9  2  0  0  0  0
 12 11  1  0  0  0  0
 13 14  1  6  0  0  0
 13 12  1  0  0  0  0
 14 15  1  0  0  0  0
 16 13  1  0  0  0  0
 17 16  1  0  0  0  0
 18 19  1  0  0  0  0
 18 17  1  0  0  0  0
 19 17  1  0  0  0  0
 20 21  1  0  0  0  0
 21 27  1  1  0  0  0
 21 22  1  0  0  0  0
 22 23  1  0  0  0  0
 23 24  1  0  0  0  0
 24 26  1  0  0  0  0
 26 25  1  0  0  0  0
 28 27  1  0  0  0  0
 29 28  1  0  0  0  0
 30 29  1  0  0  0  0
 31 32  1  0  0  0  0
 32 30  1  0  0  0  0
M  END
>  <MODEL>
6

>  <REMARK>
 VINA RESULT:      -5.7      2.737      5.417
  Name = 
  18 active torsions:
  status: ('A' for Active; 'I' for Inactive)
    1  A    between atoms: C_1  and  O_30
    2  A    between atoms: N_2  and  C_5
    3  A    between atoms: N_2  and  S_27
    4  A    between atoms: C_5  and  C_14
    5  A    between atoms: C_5  and  O_30
    6  A    between atoms: C_6  and  C_17
    7  A    between atoms: C_6  and  C_31
    8  A    between atoms: C_7  and  C_26
    9  A    between atoms: C_7  and  C_31
   10  A    between atoms: O_9  and  C_31
   11  A    between atoms: O_9  and  O_32
   12  A    between atoms: C_12  and  C_28
   13  A    between atoms: C_12  and  O_32
   14  A    between atoms: C_16  and  C_20
   15  A    between atoms: C_16  and  S_27
   16  A    between atoms: C_17  and  C_29
   17  A    between atoms: C_18  and  C_25
   18  A    between atoms: C_18  and  C_29
                            x       y       z     vdW  Elec       q    Type
                         _______ _______ _______ _____ _____    ______ ____

>  <TORSDO>
F 18

$$$$
=
 OpenBabel10272413193D

 32 33  0  0  1  0  0  0  0  0999 V2000
  189.3350  177.3510  140.0590 C   0  0  0  0  0  0  0  0  0  0  0  0
  190.0200  177.0800  139.0380 O   0  0  0  0  0  0  0  0  0  0  0  0
  187.7890  177.8320  142.3550 C   0  0  0  0  0  3  0  0  0  0  0  0
  188.1400  178.2530  139.9300 C   0  0  0  0  0  2  0  0  0  0  0  0
  189.0260  177.0360  142.4060 C   0  0  0  0  0  0  0  0  0  0  0  0
  189.7160  176.8140  141.3300 N   0  0  0  0  0  0  0  0  0  0  0  0
  187.3570  178.3700  141.2110 C   0  0  0  0  0  0  0  0  0  0  0  0
  189.4630  176.4320  143.6970 C   0  0  0  0  0  2  0  0  0  0  0  0
  191.9800  177.1840  143.0940 O   0  0  0  0  0  0  0  0  0  0  0  0
  190.7620  178.5480  144.7210 O   0  0  0  0  0  0  0  0  0  0  0  0
  191.0080  177.1440  144.2400 S   0  0  0  0  0  0  0  0  0  0  0  0
  191.6800  176.1940  145.5230 N   0  0  0  0  0  2  0  0  0  0  0  0
  191.2650  176.7950  146.7890 C   0  0  2  0  0  3  0  0  0  0  0  0
  192.1980  176.4000  147.9310 C   0  0  0  0  0  2  0  0  0  0  0  0
  193.1010  175.4320  147.4920 O   0  0  0  0  0  1  0  0  0  0  0  0
  189.9050  176.5360  147.0770 O   0  0  0  0  0  0  0  0  0  0  0  0
  189.3730  177.6180  147.7970 C   0  0  0  0  0  3  0  0  0  0  0  0
  188.1370  178.1320  147.0880 C   0  0  0  0  0  2  0  0  0  0  0  0
  187.9950  177.2480  148.3060 C   0  0  0  0  0  2  0  0  0  0  0  0
  186.0880  179.1650  141.2030 C   0  0  0  0  0  2  0  0  0  0  0  0
  184.9760  178.5270  142.0400 C   0  0  1  0  0  3  0  0  0  0  0  0
  184.6560  179.3420  143.1340 O   0  0  0  0  0  0  0  0  0  0  0  0
  183.3970  179.0660  143.4070 O   0  0  0  0  0  0  0  0  0  0  0  0
  183.3640  178.8770  144.7890 C   0  0  0  0  0  2  0  0  0  0  0  0
  184.8370  178.6160  146.7570 C   0  0  0  0  0  1  0  0  0  0  0  0
  184.7170  178.3920  145.2650 C   0  0  0  0  0  2  0  0  0  0  0  0
  183.7370  178.2500  141.2010 C   0  0  0  0  0  2  0  0  0  0  0  0
  183.8170  178.9820  139.8730 C   0  0  0  0  0  2  0  0  0  0  0  0
  183.2810  178.1060  138.7560 C   0  0  0  0  0  2  0  0  0  0  0  0
  183.1080  176.6790  139.2410 C   0  0  0  0  0  2  0  0  0  0  0  0
  182.1660  175.0520  137.2770 S   0  0  0  0  0  1  0  0  0  0  0  0
  181.8120  176.1150  138.7020 C   0  0  0  0  0  2  0  0  0  0  0  0
  1  6  1  0  0  0  0
  2  1  2  0  0  0  0
  3  5  1  0  0  0  0
  4  1  1  0  0  0  0
  4  7  1  0  0  0  0
  5  8  1  0  0  0  0
  6  5  2  0  0  0  0
  7  3  2  0  0  0  0
  8 11  1  0  0  0  0
  9 11  2  0  0  0  0
 11 10  2  0  0  0  0
 11 12  1  0  0  0  0
 12 13  1  0  0  0  0
 13 16  1  0  0  0  0
 13 14  1  1  0  0  0
 15 14  1  0  0  0  0
 16 17  1  0  0  0  0
 17 19  1  0  0  0  0
 18 17  1  0  0  0  0
 18 19  1  0  0  0  0
 20  7  1  0  0  0  0
 20 21  1  0  0  0  0
 21 27  1  6  0  0  0
 21 22  1  0  0  0  0
 22 23  1  0  0  0  0
 23 24  1  0  0  0  0
 24 26  1  0  0  0  0
 26 25  1  0  0  0  0
 28 27  1  0  0  0  0
 29 30  1  0  0  0  0
 29 28  1  0  0  0  0
 31 32  1  0  0  0  0
 32 30  1  0  0  0  0
M  END
>  <MODEL>
7

>  <REMARK>
 VINA RESULT:      -5.7      3.091      7.382
  Name = 
  18 active torsions:
  status: ('A' for Active; 'I' for Inactive)
    1  A    between atoms: C_1  and  O_30
    2  A    between atoms: N_2  and  C_5
    3  A    between atoms: N_2  and  S_27
    4  A    between atoms: C_5  and  C_14
    5  A    between atoms: C_5  and  O_30
    6  A    between atoms: C_6  and  C_17
    7  A    between atoms: C_6  and  C_31
    8  A    between atoms: C_7  and  C_26
    9  A    between atoms: C_7  and  C_31
   10  A    between atoms: O_9  and  C_31
   11  A    between atoms: O_9  and  O_32
   12  A    between atoms: C_12  and  C_28
   13  A    between atoms: C_12  and  O_32
   14  A    between atoms: C_16  and  C_20
   15  A    between atoms: C_16  and  S_27
   16  A    between atoms: C_17  and  C_29
   17  A    between atoms: C_18  and  C_25
   18  A    between atoms: C_18  and  C_29
                            x       y       z     vdW  Elec       q    Type
                         _______ _______ _______ _____ _____    ______ ____

>  <TORSDO>
F 18

$$$$
=
 OpenBabel10272413193D

 32 33  0  0  1  0  0  0  0  0999 V2000
  184.5130  178.8350  144.6060 C   0  0  0  0  0  0  0  0  0  0  0  0
  183.6560  179.1480  145.4740 O   0  0  0  0  0  0  0  0  0  0  0  0
  186.3360  178.0790  142.6070 C   0  0  0  0  0  3  0  0  0  0  0  0
  185.7550  178.0990  145.0240 C   0  0  0  0  0  2  0  0  0  0  0  0
  185.1390  178.8800  142.3020 C   0  0  0  0  0  0  0  0  0  0  0  0
  184.3030  179.2050  143.2390 N   0  0  0  0  0  0  0  0  0  0  0  0
  186.6100  177.6870  143.8550 C   0  0  0  0  0  0  0  0  0  0  0  0
  184.8540  179.2770  140.8940 C   0  0  0  0  0  2  0  0  0  0  0  0
  183.3880  177.0380  140.5730 O   0  0  0  0  0  0  0  0  0  0  0  0
  182.1780  179.1110  141.0560 O   0  0  0  0  0  0  0  0  0  0  0  0
  183.3450  178.5190  140.3130 S   0  0  0  0  0  0  0  0  0  0  0  0
  183.1590  178.7940  138.6140 N   0  0  0  0  0  2  0  0  0  0  0  0
  181.9840  178.0480  138.1660 C   0  0  2  0  0  3  0  0  0  0  0  0
  182.2990  177.1840  136.9470 C   0  0  0  0  0  2  0  0  0  0  0  0
  183.6800  177.0460  136.8060 O   0  0  0  0  0  1  0  0  0  0  0  0
  180.8670  178.8910  137.9680 O   0  0  0  0  0  0  0  0  0  0  0  0
  181.2820  180.0550  137.3000 C   0  0  0  0  0  3  0  0  0  0  0  0
  180.2110  180.4760  136.3150 C   0  0  0  0  0  2  0  0  0  0  0  0
  180.3360  181.1890  137.6420 C   0  0  0  0  0  2  0  0  0  0  0  0
  187.8330  176.8660  144.1180 C   0  0  0  0  0  2  0  0  0  0  0  0
  189.1140  177.7010  144.1780 C   0  0  1  0  0  3  0  0  0  0  0  0
  189.4530  177.9870  145.5070 O   0  0  0  0  0  0  0  0  0  0  0  0
  189.3820  176.8300  146.1330 O   0  0  0  0  0  0  0  0  0  0  0  0
  190.3100  176.9270  147.1710 C   0  0  0  0  0  2  0  0  0  0  0  0
  192.3890  175.7770  147.8540 C   0  0  0  0  0  1  0  0  0  0  0  0
  191.6540  176.4160  146.6950 C   0  0  0  0  0  2  0  0  0  0  0  0
  190.2680  177.0020  143.4720 C   0  0  0  0  0  2  0  0  0  0  0  0
  189.8180  176.4530  142.1300 C   0  0  0  0  0  2  0  0  0  0  0  0
  190.0320  177.4880  141.0400 C   0  0  0  0  0  2  0  0  0  0  0  0
  188.9300  177.3970  140.0020 C   0  0  0  0  0  2  0  0  0  0  0  0
  189.3500  177.8590  137.3560 S   0  0  0  0  0  1  0  0  0  0  0  0
  189.0700  178.5350  139.0140 C   0  0  0  0  0  2  0  0  0  0  0  0
  1  4  1  0  0  0  0
  1  2  2  0  0  0  0
  3  7  2  0  0  0  0
  5  3  1  0  0  0  0
  5  6  2  0  0  0  0
  6  1  1  0  0  0  0
  7 20  1  0  0  0  0
  7  4  1  0  0  0  0
  8  5  1  0  0  0  0
 11  9  2  0  0  0  0
 11  8  1  0  0  0  0
 11 10  2  0  0  0  0
 12 11  1  0  0  0  0
 13 14  1  6  0  0  0
 13 12  1  0  0  0  0
 15 14  1  0  0  0  0
 16 13  1  0  0  0  0
 17 19  1  0  0  0  0
 17 16  1  0  0  0  0
 18 17  1  0  0  0  0
 18 19  1  0  0  0  0
 20 21  1  0  0  0  0
 21 27  1  1  0  0  0
 21 22  1  0  0  0  0
 22 23  1  0  0  0  0
 23 24  1  0  0  0  0
 26 24  1  0  0  0  0
 26 25  1  0  0  0  0
 28 27  1  0  0  0  0
 29 28  1  0  0  0  0
 30 29  1  0  0  0  0
 31 32  1  0  0  0  0
 32 30  1  0  0  0  0
M  END
>  <MODEL>
8

>  <REMARK>
 VINA RESULT:      -5.7      2.958      5.506
  Name = 
  18 active torsions:
  status: ('A' for Active; 'I' for Inactive)
    1  A    between atoms: C_1  and  O_30
    2  A    between atoms: N_2  and  C_5
    3  A    between atoms: N_2  and  S_27
    4  A    between atoms: C_5  and  C_14
    5  A    between atoms: C_5  and  O_30
    6  A    between atoms: C_6  and  C_17
    7  A    between atoms: C_6  and  C_31
    8  A    between atoms: C_7  and  C_26
    9  A    between atoms: C_7  and  C_31
   10  A    between atoms: O_9  and  C_31
   11  A    between atoms: O_9  and  O_32
   12  A    between atoms: C_12  and  C_28
   13  A    between atoms: C_12  and  O_32
   14  A    between atoms: C_16  and  C_20
   15  A    between atoms: C_16  and  S_27
   16  A    between atoms: C_17  and  C_29
   17  A    between atoms: C_18  and  C_25
   18  A    between atoms: C_18  and  C_29
                            x       y       z     vdW  Elec       q    Type
                         _______ _______ _______ _____ _____    ______ ____

>  <TORSDO>
F 18

$$$$
=
 OpenBabel10272413193D

 32 33  0  0  1  0  0  0  0  0999 V2000
  189.2880  177.7640  137.1390 C   0  0  0  0  0  0  0  0  0  0  0  0
  188.9140  178.1400  135.9980 O   0  0  0  0  0  0  0  0  0  0  0  0
  190.1040  176.8050  139.6510 C   0  0  0  0  0  3  0  0  0  0  0  0
  188.5950  178.3010  138.3600 C   0  0  0  0  0  2  0  0  0  0  0  0
  190.7850  176.4030  138.4100 C   0  0  0  0  0  0  0  0  0  0  0  0
  190.3820  176.8470  137.2590 N   0  0  0  0  0  0  0  0  0  0  0  0
  189.0730  177.6550  139.6330 C   0  0  0  0  0  0  0  0  0  0  0  0
  191.9160  175.4330  138.4670 C   0  0  0  0  0  2  0  0  0  0  0  0
  193.6760  176.8870  137.0350 O   0  0  0  0  0  0  0  0  0  0  0  0
  193.4960  177.3830  139.4250 O   0  0  0  0  0  0  0  0  0  0  0  0
  193.4850  176.2830  138.3980 S   0  0  0  0  0  0  0  0  0  0  0  0
  194.7750  175.1720  138.7150 N   0  0  0  0  0  2  0  0  0  0  0  0
  195.1800  174.5820  137.4400 C   0  0  2  0  0  3  0  0  0  0  0  0
  195.2530  173.0600  137.5240 C   0  0  0  0  0  2  0  0  0  0  0  0
  195.3630  172.6620  138.8560 O   0  0  0  0  0  1  0  0  0  0  0  0
  196.3700  175.1630  136.9430 O   0  0  0  0  0  0  0  0  0  0  0  0
  196.2760  175.2790  135.5470 C   0  0  0  0  0  3  0  0  0  0  0  0
  196.7620  176.6510  135.1260 C   0  0  0  0  0  2  0  0  0  0  0  0
  197.6660  175.4500  134.9670 C   0  0  0  0  0  2  0  0  0  0  0  0
  188.4050  178.0290  140.9190 C   0  0  0  0  0  2  0  0  0  0  0  0
  188.9610  177.2700  142.1270 C   0  0  1  0  0  3  0  0  0  0  0  0
  189.7460  178.1170  142.9200 O   0  0  0  0  0  0  0  0  0  0  0  0
  190.8910  177.4810  143.0660 O   0  0  0  0  0  0  0  0  0  0  0  0
  191.5820  178.2080  144.0370 C   0  0  0  0  0  2  0  0  0  0  0  0
  191.6910  176.3110  145.6180 C   0  0  0  0  0  1  0  0  0  0  0  0
  191.1790  177.7210  145.4130 C   0  0  0  0  0  2  0  0  0  0  0  0
  187.8460  176.6470  142.9550 C   0  0  0  0  0  2  0  0  0  0  0  0
  187.9980  177.0170  144.4190 C   0  0  0  0  0  2  0  0  0  0  0  0
  186.9170  178.0020  144.8270 C   0  0  0  0  0  2  0  0  0  0  0  0
  186.5010  177.7610  146.2660 C   0  0  0  0  0  2  0  0  0  0  0  0
  184.4110  178.8740  144.9270 S   0  0  0  0  0  1  0  0  0  0  0  0
  185.1460  178.3890  146.5120 C   0  0  0  0  0  2  0  0  0  0  0  0
  1  6  1  0  0  0  0
  1  4  1  0  0  0  0
  2  1  2  0  0  0  0
  4  7  1  0  0  0  0
  5  8  1  0  0  0  0
  5  3  1  0  0  0  0
  6  5  2  0  0  0  0
  7  3  2  0  0  0  0
  7 20  1  0  0  0  0
  9 11  2  0  0  0  0
 11  8  1  0  0  0  0
 11 12  1  0  0  0  0
 11 10  2  0  0  0  0
 13 14  1  1  0  0  0
 13 12  1  0  0  0  0
 14 15  1  0  0  0  0
 16 13  1  0  0  0  0
 17 16  1  0  0  0  0
 18 17  1  0  0  0  0
 19 18  1  0  0  0  0
 19 17  1  0  0  0  0
 21 20  1  6  0  0  0
 21 22  1  0  0  0  0
 21 27  1  0  0  0  0
 22 23  1  0  0  0  0
 23 24  1  0  0  0  0
 24 26  1  0  0  0  0
 26 25  1  0  0  0  0
 27 28  1  0  0  0  0
 28 29  1  0  0  0  0
 29 30  1  0  0  0  0
 30 32  1  0  0  0  0
 31 32  1  0  0  0  0
M  END
>  <MODEL>
9

>  <REMARK>
 VINA RESULT:      -5.6      3.481      6.649
  Name = 
  18 active torsions:
  status: ('A' for Active; 'I' for Inactive)
    1  A    between atoms: C_1  and  O_30
    2  A    between atoms: N_2  and  C_5
    3  A    between atoms: N_2  and  S_27
    4  A    between atoms: C_5  and  C_14
    5  A    between atoms: C_5  and  O_30
    6  A    between atoms: C_6  and  C_17
    7  A    between atoms: C_6  and  C_31
    8  A    between atoms: C_7  and  C_26
    9  A    between atoms: C_7  and  C_31
   10  A    between atoms: O_9  and  C_31
   11  A    between atoms: O_9  and  O_32
   12  A    between atoms: C_12  and  C_28
   13  A    between atoms: C_12  and  O_32
   14  A    between atoms: C_16  and  C_20
   15  A    between atoms: C_16  and  S_27
   16  A    between atoms: C_17  and  C_29
   17  A    between atoms: C_18  and  C_25
   18  A    between atoms: C_18  and  C_29
                            x       y       z     vdW  Elec       q    Type
                         _______ _______ _______ _____ _____    ______ ____

>  <TORSDO>
F 18

$$$$
