=
 OpenBabel10272401003D

 27 31  0  0  1  0  0  0  0  0999 V2000
  189.2420  178.5040  140.0200 C   0  0  0  0  0  2  0  0  0  0  0  0
  186.9560  178.4140  140.9970 C   0  0  0  0  0  0  0  0  0  0  0  0
  188.0740  177.0590  142.6940 N   0  0  0  0  0  2  0  0  0  0  0  0
  184.0070  179.7020  143.6190 C   0  0  0  0  0  3  0  0  0  0  0  0
  183.9270  179.2330  144.9270 C   0  0  0  0  0  3  0  0  0  0  0  0
  185.9710  179.2700  140.6270 N   0  0  0  0  0  0  0  0  0  0  0  0
  185.8690  177.8230  144.5540 C   0  0  0  0  0  0  0  0  0  0  0  0
  190.9510  178.0210  144.8530 C   0  0  0  0  0  3  0  0  0  0  0  0
  186.7420  176.7570  145.1210 C   0  0  0  0  0  1  0  0  0  0  0  0
  191.9620  178.2080  143.9090 C   0  0  0  0  0  3  0  0  0  0  0  0
  185.9890  178.3210  143.2250 C   0  0  0  0  0  0  0  0  0  0  0  0
  187.8910  177.9580  140.0190 N   0  0  0  0  0  0  0  0  0  0  0  0
  184.8480  178.2920  145.3850 C   0  0  0  0  0  3  0  0  0  0  0  0
  185.0160  179.2470  142.7690 C   0  0  0  0  0  0  0  0  0  0  0  0
  190.1510  177.6120  140.7200 N   0  0  0  0  0  2  0  0  0  0  0  0
  187.0140  177.9450  142.3170 C   0  0  0  0  0  0  0  0  0  0  0  0
  189.6650  177.6760  144.4350 C   0  0  0  0  0  3  0  0  0  0  0  0
  185.0450  179.6860  141.4870 N   0  0  0  0  0  0  0  0  0  0  0  0
  191.6820  178.0600  142.5500 C   0  0  0  0  0  3  0  0  0  0  0  0
  190.3900  177.7360  142.1210 C   0  0  0  0  0  0  0  0  0  0  0  0
  189.3690  177.5350  143.0730 C   0  0  0  0  0  0  0  0  0  0  0  0
  187.0010  176.2520  136.2120 C   0  0  0  0  0  3  0  0  0  0  0  0
  187.3980  177.1920  138.8780 C   0  0  2  0  0  3  0  0  0  0  0  0
  188.5450  176.4680  138.1690 C   0  0  0  0  0  2  0  0  0  0  0  0
  188.1180  175.8700  136.8530 C   0  0  0  0  0  3  0  0  0  0  0  0
  186.0230  177.2340  136.8040 C   0  0  0  0  0  2  0  0  0  0  0  0
  186.6600  178.0960  137.8920 C   0  0  0  0  0  2  0  0  0  0  0  0
  1 15  1  0  0  0  0
  2 16  1  0  0  0  0
  3 21  1  0  0  0  0
  4  5  2  0  0  0  0
  5 13  1  0  0  0  0
  6  2  2  0  0  0  0
  6 18  1  0  0  0  0
  7  9  1  0  0  0  0
  7 13  2  0  0  0  0
 10  8  2  0  0  0  0
 11  7  1  0  0  0  0
 12  1  1  0  0  0  0
 12  2  1  0  0  0  0
 14 11  1  0  0  0  0
 14  4  1  0  0  0  0
 15 20  1  0  0  0  0
 16  3  1  0  0  0  0
 16 11  2  0  0  0  0
 17  8  1  0  0  0  0
 18 14  2  0  0  0  0
 19 10  1  0  0  0  0
 20 19  2  0  0  0  0
 20 21  1  0  0  0  0
 21 17  2  0  0  0  0
 22 26  1  0  0  0  0
 22 25  2  0  0  0  0
 23 27  1  6  0  0  0
 23 12  1  0  0  0  0
 24 23  1  0  0  0  0
 25 24  1  0  0  0  0
 26 27  1  0  0  0  0
M  END
>  <MODEL>
1

>  <REMARK>
 VINA RESULT:      -8.5      0.000      0.000
  Name = 
  1 active torsions:
  status: ('A' for Active; 'I' for Inactive)
    1  A    between atoms: C_9  and  N_15
                            x       y       z     vdW  Elec       q    Type
                         _______ _______ _______ _____ _____    ______ ____

>  <TORSDO>
F 1

$$$$
=
 OpenBabel10272401003D

 27 31  0  0  1  0  0  0  0  0999 V2000
  189.0820  178.6000  140.0670 C   0  0  0  0  0  2  0  0  0  0  0  0
  190.9950  177.0380  139.7780 C   0  0  0  0  0  0  0  0  0  0  0  0
  189.3370  175.7320  138.5480 N   0  0  0  0  0  2  0  0  0  0  0  0
  194.1810  175.4570  137.6380 C   0  0  0  0  0  3  0  0  0  0  0  0
  194.0060  174.4580  136.6840 C   0  0  0  0  0  3  0  0  0  0  0  0
  192.2810  177.4100  139.9980 N   0  0  0  0  0  0  0  0  0  0  0  0
  191.6160  174.4460  137.1170 C   0  0  0  0  0  0  0  0  0  0  0  0
  187.3580  176.7760  135.5710 C   0  0  0  0  0  3  0  0  0  0  0  0
  190.3190  173.7710  136.8320 C   0  0  0  0  0  1  0  0  0  0  0  0
  186.5890  177.8170  136.0950 C   0  0  0  0  0  3  0  0  0  0  0  0
  191.7720  175.4940  138.0680 C   0  0  0  0  0  0  0  0  0  0  0  0
  189.9610  177.5700  140.6050 N   0  0  0  0  0  0  0  0  0  0  0  0
  192.7320  173.9510  136.4350 C   0  0  0  0  0  3  0  0  0  0  0  0
  193.0840  175.9650  138.3340 C   0  0  0  0  0  0  0  0  0  0  0  0
  187.8430  178.0140  139.5870 N   0  0  0  0  0  2  0  0  0  0  0  0
  190.7020  176.0960  138.7800 C   0  0  0  0  0  0  0  0  0  0  0  0
  188.2850  176.1200  136.3840 C   0  0  0  0  0  3  0  0  0  0  0  0
  193.2870  176.9050  139.2890 N   0  0  0  0  0  0  0  0  0  0  0  0
  186.7560  178.2060  137.4250 C   0  0  0  0  0  3  0  0  0  0  0  0
  187.6990  177.5690  138.2400 C   0  0  0  0  0  0  0  0  0  0  0  0
  188.4690  176.5090  137.7170 C   0  0  0  0  0  0  0  0  0  0  0  0
  189.3520  177.3190  144.8190 C   0  0  0  0  0  3  0  0  0  0  0  0
  189.9930  177.2910  142.0380 C   0  0  2  0  0  3  0  0  0  0  0  0
  188.6760  176.6630  142.5020 C   0  0  0  0  0  2  0  0  0  0  0  0
  188.5760  176.5870  144.0040 C   0  0  0  0  0  3  0  0  0  0  0  0
  190.4630  178.2000  144.3060 C   0  0  0  0  0  2  0  0  0  0  0  0
  190.2760  178.5630  142.8350 C   0  0  0  0  0  2  0  0  0  0  0  0
  1 12  1  0  0  0  0
  2  6  1  0  0  0  0
  2 12  1  0  0  0  0
  3 16  1  0  0  0  0
  4 14  1  0  0  0  0
  5  4  2  0  0  0  0
  7 11  1  0  0  0  0
  8 10  2  0  0  0  0
  8 17  1  0  0  0  0
  9  7  1  0  0  0  0
 10 19  1  0  0  0  0
 11 14  2  0  0  0  0
 11 16  1  0  0  0  0
 13  5  1  0  0  0  0
 13  7  2  0  0  0  0
 14 18  1  0  0  0  0
 15  1  1  0  0  0  0
 16  2  2  0  0  0  0
 17 21  2  0  0  0  0
 18  6  2  0  0  0  0
 19 20  2  0  0  0  0
 20 15  1  0  0  0  0
 21 20  1  0  0  0  0
 21  3  1  0  0  0  0
 23 12  1  6  0  0  0
 23 24  1  0  0  0  0
 23 27  1  0  0  0  0
 24 25  1  0  0  0  0
 25 22  2  0  0  0  0
 26 22  1  0  0  0  0
 27 26  1  0  0  0  0
M  END
>  <MODEL>
2

>  <REMARK>
 VINA RESULT:      -8.2      2.702      7.972
  Name = 
  1 active torsions:
  status: ('A' for Active; 'I' for Inactive)
    1  A    between atoms: C_9  and  N_15
                            x       y       z     vdW  Elec       q    Type
                         _______ _______ _______ _____ _____    ______ ____

>  <TORSDO>
F 1

$$$$
=
 OpenBabel10272401003D

 27 31  0  0  1  0  0  0  0  0999 V2000
  183.3230  177.7880  140.4730 C   0  0  0  0  0  2  0  0  0  0  0  0
  184.6510  177.6600  138.3740 C   0  0  0  0  0  0  0  0  0  0  0  0
  186.2930  178.8810  139.7080 N   0  0  0  0  0  2  0  0  0  0  0  0
  187.5430  175.9580  135.9310 C   0  0  0  0  0  3  0  0  0  0  0  0
  188.8910  176.2810  136.0490 C   0  0  0  0  0  3  0  0  0  0  0  0
  184.3470  176.8000  137.3700 N   0  0  0  0  0  0  0  0  0  0  0  0
  188.3780  177.8160  137.8590 C   0  0  0  0  0  0  0  0  0  0  0  0
  187.8500  177.8390  142.9260 C   0  0  0  0  0  3  0  0  0  0  0  0
  188.9170  178.8580  138.7780 C   0  0  0  0  0  1  0  0  0  0  0  0
  186.7430  177.8030  143.7760 C   0  0  0  0  0  3  0  0  0  0  0  0
  187.0000  177.4690  137.7780 C   0  0  0  0  0  0  0  0  0  0  0  0
  183.5950  178.2630  139.1230 N   0  0  0  0  0  0  0  0  0  0  0  0
  189.3010  177.2120  137.0010 C   0  0  0  0  0  3  0  0  0  0  0  0
  186.6010  176.5490  136.7740 C   0  0  0  0  0  0  0  0  0  0  0  0
  183.9660  178.6440  141.4540 N   0  0  0  0  0  2  0  0  0  0  0  0
  185.9900  177.9890  138.6300 C   0  0  0  0  0  0  0  0  0  0  0  0
  187.6810  178.1630  141.5780 C   0  0  0  0  0  3  0  0  0  0  0  0
  185.2890  176.2500  136.6080 N   0  0  0  0  0  0  0  0  0  0  0  0
  185.4700  178.0800  143.2750 C   0  0  0  0  0  3  0  0  0  0  0  0
  185.2890  178.3840  141.9210 C   0  0  0  0  0  0  0  0  0  0  0  0
  186.4070  178.4330  141.0620 C   0  0  0  0  0  0  0  0  0  0  0  0
  180.5240  180.9680  137.9220 C   0  0  0  0  0  3  0  0  0  0  0  0
  182.6400  179.1200  138.4270 C   0  0  2  0  0  3  0  0  0  0  0  0
  182.8210  180.5840  138.8360 C   0  0  0  0  0  2  0  0  0  0  0  0
  181.7040  181.4610  138.3310 C   0  0  0  0  0  3  0  0  0  0  0  0
  180.2530  179.4880  137.8310 C   0  0  0  0  0  2  0  0  0  0  0  0
  181.2060  178.6720  138.7020 C   0  0  0  0  0  2  0  0  0  0  0  0
  1 15  1  0  0  0  0
  2 16  1  0  0  0  0
  2 12  1  0  0  0  0
  3 21  1  0  0  0  0
  4  5  2  0  0  0  0
  4 14  1  0  0  0  0
  5 13  1  0  0  0  0
  6  2  2  0  0  0  0
  7  9  1  0  0  0  0
  8 10  1  0  0  0  0
 11  7  1  0  0  0  0
 11 16  2  0  0  0  0
 12  1  1  0  0  0  0
 13  7  2  0  0  0  0
 14 11  1  0  0  0  0
 15 20  1  0  0  0  0
 16  3  1  0  0  0  0
 17  8  2  0  0  0  0
 18 14  2  0  0  0  0
 18  6  1  0  0  0  0
 19 10  2  0  0  0  0
 20 19  1  0  0  0  0
 21 17  1  0  0  0  0
 21 20  2  0  0  0  0
 22 25  2  0  0  0  0
 23 27  1  1  0  0  0
 23 24  1  0  0  0  0
 23 12  1  0  0  0  0
 25 24  1  0  0  0  0
 26 22  1  0  0  0  0
 26 27  1  0  0  0  0
M  END
>  <MODEL>
3

>  <REMARK>
 VINA RESULT:      -7.3      3.173      6.326
  Name = 
  1 active torsions:
  status: ('A' for Active; 'I' for Inactive)
    1  A    between atoms: C_9  and  N_15
                            x       y       z     vdW  Elec       q    Type
                         _______ _______ _______ _____ _____    ______ ____

>  <TORSDO>
F 1

$$$$
=
 OpenBabel10272401003D

 27 31  0  0  1  0  0  0  0  0999 V2000
  184.7460  179.3330  140.0410 C   0  0  0  0  0  2  0  0  0  0  0  0
  184.5760  178.7930  142.4630 C   0  0  0  0  0  0  0  0  0  0  0  0
  186.4260  177.2880  141.9360 N   0  0  0  0  0  2  0  0  0  0  0  0
  185.7260  179.2100  146.4290 C   0  0  0  0  0  3  0  0  0  0  0  0
  186.7950  178.4990  146.9660 C   0  0  0  0  0  3  0  0  0  0  0  0
  183.9050  179.5800  143.3400 N   0  0  0  0  0  0  0  0  0  0  0  0
  187.1740  177.4240  144.8210 C   0  0  0  0  0  0  0  0  0  0  0  0
  189.7410  178.1640  140.4830 C   0  0  0  0  0  3  0  0  0  0  0  0
  187.9460  176.3830  144.0870 C   0  0  0  0  0  1  0  0  0  0  0  0
  189.3790  178.6430  139.2230 C   0  0  0  0  0  3  0  0  0  0  0  0
  186.1070  178.1720  144.2460 C   0  0  0  0  0  0  0  0  0  0  0  0
  184.0760  178.6420  141.1340 N   0  0  0  0  0  0  0  0  0  0  0  0
  187.5060  177.6060  146.1670 C   0  0  0  0  0  3  0  0  0  0  0  0
  185.3720  179.0450  145.0890 C   0  0  0  0  0  0  0  0  0  0  0  0
  185.6710  178.4410  139.3630 N   0  0  0  0  0  2  0  0  0  0  0  0
  185.7190  178.0960  142.8820 C   0  0  0  0  0  0  0  0  0  0  0  0
  188.7540  177.7530  141.3810 C   0  0  0  0  0  3  0  0  0  0  0  0
  184.2990  179.7150  144.6040 N   0  0  0  0  0  0  0  0  0  0  0  0
  188.0310  178.7190  138.8670 C   0  0  0  0  0  3  0  0  0  0  0  0
  187.0340  178.3290  139.7690 C   0  0  0  0  0  0  0  0  0  0  0  0
  187.3980  177.8340  141.0390 C   0  0  0  0  0  0  0  0  0  0  0  0
  180.3500  177.1280  139.7120 C   0  0  0  0  0  3  0  0  0  0  0  0
  182.7550  178.0490  140.9430 C   0  0  2  0  0  3  0  0  0  0  0  0
  182.8240  176.8620  139.9780 C   0  0  0  0  0  2  0  0  0  0  0  0
  181.4560  176.3800  139.5660 C   0  0  0  0  0  3  0  0  0  0  0  0
  180.3650  178.4700  140.3980 C   0  0  0  0  0  2  0  0  0  0  0  0
  181.7610  179.0870  140.4280 C   0  0  0  0  0  2  0  0  0  0  0  0
  1 12  1  0  0  0  0
  2 16  2  0  0  0  0
  2  6  1  0  0  0  0
  3 16  1  0  0  0  0
  4  5  1  0  0  0  0
  6 18  2  0  0  0  0
  7 13  1  0  0  0  0
  8 17  1  0  0  0  0
  9  7  1  0  0  0  0
 10  8  2  0  0  0  0
 11  7  2  0  0  0  0
 11 14  1  0  0  0  0
 12  2  1  0  0  0  0
 13  5  2  0  0  0  0
 14  4  2  0  0  0  0
 15 20  1  0  0  0  0
 15  1  1  0  0  0  0
 16 11  1  0  0  0  0
 18 14  1  0  0  0  0
 19 10  1  0  0  0  0
 19 20  2  0  0  0  0
 20 21  1  0  0  0  0
 21 17  2  0  0  0  0
 21  3  1  0  0  0  0
 22 26  1  0  0  0  0
 23 24  1  6  0  0  0
 23 12  1  0  0  0  0
 25 22  2  0  0  0  0
 25 24  1  0  0  0  0
 26 27  1  0  0  0  0
 27 23  1  0  0  0  0
M  END
>  <MODEL>
4

>  <REMARK>
 VINA RESULT:      -7.2      2.641      4.305
  Name = 
  1 active torsions:
  status: ('A' for Active; 'I' for Inactive)
    1  A    between atoms: C_9  and  N_15
                            x       y       z     vdW  Elec       q    Type
                         _______ _______ _______ _____ _____    ______ ____

>  <TORSDO>
F 1

$$$$
=
 OpenBabel10272401003D

 27 31  0  0  1  0  0  0  0  0999 V2000
  183.4330  177.8250  140.9830 C   0  0  0  0  0  2  0  0  0  0  0  0
  184.1370  177.6840  138.6010 C   0  0  0  0  0  0  0  0  0  0  0  0
  186.0940  178.8850  139.4340 N   0  0  0  0  0  2  0  0  0  0  0  0
  186.2350  175.9500  135.4670 C   0  0  0  0  0  3  0  0  0  0  0  0
  187.5680  176.2580  135.2120 C   0  0  0  0  0  3  0  0  0  0  0  0
  183.5610  176.8280  137.7200 N   0  0  0  0  0  0  0  0  0  0  0  0
  187.5850  177.7980  137.0900 C   0  0  0  0  0  0  0  0  0  0  0  0
  188.4580  177.8240  142.1090 C   0  0  0  0  0  3  0  0  0  0  0  0
  188.3650  178.8330  137.8240 C   0  0  0  0  0  1  0  0  0  0  0  0
  187.6240  177.8000  143.2280 C   0  0  0  0  0  3  0  0  0  0  0  0
  186.2330  177.4660  137.3880 C   0  0  0  0  0  0  0  0  0  0  0  0
  183.3330  178.2980  139.6080 N   0  0  0  0  0  0  0  0  0  0  0  0
  188.2320  177.1840  136.0140 C   0  0  0  0  0  3  0  0  0  0  0  0
  185.5650  176.5520  136.5330 C   0  0  0  0  0  0  0  0  0  0  0  0
  184.3290  178.6730  141.7490 N   0  0  0  0  0  2  0  0  0  0  0  0
  185.4990  177.9970  138.4820 C   0  0  0  0  0  0  0  0  0  0  0  0
  187.9310  178.1510  140.8570 C   0  0  0  0  0  3  0  0  0  0  0  0
  184.2550  176.2680  136.7320 N   0  0  0  0  0  0  0  0  0  0  0  0
  186.2660  178.0920  143.0930 C   0  0  0  0  0  3  0  0  0  0  0  0
  185.7260  178.3980  141.8380 C   0  0  0  0  0  0  0  0  0  0  0  0
  186.5680  178.4350  140.7070 C   0  0  0  0  0  0  0  0  0  0  0  0
  180.4210  181.3680  139.0680 C   0  0  0  0  0  3  0  0  0  0  0  0
  182.2330  179.1660  139.1970 C   0  0  2  0  0  3  0  0  0  0  0  0
  182.7560  180.5300  138.7400 C   0  0  0  0  0  2  0  0  0  0  0  0
  181.6460  181.5310  138.5420 C   0  0  0  0  0  3  0  0  0  0  0  0
  180.0180  180.1190  139.8100 C   0  0  0  0  0  2  0  0  0  0  0  0
  181.2260  179.3440  140.3310 C   0  0  0  0  0  2  0  0  0  0  0  0
  1 15  1  0  0  0  0
  2 12  1  0  0  0  0
  3 21  1  0  0  0  0
  4 14  1  0  0  0  0
  5  4  2  0  0  0  0
  5 13  1  0  0  0  0
  6  2  2  0  0  0  0
  7 11  1  0  0  0  0
  7  9  1  0  0  0  0
  8 10  1  0  0  0  0
 11 16  2  0  0  0  0
 12  1  1  0  0  0  0
 13  7  2  0  0  0  0
 14 18  2  0  0  0  0
 14 11  1  0  0  0  0
 15 20  1  0  0  0  0
 16  2  1  0  0  0  0
 16  3  1  0  0  0  0
 17  8  2  0  0  0  0
 18  6  1  0  0  0  0
 19 10  2  0  0  0  0
 20 19  1  0  0  0  0
 21 17  1  0  0  0  0
 21 20  2  0  0  0  0
 22 26  1  0  0  0  0
 23 24  1  1  0  0  0
 23 12  1  0  0  0  0
 23 27  1  0  0  0  0
 25 24  1  0  0  0  0
 25 22  2  0  0  0  0
 26 27  1  0  0  0  0
M  END
>  <MODEL>
5

>  <REMARK>
 VINA RESULT:      -7.1      3.075      6.499
  Name = 
  1 active torsions:
  status: ('A' for Active; 'I' for Inactive)
    1  A    between atoms: C_9  and  N_15
                            x       y       z     vdW  Elec       q    Type
                         _______ _______ _______ _____ _____    ______ ____

>  <TORSDO>
F 1

$$$$
=
 OpenBabel10272401003D

 27 31  0  0  1  0  0  0  0  0999 V2000
  189.0940  178.4150  138.2730 C   0  0  0  0  0  2  0  0  0  0  0  0
  187.1410  178.2800  139.8070 C   0  0  0  0  0  0  0  0  0  0  0  0
  188.5960  176.7340  141.0160 N   0  0  0  0  0  2  0  0  0  0  0  0
  185.0480  179.3610  143.2240 C   0  0  0  0  0  3  0  0  0  0  0  0
  185.2900  178.7630  144.4580 C   0  0  0  0  0  3  0  0  0  0  0  0
  186.1370  179.1910  139.7920 N   0  0  0  0  0  0  0  0  0  0  0  0
  186.9950  177.3550  143.4560 C   0  0  0  0  0  0  0  0  0  0  0  0
  191.9820  177.4050  142.4140 C   0  0  0  0  0  3  0  0  0  0  0  0
  187.9330  176.2170  143.6710 C   0  0  0  0  0  1  0  0  0  0  0  0
  192.7180  177.6630  141.2570 C   0  0  0  0  0  3  0  0  0  0  0  0
  186.7870  177.9820  142.1940 C   0  0  0  0  0  0  0  0  0  0  0  0
  187.7640  177.9040  138.5790 N   0  0  0  0  0  0  0  0  0  0  0  0
  186.2500  177.7600  144.5670 C   0  0  0  0  0  3  0  0  0  0  0  0
  185.7760  178.9720  142.0990 C   0  0  0  0  0  0  0  0  0  0  0  0
  190.1090  177.4370  138.6210 N   0  0  0  0  0  2  0  0  0  0  0  0
  187.5200  177.6770  141.0170 C   0  0  0  0  0  0  0  0  0  0  0  0
  190.6150  177.1330  142.3220 C   0  0  0  0  0  3  0  0  0  0  0  0
  185.4890  179.5380  140.9020 N   0  0  0  0  0  0  0  0  0  0  0  0
  192.0860  177.6610  140.0130 C   0  0  0  0  0  3  0  0  0  0  0  0
  190.7120  177.4120  139.9140 C   0  0  0  0  0  0  0  0  0  0  0  0
  189.9670  177.1380  141.0800 C   0  0  0  0  0  0  0  0  0  0  0  0
  185.1270  175.5140  136.2280 C   0  0  0  0  0  3  0  0  0  0  0  0
  186.9530  177.2700  137.5440 C   0  0  2  0  0  3  0  0  0  0  0  0
  185.4640  177.3540  137.8890 C   0  0  0  0  0  2  0  0  0  0  0  0
  184.6160  176.5040  136.9780 C   0  0  0  0  0  3  0  0  0  0  0  0
  186.6080  175.2380  136.1510 C   0  0  0  0  0  2  0  0  0  0  0  0
  187.3640  175.8120  137.3470 C   0  0  0  0  0  2  0  0  0  0  0  0
  1 12  1  0  0  0  0
  1 15  1  0  0  0  0
  2 16  1  0  0  0  0
  3 16  1  0  0  0  0
  3 21  1  0  0  0  0
  4  5  2  0  0  0  0
  5 13  1  0  0  0  0
  6  2  2  0  0  0  0
  6 18  1  0  0  0  0
  7  9  1  0  0  0  0
  7 13  2  0  0  0  0
 10  8  2  0  0  0  0
 11  7  1  0  0  0  0
 12  2  1  0  0  0  0
 14 11  1  0  0  0  0
 14  4  1  0  0  0  0
 15 20  1  0  0  0  0
 16 11  2  0  0  0  0
 17  8  1  0  0  0  0
 18 14  2  0  0  0  0
 19 10  1  0  0  0  0
 20 19  2  0  0  0  0
 20 21  1  0  0  0  0
 21 17  2  0  0  0  0
 22 25  2  0  0  0  0
 23 27  1  1  0  0  0
 23 24  1  0  0  0  0
 23 12  1  0  0  0  0
 25 24  1  0  0  0  0
 26 22  1  0  0  0  0
 26 27  1  0  0  0  0
M  END
>  <MODEL>
6

>  <REMARK>
 VINA RESULT:      -7.0      1.373      2.025
  Name = 
  1 active torsions:
  status: ('A' for Active; 'I' for Inactive)
    1  A    between atoms: C_9  and  N_15
                            x       y       z     vdW  Elec       q    Type
                         _______ _______ _______ _____ _____    ______ ____

>  <TORSDO>
F 1

$$$$
=
 OpenBabel10272401003D

 27 31  0  0  1  0  0  0  0  0999 V2000
  183.7310  178.0200  141.6910 C   0  0  0  0  0  2  0  0  0  0  0  0
  184.4650  178.0910  139.3150 C   0  0  0  0  0  0  0  0  0  0  0  0
  186.5360  178.9240  140.3070 N   0  0  0  0  0  2  0  0  0  0  0  0
  186.4010  176.5140  136.0000 C   0  0  0  0  0  3  0  0  0  0  0  0
  187.7680  176.6820  135.7950 C   0  0  0  0  0  3  0  0  0  0  0  0
  183.8070  177.4310  138.3290 N   0  0  0  0  0  0  0  0  0  0  0  0
  187.9330  177.9610  137.8530 C   0  0  0  0  0  0  0  0  0  0  0  0
  188.6910  177.2480  142.8400 C   0  0  0  0  0  3  0  0  0  0  0  0
  188.8190  178.7890  138.7180 C   0  0  0  0  0  1  0  0  0  0  0  0
  187.8360  177.1890  143.9420 C   0  0  0  0  0  3  0  0  0  0  0  0
  186.5440  177.7660  138.0980 C   0  0  0  0  0  0  0  0  0  0  0  0
  183.7200  178.6700  140.3870 N   0  0  0  0  0  0  0  0  0  0  0  0
  188.5230  177.4090  136.7120 C   0  0  0  0  0  3  0  0  0  0  0  0
  185.7880  177.0570  137.1300 C   0  0  0  0  0  0  0  0  0  0  0  0
  184.7080  178.6470  142.5650 N   0  0  0  0  0  2  0  0  0  0  0  0
  185.8580  178.2440  139.2450 C   0  0  0  0  0  0  0  0  0  0  0  0
  188.2370  177.7920  141.6370 C   0  0  0  0  0  3  0  0  0  0  0  0
  184.4480  176.9170  137.2820 N   0  0  0  0  0  0  0  0  0  0  0  0
  186.5280  177.6630  143.8360 C   0  0  0  0  0  3  0  0  0  0  0  0
  186.0580  178.1900  142.6270 C   0  0  0  0  0  0  0  0  0  0  0  0
  186.9230  178.2620  141.5140 C   0  0  0  0  0  0  0  0  0  0  0  0
  180.6210  181.1590  138.8400 C   0  0  0  0  0  3  0  0  0  0  0  0
  182.7460  179.7140  140.0830 C   0  0  2  0  0  3  0  0  0  0  0  0
  181.3170  179.1790  140.2020 C   0  0  0  0  0  2  0  0  0  0  0  0
  180.2960  180.1480  139.6620 C   0  0  0  0  0  3  0  0  0  0  0  0
  182.0480  181.4770  138.4720 C   0  0  0  0  0  2  0  0  0  0  0  0
  182.9770  180.2840  138.6850 C   0  0  0  0  0  2  0  0  0  0  0  0
  1 15  1  0  0  0  0
  2 12  1  0  0  0  0
  3 21  1  0  0  0  0
  4 14  1  0  0  0  0
  5  4  2  0  0  0  0
  5 13  1  0  0  0  0
  6  2  2  0  0  0  0
  7 11  1  0  0  0  0
  7  9  1  0  0  0  0
  8 10  1  0  0  0  0
 11 16  2  0  0  0  0
 12  1  1  0  0  0  0
 13  7  2  0  0  0  0
 14 18  2  0  0  0  0
 14 11  1  0  0  0  0
 15 20  1  0  0  0  0
 16  2  1  0  0  0  0
 16  3  1  0  0  0  0
 17  8  2  0  0  0  0
 18  6  1  0  0  0  0
 19 10  2  0  0  0  0
 20 19  1  0  0  0  0
 21 17  1  0  0  0  0
 21 20  2  0  0  0  0
 22 25  2  0  0  0  0
 23 27  1  6  0  0  0
 23 24  1  0  0  0  0
 23 12  1  0  0  0  0
 25 24  1  0  0  0  0
 26 27  1  0  0  0  0
 26 22  1  0  0  0  0
M  END
>  <MODEL>
7

>  <REMARK>
 VINA RESULT:      -6.9      2.834      6.052
  Name = 
  1 active torsions:
  status: ('A' for Active; 'I' for Inactive)
    1  A    between atoms: C_9  and  N_15
                            x       y       z     vdW  Elec       q    Type
                         _______ _______ _______ _____ _____    ______ ____

>  <TORSDO>
F 1

$$$$
=
 OpenBabel10272401003D

 27 31  0  0  1  0  0  0  0  0999 V2000
  184.5280  179.5350  143.3820 C   0  0  0  0  0  2  0  0  0  0  0  0
  185.5230  178.4340  141.3860 C   0  0  0  0  0  0  0  0  0  0  0  0
  183.2810  177.4880  141.1780 N   0  0  0  0  0  2  0  0  0  0  0  0
  186.2810  178.1550  137.3150 C   0  0  0  0  0  3  0  0  0  0  0  0
  185.3760  177.5680  136.4350 C   0  0  0  0  0  3  0  0  0  0  0  0
  186.6880  178.8490  140.8290 N   0  0  0  0  0  0  0  0  0  0  0  0
  183.8620  177.1090  138.2770 C   0  0  0  0  0  0  0  0  0  0  0  0
  180.0540  179.3170  140.8420 C   0  0  0  0  0  3  0  0  0  0  0  0
  182.5980  176.4380  138.6910 C   0  0  0  0  0  1  0  0  0  0  0  0
  179.9820  179.9880  142.0630 C   0  0  0  0  0  3  0  0  0  0  0  0
  184.7580  177.7400  139.1850 C   0  0  0  0  0  0  0  0  0  0  0  0
  185.3660  178.4930  142.8040 N   0  0  0  0  0  0  0  0  0  0  0  0
  184.1800  177.0410  136.9180 C   0  0  0  0  0  3  0  0  0  0  0  0
  185.9880  178.2330  138.6770 C   0  0  0  0  0  0  0  0  0  0  0  0
  183.1960  179.0250  143.6590 N   0  0  0  0  0  2  0  0  0  0  0  0
  184.5110  177.9020  140.5740 C   0  0  0  0  0  0  0  0  0  0  0  0
  181.1650  178.5230  140.5500 C   0  0  0  0  0  3  0  0  0  0  0  0
  186.9050  178.7680  139.5190 N   0  0  0  0  0  0  0  0  0  0  0  0
  181.0240  179.8730  142.9850 C   0  0  0  0  0  3  0  0  0  0  0  0
  182.1510  179.0970  142.6910 C   0  0  0  0  0  0  0  0  0  0  0  0
  182.2220  178.4080  141.4620 C   0  0  0  0  0  0  0  0  0  0  0  0
  188.4390  176.9780  145.3440 C   0  0  0  0  0  3  0  0  0  0  0  0
  186.2650  177.7080  143.6450 C   0  0  2  0  0  3  0  0  0  0  0  0
  186.3190  178.2760  145.0660 C   0  0  0  0  0  2  0  0  0  0  0  0
  187.4130  177.6490  145.8920 C   0  0  0  0  0  3  0  0  0  0  0  0
  188.5300  176.7020  143.8650 C   0  0  0  0  0  2  0  0  0  0  0  0
  187.6690  177.6610  143.0460 C   0  0  0  0  0  2  0  0  0  0  0  0
  1 15  1  0  0  0  0
  2 12  1  0  0  0  0
  3 21  1  0  0  0  0
  4 14  1  0  0  0  0
  5 13  1  0  0  0  0
  5  4  2  0  0  0  0
  6  2  1  0  0  0  0
  7  9  1  0  0  0  0
  7 11  1  0  0  0  0
  8 10  1  0  0  0  0
 10 19  2  0  0  0  0
 11 16  1  0  0  0  0
 12  1  1  0  0  0  0
 13  7  2  0  0  0  0
 14 11  2  0  0  0  0
 14 18  1  0  0  0  0
 16  3  1  0  0  0  0
 16  2  2  0  0  0  0
 17  8  2  0  0  0  0
 17 21  1  0  0  0  0
 18  6  2  0  0  0  0
 20 19  1  0  0  0  0
 20 15  1  0  0  0  0
 21 20  2  0  0  0  0
 22 25  2  0  0  0  0
 23 12  1  6  0  0  0
 23 24  1  0  0  0  0
 24 25  1  0  0  0  0
 26 22  1  0  0  0  0
 27 23  1  0  0  0  0
 27 26  1  0  0  0  0
M  END
>  <MODEL>
8

>  <REMARK>
 VINA RESULT:      -6.8      2.426      7.311
  Name = 
  1 active torsions:
  status: ('A' for Active; 'I' for Inactive)
    1  A    between atoms: C_9  and  N_15
                            x       y       z     vdW  Elec       q    Type
                         _______ _______ _______ _____ _____    ______ ____

>  <TORSDO>
F 1

$$$$
=
 OpenBabel10272401003D

 27 31  0  0  1  0  0  0  0  0999 V2000
  183.1120  179.9130  139.4490 C   0  0  0  0  0  2  0  0  0  0  0  0
  185.0620  178.4050  139.1200 C   0  0  0  0  0  0  0  0  0  0  0  0
  183.4590  177.1400  137.7790 N   0  0  0  0  0  2  0  0  0  0  0  0
  188.3270  177.0060  136.9730 C   0  0  0  0  0  3  0  0  0  0  0  0
  188.1950  176.0600  135.9610 C   0  0  0  0  0  3  0  0  0  0  0  0
  186.3340  178.7880  139.3910 N   0  0  0  0  0  0  0  0  0  0  0  0
  185.7960  175.9790  136.3340 C   0  0  0  0  0  0  0  0  0  0  0  0
  181.5300  178.3130  134.8180 C   0  0  0  0  0  3  0  0  0  0  0  0
  184.5190  175.2970  135.9800 C   0  0  0  0  0  1  0  0  0  0  0  0
  180.7280  179.3080  135.3790 C   0  0  0  0  0  3  0  0  0  0  0  0
  185.9090  176.9740  137.3460 C   0  0  0  0  0  0  0  0  0  0  0  0
  183.9980  178.8710  139.9500 N   0  0  0  0  0  0  0  0  0  0  0  0
  186.9370  175.5440  135.6540 C   0  0  0  0  0  3  0  0  0  0  0  0
  187.2040  177.4550  137.6700 C   0  0  0  0  0  0  0  0  0  0  0  0
  181.8960  179.3320  138.9070 N   0  0  0  0  0  2  0  0  0  0  0  0
  184.8100  177.5160  138.0640 C   0  0  0  0  0  0  0  0  0  0  0  0
  182.4500  177.6300  135.6150 C   0  0  0  0  0  3  0  0  0  0  0  0
  187.3670  178.3430  138.6800 N   0  0  0  0  0  0  0  0  0  0  0  0
  180.8560  179.6250  136.7330 C   0  0  0  0  0  3  0  0  0  0  0  0
  181.7920  178.9600  137.5330 C   0  0  0  0  0  0  0  0  0  0  0  0
  182.5960  177.9460  136.9710 C   0  0  0  0  0  0  0  0  0  0  0  0
  183.9020  178.7090  144.2110 C   0  0  0  0  0  3  0  0  0  0  0  0
  184.0020  178.5130  141.3650 C   0  0  2  0  0  3  0  0  0  0  0  0
  182.6850  178.9160  142.0340 C   0  0  0  0  0  2  0  0  0  0  0  0
  182.7440  178.7880  143.5350 C   0  0  0  0  0  3  0  0  0  0  0  0
  185.2390  178.6350  143.5200 C   0  0  0  0  0  2  0  0  0  0  0  0
  185.1790  179.1630  142.0890 C   0  0  0  0  0  2  0  0  0  0  0  0
  1 12  1  0  0  0  0
  2  6  1  0  0  0  0
  2 12  1  0  0  0  0
  3 16  1  0  0  0  0
  4 14  1  0  0  0  0
  5  4  2  0  0  0  0
  7 11  1  0  0  0  0
  8 10  2  0  0  0  0
  8 17  1  0  0  0  0
  9  7  1  0  0  0  0
 10 19  1  0  0  0  0
 11 14  2  0  0  0  0
 11 16  1  0  0  0  0
 13  5  1  0  0  0  0
 13  7  2  0  0  0  0
 14 18  1  0  0  0  0
 15  1  1  0  0  0  0
 16  2  2  0  0  0  0
 17 21  2  0  0  0  0
 18  6  2  0  0  0  0
 19 20  2  0  0  0  0
 20 15  1  0  0  0  0
 21 20  1  0  0  0  0
 21  3  1  0  0  0  0
 23 12  1  6  0  0  0
 23 24  1  0  0  0  0
 23 27  1  0  0  0  0
 24 25  1  0  0  0  0
 25 22  2  0  0  0  0
 26 22  1  0  0  0  0
 27 26  1  0  0  0  0
M  END
>  <MODEL>
9

>  <REMARK>
 VINA RESULT:      -6.8      3.178      8.385
  Name = 
  1 active torsions:
  status: ('A' for Active; 'I' for Inactive)
    1  A    between atoms: C_9  and  N_15
                            x       y       z     vdW  Elec       q    Type
                         _______ _______ _______ _____ _____    ______ ____

>  <TORSDO>
F 1

$$$$
