=
 OpenBabel10272402073D

 32 34  0  0  1  0  0  0  0  0999 V2000
  182.7760  177.8000  137.8570 C   0  0  2  0  0  3  0  0  0  0  0  0
  183.1210  175.2370  137.6250 C   0  0  2  0  0  3  0  0  0  0  0  0
  182.6040  176.5370  136.9840 C   0  0  2  0  0  3  0  0  0  0  0  0
  184.6040  174.9640  137.2900 C   0  0  1  0  0  3  0  0  0  0  0  0
  182.5920  173.1790  136.1840 C   0  0  1  0  0  3  0  0  0  0  0  0
  183.9070  172.4130  136.4580 C   0  0  2  0  0  3  0  0  0  0  0  0
  183.0530  176.7060  135.6530 O   0  0  0  0  0  0  0  0  0  0  0  0
  185.0560  173.2270  137.6540 S   0  0  0  0  0  0  0  0  0  0  0  0
  184.4590  176.6930  135.6480 C   0  0  0  0  0  2  0  0  0  0  0  0
  182.1660  174.0680  137.3510 C   0  0  0  0  0  2  0  0  0  0  0  0
  184.9450  175.3380  135.9080 N   0  0  0  0  0  0  0  0  0  0  0  0
  182.6380  173.9130  134.9950 O   0  0  0  0  0  1  0  0  0  0  0  0
  184.6250  171.9290  135.1860 C   0  0  0  0  0  3  0  0  0  0  0  0
  186.0900  171.6360  135.4620 C   0  0  0  0  0  1  0  0  0  0  0  0
  183.9890  170.6570  134.6560 C   0  0  0  0  0  1  0  0  0  0  0  0
  186.3990  175.3130  135.7010 C   0  0  0  0  0  2  0  0  0  0  0  0
  187.0270  176.7040  135.6100 C   0  0  0  0  0  1  0  0  0  0  0  0
  182.5050  177.4280  139.3240 C   0  0  1  0  0  3  0  0  0  0  0  0
  183.5200  177.9600  140.3500 C   0  0  2  0  0  3  0  0  0  0  0  0
  182.1720  178.6310  140.1880 C   0  0  2  0  0  3  0  0  0  0  0  0
  185.6940  179.4560  140.9100 O   0  0  0  0  0  0  0  0  0  0  0  0
  184.1810  180.2890  139.1920 O   0  0  0  0  0  0  0  0  0  0  0  0
  184.8220  179.0530  139.7580 S   0  0  0  0  0  0  0  0  0  0  0  0
  187.1600  178.1710  139.0710 C   0  0  0  0  0  1  0  0  0  0  0  0
  185.8120  178.3050  138.5430 N   0  0  0  0  0  2  0  0  0  0  0  0
  181.2620  178.1990  141.3210 C   0  0  0  0  0  2  0  0  0  0  0  0
  181.1900  179.2840  142.3790 C   0  0  0  0  0  2  0  0  0  0  0  0
  182.7870  179.0260  143.8790 C   0  0  0  0  0  1  0  0  0  0  0  0
  181.4430  178.7420  143.6410 O   0  0  0  0  0  0  0  0  0  0  0  0
  181.7640  178.8650  137.4230 C   0  0  0  0  0  2  0  0  0  0  0  0
  180.0310  178.7120  135.7820 O   0  0  0  0  0  1  0  0  0  0  0  0
  180.4200  178.2640  137.0440 C   0  0  0  0  0  2  0  0  0  0  0  0
  1 30  1  6  0  0  0
  2 10  1  6  0  0  0
  3  2  1  0  0  0  0
  3  1  1  1  0  0  0
  4  2  1  0  0  0  0
  4  8  1  6  0  0  0
  5 12  1  6  0  0  0
  5  6  1  0  0  0  0
  5 10  1  0  0  0  0
  6 13  1  6  0  0  0
  6  8  1  0  0  0  0
  7  3  1  0  0  0  0
  9  7  1  0  0  0  0
  9 11  1  0  0  0  0
 11  4  1  0  0  0  0
 13 14  1  0  0  0  0
 15 13  1  0  0  0  0
 16 11  1  0  0  0  0
 17 16  1  0  0  0  0
 18  1  1  6  0  0  0
 18 20  1  0  0  0  0
 18 19  1  0  0  0  0
 19 23  1  6  0  0  0
 20 19  1  0  0  0  0
 20 26  1  1  0  0  0
 22 23  2  0  0  0  0
 23 21  2  0  0  0  0
 25 24  1  0  0  0  0
 25 23  1  0  0  0  0
 26 27  1  0  0  0  0
 27 29  1  0  0  0  0
 29 28  1  0  0  0  0
 31 32  1  0  0  0  0
 32 30  1  0  0  0  0
M  END
>  <MODEL>
1

>  <REMARK>
 VINA RESULT:      -4.4      0.000      0.000
  Name = 
  11 active torsions:
  status: ('A' for Active; 'I' for Inactive)
    1  A    between atoms: C_1  and  C_4
    2  A    between atoms: C_1  and  C_5
    3  A    between atoms: C_1  and  C_16
    4  A    between atoms: C_4  and  C_30
    5  A    between atoms: C_9  and  C_12
    6  A    between atoms: C_13  and  N_29
    7  A    between atoms: S_15  and  C_20
    8  A    between atoms: S_15  and  N_26
    9  A    between atoms: O_22  and  C_23
   10  A    between atoms: C_23  and  C_24
   11  A    between atoms: C_24  and  C_27
                            x       y       z     vdW  Elec       q    Type
                         _______ _______ _______ _____ _____    ______ ____

>  <TORSDO>
F 11

$$$$
=
 OpenBabel10272402073D

 32 34  0  0  1  0  0  0  0  0999 V2000
  189.0340  177.4180  138.4910 C   0  0  2  0  0  3  0  0  0  0  0  0
  190.2170  176.8700  140.7360 C   0  0  2  0  0  3  0  0  0  0  0  0
  189.7000  177.9560  139.7760 C   0  0  2  0  0  3  0  0  0  0  0  0
  189.1520  176.4390  141.7660 C   0  0  1  0  0  3  0  0  0  0  0  0
  191.4930  177.8730  142.7250 C   0  0  1  0  0  3  0  0  0  0  0  0
  190.9910  176.8750  143.7940 C   0  0  2  0  0  3  0  0  0  0  0  0
  188.9370  178.9490  140.4350 O   0  0  0  0  0  0  0  0  0  0  0  0
  189.9100  175.5190  143.1570 S   0  0  0  0  0  0  0  0  0  0  0  0
  187.8570  178.3250  141.0840 C   0  0  0  0  0  2  0  0  0  0  0  0
  191.5780  177.2590  141.3290 C   0  0  0  0  0  2  0  0  0  0  0  0
  188.3390  177.5700  142.2400 N   0  0  0  0  0  0  0  0  0  0  0  0
  190.7430  179.0520  142.7010 O   0  0  0  0  0  1  0  0  0  0  0  0
  190.4170  177.5440  145.0550 C   0  0  0  0  0  3  0  0  0  0  0  0
  189.0900  176.9200  145.4510 C   0  0  0  0  0  1  0  0  0  0  0  0
  191.3690  177.3950  146.2290 C   0  0  0  0  0  1  0  0  0  0  0  0
  187.1800  177.0980  143.0100 C   0  0  0  0  0  2  0  0  0  0  0  0
  186.1380  178.1860  143.2720 C   0  0  0  0  0  1  0  0  0  0  0  0
  189.4010  175.9340  138.3270 C   0  0  1  0  0  3  0  0  0  0  0  0
  188.3390  175.0500  137.6520 C   0  0  2  0  0  3  0  0  0  0  0  0
  189.5500  175.5180  136.8740 C   0  0  2  0  0  3  0  0  0  0  0  0
  187.1730  176.5150  135.7100 O   0  0  0  0  0  0  0  0  0  0  0  0
  186.4340  176.9090  137.9970 O   0  0  0  0  0  0  0  0  0  0  0  0
  186.8570  175.8500  137.0170 S   0  0  0  0  0  0  0  0  0  0  0  0
  185.9590  173.4360  137.2970 C   0  0  0  0  0  1  0  0  0  0  0  0
  185.5530  174.7300  136.7740 N   0  0  0  0  0  2  0  0  0  0  0  0
  190.5490  174.3820  136.7780 C   0  0  0  0  0  2  0  0  0  0  0  0
  191.8080  174.7220  137.5540 C   0  0  0  0  0  2  0  0  0  0  0  0
  193.0750  176.4870  137.9350 C   0  0  0  0  0  1  0  0  0  0  0  0
  192.5140  175.7360  136.9040 O   0  0  0  0  0  0  0  0  0  0  0  0
  189.5580  178.1940  137.2780 C   0  0  0  0  0  2  0  0  0  0  0  0
  187.5940  179.5240  136.9640 O   0  0  0  0  0  1  0  0  0  0  0  0
  188.9690  179.5930  137.1900 C   0  0  0  0  0  2  0  0  0  0  0  0
  1 30  1  6  0  0  0
  2 10  1  1  0  0  0
  2  4  1  0  0  0  0
  3  1  1  6  0  0  0
  3  7  1  0  0  0  0
  3  2  1  0  0  0  0
  4 11  1  0  0  0  0
  4  8  1  1  0  0  0
  5 12  1  6  0  0  0
  5  6  1  0  0  0  0
  6 13  1  1  0  0  0
  7  9  1  0  0  0  0
  8  6  1  0  0  0  0
  9 11  1  0  0  0  0
 10  5  1  0  0  0  0
 11 16  1  0  0  0  0
 13 14  1  0  0  0  0
 13 15  1  0  0  0  0
 16 17  1  0  0  0  0
 18  1  1  6  0  0  0
 19 23  1  6  0  0  0
 19 18  1  0  0  0  0
 20 26  1  1  0  0  0
 20 19  1  0  0  0  0
 20 18  1  0  0  0  0
 21 23  2  0  0  0  0
 23 22  2  0  0  0  0
 25 23  1  0  0  0  0
 25 24  1  0  0  0  0
 26 27  1  0  0  0  0
 29 27  1  0  0  0  0
 29 28  1  0  0  0  0
 31 32  1  0  0  0  0
 32 30  1  0  0  0  0
M  END
>  <MODEL>
2

>  <REMARK>
 VINA RESULT:      -4.4      4.739      9.181
  Name = 
  11 active torsions:
  status: ('A' for Active; 'I' for Inactive)
    1  A    between atoms: C_1  and  C_4
    2  A    between atoms: C_1  and  C_5
    3  A    between atoms: C_1  and  C_16
    4  A    between atoms: C_4  and  C_30
    5  A    between atoms: C_9  and  C_12
    6  A    between atoms: C_13  and  N_29
    7  A    between atoms: S_15  and  C_20
    8  A    between atoms: S_15  and  N_26
    9  A    between atoms: O_22  and  C_23
   10  A    between atoms: C_23  and  C_24
   11  A    between atoms: C_24  and  C_27
                            x       y       z     vdW  Elec       q    Type
                         _______ _______ _______ _____ _____    ______ ____

>  <TORSDO>
F 11

$$$$
=
 OpenBabel10272402073D

 32 34  0  0  1  0  0  0  0  0999 V2000
  181.9090  178.2720  138.7620 C   0  0  2  0  0  3  0  0  0  0  0  0
  181.8760  175.7360  138.2070 C   0  0  2  0  0  3  0  0  0  0  0  0
  181.2210  177.1150  138.0050 C   0  0  2  0  0  3  0  0  0  0  0  0
  182.9670  175.4440  137.1540 C   0  0  1  0  0  3  0  0  0  0  0  0
  180.5300  173.8600  137.0850 C   0  0  1  0  0  3  0  0  0  0  0  0
  181.7370  173.0210  136.6060 C   0  0  2  0  0  3  0  0  0  0  0  0
  180.9620  177.4030  136.6450 O   0  0  0  0  0  0  0  0  0  0  0  0
  183.3920  173.6630  137.1190 S   0  0  0  0  0  0  0  0  0  0  0  0
  182.1730  177.3370  135.9340 C   0  0  0  0  0  2  0  0  0  0  0  0
  180.8150  174.6390  138.3670 C   0  0  0  0  0  2  0  0  0  0  0  0
  182.6080  175.9460  135.8180 N   0  0  0  0  0  0  0  0  0  0  0  0
  180.0410  174.7110  136.0890 O   0  0  0  0  0  1  0  0  0  0  0  0
  181.6860  172.6440  135.1160 C   0  0  0  0  0  3  0  0  0  0  0  0
  183.0550  172.2250  134.6090 C   0  0  0  0  0  1  0  0  0  0  0  0
  180.7290  171.4880  134.8810 C   0  0  0  0  0  1  0  0  0  0  0  0
  183.7600  175.8870  134.9080 C   0  0  0  0  0  2  0  0  0  0  0  0
  184.6030  177.1620  134.9090 C   0  0  0  0  0  1  0  0  0  0  0  0
  182.1740  177.8310  140.2100 C   0  0  1  0  0  3  0  0  0  0  0  0
  183.6240  177.9710  140.7000 C   0  0  2  0  0  3  0  0  0  0  0  0
  182.5760  178.9810  141.1150 C   0  0  2  0  0  3  0  0  0  0  0  0
  184.3990  180.1620  139.3290 O   0  0  0  0  0  0  0  0  0  0  0  0
  184.8080  177.9970  138.2910 O   0  0  0  0  0  0  0  0  0  0  0  0
  184.8160  178.7460  139.5950 S   0  0  0  0  0  0  0  0  0  0  0  0
  186.3230  178.7630  141.7020 C   0  0  0  0  0  1  0  0  0  0  0  0
  186.4230  178.7490  140.2520 N   0  0  0  0  0  2  0  0  0  0  0  0
  182.1310  178.6810  142.5340 C   0  0  0  0  0  2  0  0  0  0  0  0
  183.0780  179.3290  143.5280 C   0  0  0  0  0  2  0  0  0  0  0  0
  184.5940  179.0630  145.1080 C   0  0  0  0  0  1  0  0  0  0  0  0
  183.8010  178.3490  144.2110 O   0  0  0  0  0  0  0  0  0  0  0  0
  180.9850  179.4940  138.7790 C   0  0  0  0  0  2  0  0  0  0  0  0
  181.7200  181.7510  138.4780 O   0  0  0  0  0  1  0  0  0  0  0  0
  181.4300  180.5680  137.7980 C   0  0  0  0  0  2  0  0  0  0  0  0
  1 30  1  1  0  0  0
  2 10  1  6  0  0  0
  3  2  1  0  0  0  0
  3  1  1  6  0  0  0
  4  8  1  6  0  0  0
  4  2  1  0  0  0  0
  5 12  1  6  0  0  0
  5 10  1  0  0  0  0
  6 13  1  6  0  0  0
  6  5  1  0  0  0  0
  6  8  1  0  0  0  0
  7  3  1  0  0  0  0
  9  7  1  0  0  0  0
 11  9  1  0  0  0  0
 11  4  1  0  0  0  0
 14 13  1  0  0  0  0
 15 13  1  0  0  0  0
 16 17  1  0  0  0  0
 16 11  1  0  0  0  0
 18  1  1  6  0  0  0
 18 19  1  0  0  0  0
 18 20  1  0  0  0  0
 19 23  1  6  0  0  0
 19 20  1  0  0  0  0
 20 26  1  1  0  0  0
 21 23  2  0  0  0  0
 22 23  2  0  0  0  0
 23 25  1  0  0  0  0
 25 24  1  0  0  0  0
 26 27  1  0  0  0  0
 27 29  1  0  0  0  0
 29 28  1  0  0  0  0
 32 31  1  0  0  0  0
 32 30  1  0  0  0  0
M  END
>  <MODEL>
3

>  <REMARK>
 VINA RESULT:      -4.3      1.806      2.310
  Name = 
  11 active torsions:
  status: ('A' for Active; 'I' for Inactive)
    1  A    between atoms: C_1  and  C_4
    2  A    between atoms: C_1  and  C_5
    3  A    between atoms: C_1  and  C_16
    4  A    between atoms: C_4  and  C_30
    5  A    between atoms: C_9  and  C_12
    6  A    between atoms: C_13  and  N_29
    7  A    between atoms: S_15  and  C_20
    8  A    between atoms: S_15  and  N_26
    9  A    between atoms: O_22  and  C_23
   10  A    between atoms: C_23  and  C_24
   11  A    between atoms: C_24  and  C_27
                            x       y       z     vdW  Elec       q    Type
                         _______ _______ _______ _____ _____    ______ ____

>  <TORSDO>
F 11

$$$$
=
 OpenBabel10272402073D

 32 34  0  0  1  0  0  0  0  0999 V2000
  188.9400  176.3290  136.1120 C   0  0  2  0  0  3  0  0  0  0  0  0
  186.6760  175.3760  136.9540 C   0  0  2  0  0  3  0  0  0  0  0  0
  187.4290  176.1420  135.8510 C   0  0  2  0  0  3  0  0  0  0  0  0
  186.6550  173.8530  136.7020 C   0  0  1  0  0  3  0  0  0  0  0  0
  184.1460  175.3120  136.5230 C   0  0  1  0  0  3  0  0  0  0  0  0
  183.9030  173.8750  137.0370 C   0  0  2  0  0  3  0  0  0  0  0  0
  187.1340  175.6610  134.5530 O   0  0  0  0  0  0  0  0  0  0  0  0
  185.3880  173.0290  137.7390 S   0  0  0  0  0  0  0  0  0  0  0  0
  187.4590  174.2940  134.4980 C   0  0  0  0  0  2  0  0  0  0  0  0
  185.3060  176.0100  137.2300 C   0  0  0  0  0  2  0  0  0  0  0  0
  186.4940  173.5210  135.2780 N   0  0  0  0  0  0  0  0  0  0  0  0
  184.3100  175.3640  135.1360 O   0  0  0  0  0  1  0  0  0  0  0  0
  183.1250  172.9820  136.0550 C   0  0  0  0  0  3  0  0  0  0  0  0
  183.3220  171.5110  136.3770 C   0  0  0  0  0  1  0  0  0  0  0  0
  181.6360  173.2760  136.1190 C   0  0  0  0  0  1  0  0  0  0  0  0
  186.7350  172.0910  135.0420 C   0  0  0  0  0  2  0  0  0  0  0  0
  188.1200  171.6240  135.4920 C   0  0  0  0  0  1  0  0  0  0  0  0
  189.2590  175.8510  137.5370 C   0  0  1  0  0  3  0  0  0  0  0  0
  190.4780  174.9240  137.6780 C   0  0  2  0  0  3  0  0  0  0  0  0
  190.5820  176.3860  138.0580 C   0  0  2  0  0  3  0  0  0  0  0  0
  190.5740  174.1030  135.1090 O   0  0  0  0  0  0  0  0  0  0  0  0
  192.4620  173.5250  136.5340 O   0  0  0  0  0  0  0  0  0  0  0  0
  191.4660  174.6020  136.2070 S   0  0  0  0  0  0  0  0  0  0  0  0
  193.6930  175.9170  136.0610 C   0  0  0  0  0  1  0  0  0  0  0  0
  192.3020  176.0170  135.6490 N   0  0  0  0  0  2  0  0  0  0  0  0
  190.5120  176.5130  139.5670 C   0  0  0  0  0  2  0  0  0  0  0  0
  189.2750  177.2930  139.9720 C   0  0  0  0  0  2  0  0  0  0  0  0
  190.1840  176.6260  141.8670 C   0  0  0  0  0  1  0  0  0  0  0  0
  188.9800  177.0630  141.3170 O   0  0  0  0  0  0  0  0  0  0  0  0
  189.3000  177.8130  135.9950 C   0  0  0  0  0  2  0  0  0  0  0  0
  188.8770  179.6970  137.4070 O   0  0  0  0  0  1  0  0  0  0  0  0
  188.2570  178.7130  136.6380 C   0  0  0  0  0  2  0  0  0  0  0  0
  1 30  1  1  0  0  0
  2 10  1  6  0  0  0
  3  1  1  1  0  0  0
  3  2  1  0  0  0  0
  4  2  1  0  0  0  0
  4  8  1  1  0  0  0
  5 12  1  6  0  0  0
  5  6  1  0  0  0  0
  5 10  1  0  0  0  0
  6 13  1  6  0  0  0
  6  8  1  0  0  0  0
  7  3  1  0  0  0  0
  9  7  1  0  0  0  0
  9 11  1  0  0  0  0
 11  4  1  0  0  0  0
 13 15  1  0  0  0  0
 13 14  1  0  0  0  0
 16 11  1  0  0  0  0
 16 17  1  0  0  0  0
 18  1  1  6  0  0  0
 18 19  1  0  0  0  0
 18 20  1  0  0  0  0
 19 23  1  6  0  0  0
 19 20  1  0  0  0  0
 20 26  1  1  0  0  0
 21 23  2  0  0  0  0
 23 22  2  0  0  0  0
 25 24  1  0  0  0  0
 25 23  1  0  0  0  0
 26 27  1  0  0  0  0
 27 29  1  0  0  0  0
 29 28  1  0  0  0  0
 30 32  1  0  0  0  0
 32 31  1  0  0  0  0
M  END
>  <MODEL>
4

>  <REMARK>
 VINA RESULT:      -4.3      4.020      6.408
  Name = 
  11 active torsions:
  status: ('A' for Active; 'I' for Inactive)
    1  A    between atoms: C_1  and  C_4
    2  A    between atoms: C_1  and  C_5
    3  A    between atoms: C_1  and  C_16
    4  A    between atoms: C_4  and  C_30
    5  A    between atoms: C_9  and  C_12
    6  A    between atoms: C_13  and  N_29
    7  A    between atoms: S_15  and  C_20
    8  A    between atoms: S_15  and  N_26
    9  A    between atoms: O_22  and  C_23
   10  A    between atoms: C_23  and  C_24
   11  A    between atoms: C_24  and  C_27
                            x       y       z     vdW  Elec       q    Type
                         _______ _______ _______ _____ _____    ______ ____

>  <TORSDO>
F 11

$$$$
=
 OpenBabel10272402073D

 32 34  0  0  1  0  0  0  0  0999 V2000
  190.0690  177.0960  138.7950 C   0  0  2  0  0  3  0  0  0  0  0  0
  190.0610  176.6240  141.3480 C   0  0  2  0  0  3  0  0  0  0  0  0
  190.3250  177.6360  140.2190 C   0  0  2  0  0  3  0  0  0  0  0  0
  188.6050  176.6770  141.8580 C   0  0  1  0  0  3  0  0  0  0  0  0
  190.7230  177.5550  143.6480 C   0  0  1  0  0  3  0  0  0  0  0  0
  189.5610  176.9220  144.4490 C   0  0  2  0  0  3  0  0  0  0  0  0
  189.7250  178.8940  140.4630 O   0  0  0  0  0  0  0  0  0  0  0  0
  188.4380  175.8280  143.4730 S   0  0  0  0  0  0  0  0  0  0  0  0
  188.3410  178.7060  140.6280 C   0  0  0  0  0  2  0  0  0  0  0  0
  191.1370  176.7190  142.4380 C   0  0  0  0  0  2  0  0  0  0  0  0
  188.0770  178.0490  141.9070 N   0  0  0  0  0  0  0  0  0  0  0  0
  190.4550  178.8730  143.2690 O   0  0  0  0  0  1  0  0  0  0  0  0
  188.7920  177.9210  145.3300 C   0  0  0  0  0  3  0  0  0  0  0  0
  187.3270  177.5370  145.4440 C   0  0  0  0  0  1  0  0  0  0  0  0
  189.3710  177.9630  146.7330 C   0  0  0  0  0  1  0  0  0  0  0  0
  186.6270  178.0460  142.1440 C   0  0  0  0  0  2  0  0  0  0  0  0
  185.8590  179.0070  141.2360 C   0  0  0  0  0  1  0  0  0  0  0  0
  188.6560  176.4920  138.7410 C   0  0  1  0  0  3  0  0  0  0  0  0
  187.7130  177.0830  137.6800 C   0  0  2  0  0  3  0  0  0  0  0  0
  188.3810  175.7450  137.4480 C   0  0  2  0  0  3  0  0  0  0  0  0
  189.5670  177.7260  135.8280 O   0  0  0  0  0  0  0  0  0  0  0  0
  188.8530  179.4900  137.3480 O   0  0  0  0  0  0  0  0  0  0  0  0
  188.3850  178.3090  136.5450 S   0  0  0  0  0  0  0  0  0  0  0  0
  186.5100  177.6600  134.8790 C   0  0  0  0  0  1  0  0  0  0  0  0
  187.2200  178.8310  135.3690 N   0  0  0  0  0  2  0  0  0  0  0  0
  187.3800  174.6370  137.7110 C   0  0  0  0  0  2  0  0  0  0  0  0
  186.5530  174.3710  136.4670 C   0  0  0  0  0  2  0  0  0  0  0  0
  185.4090  172.8630  137.6000 C   0  0  0  0  0  1  0  0  0  0  0  0
  186.1530  173.0340  136.4340 O   0  0  0  0  0  0  0  0  0  0  0  0
  191.0890  175.9990  138.4730 C   0  0  0  0  0  2  0  0  0  0  0  0
  193.3710  176.7020  138.6100 O   0  0  0  0  0  1  0  0  0  0  0  0
  192.3010  176.5380  137.7300 C   0  0  0  0  0  2  0  0  0  0  0  0
  1 30  1  1  0  0  0
  2  4  1  0  0  0  0
  2 10  1  1  0  0  0
  3  1  1  6  0  0  0
  3  7  1  0  0  0  0
  3  2  1  0  0  0  0
  4 11  1  0  0  0  0
  4  8  1  1  0  0  0
  5 12  1  6  0  0  0
  5  6  1  0  0  0  0
  6 13  1  6  0  0  0
  7  9  1  0  0  0  0
  8  6  1  0  0  0  0
  9 11  1  0  0  0  0
 10  5  1  0  0  0  0
 11 16  1  0  0  0  0
 13 14  1  0  0  0  0
 13 15  1  0  0  0  0
 17 16  1  0  0  0  0
 18  1  1  6  0  0  0
 19 23  1  6  0  0  0
 19 18  1  0  0  0  0
 20 19  1  0  0  0  0
 20 26  1  1  0  0  0
 20 18  1  0  0  0  0
 21 23  2  0  0  0  0
 23 22  2  0  0  0  0
 24 25  1  0  0  0  0
 25 23  1  0  0  0  0
 27 26  1  0  0  0  0
 29 27  1  0  0  0  0
 29 28  1  0  0  0  0
 32 30  1  0  0  0  0
 32 31  1  0  0  0  0
M  END
>  <MODEL>
5

>  <REMARK>
 VINA RESULT:      -4.0      4.521      9.013
  Name = 
  11 active torsions:
  status: ('A' for Active; 'I' for Inactive)
    1  A    between atoms: C_1  and  C_4
    2  A    between atoms: C_1  and  C_5
    3  A    between atoms: C_1  and  C_16
    4  A    between atoms: C_4  and  C_30
    5  A    between atoms: C_9  and  C_12
    6  A    between atoms: C_13  and  N_29
    7  A    between atoms: S_15  and  C_20
    8  A    between atoms: S_15  and  N_26
    9  A    between atoms: O_22  and  C_23
   10  A    between atoms: C_23  and  C_24
   11  A    between atoms: C_24  and  C_27
                            x       y       z     vdW  Elec       q    Type
                         _______ _______ _______ _____ _____    ______ ____

>  <TORSDO>
F 11

$$$$
=
 OpenBabel10272402073D

 32 34  0  0  1  0  0  0  0  0999 V2000
  193.2790  174.6580  136.5070 C   0  0  2  0  0  3  0  0  0  0  0  0
  190.9250  175.2760  135.6040 C   0  0  2  0  0  3  0  0  0  0  0  0
  191.7570  174.3980  136.5560 C   0  0  2  0  0  3  0  0  0  0  0  0
  190.4700  176.5950  136.2660 C   0  0  1  0  0  3  0  0  0  0  0  0
  188.4440  174.6140  135.6090 C   0  0  1  0  0  3  0  0  0  0  0  0
  187.8670  176.0430  135.4870 C   0  0  2  0  0  3  0  0  0  0  0  0
  191.2310  174.3650  137.8680 O   0  0  0  0  0  0  0  0  0  0  0  0
  189.1240  177.3860  135.3080 S   0  0  0  0  0  0  0  0  0  0  0  0
  191.1670  175.6810  138.3590 C   0  0  0  0  0  2  0  0  0  0  0  0
  189.8080  174.4630  134.9370 C   0  0  0  0  0  2  0  0  0  0  0  0
  190.1010  176.4150  137.6790 N   0  0  0  0  0  0  0  0  0  0  0  0
  188.4940  174.1680  136.9320 O   0  0  0  0  0  1  0  0  0  0  0  0
  186.7940  176.3760  136.5370 C   0  0  0  0  0  3  0  0  0  0  0  0
  186.5980  177.8770  136.6650 C   0  0  0  0  0  1  0  0  0  0  0  0
  185.4560  175.7640  136.1580 C   0  0  0  0  0  1  0  0  0  0  0  0
  189.9250  177.7130  138.3450 C   0  0  0  0  0  2  0  0  0  0  0  0
  188.9810  177.6590  139.5460 C   0  0  0  0  0  1  0  0  0  0  0  0
  193.9190  174.0950  137.7860 C   0  0  1  0  0  3  0  0  0  0  0  0
  194.9000  172.9280  137.5890 C   0  0  2  0  0  3  0  0  0  0  0  0
  195.4180  174.3260  137.8490 C   0  0  2  0  0  3  0  0  0  0  0  0
  196.2040  171.2410  135.9350 O   0  0  0  0  0  0  0  0  0  0  0  0
  196.0190  173.5670  135.2350 O   0  0  0  0  0  0  0  0  0  0  0  0
  195.2930  172.4330  135.9030 S   0  0  0  0  0  0  0  0  0  0  0  0
  193.1770  170.9560  135.6720 C   0  0  0  0  0  1  0  0  0  0  0  0
  193.8760  172.0300  134.9840 N   0  0  0  0  0  2  0  0  0  0  0  0
  195.8490  174.4350  139.2990 C   0  0  0  0  0  2  0  0  0  0  0  0
  197.3150  174.8180  139.3830 C   0  0  0  0  0  2  0  0  0  0  0  0
  198.9510  174.3500  137.9790 C   0  0  0  0  0  1  0  0  0  0  0  0
  197.8040  175.1300  138.1130 O   0  0  0  0  0  0  0  0  0  0  0  0
  193.5400  176.1660  136.4460 C   0  0  0  0  0  2  0  0  0  0  0  0
  195.2740  177.5880  135.6130 O   0  0  0  0  0  1  0  0  0  0  0  0
  194.4070  176.5540  135.2590 C   0  0  0  0  0  2  0  0  0  0  0  0
  1 30  1  1  0  0  0
  2 10  1  1  0  0  0
  2  4  1  0  0  0  0
  2  3  1  0  0  0  0
  3  1  1  1  0  0  0
  3  7  1  0  0  0  0
  4  8  1  6  0  0  0
  4 11  1  0  0  0  0
  5 12  1  1  0  0  0
  6  5  1  0  0  0  0
  6 13  1  1  0  0  0
  7  9  1  0  0  0  0
  8  6  1  0  0  0  0
 10  5  1  0  0  0  0
 11 16  1  0  0  0  0
 11  9  1  0  0  0  0
 13 14  1  0  0  0  0
 15 13  1  0  0  0  0
 16 17  1  0  0  0  0
 18  1  1  6  0  0  0
 18 20  1  0  0  0  0
 19 23  1  6  0  0  0
 19 18  1  0  0  0  0
 19 20  1  0  0  0  0
 20 26  1  1  0  0  0
 22 23  2  0  0  0  0
 23 21  2  0  0  0  0
 25 24  1  0  0  0  0
 25 23  1  0  0  0  0
 26 27  1  0  0  0  0
 28 29  1  0  0  0  0
 29 27  1  0  0  0  0
 32 31  1  0  0  0  0
 32 30  1  0  0  0  0
M  END
>  <MODEL>
6

>  <REMARK>
 VINA RESULT:      -3.9      7.736     10.972
  Name = 
  11 active torsions:
  status: ('A' for Active; 'I' for Inactive)
    1  A    between atoms: C_1  and  C_4
    2  A    between atoms: C_1  and  C_5
    3  A    between atoms: C_1  and  C_16
    4  A    between atoms: C_4  and  C_30
    5  A    between atoms: C_9  and  C_12
    6  A    between atoms: C_13  and  N_29
    7  A    between atoms: S_15  and  C_20
    8  A    between atoms: S_15  and  N_26
    9  A    between atoms: O_22  and  C_23
   10  A    between atoms: C_23  and  C_24
   11  A    between atoms: C_24  and  C_27
                            x       y       z     vdW  Elec       q    Type
                         _______ _______ _______ _____ _____    ______ ____

>  <TORSDO>
F 11

$$$$
=
 OpenBabel10272402073D

 32 34  0  0  1  0  0  0  0  0999 V2000
  190.3810  177.4490  140.2370 C   0  0  2  0  0  3  0  0  0  0  0  0
  189.5380  178.1570  142.5890 C   0  0  2  0  0  3  0  0  0  0  0  0
  189.4840  177.1200  141.4520 C   0  0  2  0  0  3  0  0  0  0  0  0
  190.6340  177.8350  143.6270 C   0  0  1  0  0  3  0  0  0  0  0  0
  187.8540  177.6250  144.4520 C   0  0  1  0  0  3  0  0  0  0  0  0
  188.7420  178.0630  145.6400 C   0  0  2  0  0  3  0  0  0  0  0  0
  189.6260  175.7920  141.9160 O   0  0  0  0  0  0  0  0  0  0  0  0
  190.3790  178.7820  145.1740 S   0  0  0  0  0  0  0  0  0  0  0  0
  190.8460  175.6860  142.6070 C   0  0  0  0  0  2  0  0  0  0  0  0
  188.1410  178.4080  143.1730 C   0  0  0  0  0  2  0  0  0  0  0  0
  190.7570  176.3920  143.8850 N   0  0  0  0  0  0  0  0  0  0  0  0
  187.9190  176.2490  144.2150 O   0  0  0  0  0  1  0  0  0  0  0  0
  188.8560  177.0110  146.7570 C   0  0  0  0  0  3  0  0  0  0  0  0
  190.2460  177.0120  147.3710 C   0  0  0  0  0  1  0  0  0  0  0  0
  187.8570  177.2880  147.8660 C   0  0  0  0  0  1  0  0  0  0  0  0
  191.9660  176.1000  144.6680 C   0  0  0  0  0  2  0  0  0  0  0  0
  192.2940  174.6090  144.7490 C   0  0  0  0  0  1  0  0  0  0  0  0
  190.1020  176.4270  139.1240 C   0  0  1  0  0  3  0  0  0  0  0  0
  188.9690  176.7880  138.1490 C   0  0  2  0  0  3  0  0  0  0  0  0
  190.4160  176.9600  137.7380 C   0  0  2  0  0  3  0  0  0  0  0  0
  189.2470  179.4590  138.4110 O   0  0  0  0  0  0  0  0  0  0  0  0
  187.4060  178.4080  139.6110 O   0  0  0  0  0  0  0  0  0  0  0  0
  188.1870  178.4000  138.3260 S   0  0  0  0  0  0  0  0  0  0  0  0
  186.1660  177.6910  136.8700 C   0  0  0  0  0  1  0  0  0  0  0  0
  187.1290  178.7720  137.0010 N   0  0  0  0  0  2  0  0  0  0  0  0
  190.8170  175.8090  136.8360 C   0  0  0  0  0  2  0  0  0  0  0  0
  190.5510  176.1630  135.3840 C   0  0  0  0  0  2  0  0  0  0  0  0
  189.2550  174.3900  135.1740 C   0  0  0  0  0  1  0  0  0  0  0  0
  190.3840  175.0000  134.6300 O   0  0  0  0  0  0  0  0  0  0  0  0
  191.8540  177.3450  140.6460 C   0  0  0  0  0  2  0  0  0  0  0  0
  194.0910  176.9970  139.8730 O   0  0  0  0  0  1  0  0  0  0  0  0
  192.7740  177.1710  139.4470 C   0  0  0  0  0  2  0  0  0  0  0  0
  1 30  1  1  0  0  0
  2 10  1  1  0  0  0
  2  4  1  0  0  0  0
  3  1  1  6  0  0  0
  3  7  1  0  0  0  0
  3  2  1  0  0  0  0
  4 11  1  0  0  0  0
  4  8  1  1  0  0  0
  5 12  1  6  0  0  0
  5  6  1  0  0  0  0
  6 13  1  1  0  0  0
  7  9  1  0  0  0  0
  8  6  1  0  0  0  0
  9 11  1  0  0  0  0
 10  5  1  0  0  0  0
 11 16  1  0  0  0  0
 13 14  1  0  0  0  0
 13 15  1  0  0  0  0
 16 17  1  0  0  0  0
 18  1  1  1  0  0  0
 19 23  1  1  0  0  0
 19 18  1  0  0  0  0
 20 26  1  6  0  0  0
 20 19  1  0  0  0  0
 20 18  1  0  0  0  0
 23 21  2  0  0  0  0
 23 22  2  0  0  0  0
 24 25  1  0  0  0  0
 25 23  1  0  0  0  0
 27 26  1  0  0  0  0
 29 28  1  0  0  0  0
 29 27  1  0  0  0  0
 32 31  1  0  0  0  0
 32 30  1  0  0  0  0
M  END
>  <MODEL>
7

>  <REMARK>
 VINA RESULT:      -3.8      5.509     10.101
  Name = 
  11 active torsions:
  status: ('A' for Active; 'I' for Inactive)
    1  A    between atoms: C_1  and  C_4
    2  A    between atoms: C_1  and  C_5
    3  A    between atoms: C_1  and  C_16
    4  A    between atoms: C_4  and  C_30
    5  A    between atoms: C_9  and  C_12
    6  A    between atoms: C_13  and  N_29
    7  A    between atoms: S_15  and  C_20
    8  A    between atoms: S_15  and  N_26
    9  A    between atoms: O_22  and  C_23
   10  A    between atoms: C_23  and  C_24
   11  A    between atoms: C_24  and  C_27
                            x       y       z     vdW  Elec       q    Type
                         _______ _______ _______ _____ _____    ______ ____

>  <TORSDO>
F 11

$$$$
=
 OpenBabel10272402073D

 32 34  0  0  1  0  0  0  0  0999 V2000
  191.1480  176.2060  136.9130 C   0  0  2  0  0  3  0  0  0  0  0  0
  193.2270  175.4910  135.5320 C   0  0  2  0  0  3  0  0  0  0  0  0
  192.5880  176.5380  136.4630 C   0  0  2  0  0  3  0  0  0  0  0  0
  193.9880  174.3970  136.3110 C   0  0  1  0  0  3  0  0  0  0  0  0
  195.5280  176.2450  134.6770 C   0  0  1  0  0  3  0  0  0  0  0  0
  196.2080  174.8570  134.7150 C   0  0  2  0  0  3  0  0  0  0  0  0
  193.4400  176.9150  137.5270 O   0  0  0  0  0  0  0  0  0  0  0  0
  195.1080  173.4570  135.2080 S   0  0  0  0  0  0  0  0  0  0  0  0
  193.7800  175.7630  138.2590 C   0  0  0  0  0  2  0  0  0  0  0  0
  194.0260  176.1670  134.4090 C   0  0  0  0  0  2  0  0  0  0  0  0
  194.7000  174.9340  137.4820 N   0  0  0  0  0  0  0  0  0  0  0  0
  195.7850  176.9990  135.8250 O   0  0  0  0  0  1  0  0  0  0  0  0
  197.5540  174.8410  135.4590 C   0  0  0  0  0  3  0  0  0  0  0  0
  197.9060  173.4380  135.9240 C   0  0  0  0  0  1  0  0  0  0  0  0
  198.6760  175.3270  134.5590 C   0  0  0  0  0  1  0  0  0  0  0  0
  195.1930  173.8480  138.3400 C   0  0  0  0  0  2  0  0  0  0  0  0
  196.3190  174.2770  139.2810 C   0  0  0  0  0  1  0  0  0  0  0  0
  190.2100  176.3290  135.7020 C   0  0  1  0  0  3  0  0  0  0  0  0
  189.5830  175.0170  135.2020 C   0  0  2  0  0  3  0  0  0  0  0  0
  188.7680  175.9860  136.0320 C   0  0  2  0  0  3  0  0  0  0  0  0
  190.0860  173.8720  137.5930 O   0  0  0  0  0  0  0  0  0  0  0  0
  191.1770  172.9030  135.6420 O   0  0  0  0  0  0  0  0  0  0  0  0
  189.9010  173.5180  136.1460 S   0  0  0  0  0  0  0  0  0  0  0  0
  187.4540  172.8910  136.7210 C   0  0  0  0  0  1  0  0  0  0  0  0
  188.6100  172.3650  136.0130 N   0  0  0  0  0  2  0  0  0  0  0  0
  187.8440  176.7680  135.1200 C   0  0  0  0  0  2  0  0  0  0  0  0
  186.7790  177.4780  135.9350 C   0  0  0  0  0  2  0  0  0  0  0  0
  186.3420  178.2720  137.9460 C   0  0  0  0  0  1  0  0  0  0  0  0
  187.3660  178.1510  137.0080 O   0  0  0  0  0  0  0  0  0  0  0  0
  190.7040  177.2050  137.9860 C   0  0  0  0  0  2  0  0  0  0  0  0
  189.5970  177.3700  140.1010 O   0  0  0  0  0  1  0  0  0  0  0  0
  190.3710  176.5250  139.3050 C   0  0  0  0  0  2  0  0  0  0  0  0
  1 30  1  1  0  0  0
  2 10  1  6  0  0  0
  2  4  1  0  0  0  0
  2  3  1  0  0  0  0
  3  1  1  1  0  0  0
  3  7  1  0  0  0  0
  4  8  1  6  0  0  0
  4 11  1  0  0  0  0
  5  6  1  0  0  0  0
  5 12  1  1  0  0  0
  6  8  1  0  0  0  0
  6 13  1  1  0  0  0
  7  9  1  0  0  0  0
 10  5  1  0  0  0  0
 11  9  1  0  0  0  0
 11 16  1  0  0  0  0
 13 14  1  0  0  0  0
 15 13  1  0  0  0  0
 16 17  1  0  0  0  0
 18 20  1  0  0  0  0
 18  1  1  1  0  0  0
 19 18  1  0  0  0  0
 19 20  1  0  0  0  0
 19 23  1  1  0  0  0
 20 26  1  6  0  0  0
 22 23  2  0  0  0  0
 23 21  2  0  0  0  0
 25 23  1  0  0  0  0
 25 24  1  0  0  0  0
 26 27  1  0  0  0  0
 27 29  1  0  0  0  0
 29 28  1  0  0  0  0
 30 32  1  0  0  0  0
 32 31  1  0  0  0  0
M  END
>  <MODEL>
8

>  <REMARK>
 VINA RESULT:      -3.7      7.213     10.214
  Name = 
  11 active torsions:
  status: ('A' for Active; 'I' for Inactive)
    1  A    between atoms: C_1  and  C_4
    2  A    between atoms: C_1  and  C_5
    3  A    between atoms: C_1  and  C_16
    4  A    between atoms: C_4  and  C_30
    5  A    between atoms: C_9  and  C_12
    6  A    between atoms: C_13  and  N_29
    7  A    between atoms: S_15  and  C_20
    8  A    between atoms: S_15  and  N_26
    9  A    between atoms: O_22  and  C_23
   10  A    between atoms: C_23  and  C_24
   11  A    between atoms: C_24  and  C_27
                            x       y       z     vdW  Elec       q    Type
                         _______ _______ _______ _____ _____    ______ ____

>  <TORSDO>
F 11

$$$$
=
 OpenBabel10272402073D

 32 34  0  0  1  0  0  0  0  0999 V2000
  184.9190  177.6300  137.5370 C   0  0  2  0  0  3  0  0  0  0  0  0
  186.8690  176.3090  136.4450 C   0  0  2  0  0  3  0  0  0  0  0  0
  186.2460  177.6840  136.7480 C   0  0  2  0  0  3  0  0  0  0  0  0
  187.8370  175.8440  137.5550 C   0  0  1  0  0  3  0  0  0  0  0  0
  188.9470  176.5060  134.9500 C   0  0  1  0  0  3  0  0  0  0  0  0
  189.7710  175.3840  135.6230 C   0  0  2  0  0  3  0  0  0  0  0  0
  187.1820  178.6030  137.2770 O   0  0  0  0  0  0  0  0  0  0  0  0
  188.9000  174.4710  136.9730 S   0  0  0  0  0  0  0  0  0  0  0  0
  187.7340  178.0560  138.4490 C   0  0  0  0  0  2  0  0  0  0  0  0
  187.4400  176.2640  135.0210 C   0  0  0  0  0  2  0  0  0  0  0  0
  188.6310  176.9520  138.1080 N   0  0  0  0  0  0  0  0  0  0  0  0
  189.2670  177.7740  135.4420 O   0  0  0  0  0  1  0  0  0  0  0  0
  191.1960  175.8070  136.0210 C   0  0  0  0  0  3  0  0  0  0  0  0
  191.7770  174.8660  137.0620 C   0  0  0  0  0  1  0  0  0  0  0  0
  192.1210  175.7960  134.8170 C   0  0  0  0  0  1  0  0  0  0  0  0
  189.3430  176.5330  139.3230 C   0  0  0  0  0  2  0  0  0  0  0  0
  190.6120  177.3410  139.5960 C   0  0  0  0  0  1  0  0  0  0  0  0
  183.7480  177.6750  136.5430 C   0  0  1  0  0  3  0  0  0  0  0  0
  182.7700  176.4910  136.6030 C   0  0  2  0  0  3  0  0  0  0  0  0
  182.3990  177.8220  137.2230 C   0  0  2  0  0  3  0  0  0  0  0  0
  181.8890  174.2690  137.8550 O   0  0  0  0  0  0  0  0  0  0  0  0
  182.9830  175.9600  139.2250 O   0  0  0  0  0  0  0  0  0  0  0  0
  183.0140  175.2610  137.8950 S   0  0  0  0  0  0  0  0  0  0  0  0
  184.4110  173.5270  136.5710 C   0  0  0  0  0  1  0  0  0  0  0  0
  184.5170  174.4090  137.7220 N   0  0  0  0  0  2  0  0  0  0  0  0
  181.4470  178.5540  136.2970 C   0  0  0  0  0  2  0  0  0  0  0  0
  180.7290  179.6590  137.0500 C   0  0  0  0  0  2  0  0  0  0  0  0
  181.4810  181.4490  138.0970 C   0  0  0  0  0  1  0  0  0  0  0  0
  181.4840  180.0560  138.1550 O   0  0  0  0  0  0  0  0  0  0  0  0
  184.8260  178.8440  138.4660 C   0  0  0  0  0  2  0  0  0  0  0  0
  185.2300  179.5380  140.7200 O   0  0  0  0  0  1  0  0  0  0  0  0
  184.8470  178.4510  139.9350 C   0  0  0  0  0  2  0  0  0  0  0  0
  1 30  1  1  0  0  0
  2 10  1  6  0  0  0
  2  3  1  0  0  0  0
  2  4  1  0  0  0  0
  3  7  1  0  0  0  0
  3  1  1  1  0  0  0
  4  8  1  6  0  0  0
  4 11  1  0  0  0  0
  5 10  1  0  0  0  0
  5 12  1  1  0  0  0
  5  6  1  0  0  0  0
  6 13  1  1  0  0  0
  6  8  1  0  0  0  0
  7  9  1  0  0  0  0
 11  9  1  0  0  0  0
 11 16  1  0  0  0  0
 13 14  1  0  0  0  0
 15 13  1  0  0  0  0
 16 17  1  0  0  0  0
 18 19  1  0  0  0  0
 18 20  1  0  0  0  0
 18  1  1  1  0  0  0
 19 20  1  0  0  0  0
 19 23  1  1  0  0  0
 20 26  1  6  0  0  0
 21 23  2  0  0  0  0
 23 22  2  0  0  0  0
 24 25  1  0  0  0  0
 25 23  1  0  0  0  0
 26 27  1  0  0  0  0
 27 29  1  0  0  0  0
 28 29  1  0  0  0  0
 30 32  1  0  0  0  0
 32 31  1  0  0  0  0
M  END
>  <MODEL>
9

>  <REMARK>
 VINA RESULT:      -3.7      2.911      5.506
  Name = 
  11 active torsions:
  status: ('A' for Active; 'I' for Inactive)
    1  A    between atoms: C_1  and  C_4
    2  A    between atoms: C_1  and  C_5
    3  A    between atoms: C_1  and  C_16
    4  A    between atoms: C_4  and  C_30
    5  A    between atoms: C_9  and  C_12
    6  A    between atoms: C_13  and  N_29
    7  A    between atoms: S_15  and  C_20
    8  A    between atoms: S_15  and  N_26
    9  A    between atoms: O_22  and  C_23
   10  A    between atoms: C_23  and  C_24
   11  A    between atoms: C_24  and  C_27
                            x       y       z     vdW  Elec       q    Type
                         _______ _______ _______ _____ _____    ______ ____

>  <TORSDO>
F 11

$$$$
