=
 OpenBabel10262423493D

 34 39  0  0  1  0  0  0  0  0999 V2000
  188.7600  177.3230  146.5900 C   0  0  0  0  0  0  0  0  0  0  0  0
  190.8280  177.2200  145.1430 C   0  0  0  0  0  2  0  0  0  0  0  0
  188.4950  177.5800  144.1710 C   0  0  0  0  0  0  0  0  0  0  0  0
  188.1790  177.9950  141.7470 C   0  0  0  0  0  0  0  0  0  0  0  0
  190.8930  176.8120  147.5770 C   0  0  0  0  0  3  0  0  0  0  0  0
  191.5380  176.8530  146.4140 C   0  0  0  0  0  3  0  0  0  0  0  0
  190.2850  177.1830  142.2670 C   0  0  1  0  0  3  0  0  0  0  0  0
  189.3290  177.3460  145.2950 C   0  0  0  0  0  0  0  0  0  0  0  0
  188.8370  178.0100  140.5000 N   0  0  0  0  0  2  0  0  0  0  0  0
  189.4880  177.0830  147.6420 N   0  0  0  0  0  0  0  0  0  0  0  0
  187.1070  177.8430  144.3580 C   0  0  0  0  0  0  0  0  0  0  0  0
  187.3990  177.5580  146.7590 C   0  0  0  0  0  3  0  0  0  0  0  0
  190.4320  175.6710  142.4200 C   0  0  0  0  0  1  0  0  0  0  0  0
  186.8900  178.2540  141.9250 C   0  0  0  0  0  3  0  0  0  0  0  0
  186.3070  178.1500  143.2890 C   0  0  0  0  0  0  0  0  0  0  0  0
  190.2240  177.6470  140.7790 C   0  0  2  0  0  3  0  0  0  0  0  0
  189.0010  177.6020  142.8170 N   0  0  0  0  0  0  0  0  0  0  0  0
  186.5880  177.8230  145.6610 C   0  0  0  0  0  3  0  0  0  0  0  0
  182.6470  178.6880  142.4110 C   0  0  0  0  0  0  0  0  0  0  0  0
  182.1120  179.0030  143.6630 C   0  0  0  0  0  3  0  0  0  0  0  0
  184.8500  178.4180  143.4100 C   0  0  0  0  0  0  0  0  0  0  0  0
  182.9410  179.0340  144.7870 C   0  0  0  0  0  3  0  0  0  0  0  0
  184.0090  178.4030  142.2840 C   0  0  0  0  0  3  0  0  0  0  0  0
  184.3030  178.7480  144.6600 C   0  0  0  0  0  3  0  0  0  0  0  0
  181.8460  178.6650  141.3190 F   0  0  0  0  0  0  0  0  0  0  0  0
  190.7910  176.6960  139.7230 C   0  0  0  0  0  2  0  0  0  0  0  0
  190.7110  177.2810  138.3910 N   0  0  0  0  0  2  0  0  0  0  0  0
  190.5320  174.9750  138.1520 O   0  0  0  0  0  1  0  0  0  0  0  0
  190.5400  176.1840  137.4520 C   0  0  1  0  0  3  0  0  0  0  0  0
  189.2290  176.3500  136.6900 C   0  0  1  0  0  3  0  0  0  0  0  0
  187.3150  178.3100  137.0170 S   0  0  0  0  0  0  0  0  0  0  0  0
  186.6490  176.3340  136.6900 S   0  0  0  0  0  0  0  0  0  0  0  0
  188.1300  175.7530  137.4410 N   0  0  0  0  0  2  0  0  0  0  0  0
  188.9560  177.8300  136.4090 C   0  0  0  0  0  2  0  0  0  0  0  0
  1 12  1  0  0  0  0
  1 10  2  0  0  0  0
  2  8  1  0  0  0  0
  2  6  1  0  0  0  0
  3 11  1  0  0  0  0
  3  8  2  0  0  0  0
  4 14  2  0  0  0  0
  4 17  1  0  0  0  0
  5 10  1  0  0  0  0
  6  5  2  0  0  0  0
  7 13  1  6  0  0  0
  7 17  1  0  0  0  0
  8  1  1  0  0  0  0
  9 16  1  0  0  0  0
  9  4  1  0  0  0  0
 11 18  1  0  0  0  0
 14 15  1  0  0  0  0
 15 21  1  0  0  0  0
 15 11  2  0  0  0  0
 16 26  1  6  0  0  0
 16  7  1  0  0  0  0
 17  3  1  0  0  0  0
 18 12  2  0  0  0  0
 19 20  1  0  0  0  0
 20 22  2  0  0  0  0
 21 24  2  0  0  0  0
 23 19  2  0  0  0  0
 23 21  1  0  0  0  0
 24 22  1  0  0  0  0
 25 19  1  0  0  0  0
 27 26  1  0  0  0  0
 29 28  1  1  0  0  0
 29 27  1  0  0  0  0
 30 33  1  0  0  0  0
 30 29  1  1  0  0  0
 32 31  1  0  0  0  0
 32 33  1  0  0  0  0
 34 30  1  0  0  0  0
 34 31  1  0  0  0  0
M  END
>  <MODEL>
1

>  <REMARK>
 VINA RESULT:     -10.9      0.000      0.000
  Name = 
  5 active torsions:
  status: ('A' for Active; 'I' for Inactive)
    1  A    between atoms: N_3  and  C_13
    2  A    between atoms: N_3  and  C_17
    3  A    between atoms: C_12  and  C_28
    4  A    between atoms: C_13  and  C_14
    5  A    between atoms: C_17  and  C_29
                            x       y       z     vdW  Elec       q    Type
                         _______ _______ _______ _____ _____    ______ ____

>  <TORSDO>
F 5

$$$$
=
 OpenBabel10262423493D

 34 39  0  0  1  0  0  0  0  0999 V2000
  186.9510  177.9650  146.7600 C   0  0  0  0  0  0  0  0  0  0  0  0
  189.2990  177.8090  145.8420 C   0  0  0  0  0  2  0  0  0  0  0  0
  187.2490  177.9770  144.3310 C   0  0  0  0  0  0  0  0  0  0  0  0
  187.4950  178.1440  141.8690 C   0  0  0  0  0  0  0  0  0  0  0  0
  188.8060  177.6400  148.2550 C   0  0  0  0  0  3  0  0  0  0  0  0
  189.7020  177.5960  147.2730 C   0  0  0  0  0  3  0  0  0  0  0  0
  189.4380  177.4740  142.9380 C   0  0  1  0  0  3  0  0  0  0  0  0
  187.8030  177.8870  145.6340 C   0  0  0  0  0  0  0  0  0  0  0  0
  188.4240  178.0670  140.8110 N   0  0  0  0  0  2  0  0  0  0  0  0
  187.4190  177.8570  147.9690 N   0  0  0  0  0  0  0  0  0  0  0  0
  185.8510  178.1990  144.1680 C   0  0  0  0  0  0  0  0  0  0  0  0
  185.5830  178.1590  146.5870 C   0  0  0  0  0  3  0  0  0  0  0  0
  189.5730  175.9910  143.2760 C   0  0  0  0  0  1  0  0  0  0  0  0
  186.1960  178.3660  141.7200 C   0  0  0  0  0  3  0  0  0  0  0  0
  185.3150  178.3690  142.9180 C   0  0  0  0  0  0  0  0  0  0  0  0
  189.7150  177.7900  141.4360 C   0  0  2  0  0  3  0  0  0  0  0  0
  188.0540  177.8900  143.1340 N   0  0  0  0  0  0  0  0  0  0  0  0
  185.0440  178.2830  145.3120 C   0  0  0  0  0  3  0  0  0  0  0  0
  181.9570  178.7150  141.1680 C   0  0  0  0  0  0  0  0  0  0  0  0
  181.1320  179.0790  142.2350 C   0  0  0  0  0  3  0  0  0  0  0  0
  183.8640  178.5870  142.6740 C   0  0  0  0  0  0  0  0  0  0  0  0
  181.6680  179.2060  143.5190 C   0  0  0  0  0  3  0  0  0  0  0  0
  183.3160  178.4760  141.3850 C   0  0  0  0  0  3  0  0  0  0  0  0
  183.0280  178.9670  143.7360 C   0  0  0  0  0  3  0  0  0  0  0  0
  181.4390  178.5980  139.9210 F   0  0  0  0  0  0  0  0  0  0  0  0
  190.5280  176.7660  140.6410 C   0  0  0  0  0  2  0  0  0  0  0  0
  189.7890  176.2960  139.4770 N   0  0  0  0  0  2  0  0  0  0  0  0
  191.1190  174.8890  138.1900 O   0  0  0  0  0  1  0  0  0  0  0  0
  190.7330  176.2190  138.3730 C   0  0  1  0  0  3  0  0  0  0  0  0
  190.0890  176.7530  137.0980 C   0  0  1  0  0  3  0  0  0  0  0  0
  187.6920  178.0970  136.8440 S   0  0  0  0  0  0  0  0  0  0  0  0
  188.1680  176.6550  135.3770 S   0  0  0  0  0  0  0  0  0  0  0  0
  189.1130  175.7950  136.5870 N   0  0  0  0  0  2  0  0  0  0  0  0
  189.4340  178.1130  137.3570 C   0  0  0  0  0  2  0  0  0  0  0  0
  1 10  2  0  0  0  0
  2  6  1  0  0  0  0
  3  8  2  0  0  0  0
  4 17  1  0  0  0  0
  6  5  2  0  0  0  0
  7 17  1  0  0  0  0
  7 13  1  6  0  0  0
  8  2  1  0  0  0  0
  8  1  1  0  0  0  0
  9 16  1  0  0  0  0
  9  4  1  0  0  0  0
 10  5  1  0  0  0  0
 11  3  1  0  0  0  0
 11 18  1  0  0  0  0
 12  1  1  0  0  0  0
 14  4  2  0  0  0  0
 14 15  1  0  0  0  0
 15 11  2  0  0  0  0
 16 26  1  6  0  0  0
 16  7  1  0  0  0  0
 17  3  1  0  0  0  0
 18 12  2  0  0  0  0
 19 23  2  0  0  0  0
 19 20  1  0  0  0  0
 20 22  2  0  0  0  0
 21 15  1  0  0  0  0
 21 24  2  0  0  0  0
 22 24  1  0  0  0  0
 23 21  1  0  0  0  0
 25 19  1  0  0  0  0
 27 26  1  0  0  0  0
 29 28  1  6  0  0  0
 29 27  1  0  0  0  0
 30 34  1  0  0  0  0
 30 29  1  1  0  0  0
 31 34  1  0  0  0  0
 32 33  1  0  0  0  0
 32 31  1  0  0  0  0
 33 30  1  0  0  0  0
M  END
>  <MODEL>
2

>  <REMARK>
 VINA RESULT:     -10.6      1.175      1.445
  Name = 
  5 active torsions:
  status: ('A' for Active; 'I' for Inactive)
    1  A    between atoms: N_3  and  C_13
    2  A    between atoms: N_3  and  C_17
    3  A    between atoms: C_12  and  C_28
    4  A    between atoms: C_13  and  C_14
    5  A    between atoms: C_17  and  C_29
                            x       y       z     vdW  Elec       q    Type
                         _______ _______ _______ _____ _____    ______ ____

>  <TORSDO>
F 5

$$$$
=
 OpenBabel10262423493D

 34 39  0  0  1  0  0  0  0  0999 V2000
  188.7850  177.3270  146.5500 C   0  0  0  0  0  0  0  0  0  0  0  0
  190.8190  177.2020  145.0560 C   0  0  0  0  0  2  0  0  0  0  0  0
  188.4670  177.5740  144.1360 C   0  0  0  0  0  0  0  0  0  0  0  0
  188.0990  177.9810  141.7170 C   0  0  0  0  0  0  0  0  0  0  0  0
  190.9360  176.8050  147.4900 C   0  0  0  0  0  3  0  0  0  0  0  0
  191.5550  176.8360  146.3130 C   0  0  0  0  0  3  0  0  0  0  0  0
  190.2100  177.1570  142.1940 C   0  0  1  0  0  3  0  0  0  0  0  0
  189.3250  177.3400  145.2420 C   0  0  0  0  0  0  0  0  0  0  0  0
  188.7290  177.9860  140.4560 N   0  0  0  0  0  2  0  0  0  0  0  0
  189.5350  177.0860  147.5860 N   0  0  0  0  0  0  0  0  0  0  0  0
  187.0860  177.8480  144.3530 C   0  0  0  0  0  0  0  0  0  0  0  0
  187.4300  177.5720  146.7480 C   0  0  0  0  0  3  0  0  0  0  0  0
  190.3500  175.6440  142.3510 C   0  0  0  0  0  1  0  0  0  0  0  0
  186.8160  178.2500  141.9230 C   0  0  0  0  0  3  0  0  0  0  0  0
  186.2640  178.1570  143.3010 C   0  0  0  0  0  0  0  0  0  0  0  0
  190.1190  177.6140  140.7050 C   0  0  2  0  0  3  0  0  0  0  0  0
  188.9420  177.5870  142.7710 N   0  0  0  0  0  0  0  0  0  0  0  0
  186.5960  177.8380  145.6680 C   0  0  0  0  0  3  0  0  0  0  0  0
  182.5920  178.7330  142.5020 C   0  0  0  0  0  0  0  0  0  0  0  0
  182.0850  179.0410  143.7660 C   0  0  0  0  0  3  0  0  0  0  0  0
  184.8120  178.4360  143.4540 C   0  0  0  0  0  0  0  0  0  0  0  0
  182.9360  179.0550  144.8740 C   0  0  0  0  0  3  0  0  0  0  0  0
  183.9480  178.4380  142.3450 C   0  0  0  0  0  3  0  0  0  0  0  0
  184.2930  178.7590  144.7170 C   0  0  0  0  0  3  0  0  0  0  0  0
  181.7680  178.7250  141.4250 F   0  0  0  0  0  0  0  0  0  0  0  0
  190.6550  176.6540  139.6410 C   0  0  0  0  0  2  0  0  0  0  0  0
  192.0320  176.9730  139.2910 N   0  0  0  0  0  2  0  0  0  0  0  0
  191.4990  174.9560  138.2640 O   0  0  0  0  0  1  0  0  0  0  0  0
  192.5180  175.8960  138.4420 C   0  0  1  0  0  3  0  0  0  0  0  0
  192.9510  176.4530  137.0900 C   0  0  1  0  0  3  0  0  0  0  0  0
  193.1140  175.1190  134.6800 S   0  0  0  0  0  0  0  0  0  0  0  0
  194.6520  176.4870  135.1490 S   0  0  0  0  0  0  0  0  0  0  0  0
  194.3620  176.1660  136.8550 N   0  0  0  0  0  2  0  0  0  0  0  0
  192.0830  175.8760  135.9690 C   0  0  0  0  0  2  0  0  0  0  0  0
  1 12  1  0  0  0  0
  1 10  2  0  0  0  0
  2  8  1  0  0  0  0
  2  6  1  0  0  0  0
  3 11  1  0  0  0  0
  3  8  2  0  0  0  0
  4 14  2  0  0  0  0
  4 17  1  0  0  0  0
  5 10  1  0  0  0  0
  6  5  2  0  0  0  0
  7 13  1  6  0  0  0
  7 17  1  0  0  0  0
  8  1  1  0  0  0  0
  9 16  1  0  0  0  0
  9  4  1  0  0  0  0
 11 18  1  0  0  0  0
 14 15  1  0  0  0  0
 15 21  1  0  0  0  0
 15 11  2  0  0  0  0
 16 26  1  6  0  0  0
 16  7  1  0  0  0  0
 17  3  1  0  0  0  0
 18 12  2  0  0  0  0
 19 20  1  0  0  0  0
 20 22  2  0  0  0  0
 21 24  2  0  0  0  0
 23 19  2  0  0  0  0
 23 21  1  0  0  0  0
 24 22  1  0  0  0  0
 25 19  1  0  0  0  0
 27 26  1  0  0  0  0
 29 28  1  6  0  0  0
 29 27  1  0  0  0  0
 30 29  1  1  0  0  0
 31 32  1  0  0  0  0
 31 34  1  0  0  0  0
 32 33  1  0  0  0  0
 33 30  1  0  0  0  0
 34 30  1  0  0  0  0
M  END
>  <MODEL>
3

>  <REMARK>
 VINA RESULT:     -10.5      2.061      2.374
  Name = 
  5 active torsions:
  status: ('A' for Active; 'I' for Inactive)
    1  A    between atoms: N_3  and  C_13
    2  A    between atoms: N_3  and  C_17
    3  A    between atoms: C_12  and  C_28
    4  A    between atoms: C_13  and  C_14
    5  A    between atoms: C_17  and  C_29
                            x       y       z     vdW  Elec       q    Type
                         _______ _______ _______ _____ _____    ______ ____

>  <TORSDO>
F 5

$$$$
=
 OpenBabel10262423493D

 34 39  0  0  1  0  0  0  0  0999 V2000
  188.8070  177.4210  146.6660 C   0  0  0  0  0  0  0  0  0  0  0  0
  190.8660  177.2300  145.2140 C   0  0  0  0  0  2  0  0  0  0  0  0
  188.5350  177.5980  144.2400 C   0  0  0  0  0  0  0  0  0  0  0  0
  188.2150  177.9360  141.8040 C   0  0  0  0  0  0  0  0  0  0  0  0
  190.9340  176.9050  147.6610 C   0  0  0  0  0  3  0  0  0  0  0  0
  191.5740  176.8940  146.4940 C   0  0  0  0  0  3  0  0  0  0  0  0
  190.3080  177.1050  142.3440 C   0  0  1  0  0  3  0  0  0  0  0  0
  189.3690  177.3880  145.3690 C   0  0  0  0  0  0  0  0  0  0  0  0
  188.8680  177.8960  140.5550 N   0  0  0  0  0  2  0  0  0  0  0  0
  189.5340  177.2030  147.7220 N   0  0  0  0  0  0  0  0  0  0  0  0
  187.1530  177.8930  144.4240 C   0  0  0  0  0  0  0  0  0  0  0  0
  187.4500  177.6850  146.8310 C   0  0  0  0  0  3  0  0  0  0  0  0
  190.4290  175.5960  142.5480 C   0  0  0  0  0  1  0  0  0  0  0  0
  186.9320  178.2240  141.9780 C   0  0  0  0  0  3  0  0  0  0  0  0
  186.3530  178.1780  143.3480 C   0  0  0  0  0  0  0  0  0  0  0  0
  190.2490  177.5180  140.8410 C   0  0  2  0  0  3  0  0  0  0  0  0
  189.0350  177.5650  142.8840 N   0  0  0  0  0  0  0  0  0  0  0  0
  186.6390  177.9270  145.7290 C   0  0  0  0  0  3  0  0  0  0  0  0
  182.7040  178.7750  142.4630 C   0  0  0  0  0  0  0  0  0  0  0  0
  182.1760  179.1190  143.7100 C   0  0  0  0  0  3  0  0  0  0  0  0
  184.9020  178.4760  143.4660 C   0  0  0  0  0  0  0  0  0  0  0  0
  183.0060  179.1510  144.8330 C   0  0  0  0  0  3  0  0  0  0  0  0
  184.0600  178.4610  142.3400 C   0  0  0  0  0  3  0  0  0  0  0  0
  184.3620  178.8360  144.7100 C   0  0  0  0  0  3  0  0  0  0  0  0
  181.9020  178.7500  141.3710 F   0  0  0  0  0  0  0  0  0  0  0  0
  190.7940  176.5210  139.8160 C   0  0  0  0  0  2  0  0  0  0  0  0
  192.1310  176.8950  139.3780 N   0  0  0  0  0  2  0  0  0  0  0  0
  193.5690  176.6000  137.5740 O   0  0  0  0  0  1  0  0  0  0  0  0
  192.2280  176.5610  137.9650 C   0  0  1  0  0  3  0  0  0  0  0  0
  191.6560  175.1690  137.7190 C   0  0  1  0  0  3  0  0  0  0  0  0
  192.4690  173.3090  135.8490 S   0  0  0  0  0  0  0  0  0  0  0  0
  190.3950  173.5330  136.1720 S   0  0  0  0  0  0  0  0  0  0  0  0
  190.6870  175.2070  136.6280 N   0  0  0  0  0  2  0  0  0  0  0  0
  192.7790  174.1730  137.4150 C   0  0  0  0  0  2  0  0  0  0  0  0
  1 12  1  0  0  0  0
  1 10  2  0  0  0  0
  2  8  1  0  0  0  0
  2  6  1  0  0  0  0
  3 11  1  0  0  0  0
  3  8  2  0  0  0  0
  4 14  2  0  0  0  0
  4 17  1  0  0  0  0
  5 10  1  0  0  0  0
  6  5  2  0  0  0  0
  7 13  1  6  0  0  0
  7 17  1  0  0  0  0
  8  1  1  0  0  0  0
  9 16  1  0  0  0  0
  9  4  1  0  0  0  0
 11 18  1  0  0  0  0
 14 15  1  0  0  0  0
 15 21  1  0  0  0  0
 15 11  2  0  0  0  0
 16 26  1  6  0  0  0
 16  7  1  0  0  0  0
 17  3  1  0  0  0  0
 18 12  2  0  0  0  0
 19 20  1  0  0  0  0
 20 22  2  0  0  0  0
 21 24  2  0  0  0  0
 23 19  2  0  0  0  0
 23 21  1  0  0  0  0
 24 22  1  0  0  0  0
 25 19  1  0  0  0  0
 27 26  1  0  0  0  0
 29 28  1  1  0  0  0
 29 27  1  0  0  0  0
 30 29  1  6  0  0  0
 31 32  1  0  0  0  0
 31 34  1  0  0  0  0
 32 33  1  0  0  0  0
 33 30  1  0  0  0  0
 34 30  1  0  0  0  0
M  END
>  <MODEL>
4

>  <REMARK>
 VINA RESULT:     -10.4      1.747      2.021
  Name = 
  5 active torsions:
  status: ('A' for Active; 'I' for Inactive)
    1  A    between atoms: N_3  and  C_13
    2  A    between atoms: N_3  and  C_17
    3  A    between atoms: C_12  and  C_28
    4  A    between atoms: C_13  and  C_14
    5  A    between atoms: C_17  and  C_29
                            x       y       z     vdW  Elec       q    Type
                         _______ _______ _______ _____ _____    ______ ____

>  <TORSDO>
F 5

$$$$
=
 OpenBabel10262423493D

 34 39  0  0  1  0  0  0  0  0999 V2000
  186.5760  178.0810  146.7720 C   0  0  0  0  0  0  0  0  0  0  0  0
  188.9050  177.9140  145.8070 C   0  0  0  0  0  2  0  0  0  0  0  0
  186.8240  178.0770  144.3370 C   0  0  0  0  0  0  0  0  0  0  0  0
  187.0190  178.2290  141.8700 C   0  0  0  0  0  0  0  0  0  0  0  0
  188.4610  177.7600  148.2310 C   0  0  0  0  0  3  0  0  0  0  0  0
  189.3360  177.7080  147.2300 C   0  0  0  0  0  3  0  0  0  0  0  0
  188.9820  177.5610  142.9020 C   0  0  1  0  0  3  0  0  0  0  0  0
  187.4050  177.9940  145.6300 C   0  0  0  0  0  0  0  0  0  0  0  0
  187.9250  178.1430  140.7930 N   0  0  0  0  0  2  0  0  0  0  0  0
  187.0690  177.9780  147.9720 N   0  0  0  0  0  0  0  0  0  0  0  0
  185.4230  178.3020  144.2020 C   0  0  0  0  0  0  0  0  0  0  0  0
  185.2060  178.2760  146.6270 C   0  0  0  0  0  3  0  0  0  0  0  0
  189.1200  176.0790  143.2460 C   0  0  0  0  0  1  0  0  0  0  0  0
  185.7170  178.4530  141.7470 C   0  0  0  0  0  3  0  0  0  0  0  0
  184.8610  178.4660  142.9630 C   0  0  0  0  0  0  0  0  0  0  0  0
  189.2280  177.8670  141.3930 C   0  0  2  0  0  3  0  0  0  0  0  0
  187.6030  177.9820  143.1250 N   0  0  0  0  0  0  0  0  0  0  0  0
  184.6400  178.3940  145.3630 C   0  0  0  0  0  3  0  0  0  0  0  0
  181.1460  178.9450  143.6100 C   0  0  0  0  0  0  0  0  0  0  0  0
  180.6520  179.0260  142.3060 C   0  0  0  0  0  3  0  0  0  0  0  0
  183.4070  178.6850  142.7490 C   0  0  0  0  0  0  0  0  0  0  0  0
  181.5280  178.9300  141.2220 C   0  0  0  0  0  3  0  0  0  0  0  0
  182.5140  178.7700  143.8310 C   0  0  0  0  0  3  0  0  0  0  0  0
  182.8970  178.7550  141.4430 C   0  0  0  0  0  3  0  0  0  0  0  0
  180.2950  179.0310  144.6620 F   0  0  0  0  0  0  0  0  0  0  0  0
  190.0230  176.8360  140.5880 C   0  0  0  0  0  2  0  0  0  0  0  0
  190.6210  177.4410  139.4050 N   0  0  0  0  0  2  0  0  0  0  0  0
  189.4580  177.7180  137.4110 O   0  0  0  0  0  1  0  0  0  0  0  0
  190.0530  176.7690  138.2470 C   0  0  1  0  0  3  0  0  0  0  0  0
  191.1450  176.0220  137.4890 C   0  0  1  0  0  3  0  0  0  0  0  0
  190.8900  174.5290  135.1830 S   0  0  0  0  0  0  0  0  0  0  0  0
  192.1600  173.7860  136.6970 S   0  0  0  0  0  0  0  0  0  0  0  0
  191.1640  174.6180  137.8850 N   0  0  0  0  0  2  0  0  0  0  0  0
  190.9390  176.1600  135.9780 C   0  0  0  0  0  2  0  0  0  0  0  0
  1 10  2  0  0  0  0
  2  6  1  0  0  0  0
  3  8  2  0  0  0  0
  4 17  1  0  0  0  0
  6  5  2  0  0  0  0
  7 17  1  0  0  0  0
  7 13  1  6  0  0  0
  8  2  1  0  0  0  0
  8  1  1  0  0  0  0
  9 16  1  0  0  0  0
  9  4  1  0  0  0  0
 10  5  1  0  0  0  0
 11  3  1  0  0  0  0
 11 18  1  0  0  0  0
 12  1  1  0  0  0  0
 14  4  2  0  0  0  0
 14 15  1  0  0  0  0
 15 11  2  0  0  0  0
 16 26  1  6  0  0  0
 16  7  1  0  0  0  0
 17  3  1  0  0  0  0
 18 12  2  0  0  0  0
 19 23  1  0  0  0  0
 19 25  1  0  0  0  0
 20 19  2  0  0  0  0
 21 15  1  0  0  0  0
 21 23  2  0  0  0  0
 22 24  2  0  0  0  0
 22 20  1  0  0  0  0
 24 21  1  0  0  0  0
 27 26  1  0  0  0  0
 29 28  1  6  0  0  0
 29 27  1  0  0  0  0
 30 33  1  0  0  0  0
 30 29  1  1  0  0  0
 31 34  1  0  0  0  0
 31 32  1  0  0  0  0
 32 33  1  0  0  0  0
 34 30  1  0  0  0  0
M  END
>  <MODEL>
5

>  <REMARK>
 VINA RESULT:     -10.3      2.034      2.559
  Name = 
  5 active torsions:
  status: ('A' for Active; 'I' for Inactive)
    1  A    between atoms: N_3  and  C_13
    2  A    between atoms: N_3  and  C_17
    3  A    between atoms: C_12  and  C_28
    4  A    between atoms: C_13  and  C_14
    5  A    between atoms: C_17  and  C_29
                            x       y       z     vdW  Elec       q    Type
                         _______ _______ _______ _____ _____    ______ ____

>  <TORSDO>
F 5

$$$$
=
 OpenBabel10262423493D

 34 39  0  0  1  0  0  0  0  0999 V2000
  184.4560  178.5890  145.0400 C   0  0  2  0  0  3  0  0  0  0  0  0
  186.9730  178.3890  145.1330 C   0  0  0  0  0  3  0  0  0  0  0  0
  185.6840  178.4230  142.9290 C   0  0  0  0  0  0  0  0  0  0  0  0
  186.8800  178.4080  140.7570 C   0  0  0  0  0  0  0  0  0  0  0  0
  185.5680  178.3960  147.1630 C   0  0  0  0  0  3  0  0  0  0  0  0
  186.7770  178.2870  146.6180 C   0  0  0  0  0  3  0  0  0  0  0  0
  188.2330  177.8400  142.5490 C   0  0  1  0  0  3  0  0  0  0  0  0
  185.6800  178.4360  144.3490 C   0  0  0  0  0  0  0  0  0  0  0  0
  188.1480  178.2620  140.1580 N   0  0  0  0  0  2  0  0  0  0  0  0
  184.4100  178.5760  146.3400 N   0  0  0  0  0  0  0  0  0  0  0  0
  184.4670  178.6180  142.2140 C   0  0  0  0  0  0  0  0  0  0  0  0
  183.2700  178.7550  144.3310 C   0  0  0  0  0  3  0  0  0  0  0  0
  188.1950  176.3870  143.0190 C   0  0  0  0  0  1  0  0  0  0  0  0
  185.7480  178.6050  140.0940 C   0  0  0  0  0  3  0  0  0  0  0  0
  184.4680  178.6890  140.8460 C   0  0  0  0  0  0  0  0  0  0  0  0
  189.0840  178.0460  141.2580 C   0  0  2  0  0  3  0  0  0  0  0  0
  186.8920  178.2550  142.1550 N   0  0  0  0  0  0  0  0  0  0  0  0
  183.2770  178.7790  142.9410 C   0  0  0  0  0  3  0  0  0  0  0  0
  181.8690  180.1880  138.5120 C   0  0  0  0  0  0  0  0  0  0  0  0
  180.8580  179.2260  138.5780 C   0  0  0  0  0  3  0  0  0  0  0  0
  183.2340  178.8730  140.0370 C   0  0  0  0  0  0  0  0  0  0  0  0
  181.0260  178.0920  139.3760 C   0  0  0  0  0  3  0  0  0  0  0  0
  183.0470  180.0160  139.2410 C   0  0  0  0  0  3  0  0  0  0  0  0
  182.2060  177.9200  140.1060 C   0  0  0  0  0  3  0  0  0  0  0  0
  181.7030  181.2920  137.7430 F   0  0  0  0  0  0  0  0  0  0  0  0
  190.1240  176.9740  140.9230 C   0  0  0  0  0  2  0  0  0  0  0  0
  190.9870  177.4010  139.8310 N   0  0  0  0  0  2  0  0  0  0  0  0
  190.1110  175.5790  138.6830 O   0  0  0  0  0  1  0  0  0  0  0  0
  191.3000  176.2180  139.0450 C   0  0  1  0  0  3  0  0  0  0  0  0
  192.0780  176.6130  137.7950 C   0  0  1  0  0  3  0  0  0  0  0  0
  192.5380  175.0980  135.5350 S   0  0  0  0  0  0  0  0  0  0  0  0
  194.1280  176.2810  136.2630 S   0  0  0  0  0  0  0  0  0  0  0  0
  193.4500  176.1250  137.8790 N   0  0  0  0  0  2  0  0  0  0  0  0
  191.3850  176.0750  136.5390 C   0  0  0  0  0  2  0  0  0  0  0  0
  1 12  1  6  0  0  0
  1 10  1  0  0  0  0
  2  6  2  0  0  0  0
  3  8  2  0  0  0  0
  4 17  1  0  0  0  0
  6  5  1  0  0  0  0
  7 13  1  6  0  0  0
  8  1  1  0  0  0  0
  8  2  1  0  0  0  0
  9  4  1  0  0  0  0
  9 16  1  0  0  0  0
 10  5  2  0  0  0  0
 11  3  1  0  0  0  0
 11 18  1  0  0  0  0
 14  4  2  0  0  0  0
 14 15  1  0  0  0  0
 15 11  2  0  0  0  0
 16 26  1  6  0  0  0
 16  7  1  0  0  0  0
 17  7  1  0  0  0  0
 17  3  1  0  0  0  0
 18 12  2  0  0  0  0
 19 20  2  0  0  0  0
 19 23  1  0  0  0  0
 20 22  1  0  0  0  0
 21 24  1  0  0  0  0
 21 15  1  0  0  0  0
 22 24  2  0  0  0  0
 23 21  2  0  0  0  0
 25 19  1  0  0  0  0
 27 26  1  0  0  0  0
 29 28  1  6  0  0  0
 29 27  1  0  0  0  0
 30 33  1  0  0  0  0
 30 29  1  1  0  0  0
 31 32  1  0  0  0  0
 31 34  1  0  0  0  0
 32 33  1  0  0  0  0
 34 30  1  0  0  0  0
M  END
>  <MODEL>
6

>  <REMARK>
 VINA RESULT:      -9.5      2.745      4.000
  Name = 
  5 active torsions:
  status: ('A' for Active; 'I' for Inactive)
    1  A    between atoms: N_3  and  C_13
    2  A    between atoms: N_3  and  C_17
    3  A    between atoms: C_12  and  C_28
    4  A    between atoms: C_13  and  C_14
    5  A    between atoms: C_17  and  C_29
                            x       y       z     vdW  Elec       q    Type
                         _______ _______ _______ _____ _____    ______ ____

>  <TORSDO>
F 5

$$$$
=
 OpenBabel10262423493D

 34 39  0  0  1  0  0  0  0  0999 V2000
  184.1420  178.6740  144.9580 C   0  0  0  0  0  0  0  0  0  0  0  0
  186.6620  178.5440  145.0710 C   0  0  0  0  0  3  0  0  0  0  0  0
  185.3890  178.5100  142.8580 C   0  0  0  0  0  0  0  0  0  0  0  0
  186.6000  178.4970  140.6950 C   0  0  0  0  0  0  0  0  0  0  0  0
  185.2430  178.5410  147.0910 C   0  0  0  0  0  3  0  0  0  0  0  0
  186.4590  178.4580  146.5560 C   0  0  0  0  0  3  0  0  0  0  0  0
  187.9550  177.9910  142.5040 C   0  0  1  0  0  3  0  0  0  0  0  0
  185.3740  178.5440  144.2770 C   0  0  0  0  0  0  0  0  0  0  0  0
  187.8760  178.3760  140.1060 N   0  0  0  0  0  2  0  0  0  0  0  0
  184.0870  178.6780  146.2580 N   0  0  0  0  0  0  0  0  0  0  0  0
  184.1720  178.6620  142.1330 C   0  0  0  0  0  0  0  0  0  0  0  0
  182.9570  178.7970  144.2390 C   0  0  0  0  0  3  0  0  0  0  0  0
  187.9530  176.5450  142.9950 C   0  0  0  0  0  1  0  0  0  0  0  0
  185.4680  178.6530  140.0210 C   0  0  0  0  0  3  0  0  0  0  0  0
  184.1800  178.7130  140.7630 C   0  0  0  0  0  0  0  0  0  0  0  0
  188.8090  178.2010  141.2160 C   0  0  2  0  0  3  0  0  0  0  0  0
  186.6060  178.3640  142.0940 N   0  0  0  0  0  0  0  0  0  0  0  0
  182.9730  178.8010  142.8480 C   0  0  0  0  0  2  0  0  0  0  0  0
  180.8800  177.9390  139.0410 C   0  0  0  0  0  0  0  0  0  0  0  0
  180.6660  179.1190  138.3250 C   0  0  0  0  0  3  0  0  0  0  0  0
  182.9480  178.8520  139.9430 C   0  0  0  0  0  0  0  0  0  0  0  0
  181.5900  180.1620  138.4080 C   0  0  0  0  0  3  0  0  0  0  0  0
  182.0170  177.8030  139.8410 C   0  0  0  0  0  3  0  0  0  0  0  0
  182.7280  180.0270  139.2090 C   0  0  0  0  0  3  0  0  0  0  0  0
  179.9870  176.9230  138.9560 F   0  0  0  0  0  0  0  0  0  0  0  0
  189.8800  177.1530  140.9040 C   0  0  0  0  0  2  0  0  0  0  0  0
  189.6510  176.5390  139.6030 N   0  0  0  0  0  2  0  0  0  0  0  0
  191.8410  176.6400  138.8310 O   0  0  0  0  0  1  0  0  0  0  0  0
  190.5610  177.1740  138.6640 C   0  0  1  0  0  3  0  0  0  0  0  0
  190.0840  176.9380  137.2350 C   0  0  1  0  0  3  0  0  0  0  0  0
  187.6320  177.5730  136.1390 S   0  0  0  0  0  0  0  0  0  0  0  0
  188.4980  175.7260  135.5990 S   0  0  0  0  0  0  0  0  0  0  0  0
  189.3160  175.7000  137.1570 N   0  0  0  0  0  2  0  0  0  0  0  0
  189.2520  178.1270  136.7440 C   0  0  0  0  0  2  0  0  0  0  0  0
  1 10  1  0  0  0  0
  2  6  2  0  0  0  0
  3  8  2  0  0  0  0
  4 17  1  0  0  0  0
  6  5  1  0  0  0  0
  7 13  1  6  0  0  0
  8  1  1  0  0  0  0
  8  2  1  0  0  0  0
  9  4  1  0  0  0  0
  9 16  1  0  0  0  0
 10  5  2  0  0  0  0
 11 18  1  0  0  0  0
 11  3  1  0  0  0  0
 12  1  2  0  0  0  0
 14  4  2  0  0  0  0
 14 15  1  0  0  0  0
 15 11  2  0  0  0  0
 16 26  1  6  0  0  0
 16  7  1  0  0  0  0
 17  7  1  0  0  0  0
 17  3  1  0  0  0  0
 18 12  1  0  0  0  0
 19 23  1  0  0  0  0
 20 22  1  0  0  0  0
 20 19  2  0  0  0  0
 21 15  1  0  0  0  0
 22 24  2  0  0  0  0
 23 21  2  0  0  0  0
 24 21  1  0  0  0  0
 25 19  1  0  0  0  0
 27 26  1  0  0  0  0
 29 28  1  6  0  0  0
 29 27  1  0  0  0  0
 30 29  1  1  0  0  0
 31 34  1  0  0  0  0
 32 31  1  0  0  0  0
 32 33  1  0  0  0  0
 33 30  1  0  0  0  0
 34 30  1  0  0  0  0
M  END
>  <MODEL>
7

>  <REMARK>
 VINA RESULT:      -9.4      2.281      3.698
  Name = 
  5 active torsions:
  status: ('A' for Active; 'I' for Inactive)
    1  A    between atoms: N_3  and  C_13
    2  A    between atoms: N_3  and  C_17
    3  A    between atoms: C_12  and  C_28
    4  A    between atoms: C_13  and  C_14
    5  A    between atoms: C_17  and  C_29
                            x       y       z     vdW  Elec       q    Type
                         _______ _______ _______ _____ _____    ______ ____

>  <TORSDO>
F 5

$$$$
=
 OpenBabel10262423493D

 34 39  0  0  1  0  0  0  0  0999 V2000
  188.8750  177.3730  145.4930 C   0  0  0  0  0  0  0  0  0  0  0  0
  190.6770  177.5500  143.7310 C   0  0  0  0  0  2  0  0  0  0  0  0
  188.2010  177.8490  143.1880 C   0  0  0  0  0  0  0  0  0  0  0  0
  187.4670  178.4800  140.9050 C   0  0  0  0  0  0  0  0  0  0  0  0
  191.1640  176.9100  146.0650 C   0  0  0  0  0  3  0  0  0  0  0  0
  191.6050  177.1080  144.8250 C   0  0  0  0  0  3  0  0  0  0  0  0
  189.6680  177.7620  140.9920 C   0  0  1  0  0  3  0  0  0  0  0  0
  189.2190  177.5610  144.1340 C   0  0  0  0  0  0  0  0  0  0  0  0
  187.9080  178.6610  139.5780 N   0  0  0  0  0  2  0  0  0  0  0  0
  189.7780  177.0780  146.3820 N   0  0  0  0  0  0  0  0  0  0  0  0
  186.8520  178.0000  143.6220 C   0  0  0  0  0  0  0  0  0  0  0  0
  187.5510  177.4990  145.9010 C   0  0  0  0  0  3  0  0  0  0  0  0
  189.9120  176.2550  140.9550 C   0  0  0  0  0  1  0  0  0  0  0  0
  186.2140  178.6340  141.3140 C   0  0  0  0  0  3  0  0  0  0  0  0
  185.8710  178.3570  142.7340 C   0  0  0  0  0  0  0  0  0  0  0  0
  189.3390  178.3650  139.5920 C   0  0  2  0  0  3  0  0  0  0  0  0
  188.4730  178.0380  141.7820 N   0  0  0  0  0  0  0  0  0  0  0  0
  186.5570  177.8170  144.9820 C   0  0  0  0  0  3  0  0  0  0  0  0
  182.0850  178.6240  142.5230 C   0  0  0  0  0  0  0  0  0  0  0  0
  181.7580  178.8920  143.8550 C   0  0  0  0  0  3  0  0  0  0  0  0
  184.4430  178.5150  143.1150 C   0  0  0  0  0  0  0  0  0  0  0  0
  182.7670  178.9800  144.8160 C   0  0  0  0  0  3  0  0  0  0  0  0
  183.4190  178.4420  142.1540 C   0  0  0  0  0  3  0  0  0  0  0  0
  184.1030  178.7980  144.4460 C   0  0  0  0  0  3  0  0  0  0  0  0
  181.1060  178.5450  141.5890 F   0  0  0  0  0  0  0  0  0  0  0  0
  189.7690  177.5620  138.3620 C   0  0  0  0  0  2  0  0  0  0  0  0
  188.6250  176.9280  137.7220 N   0  0  0  0  0  2  0  0  0  0  0  0
  189.7510  177.6540  135.8210 O   0  0  0  0  0  1  0  0  0  0  0  0
  188.4870  177.5270  136.4030 C   0  0  1  0  0  3  0  0  0  0  0  0
  187.5970  176.6540  135.5250 C   0  0  1  0  0  3  0  0  0  0  0  0
  185.6690  174.8500  136.3270 S   0  0  0  0  0  0  0  0  0  0  0  0
  186.9100  174.3040  134.7090 S   0  0  0  0  0  0  0  0  0  0  0  0
  188.1750  175.3210  135.3880 N   0  0  0  0  0  2  0  0  0  0  0  0
  186.1810  176.5780  136.1040 C   0  0  0  0  0  2  0  0  0  0  0  0
  1 12  1  0  0  0  0
  1 10  2  0  0  0  0
  2  8  1  0  0  0  0
  2  6  1  0  0  0  0
  3 11  1  0  0  0  0
  3  8  2  0  0  0  0
  4 14  2  0  0  0  0
  4 17  1  0  0  0  0
  5 10  1  0  0  0  0
  6  5  2  0  0  0  0
  7 13  1  6  0  0  0
  7 17  1  0  0  0  0
  8  1  1  0  0  0  0
  9 16  1  0  0  0  0
  9  4  1  0  0  0  0
 11 18  1  0  0  0  0
 14 15  1  0  0  0  0
 15 21  1  0  0  0  0
 15 11  2  0  0  0  0
 16 26  1  6  0  0  0
 16  7  1  0  0  0  0
 17  3  1  0  0  0  0
 18 12  2  0  0  0  0
 19 20  1  0  0  0  0
 20 22  2  0  0  0  0
 21 24  2  0  0  0  0
 23 19  2  0  0  0  0
 23 21  1  0  0  0  0
 24 22  1  0  0  0  0
 25 19  1  0  0  0  0
 27 26  1  0  0  0  0
 29 28  1  6  0  0  0
 29 27  1  0  0  0  0
 30 34  1  0  0  0  0
 30 29  1  1  0  0  0
 32 33  1  0  0  0  0
 32 31  1  0  0  0  0
 33 30  1  0  0  0  0
 34 31  1  0  0  0  0
M  END
>  <MODEL>
8

>  <REMARK>
 VINA RESULT:      -9.3      1.432      1.722
  Name = 
  5 active torsions:
  status: ('A' for Active; 'I' for Inactive)
    1  A    between atoms: N_3  and  C_13
    2  A    between atoms: N_3  and  C_17
    3  A    between atoms: C_12  and  C_28
    4  A    between atoms: C_13  and  C_14
    5  A    between atoms: C_17  and  C_29
                            x       y       z     vdW  Elec       q    Type
                         _______ _______ _______ _____ _____    ______ ____

>  <TORSDO>
F 5

$$$$
=
 OpenBabel10262423493D

 34 39  0  0  1  0  0  0  0  0999 V2000
  185.0330  179.0260  141.1770 C   0  0  0  0  0  0  0  0  0  0  0  0
  186.0000  178.3050  138.9570 C   0  0  0  0  0  2  0  0  0  0  0  0
  187.2600  178.0110  141.1580 C   0  0  0  0  0  0  0  0  0  0  0  0
  189.4530  176.8560  141.2220 C   0  0  0  0  0  0  0  0  0  0  0  0
  183.8450  179.4970  139.1400 C   0  0  0  0  0  3  0  0  0  0  0  0
  184.7870  178.9630  138.3660 C   0  0  0  0  0  3  0  0  0  0  0  0
  188.7970  177.4520  139.0820 C   0  0  1  0  0  3  0  0  0  0  0  0
  186.1180  178.4770  140.4550 C   0  0  0  0  0  0  0  0  0  0  0  0
  190.4790  176.3160  140.4180 N   0  0  0  0  0  2  0  0  0  0  0  0
  183.9830  179.4900  140.5650 N   0  0  0  0  0  0  0  0  0  0  0  0
  187.2820  178.0500  142.5820 C   0  0  0  0  0  0  0  0  0  0  0  0
  185.0760  179.0800  142.5670 C   0  0  0  0  0  3  0  0  0  0  0  0
  189.0870  178.8840  138.6370 C   0  0  0  0  0  1  0  0  0  0  0  0
  189.4650  176.8790  142.5480 C   0  0  0  0  0  3  0  0  0  0  0  0
  188.3430  177.5300  143.2760 C   0  0  0  0  0  0  0  0  0  0  0  0
  190.0530  176.5280  139.0370 C   0  0  2  0  0  3  0  0  0  0  0  0
  188.4130  177.4530  140.4890 N   0  0  0  0  0  0  0  0  0  0  0  0
  186.1780  178.5910  143.2590 C   0  0  0  0  0  3  0  0  0  0  0  0
  189.7420  177.3930  146.8090 C   0  0  0  0  0  0  0  0  0  0  0  0
  188.5750  177.5240  147.5670 C   0  0  0  0  0  3  0  0  0  0  0  0
  188.4380  177.5520  144.7600 C   0  0  0  0  0  0  0  0  0  0  0  0
  187.3410  177.6610  146.9280 C   0  0  0  0  0  3  0  0  0  0  0  0
  189.6730  177.4010  145.4140 C   0  0  0  0  0  3  0  0  0  0  0  0
  187.2730  177.6700  145.5320 C   0  0  0  0  0  3  0  0  0  0  0  0
  190.9390  177.2540  147.4280 F   0  0  0  0  0  0  0  0  0  0  0  0
  191.2140  176.9630  138.1410 C   0  0  0  0  0  2  0  0  0  0  0  0
  191.9610  175.8130  137.6520 N   0  0  0  0  0  2  0  0  0  0  0  0
  193.8600  176.5160  138.7970 O   0  0  0  0  0  1  0  0  0  0  0  0
  193.3500  176.2270  137.5280 C   0  0  1  0  0  3  0  0  0  0  0  0
  194.1700  175.1150  136.8810 C   0  0  1  0  0  3  0  0  0  0  0  0
  195.3620  172.9520  138.1130 S   0  0  0  0  0  0  0  0  0  0  0  0
  196.4390  173.9240  136.5780 S   0  0  0  0  0  0  0  0  0  0  0  0
  195.5940  175.4130  136.9840 N   0  0  0  0  0  2  0  0  0  0  0  0
  193.8480  173.7650  137.5290 C   0  0  0  0  0  2  0  0  0  0  0  0
  1 12  1  0  0  0  0
  2  8  1  0  0  0  0
  3 11  1  0  0  0  0
  4 14  2  0  0  0  0
  5 10  1  0  0  0  0
  6  2  1  0  0  0  0
  6  5  2  0  0  0  0
  7 13  1  1  0  0  0
  7 17  1  0  0  0  0
  8  3  2  0  0  0  0
  8  1  1  0  0  0  0
  9  4  1  0  0  0  0
 10  1  2  0  0  0  0
 11 18  1  0  0  0  0
 11 15  2  0  0  0  0
 12 18  2  0  0  0  0
 14 15  1  0  0  0  0
 15 21  1  0  0  0  0
 16 26  1  6  0  0  0
 16  7  1  0  0  0  0
 16  9  1  0  0  0  0
 17  3  1  0  0  0  0
 17  4  1  0  0  0  0
 19 25  1  0  0  0  0
 19 20  1  0  0  0  0
 21 23  1  0  0  0  0
 21 24  2  0  0  0  0
 22 20  2  0  0  0  0
 23 19  2  0  0  0  0
 24 22  1  0  0  0  0
 27 26  1  0  0  0  0
 29 27  1  0  0  0  0
 29 28  1  1  0  0  0
 30 33  1  0  0  0  0
 30 29  1  1  0  0  0
 30 34  1  0  0  0  0
 32 33  1  0  0  0  0
 32 31  1  0  0  0  0
 34 31  1  0  0  0  0
M  END
>  <MODEL>
9

>  <REMARK>
 VINA RESULT:      -9.3      3.820      6.151
  Name = 
  5 active torsions:
  status: ('A' for Active; 'I' for Inactive)
    1  A    between atoms: N_3  and  C_13
    2  A    between atoms: N_3  and  C_17
    3  A    between atoms: C_12  and  C_28
    4  A    between atoms: C_13  and  C_14
    5  A    between atoms: C_17  and  C_29
                            x       y       z     vdW  Elec       q    Type
                         _______ _______ _______ _____ _____    ______ ____

>  <TORSDO>
F 5

$$$$
