=
 OpenBabel10272400593D

 27 31  0  0  1  0  0  0  0  0999 V2000
  183.9150  178.1780  141.1570 C   0  0  0  0  0  2  0  0  0  0  0  0
  186.3750  178.3920  140.5600 C   0  0  0  0  0  0  0  0  0  0  0  0
  185.9350  178.1360  143.0920 C   0  0  0  0  0  2  0  0  0  0  0  0
  190.4020  177.9160  141.4740 N   0  0  0  0  0  2  0  0  0  0  0  0
  191.0980  176.4440  143.1000 C   0  0  0  0  0  1  0  0  0  0  0  0
  187.2950  178.4530  139.5420 N   0  0  0  0  0  0  0  0  0  0  0  0
  189.0140  177.7720  143.3160 C   0  0  2  0  0  3  0  0  0  0  0  0
  183.8360  178.7780  145.2270 C   0  0  0  0  0  2  0  0  0  0  0  0
  188.5330  176.5420  144.0910 C   0  0  0  0  0  1  0  0  0  0  0  0
  182.4550  178.8260  144.5890 C   0  0  0  0  0  2  0  0  0  0  0  0
  188.2110  177.9770  142.0730 C   0  0  0  0  0  0  0  0  0  0  0  0
  184.9770  178.5910  140.2420 N   0  0  0  0  0  0  0  0  0  0  0  0
  190.4450  177.7310  142.8700 N   0  0  0  0  0  0  0  0  0  0  0  0
  189.0720  178.0580  141.0370 C   0  0  0  0  0  0  0  0  0  0  0  0
  183.7440  179.1890  142.2920 C   0  0  1  0  0  3  0  0  0  0  0  0
  186.8350  178.1690  141.8930 C   0  0  0  0  0  0  0  0  0  0  0  0
  184.7580  179.7890  144.5690 C   0  0  0  0  0  2  0  0  0  0  0  0
  188.6340  178.2980  139.7450 C   0  0  0  0  0  3  0  0  0  0  0  0
  181.4340  178.7450  142.4840 O   0  0  0  0  0  0  0  0  0  0  0  0
  182.4880  178.8840  143.0840 C   0  0  0  0  0  0  0  0  0  0  0  0
  185.0330  179.3670  143.1300 C   0  0  1  0  0  3  0  0  0  0  0  0
  181.9610  178.2700  137.9140 C   0  0  0  0  0  2  0  0  0  0  0  0
  184.6250  179.0520  138.8940 C   0  0  0  0  0  3  0  0  0  0  0  0
  183.4470  180.0360  138.8890 C   0  0  0  0  0  2  0  0  0  0  0  0
  182.1020  179.3230  139.0070 C   0  0  0  0  0  2  0  0  0  0  0  0
  183.0700  177.2320  138.0500 C   0  0  0  0  0  2  0  0  0  0  0  0
  184.4380  177.8950  137.9020 C   0  0  0  0  0  2  0  0  0  0  0  0
  2 16  1  0  0  0  0
  4 13  1  0  0  0  0
  6 18  1  0  0  0  0
  6  2  2  0  0  0  0
  7  9  1  6  0  0  0
 10  8  1  0  0  0  0
 11  7  1  0  0  0  0
 12  2  1  0  0  0  0
 12  1  1  0  0  0  0
 13  5  1  0  0  0  0
 13  7  1  0  0  0  0
 14  4  1  0  0  0  0
 14 11  1  0  0  0  0
 15  1  1  6  0  0  0
 15 20  1  0  0  0  0
 15 21  1  0  0  0  0
 16 11  2  0  0  0  0
 16  3  1  0  0  0  0
 17  8  1  0  0  0  0
 18 14  2  0  0  0  0
 19 20  2  0  0  0  0
 20 10  1  0  0  0  0
 21  3  1  1  0  0  0
 21 17  1  0  0  0  0
 22 26  1  0  0  0  0
 22 25  1  0  0  0  0
 23 12  1  0  0  0  0
 24 23  1  0  0  0  0
 24 25  1  0  0  0  0
 27 26  1  0  0  0  0
 27 23  1  0  0  0  0
M  END
>  <MODEL>
1

>  <REMARK>
 VINA RESULT:      -8.6      0.000      0.000
  Name = 
  1 active torsions:
  status: ('A' for Active; 'I' for Inactive)
    1  A    between atoms: C_9  and  N_15
                            x       y       z     vdW  Elec       q    Type
                         _______ _______ _______ _____ _____    ______ ____

>  <TORSDO>
F 1

$$$$
=
 OpenBabel10272400593D

 27 31  0  0  1  0  0  0  0  0999 V2000
  189.2760  178.5100  140.2910 C   0  0  0  0  0  2  0  0  0  0  0  0
  186.7360  178.4800  140.3070 C   0  0  0  0  0  0  0  0  0  0  0  0
  187.7990  177.9810  142.6080 C   0  0  0  0  0  2  0  0  0  0  0  0
  183.1010  178.6660  142.3180 N   0  0  0  0  0  2  0  0  0  0  0  0
  182.9370  179.5960  144.4160 C   0  0  0  0  0  1  0  0  0  0  0  0
  185.5920  178.7210  139.5850 N   0  0  0  0  0  0  0  0  0  0  0  0
  184.9040  178.2630  143.7060 C   0  0  2  0  0  3  0  0  0  0  0  0
  190.3020  176.7410  143.8620 C   0  0  0  0  0  2  0  0  0  0  0  0
  185.6510  179.2110  144.6490 C   0  0  0  0  0  1  0  0  0  0  0  0
  191.4780  176.8820  142.9050 C   0  0  0  0  0  2  0  0  0  0  0  0
  185.3620  178.4320  142.2930 C   0  0  0  0  0  0  0  0  0  0  0  0
  187.9940  178.3840  139.6000 N   0  0  0  0  0  0  0  0  0  0  0  0
  183.4150  178.4330  143.6720 N   0  0  0  0  0  0  0  0  0  0  0  0
  184.2690  178.6600  141.5330 C   0  0  0  0  0  0  0  0  0  0  0  0
  189.6430  177.2100  141.0090 C   0  0  1  0  0  3  0  0  0  0  0  0
  186.6340  178.3020  141.7210 C   0  0  0  0  0  0  0  0  0  0  0  0
  189.1740  175.9680  143.2020 C   0  0  0  0  0  2  0  0  0  0  0  0
  184.3600  178.8090  140.1600 C   0  0  0  0  0  3  0  0  0  0  0  0
  191.9560  177.5790  140.7220 O   0  0  0  0  0  0  0  0  0  0  0  0
  191.0740  177.2690  141.5070 C   0  0  0  0  0  0  0  0  0  0  0  0
  188.5880  176.7930  142.0630 C   0  0  1  0  0  3  0  0  0  0  0  0
  189.4480  176.1220  136.8820 C   0  0  0  0  0  2  0  0  0  0  0  0
  187.9700  178.3400  138.1330 C   0  0  0  0  0  3  0  0  0  0  0  0
  187.2500  177.0990  137.5860 C   0  0  0  0  0  2  0  0  0  0  0  0
  188.1400  175.8580  137.6180 C   0  0  0  0  0  2  0  0  0  0  0  0
  190.1970  177.2690  137.5520 C   0  0  0  0  0  2  0  0  0  0  0  0
  189.3590  178.5450  137.5120 C   0  0  0  0  0  2  0  0  0  0  0  0
  2 16  1  0  0  0  0
  4 13  1  0  0  0  0
  6 18  1  0  0  0  0
  6  2  2  0  0  0  0
  7  9  1  1  0  0  0
 10  8  1  0  0  0  0
 11  7  1  0  0  0  0
 12  1  1  0  0  0  0
 12  2  1  0  0  0  0
 13  7  1  0  0  0  0
 13  5  1  0  0  0  0
 14 11  1  0  0  0  0
 14  4  1  0  0  0  0
 15  1  1  1  0  0  0
 15 20  1  0  0  0  0
 15 21  1  0  0  0  0
 16 11  2  0  0  0  0
 16  3  1  0  0  0  0
 17  8  1  0  0  0  0
 18 14  2  0  0  0  0
 19 20  2  0  0  0  0
 20 10  1  0  0  0  0
 21  3  1  1  0  0  0
 21 17  1  0  0  0  0
 22 26  1  0  0  0  0
 22 25  1  0  0  0  0
 23 12  1  0  0  0  0
 24 25  1  0  0  0  0
 24 23  1  0  0  0  0
 27 26  1  0  0  0  0
 27 23  1  0  0  0  0
M  END
>  <MODEL>
2

>  <REMARK>
 VINA RESULT:      -8.6      2.755      5.978
  Name = 
  1 active torsions:
  status: ('A' for Active; 'I' for Inactive)
    1  A    between atoms: C_9  and  N_15
                            x       y       z     vdW  Elec       q    Type
                         _______ _______ _______ _____ _____    ______ ____

>  <TORSDO>
F 1

$$$$
=
 OpenBabel10272400593D

 27 31  0  0  1  0  0  0  0  0999 V2000
  187.4090  178.3870  145.5110 C   0  0  0  0  0  2  0  0  0  0  0  0
  189.0150  177.0220  144.0910 C   0  0  0  0  0  0  0  0  0  0  0  0
  187.1830  178.2280  142.7260 C   0  0  0  0  0  2  0  0  0  0  0  0
  190.7690  176.1020  140.4360 N   0  0  0  0  0  2  0  0  0  0  0  0
  190.7700  177.6040  138.6930 C   0  0  0  0  0  1  0  0  0  0  0  0
  190.1670  176.2750  144.0810 N   0  0  0  0  0  0  0  0  0  0  0  0
  188.8490  177.3730  140.2440 C   0  0  2  0  0  3  0  0  0  0  0  0
  184.2900  179.2040  142.9540 C   0  0  0  0  0  2  0  0  0  0  0  0
  188.6830  178.8690  139.9640 C   0  0  0  0  0  1  0  0  0  0  0  0
  183.9680  179.5150  144.4090 C   0  0  0  0  0  2  0  0  0  0  0  0
  189.1660  177.1230  141.6830 C   0  0  0  0  0  0  0  0  0  0  0  0
  188.3900  177.3120  145.3630 N   0  0  0  0  0  0  0  0  0  0  0  0
  189.9330  176.6890  139.4660 N   0  0  0  0  0  0  0  0  0  0  0  0
  190.2900  176.3760  141.7300 C   0  0  0  0  0  0  0  0  0  0  0  0
  186.0360  177.9510  144.9970 C   0  0  1  0  0  3  0  0  0  0  0  0
  188.4620  177.4550  142.8470 C   0  0  0  0  0  0  0  0  0  0  0  0
  184.7200  177.7560  142.8060 C   0  0  0  0  0  2  0  0  0  0  0  0
  190.8170  175.9340  142.9320 C   0  0  0  0  0  3  0  0  0  0  0  0
  184.9030  179.3230  146.5470 O   0  0  0  0  0  0  0  0  0  0  0  0
  184.9820  178.9720  145.3810 C   0  0  0  0  0  0  0  0  0  0  0  0
  186.0590  177.5470  143.5030 C   0  0  1  0  0  3  0  0  0  0  0  0
  189.2650  178.3090  148.9490 C   0  0  0  0  0  2  0  0  0  0  0  0
  188.8910  176.6280  146.5610 C   0  0  0  0  0  3  0  0  0  0  0  0
  187.8770  176.6270  147.7140 C   0  0  0  0  0  2  0  0  0  0  0  0
  187.8630  177.9560  148.4670 C   0  0  0  0  0  2  0  0  0  0  0  0
  190.2040  178.4430  147.7560 C   0  0  0  0  0  2  0  0  0  0  0  0
  190.2790  177.1230  146.9890 C   0  0  0  0  0  2  0  0  0  0  0  0
  2 12  1  0  0  0  0
  3 16  1  0  0  0  0
  4 14  1  0  0  0  0
  5 13  1  0  0  0  0
  6  2  1  0  0  0  0
  7  9  1  1  0  0  0
  7 11  1  0  0  0  0
  8 10  1  0  0  0  0
 10 20  1  0  0  0  0
 11 14  2  0  0  0  0
 11 16  1  0  0  0  0
 12  1  1  0  0  0  0
 12 23  1  0  0  0  0
 13  7  1  0  0  0  0
 13  4  1  0  0  0  0
 14 18  1  0  0  0  0
 15 20  1  0  0  0  0
 15  1  1  6  0  0  0
 16  2  2  0  0  0  0
 17  8  1  0  0  0  0
 17 21  1  0  0  0  0
 18  6  2  0  0  0  0
 20 19  2  0  0  0  0
 21  3  1  6  0  0  0
 21 15  1  0  0  0  0
 23 27  1  0  0  0  0
 23 24  1  0  0  0  0
 24 25  1  0  0  0  0
 25 22  1  0  0  0  0
 26 22  1  0  0  0  0
 27 26  1  0  0  0  0
M  END
>  <MODEL>
3

>  <REMARK>
 VINA RESULT:      -8.0      2.950      6.263
  Name = 
  1 active torsions:
  status: ('A' for Active; 'I' for Inactive)
    1  A    between atoms: C_9  and  N_15
                            x       y       z     vdW  Elec       q    Type
                         _______ _______ _______ _____ _____    ______ ____

>  <TORSDO>
F 1

$$$$
=
 OpenBabel10272400593D

 27 31  0  0  1  0  0  0  0  0999 V2000
  188.8660  176.4800  142.3920 C   0  0  0  0  0  2  0  0  0  0  0  0
  187.3190  177.6500  144.0320 C   0  0  0  0  0  0  0  0  0  0  0  0
  186.5490  177.8160  141.5720 C   0  0  0  0  0  2  0  0  0  0  0  0
  183.6310  179.2930  145.0260 N   0  0  0  0  0  2  0  0  0  0  0  0
  181.7170  178.7240  143.8840 C   0  0  0  0  0  1  0  0  0  0  0  0
  187.0350  177.8860  145.3550 N   0  0  0  0  0  0  0  0  0  0  0  0
  183.9130  178.9620  142.7570 C   0  0  2  0  0  3  0  0  0  0  0  0
  187.6660  177.9030  138.7220 C   0  0  0  0  0  2  0  0  0  0  0  0
  183.3530  177.8660  141.8450 C   0  0  0  0  0  1  0  0  0  0  0  0
  188.9960  177.1650  138.6710 C   0  0  0  0  0  2  0  0  0  0  0  0
  185.1140  178.4830  143.5060 C   0  0  0  0  0  0  0  0  0  0  0  0
  188.6150  177.1080  143.6890 N   0  0  0  0  0  0  0  0  0  0  0  0
  182.9650  179.4780  143.7980 N   0  0  0  0  0  0  0  0  0  0  0  0
  184.8930  178.7060  144.8190 C   0  0  0  0  0  0  0  0  0  0  0  0
  189.0780  177.5330  141.3030 C   0  0  1  0  0  3  0  0  0  0  0  0
  186.3370  177.9770  143.0480 C   0  0  0  0  0  0  0  0  0  0  0  0
  187.7300  179.0390  139.7270 C   0  0  0  0  0  2  0  0  0  0  0  0
  185.8500  178.4120  145.7750 C   0  0  0  0  0  3  0  0  0  0  0  0
  190.5490  176.1400  140.0930 O   0  0  0  0  0  0  0  0  0  0  0  0
  189.5800  176.8800  140.0300 C   0  0  0  0  0  0  0  0  0  0  0  0
  187.8570  178.4690  141.1340 C   0  0  1  0  0  3  0  0  0  0  0  0
  192.1650  178.4390  144.1800 C   0  0  0  0  0  2  0  0  0  0  0  0
  189.6410  177.0300  144.7350 C   0  0  0  0  0  3  0  0  0  0  0  0
  189.9560  178.3940  145.3630 C   0  0  0  0  0  2  0  0  0  0  0  0
  190.8960  179.2240  144.4910 C   0  0  0  0  0  2  0  0  0  0  0  0
  191.8120  177.1630  143.4270 C   0  0  0  0  0  2  0  0  0  0  0  0
  190.8990  176.2800  144.2760 C   0  0  0  0  0  2  0  0  0  0  0  0
  1 12  1  0  0  0  0
  2  6  1  0  0  0  0
  3 16  1  0  0  0  0
  6 18  2  0  0  0  0
  7  9  1  1  0  0  0
  7 11  1  0  0  0  0
  7 13  1  0  0  0  0
  8 17  1  0  0  0  0
 10  8  1  0  0  0  0
 10 20  1  0  0  0  0
 11 14  2  0  0  0  0
 12  2  1  0  0  0  0
 12 23  1  0  0  0  0
 13  5  1  0  0  0  0
 13  4  1  0  0  0  0
 14  4  1  0  0  0  0
 14 18  1  0  0  0  0
 15  1  1  1  0  0  0
 16 11  1  0  0  0  0
 16  2  2  0  0  0  0
 20 19  2  0  0  0  0
 20 15  1  0  0  0  0
 21 17  1  6  0  0  0
 21 15  1  0  0  0  0
 21  3  1  0  0  0  0
 22 25  1  0  0  0  0
 23 24  1  0  0  0  0
 25 24  1  0  0  0  0
 26 22  1  0  0  0  0
 26 27  1  0  0  0  0
 27 23  1  0  0  0  0
M  END
>  <MODEL>
4

>  <REMARK>
 VINA RESULT:      -7.9      3.003      7.300
  Name = 
  1 active torsions:
  status: ('A' for Active; 'I' for Inactive)
    1  A    between atoms: C_9  and  N_15
                            x       y       z     vdW  Elec       q    Type
                         _______ _______ _______ _____ _____    ______ ____

>  <TORSDO>
F 1

$$$$
=
 OpenBabel10272400593D

 27 31  0  0  1  0  0  0  0  0999 V2000
  187.9700  176.8720  144.6620 C   0  0  0  0  0  2  0  0  0  0  0  0
  186.8430  177.8100  142.5870 C   0  0  0  0  0  0  0  0  0  0  0  0
  189.4190  177.7170  142.4220 C   0  0  0  0  0  2  0  0  0  0  0  0
  186.8780  178.7880  138.5470 N   0  0  0  0  0  2  0  0  0  0  0  0
  188.3750  177.8220  137.0910 C   0  0  0  0  0  1  0  0  0  0  0  0
  185.6470  178.0510  141.9550 N   0  0  0  0  0  0  0  0  0  0  0  0
  188.9820  178.4100  139.4230 C   0  0  2  0  0  3  0  0  0  0  0  0
  191.9300  177.8760  144.1670 C   0  0  0  0  0  2  0  0  0  0  0  0
  189.8970  177.1880  139.2940 C   0  0  0  0  0  1  0  0  0  0  0  0
  191.6070  177.3960  145.5750 C   0  0  0  0  0  2  0  0  0  0  0  0
  187.9360  178.1960  140.4690 C   0  0  0  0  0  0  0  0  0  0  0  0
  186.8290  177.5020  144.0010 N   0  0  0  0  0  0  0  0  0  0  0  0
  188.2380  178.7890  138.1780 N   0  0  0  0  0  0  0  0  0  0  0  0
  186.7350  178.4350  139.9010 C   0  0  0  0  0  0  0  0  0  0  0  0
  189.0710  177.8940  144.9510 C   0  0  1  0  0  3  0  0  0  0  0  0
  188.0530  177.9050  141.8340 C   0  0  0  0  0  0  0  0  0  0  0  0
  191.0430  179.0510  143.7920 C   0  0  0  0  0  2  0  0  0  0  0  0
  185.5610  178.3680  140.6320 C   0  0  0  0  0  3  0  0  0  0  0  0
  189.7800  176.7430  146.8850 O   0  0  0  0  0  0  0  0  0  0  0  0
  190.1300  177.2880  145.8500 C   0  0  0  0  0  0  0  0  0  0  0  0
  189.6000  178.5800  143.6680 C   0  0  1  0  0  3  0  0  0  0  0  0
  185.6350  179.5380  147.0080 C   0  0  0  0  0  2  0  0  0  0  0  0
  185.5710  177.6630  144.7390 C   0  0  0  0  0  3  0  0  0  0  0  0
  184.9930  179.0810  144.6290 C   0  0  0  0  0  2  0  0  0  0  0  0
  185.6850  180.0590  145.5760 C   0  0  0  0  0  2  0  0  0  0  0  0
  186.3500  178.1950  147.0960 C   0  0  0  0  0  2  0  0  0  0  0  0
  185.6690  177.1710  146.1900 C   0  0  0  0  0  2  0  0  0  0  0  0
  2 12  1  0  0  0  0
  4 14  1  0  0  0  0
  5 13  1  0  0  0  0
  6  2  1  0  0  0  0
  7  9  1  6  0  0  0
  7 11  1  0  0  0  0
  8 10  1  0  0  0  0
 10 20  1  0  0  0  0
 11 16  1  0  0  0  0
 12  1  1  0  0  0  0
 12 23  1  0  0  0  0
 13  4  1  0  0  0  0
 13  7  1  0  0  0  0
 14 11  2  0  0  0  0
 14 18  1  0  0  0  0
 15  1  1  6  0  0  0
 15 20  1  0  0  0  0
 16  3  1  0  0  0  0
 16  2  2  0  0  0  0
 17  8  1  0  0  0  0
 18  6  2  0  0  0  0
 20 19  2  0  0  0  0
 21  3  1  6  0  0  0
 21 17  1  0  0  0  0
 21 15  1  0  0  0  0
 22 26  1  0  0  0  0
 23 27  1  0  0  0  0
 24 23  1  0  0  0  0
 24 25  1  0  0  0  0
 25 22  1  0  0  0  0
 27 26  1  0  0  0  0
M  END
>  <MODEL>
5

>  <REMARK>
 VINA RESULT:      -7.8      2.993      6.206
  Name = 
  1 active torsions:
  status: ('A' for Active; 'I' for Inactive)
    1  A    between atoms: C_9  and  N_15
                            x       y       z     vdW  Elec       q    Type
                         _______ _______ _______ _____ _____    ______ ____

>  <TORSDO>
F 1

$$$$
=
 OpenBabel10272400593D

 27 31  0  0  1  0  0  0  0  0999 V2000
  187.5870  177.5680  142.4140 C   0  0  0  0  0  2  0  0  0  0  0  0
  187.7240  178.1340  139.9410 C   0  0  0  0  0  0  0  0  0  0  0  0
  189.7960  176.8790  140.8400 C   0  0  0  0  0  2  0  0  0  0  0  0
  189.3400  177.5570  136.1540 N   0  0  0  0  0  2  0  0  0  0  0  0
  190.4220  175.6040  135.5960 C   0  0  0  0  0  1  0  0  0  0  0  0
  187.0550  178.6390  138.8530 N   0  0  0  0  0  0  0  0  0  0  0  0
  190.6040  176.6250  137.8490 C   0  0  2  0  0  3  0  0  0  0  0  0
  191.4420  176.5150  143.3960 C   0  0  0  0  0  2  0  0  0  0  0  0
  190.7290  175.1640  138.2940 C   0  0  0  0  0  1  0  0  0  0  0  0
  190.5540  176.7350  144.6120 C   0  0  0  0  0  2  0  0  0  0  0  0
  189.3710  177.2580  138.4070 C   0  0  0  0  0  0  0  0  0  0  0  0
  187.1750  178.3650  141.2590 N   0  0  0  0  0  0  0  0  0  0  0  0
  190.5350  176.8400  136.3670 N   0  0  0  0  0  0  0  0  0  0  0  0
  188.6790  177.7860  137.3750 C   0  0  0  0  0  0  0  0  0  0  0  0
  188.9380  178.0410  142.9530 C   0  0  1  0  0  3  0  0  0  0  0  0
  188.9490  177.4290  139.7310 C   0  0  0  0  0  0  0  0  0  0  0  0
  191.4470  177.7520  142.5150 C   0  0  0  0  0  2  0  0  0  0  0  0
  187.5030  178.4900  137.5740 C   0  0  0  0  0  3  0  0  0  0  0  0
  188.3890  177.4320  145.1660 O   0  0  0  0  0  0  0  0  0  0  0  0
  189.2330  177.3810  144.2860 C   0  0  0  0  0  0  0  0  0  0  0  0
  190.0670  177.9450  141.8990 C   0  0  1  0  0  3  0  0  0  0  0  0
  183.5660  178.1770  142.5060 C   0  0  0  0  0  2  0  0  0  0  0  0
  186.0510  179.2980  141.3950 C   0  0  0  0  0  3  0  0  0  0  0  0
  185.6450  179.5320  142.8570 C   0  0  0  0  0  2  0  0  0  0  0  0
  184.7800  178.3970  143.4010 C   0  0  0  0  0  2  0  0  0  0  0  0
  184.0210  177.8030  141.1000 C   0  0  0  0  0  2  0  0  0  0  0  0
  184.8620  178.9280  140.4980 C   0  0  0  0  0  2  0  0  0  0  0  0
  2 12  1  0  0  0  0
  4 13  1  0  0  0  0
  4 14  1  0  0  0  0
  5 13  1  0  0  0  0
  6  2  2  0  0  0  0
  7  9  1  6  0  0  0
  7 11  1  0  0  0  0
  8 10  1  0  0  0  0
 11 16  2  0  0  0  0
 12 23  1  0  0  0  0
 12  1  1  0  0  0  0
 13  7  1  0  0  0  0
 14 18  2  0  0  0  0
 14 11  1  0  0  0  0
 15  1  1  6  0  0  0
 15 20  1  0  0  0  0
 16  2  1  0  0  0  0
 16  3  1  0  0  0  0
 17  8  1  0  0  0  0
 18  6  1  0  0  0  0
 20 10  1  0  0  0  0
 20 19  2  0  0  0  0
 21  3  1  6  0  0  0
 21 17  1  0  0  0  0
 21 15  1  0  0  0  0
 22 25  1  0  0  0  0
 23 24  1  0  0  0  0
 24 25  1  0  0  0  0
 26 22  1  0  0  0  0
 27 26  1  0  0  0  0
 27 23  1  0  0  0  0
M  END
>  <MODEL>
6

>  <REMARK>
 VINA RESULT:      -7.6      2.645      5.259
  Name = 
  1 active torsions:
  status: ('A' for Active; 'I' for Inactive)
    1  A    between atoms: C_9  and  N_15
                            x       y       z     vdW  Elec       q    Type
                         _______ _______ _______ _____ _____    ______ ____

>  <TORSDO>
F 1

$$$$
=
 OpenBabel10272400593D

 27 31  0  0  1  0  0  0  0  0999 V2000
  187.3170  177.2610  139.2120 C   0  0  0  0  0  2  0  0  0  0  0  0
  189.5590  177.6300  140.3470 C   0  0  0  0  0  0  0  0  0  0  0  0
  187.5400  177.7960  141.9500 C   0  0  0  0  0  2  0  0  0  0  0  0
  191.9410  177.7730  143.7520 N   0  0  0  0  0  2  0  0  0  0  0  0
  191.3220  176.7080  145.6950 C   0  0  0  0  0  1  0  0  0  0  0  0
  190.9250  177.6030  140.2000 N   0  0  0  0  0  0  0  0  0  0  0  0
  189.6770  177.8170  144.2070 C   0  0  2  0  0  3  0  0  0  0  0  0
  184.5810  178.5840  141.9870 C   0  0  0  0  0  2  0  0  0  0  0  0
  188.7520  176.7050  144.7120 C   0  0  0  0  0  1  0  0  0  0  0  0
  183.9750  178.3630  140.6080 C   0  0  0  0  0  2  0  0  0  0  0  0
  189.9090  177.7020  142.7360 C   0  0  0  0  0  0  0  0  0  0  0  0
  188.7350  177.6130  139.1590 N   0  0  0  0  0  0  0  0  0  0  0  0
  191.0390  177.8520  144.8310 N   0  0  0  0  0  0  0  0  0  0  0  0
  191.2440  177.6850  142.5330 C   0  0  0  0  0  0  0  0  0  0  0  0
  186.4770  178.4380  139.7120 C   0  0  1  0  0  3  0  0  0  0  0  0
  189.0090  177.7070  141.6630 C   0  0  0  0  0  0  0  0  0  0  0  0
  185.7480  179.5520  141.9030 C   0  0  0  0  0  2  0  0  0  0  0  0
  191.7830  177.6360  141.2580 C   0  0  0  0  0  3  0  0  0  0  0  0
  184.6060  177.7870  138.4290 O   0  0  0  0  0  0  0  0  0  0  0  0
  185.0000  178.1480  139.5270 C   0  0  0  0  0  0  0  0  0  0  0  0
  186.8910  178.9070  141.1280 C   0  0  1  0  0  3  0  0  0  0  0  0
  187.6150  177.6690  135.5040 C   0  0  0  0  0  2  0  0  0  0  0  0
  189.3850  177.7780  137.8540 C   0  0  0  0  0  3  0  0  0  0  0  0
  188.9380  179.0520  137.1220 C   0  0  0  0  0  2  0  0  0  0  0  0
  187.5850  178.8750  136.4360 C   0  0  0  0  0  2  0  0  0  0  0  0
  187.9190  176.4060  136.3010 C   0  0  0  0  0  2  0  0  0  0  0  0
  189.2830  176.5210  136.9790 C   0  0  0  0  0  2  0  0  0  0  0  0
  2 16  1  0  0  0  0
  4 13  1  0  0  0  0
  6  2  2  0  0  0  0
  6 18  1  0  0  0  0
  7  9  1  1  0  0  0
  7 13  1  0  0  0  0
 10  8  1  0  0  0  0
 11  7  1  0  0  0  0
 12  1  1  0  0  0  0
 12  2  1  0  0  0  0
 13  5  1  0  0  0  0
 14 11  1  0  0  0  0
 14  4  1  0  0  0  0
 15  1  1  1  0  0  0
 15 21  1  0  0  0  0
 16  3  1  0  0  0  0
 16 11  2  0  0  0  0
 17  8  1  0  0  0  0
 18 14  2  0  0  0  0
 19 20  2  0  0  0  0
 20 15  1  0  0  0  0
 20 10  1  0  0  0  0
 21 17  1  1  0  0  0
 21  3  1  0  0  0  0
 22 26  1  0  0  0  0
 22 25  1  0  0  0  0
 23 12  1  0  0  0  0
 24 23  1  0  0  0  0
 25 24  1  0  0  0  0
 26 27  1  0  0  0  0
 27 23  1  0  0  0  0
M  END
>  <MODEL>
7

>  <REMARK>
 VINA RESULT:      -7.4      2.258      3.873
  Name = 
  1 active torsions:
  status: ('A' for Active; 'I' for Inactive)
    1  A    between atoms: C_9  and  N_15
                            x       y       z     vdW  Elec       q    Type
                         _______ _______ _______ _____ _____    ______ ____

>  <TORSDO>
F 1

$$$$
=
 OpenBabel10272400593D

 27 31  0  0  1  0  0  0  0  0999 V2000
  189.5240  176.9010  140.4660 C   0  0  0  0  0  2  0  0  0  0  0  0
  187.4480  178.2120  141.1150 C   0  0  0  0  0  0  0  0  0  0  0  0
  187.6200  177.7200  138.5850 C   0  0  0  0  0  2  0  0  0  0  0  0
  183.5990  179.5710  140.3250 N   0  0  0  0  0  2  0  0  0  0  0  0
  182.2510  178.5250  138.7810 C   0  0  0  0  0  1  0  0  0  0  0  0
  186.6950  178.7060  142.1530 N   0  0  0  0  0  0  0  0  0  0  0  0
  184.6970  178.7710  138.4560 C   0  0  2  0  0  3  0  0  0  0  0  0
  189.6940  177.2950  136.3720 C   0  0  0  0  0  2  0  0  0  0  0  0
  184.5440  177.4360  137.7210 C   0  0  0  0  0  1  0  0  0  0  0  0
  190.9760  176.7350  136.9730 C   0  0  0  0  0  2  0  0  0  0  0  0
  185.5590  178.6260  139.6680 C   0  0  0  0  0  0  0  0  0  0  0  0
  188.7980  177.7710  141.3890 N   0  0  0  0  0  0  0  0  0  0  0  0
  183.4190  179.3880  138.9390 N   0  0  0  0  0  0  0  0  0  0  0  0
  184.8680  179.1120  140.7220 C   0  0  0  0  0  0  0  0  0  0  0  0
  190.0820  177.6980  139.2850 C   0  0  1  0  0  3  0  0  0  0  0  0
  186.8810  178.1840  139.8040 C   0  0  0  0  0  0  0  0  0  0  0  0
  189.3500  178.6290  137.0110 C   0  0  0  0  0  2  0  0  0  0  0  0
  185.4210  179.1630  141.9900 C   0  0  0  0  0  3  0  0  0  0  0  0
  191.9390  176.2590  139.0530 O   0  0  0  0  0  0  0  0  0  0  0  0
  191.0350  176.8400  138.4740 C   0  0  0  0  0  0  0  0  0  0  0  0
  188.9760  178.4130  138.4730 C   0  0  1  0  0  3  0  0  0  0  0  0
  191.5450  176.2760  143.5880 C   0  0  0  0  0  2  0  0  0  0  0  0
  189.3750  178.0600  142.7070 C   0  0  0  0  0  3  0  0  0  0  0  0
  190.8480  178.4850  142.6320 C   0  0  0  0  0  2  0  0  0  0  0  0
  191.7840  177.2890  142.4750 C   0  0  0  0  0  2  0  0  0  0  0  0
  190.1070  175.7730  143.5300 C   0  0  0  0  0  2  0  0  0  0  0  0
  189.1310  176.9320  143.7200 C   0  0  0  0  0  2  0  0  0  0  0  0
  1 12  1  0  0  0  0
  2 12  1  0  0  0  0
  2  6  1  0  0  0  0
  3 16  1  0  0  0  0
  4 14  1  0  0  0  0
  5 13  1  0  0  0  0
  7  9  1  1  0  0  0
  7 13  1  0  0  0  0
  7 11  1  0  0  0  0
  8 10  1  0  0  0  0
  8 17  1  0  0  0  0
 10 20  1  0  0  0  0
 11 16  1  0  0  0  0
 11 14  2  0  0  0  0
 12 23  1  0  0  0  0
 13  4  1  0  0  0  0
 14 18  1  0  0  0  0
 15  1  1  1  0  0  0
 16  2  2  0  0  0  0
 18  6  2  0  0  0  0
 20 19  2  0  0  0  0
 20 15  1  0  0  0  0
 21 17  1  6  0  0  0
 21  3  1  0  0  0  0
 21 15  1  0  0  0  0
 23 27  1  0  0  0  0
 24 23  1  0  0  0  0
 25 24  1  0  0  0  0
 25 22  1  0  0  0  0
 26 22  1  0  0  0  0
 26 27  1  0  0  0  0
M  END
>  <MODEL>
8

>  <REMARK>
 VINA RESULT:      -7.3      2.843      7.664
  Name = 
  1 active torsions:
  status: ('A' for Active; 'I' for Inactive)
    1  A    between atoms: C_9  and  N_15
                            x       y       z     vdW  Elec       q    Type
                         _______ _______ _______ _____ _____    ______ ____

>  <TORSDO>
F 1

$$$$
=
 OpenBabel10272400593D

 27 31  0  0  1  0  0  0  0  0999 V2000
  189.1930  176.7690  144.2310 C   0  0  0  0  0  2  0  0  0  0  0  0
  187.2530  178.0540  145.2500 C   0  0  0  0  0  0  0  0  0  0  0  0
  187.0870  177.7760  142.6870 C   0  0  0  0  0  2  0  0  0  0  0  0
  183.3730  179.5380  145.0790 N   0  0  0  0  0  2  0  0  0  0  0  0
  181.8110  178.6510  143.6420 C   0  0  0  0  0  1  0  0  0  0  0  0
  186.6520  178.4700  146.4130 N   0  0  0  0  0  0  0  0  0  0  0  0
  184.2010  178.8820  143.0250 C   0  0  2  0  0  3  0  0  0  0  0  0
  188.8490  177.5070  140.1970 C   0  0  0  0  0  2  0  0  0  0  0  0
  183.9190  177.6170  142.2080 C   0  0  0  0  0  1  0  0  0  0  0  0
  190.1810  176.8770  140.5780 C   0  0  0  0  0  2  0  0  0  0  0  0
  185.2060  178.6210  144.0990 C   0  0  0  0  0  0  0  0  0  0  0  0
  188.6140  177.5690  145.3090 N   0  0  0  0  0  0  0  0  0  0  0  0
  183.0130  179.4770  143.7180 N   0  0  0  0  0  0  0  0  0  0  0  0
  184.6690  179.0260  145.2690 C   0  0  0  0  0  0  0  0  0  0  0  0
  189.6170  177.6540  143.0570 C   0  0  1  0  0  3  0  0  0  0  0  0
  186.5230  178.1470  144.0260 C   0  0  0  0  0  0  0  0  0  0  0  0
  188.6260  178.7880  140.9830 C   0  0  0  0  0  2  0  0  0  0  0  0
  185.3810  178.9600  146.4550 C   0  0  0  0  0  3  0  0  0  0  0  0
  191.3880  176.2100  142.4700 O   0  0  0  0  0  0  0  0  0  0  0  0
  190.4340  176.8530  142.0630 C   0  0  0  0  0  0  0  0  0  0  0  0
  188.4350  178.4550  142.4570 C   0  0  1  0  0  3  0  0  0  0  0  0
  191.5530  175.8230  147.0210 C   0  0  0  0  0  2  0  0  0  0  0  0
  189.3620  177.7350  146.5610 C   0  0  0  0  0  3  0  0  0  0  0  0
  190.8300  178.1210  146.3310 C   0  0  0  0  0  2  0  0  0  0  0  0
  191.6910  176.9130  145.9650 C   0  0  0  0  0  2  0  0  0  0  0  0
  190.1010  175.3690  147.1090 C   0  0  0  0  0  2  0  0  0  0  0  0
  189.2020  176.5380  147.5090 C   0  0  0  0  0  2  0  0  0  0  0  0
  1 12  1  0  0  0  0
  2 12  1  0  0  0  0
  2  6  1  0  0  0  0
  3 16  1  0  0  0  0
  4 14  1  0  0  0  0
  5 13  1  0  0  0  0
  6 18  2  0  0  0  0
  7  9  1  1  0  0  0
  7 13  1  0  0  0  0
  7 11  1  0  0  0  0
  8 10  1  0  0  0  0
  8 17  1  0  0  0  0
 10 20  1  0  0  0  0
 11 14  2  0  0  0  0
 12 23  1  0  0  0  0
 13  4  1  0  0  0  0
 14 18  1  0  0  0  0
 15  1  1  1  0  0  0
 16 11  1  0  0  0  0
 16  2  2  0  0  0  0
 20 19  2  0  0  0  0
 20 15  1  0  0  0  0
 21 17  1  6  0  0  0
 21  3  1  0  0  0  0
 21 15  1  0  0  0  0
 22 26  1  0  0  0  0
 23 27  1  0  0  0  0
 24 23  1  0  0  0  0
 25 24  1  0  0  0  0
 25 22  1  0  0  0  0
 26 27  1  0  0  0  0
M  END
>  <MODEL>
9

>  <REMARK>
 VINA RESULT:      -7.2      3.397      7.911
  Name = 
  1 active torsions:
  status: ('A' for Active; 'I' for Inactive)
    1  A    between atoms: C_9  and  N_15
                            x       y       z     vdW  Elec       q    Type
                         _______ _______ _______ _____ _____    ______ ____

>  <TORSDO>
F 1

$$$$
