=
 OpenBabel10272415263D

 34 37  0  0  0  0  0  0  0  0999 V2000
  182.9600  177.9730  139.8150 C   0  0  0  0  0  0  0  0  0  0  0  0
  183.3510  177.8560  141.0930 C   0  0  0  0  0  3  0  0  0  0  0  0
  183.2050  174.8080  137.7000 C   0  0  0  0  0  3  0  0  0  0  0  0
  181.6430  175.3850  139.4240 O   0  0  0  0  0  1  0  0  0  0  0  0
  184.3290  175.0830  136.9180 C   0  0  0  0  0  0  0  0  0  0  0  0
  185.0050  176.2960  137.1020 C   0  0  0  0  0  3  0  0  0  0  0  0
  182.7470  175.7250  138.6510 C   0  0  0  0  0  0  0  0  0  0  0  0
  184.5540  177.2200  138.0460 C   0  0  0  0  0  3  0  0  0  0  0  0
  183.4170  176.9570  138.8290 C   0  0  0  0  0  0  0  0  0  0  0  0
  185.6510  173.0850  136.0920 C   0  0  0  0  0  0  0  0  0  0  0  0
  185.8870  172.2550  135.0480 F   0  0  0  0  0  0  0  0  0  0  0  0
  186.4130  172.8550  137.3540 C   0  0  0  0  0  1  0  0  0  0  0  0
  184.7530  174.0640  135.9350 C   0  0  0  0  0  3  0  0  0  0  0  0
  184.1590  180.4810  138.9800 O   0  0  0  0  0  1  0  0  0  0  0  0
  182.7750  180.3440  138.9630 C   0  0  0  0  0  0  0  0  0  0  0  0
  180.5950  181.3220  138.5560 C   0  0  0  0  0  3  0  0  0  0  0  0
  181.9880  181.4250  138.5550 C   0  0  0  0  0  3  0  0  0  0  0  0
  180.7640  179.0520  139.3760 C   0  0  0  0  0  3  0  0  0  0  0  0
  182.1630  179.1410  139.3670 C   0  0  0  0  0  0  0  0  0  0  0  0
  179.9830  180.1370  138.9690 C   0  0  0  0  0  3  0  0  0  0  0  0
  183.0320  178.8520  142.1630 C   0  0  0  0  0  2  0  0  0  0  0  0
  184.3720  178.8020  145.7040 C   0  0  0  0  0  3  0  0  0  0  0  0
  185.2400  178.1640  143.1140 C   0  0  0  0  0  3  0  0  0  0  0  0
  187.8110  177.6060  146.3950 C   0  0  0  0  0  0  0  0  0  0  0  0
  186.5190  178.1120  146.5930 C   0  0  0  0  0  3  0  0  0  0  0  0
  185.6610  178.2990  145.5060 C   0  0  0  0  0  0  0  0  0  0  0  0
  187.3850  177.4720  144.0040 C   0  0  0  0  0  3  0  0  0  0  0  0
  186.0980  177.9770  144.2010 C   0  0  0  0  0  0  0  0  0  0  0  0
  188.2370  177.2890  145.0960 C   0  0  0  0  0  3  0  0  0  0  0  0
  183.9520  178.6720  143.3190 C   0  0  0  0  0  0  0  0  0  0  0  0
  183.5180  178.9860  144.6120 C   0  0  0  0  0  3  0  0  0  0  0  0
  188.4060  177.8690  148.6780 O   0  0  0  0  0  1  0  0  0  0  0  0
  188.7100  177.4120  147.5430 C   0  0  0  0  0  0  0  0  0  0  0  0
  189.9050  176.7190  147.3880 O   0  0  0  0  0  0  0  0  0  0  0  0
  1  2  2  0  0  0  0
  2 21  1  0  0  0  0
  3  7  1  0  0  0  0
  5  6  1  0  0  0  0
  5  3  2  0  0  0  0
  6  8  2  0  0  0  0
  7  9  2  0  0  0  0
  7  4  1  0  0  0  0
  8  9  1  0  0  0  0
  9  1  1  0  0  0  0
 10 12  1  0  0  0  0
 11 10  1  0  0  0  0
 13 10  2  0  0  0  0
 13  5  1  0  0  0  0
 15 14  1  0  0  0  0
 15 19  1  0  0  0  0
 16 20  2  0  0  0  0
 17 16  1  0  0  0  0
 17 15  2  0  0  0  0
 19 18  2  0  0  0  0
 19  1  1  0  0  0  0
 20 18  1  0  0  0  0
 21 30  1  0  0  0  0
 23 30  2  0  0  0  0
 23 28  1  0  0  0  0
 24 25  1  0  0  0  0
 24 33  1  0  0  0  0
 26 22  1  0  0  0  0
 26 25  2  0  0  0  0
 27 28  2  0  0  0  0
 27 29  1  0  0  0  0
 28 26  1  0  0  0  0
 29 24  2  0  0  0  0
 30 31  1  0  0  0  0
 31 22  2  0  0  0  0
 33 32  1  0  0  0  0
 34 33  2  0  0  0  0
M  END
>  <MODEL>
1

>  <REMARK>
 VINA RESULT:      -9.7      0.000      0.000
  Name = 
  6 active torsions:
  status: ('A' for Active; 'I' for Inactive)
    1  A    between atoms: C_1  and  C_20
    2  A    between atoms: C_1  and  C_34
    3  A    between atoms: C_7  and  C_15
    4  A    between atoms: C_9  and  C_18
    5  A    between atoms: C_18  and  C_30
    6  A    between atoms: C_23  and  C_25
                            x       y       z     vdW  Elec       q    Type
                         _______ _______ _______ _____ _____    ______ ____

>  <TORSDO>
F 6

$$$$
=
 OpenBabel10272415263D

 34 37  0  0  0  0  0  0  0  0999 V2000
  183.2970  178.1150  139.6680 C   0  0  0  0  0  0  0  0  0  0  0  0
  183.7070  177.9570  140.9350 C   0  0  0  0  0  3  0  0  0  0  0  0
  185.7510  176.8680  137.0280 C   0  0  0  0  0  3  0  0  0  0  0  0
  185.8370  178.8330  138.3980 O   0  0  0  0  0  1  0  0  0  0  0  0
  185.1160  175.7050  136.5860 C   0  0  0  0  0  0  0  0  0  0  0  0
  183.8830  175.3500  137.1460 C   0  0  0  0  0  3  0  0  0  0  0  0
  185.1770  177.6700  138.0190 C   0  0  0  0  0  0  0  0  0  0  0  0
  183.3030  176.1400  138.1390 C   0  0  0  0  0  3  0  0  0  0  0  0
  183.9400  177.3060  138.5980 C   0  0  0  0  0  0  0  0  0  0  0  0
  186.5140  173.7980  135.6750 C   0  0  0  0  0  0  0  0  0  0  0  0
  187.0400  173.2280  134.5650 F   0  0  0  0  0  0  0  0  0  0  0  0
  186.7850  173.1470  136.9910 C   0  0  0  0  0  1  0  0  0  0  0  0
  185.7850  174.9100  135.5340 C   0  0  0  0  0  3  0  0  0  0  0  0
  180.4380  177.6460  139.8420 O   0  0  0  0  0  1  0  0  0  0  0  0
  180.9040  178.8850  139.4180 C   0  0  0  0  0  0  0  0  0  0  0  0
  180.4250  181.1230  138.6180 C   0  0  0  0  0  3  0  0  0  0  0  0
  179.9820  179.8780  139.0730 C   0  0  0  0  0  3  0  0  0  0  0  0
  182.7190  180.3900  138.8500 C   0  0  0  0  0  3  0  0  0  0  0  0
  182.2860  179.1430  139.3190 C   0  0  0  0  0  0  0  0  0  0  0  0
  181.7930  181.3770  138.5040 C   0  0  0  0  0  3  0  0  0  0  0  0
  183.2030  178.7650  142.0890 C   0  0  0  0  0  2  0  0  0  0  0  0
  184.4960  178.7640  145.6480 C   0  0  0  0  0  3  0  0  0  0  0  0
  185.4070  178.1160  143.0750 C   0  0  0  0  0  3  0  0  0  0  0  0
  187.9410  177.6220  146.3950 C   0  0  0  0  0  0  0  0  0  0  0  0
  186.6400  178.1110  146.5710 C   0  0  0  0  0  3  0  0  0  0  0  0
  185.7940  178.2780  145.4710 C   0  0  0  0  0  0  0  0  0  0  0  0
  187.5490  177.4620  143.9990 C   0  0  0  0  0  3  0  0  0  0  0  0
  186.2530  177.9500  144.1750 C   0  0  0  0  0  0  0  0  0  0  0  0
  188.3890  177.2990  145.1040 C   0  0  0  0  0  3  0  0  0  0  0  0
  184.1100  178.6080  143.2580 C   0  0  0  0  0  0  0  0  0  0  0  0
  183.6550  178.9270  144.5430 C   0  0  0  0  0  3  0  0  0  0  0  0
  188.6070  178.0760  148.6270 O   0  0  0  0  0  1  0  0  0  0  0  0
  188.8270  177.4490  147.5560 C   0  0  0  0  0  0  0  0  0  0  0  0
  189.9180  176.5910  147.4840 O   0  0  0  0  0  0  0  0  0  0  0  0
  1  2  2  0  0  0  0
  2 21  1  0  0  0  0
  3  7  1  0  0  0  0
  5  3  2  0  0  0  0
  5  6  1  0  0  0  0
  6  8  2  0  0  0  0
  7  4  1  0  0  0  0
  7  9  2  0  0  0  0
  8  9  1  0  0  0  0
  9  1  1  0  0  0  0
 10 12  1  0  0  0  0
 11 10  1  0  0  0  0
 13 10  2  0  0  0  0
 13  5  1  0  0  0  0
 15 14  1  0  0  0  0
 16 17  1  0  0  0  0
 17 15  2  0  0  0  0
 18 19  2  0  0  0  0
 19 15  1  0  0  0  0
 19  1  1  0  0  0  0
 20 16  2  0  0  0  0
 20 18  1  0  0  0  0
 21 30  1  0  0  0  0
 23 30  2  0  0  0  0
 23 28  1  0  0  0  0
 24 25  1  0  0  0  0
 24 33  1  0  0  0  0
 26 22  1  0  0  0  0
 26 25  2  0  0  0  0
 27 28  2  0  0  0  0
 27 29  1  0  0  0  0
 28 26  1  0  0  0  0
 29 24  2  0  0  0  0
 30 31  1  0  0  0  0
 31 22  2  0  0  0  0
 33 32  1  0  0  0  0
 34 33  2  0  0  0  0
M  END
>  <MODEL>
2

>  <REMARK>
 VINA RESULT:      -9.4      0.834      1.810
  Name = 
  6 active torsions:
  status: ('A' for Active; 'I' for Inactive)
    1  A    between atoms: C_1  and  C_20
    2  A    between atoms: C_1  and  C_34
    3  A    between atoms: C_7  and  C_15
    4  A    between atoms: C_9  and  C_18
    5  A    between atoms: C_18  and  C_30
    6  A    between atoms: C_23  and  C_25
                            x       y       z     vdW  Elec       q    Type
                         _______ _______ _______ _____ _____    ______ ____

>  <TORSDO>
F 6

$$$$
=
 OpenBabel10272415263D

 34 37  0  0  0  0  0  0  0  0999 V2000
  189.7510  176.4570  138.3510 C   0  0  0  0  0  0  0  0  0  0  0  0
  189.7270  176.8180  139.6430 C   0  0  0  0  0  3  0  0  0  0  0  0
  192.2260  173.9580  136.8750 C   0  0  0  0  0  3  0  0  0  0  0  0
  189.9440  173.6490  137.5390 O   0  0  0  0  0  1  0  0  0  0  0  0
  193.3710  174.7470  136.7420 C   0  0  0  0  0  0  0  0  0  0  0  0
  193.3260  176.0850  137.1520 C   0  0  0  0  0  3  0  0  0  0  0  0
  191.0440  174.4870  137.4000 C   0  0  0  0  0  0  0  0  0  0  0  0
  192.1500  176.6250  137.6760 C   0  0  0  0  0  3  0  0  0  0  0  0
  190.9890  175.8420  137.8010 C   0  0  0  0  0  0  0  0  0  0  0  0
  195.5500  173.4550  136.8240 C   0  0  0  0  0  0  0  0  0  0  0  0
  196.5800  172.9540  136.1020 F   0  0  0  0  0  0  0  0  0  0  0  0
  195.5600  173.2400  138.3010 C   0  0  0  0  0  1  0  0  0  0  0  0
  194.5830  174.1160  136.1780 C   0  0  0  0  0  3  0  0  0  0  0  0
  189.4090  178.9950  136.9850 O   0  0  0  0  0  1  0  0  0  0  0  0
  188.4670  177.9880  136.8060 C   0  0  0  0  0  0  0  0  0  0  0  0
  186.3900  177.2390  135.8050 C   0  0  0  0  0  3  0  0  0  0  0  0
  187.3650  178.2250  135.9790 C   0  0  0  0  0  3  0  0  0  0  0  0
  187.6130  175.7690  137.2880 C   0  0  0  0  0  3  0  0  0  0  0  0
  188.6020  176.7470  137.4590 C   0  0  0  0  0  0  0  0  0  0  0  0
  186.5130  176.0130  136.4610 C   0  0  0  0  0  3  0  0  0  0  0  0
  188.5790  177.5200  140.2980 C   0  0  0  0  0  2  0  0  0  0  0  0
  190.2830  177.7900  143.6690 C   0  0  0  0  0  3  0  0  0  0  0  0
  187.6890  177.5190  142.6350 C   0  0  0  0  0  3  0  0  0  0  0  0
  188.2890  177.7400  146.7920 C   0  0  0  0  0  0  0  0  0  0  0  0
  189.3840  177.8010  145.9200 C   0  0  0  0  0  3  0  0  0  0  0  0
  189.1900  177.7270  144.5380 C   0  0  0  0  0  0  0  0  0  0  0  0
  186.7910  177.5330  144.8850 C   0  0  0  0  0  3  0  0  0  0  0  0
  187.8830  177.5920  144.0170 C   0  0  0  0  0  0  0  0  0  0  0  0
  186.9930  177.6060  146.2660 C   0  0  0  0  0  3  0  0  0  0  0  0
  188.7880  177.5770  141.7700 C   0  0  0  0  0  0  0  0  0  0  0  0
  190.0810  177.7170  142.2870 C   0  0  0  0  0  3  0  0  0  0  0  0
  187.6300  177.3720  149.0420 O   0  0  0  0  0  1  0  0  0  0  0  0
  188.4990  177.8180  148.2450 C   0  0  0  0  0  0  0  0  0  0  0  0
  189.6610  178.3850  148.7560 O   0  0  0  0  0  0  0  0  0  0  0  0
  1  2  2  0  0  0  0
  2 21  1  0  0  0  0
  3  7  1  0  0  0  0
  5  3  2  0  0  0  0
  5  6  1  0  0  0  0
  6  8  2  0  0  0  0
  7  4  1  0  0  0  0
  7  9  2  0  0  0  0
  8  9  1  0  0  0  0
  9  1  1  0  0  0  0
 10 12  1  0  0  0  0
 11 10  1  0  0  0  0
 13  5  1  0  0  0  0
 13 10  2  0  0  0  0
 15 14  1  0  0  0  0
 15 19  1  0  0  0  0
 16 17  1  0  0  0  0
 16 20  2  0  0  0  0
 17 15  2  0  0  0  0
 18 19  2  0  0  0  0
 19  1  1  0  0  0  0
 20 18  1  0  0  0  0
 21 30  1  0  0  0  0
 22 26  1  0  0  0  0
 23 28  1  0  0  0  0
 24 33  1  0  0  0  0
 25 24  2  0  0  0  0
 26 25  1  0  0  0  0
 27 29  2  0  0  0  0
 28 26  2  0  0  0  0
 28 27  1  0  0  0  0
 29 24  1  0  0  0  0
 30 31  1  0  0  0  0
 30 23  2  0  0  0  0
 31 22  2  0  0  0  0
 33 34  2  0  0  0  0
 33 32  1  0  0  0  0
M  END
>  <MODEL>
3

>  <REMARK>
 VINA RESULT:      -8.9      5.040      6.741
  Name = 
  6 active torsions:
  status: ('A' for Active; 'I' for Inactive)
    1  A    between atoms: C_1  and  C_20
    2  A    between atoms: C_1  and  C_34
    3  A    between atoms: C_7  and  C_15
    4  A    between atoms: C_9  and  C_18
    5  A    between atoms: C_18  and  C_30
    6  A    between atoms: C_23  and  C_25
                            x       y       z     vdW  Elec       q    Type
                         _______ _______ _______ _____ _____    ______ ____

>  <TORSDO>
F 6

$$$$
=
 OpenBabel10272415263D

 34 37  0  0  0  0  0  0  0  0999 V2000
  182.6960  177.8680  139.9260 C   0  0  0  0  0  0  0  0  0  0  0  0
  183.4510  177.7200  141.0260 C   0  0  0  0  0  3  0  0  0  0  0  0
  181.8590  174.7600  137.8780 C   0  0  0  0  0  3  0  0  0  0  0  0
  180.8430  175.5990  139.8800 O   0  0  0  0  0  1  0  0  0  0  0  0
  182.8240  174.8240  136.8700 C   0  0  0  0  0  0  0  0  0  0  0  0
  183.7490  175.8760  136.8800 C   0  0  0  0  0  3  0  0  0  0  0  0
  181.8030  175.7300  138.8840 C   0  0  0  0  0  0  0  0  0  0  0  0
  183.7000  176.8510  137.8770 C   0  0  0  0  0  3  0  0  0  0  0  0
  182.7250  176.8020  138.8880 C   0  0  0  0  0  0  0  0  0  0  0  0
  183.5610  172.6490  135.7990 C   0  0  0  0  0  0  0  0  0  0  0  0
  183.3940  171.8050  134.7530 F   0  0  0  0  0  0  0  0  0  0  0  0
  184.5680  172.2840  136.8380 C   0  0  0  0  0  1  0  0  0  0  0  0
  182.8200  173.7620  135.8420 C   0  0  0  0  0  3  0  0  0  0  0  0
  180.1590  178.4040  141.2290 O   0  0  0  0  0  1  0  0  0  0  0  0
  180.6900  179.3420  140.3510 C   0  0  0  0  0  0  0  0  0  0  0  0
  180.4810  181.4680  139.2050 C   0  0  0  0  0  3  0  0  0  0  0  0
  179.9820  180.5220  140.1040 C   0  0  0  0  0  3  0  0  0  0  0  0
  182.4030  180.0580  138.7890 C   0  0  0  0  0  3  0  0  0  0  0  0
  181.9170  179.1090  139.6990 C   0  0  0  0  0  0  0  0  0  0  0  0
  181.6890  181.2340  138.5450 C   0  0  0  0  0  3  0  0  0  0  0  0
  183.5770  178.7520  142.1020 C   0  0  0  0  0  2  0  0  0  0  0  0
  187.0790  177.7970  143.1830 C   0  0  0  0  0  3  0  0  0  0  0  0
  184.6520  178.5800  144.3540 C   0  0  0  0  0  3  0  0  0  0  0  0
  187.9980  177.7790  146.7730 C   0  0  0  0  0  0  0  0  0  0  0  0
  188.0920  177.6550  145.3800 C   0  0  0  0  0  3  0  0  0  0  0  0
  186.9830  177.9190  144.5720 C   0  0  0  0  0  0  0  0  0  0  0  0
  185.6670  178.4400  146.5490 C   0  0  0  0  0  3  0  0  0  0  0  0
  185.7610  178.3140  145.1610 C   0  0  0  0  0  0  0  0  0  0  0  0
  186.7800  178.1720  147.3510 C   0  0  0  0  0  3  0  0  0  0  0  0
  184.7520  178.4500  142.9640 C   0  0  0  0  0  0  0  0  0  0  0  0
  185.9650  178.0640  142.3800 C   0  0  0  0  0  3  0  0  0  0  0  0
  189.8210  176.4300  147.4740 O   0  0  0  0  0  0  0  0  0  0  0  0
  189.1690  177.4990  147.6180 C   0  0  0  0  0  0  0  0  0  0  0  0
  189.5690  178.4130  148.5860 O   0  0  0  0  0  1  0  0  0  0  0  0
  1  2  2  0  0  0  0
  2 21  1  0  0  0  0
  3  7  1  0  0  0  0
  5  6  1  0  0  0  0
  5  3  2  0  0  0  0
  6  8  2  0  0  0  0
  7  9  2  0  0  0  0
  7  4  1  0  0  0  0
  8  9  1  0  0  0  0
  9  1  1  0  0  0  0
 10 13  2  0  0  0  0
 10 12  1  0  0  0  0
 11 10  1  0  0  0  0
 13  5  1  0  0  0  0
 15 14  1  0  0  0  0
 16 17  2  0  0  0  0
 17 15  1  0  0  0  0
 18 19  1  0  0  0  0
 19  1  1  0  0  0  0
 19 15  2  0  0  0  0
 20 18  2  0  0  0  0
 20 16  1  0  0  0  0
 21 30  1  0  0  0  0
 22 26  1  0  0  0  0
 23 28  1  0  0  0  0
 24 29  1  0  0  0  0
 24 33  1  0  0  0  0
 25 24  2  0  0  0  0
 26 28  2  0  0  0  0
 26 25  1  0  0  0  0
 27 29  2  0  0  0  0
 28 27  1  0  0  0  0
 30 23  2  0  0  0  0
 31 30  1  0  0  0  0
 31 22  2  0  0  0  0
 32 33  2  0  0  0  0
 33 34  1  0  0  0  0
M  END
>  <MODEL>
4

>  <REMARK>
 VINA RESULT:      -8.8      1.349      2.056
  Name = 
  6 active torsions:
  status: ('A' for Active; 'I' for Inactive)
    1  A    between atoms: C_1  and  C_20
    2  A    between atoms: C_1  and  C_34
    3  A    between atoms: C_7  and  C_15
    4  A    between atoms: C_9  and  C_18
    5  A    between atoms: C_18  and  C_30
    6  A    between atoms: C_23  and  C_25
                            x       y       z     vdW  Elec       q    Type
                         _______ _______ _______ _____ _____    ______ ____

>  <TORSDO>
F 6

$$$$
=
 OpenBabel10272415263D

 34 37  0  0  0  0  0  0  0  0999 V2000
  189.7240  176.9120  138.5160 C   0  0  0  0  0  0  0  0  0  0  0  0
  189.6440  177.1290  139.8380 C   0  0  0  0  0  3  0  0  0  0  0  0
  193.4640  176.3380  138.0390 C   0  0  0  0  0  3  0  0  0  0  0  0
  192.2810  177.2860  139.8950 O   0  0  0  0  0  1  0  0  0  0  0  0
  193.5000  175.7910  136.7540 C   0  0  0  0  0  0  0  0  0  0  0  0
  192.2990  175.6290  136.0510 C   0  0  0  0  0  3  0  0  0  0  0  0
  192.2540  176.7170  138.6270 C   0  0  0  0  0  0  0  0  0  0  0  0
  191.0850  176.0000  136.6300 C   0  0  0  0  0  3  0  0  0  0  0  0
  191.0390  176.5410  137.9270 C   0  0  0  0  0  0  0  0  0  0  0  0
  195.6450  176.1600  135.4560 C   0  0  0  0  0  0  0  0  0  0  0  0
  196.8140  175.6100  135.0510 F   0  0  0  0  0  0  0  0  0  0  0  0
  195.3520  177.5640  135.0450 C   0  0  0  0  0  1  0  0  0  0  0  0
  194.8170  175.4160  136.1990 C   0  0  0  0  0  3  0  0  0  0  0  0
  188.9850  179.5150  137.4680 O   0  0  0  0  0  1  0  0  0  0  0  0
  188.2180  178.4020  137.1410 C   0  0  0  0  0  0  0  0  0  0  0  0
  186.2930  177.4660  136.0030 C   0  0  0  0  0  3  0  0  0  0  0  0
  187.0960  178.5640  136.3230 C   0  0  0  0  0  3  0  0  0  0  0  0
  187.7290  176.0330  137.3220 C   0  0  0  0  0  3  0  0  0  0  0  0
  188.5480  177.1260  137.6380 C   0  0  0  0  0  0  0  0  0  0  0  0
  186.6080  176.2020  136.5050 C   0  0  0  0  0  3  0  0  0  0  0  0
  188.4060  177.5870  140.5410 C   0  0  0  0  0  2  0  0  0  0  0  0
  190.1830  177.9520  143.8640 C   0  0  0  0  0  3  0  0  0  0  0  0
  187.5760  177.5710  142.9000 C   0  0  0  0  0  3  0  0  0  0  0  0
  188.2730  177.8520  147.0380 C   0  0  0  0  0  0  0  0  0  0  0  0
  189.3430  177.9480  146.1380 C   0  0  0  0  0  3  0  0  0  0  0  0
  189.1160  177.8550  144.7620 C   0  0  0  0  0  0  0  0  0  0  0  0
  186.7370  177.5690  145.1730 C   0  0  0  0  0  3  0  0  0  0  0  0
  187.8030  177.6640  144.2760 C   0  0  0  0  0  0  0  0  0  0  0  0
  186.9720  177.6620  146.5480 C   0  0  0  0  0  3  0  0  0  0  0  0
  188.6500  177.6650  142.0070 C   0  0  0  0  0  0  0  0  0  0  0  0
  189.9500  177.8590  142.4890 C   0  0  0  0  0  3  0  0  0  0  0  0
  187.6240  177.6170  149.3090 O   0  0  0  0  0  1  0  0  0  0  0  0
  188.5180  177.9500  148.4850 C   0  0  0  0  0  0  0  0  0  0  0  0
  189.7400  178.4120  148.9600 O   0  0  0  0  0  0  0  0  0  0  0  0
  1  2  2  0  0  0  0
  2 21  1  0  0  0  0
  3  7  1  0  0  0  0
  5  3  2  0  0  0  0
  6  8  2  0  0  0  0
  6  5  1  0  0  0  0
  7  4  1  0  0  0  0
  8  9  1  0  0  0  0
  9  1  1  0  0  0  0
  9  7  2  0  0  0  0
 10 13  2  0  0  0  0
 11 10  1  0  0  0  0
 12 10  1  0  0  0  0
 13  5  1  0  0  0  0
 15 14  1  0  0  0  0
 15 19  1  0  0  0  0
 16 17  1  0  0  0  0
 16 20  2  0  0  0  0
 17 15  2  0  0  0  0
 18 19  2  0  0  0  0
 19  1  1  0  0  0  0
 20 18  1  0  0  0  0
 21 30  1  0  0  0  0
 22 26  1  0  0  0  0
 23 28  1  0  0  0  0
 24 33  1  0  0  0  0
 25 24  2  0  0  0  0
 26 25  1  0  0  0  0
 27 29  2  0  0  0  0
 28 26  2  0  0  0  0
 28 27  1  0  0  0  0
 29 24  1  0  0  0  0
 30 31  1  0  0  0  0
 30 23  2  0  0  0  0
 31 22  2  0  0  0  0
 33 34  2  0  0  0  0
 33 32  1  0  0  0  0
M  END
>  <MODEL>
5

>  <REMARK>
 VINA RESULT:      -8.6      5.243      6.903
  Name = 
  6 active torsions:
  status: ('A' for Active; 'I' for Inactive)
    1  A    between atoms: C_1  and  C_20
    2  A    between atoms: C_1  and  C_34
    3  A    between atoms: C_7  and  C_15
    4  A    between atoms: C_9  and  C_18
    5  A    between atoms: C_18  and  C_30
    6  A    between atoms: C_23  and  C_25
                            x       y       z     vdW  Elec       q    Type
                         _______ _______ _______ _____ _____    ______ ____

>  <TORSDO>
F 6

$$$$
=
 OpenBabel10272415263D

 34 37  0  0  0  0  0  0  0  0999 V2000
  182.3130  177.7620  139.7640 C   0  0  0  0  0  0  0  0  0  0  0  0
  183.5350  177.7550  140.3190 C   0  0  0  0  0  3  0  0  0  0  0  0
  181.6340  174.7750  137.4910 C   0  0  0  0  0  3  0  0  0  0  0  0
  183.0630  176.6690  137.1520 O   0  0  0  0  0  1  0  0  0  0  0  0
  180.7020  174.0580  138.2460 C   0  0  0  0  0  0  0  0  0  0  0  0
  180.2940  174.5680  139.4840 C   0  0  0  0  0  3  0  0  0  0  0  0
  182.1640  175.9810  137.9580 C   0  0  0  0  0  0  0  0  0  0  0  0
  180.8190  175.7700  139.9620 C   0  0  0  0  0  3  0  0  0  0  0  0
  181.7660  176.4920  139.2150 C   0  0  0  0  0  0  0  0  0  0  0  0
  180.8840  171.7320  137.2590 C   0  0  0  0  0  0  0  0  0  0  0  0
  180.2020  170.6650  136.7760 F   0  0  0  0  0  0  0  0  0  0  0  0
  182.3750  171.6570  137.2800 C   0  0  0  0  0  1  0  0  0  0  0  0
  180.1880  172.7910  137.6850 C   0  0  0  0  0  3  0  0  0  0  0  0
  180.5050  178.7730  141.7970 O   0  0  0  0  0  1  0  0  0  0  0  0
  180.6860  179.4940  140.6220 C   0  0  0  0  0  0  0  0  0  0  0  0
  180.1260  181.4160  139.2560 C   0  0  0  0  0  3  0  0  0  0  0  0
  179.9820  180.6880  140.4400 C   0  0  0  0  0  3  0  0  0  0  0  0
  181.6810  179.7590  138.4260 C   0  0  0  0  0  3  0  0  0  0  0  0
  181.5530  179.0270  139.6140 C   0  0  0  0  0  0  0  0  0  0  0  0
  180.9720  180.9500  138.2480 C   0  0  0  0  0  3  0  0  0  0  0  0
  184.2310  178.9760  140.8310 C   0  0  0  0  0  2  0  0  0  0  0  0
  184.6170  178.5280  144.5710 C   0  0  0  0  0  3  0  0  0  0  0  0
  186.1770  178.3000  142.2500 C   0  0  0  0  0  3  0  0  0  0  0  0
  187.8600  177.4600  146.0120 C   0  0  0  0  0  0  0  0  0  0  0  0
  186.5190  177.8550  145.9150 C   0  0  0  0  0  3  0  0  0  0  0  0
  185.9550  178.1360  144.6670 C   0  0  0  0  0  0  0  0  0  0  0  0
  188.0760  177.6260  143.5940 C   0  0  0  0  0  3  0  0  0  0  0  0
  186.7400  178.0200  143.4980 C   0  0  0  0  0  0  0  0  0  0  0  0
  188.6330  177.3480  144.8450 C   0  0  0  0  0  3  0  0  0  0  0  0
  184.8370  178.6980  142.1610 C   0  0  0  0  0  0  0  0  0  0  0  0
  184.0590  178.8060  143.3200 C   0  0  0  0  0  3  0  0  0  0  0  0
  189.5080  176.4910  147.4180 O   0  0  0  0  0  0  0  0  0  0  0  0
  188.4480  177.1660  147.3270 C   0  0  0  0  0  0  0  0  0  0  0  0
  187.8390  177.6320  148.4870 O   0  0  0  0  0  1  0  0  0  0  0  0
  1  2  2  0  0  0  0
  2 21  1  0  0  0  0
  3  7  2  0  0  0  0
  3  5  1  0  0  0  0
  4  7  1  0  0  0  0
  5  6  2  0  0  0  0
  6  8  1  0  0  0  0
  7  9  1  0  0  0  0
  9  1  1  0  0  0  0
  9  8  2  0  0  0  0
 10 12  1  0  0  0  0
 10 13  2  0  0  0  0
 11 10  1  0  0  0  0
 13  5  1  0  0  0  0
 15 14  1  0  0  0  0
 16 17  2  0  0  0  0
 17 15  1  0  0  0  0
 18 19  1  0  0  0  0
 19  1  1  0  0  0  0
 19 15  2  0  0  0  0
 20 18  2  0  0  0  0
 20 16  1  0  0  0  0
 21 30  1  0  0  0  0
 22 26  1  0  0  0  0
 23 28  1  0  0  0  0
 24 33  1  0  0  0  0
 25 24  1  0  0  0  0
 26 25  2  0  0  0  0
 27 29  1  0  0  0  0
 28 27  2  0  0  0  0
 28 26  1  0  0  0  0
 29 24  2  0  0  0  0
 30 23  2  0  0  0  0
 30 31  1  0  0  0  0
 31 22  2  0  0  0  0
 33 32  2  0  0  0  0
 33 34  1  0  0  0  0
M  END
>  <MODEL>
6

>  <REMARK>
 VINA RESULT:      -8.4      2.142      2.769
  Name = 
  6 active torsions:
  status: ('A' for Active; 'I' for Inactive)
    1  A    between atoms: C_1  and  C_20
    2  A    between atoms: C_1  and  C_34
    3  A    between atoms: C_7  and  C_15
    4  A    between atoms: C_9  and  C_18
    5  A    between atoms: C_18  and  C_30
    6  A    between atoms: C_23  and  C_25
                            x       y       z     vdW  Elec       q    Type
                         _______ _______ _______ _____ _____    ______ ____

>  <TORSDO>
F 6

$$$$
=
 OpenBabel10272415263D

 34 37  0  0  0  0  0  0  0  0999 V2000
  184.3090  178.2490  139.2390 C   0  0  0  0  0  0  0  0  0  0  0  0
  184.6080  178.2340  140.5470 C   0  0  0  0  0  3  0  0  0  0  0  0
  187.7540  177.9530  137.6270 C   0  0  0  0  0  3  0  0  0  0  0  0
  187.1520  178.6020  139.8550 O   0  0  0  0  0  1  0  0  0  0  0  0
  187.4190  177.5660  136.3270 C   0  0  0  0  0  0  0  0  0  0  0  0
  186.0690  177.4210  135.9880 C   0  0  0  0  0  3  0  0  0  0  0  0
  186.7640  178.1880  138.5860 C   0  0  0  0  0  0  0  0  0  0  0  0
  185.0720  177.6500  136.9370 C   0  0  0  0  0  3  0  0  0  0  0  0
  185.4000  178.0270  138.2510 C   0  0  0  0  0  0  0  0  0  0  0  0
  189.6050  176.5660  135.5240 C   0  0  0  0  0  0  0  0  0  0  0  0
  190.4980  176.5020  134.5080 F   0  0  0  0  0  0  0  0  0  0  0  0
  189.8880  175.7730  136.7560 C   0  0  0  0  0  1  0  0  0  0  0  0
  188.5220  177.3370  135.3700 C   0  0  0  0  0  3  0  0  0  0  0  0
  183.3810  180.9640  138.8070 O   0  0  0  0  0  1  0  0  0  0  0  0
  182.5180  179.9000  138.5710 C   0  0  0  0  0  0  0  0  0  0  0  0
  180.3200  179.1110  137.9240 C   0  0  0  0  0  3  0  0  0  0  0  0
  181.2140  180.1620  138.1410 C   0  0  0  0  0  3  0  0  0  0  0  0
  182.0290  177.5240  138.5680 C   0  0  0  0  0  3  0  0  0  0  0  0
  182.9380  178.5700  138.7760 C   0  0  0  0  0  0  0  0  0  0  0  0
  180.7260  177.7930  138.1400 C   0  0  0  0  0  3  0  0  0  0  0  0
  183.6250  178.5240  141.6370 C   0  0  0  0  0  2  0  0  0  0  0  0
  184.2390  178.8460  145.3600 C   0  0  0  0  0  3  0  0  0  0  0  0
  185.6280  178.0480  143.0560 C   0  0  0  0  0  3  0  0  0  0  0  0
  187.5200  177.9160  146.8100 C   0  0  0  0  0  0  0  0  0  0  0  0
  186.1950  178.3590  146.7060 C   0  0  0  0  0  3  0  0  0  0  0  0
  185.5620  178.4050  145.4610 C   0  0  0  0  0  0  0  0  0  0  0  0
  187.5810  177.5600  144.4040 C   0  0  0  0  0  3  0  0  0  0  0  0
  186.2610  178.0030  144.3010 C   0  0  0  0  0  0  0  0  0  0  0  0
  188.2080  177.5170  145.6520 C   0  0  0  0  0  3  0  0  0  0  0  0
  184.3050  178.4950  142.9600 C   0  0  0  0  0  0  0  0  0  0  0  0
  183.6120  178.8880  144.1110 C   0  0  0  0  0  3  0  0  0  0  0  0
  187.6430  177.2660  149.0890 O   0  0  0  0  0  1  0  0  0  0  0  0
  188.1810  177.8690  148.1230 C   0  0  0  0  0  0  0  0  0  0  0  0
  189.4100  178.4920  148.3110 O   0  0  0  0  0  0  0  0  0  0  0  0
  1  2  2  0  0  0  0
  2 21  1  0  0  0  0
  3  7  1  0  0  0  0
  5  3  2  0  0  0  0
  6  5  1  0  0  0  0
  6  8  2  0  0  0  0
  7  4  1  0  0  0  0
  8  9  1  0  0  0  0
  9  7  2  0  0  0  0
  9  1  1  0  0  0  0
 10 12  1  0  0  0  0
 11 10  1  0  0  0  0
 13 10  2  0  0  0  0
 13  5  1  0  0  0  0
 15 19  1  0  0  0  0
 15 14  1  0  0  0  0
 16 20  2  0  0  0  0
 16 17  1  0  0  0  0
 17 15  2  0  0  0  0
 18 19  2  0  0  0  0
 19  1  1  0  0  0  0
 20 18  1  0  0  0  0
 21 30  1  0  0  0  0
 22 26  1  0  0  0  0
 23 28  1  0  0  0  0
 24 33  1  0  0  0  0
 25 24  1  0  0  0  0
 26 25  2  0  0  0  0
 27 29  1  0  0  0  0
 28 27  2  0  0  0  0
 28 26  1  0  0  0  0
 29 24  2  0  0  0  0
 30 23  2  0  0  0  0
 30 31  1  0  0  0  0
 31 22  2  0  0  0  0
 33 34  2  0  0  0  0
 33 32  1  0  0  0  0
M  END
>  <MODEL>
7

>  <REMARK>
 VINA RESULT:      -8.4      2.272      2.813
  Name = 
  6 active torsions:
  status: ('A' for Active; 'I' for Inactive)
    1  A    between atoms: C_1  and  C_20
    2  A    between atoms: C_1  and  C_34
    3  A    between atoms: C_7  and  C_15
    4  A    between atoms: C_9  and  C_18
    5  A    between atoms: C_18  and  C_30
    6  A    between atoms: C_23  and  C_25
                            x       y       z     vdW  Elec       q    Type
                         _______ _______ _______ _____ _____    ______ ____

>  <TORSDO>
F 6

$$$$
=
 OpenBabel10272415263D

 34 37  0  0  0  0  0  0  0  0999 V2000
  189.8980  176.5000  138.3030 C   0  0  0  0  0  0  0  0  0  0  0  0
  189.8230  176.7950  139.6100 C   0  0  0  0  0  3  0  0  0  0  0  0
  187.3260  178.0610  135.9590 C   0  0  0  0  0  3  0  0  0  0  0  0
  189.3300  178.9970  136.8810 O   0  0  0  0  0  1  0  0  0  0  0  0
  186.4020  177.0210  135.8280 C   0  0  0  0  0  0  0  0  0  0  0  0
  186.6230  175.8250  136.5210 C   0  0  0  0  0  3  0  0  0  0  0  0
  188.4620  177.9190  136.7610 C   0  0  0  0  0  0  0  0  0  0  0  0
  187.7560  175.6710  137.3220 C   0  0  0  0  0  3  0  0  0  0  0  0
  188.6970  176.7070  137.4500 C   0  0  0  0  0  0  0  0  0  0  0  0
  183.9360  177.2920  135.3130 C   0  0  0  0  0  0  0  0  0  0  0  0
  183.0140  177.5130  134.3460 F   0  0  0  0  0  0  0  0  0  0  0  0
  183.4520  177.1060  136.7120 C   0  0  0  0  0  1  0  0  0  0  0  0
  185.2260  177.2470  134.9620 C   0  0  0  0  0  3  0  0  0  0  0  0
  190.1330  173.6670  137.7190 O   0  0  0  0  0  1  0  0  0  0  0  0
  191.2040  174.5120  137.4530 C   0  0  0  0  0  0  0  0  0  0  0  0
  193.4800  174.7990  136.6710 C   0  0  0  0  0  3  0  0  0  0  0  0
  192.3800  173.9750  136.9210 C   0  0  0  0  0  3  0  0  0  0  0  0
  192.2360  176.7070  137.4880 C   0  0  0  0  0  3  0  0  0  0  0  0
  191.1230  175.8910  137.7300 C   0  0  0  0  0  0  0  0  0  0  0  0
  193.4100  176.1640  136.9570 C   0  0  0  0  0  3  0  0  0  0  0  0
  190.9280  176.5550  140.5900 C   0  0  0  0  0  2  0  0  0  0  0  0
  190.9440  177.3870  144.2840 C   0  0  0  0  0  3  0  0  0  0  0  0
  189.0830  176.8740  142.2490 C   0  0  0  0  0  3  0  0  0  0  0  0
  187.7590  177.7360  146.1460 C   0  0  0  0  0  0  0  0  0  0  0  0
  189.1310  177.7040  145.8610 C   0  0  0  0  0  3  0  0  0  0  0  0
  189.5760  177.4170  144.5680 C   0  0  0  0  0  0  0  0  0  0  0  0
  187.2710  177.1930  143.8250 C   0  0  0  0  0  3  0  0  0  0  0  0
  188.6390  177.1600  143.5420 C   0  0  0  0  0  0  0  0  0  0  0  0
  186.8340  177.4790  145.1210 C   0  0  0  0  0  3  0  0  0  0  0  0
  190.4550  176.8400  141.9720 C   0  0  0  0  0  0  0  0  0  0  0  0
  191.3820  177.1010  142.9880 C   0  0  0  0  0  3  0  0  0  0  0  0
  186.3200  178.8130  147.6970 O   0  0  0  0  0  0  0  0  0  0  0  0
  187.2960  178.0380  147.5090 C   0  0  0  0  0  0  0  0  0  0  0  0
  187.9320  177.4700  148.6070 O   0  0  0  0  0  1  0  0  0  0  0  0
  1  2  2  0  0  0  0
  2 21  1  0  0  0  0
  3  7  1  0  0  0  0
  5  3  2  0  0  0  0
  5  6  1  0  0  0  0
  6  8  2  0  0  0  0
  7  4  1  0  0  0  0
  7  9  2  0  0  0  0
  8  9  1  0  0  0  0
  9  1  1  0  0  0  0
 10 12  1  0  0  0  0
 11 10  1  0  0  0  0
 13 10  2  0  0  0  0
 13  5  1  0  0  0  0
 15 14  1  0  0  0  0
 15 19  1  0  0  0  0
 16 17  1  0  0  0  0
 16 20  2  0  0  0  0
 17 15  2  0  0  0  0
 18 19  2  0  0  0  0
 19  1  1  0  0  0  0
 20 18  1  0  0  0  0
 21 30  1  0  0  0  0
 22 26  1  0  0  0  0
 23 28  1  0  0  0  0
 24 33  1  0  0  0  0
 25 24  1  0  0  0  0
 26 25  2  0  0  0  0
 27 29  1  0  0  0  0
 28 27  2  0  0  0  0
 28 26  1  0  0  0  0
 29 24  2  0  0  0  0
 30 23  2  0  0  0  0
 30 31  1  0  0  0  0
 31 22  2  0  0  0  0
 33 32  2  0  0  0  0
 33 34  1  0  0  0  0
M  END
>  <MODEL>
8

>  <REMARK>
 VINA RESULT:      -8.4      4.224      7.075
  Name = 
  6 active torsions:
  status: ('A' for Active; 'I' for Inactive)
    1  A    between atoms: C_1  and  C_20
    2  A    between atoms: C_1  and  C_34
    3  A    between atoms: C_7  and  C_15
    4  A    between atoms: C_9  and  C_18
    5  A    between atoms: C_18  and  C_30
    6  A    between atoms: C_23  and  C_25
                            x       y       z     vdW  Elec       q    Type
                         _______ _______ _______ _____ _____    ______ ____

>  <TORSDO>
F 6

$$$$
=
 OpenBabel10272415263D

 34 37  0  0  0  0  0  0  0  0999 V2000
  183.3180  177.9950  141.1770 C   0  0  0  0  0  0  0  0  0  0  0  0
  184.5450  178.0800  141.7140 C   0  0  0  0  0  3  0  0  0  0  0  0
  183.6650  177.1150  137.4820 C   0  0  0  0  0  3  0  0  0  0  0  0
  184.6600  178.8990  138.7350 O   0  0  0  0  0  1  0  0  0  0  0  0
  182.8220  176.0050  137.3810 C   0  0  0  0  0  0  0  0  0  0  0  0
  182.1370  175.5660  138.5210 C   0  0  0  0  0  3  0  0  0  0  0  0
  183.8350  177.7810  138.6990 C   0  0  0  0  0  0  0  0  0  0  0  0
  182.3020  176.2210  139.7410 C   0  0  0  0  0  3  0  0  0  0  0  0
  183.1580  177.3310  139.8560 C   0  0  0  0  0  0  0  0  0  0  0  0
  183.3230  174.2640  135.6100 C   0  0  0  0  0  0  0  0  0  0  0  0
  183.0520  173.8370  134.3530 F   0  0  0  0  0  0  0  0  0  0  0  0
  184.3140  173.4890  136.4140 C   0  0  0  0  0  1  0  0  0  0  0  0
  182.6930  175.3540  136.0600 C   0  0  0  0  0  3  0  0  0  0  0  0
  181.4490  179.7200  139.7780 O   0  0  0  0  0  1  0  0  0  0  0  0
  181.2600  179.4590  141.1310 C   0  0  0  0  0  0  0  0  0  0  0  0
  179.9820  179.8220  143.1580 C   0  0  0  0  0  3  0  0  0  0  0  0
  180.1780  180.0460  141.7930 C   0  0  0  0  0  3  0  0  0  0  0  0
  181.9540  178.4220  143.2110 C   0  0  0  0  0  3  0  0  0  0  0  0
  182.1530  178.6300  141.8390 C   0  0  0  0  0  0  0  0  0  0  0  0
  180.8720  179.0120  143.8670 C   0  0  0  0  0  3  0  0  0  0  0  0
  184.8540  178.7930  142.9930 C   0  0  0  0  0  2  0  0  0  0  0  0
  188.3940  177.4600  143.1780 C   0  0  0  0  0  3  0  0  0  0  0  0
  186.3740  178.3230  144.9230 C   0  0  0  0  0  3  0  0  0  0  0  0
  190.0720  177.0310  146.4540 C   0  0  0  0  0  0  0  0  0  0  0  0
  189.8460  177.0310  145.0710 C   0  0  0  0  0  3  0  0  0  0  0  0
  188.6180  177.4590  144.5570 C   0  0  0  0  0  0  0  0  0  0  0  0
  187.8270  177.8960  146.8140 C   0  0  0  0  0  3  0  0  0  0  0  0
  187.6010  177.8950  145.4360 C   0  0  0  0  0  0  0  0  0  0  0  0
  189.0560  177.4660  147.3200 C   0  0  0  0  0  3  0  0  0  0  0  0
  186.1540  178.3170  143.5410 C   0  0  0  0  0  0  0  0  0  0  0  0
  187.1640  177.8910  142.6710 C   0  0  0  0  0  3  0  0  0  0  0  0
  191.7910  177.0190  148.0910 O   0  0  0  0  0  1  0  0  0  0  0  0
  191.3650  176.5800  146.9890 C   0  0  0  0  0  0  0  0  0  0  0  0
  192.1340  175.6610  146.2830 O   0  0  0  0  0  0  0  0  0  0  0  0
  1  2  2  0  0  0  0
  1 19  1  0  0  0  0
  2 21  1  0  0  0  0
  3  7  1  0  0  0  0
  5  3  2  0  0  0  0
  5  6  1  0  0  0  0
  6  8  2  0  0  0  0
  7  4  1  0  0  0  0
  7  9  2  0  0  0  0
  8  9  1  0  0  0  0
  9  1  1  0  0  0  0
 10 13  2  0  0  0  0
 10 12  1  0  0  0  0
 11 10  1  0  0  0  0
 13  5  1  0  0  0  0
 14 15  1  0  0  0  0
 15 17  2  0  0  0  0
 15 19  1  0  0  0  0
 16 20  2  0  0  0  0
 17 16  1  0  0  0  0
 18 20  1  0  0  0  0
 19 18  2  0  0  0  0
 21 30  1  0  0  0  0
 22 26  1  0  0  0  0
 23 28  1  0  0  0  0
 24 33  1  0  0  0  0
 24 29  1  0  0  0  0
 25 24  2  0  0  0  0
 26 25  1  0  0  0  0
 26 28  2  0  0  0  0
 27 29  2  0  0  0  0
 28 27  1  0  0  0  0
 30 23  2  0  0  0  0
 31 22  2  0  0  0  0
 31 30  1  0  0  0  0
 33 32  1  0  0  0  0
 34 33  2  0  0  0  0
M  END
>  <MODEL>
9

>  <REMARK>
 VINA RESULT:      -8.2      1.948      3.105
  Name = 
  6 active torsions:
  status: ('A' for Active; 'I' for Inactive)
    1  A    between atoms: C_1  and  C_20
    2  A    between atoms: C_1  and  C_34
    3  A    between atoms: C_7  and  C_15
    4  A    between atoms: C_9  and  C_18
    5  A    between atoms: C_18  and  C_30
    6  A    between atoms: C_23  and  C_25
                            x       y       z     vdW  Elec       q    Type
                         _______ _______ _______ _____ _____    ______ ____

>  <TORSDO>
F 6

$$$$
