=
 OpenBabel10272414453D

 37 42  0  0  1  0  0  0  0  0999 V2000
  188.2880  176.9890  144.6200 C   0  0  0  0  0  2  0  0  0  0  0  0
  186.5110  178.1930  140.5470 C   0  0  1  0  0  3  0  0  0  0  0  0
  191.3450  176.6120  139.3310 C   0  0  2  0  0  3  0  0  0  0  0  0
  188.2630  178.0060  137.5540 C   0  0  1  0  0  3  0  0  0  0  0  0
  186.6340  177.9460  142.9900 C   0  0  2  0  0  3  0  0  0  0  0  0
  186.9910  178.8810  139.4320 O   0  0  0  0  0  0  0  0  0  0  0  0
  187.2510  178.6750  141.7930 C   0  0  1  0  0  3  0  0  0  0  0  0
  186.9720  177.9400  138.3940 C   0  0  1  0  0  3  0  0  0  0  0  0
  185.2510  178.2860  143.0720 O   0  0  0  0  0  0  0  0  0  0  0  0
  192.0050  176.3620  137.6520 S   0  0  0  0  0  0  0  0  0  0  0  0
  188.7400  178.4010  141.6350 C   0  0  0  0  0  2  0  0  0  0  0  0
  190.0000  176.5080  142.7660 C   0  0  0  0  0  2  0  0  0  0  0  0
  184.1030  178.0940  139.5110 C   0  0  0  0  0  2  0  0  0  0  0  0
  184.4570  178.3280  141.9130 C   0  0  0  0  0  3  0  0  0  0  0  0
  188.9880  176.9020  141.7020 C   0  0  2  0  0  3  0  0  0  0  0  0
  190.5200  177.1100  136.9270 C   0  0  0  0  0  2  0  0  0  0  0  0
  188.8390  179.4230  137.4860 C   0  0  0  0  0  1  0  0  0  0  0  0
  185.0070  178.3230  140.6890 C   0  0  0  0  0  0  0  0  0  0  0  0
  189.1060  176.2100  140.3450 C   0  0  0  0  0  2  0  0  0  0  0  0
  187.3680  178.1760  144.3080 C   0  0  0  0  0  2  0  0  0  0  0  0
  185.7310  178.1640  137.5160 C   0  0  2  0  0  3  0  0  0  0  0  0
  189.7150  177.2080  144.1060 C   0  0  0  0  0  2  0  0  0  0  0  0
  189.3240  176.9090  137.8600 C   0  0  1  0  0  0  0  0  0  0  0  0
  189.8760  177.0270  139.3030 C   0  0  2  0  0  3  0  0  0  0  0  0
  184.5510  178.8340  138.2470 C   0  0  0  0  0  2  0  0  0  0  0  0
  185.0010  176.9760  135.4400 C   0  0  0  0  0  3  0  0  0  0  0  0
  185.3130  176.9130  136.8040 C   0  0  0  0  0  0  0  0  0  0  0  0
  185.2190  175.6870  137.4800 C   0  0  0  0  0  3  0  0  0  0  0  0
  184.7310  173.2390  137.5150 C   0  0  0  0  0  1  0  0  0  0  0  0
  184.5180  174.6030  135.4330 C   0  0  0  0  0  3  0  0  0  0  0  0
  184.8240  174.5350  136.7960 C   0  0  0  0  0  0  0  0  0  0  0  0
  184.6050  175.8240  134.7560 C   0  0  0  0  0  3  0  0  0  0  0  0
  188.7380  175.5050  137.5980 C   0  0  0  0  0  2  0  0  0  0  0  0
  188.5990  175.1770  136.1170 C   0  0  0  0  0  1  0  0  0  0  0  0
  192.1520  177.4430  140.1370 O   0  0  0  0  0  0  0  0  0  0  0  0
  193.4150  177.5760  139.5360 C   0  0  0  0  0  2  0  0  0  0  0  0
  194.3530  176.8470  140.2630 O   0  0  0  0  0  1  0  0  0  0  0  0
  2  6  1  6  0  0  0
  2 18  1  0  0  0  0
  2  7  1  0  0  0  0
  3 35  1  6  0  0  0
  4 17  1  1  0  0  0
  4 23  1  0  0  0  0
  4  8  1  0  0  0  0
  5  9  1  0  0  0  0
  5 20  1  1  0  0  0
  7 11  1  6  0  0  0
  7  5  1  0  0  0  0
  8  6  1  1  0  0  0
 10  3  1  0  0  0  0
 11 15  1  0  0  0  0
 12 22  1  0  0  0  0
 13 18  1  0  0  0  0
 14  9  1  0  0  0  0
 15 19  1  6  0  0  0
 15 12  1  0  0  0  0
 16 10  1  0  0  0  0
 16 23  1  0  0  0  0
 18 14  2  0  0  0  0
 20  1  1  0  0  0  0
 21 27  1  1  0  0  0
 21 25  1  0  0  0  0
 21  8  1  0  0  0  0
 22  1  1  0  0  0  0
 23 33  1  6  0  0  0
 23 24  1  0  0  0  0
 24  3  1  0  0  0  0
 24 19  1  1  0  0  0
 25 13  1  0  0  0  0
 26 27  1  0  0  0  0
 27 28  2  0  0  0  0
 30 31  2  0  0  0  0
 31 28  1  0  0  0  0
 31 29  1  0  0  0  0
 32 30  1  0  0  0  0
 32 26  2  0  0  0  0
 34 33  1  0  0  0  0
 36 35  1  0  0  0  0
 36 37  1  0  0  0  0
M  END
>  <MODEL>
1

>  <REMARK>
 VINA RESULT:      -6.5      0.000      0.000
  Name = 
  4 active torsions:
  status: ('A' for Active; 'I' for Inactive)
    1  A    between atoms: O_1  and  C_5
    2  A    between atoms: O_1  and  C_12
    3  A    between atoms: C_6  and  C_31
    4  A    between atoms: C_11  and  C_33
                            x       y       z     vdW  Elec       q    Type
                         _______ _______ _______ _____ _____    ______ ____

>  <TORSDO>
F 4

$$$$
=
 OpenBabel10272414453D

 37 42  0  0  1  0  0  0  0  0999 V2000
  189.5450  177.0130  143.4880 C   0  0  0  0  0  2  0  0  0  0  0  0
  186.5520  178.1460  140.1790 C   0  0  1  0  0  3  0  0  0  0  0  0
  190.7060  176.4290  137.5070 C   0  0  2  0  0  3  0  0  0  0  0  0
  187.2300  177.8430  136.7860 C   0  0  1  0  0  3  0  0  0  0  0  0
  187.4610  177.9610  142.4550 C   0  0  2  0  0  3  0  0  0  0  0  0
  186.6490  178.7940  138.9460 O   0  0  0  0  0  0  0  0  0  0  0  0
  187.6630  178.6440  141.1000 C   0  0  1  0  0  3  0  0  0  0  0  0
  186.2820  177.8260  138.0020 C   0  0  1  0  0  3  0  0  0  0  0  0
  186.1850  178.3330  142.9720 O   0  0  0  0  0  0  0  0  0  0  0  0
  190.7800  176.1210  135.7130 S   0  0  0  0  0  0  0  0  0  0  0  0
  189.0160  178.3350  140.4740 C   0  0  0  0  0  2  0  0  0  0  0  0
  190.5530  176.4460  141.1940 C   0  0  0  0  0  2  0  0  0  0  0  0
  183.9360  178.0710  139.9870 C   0  0  0  0  0  2  0  0  0  0  0  0
  185.0560  178.3610  142.1340 C   0  0  0  0  0  3  0  0  0  0  0  0
  189.2540  176.8330  140.5060 C   0  0  2  0  0  3  0  0  0  0  0  0
  189.1490  176.8810  135.4880 C   0  0  0  0  0  2  0  0  0  0  0  0
  187.7690  179.2440  136.4890 C   0  0  0  0  0  1  0  0  0  0  0  0
  185.1770  178.3120  140.7980 C   0  0  0  0  0  0  0  0  0  0  0  0
  188.9150  176.1030  139.2070 C   0  0  0  0  0  2  0  0  0  0  0  0
  188.5870  178.2100  143.4540 C   0  0  0  0  0  2  0  0  0  0  0  0
  184.8260  178.0530  137.5690 C   0  0  2  0  0  3  0  0  0  0  0  0
  190.7290  177.1870  142.5310 C   0  0  0  0  0  2  0  0  0  0  0  0
  188.3200  176.7310  136.7650 C   0  0  1  0  0  0  0  0  0  0  0  0
  189.3130  176.8760  137.9450 C   0  0  2  0  0  3  0  0  0  0  0  0
  183.9560  178.7680  138.6220 C   0  0  0  0  0  2  0  0  0  0  0  0
  183.1750  176.8770  136.1040 C   0  0  0  0  0  3  0  0  0  0  0  0
  184.1840  176.7930  137.0720 C   0  0  0  0  0  0  0  0  0  0  0  0
  184.5670  175.5370  137.5660 C   0  0  0  0  0  3  0  0  0  0  0  0
  184.3660  173.0490  137.6120 C   0  0  0  0  0  1  0  0  0  0  0  0
  182.9490  174.4670  136.1210 C   0  0  0  0  0  3  0  0  0  0  0  0
  183.9530  174.3770  137.0900 C   0  0  0  0  0  0  0  0  0  0  0  0
  182.5600  175.7160  135.6290 C   0  0  0  0  0  3  0  0  0  0  0  0
  187.6640  175.3340  136.7530 C   0  0  0  0  0  2  0  0  0  0  0  0
  187.2580  174.8710  135.3600 C   0  0  0  0  0  1  0  0  0  0  0  0
  191.7420  177.2650  137.9800 O   0  0  0  0  0  0  0  0  0  0  0  0
  192.9120  176.5020  138.1260 C   0  0  0  0  0  2  0  0  0  0  0  0
  193.6150  176.9420  139.2450 O   0  0  0  0  0  1  0  0  0  0  0  0
  2  6  1  6  0  0  0
  2 18  1  0  0  0  0
  2  7  1  0  0  0  0
  3 24  1  0  0  0  0
  3 35  1  6  0  0  0
  4 17  1  1  0  0  0
  4  8  1  0  0  0  0
  5  9  1  0  0  0  0
  5 20  1  1  0  0  0
  7 11  1  6  0  0  0
  7  5  1  0  0  0  0
  8  6  1  1  0  0  0
 10  3  1  0  0  0  0
 11 15  1  0  0  0  0
 12 22  1  0  0  0  0
 13 18  1  0  0  0  0
 14  9  1  0  0  0  0
 15 19  1  6  0  0  0
 15 12  1  0  0  0  0
 16 10  1  0  0  0  0
 16 23  1  0  0  0  0
 18 14  2  0  0  0  0
 20  1  1  0  0  0  0
 21 27  1  1  0  0  0
 21  8  1  0  0  0  0
 21 25  1  0  0  0  0
 22  1  1  0  0  0  0
 23 33  1  1  0  0  0
 23  4  1  0  0  0  0
 23 24  1  0  0  0  0
 24 19  1  1  0  0  0
 25 13  1  0  0  0  0
 26 27  1  0  0  0  0
 27 28  2  0  0  0  0
 30 31  2  0  0  0  0
 31 28  1  0  0  0  0
 31 29  1  0  0  0  0
 32 26  2  0  0  0  0
 32 30  1  0  0  0  0
 34 33  1  0  0  0  0
 35 36  1  0  0  0  0
 36 37  1  0  0  0  0
M  END
>  <MODEL>
2

>  <REMARK>
 VINA RESULT:      -5.9      1.267      1.390
  Name = 
  4 active torsions:
  status: ('A' for Active; 'I' for Inactive)
    1  A    between atoms: O_1  and  C_5
    2  A    between atoms: O_1  and  C_12
    3  A    between atoms: C_6  and  C_31
    4  A    between atoms: C_11  and  C_33
                            x       y       z     vdW  Elec       q    Type
                         _______ _______ _______ _____ _____    ______ ____

>  <TORSDO>
F 4

$$$$
=
 OpenBabel10272414453D

 37 42  0  0  1  0  0  0  0  0999 V2000
  189.6630  177.0360  143.4360 C   0  0  0  0  0  2  0  0  0  0  0  0
  186.5530  178.1970  140.2460 C   0  0  1  0  0  3  0  0  0  0  0  0
  190.5660  176.4010  137.4150 C   0  0  2  0  0  3  0  0  0  0  0  0
  187.0850  177.8640  136.8300 C   0  0  1  0  0  3  0  0  0  0  0  0
  187.5530  178.0100  142.4840 C   0  0  2  0  0  3  0  0  0  0  0  0
  186.6090  178.8360  139.0070 O   0  0  0  0  0  0  0  0  0  0  0  0
  187.7090  178.6830  141.1180 C   0  0  1  0  0  3  0  0  0  0  0  0
  186.1890  177.8690  138.0850 C   0  0  1  0  0  3  0  0  0  0  0  0
  186.3050  178.4040  143.0510 O   0  0  0  0  0  0  0  0  0  0  0  0
  190.5610  176.0820  135.6220 S   0  0  0  0  0  0  0  0  0  0  0  0
  189.0300  178.3490  140.4380 C   0  0  0  0  0  2  0  0  0  0  0  0
  190.5670  176.4400  141.1060 C   0  0  0  0  0  2  0  0  0  0  0  0
  183.9310  178.1610  140.1630 C   0  0  0  0  0  2  0  0  0  0  0  0
  185.1440  178.4460  142.2610 C   0  0  0  0  0  3  0  0  0  0  0  0
  189.2470  176.8440  140.4690 C   0  0  2  0  0  3  0  0  0  0  0  0
  188.9340  176.8660  135.4590 C   0  0  0  0  0  2  0  0  0  0  0  0
  187.6330  179.2550  136.5020 C   0  0  0  0  0  1  0  0  0  0  0  0
  185.2080  178.3870  140.9210 C   0  0  0  0  0  0  0  0  0  0  0  0
  188.8430  176.1120  139.1900 C   0  0  0  0  0  2  0  0  0  0  0  0
  188.7230  178.2480  143.4340 C   0  0  0  0  0  2  0  0  0  0  0  0
  184.7190  178.1160  137.7110 C   0  0  2  0  0  3  0  0  0  0  0  0
  190.8090  177.1870  142.4290 C   0  0  0  0  0  2  0  0  0  0  0  0
  188.1560  176.7360  136.7710 C   0  0  1  0  0  0  0  0  0  0  0  0
  189.2000  176.8710  137.9080 C   0  0  2  0  0  3  0  0  0  0  0  0
  183.9050  178.8500  138.7950 C   0  0  0  0  0  2  0  0  0  0  0  0
  184.1220  175.7110  138.0380 C   0  0  0  0  0  3  0  0  0  0  0  0
  184.0380  176.8630  137.2480 C   0  0  0  0  0  0  0  0  0  0  0  0
  183.3300  176.8250  136.0380 C   0  0  0  0  0  3  0  0  0  0  0  0
  181.9530  175.6100  134.3460 C   0  0  0  0  0  1  0  0  0  0  0  0
  182.7900  174.4970  136.4210 C   0  0  0  0  0  3  0  0  0  0  0  0
  182.7060  175.6440  135.6260 C   0  0  0  0  0  0  0  0  0  0  0  0
  183.4990  174.5300  137.6250 C   0  0  0  0  0  3  0  0  0  0  0  0
  187.4790  175.3490  136.7950 C   0  0  0  0  0  2  0  0  0  0  0  0
  186.7560  175.0090  135.4980 C   0  0  0  0  0  1  0  0  0  0  0  0
  191.6330  177.2230  137.8400 O   0  0  0  0  0  0  0  0  0  0  0  0
  192.8020  176.4480  137.9200 C   0  0  0  0  0  2  0  0  0  0  0  0
  193.5660  176.8720  139.0050 O   0  0  0  0  0  1  0  0  0  0  0  0
  2  6  1  6  0  0  0
  2 18  1  0  0  0  0
  2  7  1  0  0  0  0
  3 35  1  6  0  0  0
  3 24  1  0  0  0  0
  4 17  1  1  0  0  0
  4  8  1  0  0  0  0
  5  9  1  0  0  0  0
  5 20  1  1  0  0  0
  7 11  1  6  0  0  0
  7  5  1  0  0  0  0
  8  6  1  1  0  0  0
 10  3  1  0  0  0  0
 11 15  1  0  0  0  0
 12 22  1  0  0  0  0
 13 18  1  0  0  0  0
 14  9  1  0  0  0  0
 15 19  1  6  0  0  0
 15 12  1  0  0  0  0
 16 10  1  0  0  0  0
 16 23  1  0  0  0  0
 18 14  2  0  0  0  0
 20  1  1  0  0  0  0
 21 27  1  1  0  0  0
 21  8  1  0  0  0  0
 21 25  1  0  0  0  0
 22  1  1  0  0  0  0
 23 33  1  1  0  0  0
 23  4  1  0  0  0  0
 23 24  1  0  0  0  0
 24 19  1  1  0  0  0
 25 13  1  0  0  0  0
 27 26  2  0  0  0  0
 28 27  1  0  0  0  0
 29 31  1  0  0  0  0
 30 32  2  0  0  0  0
 31 28  2  0  0  0  0
 31 30  1  0  0  0  0
 32 26  1  0  0  0  0
 34 33  1  0  0  0  0
 35 36  1  0  0  0  0
 36 37  1  0  0  0  0
M  END
>  <MODEL>
3

>  <REMARK>
 VINA RESULT:      -5.8      1.434      1.880
  Name = 
  4 active torsions:
  status: ('A' for Active; 'I' for Inactive)
    1  A    between atoms: O_1  and  C_5
    2  A    between atoms: O_1  and  C_12
    3  A    between atoms: C_6  and  C_31
    4  A    between atoms: C_11  and  C_33
                            x       y       z     vdW  Elec       q    Type
                         _______ _______ _______ _____ _____    ______ ____

>  <TORSDO>
F 4

$$$$
=
 OpenBabel10272414453D

 37 42  0  0  1  0  0  0  0  0999 V2000
  190.1360  177.5630  142.2380 C   0  0  0  0  0  2  0  0  0  0  0  0
  186.7780  178.0930  139.1340 C   0  0  1  0  0  3  0  0  0  0  0  0
  190.5970  175.8000  136.3950 C   0  0  2  0  0  3  0  0  0  0  0  0
  187.0590  177.1190  135.8120 C   0  0  1  0  0  3  0  0  0  0  0  0
  187.9450  178.3350  141.2840 C   0  0  2  0  0  3  0  0  0  0  0  0
  186.7310  178.4860  137.7960 O   0  0  0  0  0  0  0  0  0  0  0  0
  187.9880  178.7370  139.8070 C   0  0  1  0  0  3  0  0  0  0  0  0
  186.2590  177.3600  137.1080 C   0  0  1  0  0  3  0  0  0  0  0  0
  186.7370  178.8280  141.8600 O   0  0  0  0  0  0  0  0  0  0  0  0
  190.4630  175.1470  134.7000 S   0  0  0  0  0  0  0  0  0  0  0  0
  189.2600  178.2830  139.1040 C   0  0  0  0  0  2  0  0  0  0  0  0
  190.8730  176.5380  140.0010 C   0  0  0  0  0  2  0  0  0  0  0  0
  184.1580  178.0370  139.2600 C   0  0  0  0  0  2  0  0  0  0  0  0
  185.5190  178.7160  141.1670 C   0  0  0  0  0  3  0  0  0  0  0  0
  189.5020  176.8110  139.4020 C   0  0  2  0  0  3  0  0  0  0  0  0
  188.8160  175.8830  134.5170 C   0  0  0  0  0  2  0  0  0  0  0  0
  187.5570  178.4240  135.1860 C   0  0  0  0  0  1  0  0  0  0  0  0
  185.4840  178.4050  139.8620 C   0  0  0  0  0  0  0  0  0  0  0  0
  189.0160  175.8500  138.3190 C   0  0  0  0  0  2  0  0  0  0  0  0
  189.1790  178.7510  142.0800 C   0  0  0  0  0  2  0  0  0  0  0  0
  184.7610  177.5290  136.8070 C   0  0  2  0  0  3  0  0  0  0  0  0
  191.2010  177.5220  141.1370 C   0  0  0  0  0  2  0  0  0  0  0  0
  188.1410  176.0020  135.8860 C   0  0  1  0  0  0  0  0  0  0  0  0
  189.2640  176.3530  136.8930 C   0  0  2  0  0  3  0  0  0  0  0  0
  184.0190  178.4540  137.7920 C   0  0  0  0  0  2  0  0  0  0  0  0
  182.8960  176.1470  135.8820 C   0  0  0  0  0  3  0  0  0  0  0  0
  184.0680  176.2110  136.6430 C   0  0  0  0  0  0  0  0  0  0  0  0
  184.5670  175.0470  137.2480 C   0  0  0  0  0  3  0  0  0  0  0  0
  184.4370  172.5980  137.7210 C   0  0  0  0  0  1  0  0  0  0  0  0
  182.7330  173.7700  136.3180 C   0  0  0  0  0  3  0  0  0  0  0  0
  183.9020  173.8290  137.0830 C   0  0  0  0  0  0  0  0  0  0  0  0
  182.2300  174.9290  135.7180 C   0  0  0  0  0  3  0  0  0  0  0  0
  187.4900  174.6440  136.2220 C   0  0  0  0  0  2  0  0  0  0  0  0
  187.0250  173.8760  134.9910 C   0  0  0  0  0  1  0  0  0  0  0  0
  191.6800  176.6900  136.5740 O   0  0  0  0  0  0  0  0  0  0  0  0
  192.8170  175.9550  136.9480 C   0  0  0  0  0  2  0  0  0  0  0  0
  193.8080  176.8280  137.3900 O   0  0  0  0  0  1  0  0  0  0  0  0
  2  6  1  6  0  0  0
  2  7  1  0  0  0  0
  2 18  1  0  0  0  0
  3 35  1  6  0  0  0
  3 24  1  0  0  0  0
  4 17  1  1  0  0  0
  4 23  1  0  0  0  0
  4  8  1  0  0  0  0
  5  9  1  0  0  0  0
  5 20  1  1  0  0  0
  7 11  1  6  0  0  0
  7  5  1  0  0  0  0
  8  6  1  6  0  0  0
 10  3  1  0  0  0  0
 11 15  1  0  0  0  0
 12 22  1  0  0  0  0
 13 18  1  0  0  0  0
 14  9  1  0  0  0  0
 15 19  1  6  0  0  0
 15 12  1  0  0  0  0
 16 10  1  0  0  0  0
 16 23  1  0  0  0  0
 18 14  2  0  0  0  0
 20  1  1  0  0  0  0
 21 27  1  1  0  0  0
 21  8  1  0  0  0  0
 21 25  1  0  0  0  0
 22  1  1  0  0  0  0
 23 33  1  1  0  0  0
 23 24  1  0  0  0  0
 24 19  1  1  0  0  0
 25 13  1  0  0  0  0
 26 27  1  0  0  0  0
 27 28  2  0  0  0  0
 30 31  2  0  0  0  0
 31 28  1  0  0  0  0
 31 29  1  0  0  0  0
 32 26  2  0  0  0  0
 32 30  1  0  0  0  0
 34 33  1  0  0  0  0
 35 36  1  0  0  0  0
 36 37  1  0  0  0  0
M  END
>  <MODEL>
4

>  <REMARK>
 VINA RESULT:      -5.4      1.733      2.338
  Name = 
  4 active torsions:
  status: ('A' for Active; 'I' for Inactive)
    1  A    between atoms: O_1  and  C_5
    2  A    between atoms: O_1  and  C_12
    3  A    between atoms: C_6  and  C_31
    4  A    between atoms: C_11  and  C_33
                            x       y       z     vdW  Elec       q    Type
                         _______ _______ _______ _____ _____    ______ ____

>  <TORSDO>
F 4

$$$$
=
 OpenBabel10272414453D

 37 42  0  0  1  0  0  0  0  0999 V2000
  187.9050  173.3750  136.8940 C   0  0  0  0  0  2  0  0  0  0  0  0
  185.3030  177.0870  137.6950 C   0  0  1  0  0  3  0  0  0  0  0  0
  181.7850  173.3220  136.8040 C   0  0  2  0  0  3  0  0  0  0  0  0
  181.8310  177.0570  137.6100 C   0  0  1  0  0  3  0  0  0  0  0  0
  187.3550  175.7910  137.3030 C   0  0  2  0  0  3  0  0  0  0  0  0
  184.1460  177.6170  137.1230 O   0  0  0  0  0  0  0  0  0  0  0  0
  186.0630  176.2810  136.6440 C   0  0  1  0  0  3  0  0  0  0  0  0
  183.1860  177.5660  138.1420 C   0  0  1  0  0  3  0  0  0  0  0  0
  188.1220  176.9220  137.7100 O   0  0  0  0  0  0  0  0  0  0  0  0
  179.9840  173.4540  137.0410 S   0  0  0  0  0  0  0  0  0  0  0  0
  185.1820  175.1440  136.1440 C   0  0  0  0  0  2  0  0  0  0  0  0
  185.4250  172.7090  136.8250 C   0  0  0  0  0  2  0  0  0  0  0  0
  185.5640  179.1940  139.2370 C   0  0  0  0  0  2  0  0  0  0  0  0
  187.5010  178.0170  138.3350 C   0  0  0  0  0  3  0  0  0  0  0  0
  185.0170  174.1110  137.2480 C   0  0  2  0  0  3  0  0  0  0  0  0
  180.1260  175.2370  137.3380 C   0  0  0  0  0  2  0  0  0  0  0  0
  181.5900  177.4600  136.1540 C   0  0  0  0  0  1  0  0  0  0  0  0
  186.1670  178.1630  138.3260 C   0  0  0  0  0  0  0  0  0  0  0  0
  183.7290  174.2420  138.0600 C   0  0  0  0  0  2  0  0  0  0  0  0
  188.1620  174.8190  136.4470 C   0  0  0  0  0  2  0  0  0  0  0  0
  183.0390  178.9550  138.7830 C   0  0  2  0  0  3  0  0  0  0  0  0
  186.7790  172.7100  136.0950 C   0  0  0  0  0  2  0  0  0  0  0  0
  181.5070  175.5640  137.9120 C   0  0  1  0  0  0  0  0  0  0  0  0
  182.5030  174.6050  137.2160 C   0  0  2  0  0  3  0  0  0  0  0  0
  184.2950  179.8400  138.6700 C   0  0  0  0  0  2  0  0  0  0  0  0
  181.1580  178.9630  140.4300 C   0  0  0  0  0  3  0  0  0  0  0  0
  182.5350  178.8730  140.1920 C   0  0  0  0  0  0  0  0  0  0  0  0
  183.4170  178.7200  141.2730 C   0  0  0  0  0  3  0  0  0  0  0  0
  183.8610  178.4810  143.7180 C   0  0  0  0  0  1  0  0  0  0  0  0
  181.5470  178.7360  142.8090 C   0  0  0  0  0  3  0  0  0  0  0  0
  182.9230  178.6490  142.5780 C   0  0  0  0  0  0  0  0  0  0  0  0
  180.6650  178.8940  141.7360 C   0  0  0  0  0  3  0  0  0  0  0  0
  181.4650  175.3200  139.4360 C   0  0  0  0  0  2  0  0  0  0  0  0
  180.0930  175.5680  140.0490 C   0  0  0  0  0  1  0  0  0  0  0  0
  182.1540  172.8550  135.5230 O   0  0  0  0  0  0  0  0  0  0  0  0
  182.0040  171.4590  135.4860 C   0  0  0  0  0  2  0  0  0  0  0  0
  182.5800  170.9010  136.6260 O   0  0  0  0  0  1  0  0  0  0  0  0
  2  6  1  6  0  0  0
  2 18  1  0  0  0  0
  3 35  1  6  0  0  0
  3 10  1  0  0  0  0
  3 24  1  0  0  0  0
  4 17  1  6  0  0  0
  4 23  1  0  0  0  0
  4  8  1  0  0  0  0
  5 20  1  6  0  0  0
  5  9  1  0  0  0  0
  7 11  1  1  0  0  0
  7  5  1  0  0  0  0
  7  2  1  0  0  0  0
  8  6  1  6  0  0  0
  8 21  1  0  0  0  0
  9 14  1  0  0  0  0
 10 16  1  0  0  0  0
 12 15  1  0  0  0  0
 15 11  1  6  0  0  0
 15 19  1  0  0  0  0
 16 23  1  0  0  0  0
 18 14  2  0  0  0  0
 18 13  1  0  0  0  0
 20  1  1  0  0  0  0
 21 27  1  1  0  0  0
 22 12  1  0  0  0  0
 22  1  1  0  0  0  0
 23 33  1  1  0  0  0
 24 23  1  0  0  0  0
 24 19  1  1  0  0  0
 25 21  1  0  0  0  0
 25 13  1  0  0  0  0
 26 32  1  0  0  0  0
 27 26  2  0  0  0  0
 27 28  1  0  0  0  0
 28 31  2  0  0  0  0
 31 30  1  0  0  0  0
 31 29  1  0  0  0  0
 32 30  2  0  0  0  0
 33 34  1  0  0  0  0
 36 35  1  0  0  0  0
 36 37  1  0  0  0  0
M  END
>  <MODEL>
5

>  <REMARK>
 VINA RESULT:      -5.2      3.833      7.826
  Name = 
  4 active torsions:
  status: ('A' for Active; 'I' for Inactive)
    1  A    between atoms: O_1  and  C_5
    2  A    between atoms: O_1  and  C_12
    3  A    between atoms: C_6  and  C_31
    4  A    between atoms: C_11  and  C_33
                            x       y       z     vdW  Elec       q    Type
                         _______ _______ _______ _____ _____    ______ ____

>  <TORSDO>
F 4

$$$$
=
 OpenBabel10272414453D

 37 42  0  0  1  0  0  0  0  0999 V2000
  187.6040  170.8640  135.5580 C   0  0  0  0  0  2  0  0  0  0  0  0
  187.0890  175.3980  136.1730 C   0  0  1  0  0  3  0  0  0  0  0  0
  182.1980  173.5770  136.5030 C   0  0  2  0  0  3  0  0  0  0  0  0
  184.0150  176.9340  136.6760 C   0  0  1  0  0  3  0  0  0  0  0  0
  188.2450  173.2910  135.6580 C   0  0  2  0  0  3  0  0  0  0  0  0
  186.1750  176.3520  135.7240 O   0  0  0  0  0  0  0  0  0  0  0  0
  187.1770  174.2640  135.1530 C   0  0  1  0  0  3  0  0  0  0  0  0
  185.5380  176.8120  136.8840 C   0  0  1  0  0  3  0  0  0  0  0  0
  189.4920  173.9790  135.7420 O   0  0  0  0  0  0  0  0  0  0  0  0
  180.7290  174.5240  137.0140 S   0  0  0  0  0  0  0  0  0  0  0  0
  185.8080  173.6160  134.9980 C   0  0  0  0  0  2  0  0  0  0  0  0
  185.1300  171.3890  136.0130 C   0  0  0  0  0  2  0  0  0  0  0  0
  188.5610  177.2620  137.2880 C   0  0  0  0  0  2  0  0  0  0  0  0
  189.5550  175.2770  136.2770 C   0  0  0  0  0  3  0  0  0  0  0  0
  185.4660  172.8500  136.2670 C   0  0  2  0  0  3  0  0  0  0  0  0
  181.6820  176.0670  136.9910 C   0  0  0  0  0  2  0  0  0  0  0  0
  183.6530  177.3000  135.2350 C   0  0  0  0  0  1  0  0  0  0  0  0
  188.4460  176.0080  136.4680 C   0  0  0  0  0  0  0  0  0  0  0  0
  184.5740  173.6040  137.2500 C   0  0  0  0  0  2  0  0  0  0  0  0
  188.3480  172.0020  134.8470 C   0  0  0  0  0  2  0  0  0  0  0  0
  186.1460  178.1580  137.3080 C   0  0  2  0  0  3  0  0  0  0  0  0
  186.1550  170.7260  135.0770 C   0  0  0  0  0  2  0  0  0  0  0  0
  183.1590  175.7750  137.2650 C   0  0  1  0  0  0  0  0  0  0  0  0
  183.4680  174.4220  136.5760 C   0  0  2  0  0  3  0  0  0  0  0  0
  187.6000  178.3700  136.8440 C   0  0  0  0  0  2  0  0  0  0  0  0
  184.7630  178.9140  139.2490 C   0  0  0  0  0  3  0  0  0  0  0  0
  185.9810  178.4120  138.7760 C   0  0  0  0  0  0  0  0  0  0  0  0
  187.0280  178.1670  139.6780 C   0  0  0  0  0  3  0  0  0  0  0  0
  187.9610  178.1480  141.9940 C   0  0  0  0  0  1  0  0  0  0  0  0
  185.6320  178.9110  141.5100 C   0  0  0  0  0  3  0  0  0  0  0  0
  186.8520  178.4140  141.0420 C   0  0  0  0  0  0  0  0  0  0  0  0
  184.5880  179.1620  140.6130 C   0  0  0  0  0  3  0  0  0  0  0  0
  183.3570  175.6820  138.7930 C   0  0  0  0  0  2  0  0  0  0  0  0
  182.2710  176.4000  139.5860 C   0  0  0  0  0  1  0  0  0  0  0  0
  182.0370  172.9050  135.2710 O   0  0  0  0  0  0  0  0  0  0  0  0
  181.4660  171.6450  135.5100 C   0  0  0  0  0  2  0  0  0  0  0  0
  181.7500  171.2470  136.8150 O   0  0  0  0  0  1  0  0  0  0  0  0
  2  6  1  6  0  0  0
  2 18  1  0  0  0  0
  3 35  1  6  0  0  0
  3 24  1  0  0  0  0
  3 10  1  0  0  0  0
  4 17  1  6  0  0  0
  4  8  1  0  0  0  0
  4 23  1  0  0  0  0
  5 20  1  6  0  0  0
  5  9  1  0  0  0  0
  7 11  1  1  0  0  0
  7  5  1  0  0  0  0
  7  2  1  0  0  0  0
  8  6  1  6  0  0  0
  8 21  1  0  0  0  0
  9 14  1  0  0  0  0
 12 15  1  0  0  0  0
 14 18  2  0  0  0  0
 15 11  1  6  0  0  0
 15 19  1  0  0  0  0
 16 10  1  0  0  0  0
 16 23  1  0  0  0  0
 18 13  1  0  0  0  0
 20  1  1  0  0  0  0
 21 27  1  1  0  0  0
 22  1  1  0  0  0  0
 22 12  1  0  0  0  0
 23 33  1  1  0  0  0
 24 19  1  1  0  0  0
 24 23  1  0  0  0  0
 25 13  1  0  0  0  0
 25 21  1  0  0  0  0
 26 32  1  0  0  0  0
 27 26  2  0  0  0  0
 27 28  1  0  0  0  0
 28 31  2  0  0  0  0
 31 30  1  0  0  0  0
 31 29  1  0  0  0  0
 32 30  2  0  0  0  0
 33 34  1  0  0  0  0
 35 36  1  0  0  0  0
 36 37  1  0  0  0  0
M  END
>  <MODEL>
6

>  <REMARK>
 VINA RESULT:      -5.1      3.655      8.051
  Name = 
  4 active torsions:
  status: ('A' for Active; 'I' for Inactive)
    1  A    between atoms: O_1  and  C_5
    2  A    between atoms: O_1  and  C_12
    3  A    between atoms: C_6  and  C_31
    4  A    between atoms: C_11  and  C_33
                            x       y       z     vdW  Elec       q    Type
                         _______ _______ _______ _____ _____    ______ ____

>  <TORSDO>
F 4

$$$$
=
 OpenBabel10272414453D

 37 42  0  0  1  0  0  0  0  0999 V2000
  185.2630  173.8130  135.1690 C   0  0  0  0  0  2  0  0  0  0  0  0
  186.6010  177.1050  138.0960 C   0  0  1  0  0  3  0  0  0  0  0  0
  181.3830  177.4120  138.2450 C   0  0  2  0  0  3  0  0  0  0  0  0
  184.3940  179.1650  139.8140 C   0  0  1  0  0  3  0  0  0  0  0  0
  186.8300  175.3490  136.3920 C   0  0  2  0  0  3  0  0  0  0  0  0
  186.1900  178.4130  138.3580 O   0  0  0  0  0  0  0  0  0  0  0  0
  186.2900  176.7590  136.6410 C   0  0  1  0  0  3  0  0  0  0  0  0
  185.7160  178.3830  139.6760 C   0  0  1  0  0  3  0  0  0  0  0  0
  188.2390  175.3500  136.6100 O   0  0  0  0  0  0  0  0  0  0  0  0
  180.3960  178.4130  139.4030 S   0  0  0  0  0  0  0  0  0  0  0  0
  184.7910  176.8730  136.4040 C   0  0  0  0  0  2  0  0  0  0  0  0
  183.1930  174.9060  136.2290 C   0  0  0  0  0  2  0  0  0  0  0  0
  188.6230  177.3590  139.7490 C   0  0  0  0  0  2  0  0  0  0  0  0
  188.7890  176.0210  137.7160 C   0  0  0  0  0  3  0  0  0  0  0  0
  184.0770  175.7460  137.1360 C   0  0  2  0  0  3  0  0  0  0  0  0
  181.8950  179.2290  140.0180 C   0  0  0  0  0  2  0  0  0  0  0  0
  184.3160  180.3480  138.8460 C   0  0  0  0  0  1  0  0  0  0  0  0
  188.0640  176.8930  138.4350 C   0  0  0  0  0  0  0  0  0  0  0  0
  183.5040  176.1310  138.4990 C   0  0  0  0  0  2  0  0  0  0  0  0
  186.4540  174.7690  135.0310 C   0  0  0  0  0  2  0  0  0  0  0  0
  186.7880  178.9430  140.6230 C   0  0  2  0  0  3  0  0  0  0  0  0
  183.9220  174.5160  134.9310 C   0  0  0  0  0  2  0  0  0  0  0  0
  183.1010  178.3000  139.8560 C   0  0  1  0  0  0  0  0  0  0  0  0
  182.8780  177.5290  138.5320 C   0  0  2  0  0  3  0  0  0  0  0  0
  188.2310  178.7980  140.1010 C   0  0  0  0  0  2  0  0  0  0  0  0
  187.4810  177.3820  142.4490 C   0  0  0  0  0  3  0  0  0  0  0  0
  186.6390  178.4140  142.0170 C   0  0  0  0  0  0  0  0  0  0  0  0
  185.6660  178.9250  142.8890 C   0  0  0  0  0  3  0  0  0  0  0  0
  184.5150  178.9620  145.1050 C   0  0  0  0  0  1  0  0  0  0  0  0
  186.3900  177.3860  144.6110 C   0  0  0  0  0  3  0  0  0  0  0  0
  185.5430  178.4130  144.1840 C   0  0  0  0  0  0  0  0  0  0  0  0
  187.3580  176.8700  143.7430 C   0  0  0  0  0  3  0  0  0  0  0  0
  183.1350  177.3400  141.0640 C   0  0  0  0  0  2  0  0  0  0  0  0
  182.4550  177.9060  142.3040 C   0  0  0  0  0  1  0  0  0  0  0  0
  181.0490  177.6230  136.8890 O   0  0  0  0  0  0  0  0  0  0  0  0
  181.6660  178.8050  136.4470 C   0  0  0  0  0  2  0  0  0  0  0  0
  180.6910  179.7040  136.0190 O   0  0  0  0  0  1  0  0  0  0  0  0
  2  6  1  6  0  0  0
  2 18  1  0  0  0  0
  3 35  1  6  0  0  0
  3 24  1  0  0  0  0
  3 10  1  0  0  0  0
  4 17  1  6  0  0  0
  4 23  1  0  0  0  0
  5 20  1  6  0  0  0
  5  9  1  0  0  0  0
  5  7  1  0  0  0  0
  7 11  1  1  0  0  0
  7  2  1  0  0  0  0
  8  6  1  6  0  0  0
  8  4  1  0  0  0  0
  8 21  1  0  0  0  0
  9 14  1  0  0  0  0
 10 16  1  0  0  0  0
 11 15  1  0  0  0  0
 13 25  1  0  0  0  0
 14 18  2  0  0  0  0
 15 12  1  6  0  0  0
 15 19  1  0  0  0  0
 18 13  1  0  0  0  0
 20  1  1  0  0  0  0
 21 27  1  1  0  0  0
 22  1  1  0  0  0  0
 22 12  1  0  0  0  0
 23 16  1  0  0  0  0
 23 33  1  1  0  0  0
 24 19  1  1  0  0  0
 24 23  1  0  0  0  0
 25 21  1  0  0  0  0
 26 32  1  0  0  0  0
 27 26  2  0  0  0  0
 27 28  1  0  0  0  0
 28 31  2  0  0  0  0
 31 30  1  0  0  0  0
 31 29  1  0  0  0  0
 32 30  2  0  0  0  0
 33 34  1  0  0  0  0
 36 35  1  0  0  0  0
 37 36  1  0  0  0  0
M  END
>  <MODEL>
7

>  <REMARK>
 VINA RESULT:      -4.6      3.102      8.020
  Name = 
  4 active torsions:
  status: ('A' for Active; 'I' for Inactive)
    1  A    between atoms: O_1  and  C_5
    2  A    between atoms: O_1  and  C_12
    3  A    between atoms: C_6  and  C_31
    4  A    between atoms: C_11  and  C_33
                            x       y       z     vdW  Elec       q    Type
                         _______ _______ _______ _____ _____    ______ ____

>  <TORSDO>
F 4

$$$$
=
 OpenBabel10272414453D

 37 42  0  0  1  0  0  0  0  0999 V2000
  185.2020  177.8720  144.7080 C   0  0  0  0  0  2  0  0  0  0  0  0
  185.6620  178.1110  140.1330 C   0  0  1  0  0  3  0  0  0  0  0  0
  190.5950  177.6900  141.8160 C   0  0  2  0  0  3  0  0  0  0  0  0
  188.7270  178.0390  138.5010 C   0  0  1  0  0  3  0  0  0  0  0  0
  184.5220  178.1820  142.3100 C   0  0  2  0  0  3  0  0  0  0  0  0
  186.5370  178.7670  139.2670 O   0  0  0  0  0  0  0  0  0  0  0  0
  185.5490  178.9040  141.4330 C   0  0  1  0  0  3  0  0  0  0  0  0
  187.2170  177.7410  138.5990 C   0  0  1  0  0  3  0  0  0  0  0  0
  183.2680  178.1640  141.6300 O   0  0  0  0  0  0  0  0  0  0  0  0
  192.0680  177.4290  140.7780 S   0  0  0  0  0  0  0  0  0  0  0  0
  186.9210  179.0040  142.0850 C   0  0  0  0  0  2  0  0  0  0  0  0
  187.6840  177.6370  144.0860 C   0  0  0  0  0  2  0  0  0  0  0  0
  184.2080  177.2820  138.1120 C   0  0  0  0  0  2  0  0  0  0  0  0
  183.2050  177.8700  140.2570 C   0  0  0  0  0  3  0  0  0  0  0  0
  187.3330  177.6360  142.6060 C   0  0  2  0  0  3  0  0  0  0  0  0
  191.0870  177.6850  139.2740 C   0  0  0  0  0  2  0  0  0  0  0  0
  189.0160  179.5390  138.3990 C   0  0  0  0  0  1  0  0  0  0  0  0
  184.3090  177.8660  139.4920 C   0  0  0  0  0  0  0  0  0  0  0  0
  188.2550  176.8480  141.6770 C   0  0  0  0  0  2  0  0  0  0  0  0
  184.4070  178.7410  143.7260 C   0  0  0  0  0  2  0  0  0  0  0  0
  186.6050  177.5380  137.2040 C   0  0  2  0  0  3  0  0  0  0  0  0
  186.6300  178.3890  144.9170 C   0  0  0  0  0  2  0  0  0  0  0  0
  189.6290  177.2920  139.5260 C   0  0  1  0  0  0  0  0  0  0  0  0
  189.3150  177.7110  140.9840 C   0  0  2  0  0  3  0  0  0  0  0  0
  185.1270  177.9630  137.0940 C   0  0  0  0  0  2  0  0  0  0  0  0
  185.9990  175.1140  137.1300 C   0  0  0  0  0  3  0  0  0  0  0  0
  186.8300  176.1500  136.6870 C   0  0  0  0  0  0  0  0  0  0  0  0
  187.8630  175.8700  135.7790 C   0  0  0  0  0  3  0  0  0  0  0  0
  189.1470  174.2770  134.3480 C   0  0  0  0  0  1  0  0  0  0  0  0
  187.2200  173.5370  135.7560 C   0  0  0  0  0  3  0  0  0  0  0  0
  188.0550  174.5670  135.3130 C   0  0  0  0  0  0  0  0  0  0  0  0
  186.1930  173.8100  136.6640 C   0  0  0  0  0  3  0  0  0  0  0  0
  189.5020  175.7650  139.3420 C   0  0  0  0  0  2  0  0  0  0  0  0
  190.2830  175.2350  138.1470 C   0  0  0  0  0  1  0  0  0  0  0  0
  190.7120  178.7870  142.6980 O   0  0  0  0  0  0  0  0  0  0  0  0
  191.0640  178.3120  143.9730 C   0  0  0  0  0  2  0  0  0  0  0  0
  192.2820  178.8690  144.3550 O   0  0  0  0  0  1  0  0  0  0  0  0
  1 22  1  0  0  0  0
  2  6  1  6  0  0  0
  2  7  1  0  0  0  0
  3 35  1  6  0  0  0
  4 17  1  1  0  0  0
  4  8  1  0  0  0  0
  4 23  1  0  0  0  0
  5 20  1  1  0  0  0
  7 11  1  1  0  0  0
  7  5  1  0  0  0  0
  8  6  1  6  0  0  0
  9  5  1  0  0  0  0
 10  3  1  0  0  0  0
 11 15  1  0  0  0  0
 12 22  1  0  0  0  0
 13 18  1  0  0  0  0
 14  9  1  0  0  0  0
 15 19  1  6  0  0  0
 15 12  1  0  0  0  0
 16 23  1  0  0  0  0
 16 10  1  0  0  0  0
 18  2  1  0  0  0  0
 18 14  2  0  0  0  0
 20  1  1  0  0  0  0
 21 27  1  1  0  0  0
 21  8  1  0  0  0  0
 23 33  1  6  0  0  0
 23 24  1  0  0  0  0
 24 19  1  1  0  0  0
 24  3  1  0  0  0  0
 25 21  1  0  0  0  0
 25 13  1  0  0  0  0
 27 26  1  0  0  0  0
 28 27  2  0  0  0  0
 29 31  1  0  0  0  0
 30 32  1  0  0  0  0
 31 30  2  0  0  0  0
 31 28  1  0  0  0  0
 32 26  2  0  0  0  0
 34 33  1  0  0  0  0
 35 36  1  0  0  0  0
 36 37  1  0  0  0  0
M  END
>  <MODEL>
8

>  <REMARK>
 VINA RESULT:      -4.4      1.732      2.684
  Name = 
  4 active torsions:
  status: ('A' for Active; 'I' for Inactive)
    1  A    between atoms: O_1  and  C_5
    2  A    between atoms: O_1  and  C_12
    3  A    between atoms: C_6  and  C_31
    4  A    between atoms: C_11  and  C_33
                            x       y       z     vdW  Elec       q    Type
                         _______ _______ _______ _____ _____    ______ ____

>  <TORSDO>
F 4

$$$$
=
 OpenBabel10272414453D

 37 42  0  0  1  0  0  0  0  0999 V2000
  184.4370  169.9950  136.2720 C   0  0  0  0  0  2  0  0  0  0  0  0
  186.3990  174.0030  135.1400 C   0  0  1  0  0  3  0  0  0  0  0  0
  181.8880  175.4550  137.3510 C   0  0  2  0  0  3  0  0  0  0  0  0
  184.9330  177.0960  135.7270 C   0  0  1  0  0  3  0  0  0  0  0  0
  186.1040  171.5650  135.2390 C   0  0  2  0  0  3  0  0  0  0  0  0
  185.9400  175.2000  134.5880 O   0  0  0  0  0  0  0  0  0  0  0  0
  185.5100  172.8550  134.6680 C   0  0  1  0  0  3  0  0  0  0  0  0
  186.1490  176.1590  135.5870 C   0  0  1  0  0  3  0  0  0  0  0  0
  187.4280  171.4050  134.7360 O   0  0  0  0  0  0  0  0  0  0  0  0
  181.4010  177.1550  137.7860 S   0  0  0  0  0  0  0  0  0  0  0  0
  184.0790  173.1030  135.1220 C   0  0  0  0  0  2  0  0  0  0  0  0
  182.9470  171.9300  137.0710 C   0  0  0  0  0  2  0  0  0  0  0  0
  188.8810  174.8460  135.0270 C   0  0  0  0  0  2  0  0  0  0  0  0
  188.3060  172.5010  134.6780 C   0  0  0  0  0  3  0  0  0  0  0  0
  183.9940  172.9420  136.6330 C   0  0  2  0  0  3  0  0  0  0  0  0
  182.8480  177.8210  136.9200 C   0  0  0  0  0  2  0  0  0  0  0  0
  184.2110  177.3130  134.3950 C   0  0  0  0  0  1  0  0  0  0  0  0
  187.8630  173.7590  134.8270 C   0  0  0  0  0  0  0  0  0  0  0  0
  184.0660  174.2490  137.4210 C   0  0  0  0  0  2  0  0  0  0  0  0
  185.2420  170.3260  135.0090 C   0  0  0  0  0  2  0  0  0  0  0  0
  187.4260  176.9570  135.2790 C   0  0  2  0  0  3  0  0  0  0  0  0
  183.0420  170.6290  136.2550 C   0  0  0  0  0  2  0  0  0  0  0  0
  183.9780  176.7880  136.9180 C   0  0  1  0  0  0  0  0  0  0  0  0
  183.2990  175.4040  136.7700 C   0  0  2  0  0  3  0  0  0  0  0  0
  188.4600  176.1920  134.4290 C   0  0  0  0  0  2  0  0  0  0  0  0
  188.4100  178.8900  136.5220 C   0  0  0  0  0  3  0  0  0  0  0  0
  188.0380  177.5400  136.5170 C   0  0  0  0  0  0  0  0  0  0  0  0
  188.2520  176.7570  137.6610 C   0  0  0  0  0  3  0  0  0  0  0  0
  189.0460  176.4900  140.0130 C   0  0  0  0  0  1  0  0  0  0  0  0
  189.1930  178.6710  138.8030 C   0  0  0  0  0  3  0  0  0  0  0  0
  188.8260  177.3220  138.8020 C   0  0  0  0  0  0  0  0  0  0  0  0
  188.9860  179.4540  137.6640 C   0  0  0  0  0  3  0  0  0  0  0  0
  184.7360  176.9000  138.2580 C   0  0  0  0  0  2  0  0  0  0  0  0
  184.6800  178.2950  138.8680 C   0  0  0  0  0  1  0  0  0  0  0  0
  180.9300  174.7750  136.5680 O   0  0  0  0  0  0  0  0  0  0  0  0
  181.3000  174.8640  135.2150 C   0  0  0  0  0  2  0  0  0  0  0  0
  180.2420  175.3930  134.4790 O   0  0  0  0  0  1  0  0  0  0  0  0
  2  6  1  6  0  0  0
  3 35  1  6  0  0  0
  3 10  1  0  0  0  0
  4 17  1  6  0  0  0
  4 23  1  0  0  0  0
  5 20  1  6  0  0  0
  7 11  1  1  0  0  0
  7  2  1  0  0  0  0
  7  5  1  0  0  0  0
  8  6  1  6  0  0  0
  8  4  1  0  0  0  0
  9  5  1  0  0  0  0
 14  9  1  0  0  0  0
 14 18  2  0  0  0  0
 15 11  1  6  0  0  0
 15 12  1  0  0  0  0
 15 19  1  0  0  0  0
 16 10  1  0  0  0  0
 18 13  1  0  0  0  0
 18  2  1  0  0  0  0
 20  1  1  0  0  0  0
 21  8  1  0  0  0  0
 21 27  1  1  0  0  0
 22  1  1  0  0  0  0
 22 12  1  0  0  0  0
 23 16  1  0  0  0  0
 23 33  1  1  0  0  0
 24 23  1  0  0  0  0
 24  3  1  0  0  0  0
 24 19  1  1  0  0  0
 25 13  1  0  0  0  0
 25 21  1  0  0  0  0
 26 32  1  0  0  0  0
 27 26  2  0  0  0  0
 27 28  1  0  0  0  0
 28 31  2  0  0  0  0
 31 30  1  0  0  0  0
 31 29  1  0  0  0  0
 32 30  2  0  0  0  0
 33 34  1  0  0  0  0
 36 35  1  0  0  0  0
 37 36  1  0  0  0  0
M  END
>  <MODEL>
9

>  <REMARK>
 VINA RESULT:      -4.0      3.997      8.380
  Name = 
  4 active torsions:
  status: ('A' for Active; 'I' for Inactive)
    1  A    between atoms: O_1  and  C_5
    2  A    between atoms: O_1  and  C_12
    3  A    between atoms: C_6  and  C_31
    4  A    between atoms: C_11  and  C_33
                            x       y       z     vdW  Elec       q    Type
                         _______ _______ _______ _____ _____    ______ ____

>  <TORSDO>
F 4

$$$$
