=
 OpenBabel10272401043D

 27 31  0  0  0  0  0  0  0  0999 V2000
  189.0470  179.1050  141.8330 C   0  0  0  0  0  2  0  0  0  0  0  0
  186.9930  178.4580  140.6360 C   0  0  0  0  0  0  0  0  0  0  0  0
  186.5530  178.0560  143.0930 N   0  0  0  0  0  2  0  0  0  0  0  0
  182.6490  179.0210  140.1930 S   0  0  0  0  0  0  0  0  0  0  0  0
  181.1580  178.8460  142.5750 C   0  0  0  0  0  1  0  0  0  0  0  0
  186.4720  178.6900  139.3910 N   0  0  0  0  0  0  0  0  0  0  0  0
  183.7040  178.5820  142.4480 C   0  0  0  0  0  0  0  0  0  0  0  0
  189.1480  176.8840  145.4880 C   0  0  0  0  0  3  0  0  0  0  0  0
  183.8690  178.3690  143.8120 O   0  0  0  0  0  1  0  0  0  0  0  0
  190.3270  177.3470  144.9030 C   0  0  0  0  0  0  0  0  0  0  0  0
  184.7590  178.5990  141.5210 C   0  0  0  0  0  0  0  0  0  0  0  0
  188.4130  178.3360  140.7770 N   0  0  0  0  0  0  0  0  0  0  0  0
  182.4600  178.8050  141.8590 C   0  0  0  0  0  0  0  0  0  0  0  0
  184.3160  178.8310  140.2360 C   0  0  0  0  0  0  0  0  0  0  0  0
  189.0490  178.3100  143.0810 C   0  0  0  0  0  0  0  0  0  0  0  0
  186.1270  178.4020  141.7610 C   0  0  0  0  0  0  0  0  0  0  0  0
  187.9200  177.1280  144.8680 C   0  0  0  0  0  3  0  0  0  0  0  0
  185.1650  178.8710  139.1870 N   0  0  0  0  0  0  0  0  0  0  0  0
  191.5780  177.0990  145.5310 N   0  0  0  0  0  1  0  0  0  0  0  0
  190.2760  178.0630  143.7070 C   0  0  0  0  0  3  0  0  0  0  0  0
  187.8550  177.8280  143.6560 C   0  0  0  0  0  0  0  0  0  0  0  0
  190.7510  175.9630  138.1270 C   0  0  0  0  0  3  0  0  0  0  0  0
  189.2060  177.5200  139.8860 C   0  0  0  0  0  0  0  0  0  0  0  0
  190.5780  177.3250  140.1190 C   0  0  0  0  0  3  0  0  0  0  0  0
  191.3460  176.5490  139.2470 C   0  0  0  0  0  3  0  0  0  0  0  0
  189.3900  176.1540  137.8790 C   0  0  0  0  0  3  0  0  0  0  0  0
  188.6230  176.9290  138.7520 C   0  0  0  0  0  3  0  0  0  0  0  0
  1 15  1  0  0  0  0
  2 12  1  0  0  0  0
  2 16  1  0  0  0  0
  3 21  1  0  0  0  0
  4 14  1  0  0  0  0
  4 13  1  0  0  0  0
  6  2  2  0  0  0  0
  7  9  1  0  0  0  0
 10  8  1  0  0  0  0
 10 19  1  0  0  0  0
 11 16  2  0  0  0  0
 11  7  1  0  0  0  0
 12  1  1  0  0  0  0
 13  7  2  0  0  0  0
 13  5  1  0  0  0  0
 14 11  1  0  0  0  0
 15 21  2  0  0  0  0
 15 20  1  0  0  0  0
 16  3  1  0  0  0  0
 17  8  2  0  0  0  0
 18  6  1  0  0  0  0
 18 14  2  0  0  0  0
 20 10  2  0  0  0  0
 21 17  1  0  0  0  0
 22 25  1  0  0  0  0
 23 24  1  0  0  0  0
 23 12  1  0  0  0  0
 25 24  2  0  0  0  0
 26 22  2  0  0  0  0
 26 27  1  0  0  0  0
 27 23  2  0  0  0  0
M  END
>  <MODEL>
1

>  <REMARK>
 VINA RESULT:      -8.5      0.000      0.000
  Name = 
  1 active torsions:
  status: ('A' for Active; 'I' for Inactive)
    1  A    between atoms: C_9  and  N_15
                            x       y       z     vdW  Elec       q    Type
                         _______ _______ _______ _____ _____    ______ ____

>  <TORSDO>
F 1

$$$$
=
 OpenBabel10272401043D

 27 31  0  0  0  0  0  0  0  0999 V2000
  187.1960  176.4180  143.7150 C   0  0  0  0  0  2  0  0  0  0  0  0
  185.3120  177.9960  143.5440 C   0  0  0  0  0  0  0  0  0  0  0  0
  186.6830  178.2780  141.4380 N   0  0  0  0  0  2  0  0  0  0  0  0
  181.8520  179.3690  141.1910 S   0  0  0  0  0  0  0  0  0  0  0  0
  182.3720  179.8990  138.4740 C   0  0  0  0  0  1  0  0  0  0  0  0
  184.0980  178.1410  144.1600 N   0  0  0  0  0  0  0  0  0  0  0  0
  184.1350  179.0760  140.1420 C   0  0  0  0  0  0  0  0  0  0  0  0
  190.3900  177.9800  141.3370 C   0  0  0  0  0  3  0  0  0  0  0  0
  185.1710  179.0510  139.2170 O   0  0  0  0  0  1  0  0  0  0  0  0
  190.6520  177.1290  142.4110 C   0  0  0  0  0  0  0  0  0  0  0  0
  184.2770  178.7160  141.4930 C   0  0  0  0  0  0  0  0  0  0  0  0
  186.4150  177.4920  144.3040 N   0  0  0  0  0  0  0  0  0  0  0  0
  182.8350  179.4630  139.8180 C   0  0  0  0  0  0  0  0  0  0  0  0
  183.0910  178.8320  142.1880 C   0  0  0  0  0  0  0  0  0  0  0  0
  188.2790  176.9980  142.8900 C   0  0  0  0  0  0  0  0  0  0  0  0
  185.4350  178.2900  142.1590 C   0  0  0  0  0  0  0  0  0  0  0  0
  189.0750  178.3450  141.0420 C   0  0  0  0  0  3  0  0  0  0  0  0
  183.0090  178.5520  143.5060 N   0  0  0  0  0  0  0  0  0  0  0  0
  191.9910  176.7570  142.7140 N   0  0  0  0  0  1  0  0  0  0  0  0
  189.5990  176.6350  143.1800 C   0  0  0  0  0  3  0  0  0  0  0  0
  188.0080  177.8730  141.8180 C   0  0  0  0  0  0  0  0  0  0  0  0
  187.3100  178.9300  148.2090 C   0  0  0  0  0  3  0  0  0  0  0  0
  186.7290  177.9880  145.6250 C   0  0  0  0  0  0  0  0  0  0  0  0
  187.8380  177.4950  146.3340 C   0  0  0  0  0  3  0  0  0  0  0  0
  188.1290  177.9640  147.6170 C   0  0  0  0  0  3  0  0  0  0  0  0
  186.2010  179.4230  147.5190 C   0  0  0  0  0  3  0  0  0  0  0  0
  185.9110  178.9540  146.2350 C   0  0  0  0  0  3  0  0  0  0  0  0
  1 12  1  0  0  0  0
  2  6  1  0  0  0  0
  2 12  1  0  0  0  0
  3 21  1  0  0  0  0
  3 16  1  0  0  0  0
  4 14  1  0  0  0  0
  5 13  1  0  0  0  0
  7 11  1  0  0  0  0
  8 10  1  0  0  0  0
  9  7  1  0  0  0  0
 10 19  1  0  0  0  0
 10 20  2  0  0  0  0
 11 16  1  0  0  0  0
 11 14  2  0  0  0  0
 12 23  1  0  0  0  0
 13  7  2  0  0  0  0
 13  4  1  0  0  0  0
 14 18  1  0  0  0  0
 15 20  1  0  0  0  0
 15  1  1  0  0  0  0
 16  2  2  0  0  0  0
 17  8  2  0  0  0  0
 17 21  1  0  0  0  0
 18  6  2  0  0  0  0
 21 15  2  0  0  0  0
 23 27  2  0  0  0  0
 23 24  1  0  0  0  0
 24 25  2  0  0  0  0
 25 22  1  0  0  0  0
 26 22  2  0  0  0  0
 27 26  1  0  0  0  0
M  END
>  <MODEL>
2

>  <REMARK>
 VINA RESULT:      -8.1      2.280      5.058
  Name = 
  1 active torsions:
  status: ('A' for Active; 'I' for Inactive)
    1  A    between atoms: C_9  and  N_15
                            x       y       z     vdW  Elec       q    Type
                         _______ _______ _______ _____ _____    ______ ____

>  <TORSDO>
F 1

$$$$
=
 OpenBabel10272401043D

 27 31  0  0  0  0  0  0  0  0999 V2000
  189.7910  178.6750  144.3090 C   0  0  0  0  0  2  0  0  0  0  0  0
  190.3760  177.5110  142.2180 C   0  0  0  0  0  0  0  0  0  0  0  0
  187.8780  177.8990  142.1520 N   0  0  0  0  0  2  0  0  0  0  0  0
  190.2580  177.5510  137.8160 S   0  0  0  0  0  0  0  0  0  0  0  0
  187.7300  178.0450  136.6790 C   0  0  0  0  0  1  0  0  0  0  0  0
  191.5290  177.2830  141.5150 N   0  0  0  0  0  0  0  0  0  0  0  0
  188.1820  177.9570  139.2000 C   0  0  0  0  0  0  0  0  0  0  0  0
  185.6950  177.7830  145.1620 C   0  0  0  0  0  3  0  0  0  0  0  0
  186.8650  178.2150  139.5650 O   0  0  0  0  0  1  0  0  0  0  0  0
  186.5780  178.1230  146.1870 C   0  0  0  0  0  0  0  0  0  0  0  0
  189.2270  177.7550  140.1170 C   0  0  0  0  0  0  0  0  0  0  0  0
  190.4380  177.5550  143.6480 N   0  0  0  0  0  0  0  0  0  0  0  0
  188.6000  177.8770  137.8730 C   0  0  0  0  0  0  0  0  0  0  0  0
  190.4310  177.5200  139.4860 C   0  0  0  0  0  0  0  0  0  0  0  0
  188.3750  178.3340  144.5730 C   0  0  0  0  0  0  0  0  0  0  0  0
  189.1640  177.7570  141.5180 C   0  0  0  0  0  0  0  0  0  0  0  0
  186.1500  177.7140  143.8440 C   0  0  0  0  0  3  0  0  0  0  0  0
  191.5630  177.2820  140.1810 N   0  0  0  0  0  0  0  0  0  0  0  0
  186.1170  178.1940  147.5300 N   0  0  0  0  0  1  0  0  0  0  0  0
  187.9120  178.4030  145.8910 C   0  0  0  0  0  3  0  0  0  0  0  0
  187.4920  177.9720  143.5350 C   0  0  0  0  0  0  0  0  0  0  0  0
  192.4940  174.6110  145.9320 C   0  0  0  0  0  3  0  0  0  0  0  0
  191.1470  176.5600  144.4180 C   0  0  0  0  0  0  0  0  0  0  0  0
  191.5360  175.3420  143.8340 C   0  0  0  0  0  3  0  0  0  0  0  0
  192.2070  174.3740  144.5850 C   0  0  0  0  0  3  0  0  0  0  0  0
  192.1070  175.8140  146.5270 C   0  0  0  0  0  3  0  0  0  0  0  0
  191.4370  176.7820  145.7750 C   0  0  0  0  0  3  0  0  0  0  0  0
  1 15  1  0  0  0  0
  2 12  1  0  0  0  0
  3 21  1  0  0  0  0
  4 13  1  0  0  0  0
  4 14  1  0  0  0  0
  5 13  1  0  0  0  0
  6  2  2  0  0  0  0
  7  9  1  0  0  0  0
  7 11  1  0  0  0  0
  8 10  1  0  0  0  0
 10 19  1  0  0  0  0
 11 16  2  0  0  0  0
 12  1  1  0  0  0  0
 12 23  1  0  0  0  0
 13  7  2  0  0  0  0
 14 11  1  0  0  0  0
 14 18  2  0  0  0  0
 15 20  1  0  0  0  0
 16  3  1  0  0  0  0
 16  2  1  0  0  0  0
 17  8  2  0  0  0  0
 18  6  1  0  0  0  0
 20 10  2  0  0  0  0
 21 17  1  0  0  0  0
 21 15  2  0  0  0  0
 22 26  1  0  0  0  0
 23 27  1  0  0  0  0
 24 23  2  0  0  0  0
 24 25  1  0  0  0  0
 25 22  2  0  0  0  0
 27 26  2  0  0  0  0
M  END
>  <MODEL>
3

>  <REMARK>
 VINA RESULT:      -8.1      2.998      5.470
  Name = 
  1 active torsions:
  status: ('A' for Active; 'I' for Inactive)
    1  A    between atoms: C_9  and  N_15
                            x       y       z     vdW  Elec       q    Type
                         _______ _______ _______ _____ _____    ______ ____

>  <TORSDO>
F 1

$$$$
=
 OpenBabel10272401043D

 27 31  0  0  0  0  0  0  0  0999 V2000
  184.4940  179.4810  140.9660 C   0  0  0  0  0  2  0  0  0  0  0  0
  186.6070  178.5170  140.1420 C   0  0  0  0  0  0  0  0  0  0  0  0
  184.7800  177.6620  138.6170 N   0  0  0  0  0  2  0  0  0  0  0  0
  189.3550  178.0210  136.7390 S   0  0  0  0  0  0  0  0  0  0  0  0
  188.1680  177.1270  134.3460 C   0  0  0  0  0  1  0  0  0  0  0  0
  187.9380  178.7890  140.3110 N   0  0  0  0  0  0  0  0  0  0  0  0
  186.8830  177.5380  136.5250 C   0  0  0  0  0  0  0  0  0  0  0  0
  181.3400  176.8480  139.7750 C   0  0  0  0  0  3  0  0  0  0  0  0
  185.6460  177.1770  136.0030 O   0  0  0  0  0  1  0  0  0  0  0  0
  181.1950  177.6750  140.8890 C   0  0  0  0  0  0  0  0  0  0  0  0
  187.0850  177.9570  137.8510 C   0  0  0  0  0  0  0  0  0  0  0  0
  185.7130  178.7390  141.2390 N   0  0  0  0  0  0  0  0  0  0  0  0
  188.0580  177.5230  135.7750 C   0  0  0  0  0  0  0  0  0  0  0  0
  188.4070  178.2550  138.1040 C   0  0  0  0  0  0  0  0  0  0  0  0
  183.4340  178.5380  140.5430 C   0  0  0  0  0  0  0  0  0  0  0  0
  186.1350  178.0800  138.8750 C   0  0  0  0  0  0  0  0  0  0  0  0
  182.5320  176.8620  139.0480 C   0  0  0  0  0  3  0  0  0  0  0  0
  188.8240  178.6610  139.3220 N   0  0  0  0  0  0  0  0  0  0  0  0
  179.9820  177.6630  141.6320 N   0  0  0  0  0  1  0  0  0  0  0  0
  182.2370  178.5220  141.2680 C   0  0  0  0  0  3  0  0  0  0  0  0
  183.5950  177.6920  139.4280 C   0  0  0  0  0  0  0  0  0  0  0  0
  186.6300  177.4420  145.1880 C   0  0  0  0  0  3  0  0  0  0  0  0
  186.0140  178.2900  142.5790 C   0  0  0  0  0  0  0  0  0  0  0  0
  185.2480  178.7270  143.6730 C   0  0  0  0  0  3  0  0  0  0  0  0
  185.5520  178.3040  144.9700 C   0  0  0  0  0  3  0  0  0  0  0  0
  187.4040  177.0050  144.1100 C   0  0  0  0  0  3  0  0  0  0  0  0
  187.0980  177.4280  142.8140 C   0  0  0  0  0  3  0  0  0  0  0  0
  1 12  1  0  0  0  0
  2  6  1  0  0  0  0
  2 12  1  0  0  0  0
  3 16  1  0  0  0  0
  3 21  1  0  0  0  0
  4 14  1  0  0  0  0
  5 13  1  0  0  0  0
  7 11  1  0  0  0  0
  8 10  1  0  0  0  0
  9  7  1  0  0  0  0
 10 20  2  0  0  0  0
 10 19  1  0  0  0  0
 11 14  2  0  0  0  0
 11 16  1  0  0  0  0
 12 23  1  0  0  0  0
 13  7  2  0  0  0  0
 13  4  1  0  0  0  0
 14 18  1  0  0  0  0
 15  1  1  0  0  0  0
 15 20  1  0  0  0  0
 16  2  2  0  0  0  0
 17 21  1  0  0  0  0
 17  8  2  0  0  0  0
 18  6  2  0  0  0  0
 21 15  2  0  0  0  0
 23 27  2  0  0  0  0
 23 24  1  0  0  0  0
 24 25  2  0  0  0  0
 25 22  1  0  0  0  0
 26 22  2  0  0  0  0
 27 26  1  0  0  0  0
M  END
>  <MODEL>
4

>  <REMARK>
 VINA RESULT:      -7.8      3.165      6.916
  Name = 
  1 active torsions:
  status: ('A' for Active; 'I' for Inactive)
    1  A    between atoms: C_9  and  N_15
                            x       y       z     vdW  Elec       q    Type
                         _______ _______ _______ _____ _____    ______ ____

>  <TORSDO>
F 1

$$$$
=
 OpenBabel10272401043D

 27 31  0  0  0  0  0  0  0  0999 V2000
  187.1810  179.4450  140.8990 C   0  0  0  0  0  2  0  0  0  0  0  0
  185.9670  178.6460  142.8890 C   0  0  0  0  0  0  0  0  0  0  0  0
  188.2740  177.6150  142.9890 N   0  0  0  0  0  2  0  0  0  0  0  0
  185.8900  178.3200  147.2790 S   0  0  0  0  0  0  0  0  0  0  0  0
  188.2320  177.2890  148.4560 C   0  0  0  0  0  1  0  0  0  0  0  0
  184.8430  179.0300  143.5690 N   0  0  0  0  0  0  0  0  0  0  0  0
  187.9180  177.6290  145.9360 C   0  0  0  0  0  0  0  0  0  0  0  0
  190.1830  176.5390  139.9830 C   0  0  0  0  0  3  0  0  0  0  0  0
  189.1800  177.1580  145.5940 O   0  0  0  0  0  1  0  0  0  0  0  0
  189.6700  177.3700  138.9870 C   0  0  0  0  0  0  0  0  0  0  0  0
  186.9710  178.0870  145.0040 C   0  0  0  0  0  0  0  0  0  0  0  0
  186.0040  178.8120  141.4670 N   0  0  0  0  0  0  0  0  0  0  0  0
  187.4630  177.6990  147.2520 C   0  0  0  0  0  0  0  0  0  0  0  0
  185.8030  178.4980  145.6130 C   0  0  0  0  0  0  0  0  0  0  0  0
  188.2000  178.4100  140.6110 C   0  0  0  0  0  0  0  0  0  0  0  0
  187.0880  178.1490  143.6080 C   0  0  0  0  0  0  0  0  0  0  0  0
  189.7030  176.6380  141.2900 C   0  0  0  0  0  3  0  0  0  0  0  0
  184.7540  178.9590  144.8990 N   0  0  0  0  0  0  0  0  0  0  0  0
  190.1560  177.2700  137.6550 N   0  0  0  0  0  1  0  0  0  0  0  0
  188.6850  178.3070  139.3030 C   0  0  0  0  0  3  0  0  0  0  0  0
  188.7000  177.5600  141.6180 C   0  0  0  0  0  0  0  0  0  0  0  0
  182.7420  177.6650  138.9830 C   0  0  0  0  0  3  0  0  0  0  0  0
  184.9040  178.4130  140.6180 C   0  0  0  0  0  0  0  0  0  0  0  0
  184.8670  178.7880  139.2650 C   0  0  0  0  0  3  0  0  0  0  0  0
  183.7940  178.4150  138.4510 C   0  0  0  0  0  3  0  0  0  0  0  0
  182.7630  177.2910  140.3290 C   0  0  0  0  0  3  0  0  0  0  0  0
  183.8370  177.6640  141.1410 C   0  0  0  0  0  3  0  0  0  0  0  0
  1 12  1  0  0  0  0
  2  6  2  0  0  0  0
  2 16  1  0  0  0  0
  3 16  1  0  0  0  0
  6 18  1  0  0  0  0
  7 13  2  0  0  0  0
  8 17  1  0  0  0  0
  9  7  1  0  0  0  0
 10 20  1  0  0  0  0
 10  8  2  0  0  0  0
 11 14  1  0  0  0  0
 11  7  1  0  0  0  0
 12  2  1  0  0  0  0
 13  4  1  0  0  0  0
 13  5  1  0  0  0  0
 14  4  1  0  0  0  0
 15  1  1  0  0  0  0
 15 21  1  0  0  0  0
 16 11  2  0  0  0  0
 17 21  2  0  0  0  0
 18 14  2  0  0  0  0
 19 10  1  0  0  0  0
 20 15  2  0  0  0  0
 21  3  1  0  0  0  0
 22 26  1  0  0  0  0
 23 27  1  0  0  0  0
 23 12  1  0  0  0  0
 24 23  2  0  0  0  0
 25 22  2  0  0  0  0
 25 24  1  0  0  0  0
 26 27  2  0  0  0  0
M  END
>  <MODEL>
5

>  <REMARK>
 VINA RESULT:      -7.7      2.629      5.575
  Name = 
  1 active torsions:
  status: ('A' for Active; 'I' for Inactive)
    1  A    between atoms: C_9  and  N_15
                            x       y       z     vdW  Elec       q    Type
                         _______ _______ _______ _____ _____    ______ ____

>  <TORSDO>
F 1

$$$$
=
 OpenBabel10272401043D

 27 31  0  0  0  0  0  0  0  0999 V2000
  188.9810  178.5600  137.9430 C   0  0  0  0  0  2  0  0  0  0  0  0
  188.1250  177.9780  140.1800 C   0  0  0  0  0  0  0  0  0  0  0  0
  190.3640  176.8260  139.9410 N   0  0  0  0  0  2  0  0  0  0  0  0
  188.8540  177.9760  144.5220 S   0  0  0  0  0  0  0  0  0  0  0  0
  191.3270  176.9000  145.3320 C   0  0  0  0  0  1  0  0  0  0  0  0
  187.1660  178.4750  141.0200 N   0  0  0  0  0  0  0  0  0  0  0  0
  190.5640  177.0750  142.8920 C   0  0  0  0  0  0  0  0  0  0  0  0
  191.6310  175.4260  136.7350 C   0  0  0  0  0  3  0  0  0  0  0  0
  191.7190  176.5080  142.3660 O   0  0  0  0  0  1  0  0  0  0  0  0
  190.9770  176.2110  135.7860 C   0  0  0  0  0  0  0  0  0  0  0  0
  189.4810  177.5170  142.1150 C   0  0  0  0  0  0  0  0  0  0  0  0
  187.9030  178.0380  138.7660 N   0  0  0  0  0  0  0  0  0  0  0  0
  190.3660  177.2650  144.2590 C   0  0  0  0  0  0  0  0  0  0  0  0
  188.4660  178.0380  142.8900 C   0  0  0  0  0  0  0  0  0  0  0  0
  189.8820  177.4500  137.5600 C   0  0  0  0  0  0  0  0  0  0  0  0
  189.3380  177.4710  140.7210 C   0  0  0  0  0  0  0  0  0  0  0  0
  191.4070  175.6480  138.0960 C   0  0  0  0  0  3  0  0  0  0  0  0
  187.3230  178.5050  142.3450 N   0  0  0  0  0  0  0  0  0  0  0  0
  191.2010  175.9870  134.4000 N   0  0  0  0  0  1  0  0  0  0  0  0
  190.1100  177.2240  136.1980 C   0  0  0  0  0  3  0  0  0  0  0  0
  190.5240  176.6480  138.5240 C   0  0  0  0  0  0  0  0  0  0  0  0
  184.2120  176.9020  136.9760 C   0  0  0  0  0  3  0  0  0  0  0  0
  186.6490  177.6430  138.1680 C   0  0  0  0  0  0  0  0  0  0  0  0
  186.5700  176.5060  137.3460 C   0  0  0  0  0  3  0  0  0  0  0  0
  185.3600  176.1360  136.7550 C   0  0  0  0  0  3  0  0  0  0  0  0
  184.2770  178.0380  137.7860 C   0  0  0  0  0  3  0  0  0  0  0  0
  185.4880  178.4070  138.3770 C   0  0  0  0  0  3  0  0  0  0  0  0
  1 12  1  0  0  0  0
  2 16  2  0  0  0  0
  2  6  1  0  0  0  0
  3 16  1  0  0  0  0
  6 18  2  0  0  0  0
  7 13  2  0  0  0  0
  8 17  1  0  0  0  0
  9  7  1  0  0  0  0
 10 20  1  0  0  0  0
 10  8  2  0  0  0  0
 11 14  2  0  0  0  0
 11  7  1  0  0  0  0
 12  2  1  0  0  0  0
 13  4  1  0  0  0  0
 13  5  1  0  0  0  0
 14  4  1  0  0  0  0
 15  1  1  0  0  0  0
 15 21  1  0  0  0  0
 16 11  1  0  0  0  0
 17 21  2  0  0  0  0
 18 14  1  0  0  0  0
 19 10  1  0  0  0  0
 20 15  2  0  0  0  0
 21  3  1  0  0  0  0
 22 26  1  0  0  0  0
 23 27  1  0  0  0  0
 23 12  1  0  0  0  0
 24 23  2  0  0  0  0
 25 22  2  0  0  0  0
 25 24  1  0  0  0  0
 26 27  2  0  0  0  0
M  END
>  <MODEL>
6

>  <REMARK>
 VINA RESULT:      -7.5      3.276      6.466
  Name = 
  1 active torsions:
  status: ('A' for Active; 'I' for Inactive)
    1  A    between atoms: C_9  and  N_15
                            x       y       z     vdW  Elec       q    Type
                         _______ _______ _______ _____ _____    ______ ____

>  <TORSDO>
F 1

$$$$
=
 OpenBabel10272401043D

 27 31  0  0  0  0  0  0  0  0999 V2000
  189.3170  176.4620  137.1890 C   0  0  0  0  0  2  0  0  0  0  0  0
  191.5150  175.9210  138.1620 C   0  0  0  0  0  0  0  0  0  0  0  0
  190.6640  173.8020  137.0760 N   0  0  0  0  0  2  0  0  0  0  0  0
  195.5750  174.3660  137.4650 S   0  0  0  0  0  0  0  0  0  0  0  0
  195.7090  171.8970  136.1170 C   0  0  0  0  0  1  0  0  0  0  0  0
  192.5920  176.6390  138.6060 N   0  0  0  0  0  0  0  0  0  0  0  0
  193.5240  173.1090  136.6870 C   0  0  0  0  0  0  0  0  0  0  0  0
  187.0750  172.8240  136.9940 C   0  0  0  0  0  3  0  0  0  0  0  0
  192.7020  172.1420  136.1210 O   0  0  0  0  0  1  0  0  0  0  0  0
  186.4270  174.0570  137.0690 C   0  0  0  0  0  0  0  0  0  0  0  0
  193.0520  174.2780  137.3060 C   0  0  0  0  0  0  0  0  0  0  0  0
  190.2020  176.4640  138.3410 N   0  0  0  0  0  0  0  0  0  0  0  0
  194.9150  173.0140  136.6940 C   0  0  0  0  0  0  0  0  0  0  0  0
  194.0820  175.0640  137.7810 C   0  0  0  0  0  0  0  0  0  0  0  0
  188.5720  175.1840  137.1490 C   0  0  0  0  0  0  0  0  0  0  0  0
  191.7230  174.6880  137.4850 C   0  0  0  0  0  0  0  0  0  0  0  0
  188.4710  172.7690  137.0020 C   0  0  0  0  0  3  0  0  0  0  0  0
  193.8490  176.2260  138.4270 N   0  0  0  0  0  0  0  0  0  0  0  0
  185.0060  174.1150  137.0610 N   0  0  0  0  0  1  0  0  0  0  0  0
  187.1740  175.2330  137.1390 C   0  0  0  0  0  3  0  0  0  0  0  0
  189.2340  173.9410  137.0930 C   0  0  0  0  0  0  0  0  0  0  0  0
  188.9020  178.1250  142.0390 C   0  0  0  0  0  3  0  0  0  0  0  0
  189.7720  177.0360  139.5960 C   0  0  0  0  0  0  0  0  0  0  0  0
  190.3650  176.6420  140.8070 C   0  0  0  0  0  3  0  0  0  0  0  0
  189.9360  177.1850  142.0210 C   0  0  0  0  0  3  0  0  0  0  0  0
  188.2980  178.5210  140.8430 C   0  0  0  0  0  3  0  0  0  0  0  0
  188.7300  177.9780  139.6300 C   0  0  0  0  0  3  0  0  0  0  0  0
  1 12  1  0  0  0  0
  2 12  1  0  0  0  0
  2  6  1  0  0  0  0
  3 21  1  0  0  0  0
  3 16  1  0  0  0  0
  4 14  1  0  0  0  0
  5 13  1  0  0  0  0
  7 13  2  0  0  0  0
  7 11  1  0  0  0  0
  8 17  2  0  0  0  0
  8 10  1  0  0  0  0
  9  7  1  0  0  0  0
 10 20  2  0  0  0  0
 11 16  1  0  0  0  0
 11 14  2  0  0  0  0
 12 23  1  0  0  0  0
 13  4  1  0  0  0  0
 14 18  1  0  0  0  0
 15  1  1  0  0  0  0
 16  2  2  0  0  0  0
 17 21  1  0  0  0  0
 18  6  2  0  0  0  0
 19 10  1  0  0  0  0
 20 15  1  0  0  0  0
 21 15  2  0  0  0  0
 23 27  2  0  0  0  0
 23 24  1  0  0  0  0
 24 25  2  0  0  0  0
 25 22  1  0  0  0  0
 26 22  2  0  0  0  0
 27 26  1  0  0  0  0
M  END
>  <MODEL>
7

>  <REMARK>
 VINA RESULT:      -7.5      5.150      9.042
  Name = 
  1 active torsions:
  status: ('A' for Active; 'I' for Inactive)
    1  A    between atoms: C_9  and  N_15
                            x       y       z     vdW  Elec       q    Type
                         _______ _______ _______ _____ _____    ______ ____

>  <TORSDO>
F 1

$$$$
=
 OpenBabel10272401043D

 27 31  0  0  0  0  0  0  0  0999 V2000
  188.4990  178.7670  139.1820 C   0  0  0  0  0  2  0  0  0  0  0  0
  190.4680  177.2880  139.2600 C   0  0  0  0  0  0  0  0  0  0  0  0
  189.1880  176.6750  137.1680 N   0  0  0  0  0  2  0  0  0  0  0  0
  194.0750  175.8360  137.1920 S   0  0  0  0  0  0  0  0  0  0  0  0
  193.6780  174.9520  134.5480 C   0  0  0  0  0  1  0  0  0  0  0  0
  191.6660  177.2880  139.9230 N   0  0  0  0  0  0  0  0  0  0  0  0
  191.8180  175.8700  136.0520 C   0  0  0  0  0  0  0  0  0  0  0  0
  185.4760  176.7490  136.9270 C   0  0  0  0  0  3  0  0  0  0  0  0
  190.8150  175.7240  135.1020 O   0  0  0  0  0  1  0  0  0  0  0  0
  185.1320  177.7080  137.8790 C   0  0  0  0  0  0  0  0  0  0  0  0
  191.6100  176.3840  137.3430 C   0  0  0  0  0  0  0  0  0  0  0  0
  189.3140  177.8190  139.9210 N   0  0  0  0  0  0  0  0  0  0  0  0
  193.1460  175.5200  135.8140 C   0  0  0  0  0  0  0  0  0  0  0  0
  192.7750  176.4200  138.0800 C   0  0  0  0  0  0  0  0  0  0  0  0
  187.4770  178.0300  138.4050 C   0  0  0  0  0  0  0  0  0  0  0  0
  190.4090  176.8210  137.9190 C   0  0  0  0  0  0  0  0  0  0  0  0
  186.8180  176.4250  136.7160 C   0  0  0  0  0  3  0  0  0  0  0  0
  192.7970  176.8630  139.3550 N   0  0  0  0  0  0  0  0  0  0  0  0
  183.7660  178.0380  138.0970 N   0  0  0  0  0  1  0  0  0  0  0  0
  186.1310  178.3510  138.6110 C   0  0  0  0  0  3  0  0  0  0  0  0
  187.8310  177.0480  137.4580 C   0  0  0  0  0  0  0  0  0  0  0  0
  188.3040  176.7680  143.9200 C   0  0  0  0  0  3  0  0  0  0  0  0
  188.9810  177.4700  141.2830 C   0  0  0  0  0  0  0  0  0  0  0  0
  189.7540  176.5380  141.9970 C   0  0  0  0  0  3  0  0  0  0  0  0
  189.4190  176.1910  143.3080 C   0  0  0  0  0  3  0  0  0  0  0  0
  187.5230  177.6910  143.2210 C   0  0  0  0  0  3  0  0  0  0  0  0
  187.8590  178.0380  141.9100 C   0  0  0  0  0  3  0  0  0  0  0  0
  1 12  1  0  0  0  0
  2 12  1  0  0  0  0
  2  6  1  0  0  0  0
  3 21  1  0  0  0  0
  3 16  1  0  0  0  0
  4 14  1  0  0  0  0
  5 13  1  0  0  0  0
  7 11  1  0  0  0  0
  8 10  1  0  0  0  0
  9  7  1  0  0  0  0
 10 19  1  0  0  0  0
 10 20  2  0  0  0  0
 11 16  1  0  0  0  0
 11 14  2  0  0  0  0
 12 23  1  0  0  0  0
 13  7  2  0  0  0  0
 13  4  1  0  0  0  0
 14 18  1  0  0  0  0
 15 20  1  0  0  0  0
 15  1  1  0  0  0  0
 16  2  2  0  0  0  0
 17  8  2  0  0  0  0
 17 21  1  0  0  0  0
 18  6  2  0  0  0  0
 21 15  2  0  0  0  0
 23 27  2  0  0  0  0
 23 24  1  0  0  0  0
 24 25  2  0  0  0  0
 25 22  1  0  0  0  0
 26 22  2  0  0  0  0
 27 26  1  0  0  0  0
M  END
>  <MODEL>
8

>  <REMARK>
 VINA RESULT:      -7.4      4.189      7.955
  Name = 
  1 active torsions:
  status: ('A' for Active; 'I' for Inactive)
    1  A    between atoms: C_9  and  N_15
                            x       y       z     vdW  Elec       q    Type
                         _______ _______ _______ _____ _____    ______ ____

>  <TORSDO>
F 1

$$$$
=
 OpenBabel10272401043D

 27 31  0  0  0  0  0  0  0  0999 V2000
  188.0400  176.2600  143.7210 C   0  0  0  0  0  2  0  0  0  0  0  0
  186.9600  177.6650  142.0090 C   0  0  0  0  0  0  0  0  0  0  0  0
  189.4520  177.8290  141.6110 N   0  0  0  0  0  2  0  0  0  0  0  0
  186.4580  178.5200  137.7190 S   0  0  0  0  0  0  0  0  0  0  0  0
  188.8480  178.8000  136.2540 C   0  0  0  0  0  1  0  0  0  0  0  0
  185.6980  177.7820  141.4920 N   0  0  0  0  0  0  0  0  0  0  0  0
  188.7490  178.2920  138.7640 C   0  0  0  0  0  0  0  0  0  0  0  0
  191.9820  177.8030  144.3390 C   0  0  0  0  0  3  0  0  0  0  0  0
  190.1290  178.2490  138.9300 O   0  0  0  0  0  1  0  0  0  0  0  0
  191.3300  177.0910  145.3460 C   0  0  0  0  0  0  0  0  0  0  0  0
  187.8250  178.0870  139.8020 C   0  0  0  0  0  0  0  0  0  0  0  0
  187.1110  177.3280  143.3920 N   0  0  0  0  0  0  0  0  0  0  0  0
  188.1400  178.5440  137.5360 C   0  0  0  0  0  0  0  0  0  0  0  0
  186.5220  178.1850  139.3620 C   0  0  0  0  0  0  0  0  0  0  0  0
  189.3920  176.8320  143.9120 C   0  0  0  0  0  0  0  0  0  0  0  0
  188.0850  177.8220  141.1540 C   0  0  0  0  0  0  0  0  0  0  0  0
  191.3390  178.0350  143.1210 C   0  0  0  0  0  3  0  0  0  0  0  0
  185.4750  178.0380  140.2020 N   0  0  0  0  0  0  0  0  0  0  0  0
  191.9820  176.8550  146.5870 N   0  0  0  0  0  1  0  0  0  0  0  0
  190.0410  176.6020  145.1300 C   0  0  0  0  0  3  0  0  0  0  0  0
  190.0370  177.5670  142.8970 C   0  0  0  0  0  0  0  0  0  0  0  0
  184.8370  179.2210  146.4520 C   0  0  0  0  0  3  0  0  0  0  0  0
  186.3470  177.9820  144.4300 C   0  0  0  0  0  0  0  0  0  0  0  0
  186.8290  178.0410  145.7490 C   0  0  0  0  0  3  0  0  0  0  0  0
  186.0800  178.6590  146.7540 C   0  0  0  0  0  3  0  0  0  0  0  0
  184.3430  179.1630  145.1470 C   0  0  0  0  0  3  0  0  0  0  0  0
  185.0930  178.5460  144.1430 C   0  0  0  0  0  3  0  0  0  0  0  0
  1 15  1  0  0  0  0
  2 12  1  0  0  0  0
  3 21  1  0  0  0  0
  4 14  1  0  0  0  0
  5 13  1  0  0  0  0
  6  2  1  0  0  0  0
  7  9  1  0  0  0  0
  7 11  1  0  0  0  0
  8 10  1  0  0  0  0
 10 19  1  0  0  0  0
 11 16  1  0  0  0  0
 12  1  1  0  0  0  0
 12 23  1  0  0  0  0
 13  4  1  0  0  0  0
 13  7  2  0  0  0  0
 14 11  2  0  0  0  0
 14 18  1  0  0  0  0
 15 20  1  0  0  0  0
 16  3  1  0  0  0  0
 16  2  2  0  0  0  0
 17  8  2  0  0  0  0
 18  6  2  0  0  0  0
 20 10  2  0  0  0  0
 21 17  1  0  0  0  0
 21 15  2  0  0  0  0
 22 25  1  0  0  0  0
 23 24  1  0  0  0  0
 24 25  2  0  0  0  0
 26 22  2  0  0  0  0
 27 23  2  0  0  0  0
 27 26  1  0  0  0  0
M  END
>  <MODEL>
9

>  <REMARK>
 VINA RESULT:      -7.3      2.641      5.411
  Name = 
  1 active torsions:
  status: ('A' for Active; 'I' for Inactive)
    1  A    between atoms: C_9  and  N_15
                            x       y       z     vdW  Elec       q    Type
                         _______ _______ _______ _____ _____    ______ ____

>  <TORSDO>
F 1

$$$$
