=
 OpenBabel10272415293D

 34 39  0  0  0  0  0  0  0  0999 V2000
  187.5180  177.7310  144.7690 C   0  0  0  0  0  0  0  0  0  0  0  0
  183.9710  178.8340  145.7940 C   0  0  0  0  0  3  0  0  0  0  0  0
  186.0050  178.4290  147.0310 C   0  0  0  0  0  3  0  0  0  0  0  0
  189.7780  177.0290  144.1000 C   0  0  0  0  0  0  0  0  0  0  0  0
  188.4350  177.3570  143.7580 C   0  0  0  0  0  3  0  0  0  0  0  0
  189.2750  177.4540  146.4070 C   0  0  0  0  0  0  0  0  0  0  0  0
  189.4110  177.5870  147.7460 N   0  0  0  0  0  0  0  0  0  0  0  0
  190.2160  177.0810  145.4490 C   0  0  0  0  0  3  0  0  0  0  0  0
  187.3080  178.0810  147.1160 N   0  0  0  0  0  0  0  0  0  0  0  0
  188.0140  177.7520  146.0530 C   0  0  0  0  0  0  0  0  0  0  0  0
  188.1650  177.9790  148.1600 C   0  0  0  0  0  3  0  0  0  0  0  0
  183.0830  178.9600  144.8160 C   0  0  0  0  0  3  0  0  0  0  0  0
  183.2360  178.7410  143.3730 C   0  0  0  0  0  0  0  0  0  0  0  0
  184.3630  178.3560  142.7750 C   0  0  0  0  0  3  0  0  0  0  0  0
  185.3850  178.4410  145.7560 C   0  0  0  0  0  0  0  0  0  0  0  0
  185.6840  178.0610  143.3370 C   0  0  0  0  0  3  0  0  0  0  0  0
  186.1530  178.0850  144.5900 C   0  0  0  0  0  0  0  0  0  0  0  0
  182.0450  178.9650  142.5260 C   0  0  0  0  0  0  0  0  0  0  0  0
  182.0030  178.4630  141.1930 N   0  0  0  0  0  1  0  0  0  0  0  0
  181.0520  179.6020  142.9700 O   0  0  0  0  0  0  0  0  0  0  0  0
  190.7440  176.6630  143.0250 C   0  0  0  0  0  2  0  0  0  0  0  0
  188.8150  178.5110  140.3470 C   0  0  0  0  0  3  0  0  0  0  0  0
  190.7320  176.4940  140.5280 C   0  0  0  0  0  3  0  0  0  0  0  0
  188.2370  177.3540  137.0630 N   0  0  0  0  0  0  0  0  0  0  0  0
  189.1490  176.4270  136.4730 C   0  0  0  0  0  0  0  0  0  0  0  0
  188.7580  178.4400  137.8810 C   0  0  0  0  0  2  0  0  0  0  0  0
  188.7370  175.5020  135.7210 O   0  0  0  0  0  0  0  0  0  0  0  0
  189.3000  177.9190  139.1750 C   0  0  0  0  0  0  0  0  0  0  0  0
  186.8000  177.2230  136.8820 C   0  0  0  0  0  1  0  0  0  0  0  0
  190.8360  176.2260  138.1540 O   0  0  0  0  0  0  0  0  0  0  0  0
  190.2840  176.8940  139.2630 C   0  0  0  0  0  0  0  0  0  0  0  0
  190.6020  176.5410  136.7850 C   0  0  0  0  0  2  0  0  0  0  0  0
  190.2320  177.0870  141.6890 C   0  0  0  0  0  0  0  0  0  0  0  0
  189.2760  178.1000  141.5970 C   0  0  0  0  0  3  0  0  0  0  0  0
  1 10  1  0  0  0  0
  3  9  1  0  0  0  0
  4  8  2  0  0  0  0
  5  4  1  0  0  0  0
  5  1  2  0  0  0  0
  6  7  1  0  0  0  0
  7 11  2  0  0  0  0
  8  6  1  0  0  0  0
  9 11  1  0  0  0  0
 10  6  2  0  0  0  0
 10  9  1  0  0  0  0
 12  2  2  0  0  0  0
 13 12  1  0  0  0  0
 14 16  1  0  0  0  0
 14 13  2  0  0  0  0
 15  2  1  0  0  0  0
 15  3  2  0  0  0  0
 16 17  2  0  0  0  0
 17  1  1  0  0  0  0
 17 15  1  0  0  0  0
 18 20  2  0  0  0  0
 18 13  1  0  0  0  0
 19 18  1  0  0  0  0
 21  4  1  0  0  0  0
 22 34  1  0  0  0  0
 23 33  1  0  0  0  0
 24 26  1  0  0  0  0
 25 32  1  0  0  0  0
 25 24  1  0  0  0  0
 26 28  1  0  0  0  0
 27 25  2  0  0  0  0
 28 31  1  0  0  0  0
 28 22  2  0  0  0  0
 29 24  1  0  0  0  0
 30 31  1  0  0  0  0
 31 23  2  0  0  0  0
 32 30  1  0  0  0  0
 33 21  1  0  0  0  0
 34 33  2  0  0  0  0
M  END
>  <MODEL>
1

>  <REMARK>
 VINA RESULT:     -12.0      0.000      0.000
  Name = 
  3 active torsions:
  status: ('A' for Active; 'I' for Inactive)
    1  A    between atoms: C_3  and  C_25
    2  A    between atoms: C_8  and  C_18
    3  A    between atoms: C_18  and  C_30
                            x       y       z     vdW  Elec       q    Type
                         _______ _______ _______ _____ _____    ______ ____

>  <TORSDO>
F 3

$$$$
=
 OpenBabel10272415293D

 34 39  0  0  0  0  0  0  0  0999 V2000
  188.5840  177.6730  144.2460 C   0  0  0  0  0  0  0  0  0  0  0  0
  191.2800  177.0980  141.5550 C   0  0  0  0  0  3  0  0  0  0  0  0
  191.2560  176.8570  143.9570 C   0  0  0  0  0  3  0  0  0  0  0  0
  186.8520  178.0420  145.9540 C   0  0  0  0  0  0  0  0  0  0  0  0
  187.2640  178.0520  144.5910 C   0  0  0  0  0  3  0  0  0  0  0  0
  189.0380  177.2840  146.5900 C   0  0  0  0  0  0  0  0  0  0  0  0
  190.0840  176.8710  147.3400 N   0  0  0  0  0  0  0  0  0  0  0  0
  187.7500  177.6460  146.9790 C   0  0  0  0  0  3  0  0  0  0  0  0
  190.6510  176.9240  145.1640 N   0  0  0  0  0  0  0  0  0  0  0  0
  189.3980  177.3090  145.2950 C   0  0  0  0  0  0  0  0  0  0  0  0
  191.0760  176.6540  146.4200 C   0  0  0  0  0  3  0  0  0  0  0  0
  190.9250  177.3380  140.2990 C   0  0  0  0  0  3  0  0  0  0  0  0
  189.6420  177.7980  139.7550 C   0  0  0  0  0  0  0  0  0  0  0  0
  188.5580  178.0660  140.4830 C   0  0  0  0  0  3  0  0  0  0  0  0
  190.5150  177.2110  142.8010 C   0  0  0  0  0  0  0  0  0  0  0  0
  188.3410  177.9870  141.9300 C   0  0  0  0  0  3  0  0  0  0  0  0
  189.1430  177.6300  142.9400 C   0  0  0  0  0  0  0  0  0  0  0  0
  189.5540  177.9760  138.2900 C   0  0  0  0  0  0  0  0  0  0  0  0
  188.9820  179.1600  137.7400 N   0  0  0  0  0  1  0  0  0  0  0  0
  189.9830  177.0850  137.5080 O   0  0  0  0  0  0  0  0  0  0  0  0
  185.4510  178.4150  146.3030 C   0  0  0  0  0  2  0  0  0  0  0  0
  182.4580  178.7880  144.0210 C   0  0  0  0  0  3  0  0  0  0  0  0
  185.2360  178.6600  143.8220 C   0  0  0  0  0  3  0  0  0  0  0  0
  182.4040  178.0600  140.5680 N   0  0  0  0  0  0  0  0  0  0  0  0
  183.6170  178.1230  139.8160 C   0  0  0  0  0  0  0  0  0  0  0  0
  182.1480  179.0670  141.5880 C   0  0  0  0  0  2  0  0  0  0  0  0
  183.8500  177.2970  138.8930 O   0  0  0  0  0  0  0  0  0  0  0  0
  183.0600  178.8800  142.7610 C   0  0  0  0  0  0  0  0  0  0  0  0
  181.4310  177.0020  140.3490 C   0  0  0  0  0  1  0  0  0  0  0  0
  185.1890  178.8960  141.4430 O   0  0  0  0  0  0  0  0  0  0  0  0
  184.4780  178.8220  142.6560 C   0  0  0  0  0  0  0  0  0  0  0  0
  184.6300  179.1610  140.1600 C   0  0  0  0  0  2  0  0  0  0  0  0
  184.6220  178.5600  145.0720 C   0  0  0  0  0  0  0  0  0  0  0  0
  183.2310  178.6290  145.1700 C   0  0  0  0  0  3  0  0  0  0  0  0
  1  5  2  0  0  0  0
  1 10  1  0  0  0  0
  2 15  1  0  0  0  0
  3  9  1  0  0  0  0
  4 21  1  0  0  0  0
  4  8  2  0  0  0  0
  5  4  1  0  0  0  0
  6  8  1  0  0  0  0
  6  7  1  0  0  0  0
  9 10  1  0  0  0  0
  9 11  1  0  0  0  0
 10  6  2  0  0  0  0
 11  7  2  0  0  0  0
 12  2  2  0  0  0  0
 13 12  1  0  0  0  0
 13 14  2  0  0  0  0
 14 16  1  0  0  0  0
 15 17  1  0  0  0  0
 15  3  2  0  0  0  0
 16 17  2  0  0  0  0
 17  1  1  0  0  0  0
 18 13  1  0  0  0  0
 19 18  1  0  0  0  0
 20 18  2  0  0  0  0
 22 34  1  0  0  0  0
 23 33  1  0  0  0  0
 24 26  1  0  0  0  0
 25 32  1  0  0  0  0
 25 24  1  0  0  0  0
 26 28  1  0  0  0  0
 27 25  2  0  0  0  0
 28 22  2  0  0  0  0
 29 24  1  0  0  0  0
 30 31  1  0  0  0  0
 31 28  1  0  0  0  0
 31 23  2  0  0  0  0
 32 30  1  0  0  0  0
 33 34  2  0  0  0  0
 33 21  1  0  0  0  0
M  END
>  <MODEL>
2

>  <REMARK>
 VINA RESULT:     -11.8      1.801      6.218
  Name = 
  3 active torsions:
  status: ('A' for Active; 'I' for Inactive)
    1  A    between atoms: C_3  and  C_25
    2  A    between atoms: C_8  and  C_18
    3  A    between atoms: C_18  and  C_30
                            x       y       z     vdW  Elec       q    Type
                         _______ _______ _______ _____ _____    ______ ____

>  <TORSDO>
F 3

$$$$
=
 OpenBabel10272415293D

 34 39  0  0  0  0  0  0  0  0999 V2000
  187.8350  177.7610  144.8870 C   0  0  0  0  0  0  0  0  0  0  0  0
  191.1450  176.6930  143.2300 C   0  0  0  0  0  3  0  0  0  0  0  0
  190.4650  177.0100  145.5250 C   0  0  0  0  0  3  0  0  0  0  0  0
  185.7140  178.4420  145.9310 C   0  0  0  0  0  0  0  0  0  0  0  0
  186.4810  178.1540  144.7650 C   0  0  0  0  0  3  0  0  0  0  0  0
  187.6270  177.9410  147.2900 C   0  0  0  0  0  0  0  0  0  0  0  0
  188.4200  177.7550  148.3690 N   0  0  0  0  0  0  0  0  0  0  0  0
  186.2910  178.3300  147.2220 C   0  0  0  0  0  3  0  0  0  0  0  0
  189.5570  177.3280  146.4740 N   0  0  0  0  0  0  0  0  0  0  0  0
  188.3250  177.6820  146.1710 C   0  0  0  0  0  0  0  0  0  0  0  0
  189.6200  177.3730  147.8260 C   0  0  0  0  0  3  0  0  0  0  0  0
  191.1500  176.6220  141.9050 C   0  0  0  0  0  3  0  0  0  0  0  0
  190.0730  176.8920  140.9450 C   0  0  0  0  0  0  0  0  0  0  0  0
  188.8400  177.2750  141.2710 C   0  0  0  0  0  3  0  0  0  0  0  0
  190.0730  177.0580  144.1630 C   0  0  0  0  0  0  0  0  0  0  0  0
  188.2360  177.5230  142.5840 C   0  0  0  0  0  3  0  0  0  0  0  0
  188.7260  177.4410  143.8260 C   0  0  0  0  0  0  0  0  0  0  0  0
  190.3900  176.7230  139.5110 C   0  0  0  0  0  0  0  0  0  0  0  0
  189.9410  177.6810  138.5560 N   0  0  0  0  0  1  0  0  0  0  0  0
  191.0610  175.7330  139.1130 O   0  0  0  0  0  0  0  0  0  0  0  0
  184.2800  178.8280  145.7930 C   0  0  0  0  0  2  0  0  0  0  0  0
  184.3550  178.3090  142.0470 C   0  0  0  0  0  3  0  0  0  0  0  0
  182.5020  178.9310  144.0350 C   0  0  0  0  0  3  0  0  0  0  0  0
  181.9670  179.5350  139.7560 N   0  0  0  0  0  0  0  0  0  0  0  0
  180.6330  179.7920  140.1990 C   0  0  0  0  0  0  0  0  0  0  0  0
  182.6640  178.3570  140.2500 C   0  0  0  0  0  2  0  0  0  0  0  0
  179.9820  180.7770  139.7560 O   0  0  0  0  0  0  0  0  0  0  0  0
  183.0150  178.5130  141.6970 C   0  0  0  0  0  0  0  0  0  0  0  0
  182.6470  180.4360  138.8400 C   0  0  0  0  0  1  0  0  0  0  0  0
  180.6970  179.0550  142.4720 O   0  0  0  0  0  0  0  0  0  0  0  0
  182.0650  178.8230  142.7100 C   0  0  0  0  0  0  0  0  0  0  0  0
  180.0260  178.8990  141.2260 C   0  0  0  0  0  2  0  0  0  0  0  0
  183.8430  178.7350  144.3700 C   0  0  0  0  0  0  0  0  0  0  0  0
  184.7690  178.4180  143.3740 C   0  0  0  0  0  3  0  0  0  0  0  0
  1 10  1  0  0  0  0
  2 15  1  0  0  0  0
  3  9  1  0  0  0  0
  4  8  2  0  0  0  0
  5  1  2  0  0  0  0
  5  4  1  0  0  0  0
  6  7  1  0  0  0  0
  8  6  1  0  0  0  0
  9 11  1  0  0  0  0
 10  9  1  0  0  0  0
 10  6  2  0  0  0  0
 11  7  2  0  0  0  0
 12  2  2  0  0  0  0
 13 14  2  0  0  0  0
 13 12  1  0  0  0  0
 14 16  1  0  0  0  0
 15  3  2  0  0  0  0
 16 17  2  0  0  0  0
 17 15  1  0  0  0  0
 17  1  1  0  0  0  0
 18 13  1  0  0  0  0
 19 18  1  0  0  0  0
 20 18  2  0  0  0  0
 21  4  1  0  0  0  0
 22 34  1  0  0  0  0
 23 33  1  0  0  0  0
 24 25  1  0  0  0  0
 24 26  1  0  0  0  0
 25 32  1  0  0  0  0
 26 28  1  0  0  0  0
 27 25  2  0  0  0  0
 28 22  2  0  0  0  0
 28 31  1  0  0  0  0
 29 24  1  0  0  0  0
 30 31  1  0  0  0  0
 31 23  2  0  0  0  0
 32 30  1  0  0  0  0
 33 21  1  0  0  0  0
 34 33  2  0  0  0  0
M  END
>  <MODEL>
3

>  <REMARK>
 VINA RESULT:     -11.6      1.650      6.881
  Name = 
  3 active torsions:
  status: ('A' for Active; 'I' for Inactive)
    1  A    between atoms: C_3  and  C_25
    2  A    between atoms: C_8  and  C_18
    3  A    between atoms: C_18  and  C_30
                            x       y       z     vdW  Elec       q    Type
                         _______ _______ _______ _____ _____    ______ ____

>  <TORSDO>
F 3

$$$$
=
 OpenBabel10272415293D

 34 39  0  0  0  0  0  0  0  0999 V2000
  186.2890  178.1770  143.6070 C   0  0  0  0  0  0  0  0  0  0  0  0
  187.7000  177.5850  147.1430 C   0  0  0  0  0  3  0  0  0  0  0  0
  185.5300  178.2410  146.3100 C   0  0  0  0  0  3  0  0  0  0  0  0
  185.4010  178.5480  141.3430 C   0  0  0  0  0  0  0  0  0  0  0  0
  186.4800  178.1970  142.2040 C   0  0  0  0  0  3  0  0  0  0  0  0
  183.9890  178.8400  143.2610 C   0  0  0  0  0  0  0  0  0  0  0  0
  182.9070  179.0970  144.0290 N   0  0  0  0  0  0  0  0  0  0  0  0
  184.1260  178.8720  141.8740 C   0  0  0  0  0  3  0  0  0  0  0  0
  184.6670  178.5380  145.3130 N   0  0  0  0  0  0  0  0  0  0  0  0
  185.0270  178.5090  144.0460 C   0  0  0  0  0  0  0  0  0  0  0  0
  183.3630  178.9010  145.3060 C   0  0  0  0  0  3  0  0  0  0  0  0
  188.9730  177.2200  147.2200 C   0  0  0  0  0  3  0  0  0  0  0  0
  189.9560  177.0010  146.1520 C   0  0  0  0  0  0  0  0  0  0  0  0
  189.7100  177.1420  144.8500 C   0  0  0  0  0  3  0  0  0  0  0  0
  186.8620  177.8850  145.9760 C   0  0  0  0  0  0  0  0  0  0  0  0
  188.4810  177.5280  144.1500 C   0  0  0  0  0  3  0  0  0  0  0  0
  187.2600  177.8490  144.5920 C   0  0  0  0  0  0  0  0  0  0  0  0
  191.3170  176.5940  146.5600 C   0  0  0  0  0  0  0  0  0  0  0  0
  191.8160  176.9350  147.8510 N   0  0  0  0  0  1  0  0  0  0  0  0
  192.0550  175.9400  145.7740 O   0  0  0  0  0  0  0  0  0  0  0  0
  185.6040  178.5390  139.8660 C   0  0  0  0  0  2  0  0  0  0  0  0
  182.4380  177.8550  137.9130 C   0  0  0  0  0  3  0  0  0  0  0  0
  183.7300  180.0160  139.1110 C   0  0  0  0  0  3  0  0  0  0  0  0
  180.5660  180.2560  136.1280 N   0  0  0  0  0  0  0  0  0  0  0  0
  180.6250  181.6280  136.5210 C   0  0  0  0  0  0  0  0  0  0  0  0
  180.5300  179.2250  137.1550 C   0  0  0  0  0  2  0  0  0  0  0  0
  180.6090  182.5500  135.6600 O   0  0  0  0  0  0  0  0  0  0  0  0
  181.8500  179.1240  137.8540 C   0  0  0  0  0  0  0  0  0  0  0  0
  180.5610  179.8690  134.7270 C   0  0  0  0  0  1  0  0  0  0  0  0
  182.0090  181.5460  138.4680 O   0  0  0  0  0  0  0  0  0  0  0  0
  182.5030  180.2280  138.4710 C   0  0  0  0  0  0  0  0  0  0  0  0
  180.7420  181.9640  137.9680 C   0  0  0  0  0  2  0  0  0  0  0  0
  184.3100  178.7460  139.1540 C   0  0  0  0  0  0  0  0  0  0  0  0
  183.6590  177.6640  138.5580 C   0  0  0  0  0  3  0  0  0  0  0  0
  1 10  1  0  0  0  0
  1 17  1  0  0  0  0
  2 12  2  0  0  0  0
  4  8  2  0  0  0  0
  4  5  1  0  0  0  0
  5  1  2  0  0  0  0
  6  7  1  0  0  0  0
  6 10  2  0  0  0  0
  7 11  2  0  0  0  0
  8  6  1  0  0  0  0
  9  3  1  0  0  0  0
 10  9  1  0  0  0  0
 11  9  1  0  0  0  0
 13 18  1  0  0  0  0
 13 12  1  0  0  0  0
 14 13  2  0  0  0  0
 15  3  2  0  0  0  0
 15  2  1  0  0  0  0
 16 17  2  0  0  0  0
 16 14  1  0  0  0  0
 17 15  1  0  0  0  0
 18 19  1  0  0  0  0
 20 18  2  0  0  0  0
 21  4  1  0  0  0  0
 22 34  1  0  0  0  0
 23 33  1  0  0  0  0
 24 25  1  0  0  0  0
 24 26  1  0  0  0  0
 25 32  1  0  0  0  0
 26 28  1  0  0  0  0
 27 25  2  0  0  0  0
 28 22  2  0  0  0  0
 28 31  1  0  0  0  0
 29 24  1  0  0  0  0
 30 31  1  0  0  0  0
 31 23  2  0  0  0  0
 32 30  1  0  0  0  0
 33 21  1  0  0  0  0
 34 33  2  0  0  0  0
M  END
>  <MODEL>
4

>  <REMARK>
 VINA RESULT:     -11.5      3.801      7.292
  Name = 
  3 active torsions:
  status: ('A' for Active; 'I' for Inactive)
    1  A    between atoms: C_3  and  C_25
    2  A    between atoms: C_8  and  C_18
    3  A    between atoms: C_18  and  C_30
                            x       y       z     vdW  Elec       q    Type
                         _______ _______ _______ _____ _____    ______ ____

>  <TORSDO>
F 3

$$$$
=
 OpenBabel10272415293D

 34 39  0  0  0  0  0  0  0  0999 V2000
  188.8910  177.5650  143.5420 C   0  0  0  0  0  0  0  0  0  0  0  0
  185.8060  177.9970  145.8090 C   0  0  0  0  0  3  0  0  0  0  0  0
  188.1310  177.5080  146.2450 C   0  0  0  0  0  3  0  0  0  0  0  0
  190.8530  177.2950  142.0820 C   0  0  0  0  0  0  0  0  0  0  0  0
  189.4630  177.5560  142.2470 C   0  0  0  0  0  3  0  0  0  0  0  0
  191.0730  177.0700  144.4610 C   0  0  0  0  0  0  0  0  0  0  0  0
  191.6100  176.8750  145.6860 N   0  0  0  0  0  0  0  0  0  0  0  0
  191.6820  177.0520  143.2080 C   0  0  0  0  0  3  0  0  0  0  0  0
  189.4040  177.2880  145.8510 N   0  0  0  0  0  0  0  0  0  0  0  0
  189.7570  177.3140  144.5820 C   0  0  0  0  0  0  0  0  0  0  0  0
  190.5420  177.0180  146.5330 C   0  0  0  0  0  3  0  0  0  0  0  0
  184.6580  178.2710  145.2030 C   0  0  0  0  0  3  0  0  0  0  0  0
  184.3650  178.4400  143.7740 C   0  0  0  0  0  0  0  0  0  0  0  0
  185.2630  178.3380  142.7950 C   0  0  0  0  0  3  0  0  0  0  0  0
  187.1480  177.7760  145.2580 C   0  0  0  0  0  0  0  0  0  0  0  0
  186.6990  178.0510  142.8470 C   0  0  0  0  0  3  0  0  0  0  0  0
  187.5290  177.8080  143.8690 C   0  0  0  0  0  0  0  0  0  0  0  0
  182.9670  178.7440  143.4030 C   0  0  0  0  0  0  0  0  0  0  0  0
  182.5780  178.7910  142.0330 N   0  0  0  0  0  1  0  0  0  0  0  0
  182.1000  178.9660  144.2920 O   0  0  0  0  0  0  0  0  0  0  0  0
  191.4500  177.3150  140.7160 C   0  0  0  0  0  2  0  0  0  0  0  0
  188.5360  178.2820  138.5060 C   0  0  0  0  0  3  0  0  0  0  0  0
  190.2750  176.1290  138.8520 C   0  0  0  0  0  3  0  0  0  0  0  0
  186.4740  176.0360  136.7280 N   0  0  0  0  0  0  0  0  0  0  0  0
  186.9870  174.7590  136.3490 C   0  0  0  0  0  0  0  0  0  0  0  0
  187.3380  177.2040  136.6370 C   0  0  0  0  0  2  0  0  0  0  0  0
  186.2540  173.7340  136.3700 O   0  0  0  0  0  0  0  0  0  0  0  0
  188.4090  177.1580  137.6820 C   0  0  0  0  0  0  0  0  0  0  0  0
  185.1150  176.1900  137.2220 C   0  0  0  0  0  1  0  0  0  0  0  0
  189.2580  174.8790  137.0860 O   0  0  0  0  0  0  0  0  0  0  0  0
  189.2990  176.0600  137.8500 C   0  0  0  0  0  0  0  0  0  0  0  0
  188.4210  174.6400  135.9590 C   0  0  0  0  0  2  0  0  0  0  0  0
  190.3850  177.2530  139.6740 C   0  0  0  0  0  0  0  0  0  0  0  0
  189.5170  178.3320  139.4960 C   0  0  0  0  0  3  0  0  0  0  0  0
  1 17  1  0  0  0  0
  1 10  1  0  0  0  0
  4  5  1  0  0  0  0
  4  8  2  0  0  0  0
  5  1  2  0  0  0  0
  6 10  2  0  0  0  0
  6  7  1  0  0  0  0
  7 11  2  0  0  0  0
  8  6  1  0  0  0  0
  9  3  1  0  0  0  0
  9 11  1  0  0  0  0
 10  9  1  0  0  0  0
 12  2  2  0  0  0  0
 13 12  1  0  0  0  0
 14 16  1  0  0  0  0
 14 13  2  0  0  0  0
 15  2  1  0  0  0  0
 15  3  2  0  0  0  0
 16 17  2  0  0  0  0
 17 15  1  0  0  0  0
 18 13  1  0  0  0  0
 18 20  2  0  0  0  0
 19 18  1  0  0  0  0
 21  4  1  0  0  0  0
 22 34  1  0  0  0  0
 23 33  1  0  0  0  0
 24 29  1  0  0  0  0
 25 27  2  0  0  0  0
 25 24  1  0  0  0  0
 26 24  1  0  0  0  0
 26 28  1  0  0  0  0
 28 31  1  0  0  0  0
 28 22  2  0  0  0  0
 30 31  1  0  0  0  0
 31 23  2  0  0  0  0
 32 25  1  0  0  0  0
 32 30  1  0  0  0  0
 33 21  1  0  0  0  0
 34 33  2  0  0  0  0
M  END
>  <MODEL>
5

>  <REMARK>
 VINA RESULT:     -11.4      1.414      2.176
  Name = 
  3 active torsions:
  status: ('A' for Active; 'I' for Inactive)
    1  A    between atoms: C_3  and  C_25
    2  A    between atoms: C_8  and  C_18
    3  A    between atoms: C_18  and  C_30
                            x       y       z     vdW  Elec       q    Type
                         _______ _______ _______ _____ _____    ______ ____

>  <TORSDO>
F 3

$$$$
=
 OpenBabel10272415293D

 34 39  0  0  0  0  0  0  0  0999 V2000
  184.2740  178.6490  142.4220 C   0  0  0  0  0  0  0  0  0  0  0  0
  184.4530  178.6700  138.5740 C   0  0  0  0  0  3  0  0  0  0  0  0
  182.6330  178.8430  140.1520 C   0  0  0  0  0  3  0  0  0  0  0  0
  184.1750  178.6370  144.8800 C   0  0  0  0  0  0  0  0  0  0  0  0
  184.9300  178.5720  143.6740 C   0  0  0  0  0  3  0  0  0  0  0  0
  182.1650  178.8580  143.5890 C   0  0  0  0  0  0  0  0  0  0  0  0
  180.8620  179.0000  143.2590 N   0  0  0  0  0  0  0  0  0  0  0  0
  182.7640  178.7880  144.8450 C   0  0  0  0  0  3  0  0  0  0  0  0
  182.1320  178.8810  141.4060 N   0  0  0  0  0  0  0  0  0  0  0  0
  182.9050  178.7890  142.4690 C   0  0  0  0  0  0  0  0  0  0  0  0
  180.8740  179.0110  141.8890 C   0  0  0  0  0  3  0  0  0  0  0  0
  185.6600  178.5540  138.0350 C   0  0  0  0  0  3  0  0  0  0  0  0
  186.9690  178.4130  138.6830 C   0  0  0  0  0  0  0  0  0  0  0  0
  187.1690  178.3790  140.0000 C   0  0  0  0  0  3  0  0  0  0  0  0
  184.0330  178.7000  139.9800 C   0  0  0  0  0  0  0  0  0  0  0  0
  186.2140  178.4650  141.1090 C   0  0  0  0  0  3  0  0  0  0  0  0
  184.8820  178.6000  141.1390 C   0  0  0  0  0  0  0  0  0  0  0  0
  188.1500  178.3020  137.8010 C   0  0  0  0  0  0  0  0  0  0  0  0
  188.9810  179.4350  137.5610 N   0  0  0  0  0  1  0  0  0  0  0  0
  188.4400  177.2060  137.2500 O   0  0  0  0  0  0  0  0  0  0  0  0
  184.8780  178.5830  146.1940 C   0  0  0  0  0  2  0  0  0  0  0  0
  188.5580  178.0080  146.8590 C   0  0  0  0  0  3  0  0  0  0  0  0
  186.6880  177.4850  144.8580 C   0  0  0  0  0  3  0  0  0  0  0  0
  191.0180  177.3980  144.4030 N   0  0  0  0  0  0  0  0  0  0  0  0
  190.6380  176.8150  143.1560 C   0  0  0  0  0  0  0  0  0  0  0  0
  190.3990  176.9170  145.6300 C   0  0  0  0  0  2  0  0  0  0  0  0
  191.1880  177.1740  142.0790 O   0  0  0  0  0  0  0  0  0  0  0  0
  188.9630  177.3350  145.7010 C   0  0  0  0  0  0  0  0  0  0  0  0
  191.9930  178.4740  144.4710 C   0  0  0  0  0  1  0  0  0  0  0  0
  188.3060  176.3980  143.4740 O   0  0  0  0  0  0  0  0  0  0  0  0
  188.0100  177.0590  144.6800 C   0  0  0  0  0  0  0  0  0  0  0  0
  189.5510  175.7960  143.1330 C   0  0  0  0  0  2  0  0  0  0  0  0
  186.2990  178.1640  146.0150 C   0  0  0  0  0  0  0  0  0  0  0  0
  187.2350  178.4210  147.0180 C   0  0  0  0  0  3  0  0  0  0  0  0
  1 10  2  0  0  0  0
  1  5  1  0  0  0  0
  2 15  1  0  0  0  0
  3  9  1  0  0  0  0
  4 21  1  0  0  0  0
  5  4  2  0  0  0  0
  6  8  2  0  0  0  0
  7  6  1  0  0  0  0
  8  4  1  0  0  0  0
  9 11  1  0  0  0  0
  9 10  1  0  0  0  0
 10  6  1  0  0  0  0
 11  7  2  0  0  0  0
 12  2  2  0  0  0  0
 12 13  1  0  0  0  0
 13 14  2  0  0  0  0
 14 16  1  0  0  0  0
 15  3  2  0  0  0  0
 15 17  1  0  0  0  0
 16 17  2  0  0  0  0
 17  1  1  0  0  0  0
 18 13  1  0  0  0  0
 19 18  1  0  0  0  0
 20 18  2  0  0  0  0
 22 34  1  0  0  0  0
 23 33  1  0  0  0  0
 24 29  1  0  0  0  0
 24 26  1  0  0  0  0
 25 24  1  0  0  0  0
 26 28  1  0  0  0  0
 27 25  2  0  0  0  0
 28 22  2  0  0  0  0
 30 31  1  0  0  0  0
 31 23  2  0  0  0  0
 31 28  1  0  0  0  0
 32 25  1  0  0  0  0
 32 30  1  0  0  0  0
 33 21  1  0  0  0  0
 33 34  2  0  0  0  0
M  END
>  <MODEL>
6

>  <REMARK>
 VINA RESULT:     -11.3      2.307      6.900
  Name = 
  3 active torsions:
  status: ('A' for Active; 'I' for Inactive)
    1  A    between atoms: C_3  and  C_25
    2  A    between atoms: C_8  and  C_18
    3  A    between atoms: C_18  and  C_30
                            x       y       z     vdW  Elec       q    Type
                         _______ _______ _______ _____ _____    ______ ____

>  <TORSDO>
F 3

$$$$
=
 OpenBabel10272415293D

 34 39  0  0  0  0  0  0  0  0999 V2000
  188.9870  177.6680  143.8540 C   0  0  0  0  0  0  0  0  0  0  0  0
  185.7270  177.8810  145.8960 C   0  0  0  0  0  3  0  0  0  0  0  0
  188.0230  177.4100  146.4790 C   0  0  0  0  0  3  0  0  0  0  0  0
  191.0620  177.5380  142.5380 C   0  0  0  0  0  0  0  0  0  0  0  0
  189.6570  177.7590  142.6100 C   0  0  0  0  0  3  0  0  0  0  0  0
  191.1040  177.1540  144.9060 C   0  0  0  0  0  0  0  0  0  0  0  0
  191.5500  176.8870  146.1540 N   0  0  0  0  0  0  0  0  0  0  0  0
  191.8080  177.2340  143.7060 C   0  0  0  0  0  3  0  0  0  0  0  0
  189.3280  177.2440  146.1730 N   0  0  0  0  0  0  0  0  0  0  0  0
  189.7770  177.3640  144.9400 C   0  0  0  0  0  0  0  0  0  0  0  0
  190.4170  176.9500  146.9220 C   0  0  0  0  0  3  0  0  0  0  0  0
  184.6230  178.1730  145.2210 C   0  0  0  0  0  3  0  0  0  0  0  0
  184.4360  178.4330  143.7890 C   0  0  0  0  0  0  0  0  0  0  0  0
  185.4090  178.4170  142.8780 C   0  0  0  0  0  3  0  0  0  0  0  0
  187.1130  177.7260  145.4380 C   0  0  0  0  0  0  0  0  0  0  0  0
  186.8440  178.1560  143.0240 C   0  0  0  0  0  3  0  0  0  0  0  0
  187.5990  177.8600  144.0890 C   0  0  0  0  0  0  0  0  0  0  0  0
  183.0630  178.7340  143.3300 C   0  0  0  0  0  0  0  0  0  0  0  0
  182.7640  178.7890  141.9380 N   0  0  0  0  0  1  0  0  0  0  0  0
  182.1400  178.9460  144.1620 O   0  0  0  0  0  0  0  0  0  0  0  0
  191.7610  177.6640  141.2270 C   0  0  0  0  0  2  0  0  0  0  0  0
  190.3490  175.7650  138.2750 C   0  0  0  0  0  3  0  0  0  0  0  0
  189.6690  177.9400  139.8830 C   0  0  0  0  0  3  0  0  0  0  0  0
  187.9730  177.0080  135.9810 N   0  0  0  0  0  0  0  0  0  0  0  0
  187.0730  178.0400  136.3890 C   0  0  0  0  0  0  0  0  0  0  0  0
  188.2980  175.9390  136.9150 C   0  0  0  0  0  2  0  0  0  0  0  0
  186.7320  178.9540  135.5910 O   0  0  0  0  0  0  0  0  0  0  0  0
  189.1540  176.4500  138.0320 C   0  0  0  0  0  0  0  0  0  0  0  0
  188.5850  177.0140  134.6630 C   0  0  0  0  0  1  0  0  0  0  0  0
  187.6270  178.3200  138.6970 O   0  0  0  0  0  0  0  0  0  0  0  0
  188.7990  177.5560  138.8550 C   0  0  0  0  0  0  0  0  0  0  0  0
  186.5650  178.0460  137.7900 C   0  0  0  0  0  2  0  0  0  0  0  0
  190.8640  177.2530  140.1080 C   0  0  0  0  0  0  0  0  0  0  0  0
  191.2010  176.1620  139.3060 C   0  0  0  0  0  3  0  0  0  0  0  0
  1 17  1  0  0  0  0
  1 10  1  0  0  0  0
  4  5  1  0  0  0  0
  4  8  2  0  0  0  0
  5  1  2  0  0  0  0
  6 10  2  0  0  0  0
  6  7  1  0  0  0  0
  7 11  2  0  0  0  0
  8  6  1  0  0  0  0
  9  3  1  0  0  0  0
  9 11  1  0  0  0  0
 10  9  1  0  0  0  0
 12  2  2  0  0  0  0
 13 12  1  0  0  0  0
 14 16  1  0  0  0  0
 14 13  2  0  0  0  0
 15  2  1  0  0  0  0
 15  3  2  0  0  0  0
 16 17  2  0  0  0  0
 17 15  1  0  0  0  0
 18 13  1  0  0  0  0
 18 20  2  0  0  0  0
 19 18  1  0  0  0  0
 21  4  1  0  0  0  0
 22 34  1  0  0  0  0
 23 33  1  0  0  0  0
 24 25  1  0  0  0  0
 24 26  1  0  0  0  0
 25 32  1  0  0  0  0
 26 28  1  0  0  0  0
 27 25  2  0  0  0  0
 28 22  2  0  0  0  0
 28 31  1  0  0  0  0
 29 24  1  0  0  0  0
 30 31  1  0  0  0  0
 31 23  2  0  0  0  0
 32 30  1  0  0  0  0
 33 21  1  0  0  0  0
 34 33  2  0  0  0  0
M  END
>  <MODEL>
7

>  <REMARK>
 VINA RESULT:     -11.3      1.526      2.396
  Name = 
  3 active torsions:
  status: ('A' for Active; 'I' for Inactive)
    1  A    between atoms: C_3  and  C_25
    2  A    between atoms: C_8  and  C_18
    3  A    between atoms: C_18  and  C_30
                            x       y       z     vdW  Elec       q    Type
                         _______ _______ _______ _____ _____    ______ ____

>  <TORSDO>
F 3

$$$$
=
 OpenBabel10272415293D

 34 39  0  0  0  0  0  0  0  0999 V2000
  186.2040  178.2210  143.7880 C   0  0  0  0  0  0  0  0  0  0  0  0
  189.9440  177.3440  144.0730 C   0  0  0  0  0  3  0  0  0  0  0  0
  188.2180  177.8000  145.6990 C   0  0  0  0  0  3  0  0  0  0  0  0
  183.8150  178.7780  143.5910 C   0  0  0  0  0  0  0  0  0  0  0  0
  185.0650  178.4640  142.9830 C   0  0  0  0  0  3  0  0  0  0  0  0
  184.8430  178.5980  145.7520 C   0  0  0  0  0  0  0  0  0  0  0  0
  185.0160  178.5920  147.0930 N   0  0  0  0  0  0  0  0  0  0  0  0
  183.6930  178.8430  145.0030 C   0  0  0  0  0  3  0  0  0  0  0  0
  186.9500  178.1100  146.0470 N   0  0  0  0  0  0  0  0  0  0  0  0
  186.0080  178.3090  145.1480 C   0  0  0  0  0  0  0  0  0  0  0  0
  186.3430  178.2840  147.2450 C   0  0  0  0  0  3  0  0  0  0  0  0
  190.5970  177.1540  142.9330 C   0  0  0  0  0  3  0  0  0  0  0  0
  190.1150  177.2260  141.5490 C   0  0  0  0  0  0  0  0  0  0  0  0
  188.8640  177.5120  141.1920 C   0  0  0  0  0  3  0  0  0  0  0  0
  188.5390  177.6840  144.3220 C   0  0  0  0  0  0  0  0  0  0  0  0
  187.6870  177.8160  142.0110 C   0  0  0  0  0  3  0  0  0  0  0  0
  187.5120  177.8980  143.3350 C   0  0  0  0  0  0  0  0  0  0  0  0
  191.0980  176.9600  140.4770 C   0  0  0  0  0  0  0  0  0  0  0  0
  190.7570  176.1180  139.3790 N   0  0  0  0  0  1  0  0  0  0  0  0
  192.2490  177.4740  140.5190 O   0  0  0  0  0  0  0  0  0  0  0  0
  182.6150  179.0040  142.7350 C   0  0  0  0  0  2  0  0  0  0  0  0
  182.0710  177.3950  139.3550 C   0  0  0  0  0  3  0  0  0  0  0  0
  184.0800  178.7660  140.7190 C   0  0  0  0  0  3  0  0  0  0  0  0
  184.6150  176.3090  137.1640 N   0  0  0  0  0  0  0  0  0  0  0  0
  185.9050  176.9200  137.2250 C   0  0  0  0  0  0  0  0  0  0  0  0
  183.4290  177.1400  137.3100 C   0  0  0  0  0  2  0  0  0  0  0  0
  186.9530  176.2390  137.0550 O   0  0  0  0  0  0  0  0  0  0  0  0
  183.2940  177.6320  138.7180 C   0  0  0  0  0  0  0  0  0  0  0  0
  184.4640  174.8750  136.9790 C   0  0  0  0  0  1  0  0  0  0  0  0
  185.5870  178.6260  138.8690 O   0  0  0  0  0  0  0  0  0  0  0  0
  184.3190  178.3380  139.4080 C   0  0  0  0  0  0  0  0  0  0  0  0
  186.0040  178.3750  137.5310 C   0  0  0  0  0  2  0  0  0  0  0  0
  182.8580  178.5140  141.3470 C   0  0  0  0  0  0  0  0  0  0  0  0
  181.8510  177.8320  140.6610 C   0  0  0  0  0  3  0  0  0  0  0  0
  1 10  1  0  0  0  0
  2 15  1  0  0  0  0
  3  9  1  0  0  0  0
  4  8  2  0  0  0  0
  5  4  1  0  0  0  0
  5  1  2  0  0  0  0
  6  7  1  0  0  0  0
  7 11  2  0  0  0  0
  8  6  1  0  0  0  0
  9 11  1  0  0  0  0
 10  6  2  0  0  0  0
 10  9  1  0  0  0  0
 12  2  2  0  0  0  0
 13 12  1  0  0  0  0
 14 13  2  0  0  0  0
 14 16  1  0  0  0  0
 15  3  2  0  0  0  0
 16 17  2  0  0  0  0
 17  1  1  0  0  0  0
 17 15  1  0  0  0  0
 18 20  2  0  0  0  0
 18 13  1  0  0  0  0
 19 18  1  0  0  0  0
 21  4  1  0  0  0  0
 22 34  1  0  0  0  0
 23 33  1  0  0  0  0
 24 25  1  0  0  0  0
 24 26  1  0  0  0  0
 25 32  1  0  0  0  0
 26 28  1  0  0  0  0
 27 25  2  0  0  0  0
 28 22  2  0  0  0  0
 28 31  1  0  0  0  0
 29 24  1  0  0  0  0
 30 31  1  0  0  0  0
 31 23  2  0  0  0  0
 32 30  1  0  0  0  0
 33 21  1  0  0  0  0
 34 33  2  0  0  0  0
M  END
>  <MODEL>
8

>  <REMARK>
 VINA RESULT:     -11.2      2.202      5.845
  Name = 
  3 active torsions:
  status: ('A' for Active; 'I' for Inactive)
    1  A    between atoms: C_3  and  C_25
    2  A    between atoms: C_8  and  C_18
    3  A    between atoms: C_18  and  C_30
                            x       y       z     vdW  Elec       q    Type
                         _______ _______ _______ _____ _____    ______ ____

>  <TORSDO>
F 3

$$$$
=
 OpenBabel10272415293D

 34 39  0  0  0  0  0  0  0  0999 V2000
  188.0290  177.9410  142.8410 C   0  0  0  0  0  0  0  0  0  0  0  0
  188.0740  177.2400  146.6290 C   0  0  0  0  0  3  0  0  0  0  0  0
  186.3200  177.7970  145.0650 C   0  0  0  0  0  3  0  0  0  0  0  0
  188.0150  178.3850  140.4210 C   0  0  0  0  0  0  0  0  0  0  0  0
  188.7230  178.0560  141.6120 C   0  0  0  0  0  3  0  0  0  0  0  0
  185.9740  178.4690  141.6790 C   0  0  0  0  0  0  0  0  0  0  0  0
  184.6670  178.6090  141.9950 N   0  0  0  0  0  0  0  0  0  0  0  0
  186.6110  178.5910  140.4460 C   0  0  0  0  0  3  0  0  0  0  0  0
  185.8660  178.0940  143.8270 N   0  0  0  0  0  0  0  0  0  0  0  0
  186.6710  178.1620  142.7860 C   0  0  0  0  0  0  0  0  0  0  0  0
  184.6320  178.3680  143.3440 C   0  0  0  0  0  3  0  0  0  0  0  0
  189.2540  176.9560  147.1660 C   0  0  0  0  0  3  0  0  0  0  0  0
  190.5760  176.8660  146.5360 C   0  0  0  0  0  0  0  0  0  0  0  0
  190.8200  177.0660  145.2410 C   0  0  0  0  0  3  0  0  0  0  0  0
  187.7050  177.5500  145.2430 C   0  0  0  0  0  0  0  0  0  0  0  0
  189.9100  177.4090  144.1450 C   0  0  0  0  0  3  0  0  0  0  0  0
  188.5890  177.6220  144.1080 C   0  0  0  0  0  0  0  0  0  0  0  0
  191.7190  176.5270  147.4110 C   0  0  0  0  0  0  0  0  0  0  0  0
  192.4920  175.3550  147.1670 N   0  0  0  0  0  1  0  0  0  0  0  0
  192.0250  177.2690  148.3840 O   0  0  0  0  0  0  0  0  0  0  0  0
  188.7510  178.4750  139.1270 C   0  0  0  0  0  2  0  0  0  0  0  0
  186.5980  177.7080  136.1130 C   0  0  0  0  0  3  0  0  0  0  0  0
  188.1660  176.3360  137.9660 C   0  0  0  0  0  3  0  0  0  0  0  0
  185.1410  174.5800  135.3730 N   0  0  0  0  0  0  0  0  0  0  0  0
  185.7450  173.3860  135.8730 C   0  0  0  0  0  0  0  0  0  0  0  0
  185.9920  175.6550  134.8850 C   0  0  0  0  0  2  0  0  0  0  0  0
  185.0390  172.4160  136.2600 O   0  0  0  0  0  0  0  0  0  0  0  0
  186.7160  176.3170  136.0160 C   0  0  0  0  0  0  0  0  0  0  0  0
  183.6970  174.7500  135.3610 C   0  0  0  0  0  1  0  0  0  0  0  0
  187.7060  174.2180  136.9570 O   0  0  0  0  0  0  0  0  0  0  0  0
  187.5220  175.6140  136.9550 C   0  0  0  0  0  0  0  0  0  0  0  0
  187.2300  173.3100  135.9690 C   0  0  0  0  0  2  0  0  0  0  0  0
  188.0320  177.7230  138.0580 C   0  0  0  0  0  0  0  0  0  0  0  0
  187.2500  178.4090  137.1270 C   0  0  0  0  0  3  0  0  0  0  0  0
  1 17  1  0  0  0  0
  2 12  2  0  0  0  0
  3 15  2  0  0  0  0
  4  8  2  0  0  0  0
  4  5  1  0  0  0  0
  5  1  2  0  0  0  0
  6  7  1  0  0  0  0
  6 10  2  0  0  0  0
  7 11  2  0  0  0  0
  8  6  1  0  0  0  0
  9  3  1  0  0  0  0
 10  1  1  0  0  0  0
 10  9  1  0  0  0  0
 11  9  1  0  0  0  0
 13 12  1  0  0  0  0
 13 18  1  0  0  0  0
 14 13  2  0  0  0  0
 15  2  1  0  0  0  0
 16 14  1  0  0  0  0
 17 16  2  0  0  0  0
 17 15  1  0  0  0  0
 18 20  2  0  0  0  0
 19 18  1  0  0  0  0
 21  4  1  0  0  0  0
 22 34  1  0  0  0  0
 23 33  1  0  0  0  0
 24 25  1  0  0  0  0
 25 32  1  0  0  0  0
 25 27  2  0  0  0  0
 26 24  1  0  0  0  0
 26 28  1  0  0  0  0
 28 22  2  0  0  0  0
 28 31  1  0  0  0  0
 29 24  1  0  0  0  0
 31 30  1  0  0  0  0
 31 23  2  0  0  0  0
 32 30  1  0  0  0  0
 33 21  1  0  0  0  0
 34 33  2  0  0  0  0
M  END
>  <MODEL>
9

>  <REMARK>
 VINA RESULT:     -11.1      2.873      5.829
  Name = 
  3 active torsions:
  status: ('A' for Active; 'I' for Inactive)
    1  A    between atoms: C_3  and  C_25
    2  A    between atoms: C_8  and  C_18
    3  A    between atoms: C_18  and  C_30
                            x       y       z     vdW  Elec       q    Type
                         _______ _______ _______ _____ _____    ______ ____

>  <TORSDO>
F 3

$$$$
