=
 OpenBabel10272400463D

 25 28  0  0  1  0  0  0  0  0999 V2000
  187.1620  177.8630  145.3300 C   0  0  0  0  0  0  0  0  0  0  0  0
  188.4160  177.4370  144.8820 C   0  0  0  0  0  0  0  0  0  0  0  0
  187.9280  177.7630  147.5960 N   0  0  0  0  0  0  0  0  0  0  0  0
  186.0160  178.1790  144.5840 C   0  0  0  0  0  0  0  0  0  0  0  0
  183.5630  178.8880  143.4560 C   0  0  0  0  0  3  0  0  0  0  0  0
  189.1330  177.3560  147.1790 N   0  0  0  0  0  0  0  0  0  0  0  0
  184.9460  178.5690  145.3880 C   0  0  0  0  0  0  0  0  0  0  0  0
  183.7120  178.9270  144.8500 C   0  0  0  0  0  3  0  0  0  0  0  0
  190.6820  176.7600  145.4260 C   0  0  0  0  0  0  0  0  0  0  0  0
  191.7760  176.4830  146.3990 C   0  0  0  0  0  1  0  0  0  0  0  0
  188.6900  177.2680  143.5600 N   0  0  0  0  0  0  0  0  0  0  0  0
  184.6360  178.4970  142.6330 C   0  0  0  0  0  3  0  0  0  0  0  0
  186.9520  178.0150  146.6910 C   0  0  0  0  0  0  0  0  0  0  0  0
  185.3820  178.5330  147.0210 S   0  0  0  0  0  0  0  0  0  0  0  0
  190.9300  176.5980  144.0610 C   0  0  0  0  0  3  0  0  0  0  0  0
  185.8720  178.1390  143.1940 C   0  0  0  0  0  3  0  0  0  0  0  0
  189.9130  176.8510  143.1350 C   0  0  0  0  0  0  0  0  0  0  0  0
  189.4140  177.1830  145.8510 C   0  0  0  0  0  0  0  0  0  0  0  0
  190.1790  176.7020  141.6800 C   0  0  0  0  0  2  0  0  0  0  0  0
  188.9120  177.5920  140.7290 S   0  0  0  0  0  0  0  0  0  0  0  0
  189.9780  177.7110  139.2610 C   0  0  1  0  0  3  0  0  0  0  0  0
  190.6320  176.3700  138.9790 C   0  0  0  0  0  1  0  0  0  0  0  0
  189.1850  178.1600  138.0780 C   0  0  0  0  0  0  0  0  0  0  0  0
  188.9820  179.5170  137.8650 O   0  0  0  0  0  1  0  0  0  0  0  0
  188.6980  177.3210  137.2740 O   0  0  0  0  0  0  0  0  0  0  0  0
  1 13  1  0  0  0  0
  2  1  2  0  0  0  0
  2 18  1  0  0  0  0
  4  1  1  0  0  0  0
  4  7  1  0  0  0  0
  5  8  1  0  0  0  0
  6  3  1  0  0  0  0
  7 14  1  0  0  0  0
  8  7  2  0  0  0  0
  9 18  1  0  0  0  0
  9 10  1  0  0  0  0
 11  2  1  0  0  0  0
 12 16  1  0  0  0  0
 12  5  2  0  0  0  0
 13 14  1  0  0  0  0
 13  3  2  0  0  0  0
 15  9  2  0  0  0  0
 16  4  2  0  0  0  0
 17 11  2  0  0  0  0
 17 15  1  0  0  0  0
 18  6  2  0  0  0  0
 19 17  1  0  0  0  0
 20 19  1  0  0  0  0
 21 22  1  6  0  0  0
 21 20  1  0  0  0  0
 23 21  1  0  0  0  0
 24 23  1  0  0  0  0
 25 23  2  0  0  0  0
M  END
>  <MODEL>
1

>  <REMARK>
 VINA RESULT:      -9.7      0.000      0.000
  Name = 
  4 active torsions:
  status: ('A' for Active; 'I' for Inactive)
    1  A    between atoms: C_2  and  C_21
    2  A    between atoms: C_6  and  S_15
    3  A    between atoms: C_6  and  C_23
    4  A    between atoms: S_15  and  C_21
                            x       y       z     vdW  Elec       q    Type
                         _______ _______ _______ _____ _____    ______ ____

>  <TORSDO>
F 4

$$$$
=
 OpenBabel10272400463D

 25 28  0  0  1  0  0  0  0  0999 V2000
  187.0070  178.0440  145.5050 C   0  0  0  0  0  0  0  0  0  0  0  0
  186.1380  178.3150  144.4440 C   0  0  0  0  0  0  0  0  0  0  0  0
  185.2380  178.4550  147.0660 N   0  0  0  0  0  0  0  0  0  0  0  0
  188.3620  177.6850  145.4700 C   0  0  0  0  0  0  0  0  0  0  0  0
  191.0370  176.9570  145.8040 C   0  0  0  0  0  3  0  0  0  0  0  0
  184.3980  178.7160  146.0580 N   0  0  0  0  0  0  0  0  0  0  0  0
  188.8970  177.4940  146.7440 C   0  0  0  0  0  0  0  0  0  0  0  0
  190.2280  177.1310  146.9370 C   0  0  0  0  0  3  0  0  0  0  0  0
  183.9100  178.9290  143.7030 C   0  0  0  0  0  0  0  0  0  0  0  0
  182.4890  179.2900  143.9650 C   0  0  0  0  0  1  0  0  0  0  0  0
  186.5450  178.2550  143.1470 N   0  0  0  0  0  0  0  0  0  0  0  0
  190.5090  177.1460  144.5130 C   0  0  0  0  0  3  0  0  0  0  0  0
  186.5250  178.1240  146.8020 C   0  0  0  0  0  0  0  0  0  0  0  0
  187.7240  177.7620  147.9300 S   0  0  0  0  0  0  0  0  0  0  0  0
  184.3610  178.8570  142.3830 C   0  0  0  0  0  3  0  0  0  0  0  0
  189.1640  177.5120  144.3390 C   0  0  0  0  0  3  0  0  0  0  0  0
  185.6930  178.5230  142.1210 C   0  0  0  0  0  0  0  0  0  0  0  0
  184.8010  178.6580  144.7520 C   0  0  0  0  0  0  0  0  0  0  0  0
  186.1710  178.4220  140.7160 C   0  0  0  0  0  2  0  0  0  0  0  0
  187.9870  178.3890  140.6860 S   0  0  0  0  0  0  0  0  0  0  0  0
  188.0310  177.7490  138.9850 C   0  0  1  0  0  3  0  0  0  0  0  0
  186.7040  178.0100  138.2940 C   0  0  0  0  0  1  0  0  0  0  0  0
  189.1470  178.3790  138.2210 C   0  0  0  0  0  0  0  0  0  0  0  0
  188.9990  179.6690  137.7290 O   0  0  0  0  0  0  0  0  0  0  0  0
  190.2210  177.7520  138.0180 O   0  0  0  0  0  1  0  0  0  0  0  0
  1 13  2  0  0  0  0
  2 18  1  0  0  0  0
  2  1  1  0  0  0  0
  4  1  1  0  0  0  0
  4  7  1  0  0  0  0
  5  8  1  0  0  0  0
  6  3  2  0  0  0  0
  7  8  2  0  0  0  0
  7 14  1  0  0  0  0
  9 10  1  0  0  0  0
  9 18  2  0  0  0  0
 11  2  2  0  0  0  0
 12  5  2  0  0  0  0
 13  3  1  0  0  0  0
 13 14  1  0  0  0  0
 15  9  1  0  0  0  0
 16 12  1  0  0  0  0
 16  4  2  0  0  0  0
 17 15  2  0  0  0  0
 17 11  1  0  0  0  0
 18  6  1  0  0  0  0
 19 17  1  0  0  0  0
 20 19  1  0  0  0  0
 21 22  1  6  0  0  0
 21 20  1  0  0  0  0
 23 21  1  0  0  0  0
 24 23  2  0  0  0  0
 25 23  1  0  0  0  0
M  END
>  <MODEL>
2

>  <REMARK>
 VINA RESULT:      -9.5      1.661      4.662
  Name = 
  4 active torsions:
  status: ('A' for Active; 'I' for Inactive)
    1  A    between atoms: C_2  and  C_21
    2  A    between atoms: C_6  and  S_15
    3  A    between atoms: C_6  and  C_23
    4  A    between atoms: S_15  and  C_21
                            x       y       z     vdW  Elec       q    Type
                         _______ _______ _______ _____ _____    ______ ____

>  <TORSDO>
F 4

$$$$
=
 OpenBabel10272400463D

 25 28  0  0  1  0  0  0  0  0999 V2000
  187.2260  177.9840  145.7750 C   0  0  0  0  0  0  0  0  0  0  0  0
  186.4460  178.2400  144.6430 C   0  0  0  0  0  0  0  0  0  0  0  0
  185.3530  178.4740  147.1850 N   0  0  0  0  0  0  0  0  0  0  0  0
  188.5720  177.5990  145.8540 C   0  0  0  0  0  0  0  0  0  0  0  0
  191.1990  176.8330  146.4110 C   0  0  0  0  0  3  0  0  0  0  0  0
  184.5970  178.7200  146.1080 N   0  0  0  0  0  0  0  0  0  0  0  0
  189.0050  177.4360  147.1700 C   0  0  0  0  0  0  0  0  0  0  0  0
  190.3100  177.0550  147.4740 C   0  0  0  0  0  3  0  0  0  0  0  0
  184.2940  178.8720  143.7180 C   0  0  0  0  0  0  0  0  0  0  0  0
  182.8640  179.2660  143.8600 C   0  0  0  0  0  1  0  0  0  0  0  0
  186.9490  178.1340  143.3840 N   0  0  0  0  0  0  0  0  0  0  0  0
  190.7740  176.9930  145.0790 C   0  0  0  0  0  3  0  0  0  0  0  0
  186.6490  178.1110  147.0290 C   0  0  0  0  0  0  0  0  0  0  0  0
  187.7520  177.7610  148.2550 S   0  0  0  0  0  0  0  0  0  0  0  0
  184.8410  178.7530  142.4380 C   0  0  0  0  0  3  0  0  0  0  0  0
  189.4540  177.3780  144.7930 C   0  0  0  0  0  3  0  0  0  0  0  0
  186.1820  178.3860  142.2880 C   0  0  0  0  0  0  0  0  0  0  0  0
  185.0970  178.6150  144.8390 C   0  0  0  0  0  0  0  0  0  0  0  0
  186.7630  178.2350  140.9280 C   0  0  0  0  0  2  0  0  0  0  0  0
  188.5680  178.4260  141.0060 S   0  0  0  0  0  0  0  0  0  0  0  0
  188.8250  177.3900  139.5340 C   0  0  1  0  0  3  0  0  0  0  0  0
  188.5900  178.2030  138.2740 C   0  0  0  0  0  1  0  0  0  0  0  0
  190.2050  176.8200  139.5350 C   0  0  0  0  0  0  0  0  0  0  0  0
  191.2060  177.4470  140.2630 O   0  0  0  0  0  1  0  0  0  0  0  0
  190.4700  175.7760  138.8800 O   0  0  0  0  0  0  0  0  0  0  0  0
  1  4  1  0  0  0  0
  1 13  2  0  0  0  0
  2 18  1  0  0  0  0
  2  1  1  0  0  0  0
  4  7  1  0  0  0  0
  5  8  1  0  0  0  0
  6  3  2  0  0  0  0
  7  8  2  0  0  0  0
  7 14  1  0  0  0  0
  9 10  1  0  0  0  0
  9 18  2  0  0  0  0
 11  2  2  0  0  0  0
 12  5  2  0  0  0  0
 13  3  1  0  0  0  0
 13 14  1  0  0  0  0
 15  9  1  0  0  0  0
 16 12  1  0  0  0  0
 16  4  2  0  0  0  0
 17 15  2  0  0  0  0
 17 11  1  0  0  0  0
 18  6  1  0  0  0  0
 19 20  1  0  0  0  0
 19 17  1  0  0  0  0
 21 22  1  6  0  0  0
 21 23  1  0  0  0  0
 21 20  1  0  0  0  0
 23 24  1  0  0  0  0
 25 23  2  0  0  0  0
M  END
>  <MODEL>
3

>  <REMARK>
 VINA RESULT:      -9.5      1.756      4.656
  Name = 
  4 active torsions:
  status: ('A' for Active; 'I' for Inactive)
    1  A    between atoms: C_2  and  C_21
    2  A    between atoms: C_6  and  S_15
    3  A    between atoms: C_6  and  C_23
    4  A    between atoms: S_15  and  C_21
                            x       y       z     vdW  Elec       q    Type
                         _______ _______ _______ _____ _____    ______ ____

>  <TORSDO>
F 4

$$$$
=
 OpenBabel10272400463D

 25 28  0  0  1  0  0  0  0  0999 V2000
  186.1610  178.4320  142.4470 C   0  0  0  0  0  0  0  0  0  0  0  0
  187.2660  178.1790  141.6280 C   0  0  0  0  0  0  0  0  0  0  0  0
  184.8740  179.0630  140.5290 N   0  0  0  0  0  0  0  0  0  0  0  0
  186.0440  178.3060  143.8390 C   0  0  0  0  0  0  0  0  0  0  0  0
  185.4300  178.1770  146.5600 C   0  0  0  0  0  3  0  0  0  0  0  0
  185.9240  178.8230  139.7360 N   0  0  0  0  0  0  0  0  0  0  0  0
  184.7750  178.6520  144.3030 C   0  0  0  0  0  0  0  0  0  0  0  0
  184.4440  178.5970  145.6550 C   0  0  0  0  0  3  0  0  0  0  0  0
  188.2130  178.1350  139.3950 C   0  0  0  0  0  0  0  0  0  0  0  0
  188.1190  178.3290  137.9200 C   0  0  0  0  0  1  0  0  0  0  0  0
  188.4520  177.7440  142.1330 N   0  0  0  0  0  0  0  0  0  0  0  0
  186.7150  177.8250  146.1050 C   0  0  0  0  0  3  0  0  0  0  0  0
  184.9830  178.8720  141.8660 C   0  0  0  0  0  0  0  0  0  0  0  0
  183.7790  179.1180  143.0200 S   0  0  0  0  0  0  0  0  0  0  0  0
  189.4160  177.6880  139.9450 C   0  0  0  0  0  3  0  0  0  0  0  0
  187.0290  177.8870  144.7380 C   0  0  0  0  0  3  0  0  0  0  0  0
  189.5220  177.5030  141.3270 C   0  0  0  0  0  0  0  0  0  0  0  0
  187.1200  178.3860  140.2370 C   0  0  0  0  0  0  0  0  0  0  0  0
  190.7930  177.0050  141.9160 C   0  0  0  0  0  2  0  0  0  0  0  0
  190.4480  176.1130  143.4600 S   0  0  0  0  0  0  0  0  0  0  0  0
  191.4840  177.2400  144.4410 C   0  0  1  0  0  3  0  0  0  0  0  0
  191.1040  178.6820  144.1550 C   0  0  0  0  0  1  0  0  0  0  0  0
  191.3410  176.9440  145.8970 C   0  0  0  0  0  0  0  0  0  0  0  0
  190.2200  177.3930  146.5810 O   0  0  0  0  0  1  0  0  0  0  0  0
  192.2270  176.2920  146.5100 O   0  0  0  0  0  0  0  0  0  0  0  0
  1  4  1  0  0  0  0
  2 11  1  0  0  0  0
  2  1  1  0  0  0  0
  3 13  1  0  0  0  0
  4  7  2  0  0  0  0
  4 16  1  0  0  0  0
  6 18  1  0  0  0  0
  6  3  2  0  0  0  0
  7  8  1  0  0  0  0
  8  5  2  0  0  0  0
  9 15  2  0  0  0  0
  9 18  1  0  0  0  0
 10  9  1  0  0  0  0
 12  5  1  0  0  0  0
 13  1  2  0  0  0  0
 13 14  1  0  0  0  0
 14  7  1  0  0  0  0
 15 17  1  0  0  0  0
 16 12  2  0  0  0  0
 17 19  1  0  0  0  0
 17 11  2  0  0  0  0
 18  2  2  0  0  0  0
 19 20  1  0  0  0  0
 20 21  1  0  0  0  0
 21 22  1  1  0  0  0
 21 23  1  0  0  0  0
 23 25  2  0  0  0  0
 23 24  1  0  0  0  0
M  END
>  <MODEL>
4

>  <REMARK>
 VINA RESULT:      -9.2      3.432      5.496
  Name = 
  4 active torsions:
  status: ('A' for Active; 'I' for Inactive)
    1  A    between atoms: C_2  and  C_21
    2  A    between atoms: C_6  and  S_15
    3  A    between atoms: C_6  and  C_23
    4  A    between atoms: S_15  and  C_21
                            x       y       z     vdW  Elec       q    Type
                         _______ _______ _______ _____ _____    ______ ____

>  <TORSDO>
F 4

$$$$
=
 OpenBabel10272400463D

 25 28  0  0  1  0  0  0  0  0999 V2000
  189.3490  177.5170  144.0330 C   0  0  0  0  0  0  0  0  0  0  0  0
  188.4040  177.7640  145.0340 C   0  0  0  0  0  0  0  0  0  0  0  0
  190.9820  176.9760  145.6980 N   0  0  0  0  0  0  0  0  0  0  0  0
  189.2060  177.6050  142.6410 C   0  0  0  0  0  0  0  0  0  0  0  0
  189.3090  177.6640  139.8510 C   0  0  0  0  0  3  0  0  0  0  0  0
  190.0860  177.2090  146.6640 N   0  0  0  0  0  0  0  0  0  0  0  0
  190.3800  177.2790  141.9610 C   0  0  0  0  0  0  0  0  0  0  0  0
  190.4570  177.3010  140.5710 C   0  0  0  0  0  3  0  0  0  0  0  0
  187.8740  177.8360  147.4010 C   0  0  0  0  0  0  0  0  0  0  0  0
  188.2360  177.6720  148.8370 C   0  0  0  0  0  1  0  0  0  0  0  0
  187.1320  178.1500  144.7440 N   0  0  0  0  0  0  0  0  0  0  0  0
  188.1180  177.9950  140.5240 C   0  0  0  0  0  3  0  0  0  0  0  0
  190.6260  177.1260  144.4000 C   0  0  0  0  0  0  0  0  0  0  0  0
  191.6080  176.8790  143.0510 S   0  0  0  0  0  0  0  0  0  0  0  0
  186.5760  178.2300  147.0690 C   0  0  0  0  0  3  0  0  0  0  0  0
  188.0600  177.9670  141.9270 C   0  0  0  0  0  3  0  0  0  0  0  0
  186.2210  178.3900  145.7260 C   0  0  0  0  0  0  0  0  0  0  0  0
  188.8050  177.5980  146.3800 C   0  0  0  0  0  0  0  0  0  0  0  0
  184.8340  178.7870  145.3660 C   0  0  0  0  0  2  0  0  0  0  0  0
  184.8500  179.7570  143.8300 S   0  0  0  0  0  0  0  0  0  0  0  0
  183.8320  178.5360  142.9490 C   0  0  1  0  0  3  0  0  0  0  0  0
  182.3580  178.8290  143.1660 C   0  0  0  0  0  1  0  0  0  0  0  0
  184.1540  178.5450  141.4920 C   0  0  0  0  0  0  0  0  0  0  0  0
  184.9780  179.5370  140.9780 O   0  0  0  0  0  1  0  0  0  0  0  0
  183.6850  177.6630  140.7230 O   0  0  0  0  0  0  0  0  0  0  0  0
  1 13  1  0  0  0  0
  1  2  2  0  0  0  0
  2 18  1  0  0  0  0
  3  6  1  0  0  0  0
  4  1  1  0  0  0  0
  5 12  2  0  0  0  0
  5  8  1  0  0  0  0
  7  4  1  0  0  0  0
  7 14  1  0  0  0  0
  8  7  2  0  0  0  0
  9 10  1  0  0  0  0
 11  2  1  0  0  0  0
 11 17  2  0  0  0  0
 12 16  1  0  0  0  0
 13  3  2  0  0  0  0
 14 13  1  0  0  0  0
 15  9  2  0  0  0  0
 16  4  2  0  0  0  0
 17 15  1  0  0  0  0
 18  6  2  0  0  0  0
 18  9  1  0  0  0  0
 19 17  1  0  0  0  0
 20 19  1  0  0  0  0
 21 22  1  6  0  0  0
 21 20  1  0  0  0  0
 23 21  1  0  0  0  0
 24 23  1  0  0  0  0
 25 23  2  0  0  0  0
M  END
>  <MODEL>
5

>  <REMARK>
 VINA RESULT:      -8.9      2.290      5.313
  Name = 
  4 active torsions:
  status: ('A' for Active; 'I' for Inactive)
    1  A    between atoms: C_2  and  C_21
    2  A    between atoms: C_6  and  S_15
    3  A    between atoms: C_6  and  C_23
    4  A    between atoms: S_15  and  C_21
                            x       y       z     vdW  Elec       q    Type
                         _______ _______ _______ _____ _____    ______ ____

>  <TORSDO>
F 4

$$$$
=
 OpenBabel10272400463D

 25 28  0  0  1  0  0  0  0  0999 V2000
  189.5200  177.4660  144.2090 C   0  0  0  0  0  0  0  0  0  0  0  0
  189.0500  177.7010  142.9130 C   0  0  0  0  0  0  0  0  0  0  0  0
  191.6600  176.8490  143.3280 N   0  0  0  0  0  0  0  0  0  0  0  0
  188.8470  177.5980  145.4320 C   0  0  0  0  0  0  0  0  0  0  0  0
  187.8530  177.7420  148.0370 C   0  0  0  0  0  3  0  0  0  0  0  0
  191.2210  177.0720  142.0840 N   0  0  0  0  0  0  0  0  0  0  0  0
  189.6520  177.2710  146.5230 C   0  0  0  0  0  0  0  0  0  0  0  0
  189.1800  177.3350  147.8320 C   0  0  0  0  0  3  0  0  0  0  0  0
  189.4940  177.7260  140.5270 C   0  0  0  0  0  0  0  0  0  0  0  0
  190.3890  177.5300  139.3530 C   0  0  0  0  0  1  0  0  0  0  0  0
  187.7780  178.1200  142.6730 N   0  0  0  0  0  0  0  0  0  0  0  0
  187.0300  178.0740  146.9450 C   0  0  0  0  0  3  0  0  0  0  0  0
  190.8280  177.0420  144.3800 C   0  0  0  0  0  0  0  0  0  0  0  0
  191.1960  176.8170  146.0100 S   0  0  0  0  0  0  0  0  0  0  0  0
  188.1820  178.1560  140.3170 C   0  0  0  0  0  3  0  0  0  0  0  0
  187.5240  178.0040  145.6330 C   0  0  0  0  0  3  0  0  0  0  0  0
  187.3290  178.3430  141.4090 C   0  0  0  0  0  0  0  0  0  0  0  0
  189.9420  177.4920  141.8360 C   0  0  0  0  0  0  0  0  0  0  0  0
  185.9380  178.8240  141.1910 C   0  0  0  0  0  2  0  0  0  0  0  0
  184.8930  178.3370  142.5950 S   0  0  0  0  0  0  0  0  0  0  0  0
  183.3620  178.7590  141.7100 C   0  0  1  0  0  3  0  0  0  0  0  0
  183.0970  177.7450  140.6110 C   0  0  0  0  0  1  0  0  0  0  0  0
  182.2110  178.8110  142.6580 C   0  0  0  0  0  0  0  0  0  0  0  0
  180.9140  178.8240  142.1620 O   0  0  0  0  0  0  0  0  0  0  0  0
  182.4040  178.8460  143.9030 O   0  0  0  0  0  1  0  0  0  0  0  0
  1 13  2  0  0  0  0
  1  4  1  0  0  0  0
  2  1  1  0  0  0  0
  3 13  1  0  0  0  0
  4 16  2  0  0  0  0
  4  7  1  0  0  0  0
  6  3  2  0  0  0  0
  7  8  2  0  0  0  0
  8  5  1  0  0  0  0
  9 18  1  0  0  0  0
 10  9  1  0  0  0  0
 11  2  1  0  0  0  0
 12  5  2  0  0  0  0
 13 14  1  0  0  0  0
 14  7  1  0  0  0  0
 15  9  2  0  0  0  0
 15 17  1  0  0  0  0
 16 12  1  0  0  0  0
 17 11  2  0  0  0  0
 18  6  1  0  0  0  0
 18  2  2  0  0  0  0
 19 17  1  0  0  0  0
 19 20  1  0  0  0  0
 21 22  1  6  0  0  0
 21 20  1  0  0  0  0
 21 23  1  0  0  0  0
 23 25  1  0  0  0  0
 24 23  2  0  0  0  0
M  END
>  <MODEL>
6

>  <REMARK>
 VINA RESULT:      -8.8      3.445      5.699
  Name = 
  4 active torsions:
  status: ('A' for Active; 'I' for Inactive)
    1  A    between atoms: C_2  and  C_21
    2  A    between atoms: C_6  and  S_15
    3  A    between atoms: C_6  and  C_23
    4  A    between atoms: S_15  and  C_21
                            x       y       z     vdW  Elec       q    Type
                         _______ _______ _______ _____ _____    ______ ____

>  <TORSDO>
F 4

$$$$
=
 OpenBabel10272400463D

 25 28  0  0  1  0  0  0  0  0999 V2000
  187.0930  178.0100  145.5680 C   0  0  0  0  0  0  0  0  0  0  0  0
  186.2500  178.2880  144.4880 C   0  0  0  0  0  0  0  0  0  0  0  0
  185.2890  178.4140  147.0900 N   0  0  0  0  0  0  0  0  0  0  0  0
  188.4490  177.6490  145.5630 C   0  0  0  0  0  0  0  0  0  0  0  0
  191.1140  176.9150  145.9550 C   0  0  0  0  0  3  0  0  0  0  0  0
  184.4730  178.6810  146.0640 N   0  0  0  0  0  0  0  0  0  0  0  0
  188.9540  177.4490  146.8480 C   0  0  0  0  0  0  0  0  0  0  0  0
  190.2800  177.0840  147.0700 C   0  0  0  0  0  3  0  0  0  0  0  0
  184.0410  178.9090  143.6990 C   0  0  0  0  0  0  0  0  0  0  0  0
  182.6140  179.2700  143.9300 C   0  0  0  0  0  1  0  0  0  0  0  0
  186.6870  178.2350  143.2010 N   0  0  0  0  0  0  0  0  0  0  0  0
  190.6170  177.1130  144.6530 C   0  0  0  0  0  3  0  0  0  0  0  0
  186.5820  178.0820  146.8540 C   0  0  0  0  0  0  0  0  0  0  0  0
  187.7540  177.7120  148.0080 S   0  0  0  0  0  0  0  0  0  0  0  0
  184.5220  178.8440  142.3900 C   0  0  0  0  0  3  0  0  0  0  0  0
  189.2770  177.4810  144.4500 C   0  0  0  0  0  3  0  0  0  0  0  0
  185.8600  178.5100  142.1570 C   0  0  0  0  0  0  0  0  0  0  0  0
  184.9070  178.6300  144.7670 C   0  0  0  0  0  0  0  0  0  0  0  0
  186.3700  178.4160  140.7630 C   0  0  0  0  0  2  0  0  0  0  0  0
  185.0210  178.7410  139.5910 S   0  0  0  0  0  0  0  0  0  0  0  0
  186.0770  178.3970  138.1510 C   0  0  1  0  0  3  0  0  0  0  0  0
  187.4810  178.0390  138.6060 C   0  0  0  0  0  1  0  0  0  0  0  0
  185.4970  177.2900  137.3340 C   0  0  0  0  0  0  0  0  0  0  0  0
  186.3200  176.5580  136.4900 O   0  0  0  0  0  0  0  0  0  0  0  0
  184.2690  177.0160  137.4020 O   0  0  0  0  0  1  0  0  0  0  0  0
  1 13  2  0  0  0  0
  2 18  1  0  0  0  0
  2  1  1  0  0  0  0
  4  1  1  0  0  0  0
  4  7  1  0  0  0  0
  5  8  1  0  0  0  0
  6  3  2  0  0  0  0
  7  8  2  0  0  0  0
  7 14  1  0  0  0  0
  9 10  1  0  0  0  0
  9 18  2  0  0  0  0
 11  2  2  0  0  0  0
 12  5  2  0  0  0  0
 13  3  1  0  0  0  0
 13 14  1  0  0  0  0
 15  9  1  0  0  0  0
 16 12  1  0  0  0  0
 16  4  2  0  0  0  0
 17 15  2  0  0  0  0
 17 11  1  0  0  0  0
 18  6  1  0  0  0  0
 19 17  1  0  0  0  0
 20 19  1  0  0  0  0
 21 22  1  1  0  0  0
 21 20  1  0  0  0  0
 23 25  1  0  0  0  0
 23 21  1  0  0  0  0
 24 23  2  0  0  0  0
M  END
>  <MODEL>
7

>  <REMARK>
 VINA RESULT:      -8.7      2.221      4.945
  Name = 
  4 active torsions:
  status: ('A' for Active; 'I' for Inactive)
    1  A    between atoms: C_2  and  C_21
    2  A    between atoms: C_6  and  S_15
    3  A    between atoms: C_6  and  C_23
    4  A    between atoms: S_15  and  C_21
                            x       y       z     vdW  Elec       q    Type
                         _______ _______ _______ _____ _____    ______ ____

>  <TORSDO>
F 4

$$$$
=
 OpenBabel10272400463D

 25 28  0  0  1  0  0  0  0  0999 V2000
  188.1290  177.6840  144.4790 C   0  0  0  0  0  0  0  0  0  0  0  0
  187.9020  177.8900  143.1150 C   0  0  0  0  0  0  0  0  0  0  0  0
  185.8620  178.2930  144.9550 N   0  0  0  0  0  0  0  0  0  0  0  0
  189.3030  177.2770  145.1300 C   0  0  0  0  0  0  0  0  0  0  0  0
  191.4240  176.4900  146.7660 C   0  0  0  0  0  3  0  0  0  0  0  0
  185.6340  178.4910  143.6520 N   0  0  0  0  0  0  0  0  0  0  0  0
  189.1420  177.1810  146.5120 C   0  0  0  0  0  0  0  0  0  0  0  0
  190.1850  176.7920  147.3500 C   0  0  0  0  0  3  0  0  0  0  0  0
  186.3590  178.5120  141.3480 C   0  0  0  0  0  0  0  0  0  0  0  0
  185.0180  178.9420  140.8630 C   0  0  0  0  0  1  0  0  0  0  0  0
  188.8780  177.7010  142.1860 N   0  0  0  0  0  0  0  0  0  0  0  0
  191.5990  176.5820  145.3730 C   0  0  0  0  0  3  0  0  0  0  0  0
  187.0890  177.8950  145.3700 C   0  0  0  0  0  0  0  0  0  0  0  0
  187.5660  177.5940  146.9590 S   0  0  0  0  0  0  0  0  0  0  0  0
  187.3830  178.3070  140.4210 C   0  0  0  0  0  3  0  0  0  0  0  0
  190.5360  176.9770  144.5450 C   0  0  0  0  0  3  0  0  0  0  0  0
  188.6480  177.9050  140.8610 C   0  0  0  0  0  0  0  0  0  0  0  0
  186.6120  178.3040  142.7130 C   0  0  0  0  0  0  0  0  0  0  0  0
  189.7350  177.6640  139.8760 C   0  0  0  0  0  2  0  0  0  0  0  0
  189.1410  176.5580  138.5630 S   0  0  0  0  0  0  0  0  0  0  0  0
  189.6760  177.6950  137.2480 C   0  0  1  0  0  3  0  0  0  0  0  0
  189.8570  176.9380  135.9440 C   0  0  0  0  0  1  0  0  0  0  0  0
  188.6820  178.7950  137.0770 C   0  0  0  0  0  0  0  0  0  0  0  0
  187.4500  178.5220  136.4960 O   0  0  0  0  0  0  0  0  0  0  0  0
  188.9490  179.9680  137.4510 O   0  0  0  0  0  1  0  0  0  0  0  0
  1  4  1  0  0  0  0
  1 13  2  0  0  0  0
  2  1  1  0  0  0  0
  3 13  1  0  0  0  0
  4  7  1  0  0  0  0
  5  8  1  0  0  0  0
  6  3  2  0  0  0  0
  7 14  1  0  0  0  0
  7  8  2  0  0  0  0
  9 18  2  0  0  0  0
 10  9  1  0  0  0  0
 11  2  2  0  0  0  0
 12  5  2  0  0  0  0
 13 14  1  0  0  0  0
 15 17  2  0  0  0  0
 15  9  1  0  0  0  0
 16  4  2  0  0  0  0
 16 12  1  0  0  0  0
 17 11  1  0  0  0  0
 18  2  1  0  0  0  0
 18  6  1  0  0  0  0
 19 17  1  0  0  0  0
 20 19  1  0  0  0  0
 21 22  1  6  0  0  0
 21 20  1  0  0  0  0
 23 21  1  0  0  0  0
 23 25  1  0  0  0  0
 24 23  2  0  0  0  0
M  END
>  <MODEL>
8

>  <REMARK>
 VINA RESULT:      -8.6      1.942      4.541
  Name = 
  4 active torsions:
  status: ('A' for Active; 'I' for Inactive)
    1  A    between atoms: C_2  and  C_21
    2  A    between atoms: C_6  and  S_15
    3  A    between atoms: C_6  and  C_23
    4  A    between atoms: S_15  and  C_21
                            x       y       z     vdW  Elec       q    Type
                         _______ _______ _______ _____ _____    ______ ____

>  <TORSDO>
F 4

$$$$
=
 OpenBabel10272400463D

 25 28  0  0  1  0  0  0  0  0999 V2000
  186.4740  178.2890  141.9130 C   0  0  0  0  0  0  0  0  0  0  0  0
  187.7960  177.8410  141.8390 C   0  0  0  0  0  0  0  0  0  0  0  0
  186.4490  178.6240  139.5420 N   0  0  0  0  0  0  0  0  0  0  0  0
  185.6450  178.4210  143.0360 C   0  0  0  0  0  0  0  0  0  0  0  0
  183.7140  178.8140  145.0140 C   0  0  0  0  0  3  0  0  0  0  0  0
  187.7140  178.1960  139.4600 N   0  0  0  0  0  0  0  0  0  0  0  0
  184.3780  178.9050  142.7120 C   0  0  0  0  0  0  0  0  0  0  0  0
  183.3970  179.1100  143.6800 C   0  0  0  0  0  3  0  0  0  0  0  0
  189.7380  177.3500  140.4690 C   0  0  0  0  0  0  0  0  0  0  0  0
  190.4390  177.2790  139.1560 C   0  0  0  0  0  1  0  0  0  0  0  0
  188.4860  177.4480  142.9450 N   0  0  0  0  0  0  0  0  0  0  0  0
  184.9890  178.3250  145.3550 C   0  0  0  0  0  3  0  0  0  0  0  0
  185.8310  178.6730  140.7470 C   0  0  0  0  0  0  0  0  0  0  0  0
  184.2520  179.1790  141.0490 S   0  0  0  0  0  0  0  0  0  0  0  0
  190.4160  176.9530  141.6230 C   0  0  0  0  0  3  0  0  0  0  0  0
  185.9640  178.1250  144.3650 C   0  0  0  0  0  3  0  0  0  0  0  0
  189.7730  177.0150  142.8630 C   0  0  0  0  0  0  0  0  0  0  0  0
  188.4130  177.8000  140.5680 C   0  0  0  0  0  0  0  0  0  0  0  0
  190.4840  176.5720  144.0920 C   0  0  0  0  0  2  0  0  0  0  0  0
  190.6730  177.9740  145.2320 S   0  0  0  0  0  0  0  0  0  0  0  0
  190.2640  176.9570  146.6830 C   0  0  1  0  0  3  0  0  0  0  0  0
  191.5170  176.6700  147.4900 C   0  0  0  0  0  1  0  0  0  0  0  0
  189.2460  177.6460  147.5300 C   0  0  0  0  0  0  0  0  0  0  0  0
  187.9570  177.8190  147.0470 O   0  0  0  0  0  0  0  0  0  0  0  0
  189.5470  178.0730  148.6770 O   0  0  0  0  0  1  0  0  0  0  0  0
  1  4  1  0  0  0  0
  2  1  1  0  0  0  0
  2 11  1  0  0  0  0
  3 13  1  0  0  0  0
  4 16  1  0  0  0  0
  5 12  1  0  0  0  0
  6  3  2  0  0  0  0
  6 18  1  0  0  0  0
  7  4  2  0  0  0  0
  7  8  1  0  0  0  0
  8  5  2  0  0  0  0
  9 18  1  0  0  0  0
  9 15  2  0  0  0  0
 10  9  1  0  0  0  0
 13 14  1  0  0  0  0
 13  1  2  0  0  0  0
 14  7  1  0  0  0  0
 15 17  1  0  0  0  0
 16 12  2  0  0  0  0
 17 11  2  0  0  0  0
 17 19  1  0  0  0  0
 18  2  2  0  0  0  0
 19 20  1  0  0  0  0
 20 21  1  0  0  0  0
 21 22  1  1  0  0  0
 21 23  1  0  0  0  0
 23 25  1  0  0  0  0
 24 23  2  0  0  0  0
M  END
>  <MODEL>
9

>  <REMARK>
 VINA RESULT:      -8.5      3.596      5.777
  Name = 
  4 active torsions:
  status: ('A' for Active; 'I' for Inactive)
    1  A    between atoms: C_2  and  C_21
    2  A    between atoms: C_6  and  S_15
    3  A    between atoms: C_6  and  C_23
    4  A    between atoms: S_15  and  C_21
                            x       y       z     vdW  Elec       q    Type
                         _______ _______ _______ _____ _____    ______ ____

>  <TORSDO>
F 4

$$$$
