=
 OpenBabel10272414143D

 43 49  0  0  1  0  0  0  0  0999 V2000
  191.3790  177.0250  141.6030 C   0  0  0  0  0  2  0  0  0  0  0  0
  187.5280  176.5460  137.9850 C   0  0  2  0  0  3  0  0  0  0  0  0
  185.5810  178.6090  138.6880 C   0  0  1  0  0  3  0  0  0  0  0  0
  190.3340  176.7620  138.6590 C   0  0  0  0  0  0  0  0  0  0  0  0
  190.0080  177.6810  141.7530 C   0  0  0  0  0  2  0  0  0  0  0  0
  192.0880  177.5270  140.3480 C   0  0  0  0  0  2  0  0  0  0  0  0
  189.3310  177.6870  139.3330 C   0  0  2  0  0  3  0  0  0  0  0  0
  191.7590  176.6400  139.1510 C   0  0  0  0  0  2  0  0  0  0  0  0
  189.0140  177.1490  140.7310 C   0  0  0  0  0  2  0  0  0  0  0  0
  187.0050  178.6780  139.2680 C   0  0  0  0  0  2  0  0  0  0  0  0
  188.0600  177.8890  138.4880 C   0  0  2  0  0  3  0  0  0  0  0  0
  188.5860  175.9100  137.0810 C   0  0  0  0  0  2  0  0  0  0  0  0
  186.2600  176.7600  137.2110 C   0  0  0  0  0  0  0  0  0  0  0  0
  185.4250  177.7010  137.5510 N   0  0  0  0  0  0  0  0  0  0  0  0
  189.9590  175.9130  137.6890 C   0  0  0  0  0  3  0  0  0  0  0  0
  184.5400  178.2920  139.7610 C   0  0  2  0  0  3  0  0  0  0  0  0
  183.8190  178.6260  142.1400 C   0  0  0  0  0  0  0  0  0  0  0  0
  182.2360  178.9730  140.3060 C   0  0  0  0  0  3  0  0  0  0  0  0
  183.1760  178.8000  139.3720 C   0  0  0  0  0  3  0  0  0  0  0  0
  182.5500  178.7420  141.7280 C   0  0  0  0  0  3  0  0  0  0  0  0
  184.9490  178.7950  141.1530 C   0  0  0  0  0  2  0  0  0  0  0  0
  184.7010  179.3970  144.3390 C   0  0  2  0  0  3  0  0  0  0  0  0
  183.2370  179.0430  144.5100 C   0  0  0  0  0  2  0  0  0  0  0  0
  184.0990  178.2330  143.5580 C   0  0  1  0  0  3  0  0  0  0  0  0
  185.3100  179.3130  146.6330 O   0  0  0  0  0  0  0  0  0  0  0  0
  185.5040  178.8550  145.4740 C   0  0  0  0  0  0  0  0  0  0  0  0
  186.4390  177.8270  145.2380 O   0  0  0  0  0  0  0  0  0  0  0  0
  187.6190  177.5660  147.3240 C   0  0  0  0  0  3  0  0  0  0  0  0
  187.6470  177.6350  145.9250 C   0  0  0  0  0  0  0  0  0  0  0  0
  191.3620  177.2090  145.2810 C   0  0  0  0  0  1  0  0  0  0  0  0
  190.0210  177.2690  147.3890 C   0  0  0  0  0  3  0  0  0  0  0  0
  190.0610  177.3280  145.9920 C   0  0  0  0  0  0  0  0  0  0  0  0
  188.7990  177.3840  148.0550 C   0  0  0  0  0  3  0  0  0  0  0  0
  188.8810  177.5050  145.2620 C   0  0  0  0  0  3  0  0  0  0  0  0
  185.9650  175.9250  136.1240 O   0  0  0  0  0  0  0  0  0  0  0  0
  183.7820  175.7270  134.9390 C   0  0  0  0  0  2  0  0  0  0  0  0
  184.7200  175.2500  135.9750 C   0  0  1  0  0  0  0  0  0  0  0  0
  184.6390  174.6300  134.7130 O   0  0  0  0  0  0  0  0  0  0  0  0
  184.2260  174.3350  137.0820 C   0  0  0  0  0  2  0  0  0  0  0  0
  184.8860  172.9950  137.0270 C   0  0  0  0  0  0  0  0  0  0  0  0
  184.1340  171.8970  136.9370 C   0  0  0  0  0  2  0  0  0  0  0  0
  186.3280  172.8750  137.4170 C   0  0  0  0  0  2  0  0  0  0  0  0
  187.0490  171.9400  136.4680 C   0  0  0  0  0  1  0  0  0  0  0  0
  1  5  1  0  0  0  0
  2 12  1  6  0  0  0
  2 11  1  0  0  0  0
  3 10  1  1  0  0  0
  3 16  1  0  0  0  0
  4  8  1  0  0  0  0
  4  7  1  0  0  0  0
  6  1  1  0  0  0  0
  7  9  1  1  0  0  0
  8  6  1  0  0  0  0
  9  5  1  0  0  0  0
 11 10  1  1  0  0  0
 11  7  1  0  0  0  0
 12 15  1  0  0  0  0
 13 14  2  0  0  0  0
 13  2  1  0  0  0  0
 14  3  1  0  0  0  0
 15  4  2  0  0  0  0
 16 19  1  6  0  0  0
 16 21  1  0  0  0  0
 18 20  1  0  0  0  0
 19 18  2  0  0  0  0
 20 17  2  0  0  0  0
 21 17  1  0  0  0  0
 22 23  1  0  0  0  0
 22 26  1  1  0  0  0
 24 17  1  6  0  0  0
 24 22  1  0  0  0  0
 24 23  1  0  0  0  0
 26 25  2  0  0  0  0
 27 26  1  0  0  0  0
 27 29  1  0  0  0  0
 28 33  1  0  0  0  0
 29 28  2  0  0  0  0
 30 32  1  0  0  0  0
 31 33  2  0  0  0  0
 32 31  1  0  0  0  0
 34 29  1  0  0  0  0
 34 32  2  0  0  0  0
 35 13  1  0  0  0  0
 36 37  1  0  0  0  0
 37 35  1  0  0  0  0
 37 39  1  1  0  0  0
 38 36  1  0  0  0  0
 38 37  1  0  0  0  0
 40 39  1  0  0  0  0
 40 42  1  0  0  0  0
 41 40  2  0  0  0  0
 43 42  1  0  0  0  0
M  END
>  <MODEL>
1

>  <REMARK>
 VINA RESULT:      -9.3      0.000      0.000
  Name = 
  10 active torsions:
  status: ('A' for Active; 'I' for Inactive)
    1  A    between atoms: O_1  and  C_34
    2  A    between atoms: O_1  and  C_35
    3  A    between atoms: C_2  and  C_13
    4  A    between atoms: C_3  and  C_42
    5  A    between atoms: O_4  and  C_14
    6  A    between atoms: O_4  and  C_41
    7  A    between atoms: C_9  and  C_19
    8  A    between atoms: C_10  and  C_41
    9  A    between atoms: C_19  and  C_32
   10  A    between atoms: C_32  and  C_35
                            x       y       z     vdW  Elec       q    Type
                         _______ _______ _______ _____ _____    ______ ____

>  <TORSDO>
F 10

$$$$
=
 OpenBabel10272414143D

 43 49  0  0  1  0  0  0  0  0999 V2000
  190.1240  177.9290  138.3470 C   0  0  0  0  0  2  0  0  0  0  0  0
  189.5660  178.0370  143.6220 C   0  0  2  0  0  3  0  0  0  0  0  0
  186.8230  177.1510  144.1020 C   0  0  1  0  0  3  0  0  0  0  0  0
  191.0600  177.2680  141.2660 C   0  0  0  0  0  0  0  0  0  0  0  0
  188.7680  177.8470  139.0440 C   0  0  0  0  0  2  0  0  0  0  0  0
  191.0200  176.7660  138.7640 C   0  0  0  0  0  2  0  0  0  0  0  0
  189.5520  177.0580  141.2960 C   0  0  2  0  0  3  0  0  0  0  0  0
  191.8550  177.1370  139.9860 C   0  0  0  0  0  2  0  0  0  0  0  0
  188.8730  178.1900  140.5230 C   0  0  0  0  0  2  0  0  0  0  0  0
  187.4770  176.8940  142.7330 C   0  0  0  0  0  2  0  0  0  0  0  0
  189.0080  176.9280  142.7310 C   0  0  2  0  0  3  0  0  0  0  0  0
  191.0880  177.8880  143.6920 C   0  0  0  0  0  2  0  0  0  0  0  0
  188.9810  177.9250  144.9990 C   0  0  0  0  0  0  0  0  0  0  0  0
  187.7570  177.5130  145.1700 N   0  0  0  0  0  0  0  0  0  0  0  0
  191.7250  177.7140  142.3430 C   0  0  0  0  0  3  0  0  0  0  0  0
  185.6990  178.1830  144.0150 C   0  0  2  0  0  3  0  0  0  0  0  0
  183.4750  178.7750  143.0180 C   0  0  0  0  0  0  0  0  0  0  0  0
  183.8380  178.9580  145.4310 C   0  0  0  0  0  3  0  0  0  0  0  0
  185.0550  178.4110  145.3580 C   0  0  0  0  0  3  0  0  0  0  0  0
  183.0890  179.2710  144.2010 C   0  0  0  0  0  3  0  0  0  0  0  0
  184.6540  177.8350  142.9450 C   0  0  0  0  0  2  0  0  0  0  0  0
  183.5770  178.8200  140.5290 C   0  0  2  0  0  3  0  0  0  0  0  0
  182.3410  178.0460  140.9410 C   0  0  0  0  0  2  0  0  0  0  0  0
  182.7920  179.2380  141.7680 C   0  0  1  0  0  3  0  0  0  0  0  0
  184.1920  180.4130  138.8790 O   0  0  0  0  0  0  0  0  0  0  0  0
  183.2570  179.7570  139.4120 C   0  0  0  0  0  0  0  0  0  0  0  0
  181.9270  179.8700  138.9580 O   0  0  0  0  0  0  0  0  0  0  0  0
  181.0160  180.2040  136.7520 C   0  0  0  0  0  3  0  0  0  0  0  0
  181.4650  180.7450  137.9640 C   0  0  0  0  0  0  0  0  0  0  0  0
  180.9580  184.4470  137.3060 C   0  0  0  0  0  1  0  0  0  0  0  0
  180.5360  182.4220  135.9050 C   0  0  0  0  0  3  0  0  0  0  0  0
  180.9730  182.9730  137.1140 C   0  0  0  0  0  0  0  0  0  0  0  0
  180.5540  181.0370  135.7250 C   0  0  0  0  0  3  0  0  0  0  0  0
  181.4320  182.1400  138.1410 C   0  0  0  0  0  3  0  0  0  0  0  0
  189.7560  178.2870  146.1110 O   0  0  0  0  0  0  0  0  0  0  0  0
  189.6660  178.3760  148.5990 C   0  0  0  0  0  2  0  0  0  0  0  0
  189.7140  177.5890  147.3510 C   0  0  1  0  0  0  0  0  0  0  0  0
  188.4990  177.8360  148.0200 O   0  0  0  0  0  0  0  0  0  0  0  0
  190.0890  176.1170  147.3960 C   0  0  0  0  0  2  0  0  0  0  0  0
  191.5400  175.9090  147.1030 C   0  0  0  0  0  0  0  0  0  0  0  0
  192.4330  176.0400  148.0840 C   0  0  0  0  0  2  0  0  0  0  0  0
  192.0030  175.9020  145.6770 C   0  0  0  0  0  2  0  0  0  0  0  0
  192.3140  174.4860  145.2370 C   0  0  0  0  0  1  0  0  0  0  0  0
  1  6  1  0  0  0  0
  1  5  1  0  0  0  0
  2 12  1  1  0  0  0
  2 13  1  0  0  0  0
  3 10  1  6  0  0  0
  3 14  1  0  0  0  0
  4  7  1  0  0  0  0
  4 15  2  0  0  0  0
  5  9  1  0  0  0  0
  6  8  1  0  0  0  0
  7  9  1  1  0  0  0
  7 11  1  0  0  0  0
  8  4  1  0  0  0  0
 11 10  1  6  0  0  0
 11  2  1  0  0  0  0
 13 14  2  0  0  0  0
 13 35  1  0  0  0  0
 15 12  1  0  0  0  0
 16 21  1  6  0  0  0
 16  3  1  0  0  0  0
 16 19  1  0  0  0  0
 17 20  2  0  0  0  0
 19 18  2  0  0  0  0
 20 18  1  0  0  0  0
 21 17  1  0  0  0  0
 22 26  1  6  0  0  0
 22 23  1  0  0  0  0
 22 24  1  0  0  0  0
 23 24  1  0  0  0  0
 24 17  1  1  0  0  0
 25 26  2  0  0  0  0
 27 26  1  0  0  0  0
 28 29  1  0  0  0  0
 29 34  2  0  0  0  0
 29 27  1  0  0  0  0
 31 32  2  0  0  0  0
 32 30  1  0  0  0  0
 32 34  1  0  0  0  0
 33 31  1  0  0  0  0
 33 28  2  0  0  0  0
 35 37  1  0  0  0  0
 37 39  1  1  0  0  0
 37 38  1  0  0  0  0
 37 36  1  0  0  0  0
 38 36  1  0  0  0  0
 40 39  1  0  0  0  0
 40 41  2  0  0  0  0
 42 40  1  0  0  0  0
 43 42  1  0  0  0  0
M  END
>  <MODEL>
2

>  <REMARK>
 VINA RESULT:      -8.9      3.446      8.901
  Name = 
  10 active torsions:
  status: ('A' for Active; 'I' for Inactive)
    1  A    between atoms: O_1  and  C_34
    2  A    between atoms: O_1  and  C_35
    3  A    between atoms: C_2  and  C_13
    4  A    between atoms: C_3  and  C_42
    5  A    between atoms: O_4  and  C_14
    6  A    between atoms: O_4  and  C_41
    7  A    between atoms: C_9  and  C_19
    8  A    between atoms: C_10  and  C_41
    9  A    between atoms: C_19  and  C_32
   10  A    between atoms: C_32  and  C_35
                            x       y       z     vdW  Elec       q    Type
                         _______ _______ _______ _____ _____    ______ ____

>  <TORSDO>
F 10

$$$$
=
 OpenBabel10272414143D

 43 49  0  0  1  0  0  0  0  0999 V2000
  181.5500  178.6010  141.7870 C   0  0  0  0  0  2  0  0  0  0  0  0
  186.3230  177.5720  143.8610 C   0  0  2  0  0  3  0  0  0  0  0  0
  188.2290  178.5020  141.8500 C   0  0  1  0  0  3  0  0  0  0  0  0
  183.6580  178.6740  144.1060 C   0  0  0  0  0  0  0  0  0  0  0  0
  182.8380  178.6280  140.9670 C   0  0  0  0  0  2  0  0  0  0  0  0
  181.6060  179.6210  142.9210 C   0  0  0  0  0  2  0  0  0  0  0  0
  184.4700  178.9550  142.8500 C   0  0  2  0  0  3  0  0  0  0  0  0
  182.1820  178.9910  144.1860 C   0  0  0  0  0  2  0  0  0  0  0  0
  184.0050  178.0190  141.7320 C   0  0  0  0  0  2  0  0  0  0  0  0
  186.7640  178.9670  141.7820 C   0  0  0  0  0  2  0  0  0  0  0  0
  185.9870  178.8520  143.0970 C   0  0  2  0  0  3  0  0  0  0  0  0
  185.6360  177.6250  145.2280 C   0  0  0  0  0  2  0  0  0  0  0  0
  187.8090  177.4650  144.0430 C   0  0  0  0  0  0  0  0  0  0  0  0
  188.6240  177.9040  143.1270 N   0  0  0  0  0  0  0  0  0  0  0  0
  184.1860  178.0060  145.1440 C   0  0  0  0  0  3  0  0  0  0  0  0
  188.5860  177.5640  140.6980 C   0  0  2  0  0  3  0  0  0  0  0  0
  188.5520  177.1900  138.2180 C   0  0  0  0  0  0  0  0  0  0  0  0
  190.6190  176.8710  139.4910 C   0  0  0  0  0  3  0  0  0  0  0  0
  190.0720  177.3260  140.6220 C   0  0  0  0  0  3  0  0  0  0  0  0
  189.7860  176.6720  138.2900 C   0  0  0  0  0  3  0  0  0  0  0  0
  188.0260  178.0390  139.3500 C   0  0  0  0  0  2  0  0  0  0  0  0
  186.3160  177.5210  137.1730 C   0  0  2  0  0  3  0  0  0  0  0  0
  187.3670  178.0760  136.2330 C   0  0  0  0  0  2  0  0  0  0  0  0
  187.6740  176.8370  137.0570 C   0  0  1  0  0  3  0  0  0  0  0  0
  185.3100  176.7780  135.1540 O   0  0  0  0  0  0  0  0  0  0  0  0
  185.3060  176.7260  136.4140 C   0  0  0  0  0  0  0  0  0  0  0  0
  184.3900  175.9150  137.1130 O   0  0  0  0  0  0  0  0  0  0  0  0
  182.5650  177.4890  137.0760 C   0  0  0  0  0  3  0  0  0  0  0  0
  183.1250  176.3060  137.5770 C   0  0  0  0  0  0  0  0  0  0  0  0
  180.3970  175.2020  139.9710 C   0  0  0  0  0  1  0  0  0  0  0  0
  180.6020  177.1820  138.4610 C   0  0  0  0  0  3  0  0  0  0  0  0
  181.1470  175.9950  138.9610 C   0  0  0  0  0  0  0  0  0  0  0  0
  181.3090  177.9270  137.5150 C   0  0  0  0  0  3  0  0  0  0  0  0
  182.4000  175.5560  138.5200 C   0  0  0  0  0  3  0  0  0  0  0  0
  188.3210  176.8670  145.2040 O   0  0  0  0  0  0  0  0  0  0  0  0
  188.3110  178.2070  147.3050 C   0  0  0  0  0  2  0  0  0  0  0  0
  189.0550  177.5840  146.1910 C   0  0  1  0  0  0  0  0  0  0  0  0
  188.9450  176.9550  147.4470 O   0  0  0  0  0  0  0  0  0  0  0  0
  190.4840  178.0110  145.9000 C   0  0  0  0  0  2  0  0  0  0  0  0
  191.3300  176.8540  145.4790 C   0  0  0  0  0  0  0  0  0  0  0  0
  191.9710  176.1380  146.4040 C   0  0  0  0  0  2  0  0  0  0  0  0
  191.7260  176.7250  144.0390 C   0  0  0  0  0  2  0  0  0  0  0  0
  191.2020  175.4240  143.4670 C   0  0  0  0  0  1  0  0  0  0  0  0
  1  6  1  0  0  0  0
  2 13  1  0  0  0  0
  2 12  1  1  0  0  0
  3 10  1  1  0  0  0
  3 14  1  0  0  0  0
  4  8  1  0  0  0  0
  4 15  2  0  0  0  0
  5  9  1  0  0  0  0
  5  1  1  0  0  0  0
  6  8  1  0  0  0  0
  7  9  1  6  0  0  0
  7 11  1  0  0  0  0
  7  4  1  0  0  0  0
 11 10  1  6  0  0  0
 11  2  1  0  0  0  0
 13 35  1  0  0  0  0
 14 13  2  0  0  0  0
 15 12  1  0  0  0  0
 16 21  1  6  0  0  0
 16  3  1  0  0  0  0
 17 20  2  0  0  0  0
 17 21  1  0  0  0  0
 18 19  2  0  0  0  0
 19 16  1  0  0  0  0
 20 18  1  0  0  0  0
 22 26  1  6  0  0  0
 23 24  1  0  0  0  0
 23 22  1  0  0  0  0
 24 22  1  0  0  0  0
 24 17  1  1  0  0  0
 25 26  2  0  0  0  0
 26 27  1  0  0  0  0
 27 29  1  0  0  0  0
 28 33  2  0  0  0  0
 28 29  1  0  0  0  0
 29 34  2  0  0  0  0
 31 32  2  0  0  0  0
 32 30  1  0  0  0  0
 33 31  1  0  0  0  0
 34 32  1  0  0  0  0
 35 37  1  0  0  0  0
 36 38  1  0  0  0  0
 37 39  1  6  0  0  0
 37 36  1  0  0  0  0
 37 38  1  0  0  0  0
 40 39  1  0  0  0  0
 40 41  2  0  0  0  0
 42 40  1  0  0  0  0
 43 42  1  0  0  0  0
M  END
>  <MODEL>
3

>  <REMARK>
 VINA RESULT:      -8.7      2.182      9.354
  Name = 
  10 active torsions:
  status: ('A' for Active; 'I' for Inactive)
    1  A    between atoms: O_1  and  C_34
    2  A    between atoms: O_1  and  C_35
    3  A    between atoms: C_2  and  C_13
    4  A    between atoms: C_3  and  C_42
    5  A    between atoms: O_4  and  C_14
    6  A    between atoms: O_4  and  C_41
    7  A    between atoms: C_9  and  C_19
    8  A    between atoms: C_10  and  C_41
    9  A    between atoms: C_19  and  C_32
   10  A    between atoms: C_32  and  C_35
                            x       y       z     vdW  Elec       q    Type
                         _______ _______ _______ _____ _____    ______ ____

>  <TORSDO>
F 10

$$$$
=
 OpenBabel10272414143D

 43 49  0  0  1  0  0  0  0  0999 V2000
  183.7460  172.4720  136.0360 C   0  0  0  0  0  2  0  0  0  0  0  0
  184.4530  177.0620  138.6000 C   0  0  2  0  0  3  0  0  0  0  0  0
  186.7100  178.3340  137.2480 C   0  0  1  0  0  3  0  0  0  0  0  0
  182.7180  175.1610  137.2770 C   0  0  0  0  0  0  0  0  0  0  0  0
  185.0020  173.3270  135.8840 C   0  0  0  0  0  2  0  0  0  0  0  0
  182.5050  173.2470  135.6020 C   0  0  0  0  0  2  0  0  0  0  0  0
  184.0500  175.5260  136.6390 C   0  0  2  0  0  3  0  0  0  0  0  0
  181.8930  173.9930  136.7840 C   0  0  0  0  0  2  0  0  0  0  0  0
  185.0690  174.4230  136.9380 C   0  0  0  0  0  2  0  0  0  0  0  0
  185.9690  177.1730  136.5620 C   0  0  0  0  0  2  0  0  0  0  0  0
  184.5520  176.9130  137.0820 C   0  0  2  0  0  3  0  0  0  0  0  0
  182.9810  176.9540  139.0060 C   0  0  0  0  0  2  0  0  0  0  0  0
  184.9980  178.3980  139.0150 C   0  0  0  0  0  0  0  0  0  0  0  0
  185.9970  178.9360  138.3760 N   0  0  0  0  0  0  0  0  0  0  0  0
  182.2870  175.7720  138.3920 C   0  0  0  0  0  3  0  0  0  0  0  0
  188.1250  177.9420  137.6690 C   0  0  2  0  0  3  0  0  0  0  0  0
  189.6460  177.3130  139.5620 C   0  0  0  0  0  0  0  0  0  0  0  0
  189.5700  175.9510  137.5300 C   0  0  0  0  0  3  0  0  0  0  0  0
  188.5580  176.6560  137.0150 C   0  0  0  0  0  3  0  0  0  0  0  0
  190.2160  176.3860  138.7820 C   0  0  0  0  0  3  0  0  0  0  0  0
  188.2950  177.8790  139.1940 C   0  0  0  0  0  2  0  0  0  0  0  0
  190.7860  176.7280  141.6980 C   0  0  2  0  0  3  0  0  0  0  0  0
  191.8180  177.3050  140.7500 C   0  0  0  0  0  2  0  0  0  0  0  0
  190.4000  177.8490  140.7400 C   0  0  1  0  0  3  0  0  0  0  0  0
  191.5340  178.4120  143.1960 O   0  0  0  0  0  0  0  0  0  0  0  0
  190.9600  177.2970  143.0670 C   0  0  0  0  0  0  0  0  0  0  0  0
  190.4580  176.5960  144.1820 O   0  0  0  0  0  0  0  0  0  0  0  0
  188.0710  176.9110  144.2900 C   0  0  0  0  0  3  0  0  0  0  0  0
  189.3190  176.9350  144.9270 C   0  0  0  0  0  0  0  0  0  0  0  0
  188.3010  178.0290  148.4140 C   0  0  0  0  0  1  0  0  0  0  0  0
  186.9800  177.6170  146.3340 C   0  0  0  0  0  3  0  0  0  0  0  0
  188.2190  177.6360  146.9820 C   0  0  0  0  0  0  0  0  0  0  0  0
  186.9050  177.2510  144.9880 C   0  0  0  0  0  3  0  0  0  0  0  0
  189.3830  177.2930  146.2860 C   0  0  0  0  0  3  0  0  0  0  0  0
  184.4350  179.0610  140.1150 O   0  0  0  0  0  0  0  0  0  0  0  0
  186.2090  178.9520  141.8610 C   0  0  0  0  0  2  0  0  0  0  0  0
  184.7970  178.7810  141.4640 C   0  0  1  0  0  0  0  0  0  0  0  0
  185.2450  179.9500  142.1110 O   0  0  0  0  0  0  0  0  0  0  0  0
  183.8520  177.9800  142.3430 C   0  0  0  0  0  2  0  0  0  0  0  0
  183.1550  178.8490  143.3390 C   0  0  0  0  0  0  0  0  0  0  0  0
  183.6540  178.9640  144.5710 C   0  0  0  0  0  2  0  0  0  0  0  0
  181.7500  179.2910  143.0650 C   0  0  0  0  0  2  0  0  0  0  0  0
  181.2790  178.7400  141.7350 C   0  0  0  0  0  1  0  0  0  0  0  0
  2 12  1  6  0  0  0
  2 13  1  0  0  0  0
  3 10  1  1  0  0  0
  3 16  1  0  0  0  0
  3 14  1  0  0  0  0
  4 15  2  0  0  0  0
  5  1  1  0  0  0  0
  5  9  1  0  0  0  0
  6  1  1  0  0  0  0
  6  8  1  0  0  0  0
  7  9  1  1  0  0  0
  7 11  1  0  0  0  0
  7  4  1  0  0  0  0
  8  4  1  0  0  0  0
 11 10  1  1  0  0  0
 11  2  1  0  0  0  0
 13 35  1  0  0  0  0
 14 13  2  0  0  0  0
 15 12  1  0  0  0  0
 16 19  1  6  0  0  0
 16 21  1  0  0  0  0
 18 20  1  0  0  0  0
 19 18  2  0  0  0  0
 20 17  2  0  0  0  0
 21 17  1  0  0  0  0
 22 26  1  1  0  0  0
 23 22  1  0  0  0  0
 24 17  1  6  0  0  0
 24 23  1  0  0  0  0
 24 22  1  0  0  0  0
 26 25  2  0  0  0  0
 26 27  1  0  0  0  0
 27 29  1  0  0  0  0
 28 29  2  0  0  0  0
 28 33  1  0  0  0  0
 29 34  1  0  0  0  0
 31 32  1  0  0  0  0
 32 30  1  0  0  0  0
 33 31  2  0  0  0  0
 34 32  2  0  0  0  0
 35 37  1  0  0  0  0
 36 38  1  0  0  0  0
 37 36  1  0  0  0  0
 37 38  1  0  0  0  0
 37 39  1  1  0  0  0
 39 40  1  0  0  0  0
 40 41  2  0  0  0  0
 42 40  1  0  0  0  0
 43 42  1  0  0  0  0
M  END
>  <MODEL>
4

>  <REMARK>
 VINA RESULT:      -8.7      2.008      6.788
  Name = 
  10 active torsions:
  status: ('A' for Active; 'I' for Inactive)
    1  A    between atoms: O_1  and  C_34
    2  A    between atoms: O_1  and  C_35
    3  A    between atoms: C_2  and  C_13
    4  A    between atoms: C_3  and  C_42
    5  A    between atoms: O_4  and  C_14
    6  A    between atoms: O_4  and  C_41
    7  A    between atoms: C_9  and  C_19
    8  A    between atoms: C_10  and  C_41
    9  A    between atoms: C_19  and  C_32
   10  A    between atoms: C_32  and  C_35
                            x       y       z     vdW  Elec       q    Type
                         _______ _______ _______ _____ _____    ______ ____

>  <TORSDO>
F 10

$$$$
=
 OpenBabel10272414143D

 43 49  0  0  1  0  0  0  0  0999 V2000
  189.5650  178.1790  137.7010 C   0  0  0  0  0  2  0  0  0  0  0  0
  189.7490  177.8830  142.9940 C   0  0  2  0  0  3  0  0  0  0  0  0
  187.0660  177.0380  143.7890 C   0  0  1  0  0  3  0  0  0  0  0  0
  190.8700  177.2620  140.4000 C   0  0  0  0  0  0  0  0  0  0  0  0
  188.3160  178.0790  138.5730 C   0  0  0  0  0  2  0  0  0  0  0  0
  190.4650  176.9620  137.8980 C   0  0  0  0  0  2  0  0  0  0  0  0
  189.3750  177.0920  140.6270 C   0  0  2  0  0  3  0  0  0  0  0  0
  191.4740  177.2110  139.0150 C   0  0  0  0  0  2  0  0  0  0  0  0
  188.6380  178.3010  140.0450 C   0  0  0  0  0  2  0  0  0  0  0  0
  187.5140  176.8710  142.3260 C   0  0  0  0  0  2  0  0  0  0  0  0
  189.0300  176.8630  142.1110 C   0  0  2  0  0  3  0  0  0  0  0  0
  191.2580  177.6860  142.8370 C   0  0  0  0  0  2  0  0  0  0  0  0
  189.3560  177.6780  144.4280 C   0  0  0  0  0  0  0  0  0  0  0  0
  188.1530  177.2870  144.7380 N   0  0  0  0  0  0  0  0  0  0  0  0
  191.6950  177.6020  141.4020 C   0  0  0  0  0  3  0  0  0  0  0  0
  185.9820  178.1040  143.9400 C   0  0  2  0  0  3  0  0  0  0  0  0
  183.6830  178.8570  143.2780 C   0  0  0  0  0  0  0  0  0  0  0  0
  184.3300  178.7800  145.6370 C   0  0  0  0  0  3  0  0  0  0  0  0
  185.5080  178.2100  145.3650 C   0  0  0  0  0  3  0  0  0  0  0  0
  183.4560  179.2380  144.5420 C   0  0  0  0  0  3  0  0  0  0  0  0
  184.8070  177.8970  142.9730 C   0  0  0  0  0  2  0  0  0  0  0  0
  182.5260  178.4210  141.1150 C   0  0  2  0  0  3  0  0  0  0  0  0
  181.4880  178.8530  142.1310 C   0  0  0  0  0  2  0  0  0  0  0  0
  182.8780  179.4640  142.1700 C   0  0  1  0  0  3  0  0  0  0  0  0
  181.2480  179.7930  139.6580 O   0  0  0  0  0  0  0  0  0  0  0  0
  182.2960  179.1100  139.8110 C   0  0  0  0  0  0  0  0  0  0  0  0
  183.2620  179.0080  138.7900 O   0  0  0  0  0  0  0  0  0  0  0  0
  182.4510  177.0210  137.6920 C   0  0  0  0  0  3  0  0  0  0  0  0
  183.5180  177.8750  138.0030 C   0  0  0  0  0  0  0  0  0  0  0  0
  186.3710  176.0940  136.2470 C   0  0  0  0  0  1  0  0  0  0  0  0
  183.9370  175.5680  136.4480 C   0  0  0  0  0  3  0  0  0  0  0  0
  185.0080  176.4180  136.7440 C   0  0  0  0  0  0  0  0  0  0  0  0
  182.6580  175.8720  136.9190 C   0  0  0  0  0  3  0  0  0  0  0  0
  184.8010  177.5680  137.5140 C   0  0  0  0  0  3  0  0  0  0  0  0
  190.2910  177.9290  145.4430 O   0  0  0  0  0  0  0  0  0  0  0  0
  191.8660  176.0830  146.0120 C   0  0  0  0  0  2  0  0  0  0  0  0
  190.7170  176.9380  146.3730 C   0  0  1  0  0  0  0  0  0  0  0  0
  192.0180  177.2170  146.8360 O   0  0  0  0  0  0  0  0  0  0  0  0
  189.7930  176.5290  147.5080 C   0  0  0  0  0  2  0  0  0  0  0  0
  189.1840  177.7180  148.1790 C   0  0  0  0  0  0  0  0  0  0  0  0
  189.9560  178.5330  148.8980 C   0  0  0  0  0  2  0  0  0  0  0  0
  187.6940  177.7870  148.3280 C   0  0  0  0  0  2  0  0  0  0  0  0
  187.1920  179.1570  147.9200 C   0  0  0  0  0  1  0  0  0  0  0  0
  1  6  1  0  0  0  0
  1  5  1  0  0  0  0
  2 12  1  1  0  0  0
  2 13  1  0  0  0  0
  3 10  1  6  0  0  0
  3 16  1  0  0  0  0
  3 14  1  0  0  0  0
  4  7  1  0  0  0  0
  4 15  2  0  0  0  0
  5  9  1  0  0  0  0
  6  8  1  0  0  0  0
  7  9  1  1  0  0  0
  7 11  1  0  0  0  0
  8  4  1  0  0  0  0
 11 10  1  6  0  0  0
 11  2  1  0  0  0  0
 13 14  2  0  0  0  0
 13 35  1  0  0  0  0
 15 12  1  0  0  0  0
 16 21  1  6  0  0  0
 16 19  1  0  0  0  0
 17 20  2  0  0  0  0
 19 18  2  0  0  0  0
 20 18  1  0  0  0  0
 21 17  1  0  0  0  0
 22 26  1  6  0  0  0
 22 23  1  0  0  0  0
 22 24  1  0  0  0  0
 23 24  1  0  0  0  0
 24 17  1  1  0  0  0
 25 26  2  0  0  0  0
 27 26  1  0  0  0  0
 28 29  1  0  0  0  0
 29 27  1  0  0  0  0
 30 32  1  0  0  0  0
 31 32  2  0  0  0  0
 31 33  1  0  0  0  0
 32 34  1  0  0  0  0
 33 28  2  0  0  0  0
 34 29  2  0  0  0  0
 35 37  1  0  0  0  0
 36 37  1  0  0  0  0
 36 38  1  0  0  0  0
 37 38  1  0  0  0  0
 37 39  1  1  0  0  0
 39 40  1  0  0  0  0
 40 42  1  0  0  0  0
 40 41  2  0  0  0  0
 43 42  1  0  0  0  0
M  END
>  <MODEL>
5

>  <REMARK>
 VINA RESULT:      -8.6      2.498      8.291
  Name = 
  10 active torsions:
  status: ('A' for Active; 'I' for Inactive)
    1  A    between atoms: O_1  and  C_34
    2  A    between atoms: O_1  and  C_35
    3  A    between atoms: C_2  and  C_13
    4  A    between atoms: C_3  and  C_42
    5  A    between atoms: O_4  and  C_14
    6  A    between atoms: O_4  and  C_41
    7  A    between atoms: C_9  and  C_19
    8  A    between atoms: C_10  and  C_41
    9  A    between atoms: C_19  and  C_32
   10  A    between atoms: C_32  and  C_35
                            x       y       z     vdW  Elec       q    Type
                         _______ _______ _______ _____ _____    ______ ____

>  <TORSDO>
F 10

$$$$
=
 OpenBabel10272414143D

 43 49  0  0  1  0  0  0  0  0999 V2000
  190.2320  176.8140  143.4050 C   0  0  0  0  0  2  0  0  0  0  0  0
  189.1970  176.9060  138.2020 C   0  0  2  0  0  3  0  0  0  0  0  0
  186.6430  178.3080  137.9720 C   0  0  1  0  0  3  0  0  0  0  0  0
  191.0140  177.3350  140.4140 C   0  0  0  0  0  0  0  0  0  0  0  0
  188.8600  177.1660  142.8340 C   0  0  0  0  0  2  0  0  0  0  0  0
  191.2940  177.7920  142.9090 C   0  0  0  0  0  2  0  0  0  0  0  0
  189.5780  177.8300  140.5190 C   0  0  2  0  0  3  0  0  0  0  0  0
  191.9290  177.2890  141.6160 C   0  0  0  0  0  2  0  0  0  0  0  0
  188.7650  176.8350  141.3510 C   0  0  0  0  0  2  0  0  0  0  0  0
  187.4540  178.4130  139.2760 C   0  0  0  0  0  2  0  0  0  0  0  0
  188.9440  178.0860  139.1400 C   0  0  2  0  0  3  0  0  0  0  0  0
  190.7070  176.7630  137.9950 C   0  0  0  0  0  2  0  0  0  0  0  0
  188.5240  177.1520  136.8830 C   0  0  0  0  0  0  0  0  0  0  0  0
  187.3930  177.7940  136.8240 N   0  0  0  0  0  0  0  0  0  0  0  0
  191.4830  176.7890  139.2810 C   0  0  0  0  0  3  0  0  0  0  0  0
  185.3550  177.5090  138.1610 C   0  0  2  0  0  3  0  0  0  0  0  0
  183.0230  177.4860  139.0840 C   0  0  0  0  0  0  0  0  0  0  0  0
  183.4470  176.7970  136.7740 C   0  0  0  0  0  3  0  0  0  0  0  0
  184.7360  177.1410  136.8370 C   0  0  0  0  0  3  0  0  0  0  0  0
  182.6050  176.8480  137.9840 C   0  0  0  0  0  3  0  0  0  0  0  0
  184.3440  178.2180  139.0730 C   0  0  0  0  0  2  0  0  0  0  0  0
  181.5050  178.6980  140.6440 C   0  0  2  0  0  3  0  0  0  0  0  0
  180.7390  177.5380  140.0400 C   0  0  0  0  0  2  0  0  0  0  0  0
  182.2190  177.3850  140.3440 C   0  0  1  0  0  3  0  0  0  0  0  0
  180.2680  178.1550  142.5970 O   0  0  0  0  0  0  0  0  0  0  0  0
  181.2460  178.7850  142.1120 C   0  0  0  0  0  0  0  0  0  0  0  0
  182.1100  179.5420  142.9280 O   0  0  0  0  0  0  0  0  0  0  0  0
  184.3710  178.7830  142.5780 C   0  0  0  0  0  3  0  0  0  0  0  0
  183.3330  179.1090  143.4620 C   0  0  0  0  0  0  0  0  0  0  0  0
  185.0090  178.4140  146.7930 C   0  0  0  0  0  1  0  0  0  0  0  0
  185.8150  178.2150  144.4370 C   0  0  0  0  0  3  0  0  0  0  0  0
  184.7900  178.5460  145.3290 C   0  0  0  0  0  0  0  0  0  0  0  0
  185.6070  178.3370  143.0620 C   0  0  0  0  0  3  0  0  0  0  0  0
  183.5560  178.9950  144.8460 C   0  0  0  0  0  3  0  0  0  0  0  0
  189.1140  176.6680  135.7060 O   0  0  0  0  0  0  0  0  0  0  0  0
  189.8240  174.7050  134.3460 C   0  0  0  0  0  2  0  0  0  0  0  0
  188.7900  175.4040  135.1350 C   0  0  1  0  0  0  0  0  0  0  0  0
  189.5840  174.3860  135.6990 O   0  0  0  0  0  0  0  0  0  0  0  0
  187.3350  174.9840  135.0220 C   0  0  0  0  0  2  0  0  0  0  0  0
  187.0250  173.8220  135.9110 C   0  0  0  0  0  0  0  0  0  0  0  0
  186.8730  172.6100  135.3770 C   0  0  0  0  0  2  0  0  0  0  0  0
  186.5520  174.0800  137.3100 C   0  0  0  0  0  2  0  0  0  0  0  0
  185.4090  173.1460  137.6540 C   0  0  0  0  0  1  0  0  0  0  0  0
  2 12  1  6  0  0  0
  2 11  1  0  0  0  0
  3 16  1  0  0  0  0
  3 10  1  1  0  0  0
  4  7  1  0  0  0  0
  4  8  1  0  0  0  0
  5  1  1  0  0  0  0
  6  1  1  0  0  0  0
  7  9  1  6  0  0  0
  8  6  1  0  0  0  0
  9  5  1  0  0  0  0
 11 10  1  1  0  0  0
 11  7  1  0  0  0  0
 12 15  1  0  0  0  0
 13  2  1  0  0  0  0
 14 13  2  0  0  0  0
 14  3  1  0  0  0  0
 15  4  2  0  0  0  0
 16 19  1  6  0  0  0
 16 21  1  0  0  0  0
 18 19  2  0  0  0  0
 18 20  1  0  0  0  0
 20 17  2  0  0  0  0
 21 17  1  0  0  0  0
 22 26  1  1  0  0  0
 23 24  1  0  0  0  0
 23 22  1  0  0  0  0
 24 17  1  6  0  0  0
 24 22  1  0  0  0  0
 26 25  2  0  0  0  0
 26 27  1  0  0  0  0
 27 29  1  0  0  0  0
 28 33  2  0  0  0  0
 28 29  1  0  0  0  0
 29 34  2  0  0  0  0
 31 32  2  0  0  0  0
 32 30  1  0  0  0  0
 33 31  1  0  0  0  0
 34 32  1  0  0  0  0
 35 13  1  0  0  0  0
 36 37  1  0  0  0  0
 36 38  1  0  0  0  0
 37 39  1  6  0  0  0
 37 38  1  0  0  0  0
 37 35  1  0  0  0  0
 39 40  1  0  0  0  0
 40 42  1  0  0  0  0
 41 40  2  0  0  0  0
 42 43  1  0  0  0  0
M  END
>  <MODEL>
6

>  <REMARK>
 VINA RESULT:      -8.6      2.169      3.884
  Name = 
  10 active torsions:
  status: ('A' for Active; 'I' for Inactive)
    1  A    between atoms: O_1  and  C_34
    2  A    between atoms: O_1  and  C_35
    3  A    between atoms: C_2  and  C_13
    4  A    between atoms: C_3  and  C_42
    5  A    between atoms: O_4  and  C_14
    6  A    between atoms: O_4  and  C_41
    7  A    between atoms: C_9  and  C_19
    8  A    between atoms: C_10  and  C_41
    9  A    between atoms: C_19  and  C_32
   10  A    between atoms: C_32  and  C_35
                            x       y       z     vdW  Elec       q    Type
                         _______ _______ _______ _____ _____    ______ ____

>  <TORSDO>
F 10

$$$$
=
 OpenBabel10272414143D

 43 49  0  0  1  0  0  0  0  0999 V2000
  187.4940  171.0810  136.1810 C   0  0  0  0  0  2  0  0  0  0  0  0
  184.2640  175.1610  137.2140 C   0  0  2  0  0  3  0  0  0  0  0  0
  185.7870  177.5340  136.4450 C   0  0  1  0  0  3  0  0  0  0  0  0
  184.7340  172.5610  136.0340 C   0  0  0  0  0  0  0  0  0  0  0  0
  187.9720  172.5310  136.2310 C   0  0  0  0  0  2  0  0  0  0  0  0
  186.4300  170.8970  135.1020 C   0  0  0  0  0  2  0  0  0  0  0  0
  185.7640  173.6650  135.8430 C   0  0  2  0  0  3  0  0  0  0  0  0
  185.0340  171.1230  135.6760 C   0  0  0  0  0  2  0  0  0  0  0  0
  186.9170  173.4510  136.8270 C   0  0  0  0  0  2  0  0  0  0  0  0
  186.2350  176.1480  135.9470 C   0  0  0  0  0  2  0  0  0  0  0  0
  185.1470  175.0710  135.9700 C   0  0  2  0  0  3  0  0  0  0  0  0
  183.1120  174.1640  137.0690 C   0  0  0  0  0  2  0  0  0  0  0  0
  183.7180  176.5530  137.3490 C   0  0  0  0  0  0  0  0  0  0  0  0
  184.4250  177.5820  136.9810 N   0  0  0  0  0  0  0  0  0  0  0  0
  183.5680  172.7930  136.6570 C   0  0  0  0  0  3  0  0  0  0  0  0
  186.7710  178.1260  137.4530 C   0  0  2  0  0  3  0  0  0  0  0  0
  188.4560  177.6600  139.2520 C   0  0  0  0  0  0  0  0  0  0  0  0
  188.9990  179.1750  137.4080 C   0  0  0  0  0  3  0  0  0  0  0  0
  187.8560  178.9140  136.7670 C   0  0  0  0  0  3  0  0  0  0  0  0
  189.2360  178.6310  138.7580 C   0  0  0  0  0  3  0  0  0  0  0  0
  187.3600  177.0690  138.3990 C   0  0  0  0  0  2  0  0  0  0  0  0
  188.8810  178.4470  141.5770 C   0  0  2  0  0  3  0  0  0  0  0  0
  187.5020  177.8200  141.5310 C   0  0  0  0  0  2  0  0  0  0  0  0
  188.6200  177.2410  140.6800 C   0  0  1  0  0  3  0  0  0  0  0  0
  190.7670  178.4610  143.0200 O   0  0  0  0  0  0  0  0  0  0  0  0
  189.6180  177.9950  142.7940 C   0  0  0  0  0  0  0  0  0  0  0  0
  189.0080  177.0840  143.6790 O   0  0  0  0  0  0  0  0  0  0  0  0
  189.3400  177.3090  146.0560 C   0  0  0  0  0  3  0  0  0  0  0  0
  188.4870  177.3840  144.9470 C   0  0  0  0  0  0  0  0  0  0  0  0
  185.2480  178.4180  146.6290 C   0  0  0  0  0  1  0  0  0  0  0  0
  187.5300  177.9510  147.5310 C   0  0  0  0  0  3  0  0  0  0  0  0
  186.6710  178.0380  146.4300 C   0  0  0  0  0  0  0  0  0  0  0  0
  188.8660  177.5890  147.3430 C   0  0  0  0  0  3  0  0  0  0  0  0
  187.1470  177.7610  145.1440 C   0  0  0  0  0  3  0  0  0  0  0  0
  182.4400  176.7430  137.8940 O   0  0  0  0  0  0  0  0  0  0  0  0
  180.8130  177.0620  139.7540 C   0  0  0  0  0  2  0  0  0  0  0  0
  182.1890  176.7840  139.2960 C   0  0  1  0  0  0  0  0  0  0  0  0
  181.3140  175.7460  139.6740 O   0  0  0  0  0  0  0  0  0  0  0  0
  183.3530  176.9160  140.2620 C   0  0  0  0  0  2  0  0  0  0  0  0
  183.5280  178.3250  140.7270 C   0  0  0  0  0  0  0  0  0  0  0  0
  184.3130  179.1520  140.0360 C   0  0  0  0  0  2  0  0  0  0  0  0
  183.1150  178.6900  142.1210 C   0  0  0  0  0  2  0  0  0  0  0  0
  184.3330  178.8040  143.0140 C   0  0  0  0  0  1  0  0  0  0  0  0
  1  5  1  0  0  0  0
  2 12  1  6  0  0  0
  2 13  1  0  0  0  0
  3 10  1  1  0  0  0
  3 14  1  0  0  0  0
  3 16  1  0  0  0  0
  4 15  2  0  0  0  0
  5  9  1  0  0  0  0
  6  8  1  0  0  0  0
  6  1  1  0  0  0  0
  7 11  1  0  0  0  0
  7  4  1  0  0  0  0
  7  9  1  1  0  0  0
  8  4  1  0  0  0  0
 11 10  1  1  0  0  0
 11  2  1  0  0  0  0
 13 35  1  0  0  0  0
 14 13  2  0  0  0  0
 15 12  1  0  0  0  0
 16 19  1  6  0  0  0
 16 21  1  0  0  0  0
 18 20  1  0  0  0  0
 19 18  2  0  0  0  0
 20 17  2  0  0  0  0
 21 17  1  0  0  0  0
 22 26  1  1  0  0  0
 23 22  1  0  0  0  0
 24 17  1  6  0  0  0
 24 23  1  0  0  0  0
 24 22  1  0  0  0  0
 26 25  2  0  0  0  0
 26 27  1  0  0  0  0
 27 29  1  0  0  0  0
 28 33  1  0  0  0  0
 29 34  1  0  0  0  0
 29 28  2  0  0  0  0
 32 30  1  0  0  0  0
 32 31  1  0  0  0  0
 33 31  2  0  0  0  0
 34 32  2  0  0  0  0
 35 37  1  0  0  0  0
 37 38  1  0  0  0  0
 37 36  1  0  0  0  0
 37 39  1  1  0  0  0
 38 36  1  0  0  0  0
 39 40  1  0  0  0  0
 40 42  1  0  0  0  0
 41 40  2  0  0  0  0
 42 43  1  0  0  0  0
M  END
>  <MODEL>
7

>  <REMARK>
 VINA RESULT:      -8.4      1.948      5.777
  Name = 
  10 active torsions:
  status: ('A' for Active; 'I' for Inactive)
    1  A    between atoms: O_1  and  C_34
    2  A    between atoms: O_1  and  C_35
    3  A    between atoms: C_2  and  C_13
    4  A    between atoms: C_3  and  C_42
    5  A    between atoms: O_4  and  C_14
    6  A    between atoms: O_4  and  C_41
    7  A    between atoms: C_9  and  C_19
    8  A    between atoms: C_10  and  C_41
    9  A    between atoms: C_19  and  C_32
   10  A    between atoms: C_32  and  C_35
                            x       y       z     vdW  Elec       q    Type
                         _______ _______ _______ _____ _____    ______ ____

>  <TORSDO>
F 10

$$$$
=
 OpenBabel10272414143D

 43 49  0  0  1  0  0  0  0  0999 V2000
  182.3670  178.6360  142.7480 C   0  0  0  0  0  2  0  0  0  0  0  0
  187.4840  177.2920  143.1480 C   0  0  2  0  0  3  0  0  0  0  0  0
  188.7180  178.3100  140.7030 C   0  0  1  0  0  3  0  0  0  0  0  0
  185.0930  178.4590  144.2870 C   0  0  0  0  0  0  0  0  0  0  0  0
  183.3360  178.6830  141.5690 C   0  0  0  0  0  2  0  0  0  0  0  0
  182.8290  179.5620  143.8690 C   0  0  0  0  0  2  0  0  0  0  0  0
  185.4880  178.8100  142.8590 C   0  0  2  0  0  3  0  0  0  0  0  0
  183.7350  178.8180  144.8460 C   0  0  0  0  0  2  0  0  0  0  0  0
  184.6470  177.9780  141.8880 C   0  0  0  0  0  2  0  0  0  0  0  0
  187.3330  178.8280  141.1280 C   0  0  0  0  0  2  0  0  0  0  0  0
  186.9980  178.6380  142.6110 C   0  0  2  0  0  3  0  0  0  0  0  0
  187.2600  177.2620  144.6620 C   0  0  0  0  0  2  0  0  0  0  0  0
  188.9440  177.1220  142.8470 C   0  0  0  0  0  0  0  0  0  0  0  0
  189.4570  177.6030  141.7510 N   0  0  0  0  0  0  0  0  0  0  0  0
  185.8790  177.6960  145.0620 C   0  0  0  0  0  3  0  0  0  0  0  0
  188.6460  177.4530  139.4400 C   0  0  2  0  0  3  0  0  0  0  0  0
  187.7290  177.2240  137.1160 C   0  0  0  0  0  0  0  0  0  0  0  0
  190.1170  176.8960  137.5440 C   0  0  0  0  0  3  0  0  0  0  0  0
  190.0080  177.2660  138.8230 C   0  0  0  0  0  3  0  0  0  0  0  0
  188.9110  176.7420  136.7090 C   0  0  0  0  0  3  0  0  0  0  0  0
  187.6360  177.9880  138.4150 C   0  0  0  0  0  2  0  0  0  0  0  0
  185.4290  176.2710  137.2070 C   0  0  2  0  0  3  0  0  0  0  0  0
  185.3240  177.7360  136.8310 C   0  0  0  0  0  2  0  0  0  0  0  0
  186.4960  176.9130  136.3260 C   0  0  1  0  0  3  0  0  0  0  0  0
  183.3430  175.8430  136.1560 O   0  0  0  0  0  0  0  0  0  0  0  0
  184.5240  175.4480  136.3520 C   0  0  0  0  0  0  0  0  0  0  0  0
  185.0120  174.2670  135.7580 O   0  0  0  0  0  0  0  0  0  0  0  0
  186.5010  172.9080  137.0790 C   0  0  0  0  0  3  0  0  0  0  0  0
  186.2850  173.7090  135.9500 C   0  0  0  0  0  0  0  0  0  0  0  0
  189.7220  173.5980  134.3480 C   0  0  0  0  0  1  0  0  0  0  0  0
  188.8090  172.5630  136.4290 C   0  0  0  0  0  3  0  0  0  0  0  0
  188.6020  173.3540  135.2940 C   0  0  0  0  0  0  0  0  0  0  0  0
  187.7570  172.3370  137.3200 C   0  0  0  0  0  3  0  0  0  0  0  0
  187.3470  173.9210  135.0520 C   0  0  0  0  0  3  0  0  0  0  0  0
  189.7580  176.4190  143.7470 O   0  0  0  0  0  0  0  0  0  0  0  0
  191.5430  178.1580  143.7440 C   0  0  0  0  0  2  0  0  0  0  0  0
  190.8950  176.9960  144.3840 C   0  0  1  0  0  0  0  0  0  0  0  0
  190.6180  178.3140  144.7960 O   0  0  0  0  0  0  0  0  0  0  0  0
  191.6280  176.2130  145.4590 C   0  0  0  0  0  2  0  0  0  0  0  0
  191.1310  176.5550  146.8260 C   0  0  0  0  0  0  0  0  0  0  0  0
  191.9850  176.5690  147.8510 C   0  0  0  0  0  2  0  0  0  0  0  0
  189.6560  176.5330  147.0930 C   0  0  0  0  0  2  0  0  0  0  0  0
  189.2510  177.7610  147.8830 C   0  0  0  0  0  1  0  0  0  0  0  0
  1  6  1  0  0  0  0
  2 12  1  1  0  0  0
  3 10  1  1  0  0  0
  3 14  1  0  0  0  0
  4  8  1  0  0  0  0
  4 15  2  0  0  0  0
  5  9  1  0  0  0  0
  5  1  1  0  0  0  0
  6  8  1  0  0  0  0
  7  9  1  6  0  0  0
  7  4  1  0  0  0  0
 11 10  1  6  0  0  0
 11  7  1  0  0  0  0
 11  2  1  0  0  0  0
 12 15  1  0  0  0  0
 13  2  1  0  0  0  0
 13 35  1  0  0  0  0
 14 13  2  0  0  0  0
 16 21  1  6  0  0  0
 16  3  1  0  0  0  0
 17 21  1  0  0  0  0
 18 19  2  0  0  0  0
 19 16  1  0  0  0  0
 20 17  2  0  0  0  0
 20 18  1  0  0  0  0
 22 26  1  6  0  0  0
 23 22  1  0  0  0  0
 24 23  1  0  0  0  0
 24 17  1  1  0  0  0
 24 22  1  0  0  0  0
 25 26  2  0  0  0  0
 27 29  1  0  0  0  0
 27 26  1  0  0  0  0
 28 33  1  0  0  0  0
 29 28  2  0  0  0  0
 30 32  1  0  0  0  0
 31 33  2  0  0  0  0
 32 31  1  0  0  0  0
 34 32  2  0  0  0  0
 34 29  1  0  0  0  0
 35 37  1  0  0  0  0
 36 37  1  0  0  0  0
 36 38  1  0  0  0  0
 37 38  1  0  0  0  0
 37 39  1  1  0  0  0
 39 40  1  0  0  0  0
 40 42  1  0  0  0  0
 40 41  2  0  0  0  0
 42 43  1  0  0  0  0
M  END
>  <MODEL>
8

>  <REMARK>
 VINA RESULT:      -8.4      1.961      9.227
  Name = 
  10 active torsions:
  status: ('A' for Active; 'I' for Inactive)
    1  A    between atoms: O_1  and  C_34
    2  A    between atoms: O_1  and  C_35
    3  A    between atoms: C_2  and  C_13
    4  A    between atoms: C_3  and  C_42
    5  A    between atoms: O_4  and  C_14
    6  A    between atoms: O_4  and  C_41
    7  A    between atoms: C_9  and  C_19
    8  A    between atoms: C_10  and  C_41
    9  A    between atoms: C_19  and  C_32
   10  A    between atoms: C_32  and  C_35
                            x       y       z     vdW  Elec       q    Type
                         _______ _______ _______ _____ _____    ______ ____

>  <TORSDO>
F 10

$$$$
=
 OpenBabel10272414143D

 43 49  0  0  1  0  0  0  0  0999 V2000
  188.5630  176.9630  145.1000 C   0  0  0  0  0  2  0  0  0  0  0  0
  190.0550  177.1820  140.0130 C   0  0  2  0  0  3  0  0  0  0  0  0
  187.7420  178.2770  138.6020 C   0  0  1  0  0  3  0  0  0  0  0  0
  190.5670  177.7190  142.8110 C   0  0  0  0  0  0  0  0  0  0  0  0
  187.5800  177.1750  143.9510 C   0  0  0  0  0  2  0  0  0  0  0  0
  189.5980  178.0840  145.1430 C   0  0  0  0  0  2  0  0  0  0  0  0
  189.1960  178.0320  142.2290 C   0  0  2  0  0  3  0  0  0  0  0  0
  190.8190  177.7250  144.3020 C   0  0  0  0  0  2  0  0  0  0  0  0
  188.2260  176.9070  142.6000 C   0  0  0  0  0  2  0  0  0  0  0  0
  187.8350  178.4150  140.1320 C   0  0  0  0  0  2  0  0  0  0  0  0
  189.2460  178.2770  140.7100 C   0  0  2  0  0  3  0  0  0  0  0  0
  191.4930  177.2320  140.5360 C   0  0  0  0  0  2  0  0  0  0  0  0
  190.0450  177.4090  138.5300 C   0  0  0  0  0  0  0  0  0  0  0  0
  188.9970  177.9120  137.9420 N   0  0  0  0  0  0  0  0  0  0  0  0
  191.5740  177.2880  142.0340 C   0  0  0  0  0  3  0  0  0  0  0  0
  186.6280  177.3210  138.1790 C   0  0  2  0  0  3  0  0  0  0  0  0
  184.1570  176.8960  138.0890 C   0  0  0  0  0  0  0  0  0  0  0  0
  185.5350  176.6290  136.0830 C   0  0  0  0  0  3  0  0  0  0  0  0
  186.6280  177.0990  136.6890 C   0  0  0  0  0  3  0  0  0  0  0  0
  184.3000  176.3960  136.8550 C   0  0  0  0  0  3  0  0  0  0  0  0
  185.2450  177.7610  138.6790 C   0  0  0  0  0  2  0  0  0  0  0  0
  181.7390  177.3240  138.5040 C   0  0  2  0  0  3  0  0  0  0  0  0
  181.8930  175.8960  138.0200 C   0  0  0  0  0  2  0  0  0  0  0  0
  182.9640  176.5100  138.9060 C   0  0  1  0  0  3  0  0  0  0  0  0
  180.0130  176.4150  139.8580 O   0  0  0  0  0  0  0  0  0  0  0  0
  180.7950  177.3830  139.6590 C   0  0  0  0  0  0  0  0  0  0  0  0
  180.8140  178.5010  140.5170 O   0  0  0  0  0  0  0  0  0  0  0  0
  180.9700  178.6380  142.9190 C   0  0  0  0  0  3  0  0  0  0  0  0
  181.6020  178.6460  141.6690 C   0  0  0  0  0  0  0  0  0  0  0  0
  185.2160  179.1240  142.7200 C   0  0  0  0  0  1  0  0  0  0  0  0
  183.0970  178.9490  144.0320 C   0  0  0  0  0  3  0  0  0  0  0  0
  183.7410  178.9500  142.7900 C   0  0  0  0  0  0  0  0  0  0  0  0
  181.7120  178.7890  144.0960 C   0  0  0  0  0  3  0  0  0  0  0  0
  183.0000  178.7960  141.6140 C   0  0  0  0  0  3  0  0  0  0  0  0
  191.1690  177.0570  137.7690 O   0  0  0  0  0  0  0  0  0  0  0  0
  192.5360  175.0040  137.4180 C   0  0  0  0  0  2  0  0  0  0  0  0
  191.3170  175.7890  137.1380 C   0  0  1  0  0  0  0  0  0  0  0  0
  191.3240  174.7550  138.0950 O   0  0  0  0  0  0  0  0  0  0  0  0
  190.4470  175.4420  135.9420 C   0  0  0  0  0  2  0  0  0  0  0  0
  189.7100  174.1590  136.1510 C   0  0  0  0  0  0  0  0  0  0  0  0
  190.0400  173.0870  135.4280 C   0  0  0  0  0  2  0  0  0  0  0  0
  188.4090  174.1770  136.8940 C   0  0  0  0  0  2  0  0  0  0  0  0
  187.8300  172.7790  136.9700 C   0  0  0  0  0  1  0  0  0  0  0  0
  1  6  1  0  0  0  0
  2 12  1  1  0  0  0
  2 11  1  0  0  0  0
  3 10  1  1  0  0  0
  4  8  1  0  0  0  0
  5  1  1  0  0  0  0
  7  9  1  6  0  0  0
  7  4  1  0  0  0  0
  8  6  1  0  0  0  0
  9  5  1  0  0  0  0
 11 10  1  6  0  0  0
 11  7  1  0  0  0  0
 12 15  1  0  0  0  0
 13  2  1  0  0  0  0
 14 13  2  0  0  0  0
 14  3  1  0  0  0  0
 15  4  2  0  0  0  0
 16 19  1  6  0  0  0
 16  3  1  0  0  0  0
 16 21  1  0  0  0  0
 17 21  1  0  0  0  0
 18 19  2  0  0  0  0
 18 20  1  0  0  0  0
 20 17  2  0  0  0  0
 22 24  1  0  0  0  0
 22 26  1  1  0  0  0
 23 22  1  0  0  0  0
 23 24  1  0  0  0  0
 24 17  1  6  0  0  0
 26 25  2  0  0  0  0
 26 27  1  0  0  0  0
 27 29  1  0  0  0  0
 28 33  1  0  0  0  0
 29 28  2  0  0  0  0
 30 32  1  0  0  0  0
 31 33  2  0  0  0  0
 32 31  1  0  0  0  0
 34 29  1  0  0  0  0
 34 32  2  0  0  0  0
 35 13  1  0  0  0  0
 36 38  1  0  0  0  0
 37 39  1  6  0  0  0
 37 36  1  0  0  0  0
 37 35  1  0  0  0  0
 37 38  1  0  0  0  0
 39 40  1  0  0  0  0
 40 42  1  0  0  0  0
 41 40  2  0  0  0  0
 42 43  1  0  0  0  0
M  END
>  <MODEL>
9

>  <REMARK>
 VINA RESULT:      -8.4      2.701      5.692
  Name = 
  10 active torsions:
  status: ('A' for Active; 'I' for Inactive)
    1  A    between atoms: O_1  and  C_34
    2  A    between atoms: O_1  and  C_35
    3  A    between atoms: C_2  and  C_13
    4  A    between atoms: C_3  and  C_42
    5  A    between atoms: O_4  and  C_14
    6  A    between atoms: O_4  and  C_41
    7  A    between atoms: C_9  and  C_19
    8  A    between atoms: C_10  and  C_41
    9  A    between atoms: C_19  and  C_32
   10  A    between atoms: C_32  and  C_35
                            x       y       z     vdW  Elec       q    Type
                         _______ _______ _______ _____ _____    ______ ____

>  <TORSDO>
F 10

$$$$
