=
 OpenBabel10272414283D

 43 46  0  0  1  0  0  0  0  0999 V2000
  188.7660  178.0540  138.1940 C   0  0  0  0  0  0  0  0  0  0  0  0
  188.8740  176.6810  141.2990 C   0  0  0  0  0  1  0  0  0  0  0  0
  190.1720  176.0310  138.3670 C   0  0  2  0  0  3  0  0  0  0  0  0
  189.7020  177.5540  140.3680 C   0  0  2  0  0  3  0  0  0  0  0  0
  191.9340  174.3560  136.8800 C   0  0  0  0  0  0  0  0  0  0  0  0
  192.5110  175.1110  138.0580 C   0  0  2  0  0  3  0  0  0  0  0  0
  192.6680  173.3170  136.3230 O   0  0  0  0  0  1  0  0  0  0  0  0
  192.0420  176.7920  139.8780 C   0  0  0  0  0  3  0  0  0  0  0  0
  188.1410  178.9200  137.4490 C   0  0  0  0  0  3  0  0  0  0  0  0
  191.6680  176.3230  138.4910 C   0  0  2  0  0  3  0  0  0  0  0  0
  189.8480  175.7210  136.9060 C   0  0  0  0  0  2  0  0  0  0  0  0
  189.4070  177.1930  138.9440 C   0  0  0  0  0  0  0  0  0  0  0  0
  191.1780  177.4140  140.7010 C   0  0  0  0  0  0  0  0  0  0  0  0
  190.7140  174.6080  136.3930 C   0  0  0  0  0  3  0  0  0  0  0  0
  185.4610  176.8410  135.7780 C   0  0  0  0  0  2  0  0  0  0  0  0
  187.5760  177.1080  134.4170 C   0  0  0  0  0  3  0  0  0  0  0  0
  186.3320  176.2850  134.6510 C   0  0  1  0  0  3  0  0  0  0  0  0
  186.3280  177.3370  136.9230 C   0  0  0  0  0  2  0  0  0  0  0  0
  187.2060  178.4610  136.3890 C   0  0  2  0  0  3  0  0  0  0  0  0
  186.6950  174.9720  134.9460 O   0  0  0  0  0  1  0  0  0  0  0  0
  187.9640  178.0390  135.2250 N   0  0  0  0  0  0  0  0  0  0  0  0
  193.9320  175.5040  137.7890 C   0  0  0  0  0  0  0  0  0  0  0  0
  194.2070  176.2590  136.8140 O   0  0  0  0  0  0  0  0  0  0  0  0
  194.9440  174.9950  138.6070 O   0  0  0  0  0  0  0  0  0  0  0  0
  195.2880  173.6180  138.5970 C   0  0  0  0  0  1  0  0  0  0  0  0
  191.7020  177.9260  142.0150 C   0  0  0  0  0  2  0  0  0  0  0  0
  190.6080  178.0360  143.0880 C   0  0  2  0  0  3  0  0  0  0  0  0
  190.4800  179.3700  143.4920 O   0  0  0  0  0  0  0  0  0  0  0  0
  191.6610  179.6490  144.1820 C   0  0  0  0  0  1  0  0  0  0  0  0
  190.8730  177.0870  144.2750 C   0  0  1  0  0  3  0  0  0  0  0  0
  189.8640  177.2650  146.6510 C   0  0  0  0  0  1  0  0  0  0  0  0
  189.6350  176.9050  145.1840 C   0  0  1  0  0  3  0  0  0  0  0  0
  188.4690  177.5210  144.6740 O   0  0  0  0  0  0  0  0  0  0  0  0
  187.6140  177.8460  145.7430 C   0  0  0  0  0  2  0  0  0  0  0  0
  185.2850  178.7580  146.0760 C   0  0  0  0  0  0  0  0  0  0  0  0
  186.3040  178.2110  145.2300 N   0  0  0  0  0  0  0  0  0  0  0  0
  183.7140  178.7320  144.2270 N   0  0  0  0  0  2  0  0  0  0  0  0
  184.8750  178.8590  143.3500 C   0  0  0  0  0  2  0  0  0  0  0  0
  185.9840  177.9300  143.8360 C   0  0  0  0  0  2  0  0  0  0  0  0
  185.5020  178.9620  147.3010 O   0  0  0  0  0  0  0  0  0  0  0  0
  184.0620  179.1250  145.5110 O   0  0  0  0  0  0  0  0  0  0  0  0
  191.3560  175.7490  143.7250 C   0  0  0  0  0  2  0  0  0  0  0  0
  192.1250  175.0960  144.6890 O   0  0  0  0  0  1  0  0  0  0  0  0
  1 12  2  0  0  0  0
  3 11  1  6  0  0  0
  3 10  1  0  0  0  0
  3 12  1  0  0  0  0
  4 13  1  0  0  0  0
  4  2  1  1  0  0  0
  5  6  1  0  0  0  0
  6 22  1  6  0  0  0
  6 10  1  0  0  0  0
  7  5  1  0  0  0  0
  8 13  2  0  0  0  0
  9  1  2  0  0  0  0
 10  8  1  1  0  0  0
 12  4  1  0  0  0  0
 13 26  1  0  0  0  0
 14  5  2  0  0  0  0
 14 11  1  0  0  0  0
 15 18  1  0  0  0  0
 16 17  1  0  0  0  0
 16 21  2  0  0  0  0
 17 20  1  1  0  0  0
 17 15  1  0  0  0  0
 19 18  1  0  0  0  0
 19  9  1  1  0  0  0
 21 19  1  0  0  0  0
 22 24  1  0  0  0  0
 23 22  2  0  0  0  0
 25 24  1  0  0  0  0
 27 26  1  6  0  0  0
 27 28  1  0  0  0  0
 27 30  1  0  0  0  0
 28 29  1  0  0  0  0
 30 42  1  6  0  0  0
 30 32  1  0  0  0  0
 32 31  1  1  0  0  0
 33 32  1  0  0  0  0
 33 34  1  0  0  0  0
 35 40  2  0  0  0  0
 36 34  1  0  0  0  0
 36 35  1  0  0  0  0
 37 41  1  0  0  0  0
 38 39  1  0  0  0  0
 38 37  1  0  0  0  0
 39 36  1  0  0  0  0
 41 35  1  0  0  0  0
 42 43  1  0  0  0  0
M  END
>  <MODEL>
1

>  <REMARK>
 VINA RESULT:      -7.7      0.000      0.000
  Name = 
  12 active torsions:
  status: ('A' for Active; 'I' for Inactive)
    1  A    between atoms: C_2  and  C_6
    2  A    between atoms: C_2  and  C_38
    3  A    between atoms: C_4  and  C_15
    4  A    between atoms: C_4  and  O_22
    5  A    between atoms: O_5  and  C_18
    6  A    between atoms: C_6  and  O_12
    7  A    between atoms: C_6  and  C_15
    8  A    between atoms: C_10  and  C_15
    9  A    between atoms: N_14  and  C_41
   10  A    between atoms: C_18  and  C_21
   11  A    between atoms: O_22  and  C_41
   12  A    between atoms: C_28  and  C_35
                            x       y       z     vdW  Elec       q    Type
                         _______ _______ _______ _____ _____    ______ ____

>  <TORSDO>
F 12

$$$$
=
 OpenBabel10272414283D

 43 46  0  0  1  0  0  0  0  0999 V2000
  186.4950  175.0860  136.9020 C   0  0  0  0  0  0  0  0  0  0  0  0
  188.3740  177.6630  135.7310 C   0  0  0  0  0  1  0  0  0  0  0  0
  185.6500  177.3260  137.5110 C   0  0  2  0  0  3  0  0  0  0  0  0
  188.1170  176.8770  137.0080 C   0  0  2  0  0  3  0  0  0  0  0  0
  183.6210  178.6580  139.0050 C   0  0  0  0  0  0  0  0  0  0  0  0
  185.0560  178.8520  139.4430 C   0  0  2  0  0  3  0  0  0  0  0  0
  182.6460  179.5100  139.5040 O   0  0  0  0  0  1  0  0  0  0  0  0
  187.4580  178.1950  139.0390 C   0  0  0  0  0  3  0  0  0  0  0  0
  186.2910  173.8030  136.8030 C   0  0  0  0  0  3  0  0  0  0  0  0
  186.0140  177.7610  138.9310 C   0  0  2  0  0  3  0  0  0  0  0  0
  184.2330  176.7520  137.5190 C   0  0  0  0  0  2  0  0  0  0  0  0
  186.7070  176.3730  137.0160 C   0  0  0  0  0  0  0  0  0  0  0  0
  188.4240  177.7420  138.2200 C   0  0  0  0  0  0  0  0  0  0  0  0
  183.2630  177.7370  138.1030 C   0  0  0  0  0  3  0  0  0  0  0  0
  182.9310  172.1330  136.3350 C   0  0  0  0  0  2  0  0  0  0  0  0
  184.7480  171.2760  134.7960 C   0  0  0  0  0  3  0  0  0  0  0  0
  183.4150  170.9870  135.4460 C   0  0  1  0  0  3  0  0  0  0  0  0
  184.0940  172.7310  137.1090 C   0  0  0  0  0  2  0  0  0  0  0  0
  185.0890  173.2880  136.0980 C   0  0  2  0  0  3  0  0  0  0  0  0
  183.5140  169.8190  136.2030 O   0  0  0  0  0  1  0  0  0  0  0  0
  185.4880  172.2800  135.1330 N   0  0  0  0  0  0  0  0  0  0  0  0
  185.1400  178.9940  140.9320 C   0  0  0  0  0  0  0  0  0  0  0  0
  185.8970  179.8670  141.4440 O   0  0  0  0  0  0  0  0  0  0  0  0
  184.4020  178.1260  141.7400 O   0  0  0  0  0  0  0  0  0  0  0  0
  183.5430  178.6080  142.7610 C   0  0  0  0  0  1  0  0  0  0  0  0
  189.8400  178.1690  138.4970 C   0  0  0  0  0  2  0  0  0  0  0  0
  190.6160  177.1420  139.3360 C   0  0  2  0  0  3  0  0  0  0  0  0
  190.1740  175.8510  139.0220 O   0  0  0  0  0  0  0  0  0  0  0  0
  191.1520  175.3360  138.1690 C   0  0  0  0  0  1  0  0  0  0  0  0
  190.5190  177.4440  140.8450 C   0  0  1  0  0  3  0  0  0  0  0  0
  190.5100  175.7090  142.7640 C   0  0  0  0  0  1  0  0  0  0  0  0
  189.7330  176.3630  141.6230 C   0  0  1  0  0  3  0  0  0  0  0  0
  188.4550  176.7940  142.0450 O   0  0  0  0  0  0  0  0  0  0  0  0
  188.5820  178.0260  142.7150 C   0  0  0  0  0  2  0  0  0  0  0  0
  189.0490  178.0460  145.1940 C   0  0  0  0  0  0  0  0  0  0  0  0
  188.1450  177.8820  144.0940 N   0  0  0  0  0  0  0  0  0  0  0  0
  187.2970  177.4090  146.7470 N   0  0  0  0  0  2  0  0  0  0  0  0
  186.3510  177.9230  145.7600 C   0  0  0  0  0  2  0  0  0  0  0  0
  186.7750  177.4680  144.3660 C   0  0  0  0  0  2  0  0  0  0  0  0
  190.2580  178.3470  145.0000 O   0  0  0  0  0  0  0  0  0  0  0  0
  188.5560  177.9340  146.4960 O   0  0  0  0  0  0  0  0  0  0  0  0
  191.9310  177.6050  141.3980 C   0  0  0  0  0  2  0  0  0  0  0  0
  192.8600  177.4080  140.3760 O   0  0  0  0  0  1  0  0  0  0  0  0
  1 12  2  0  0  0  0
  3 11  1  1  0  0  0
  3 10  1  0  0  0  0
  4  2  1  6  0  0  0
  4 12  1  0  0  0  0
  4 13  1  0  0  0  0
  5  6  1  0  0  0  0
  5  7  1  0  0  0  0
  6 22  1  1  0  0  0
  9  1  2  0  0  0  0
 10  8  1  6  0  0  0
 10  6  1  0  0  0  0
 11 14  1  0  0  0  0
 12  3  1  0  0  0  0
 13 26  1  0  0  0  0
 13  8  2  0  0  0  0
 14  5  2  0  0  0  0
 15 18  1  0  0  0  0
 16 21  2  0  0  0  0
 16 17  1  0  0  0  0
 17 20  1  1  0  0  0
 17 15  1  0  0  0  0
 19  9  1  1  0  0  0
 19 18  1  0  0  0  0
 21 19  1  0  0  0  0
 22 23  2  0  0  0  0
 22 24  1  0  0  0  0
 24 25  1  0  0  0  0
 27 26  1  6  0  0  0
 27 30  1  0  0  0  0
 28 27  1  0  0  0  0
 29 28  1  0  0  0  0
 30 42  1  1  0  0  0
 30 32  1  0  0  0  0
 32 33  1  0  0  0  0
 32 31  1  1  0  0  0
 33 34  1  0  0  0  0
 34 36  1  0  0  0  0
 35 41  1  0  0  0  0
 36 39  1  0  0  0  0
 36 35  1  0  0  0  0
 38 37  1  0  0  0  0
 39 38  1  0  0  0  0
 40 35  2  0  0  0  0
 41 37  1  0  0  0  0
 43 42  1  0  0  0  0
M  END
>  <MODEL>
2

>  <REMARK>
 VINA RESULT:      -7.5      3.156      6.258
  Name = 
  12 active torsions:
  status: ('A' for Active; 'I' for Inactive)
    1  A    between atoms: C_2  and  C_6
    2  A    between atoms: C_2  and  C_38
    3  A    between atoms: C_4  and  C_15
    4  A    between atoms: C_4  and  O_22
    5  A    between atoms: O_5  and  C_18
    6  A    between atoms: C_6  and  O_12
    7  A    between atoms: C_6  and  C_15
    8  A    between atoms: C_10  and  C_15
    9  A    between atoms: N_14  and  C_41
   10  A    between atoms: C_18  and  C_21
   11  A    between atoms: O_22  and  C_41
   12  A    between atoms: C_28  and  C_35
                            x       y       z     vdW  Elec       q    Type
                         _______ _______ _______ _____ _____    ______ ____

>  <TORSDO>
F 12

$$$$
=
 OpenBabel10272414283D

 43 46  0  0  1  0  0  0  0  0999 V2000
  189.2090  177.3240  140.0710 C   0  0  0  0  0  0  0  0  0  0  0  0
  188.7530  179.4560  137.4660 C   0  0  0  0  0  1  0  0  0  0  0  0
  190.1120  176.5140  137.9190 C   0  0  2  0  0  3  0  0  0  0  0  0
  188.1750  178.1800  138.0590 C   0  0  2  0  0  3  0  0  0  0  0  0
  191.3850  174.2820  136.6870 C   0  0  0  0  0  0  0  0  0  0  0  0
  190.0000  174.6550  136.2040 C   0  0  2  0  0  3  0  0  0  0  0  0
  192.1500  173.4110  135.9250 O   0  0  0  0  0  1  0  0  0  0  0  0
  188.0260  176.1880  136.5400 C   0  0  0  0  0  3  0  0  0  0  0  0
  189.1510  177.2220  141.3680 C   0  0  0  0  0  3  0  0  0  0  0  0
  189.2040  175.5130  137.2030 C   0  0  2  0  0  3  0  0  0  0  0  0
  191.1810  175.7450  138.6950 C   0  0  0  0  0  2  0  0  0  0  0  0
  189.2540  177.4180  138.7660 C   0  0  0  0  0  0  0  0  0  0  0  0
  187.5110  177.3550  136.9680 C   0  0  0  0  0  0  0  0  0  0  0  0
  191.9280  174.8120  137.7890 C   0  0  0  0  0  3  0  0  0  0  0  0
  191.6810  175.9460  143.8730 C   0  0  0  0  0  2  0  0  0  0  0  0
  191.0500  178.3780  144.1710 C   0  0  0  0  0  3  0  0  0  0  0  0
  191.6200  177.1420  144.8250 C   0  0  1  0  0  3  0  0  0  0  0  0
  190.4370  175.8990  143.0010 C   0  0  0  0  0  2  0  0  0  0  0  0
  190.3990  177.1770  142.1730 C   0  0  2  0  0  3  0  0  0  0  0  0
  190.8500  176.8110  145.9390 O   0  0  0  0  0  1  0  0  0  0  0  0
  190.4780  178.3580  143.0120 N   0  0  0  0  0  0  0  0  0  0  0  0
  189.2320  173.4310  135.8050 C   0  0  0  0  0  0  0  0  0  0  0  0
  189.1630  173.0940  134.5900 O   0  0  0  0  0  0  0  0  0  0  0  0
  188.5680  172.6960  136.7890 O   0  0  0  0  0  0  0  0  0  0  0  0
  187.1830  172.4010  136.6920 C   0  0  0  0  0  1  0  0  0  0  0  0
  186.2720  177.8700  136.2880 C   0  0  0  0  0  2  0  0  0  0  0  0
  185.0780  176.9120  136.4240 C   0  0  2  0  0  3  0  0  0  0  0  0
  184.1370  177.1920  135.4270 O   0  0  0  0  0  0  0  0  0  0  0  0
  184.5100  176.3890  134.3480 C   0  0  0  0  0  1  0  0  0  0  0  0
  184.4660  176.9590  137.8390 C   0  0  1  0  0  3  0  0  0  0  0  0
  183.0130  179.0330  138.3670 C   0  0  0  0  0  1  0  0  0  0  0  0
  184.3990  178.3930  138.4150 C   0  0  1  0  0  3  0  0  0  0  0  0
  184.9820  178.5100  139.6970 O   0  0  0  0  0  0  0  0  0  0  0  0
  184.0160  178.9940  140.6000 C   0  0  0  0  0  2  0  0  0  0  0  0
  183.5720  178.7910  143.0750 C   0  0  0  0  0  0  0  0  0  0  0  0
  184.4780  178.7960  141.9640 N   0  0  0  0  0  0  0  0  0  0  0  0
  185.4390  178.5940  144.6130 N   0  0  0  0  0  2  0  0  0  0  0  0
  186.1570  177.9360  143.5240 C   0  0  0  0  0  2  0  0  0  0  0  0
  185.9080  178.6920  142.2220 C   0  0  0  0  0  2  0  0  0  0  0  0
  182.3330  178.9360  142.9000 O   0  0  0  0  0  0  0  0  0  0  0  0
  184.0760  178.5540  144.3550 O   0  0  0  0  0  0  0  0  0  0  0  0
  183.0810  176.3200  137.7870 C   0  0  0  0  0  2  0  0  0  0  0  0
  183.0950  175.1150  138.4920 O   0  0  0  0  0  1  0  0  0  0  0  0
  1  9  2  0  0  0  0
  3 11  1  1  0  0  0
  3 12  1  0  0  0  0
  4  2  1  6  0  0  0
  4 12  1  0  0  0  0
  5 14  2  0  0  0  0
  6 22  1  1  0  0  0
  6  5  1  0  0  0  0
  6 10  1  0  0  0  0
  7  5  1  0  0  0  0
  8 13  2  0  0  0  0
 10  8  1  6  0  0  0
 10  3  1  0  0  0  0
 12  1  2  0  0  0  0
 13  4  1  0  0  0  0
 14 11  1  0  0  0  0
 15 17  1  0  0  0  0
 16 17  1  0  0  0  0
 17 20  1  1  0  0  0
 18 15  1  0  0  0  0
 19  9  1  1  0  0  0
 19 18  1  0  0  0  0
 19 21  1  0  0  0  0
 21 16  2  0  0  0  0
 22 24  1  0  0  0  0
 23 22  2  0  0  0  0
 25 24  1  0  0  0  0
 26 13  1  0  0  0  0
 27 26  1  1  0  0  0
 27 30  1  0  0  0  0
 28 27  1  0  0  0  0
 29 28  1  0  0  0  0
 30 42  1  6  0  0  0
 30 32  1  0  0  0  0
 32 31  1  1  0  0  0
 32 33  1  0  0  0  0
 33 34  1  0  0  0  0
 34 36  1  0  0  0  0
 35 41  1  0  0  0  0
 36 39  1  0  0  0  0
 36 35  1  0  0  0  0
 38 37  1  0  0  0  0
 39 38  1  0  0  0  0
 40 35  2  0  0  0  0
 41 37  1  0  0  0  0
 42 43  1  0  0  0  0
M  END
>  <MODEL>
3

>  <REMARK>
 VINA RESULT:      -7.5      2.327      6.881
  Name = 
  12 active torsions:
  status: ('A' for Active; 'I' for Inactive)
    1  A    between atoms: C_2  and  C_6
    2  A    between atoms: C_2  and  C_38
    3  A    between atoms: C_4  and  C_15
    4  A    between atoms: C_4  and  O_22
    5  A    between atoms: O_5  and  C_18
    6  A    between atoms: C_6  and  O_12
    7  A    between atoms: C_6  and  C_15
    8  A    between atoms: C_10  and  C_15
    9  A    between atoms: N_14  and  C_41
   10  A    between atoms: C_18  and  C_21
   11  A    between atoms: O_22  and  C_41
   12  A    between atoms: C_28  and  C_35
                            x       y       z     vdW  Elec       q    Type
                         _______ _______ _______ _____ _____    ______ ____

>  <TORSDO>
F 12

$$$$
=
 OpenBabel10272414283D

 43 46  0  0  1  0  0  0  0  0999 V2000
  188.9380  177.2490  140.2680 C   0  0  0  0  0  0  0  0  0  0  0  0
  187.7900  178.7450  137.4420 C   0  0  0  0  0  1  0  0  0  0  0  0
  190.4990  177.1550  138.3570 C   0  0  2  0  0  3  0  0  0  0  0  0
  187.9680  177.3650  138.0550 C   0  0  2  0  0  3  0  0  0  0  0  0
  193.0220  176.1140  137.5340 C   0  0  0  0  0  0  0  0  0  0  0  0
  191.7870  175.6100  136.8190 C   0  0  2  0  0  3  0  0  0  0  0  0
  194.2690  175.8690  136.9760 O   0  0  0  0  0  1  0  0  0  0  0  0
  189.2680  175.6870  136.7170 C   0  0  0  0  0  3  0  0  0  0  0  0
  188.7260  177.1140  141.5460 C   0  0  0  0  0  3  0  0  0  0  0  0
  190.4830  175.8230  137.6070 C   0  0  2  0  0  3  0  0  0  0  0  0
  191.6620  177.1490  139.3490 C   0  0  0  0  0  2  0  0  0  0  0  0
  189.1450  177.3710  138.9810 C   0  0  0  0  0  0  0  0  0  0  0  0
  188.1080  176.3230  136.9570 C   0  0  0  0  0  0  0  0  0  0  0  0
  192.9550  176.8460  138.6520 C   0  0  0  0  0  3  0  0  0  0  0  0
  191.7920  177.7900  143.6540 C   0  0  0  0  0  2  0  0  0  0  0  0
  189.6190  177.7640  144.9480 C   0  0  0  0  0  3  0  0  0  0  0  0
  191.1210  177.6230  145.0180 C   0  0  1  0  0  3  0  0  0  0  0  0
  190.9660  177.1150  142.5710 C   0  0  0  0  0  2  0  0  0  0  0  0
  189.6060  177.7980  142.5280 C   0  0  2  0  0  3  0  0  0  0  0  0
  191.4450  176.3750  145.5470 O   0  0  0  0  0  1  0  0  0  0  0  0
  188.9680  177.7980  143.8330 N   0  0  0  0  0  0  0  0  0  0  0  0
  191.9560  174.1750  136.4220 C   0  0  0  0  0  0  0  0  0  0  0  0
  192.3450  173.3240  137.2710 O   0  0  0  0  0  0  0  0  0  0  0  0
  191.7120  173.8030  135.0980 O   0  0  0  0  0  0  0  0  0  0  0  0
  190.9320  172.6620  134.7750 C   0  0  0  0  0  1  0  0  0  0  0  0
  186.9410  176.0220  136.0560 C   0  0  0  0  0  2  0  0  0  0  0  0
  185.8300  175.2330  136.7660 C   0  0  2  0  0  3  0  0  0  0  0  0
  185.9320  173.8780  136.4330 O   0  0  0  0  0  0  0  0  0  0  0  0
  185.6670  173.1970  137.6220 C   0  0  0  0  0  1  0  0  0  0  0  0
  184.4330  175.8100  136.4590 C   0  0  1  0  0  3  0  0  0  0  0  0
  183.0110  175.5650  138.6060 C   0  0  0  0  0  1  0  0  0  0  0  0
  183.7870  176.5020  137.6820 C   0  0  1  0  0  3  0  0  0  0  0  0
  184.6890  177.3150  138.4060 O   0  0  0  0  0  0  0  0  0  0  0  0
  184.0310  178.4970  138.7970 C   0  0  0  0  0  2  0  0  0  0  0  0
  182.9630  178.5680  141.0820 C   0  0  0  0  0  0  0  0  0  0  0  0
  184.1190  178.6520  140.2400 N   0  0  0  0  0  0  0  0  0  0  0  0
  184.3110  179.1450  143.0150 N   0  0  0  0  0  2  0  0  0  0  0  0
  185.4390  178.5510  142.3000 C   0  0  0  0  0  2  0  0  0  0  0  0
  185.4030  178.9930  140.8400 C   0  0  0  0  0  2  0  0  0  0  0  0
  181.8240  178.3330  140.5960 O   0  0  0  0  0  0  0  0  0  0  0  0
  183.1240  178.6860  142.4640 O   0  0  0  0  0  0  0  0  0  0  0  0
  184.5560  176.7730  135.2820 C   0  0  0  0  0  2  0  0  0  0  0  0
  183.3270  177.3950  135.0540 O   0  0  0  0  0  1  0  0  0  0  0  0
  1  9  2  0  0  0  0
  3 12  1  0  0  0  0
  3 11  1  1  0  0  0
  4  2  1  6  0  0  0
  4 12  1  0  0  0  0
  5 14  2  0  0  0  0
  6 22  1  1  0  0  0
  6  5  1  0  0  0  0
  6 10  1  0  0  0  0
  7  5  1  0  0  0  0
  8 13  2  0  0  0  0
 10  8  1  6  0  0  0
 10  3  1  0  0  0  0
 12  1  2  0  0  0  0
 13  4  1  0  0  0  0
 14 11  1  0  0  0  0
 15 17  1  0  0  0  0
 16 17  1  0  0  0  0
 17 20  1  6  0  0  0
 18 15  1  0  0  0  0
 19  9  1  6  0  0  0
 19 18  1  0  0  0  0
 19 21  1  0  0  0  0
 21 16  2  0  0  0  0
 22 23  2  0  0  0  0
 24 22  1  0  0  0  0
 25 24  1  0  0  0  0
 26 13  1  0  0  0  0
 27 26  1  6  0  0  0
 28 27  1  0  0  0  0
 28 29  1  0  0  0  0
 30 42  1  6  0  0  0
 30 27  1  0  0  0  0
 30 32  1  0  0  0  0
 32 33  1  0  0  0  0
 32 31  1  1  0  0  0
 33 34  1  0  0  0  0
 34 36  1  0  0  0  0
 35 41  1  0  0  0  0
 36 39  1  0  0  0  0
 36 35  1  0  0  0  0
 38 37  1  0  0  0  0
 39 38  1  0  0  0  0
 40 35  2  0  0  0  0
 41 37  1  0  0  0  0
 43 42  1  0  0  0  0
M  END
>  <MODEL>
4

>  <REMARK>
 VINA RESULT:      -7.2      2.256      6.987
  Name = 
  12 active torsions:
  status: ('A' for Active; 'I' for Inactive)
    1  A    between atoms: C_2  and  C_6
    2  A    between atoms: C_2  and  C_38
    3  A    between atoms: C_4  and  C_15
    4  A    between atoms: C_4  and  O_22
    5  A    between atoms: O_5  and  C_18
    6  A    between atoms: C_6  and  O_12
    7  A    between atoms: C_6  and  C_15
    8  A    between atoms: C_10  and  C_15
    9  A    between atoms: N_14  and  C_41
   10  A    between atoms: C_18  and  C_21
   11  A    between atoms: O_22  and  C_41
   12  A    between atoms: C_28  and  C_35
                            x       y       z     vdW  Elec       q    Type
                         _______ _______ _______ _____ _____    ______ ____

>  <TORSDO>
F 12

$$$$
=
 OpenBabel10272414283D

 43 46  0  0  1  0  0  0  0  0999 V2000
  192.6540  175.3410  137.6820 C   0  0  0  0  0  0  0  0  0  0  0  0
  192.4410  177.7780  140.0400 C   0  0  0  0  0  1  0  0  0  0  0  0
  190.7810  176.9180  137.3550 C   0  0  2  0  0  3  0  0  0  0  0  0
  191.8010  176.4530  139.6540 C   0  0  2  0  0  3  0  0  0  0  0  0
  188.5220  177.4480  135.7000 C   0  0  0  0  0  0  0  0  0  0  0  0
  188.2650  177.1190  137.1540 C   0  0  2  0  0  3  0  0  0  0  0  0
  187.4970  177.9980  134.9440 O   0  0  0  0  0  1  0  0  0  0  0  0
  189.3110  176.4410  139.3470 C   0  0  0  0  0  3  0  0  0  0  0  0
  193.4240  174.4050  137.2050 C   0  0  0  0  0  3  0  0  0  0  0  0
  189.4320  176.3880  137.8410 C   0  0  2  0  0  3  0  0  0  0  0  0
  190.8910  176.6820  135.8480 C   0  0  0  0  0  2  0  0  0  0  0  0
  191.8720  176.2710  138.1690 C   0  0  0  0  0  0  0  0  0  0  0  0
  190.3730  176.3960  140.1710 C   0  0  0  0  0  0  0  0  0  0  0  0
  189.7220  177.2890  135.1290 C   0  0  0  0  0  3  0  0  0  0  0  0
  196.0970  174.0520  134.5530 C   0  0  0  0  0  2  0  0  0  0  0  0
  195.4190  176.4400  135.0430 C   0  0  0  0  0  3  0  0  0  0  0  0
  196.4860  175.5290  134.4840 C   0  0  1  0  0  3  0  0  0  0  0  0
  195.3830  173.7530  135.8620 C   0  0  0  0  0  2  0  0  0  0  0  0
  194.1130  174.5920  135.9020 C   0  0  2  0  0  3  0  0  0  0  0  0
  197.6770  175.7310  135.1810 O   0  0  0  0  0  1  0  0  0  0  0  0
  194.3980  176.0010  135.7030 N   0  0  0  0  0  0  0  0  0  0  0  0
  186.9820  176.3590  137.3060 C   0  0  0  0  0  0  0  0  0  0  0  0
  186.9300  175.1360  136.9950 O   0  0  0  0  0  0  0  0  0  0  0  0
  185.8440  177.0310  137.7580 O   0  0  0  0  0  0  0  0  0  0  0  0
  185.8840  178.4010  138.1250 C   0  0  0  0  0  1  0  0  0  0  0  0
  190.1130  176.3490  141.6520 C   0  0  0  0  0  2  0  0  0  0  0  0
  189.1210  177.4280  142.1150 C   0  0  2  0  0  3  0  0  0  0  0  0
  189.0630  178.4510  141.1620 O   0  0  0  0  0  0  0  0  0  0  0  0
  187.7120  178.7910  141.0830 C   0  0  0  0  0  1  0  0  0  0  0  0
  189.4650  177.9560  143.5220 C   0  0  1  0  0  3  0  0  0  0  0  0
  189.4830  177.3580  146.0400 C   0  0  0  0  0  1  0  0  0  0  0  0
  188.9240  177.0490  144.6520 C   0  0  1  0  0  3  0  0  0  0  0  0
  187.5140  176.9560  144.6690 O   0  0  0  0  0  0  0  0  0  0  0  0
  186.9920  178.0030  145.4510 C   0  0  0  0  0  2  0  0  0  0  0  0
  184.6230  178.7430  145.9050 C   0  0  0  0  0  0  0  0  0  0  0  0
  185.6520  178.3350  144.9950 N   0  0  0  0  0  0  0  0  0  0  0  0
  183.0150  178.7890  144.0890 N   0  0  0  0  0  2  0  0  0  0  0  0
  184.1470  179.0620  143.2060 C   0  0  0  0  0  2  0  0  0  0  0  0
  185.3170  178.1600  143.5870 C   0  0  0  0  0  2  0  0  0  0  0  0
  184.8560  178.8500  147.1390 O   0  0  0  0  0  0  0  0  0  0  0  0
  183.3690  179.0860  145.3960 O   0  0  0  0  0  0  0  0  0  0  0  0
  190.9790  178.1170  143.6210 C   0  0  0  0  0  2  0  0  0  0  0  0
  191.2940  179.4530  143.8700 O   0  0  0  0  0  1  0  0  0  0  0  0
  1 12  2  0  0  0  0
  3 11  1  6  0  0  0
  3 10  1  0  0  0  0
  3 12  1  0  0  0  0
  4  2  1  6  0  0  0
  4 13  1  0  0  0  0
  5  6  1  0  0  0  0
  6 22  1  6  0  0  0
  6 10  1  0  0  0  0
  7  5  1  0  0  0  0
  8 13  2  0  0  0  0
  9  1  2  0  0  0  0
 10  8  1  1  0  0  0
 12  4  1  0  0  0  0
 13 26  1  0  0  0  0
 14  5  2  0  0  0  0
 14 11  1  0  0  0  0
 15 18  1  0  0  0  0
 16 21  2  0  0  0  0
 17 15  1  0  0  0  0
 17 16  1  0  0  0  0
 17 20  1  1  0  0  0
 18 19  1  0  0  0  0
 19  9  1  1  0  0  0
 21 19  1  0  0  0  0
 22 24  1  0  0  0  0
 23 22  2  0  0  0  0
 24 25  1  0  0  0  0
 27 26  1  6  0  0  0
 27 30  1  0  0  0  0
 28 27  1  0  0  0  0
 29 28  1  0  0  0  0
 30 42  1  6  0  0  0
 30 32  1  0  0  0  0
 32 33  1  0  0  0  0
 32 31  1  1  0  0  0
 33 34  1  0  0  0  0
 35 40  2  0  0  0  0
 36 34  1  0  0  0  0
 36 35  1  0  0  0  0
 37 41  1  0  0  0  0
 38 39  1  0  0  0  0
 38 37  1  0  0  0  0
 39 36  1  0  0  0  0
 41 35  1  0  0  0  0
 42 43  1  0  0  0  0
M  END
>  <MODEL>
5

>  <REMARK>
 VINA RESULT:      -7.0      2.195      5.332
  Name = 
  12 active torsions:
  status: ('A' for Active; 'I' for Inactive)
    1  A    between atoms: C_2  and  C_6
    2  A    between atoms: C_2  and  C_38
    3  A    between atoms: C_4  and  C_15
    4  A    between atoms: C_4  and  O_22
    5  A    between atoms: O_5  and  C_18
    6  A    between atoms: C_6  and  O_12
    7  A    between atoms: C_6  and  C_15
    8  A    between atoms: C_10  and  C_15
    9  A    between atoms: N_14  and  C_41
   10  A    between atoms: C_18  and  C_21
   11  A    between atoms: O_22  and  C_41
   12  A    between atoms: C_28  and  C_35
                            x       y       z     vdW  Elec       q    Type
                         _______ _______ _______ _____ _____    ______ ____

>  <TORSDO>
F 12

$$$$
=
 OpenBabel10272414283D

 43 46  0  0  1  0  0  0  0  0999 V2000
  190.7350  174.7990  135.3020 C   0  0  0  0  0  0  0  0  0  0  0  0
  188.3850  172.6330  136.4540 C   0  0  0  0  0  1  0  0  0  0  0  0
  189.9970  175.2310  137.6190 C   0  0  2  0  0  3  0  0  0  0  0  0
  188.5170  174.0450  135.9030 C   0  0  2  0  0  3  0  0  0  0  0  0
  190.3120  177.0340  139.8040 C   0  0  0  0  0  0  0  0  0  0  0  0
  188.9440  176.9390  139.1650 C   0  0  2  0  0  3  0  0  0  0  0  0
  190.4360  177.6580  141.0370 O   0  0  0  0  0  1  0  0  0  0  0  0
  187.5860  175.9040  137.3080 C   0  0  0  0  0  3  0  0  0  0  0  0
  191.5950  175.0070  134.3460 C   0  0  0  0  0  3  0  0  0  0  0  0
  188.9630  176.3520  137.7420 C   0  0  2  0  0  3  0  0  0  0  0  0
  191.3830  175.8020  137.9190 C   0  0  0  0  0  2  0  0  0  0  0  0
  189.8610  174.6020  136.2570 C   0  0  0  0  0  0  0  0  0  0  0  0
  187.3820  174.9130  136.4220 C   0  0  0  0  0  0  0  0  0  0  0  0
  191.4010  176.4800  139.2570 C   0  0  0  0  0  3  0  0  0  0  0  0
  194.7630  173.6930  135.9380 C   0  0  0  0  0  2  0  0  0  0  0  0
  194.6300  176.2160  135.8040 C   0  0  0  0  0  3  0  0  0  0  0  0
  195.2620  175.0290  136.4910 C   0  0  1  0  0  3  0  0  0  0  0  0
  193.2720  173.7610  135.6510 C   0  0  0  0  0  2  0  0  0  0  0  0
  193.0500  174.8360  134.5960 C   0  0  2  0  0  3  0  0  0  0  0  0
  195.0000  175.0940  137.8600 O   0  0  0  0  0  1  0  0  0  0  0  0
  193.6240  176.1070  135.0000 N   0  0  0  0  0  0  0  0  0  0  0  0
  188.2530  178.2680  139.1950 C   0  0  0  0  0  0  0  0  0  0  0  0
  188.7440  179.2520  138.5730 O   0  0  0  0  0  0  0  0  0  0  0  0
  187.0860  178.4100  139.9490 O   0  0  0  0  0  0  0  0  0  0  0  0
  187.1220  178.7910  141.3150 C   0  0  0  0  0  1  0  0  0  0  0  0
  185.9680  174.6330  135.9930 C   0  0  0  0  0  2  0  0  0  0  0  0
  184.9730  174.6720  137.1630 C   0  0  2  0  0  3  0  0  0  0  0  0
  185.0270  173.4610  137.8640 O   0  0  0  0  0  0  0  0  0  0  0  0
  184.5140  172.5130  136.9780 C   0  0  0  0  0  1  0  0  0  0  0  0
  183.5450  175.0110  136.6900 C   0  0  1  0  0  3  0  0  0  0  0  0
  182.1170  175.3300  138.8240 C   0  0  0  0  0  1  0  0  0  0  0  0
  182.8170  175.9930  137.6380 C   0  0  1  0  0  3  0  0  0  0  0  0
  183.6250  177.0760  138.0520 O   0  0  0  0  0  0  0  0  0  0  0  0
  183.0820  177.6350  139.2240 C   0  0  0  0  0  2  0  0  0  0  0  0
  183.1850  180.1380  138.9250 C   0  0  0  0  0  0  0  0  0  0  0  0
  182.4510  178.9070  138.9140 N   0  0  0  0  0  0  0  0  0  0  0  0
  181.1450  181.3760  138.4890 N   0  0  0  0  0  2  0  0  0  0  0  0
  180.6520  180.1670  137.8320 C   0  0  0  0  0  2  0  0  0  0  0  0
  181.0140  178.9480  138.6750 C   0  0  0  0  0  2  0  0  0  0  0  0
  184.4190  180.1540  139.1840 O   0  0  0  0  0  0  0  0  0  0  0  0
  182.5280  181.3200  138.5780 O   0  0  0  0  0  0  0  0  0  0  0  0
  183.6260  175.5710  135.2730 C   0  0  0  0  0  2  0  0  0  0  0  0
  182.3880  175.4360  134.6440 O   0  0  0  0  0  1  0  0  0  0  0  0
  1 12  2  0  0  0  0
  3 10  1  0  0  0  0
  3 11  1  6  0  0  0
  4 12  1  0  0  0  0
  4 13  1  0  0  0  0
  4  2  1  1  0  0  0
  5  7  1  0  0  0  0
  6 22  1  6  0  0  0
  6  5  1  0  0  0  0
  9  1  2  0  0  0  0
 10  8  1  1  0  0  0
 10  6  1  0  0  0  0
 11 14  1  0  0  0  0
 12  3  1  0  0  0  0
 13  8  2  0  0  0  0
 14  5  2  0  0  0  0
 15 17  1  0  0  0  0
 16 17  1  0  0  0  0
 17 20  1  1  0  0  0
 18 15  1  0  0  0  0
 19  9  1  1  0  0  0
 19 21  1  0  0  0  0
 19 18  1  0  0  0  0
 21 16  2  0  0  0  0
 22 24  1  0  0  0  0
 23 22  2  0  0  0  0
 24 25  1  0  0  0  0
 26 13  1  0  0  0  0
 27 26  1  6  0  0  0
 27 28  1  0  0  0  0
 29 28  1  0  0  0  0
 30 42  1  6  0  0  0
 30 27  1  0  0  0  0
 30 32  1  0  0  0  0
 32 33  1  0  0  0  0
 32 31  1  1  0  0  0
 33 34  1  0  0  0  0
 35 40  2  0  0  0  0
 36 35  1  0  0  0  0
 36 34  1  0  0  0  0
 37 41  1  0  0  0  0
 38 37  1  0  0  0  0
 38 39  1  0  0  0  0
 39 36  1  0  0  0  0
 41 35  1  0  0  0  0
 43 42  1  0  0  0  0
M  END
>  <MODEL>
6

>  <REMARK>
 VINA RESULT:      -6.6      3.694      7.830
  Name = 
  12 active torsions:
  status: ('A' for Active; 'I' for Inactive)
    1  A    between atoms: C_2  and  C_6
    2  A    between atoms: C_2  and  C_38
    3  A    between atoms: C_4  and  C_15
    4  A    between atoms: C_4  and  O_22
    5  A    between atoms: O_5  and  C_18
    6  A    between atoms: C_6  and  O_12
    7  A    between atoms: C_6  and  C_15
    8  A    between atoms: C_10  and  C_15
    9  A    between atoms: N_14  and  C_41
   10  A    between atoms: C_18  and  C_21
   11  A    between atoms: O_22  and  C_41
   12  A    between atoms: C_28  and  C_35
                            x       y       z     vdW  Elec       q    Type
                         _______ _______ _______ _____ _____    ______ ____

>  <TORSDO>
F 12

$$$$
=
 OpenBabel10272414283D

 43 46  0  0  1  0  0  0  0  0999 V2000
  191.3630  175.3960  138.0820 C   0  0  0  0  0  0  0  0  0  0  0  0
  191.5610  178.0380  140.2080 C   0  0  0  0  0  1  0  0  0  0  0  0
  189.8640  177.2750  137.5170 C   0  0  2  0  0  3  0  0  0  0  0  0
  190.6800  176.8360  139.9010 C   0  0  2  0  0  3  0  0  0  0  0  0
  187.8230  178.0850  135.6990 C   0  0  0  0  0  0  0  0  0  0  0  0
  187.4500  177.9530  137.1590 C   0  0  2  0  0  3  0  0  0  0  0  0
  186.9610  178.7550  134.8430 O   0  0  0  0  0  1  0  0  0  0  0  0
  188.2530  177.2910  139.4570 C   0  0  0  0  0  3  0  0  0  0  0  0
  191.9440  174.2840  137.7300 C   0  0  0  0  0  3  0  0  0  0  0  0
  188.4170  177.0730  137.9700 C   0  0  2  0  0  3  0  0  0  0  0  0
  189.9790  176.8820  136.0440 C   0  0  0  0  0  2  0  0  0  0  0  0
  190.7680  176.5050  138.4430 C   0  0  0  0  0  0  0  0  0  0  0  0
  189.2520  177.1140  140.3400 C   0  0  0  0  0  0  0  0  0  0  0  0
  188.9860  177.6370  135.2120 C   0  0  0  0  0  3  0  0  0  0  0  0
  193.1340  172.8990  134.4190 C   0  0  0  0  0  2  0  0  0  0  0  0
  194.9920  173.5540  136.0060 C   0  0  0  0  0  3  0  0  0  0  0  0
  194.6020  172.7210  134.8080 C   0  0  1  0  0  3  0  0  0  0  0  0
  192.2620  172.9860  135.6610 C   0  0  0  0  0  2  0  0  0  0  0  0
  192.7050  174.2070  136.4560 C   0  0  2  0  0  3  0  0  0  0  0  0
  194.8520  171.3760  135.0790 O   0  0  0  0  0  1  0  0  0  0  0  0
  194.1280  174.1690  136.7440 N   0  0  0  0  0  0  0  0  0  0  0  0
  186.0350  177.4820  137.3030 C   0  0  0  0  0  0  0  0  0  0  0  0
  185.1790  178.2120  137.8780 O   0  0  0  0  0  0  0  0  0  0  0  0
  185.6900  176.2150  136.8280 O   0  0  0  0  0  0  0  0  0  0  0  0
  184.4440  175.6130  137.1450 C   0  0  0  0  0  1  0  0  0  0  0  0
  188.9320  177.2610  141.8030 C   0  0  0  0  0  2  0  0  0  0  0  0
  190.1240  176.9140  142.7090 C   0  0  2  0  0  3  0  0  0  0  0  0
  190.1470  175.5350  142.9460 O   0  0  0  0  0  0  0  0  0  0  0  0
  191.4530  175.2650  143.3570 C   0  0  0  0  0  1  0  0  0  0  0  0
  190.1070  177.7340  144.0160 C   0  0  1  0  0  3  0  0  0  0  0  0
  189.6050  177.5490  146.5470 C   0  0  0  0  0  1  0  0  0  0  0  0
  189.2850  177.0560  145.1370 C   0  0  1  0  0  3  0  0  0  0  0  0
  187.8940  177.0550  144.8890 O   0  0  0  0  0  0  0  0  0  0  0  0
  187.2750  177.9960  145.7350 C   0  0  0  0  0  2  0  0  0  0  0  0
  184.8850  178.7500  146.0260 C   0  0  0  0  0  0  0  0  0  0  0  0
  185.9830  178.3740  145.1860 N   0  0  0  0  0  0  0  0  0  0  0  0
  183.4390  178.9200  144.0850 N   0  0  0  0  0  2  0  0  0  0  0  0
  184.6460  179.2200  143.3170 C   0  0  0  0  0  2  0  0  0  0  0  0
  185.7680  178.2800  143.7470 C   0  0  0  0  0  2  0  0  0  0  0  0
  185.0120  178.7880  147.2790 O   0  0  0  0  0  0  0  0  0  0  0  0
  183.6830  179.1420  145.4320 O   0  0  0  0  0  0  0  0  0  0  0  0
  191.5480  177.9730  144.4550 C   0  0  0  0  0  2  0  0  0  0  0  0
  191.9590  179.2420  144.0460 O   0  0  0  0  0  1  0  0  0  0  0  0
  1 12  2  0  0  0  0
  3 11  1  6  0  0  0
  3 10  1  0  0  0  0
  3 12  1  0  0  0  0
  4  2  1  6  0  0  0
  4 13  1  0  0  0  0
  5  6  1  0  0  0  0
  6 22  1  6  0  0  0
  6 10  1  0  0  0  0
  7  5  1  0  0  0  0
  8 13  2  0  0  0  0
  9  1  2  0  0  0  0
 10  8  1  1  0  0  0
 12  4  1  0  0  0  0
 13 26  1  0  0  0  0
 14  5  2  0  0  0  0
 14 11  1  0  0  0  0
 15 17  1  0  0  0  0
 15 18  1  0  0  0  0
 16 21  2  0  0  0  0
 17 20  1  1  0  0  0
 17 16  1  0  0  0  0
 18 19  1  0  0  0  0
 19 21  1  0  0  0  0
 19  9  1  1  0  0  0
 22 23  2  0  0  0  0
 24 25  1  0  0  0  0
 24 22  1  0  0  0  0
 27 26  1  6  0  0  0
 27 28  1  0  0  0  0
 27 30  1  0  0  0  0
 28 29  1  0  0  0  0
 30 42  1  1  0  0  0
 30 32  1  0  0  0  0
 32 31  1  1  0  0  0
 33 32  1  0  0  0  0
 33 34  1  0  0  0  0
 35 40  2  0  0  0  0
 36 34  1  0  0  0  0
 36 35  1  0  0  0  0
 37 41  1  0  0  0  0
 38 39  1  0  0  0  0
 38 37  1  0  0  0  0
 39 36  1  0  0  0  0
 41 35  1  0  0  0  0
 43 42  1  0  0  0  0
M  END
>  <MODEL>
7

>  <REMARK>
 VINA RESULT:      -6.6      2.085      5.167
  Name = 
  12 active torsions:
  status: ('A' for Active; 'I' for Inactive)
    1  A    between atoms: C_2  and  C_6
    2  A    between atoms: C_2  and  C_38
    3  A    between atoms: C_4  and  C_15
    4  A    between atoms: C_4  and  O_22
    5  A    between atoms: O_5  and  C_18
    6  A    between atoms: C_6  and  O_12
    7  A    between atoms: C_6  and  C_15
    8  A    between atoms: C_10  and  C_15
    9  A    between atoms: N_14  and  C_41
   10  A    between atoms: C_18  and  C_21
   11  A    between atoms: O_22  and  C_41
   12  A    between atoms: C_28  and  C_35
                            x       y       z     vdW  Elec       q    Type
                         _______ _______ _______ _____ _____    ______ ____

>  <TORSDO>
F 12

$$$$
=
 OpenBabel10272414283D

 43 46  0  0  1  0  0  0  0  0999 V2000
  186.3530  176.2540  136.9900 C   0  0  0  0  0  0  0  0  0  0  0  0
  188.8970  178.2940  136.0380 C   0  0  0  0  0  1  0  0  0  0  0  0
  186.8610  178.0670  138.5890 C   0  0  2  0  0  3  0  0  0  0  0  0
  188.6080  177.1290  136.9730 C   0  0  2  0  0  3  0  0  0  0  0  0
  186.1450  179.1090  141.1430 C   0  0  0  0  0  0  0  0  0  0  0  0
  187.5530  178.5850  140.9690 C   0  0  2  0  0  3  0  0  0  0  0  0
  185.8500  179.8860  142.2540 O   0  0  0  0  0  1  0  0  0  0  0  0
  189.1690  177.4520  139.3970 C   0  0  0  0  0  3  0  0  0  0  0  0
  185.5410  175.3240  136.5760 C   0  0  0  0  0  3  0  0  0  0  0  0
  187.7160  177.6250  139.7770 C   0  0  2  0  0  3  0  0  0  0  0  0
  185.3910  178.0630  139.0090 C   0  0  0  0  0  2  0  0  0  0  0  0
  187.1770  177.1790  137.4140 C   0  0  0  0  0  0  0  0  0  0  0  0
  189.5710  177.1550  138.1480 C   0  0  0  0  0  0  0  0  0  0  0  0
  185.1850  178.9060  140.2330 C   0  0  0  0  0  3  0  0  0  0  0  0
  182.4970  177.3470  135.6070 C   0  0  0  0  0  2  0  0  0  0  0  0
  182.3040  176.1730  137.8400 C   0  0  0  0  0  3  0  0  0  0  0  0
  181.8000  177.2990  136.9670 C   0  0  1  0  0  3  0  0  0  0  0  0
  183.9790  177.0440  135.7590 C   0  0  0  0  0  2  0  0  0  0  0  0
  184.1110  175.6350  136.3220 C   0  0  2  0  0  3  0  0  0  0  0  0
  181.9820  178.5130  137.6280 O   0  0  0  0  0  1  0  0  0  0  0  0
  183.3540  175.4790  137.5510 N   0  0  0  0  0  0  0  0  0  0  0  0
  188.0480  177.9630  142.2390 C   0  0  0  0  0  0  0  0  0  0  0  0
  187.3130  177.1600  142.8790 O   0  0  0  0  0  0  0  0  0  0  0  0
  189.3110  178.3140  142.7200 O   0  0  0  0  0  0  0  0  0  0  0  0
  189.7500  177.9290  144.0140 C   0  0  0  0  0  1  0  0  0  0  0  0
  191.0370  176.9050  137.9220 C   0  0  0  0  0  2  0  0  0  0  0  0
  191.3060  175.5960  137.1640 C   0  0  2  0  0  3  0  0  0  0  0  0
  190.6650  174.5360  137.8170 O   0  0  0  0  0  0  0  0  0  0  0  0
  190.5320  173.5450  136.8430 C   0  0  0  0  0  1  0  0  0  0  0  0
  192.8160  175.3420  136.9770 C   0  0  1  0  0  3  0  0  0  0  0  0
  192.2300  176.1110  134.5770 C   0  0  0  0  0  1  0  0  0  0  0  0
  193.2700  175.4860  135.5050 C   0  0  1  0  0  3  0  0  0  0  0  0
  194.5310  176.1070  135.3660 O   0  0  0  0  0  0  0  0  0  0  0  0
  195.3940  175.2460  134.6620 C   0  0  0  0  0  2  0  0  0  0  0  0
  197.2440  174.9550  136.3530 C   0  0  0  0  0  0  0  0  0  0  0  0
  196.1430  174.4280  135.6020 N   0  0  0  0  0  0  0  0  0  0  0  0
  197.6860  172.7560  137.2770 N   0  0  0  0  0  2  0  0  0  0  0  0
  196.2650  172.4810  137.0820 C   0  0  0  0  0  2  0  0  0  0  0  0
  195.8280  173.0100  135.7180 C   0  0  0  0  0  2  0  0  0  0  0  0
  197.5870  176.1630  136.2380 O   0  0  0  0  0  0  0  0  0  0  0  0
  197.8950  174.1270  137.2690 O   0  0  0  0  0  0  0  0  0  0  0  0
  193.5820  176.2980  137.8860 C   0  0  0  0  0  2  0  0  0  0  0  0
  194.5990  175.6050  138.5440 O   0  0  0  0  0  1  0  0  0  0  0  0
  1 12  2  0  0  0  0
  3 11  1  1  0  0  0
  3 10  1  0  0  0  0
  4  2  1  6  0  0  0
  4 12  1  0  0  0  0
  4 13  1  0  0  0  0
  5  7  1  0  0  0  0
  6  5  1  0  0  0  0
  6 22  1  1  0  0  0
  9  1  2  0  0  0  0
 10  8  1  6  0  0  0
 10  6  1  0  0  0  0
 11 14  1  0  0  0  0
 12  3  1  0  0  0  0
 13  8  2  0  0  0  0
 14  5  2  0  0  0  0
 15 18  1  0  0  0  0
 15 17  1  0  0  0  0
 17 20  1  1  0  0  0
 17 16  1  0  0  0  0
 18 19  1  0  0  0  0
 19  9  1  1  0  0  0
 19 21  1  0  0  0  0
 21 16  2  0  0  0  0
 22 24  1  0  0  0  0
 22 23  2  0  0  0  0
 24 25  1  0  0  0  0
 26 13  1  0  0  0  0
 27 28  1  0  0  0  0
 27 26  1  1  0  0  0
 29 28  1  0  0  0  0
 30 27  1  0  0  0  0
 30 42  1  1  0  0  0
 32 31  1  6  0  0  0
 32 30  1  0  0  0  0
 33 32  1  0  0  0  0
 34 33  1  0  0  0  0
 34 36  1  0  0  0  0
 35 41  1  0  0  0  0
 36 39  1  0  0  0  0
 36 35  1  0  0  0  0
 38 37  1  0  0  0  0
 39 38  1  0  0  0  0
 40 35  2  0  0  0  0
 41 37  1  0  0  0  0
 42 43  1  0  0  0  0
M  END
>  <MODEL>
8

>  <REMARK>
 VINA RESULT:      -6.5      3.371      9.089
  Name = 
  12 active torsions:
  status: ('A' for Active; 'I' for Inactive)
    1  A    between atoms: C_2  and  C_6
    2  A    between atoms: C_2  and  C_38
    3  A    between atoms: C_4  and  C_15
    4  A    between atoms: C_4  and  O_22
    5  A    between atoms: O_5  and  C_18
    6  A    between atoms: C_6  and  O_12
    7  A    between atoms: C_6  and  C_15
    8  A    between atoms: C_10  and  C_15
    9  A    between atoms: N_14  and  C_41
   10  A    between atoms: C_18  and  C_21
   11  A    between atoms: O_22  and  C_41
   12  A    between atoms: C_28  and  C_35
                            x       y       z     vdW  Elec       q    Type
                         _______ _______ _______ _____ _____    ______ ____

>  <TORSDO>
F 12

$$$$
=
 OpenBabel10272414283D

 43 46  0  0  1  0  0  0  0  0999 V2000
  187.0500  177.2740  143.1070 C   0  0  0  0  0  0  0  0  0  0  0  0
  184.8540  179.8550  142.8720 C   0  0  0  0  0  1  0  0  0  0  0  0
  187.2030  178.5550  141.0010 C   0  0  2  0  0  3  0  0  0  0  0  0
  185.0530  178.4290  142.3810 C   0  0  2  0  0  3  0  0  0  0  0  0
  188.5390  178.6390  138.4850 C   0  0  0  0  0  0  0  0  0  0  0  0
  187.0440  178.4060  138.4780 C   0  0  2  0  0  3  0  0  0  0  0  0
  189.1710  178.9820  137.2980 O   0  0  0  0  0  1  0  0  0  0  0  0
  184.9890  178.0630  139.9000 C   0  0  0  0  0  3  0  0  0  0  0  0
  187.5720  176.4090  143.9300 C   0  0  0  0  0  3  0  0  0  0  0  0
  186.4890  177.8960  139.8200 C   0  0  2  0  0  3  0  0  0  0  0  0
  188.6900  178.2080  140.9360 C   0  0  0  0  0  2  0  0  0  0  0  0
  186.5170  178.1310  142.2730 C   0  0  0  0  0  0  0  0  0  0  0  0
  184.3280  178.2290  141.0600 C   0  0  0  0  0  0  0  0  0  0  0  0
  189.2680  178.5910  139.6060 C   0  0  0  0  0  3  0  0  0  0  0  0
  190.7130  178.1660  145.0900 C   0  0  0  0  0  2  0  0  0  0  0  0
  191.0720  176.5250  143.1990 C   0  0  0  0  0  3  0  0  0  0  0  0
  191.6090  177.7330  143.9290 C   0  0  1  0  0  3  0  0  0  0  0  0
  189.2480  178.0390  144.7060 C   0  0  0  0  0  2  0  0  0  0  0  0
  188.9720  176.5730  144.4000 C   0  0  2  0  0  3  0  0  0  0  0  0
  191.7520  178.7900  143.0310 O   0  0  0  0  0  1  0  0  0  0  0  0
  189.8850  176.0560  143.3970 N   0  0  0  0  0  0  0  0  0  0  0  0
  186.6550  177.4990  137.3500 C   0  0  0  0  0  0  0  0  0  0  0  0
  186.8850  176.2590  137.4250 O   0  0  0  0  0  0  0  0  0  0  0  0
  186.0720  178.0500  136.2060 O   0  0  0  0  0  0  0  0  0  0  0  0
  186.7320  178.0300  134.9500 C   0  0  0  0  0  1  0  0  0  0  0  0
  182.8260  178.2770  141.0140 C   0  0  0  0  0  2  0  0  0  0  0  0
  182.2930  179.5100  140.2680 C   0  0  2  0  0  3  0  0  0  0  0  0
  181.0630  179.8930  140.8140 O   0  0  0  0  0  0  0  0  0  0  0  0
  180.9500  179.1540  141.9930 C   0  0  0  0  0  1  0  0  0  0  0  0
  182.2090  179.2660  138.7470 C   0  0  1  0  0  3  0  0  0  0  0  0
  180.2080  178.1410  137.5530 C   0  0  0  0  0  1  0  0  0  0  0  0
  181.4720  177.9540  138.3910 C   0  0  1  0  0  3  0  0  0  0  0  0
  182.3200  176.9670  137.8390 O   0  0  0  0  0  0  0  0  0  0  0  0
  182.1990  175.7830  138.5900 C   0  0  0  0  0  2  0  0  0  0  0  0
  183.2150  173.8730  137.2910 C   0  0  0  0  0  0  0  0  0  0  0  0
  182.0760  174.6440  137.6950 N   0  0  0  0  0  0  0  0  0  0  0  0
  181.8170  172.5580  135.8080 N   0  0  0  0  0  2  0  0  0  0  0  0
  180.7140  172.8600  136.7170 C   0  0  0  0  0  2  0  0  0  0  0  0
  180.7750  174.3320  137.1170 C   0  0  0  0  0  2  0  0  0  0  0  0
  184.3680  174.1470  137.7220 O   0  0  0  0  0  0  0  0  0  0  0  0
  183.0230  172.7670  136.4610 O   0  0  0  0  0  0  0  0  0  0  0  0
  181.5330  180.4710  138.1010 C   0  0  0  0  0  2  0  0  0  0  0  0
  182.2030  181.6390  138.4700 O   0  0  0  0  0  1  0  0  0  0  0  0
  1  9  2  0  0  0  0
  3 11  1  1  0  0  0
  3 12  1  0  0  0  0
  4  2  1  6  0  0  0
  5 14  2  0  0  0  0
  6 22  1  6  0  0  0
  6  5  1  0  0  0  0
  6 10  1  0  0  0  0
  7  5  1  0  0  0  0
  8 13  2  0  0  0  0
 10  8  1  6  0  0  0
 10  3  1  0  0  0  0
 12  4  1  0  0  0  0
 12  1  2  0  0  0  0
 13  4  1  0  0  0  0
 14 11  1  0  0  0  0
 16 21  2  0  0  0  0
 16 17  1  0  0  0  0
 17 20  1  6  0  0  0
 17 15  1  0  0  0  0
 18 15  1  0  0  0  0
 19  9  1  6  0  0  0
 19 18  1  0  0  0  0
 21 19  1  0  0  0  0
 22 23  2  0  0  0  0
 24 22  1  0  0  0  0
 25 24  1  0  0  0  0
 26 13  1  0  0  0  0
 27 28  1  0  0  0  0
 27 26  1  1  0  0  0
 28 29  1  0  0  0  0
 30 42  1  6  0  0  0
 30 27  1  0  0  0  0
 32 31  1  6  0  0  0
 32 30  1  0  0  0  0
 33 32  1  0  0  0  0
 33 34  1  0  0  0  0
 35 36  1  0  0  0  0
 35 40  2  0  0  0  0
 36 34  1  0  0  0  0
 37 41  1  0  0  0  0
 37 38  1  0  0  0  0
 38 39  1  0  0  0  0
 39 36  1  0  0  0  0
 41 35  1  0  0  0  0
 42 43  1  0  0  0  0
M  END
>  <MODEL>
9

>  <REMARK>
 VINA RESULT:      -6.4      3.947      8.933
  Name = 
  12 active torsions:
  status: ('A' for Active; 'I' for Inactive)
    1  A    between atoms: C_2  and  C_6
    2  A    between atoms: C_2  and  C_38
    3  A    between atoms: C_4  and  C_15
    4  A    between atoms: C_4  and  O_22
    5  A    between atoms: O_5  and  C_18
    6  A    between atoms: C_6  and  O_12
    7  A    between atoms: C_6  and  C_15
    8  A    between atoms: C_10  and  C_15
    9  A    between atoms: N_14  and  C_41
   10  A    between atoms: C_18  and  C_21
   11  A    between atoms: O_22  and  C_41
   12  A    between atoms: C_28  and  C_35
                            x       y       z     vdW  Elec       q    Type
                         _______ _______ _______ _____ _____    ______ ____

>  <TORSDO>
F 12

$$$$
