=
 OpenBabel10272401563D

 28 29  0  0  1  0  0  0  0  0999 V2000
  187.6610  177.9650  144.9080 C   0  0  2  0  0  3  0  0  0  0  0  0
  186.2850  179.2770  146.5930 C   0  0  0  0  0  1  0  0  0  0  0  0
  186.2710  178.2010  145.5180 C   0  0  1  0  0  3  0  0  0  0  0  0
  185.7570  178.8960  140.2470 O   0  0  0  0  0  0  0  0  0  0  0  0
  183.1730  178.8250  142.6400 C   0  0  0  0  0  0  0  0  0  0  0  0
  185.5130  178.5520  143.1560 C   0  0  0  0  0  3  0  0  0  0  0  0
  183.4720  179.1080  140.1610 N   0  0  0  0  0  0  0  0  0  0  0  0
  184.4960  178.7600  142.2230 C   0  0  0  0  0  0  0  0  0  0  0  0
  183.8160  178.4810  144.9130 C   0  0  0  0  0  3  0  0  0  0  0  0
  182.2380  179.0780  141.2800 S   0  0  0  0  0  0  0  0  0  0  0  0
  182.7970  178.6920  143.9710 C   0  0  0  0  0  3  0  0  0  0  0  0
  183.3100  179.2980  138.7300 C   0  0  0  0  0  1  0  0  0  0  0  0
  184.6400  178.9220  140.8320 C   0  0  0  0  0  0  0  0  0  0  0  0
  185.1710  178.4080  144.5120 C   0  0  0  0  0  0  0  0  0  0  0  0
  187.8680  176.5460  144.3820 C   0  0  0  0  0  2  0  0  0  0  0  0
  188.1470  176.5650  142.8930 C   0  0  0  0  0  1  0  0  0  0  0  0
  188.7470  178.3050  145.9240 C   0  0  0  0  0  2  0  0  0  0  0  0
  189.3540  177.0730  146.6010 C   0  0  1  0  0  3  0  0  0  0  0  0
  190.8350  177.1600  146.8510 C   0  0  0  0  0  0  0  0  0  0  0  0
  191.7960  177.0390  145.7910 N   0  0  0  0  0  2  0  0  0  0  0  0
  191.2530  177.3840  148.0180 O   0  0  0  0  0  0  0  0  0  0  0  0
  191.4790  175.4940  143.9620 C   0  0  0  0  0  2  0  0  0  0  0  0
  191.5730  176.7480  144.3990 C   0  0  0  0  0  0  0  0  0  0  0  0
  191.4820  177.8670  143.4350 C   0  0  0  0  0  0  0  0  0  0  0  0
  191.3750  179.2840  143.8930 C   0  0  0  0  0  1  0  0  0  0  0  0
  191.5020  177.6320  142.1290 C   0  0  0  0  0  2  0  0  0  0  0  0
  188.0720  177.5910  148.7410 C   0  0  0  0  0  1  0  0  0  0  0  0
  188.5360  176.5170  147.7710 C   0  0  0  0  0  2  0  0  0  0  0  0
  1 15  1  1  0  0  0
  1  3  1  0  0  0  0
  1 17  1  0  0  0  0
  3  2  1  1  0  0  0
  4 13  2  0  0  0  0
  5 11  1  0  0  0  0
  6 14  2  0  0  0  0
  7 13  1  0  0  0  0
  7 10  1  0  0  0  0
  8  5  2  0  0  0  0
  8  6  1  0  0  0  0
 10  5  1  0  0  0  0
 11  9  2  0  0  0  0
 12  7  1  0  0  0  0
 13  8  1  0  0  0  0
 14  9  1  0  0  0  0
 14  3  1  0  0  0  0
 16 15  1  0  0  0  0
 18 17  1  1  0  0  0
 18 19  1  0  0  0  0
 18 28  1  0  0  0  0
 19 21  2  0  0  0  0
 20 19  1  0  0  0  0
 22 23  2  0  0  0  0
 23 20  1  0  0  0  0
 24 25  1  0  0  0  0
 24 23  1  0  0  0  0
 26 24  2  0  0  0  0
 28 27  1  0  0  0  0
M  END
>  <MODEL>
1

>  <REMARK>
 VINA RESULT:      -8.3      0.000      0.000
  Name = 
  9 active torsions:
  status: ('A' for Active; 'I' for Inactive)
    1  A    between atoms: C_1  and  C_2
    2  A    between atoms: C_1  and  C_17
    3  A    between atoms: C_1  and  C_26
    4  A    between atoms: N_3  and  C_11
    5  A    between atoms: C_6  and  C_11
    6  A    between atoms: C_16  and  C_27
    7  A    between atoms: C_17  and  C_27
    8  A    between atoms: C_20  and  C_25
    9  A    between atoms: C_20  and  C_27
                            x       y       z     vdW  Elec       q    Type
                         _______ _______ _______ _____ _____    ______ ____

>  <TORSDO>
F 9

$$$$
=
 OpenBabel10272401563D

 28 29  0  0  1  0  0  0  0  0999 V2000
  190.1700  176.6740  142.9040 C   0  0  2  0  0  3  0  0  0  0  0  0
  190.9200  178.9110  143.8460 C   0  0  0  0  0  1  0  0  0  0  0  0
  190.2400  177.5820  144.1410 C   0  0  1  0  0  3  0  0  0  0  0  0
  185.1180  178.5540  142.9790 O   0  0  0  0  0  0  0  0  0  0  0  0
  186.5210  178.1110  146.1800 C   0  0  0  0  0  0  0  0  0  0  0  0
  187.7720  178.0110  144.1200 C   0  0  0  0  0  3  0  0  0  0  0  0
  184.2890  178.5710  145.1210 N   0  0  0  0  0  0  0  0  0  0  0  0
  186.5620  178.1870  144.7930 C   0  0  0  0  0  0  0  0  0  0  0  0
  188.8670  177.6840  146.2810 C   0  0  0  0  0  3  0  0  0  0  0  0
  184.9360  178.3650  146.6410 S   0  0  0  0  0  0  0  0  0  0  0  0
  187.6480  177.8630  146.9530 C   0  0  0  0  0  3  0  0  0  0  0  0
  182.8920  178.8340  144.8260 C   0  0  0  0  0  1  0  0  0  0  0  0
  185.3020  178.4470  144.2220 C   0  0  0  0  0  0  0  0  0  0  0  0
  188.9350  177.7550  144.8690 C   0  0  0  0  0  0  0  0  0  0  0  0
  190.7480  175.2800  143.1330 C   0  0  0  0  0  2  0  0  0  0  0  0
  191.8450  175.3220  144.1780 C   0  0  0  0  0  1  0  0  0  0  0  0
  190.8690  177.3370  141.7220 C   0  0  0  0  0  2  0  0  0  0  0  0
  189.9730  177.4820  140.4890 C   0  0  1  0  0  3  0  0  0  0  0  0
  190.4230  176.6930  139.2890 C   0  0  0  0  0  0  0  0  0  0  0  0
  189.8910  176.9310  137.9770 N   0  0  0  0  0  2  0  0  0  0  0  0
  191.3210  175.8210  139.4250 O   0  0  0  0  0  0  0  0  0  0  0  0
  189.0880  179.1270  137.3710 C   0  0  0  0  0  2  0  0  0  0  0  0
  188.8450  177.8340  137.5760 C   0  0  0  0  0  0  0  0  0  0  0  0
  187.4670  177.3170  137.4220 C   0  0  0  0  0  0  0  0  0  0  0  0
  187.2040  175.8810  137.1090 C   0  0  0  0  0  1  0  0  0  0  0  0
  186.4240  178.1250  137.5680 C   0  0  0  0  0  2  0  0  0  0  0  0
  187.8260  178.7780  140.9410 C   0  0  0  0  0  1  0  0  0  0  0  0
  188.4700  177.4110  140.7770 C   0  0  0  0  0  2  0  0  0  0  0  0
  1 17  1  6  0  0  0
  1 15  1  0  0  0  0
  1  3  1  0  0  0  0
  3  2  1  6  0  0  0
  3 14  1  0  0  0  0
  4 13  2  0  0  0  0
  5 10  1  0  0  0  0
  5 11  1  0  0  0  0
  6  8  1  0  0  0  0
  6 14  2  0  0  0  0
  7 10  1  0  0  0  0
  8  5  2  0  0  0  0
  9 11  2  0  0  0  0
 12  7  1  0  0  0  0
 13  8  1  0  0  0  0
 13  7  1  0  0  0  0
 14  9  1  0  0  0  0
 15 16  1  0  0  0  0
 18 28  1  1  0  0  0
 18 17  1  0  0  0  0
 19 21  2  0  0  0  0
 19 18  1  0  0  0  0
 20 19  1  0  0  0  0
 22 23  2  0  0  0  0
 23 20  1  0  0  0  0
 24 26  2  0  0  0  0
 24 23  1  0  0  0  0
 25 24  1  0  0  0  0
 28 27  1  0  0  0  0
M  END
>  <MODEL>
2

>  <REMARK>
 VINA RESULT:      -7.5      3.426      5.941
  Name = 
  9 active torsions:
  status: ('A' for Active; 'I' for Inactive)
    1  A    between atoms: C_1  and  C_2
    2  A    between atoms: C_1  and  C_17
    3  A    between atoms: C_1  and  C_26
    4  A    between atoms: N_3  and  C_11
    5  A    between atoms: C_6  and  C_11
    6  A    between atoms: C_16  and  C_27
    7  A    between atoms: C_17  and  C_27
    8  A    between atoms: C_20  and  C_25
    9  A    between atoms: C_20  and  C_27
                            x       y       z     vdW  Elec       q    Type
                         _______ _______ _______ _____ _____    ______ ____

>  <TORSDO>
F 9

$$$$
=
 OpenBabel10272401563D

 28 29  0  0  1  0  0  0  0  0999 V2000
  187.7050  177.4120  146.3980 C   0  0  2  0  0  3  0  0  0  0  0  0
  186.1760  179.3110  147.1100 C   0  0  0  0  0  1  0  0  0  0  0  0
  186.2930  178.0130  146.3260 C   0  0  1  0  0  3  0  0  0  0  0  0
  181.6120  179.0800  143.9870 O   0  0  0  0  0  0  0  0  0  0  0  0
  184.6570  178.3170  142.3890 C   0  0  0  0  0  0  0  0  0  0  0  0
  184.3700  178.4450  144.7810 C   0  0  0  0  0  3  0  0  0  0  0  0
  182.2780  178.8700  141.7990 N   0  0  0  0  0  0  0  0  0  0  0  0
  183.8420  178.5380  143.4920 C   0  0  0  0  0  0  0  0  0  0  0  0
  186.5410  177.9060  143.7960 C   0  0  0  0  0  3  0  0  0  0  0  0
  183.7090  178.5090  141.0280 S   0  0  0  0  0  0  0  0  0  0  0  0
  186.0050  177.9990  142.5020 C   0  0  0  0  0  3  0  0  0  0  0  0
  181.0150  179.1580  141.1430 C   0  0  0  0  0  1  0  0  0  0  0  0
  182.5140  178.8440  143.1380 C   0  0  0  0  0  0  0  0  0  0  0  0
  185.7310  178.1290  144.9360 C   0  0  0  0  0  0  0  0  0  0  0  0
  188.0960  176.9280  147.7930 C   0  0  0  0  0  2  0  0  0  0  0  0
  188.7170  178.0550  148.5940 C   0  0  0  0  0  1  0  0  0  0  0  0
  188.7340  178.4190  145.8920 C   0  0  0  0  0  2  0  0  0  0  0  0
  189.8780  177.7750  145.1040 C   0  0  1  0  0  3  0  0  0  0  0  0
  190.4930  178.6600  144.0530 C   0  0  0  0  0  0  0  0  0  0  0  0
  190.3740  178.3730  142.6510 N   0  0  0  0  0  0  0  0  0  0  0  0
  191.0980  179.7060  144.4040 O   0  0  0  0  0  0  0  0  0  0  0  0
  189.4250  176.1530  142.7040 C   0  0  0  0  0  1  0  0  0  0  0  0
  189.7710  177.2340  142.0100 C   0  0  0  0  0  0  0  0  0  0  0  0
  189.5650  177.2600  140.5440 C   0  0  0  0  0  0  0  0  0  0  0  0
  190.4670  176.5150  139.6170 C   0  0  0  0  0  1  0  0  0  0  0  0
  188.5580  177.9460  140.0180 C   0  0  0  0  0  2  0  0  0  0  0  0
  191.8120  176.1150  145.1350 C   0  0  0  0  0  1  0  0  0  0  0  0
  190.8850  176.9970  145.9570 C   0  0  0  0  0  2  0  0  0  0  0  0
  1 17  1  1  0  0  0
  1 15  1  0  0  0  0
  3  1  1  0  0  0  0
  3  2  1  6  0  0  0
  5 11  2  0  0  0  0
  5  8  1  0  0  0  0
  6 14  1  0  0  0  0
  7 13  1  0  0  0  0
  8  6  2  0  0  0  0
  9 14  2  0  0  0  0
 10  7  1  0  0  0  0
 10  5  1  0  0  0  0
 11  9  1  0  0  0  0
 12  7  1  0  0  0  0
 13  8  1  0  0  0  0
 13  4  2  0  0  0  0
 14  3  1  0  0  0  0
 15 16  1  0  0  0  0
 18 17  1  1  0  0  0
 18 28  1  0  0  0  0
 19 21  2  0  0  0  0
 19 18  1  0  0  0  0
 20 19  1  0  0  0  0
 23 20  2  0  0  0  0
 23 22  1  0  0  0  0
 24 23  1  0  0  0  0
 25 24  1  0  0  0  0
 26 24  2  0  0  0  0
 27 28  1  0  0  0  0
M  END
>  <MODEL>
3

>  <REMARK>
 VINA RESULT:      -7.4      2.094      3.228
  Name = 
  9 active torsions:
  status: ('A' for Active; 'I' for Inactive)
    1  A    between atoms: C_1  and  C_2
    2  A    between atoms: C_1  and  C_17
    3  A    between atoms: C_1  and  C_26
    4  A    between atoms: N_3  and  C_11
    5  A    between atoms: C_6  and  C_11
    6  A    between atoms: C_16  and  C_27
    7  A    between atoms: C_17  and  C_27
    8  A    between atoms: C_20  and  C_25
    9  A    between atoms: C_20  and  C_27
                            x       y       z     vdW  Elec       q    Type
                         _______ _______ _______ _____ _____    ______ ____

>  <TORSDO>
F 9

$$$$
=
 OpenBabel10272401563D

 28 29  0  0  1  0  0  0  0  0999 V2000
  188.9470  176.6810  143.0890 C   0  0  2  0  0  3  0  0  0  0  0  0
  189.6350  178.1730  145.0260 C   0  0  0  0  0  1  0  0  0  0  0  0
  188.6050  177.1860  144.4990 C   0  0  1  0  0  3  0  0  0  0  0  0
  184.2720  177.9770  141.4770 O   0  0  0  0  0  0  0  0  0  0  0  0
  184.6050  178.6300  144.9230 C   0  0  0  0  0  0  0  0  0  0  0  0
  186.3570  177.7240  143.5350 C   0  0  0  0  0  3  0  0  0  0  0  0
  182.8810  178.8110  143.1040 N   0  0  0  0  0  0  0  0  0  0  0  0
  185.0530  178.2010  143.6800 C   0  0  0  0  0  0  0  0  0  0  0  0
  186.7160  178.1300  145.9180 C   0  0  0  0  0  3  0  0  0  0  0  0
  183.0220  179.1270  144.7330 S   0  0  0  0  0  0  0  0  0  0  0  0
  185.4050  178.6100  146.0590 C   0  0  0  0  0  3  0  0  0  0  0  0
  181.6920  179.0330  142.3000 C   0  0  0  0  0  1  0  0  0  0  0  0
  184.0720  178.3130  142.6770 C   0  0  0  0  0  0  0  0  0  0  0  0
  187.1950  177.6850  144.6630 C   0  0  0  0  0  0  0  0  0  0  0  0
  189.9540  175.5340  143.0750 C   0  0  0  0  0  2  0  0  0  0  0  0
  191.3570  176.0540  143.3170 C   0  0  0  0  0  1  0  0  0  0  0  0
  189.4580  177.8310  142.2270 C   0  0  0  0  0  2  0  0  0  0  0  0
  189.1490  177.6580  140.7370 C   0  0  1  0  0  3  0  0  0  0  0  0
  187.9380  178.4120  140.2560 C   0  0  0  0  0  0  0  0  0  0  0  0
  187.3900  178.2140  138.9440 N   0  0  0  0  0  2  0  0  0  0  0  0
  187.3600  179.2150  141.0340 O   0  0  0  0  0  0  0  0  0  0  0  0
  187.6020  176.0920  137.8110 C   0  0  0  0  0  2  0  0  0  0  0  0
  187.8850  177.3910  137.8720 C   0  0  0  0  0  0  0  0  0  0  0  0
  188.7510  178.0000  136.8380 C   0  0  0  0  0  0  0  0  0  0  0  0
  189.3010  177.1940  135.7080 C   0  0  0  0  0  1  0  0  0  0  0  0
  189.0550  179.2910  136.8900 C   0  0  0  0  0  2  0  0  0  0  0  0
  190.9510  176.3880  139.4590 C   0  0  0  0  0  1  0  0  0  0  0  0
  190.3690  177.7470  139.8150 C   0  0  0  0  0  2  0  0  0  0  0  0
  1 17  1  6  0  0  0
  1  3  1  0  0  0  0
  3 14  1  0  0  0  0
  3  2  1  6  0  0  0
  4 13  2  0  0  0  0
  5 11  1  0  0  0  0
  6  8  1  0  0  0  0
  6 14  2  0  0  0  0
  7 10  1  0  0  0  0
  8  5  2  0  0  0  0
  9 11  2  0  0  0  0
 10  5  1  0  0  0  0
 12  7  1  0  0  0  0
 13  7  1  0  0  0  0
 13  8  1  0  0  0  0
 14  9  1  0  0  0  0
 15  1  1  0  0  0  0
 15 16  1  0  0  0  0
 18 28  1  6  0  0  0
 18 17  1  0  0  0  0
 19 18  1  0  0  0  0
 19 21  2  0  0  0  0
 20 19  1  0  0  0  0
 22 23  2  0  0  0  0
 23 20  1  0  0  0  0
 24 26  2  0  0  0  0
 24 23  1  0  0  0  0
 25 24  1  0  0  0  0
 27 28  1  0  0  0  0
M  END
>  <MODEL>
4

>  <REMARK>
 VINA RESULT:      -7.3      3.054      5.358
  Name = 
  9 active torsions:
  status: ('A' for Active; 'I' for Inactive)
    1  A    between atoms: C_1  and  C_2
    2  A    between atoms: C_1  and  C_17
    3  A    between atoms: C_1  and  C_26
    4  A    between atoms: N_3  and  C_11
    5  A    between atoms: C_6  and  C_11
    6  A    between atoms: C_16  and  C_27
    7  A    between atoms: C_17  and  C_27
    8  A    between atoms: C_20  and  C_25
    9  A    between atoms: C_20  and  C_27
                            x       y       z     vdW  Elec       q    Type
                         _______ _______ _______ _____ _____    ______ ____

>  <TORSDO>
F 9

$$$$
=
 OpenBabel10272401563D

 28 29  0  0  1  0  0  0  0  0999 V2000
  190.0210  178.2650  143.3740 C   0  0  2  0  0  3  0  0  0  0  0  0
  190.8470  175.8720  143.1650 C   0  0  0  0  0  1  0  0  0  0  0  0
  190.8620  177.2690  142.5620 C   0  0  1  0  0  3  0  0  0  0  0  0
  186.8180  178.4470  139.2780 O   0  0  0  0  0  0  0  0  0  0  0  0
  189.9950  177.2230  138.3770 C   0  0  0  0  0  0  0  0  0  0  0  0
  189.3030  177.6730  140.6430 C   0  0  0  0  0  3  0  0  0  0  0  0
  187.8350  177.9060  137.2910 N   0  0  0  0  0  0  0  0  0  0  0  0
  189.0270  177.6510  139.2750 C   0  0  0  0  0  0  0  0  0  0  0  0
  191.5420  176.8250  140.1510 C   0  0  0  0  0  3  0  0  0  0  0  0
  189.3320  177.3270  136.8480 S   0  0  0  0  0  0  0  0  0  0  0  0
  191.2590  176.8040  138.7770 C   0  0  0  0  0  3  0  0  0  0  0  0
  186.7480  178.2210  136.3810 C   0  0  0  0  0  1  0  0  0  0  0  0
  187.8250  178.0270  138.6460 C   0  0  0  0  0  0  0  0  0  0  0  0
  190.5720  177.2600  141.0860 C   0  0  0  0  0  0  0  0  0  0  0  0
  190.7720  179.5410  143.7470 C   0  0  0  0  0  2  0  0  0  0  0  0
  192.1020  179.2070  144.3940 C   0  0  0  0  0  1  0  0  0  0  0  0
  189.4800  177.5960  144.6330 C   0  0  0  0  0  2  0  0  0  0  0  0
  187.9610  177.7230  144.7850 C   0  0  1  0  0  3  0  0  0  0  0  0
  187.1620  176.9540  143.7670 C   0  0  0  0  0  0  0  0  0  0  0  0
  185.9720  177.4900  143.1700 N   0  0  0  0  0  2  0  0  0  0  0  0
  187.5640  175.8200  143.3950 O   0  0  0  0  0  0  0  0  0  0  0  0
  185.6840  179.8710  142.8880 C   0  0  0  0  0  2  0  0  0  0  0  0
  185.2970  178.7290  143.4540 C   0  0  0  0  0  0  0  0  0  0  0  0
  184.1750  178.7350  144.4170 C   0  0  0  0  0  0  0  0  0  0  0  0
  182.7540  178.7840  143.9600 C   0  0  0  0  0  1  0  0  0  0  0  0
  184.4090  178.6870  145.7230 C   0  0  0  0  0  2  0  0  0  0  0  0
  188.5430  177.2750  147.2240 C   0  0  0  0  0  1  0  0  0  0  0  0
  187.4490  177.6080  146.2240 C   0  0  0  0  0  2  0  0  0  0  0  0
  1 15  1  1  0  0  0
  1 17  1  0  0  0  0
  3  2  1  1  0  0  0
  3  1  1  0  0  0  0
  5 11  2  0  0  0  0
  5  8  1  0  0  0  0
  6 14  1  0  0  0  0
  7 13  1  0  0  0  0
  8  6  2  0  0  0  0
  9 14  2  0  0  0  0
 10  7  1  0  0  0  0
 10  5  1  0  0  0  0
 11  9  1  0  0  0  0
 12  7  1  0  0  0  0
 13  8  1  0  0  0  0
 13  4  2  0  0  0  0
 14  3  1  0  0  0  0
 15 16  1  0  0  0  0
 18 17  1  1  0  0  0
 18 28  1  0  0  0  0
 19 18  1  0  0  0  0
 20 23  1  0  0  0  0
 20 19  1  0  0  0  0
 21 19  2  0  0  0  0
 22 23  2  0  0  0  0
 23 24  1  0  0  0  0
 24 26  2  0  0  0  0
 25 24  1  0  0  0  0
 28 27  1  0  0  0  0
M  END
>  <MODEL>
5

>  <REMARK>
 VINA RESULT:      -7.2      2.993      6.041
  Name = 
  9 active torsions:
  status: ('A' for Active; 'I' for Inactive)
    1  A    between atoms: C_1  and  C_2
    2  A    between atoms: C_1  and  C_17
    3  A    between atoms: C_1  and  C_26
    4  A    between atoms: N_3  and  C_11
    5  A    between atoms: C_6  and  C_11
    6  A    between atoms: C_16  and  C_27
    7  A    between atoms: C_17  and  C_27
    8  A    between atoms: C_20  and  C_25
    9  A    between atoms: C_20  and  C_27
                            x       y       z     vdW  Elec       q    Type
                         _______ _______ _______ _____ _____    ______ ____

>  <TORSDO>
F 9

$$$$
=
 OpenBabel10272401563D

 28 29  0  0  1  0  0  0  0  0999 V2000
  184.5300  178.2280  141.9180 C   0  0  2  0  0  3  0  0  0  0  0  0
  182.7000  178.9800  143.5100 C   0  0  0  0  0  1  0  0  0  0  0  0
  184.1870  179.0150  143.1920 C   0  0  1  0  0  3  0  0  0  0  0  0
  189.1150  177.2240  144.2070 O   0  0  0  0  0  0  0  0  0  0  0  0
  186.6190  178.0190  146.5620 C   0  0  0  0  0  0  0  0  0  0  0  0
  186.3480  178.2150  144.1730 C   0  0  0  0  0  3  0  0  0  0  0  0
  188.9850  177.1780  146.5000 N   0  0  0  0  0  0  0  0  0  0  0  0
  187.1350  177.8880  145.2790 C   0  0  0  0  0  0  0  0  0  0  0  0
  184.5340  178.8020  145.7030 C   0  0  0  0  0  3  0  0  0  0  0  0
  187.8160  177.5480  147.6260 S   0  0  0  0  0  0  0  0  0  0  0  0
  185.3280  178.4700  146.8110 C   0  0  0  0  0  3  0  0  0  0  0  0
  190.3220  176.6920  146.7980 C   0  0  0  0  0  1  0  0  0  0  0  0
  188.4600  177.4140  145.2680 C   0  0  0  0  0  0  0  0  0  0  0  0
  185.0370  178.6790  144.3860 C   0  0  0  0  0  0  0  0  0  0  0  0
  185.3870  179.0100  140.9260 C   0  0  0  0  0  2  0  0  0  0  0  0
  186.8360  178.5710  141.0100 C   0  0  0  0  0  1  0  0  0  0  0  0
  183.2540  177.7480  141.2340 C   0  0  0  0  0  2  0  0  0  0  0  0
  183.3570  177.7170  139.7060 C   0  0  1  0  0  3  0  0  0  0  0  0
  183.0500  176.3830  139.0820 C   0  0  0  0  0  0  0  0  0  0  0  0
  183.5940  175.9920  137.8130 N   0  0  0  0  0  2  0  0  0  0  0  0
  182.3240  175.5620  139.7040 O   0  0  0  0  0  0  0  0  0  0  0  0
  183.8920  177.2950  135.8020 C   0  0  0  0  0  2  0  0  0  0  0  0
  184.4080  176.7560  136.9040 C   0  0  0  0  0  0  0  0  0  0  0  0
  185.8510  176.9150  137.1890 C   0  0  0  0  0  0  0  0  0  0  0  0
  186.7810  175.7460  137.1820 C   0  0  0  0  0  1  0  0  0  0  0  0
  186.3570  178.1130  137.4540 C   0  0  0  0  0  2  0  0  0  0  0  0
  181.5260  179.4890  139.7400 C   0  0  0  0  0  1  0  0  0  0  0  0
  182.7240  178.9180  138.9980 C   0  0  0  0  0  2  0  0  0  0  0  0
  1 15  1  6  0  0  0
  1  3  1  0  0  0  0
  3  2  1  1  0  0  0
  3 14  1  0  0  0  0
  4 13  2  0  0  0  0
  5 11  1  0  0  0  0
  5 10  1  0  0  0  0
  6 14  2  0  0  0  0
  6  8  1  0  0  0  0
  7 12  1  0  0  0  0
  7 10  1  0  0  0  0
  8  5  2  0  0  0  0
  9 11  2  0  0  0  0
 13  8  1  0  0  0  0
 13  7  1  0  0  0  0
 14  9  1  0  0  0  0
 15 16  1  0  0  0  0
 17  1  1  0  0  0  0
 18 28  1  6  0  0  0
 18 17  1  0  0  0  0
 19 21  2  0  0  0  0
 19 18  1  0  0  0  0
 20 19  1  0  0  0  0
 22 23  2  0  0  0  0
 23 24  1  0  0  0  0
 23 20  1  0  0  0  0
 24 26  2  0  0  0  0
 25 24  1  0  0  0  0
 28 27  1  0  0  0  0
M  END
>  <MODEL>
6

>  <REMARK>
 VINA RESULT:      -7.2      3.004      7.799
  Name = 
  9 active torsions:
  status: ('A' for Active; 'I' for Inactive)
    1  A    between atoms: C_1  and  C_2
    2  A    between atoms: C_1  and  C_17
    3  A    between atoms: C_1  and  C_26
    4  A    between atoms: N_3  and  C_11
    5  A    between atoms: C_6  and  C_11
    6  A    between atoms: C_16  and  C_27
    7  A    between atoms: C_17  and  C_27
    8  A    between atoms: C_20  and  C_25
    9  A    between atoms: C_20  and  C_27
                            x       y       z     vdW  Elec       q    Type
                         _______ _______ _______ _____ _____    ______ ____

>  <TORSDO>
F 9

$$$$
=
 OpenBabel10272401563D

 28 29  0  0  1  0  0  0  0  0999 V2000
  189.9230  178.4000  143.3530 C   0  0  2  0  0  3  0  0  0  0  0  0
  190.6160  176.0110  142.8370 C   0  0  0  0  0  1  0  0  0  0  0  0
  190.5270  177.4390  142.3180 C   0  0  1  0  0  3  0  0  0  0  0  0
  191.7940  176.2090  137.2770 O   0  0  0  0  0  0  0  0  0  0  0  0
  188.7990  177.6730  138.4160 C   0  0  0  0  0  0  0  0  0  0  0  0
  190.6400  177.0520  139.8460 C   0  0  0  0  0  3  0  0  0  0  0  0
  189.8600  176.9240  136.2660 N   0  0  0  0  0  0  0  0  0  0  0  0
  190.0700  177.1360  138.5750 C   0  0  0  0  0  0  0  0  0  0  0  0
  188.6120  178.0610  140.7650 C   0  0  0  0  0  3  0  0  0  0  0  0
  188.4380  177.6170  136.7870 S   0  0  0  0  0  0  0  0  0  0  0  0
  188.0440  178.1440  139.4840 C   0  0  0  0  0  3  0  0  0  0  0  0
  190.1840  176.5970  134.8880 C   0  0  0  0  0  1  0  0  0  0  0  0
  190.6460  176.7250  137.3570 C   0  0  0  0  0  0  0  0  0  0  0  0
  189.9040  177.5150  140.9520 C   0  0  0  0  0  0  0  0  0  0  0  0
  190.8670  179.5230  143.7730 C   0  0  0  0  0  2  0  0  0  0  0  0
  192.1170  178.9570  144.4170 C   0  0  0  0  0  1  0  0  0  0  0  0
  189.4590  177.6260  144.5830 C   0  0  0  0  0  2  0  0  0  0  0  0
  187.9480  177.7130  144.8220 C   0  0  1  0  0  3  0  0  0  0  0  0
  187.1120  176.9260  143.8490 C   0  0  0  0  0  0  0  0  0  0  0  0
  185.9050  177.4550  143.2800 N   0  0  0  0  0  2  0  0  0  0  0  0
  187.4970  175.7830  143.4870 O   0  0  0  0  0  0  0  0  0  0  0  0
  185.6070  179.8280  142.9460 C   0  0  0  0  0  2  0  0  0  0  0  0
  185.2460  178.7030  143.5590 C   0  0  0  0  0  0  0  0  0  0  0  0
  184.1680  178.7380  144.5730 C   0  0  0  0  0  0  0  0  0  0  0  0
  182.7290  178.7880  144.1800 C   0  0  0  0  0  1  0  0  0  0  0  0
  184.4610  178.7170  145.8680 C   0  0  0  0  0  2  0  0  0  0  0  0
  188.6520  177.1350  147.2020 C   0  0  0  0  0  1  0  0  0  0  0  0
  187.5230  177.5800  146.2870 C   0  0  0  0  0  2  0  0  0  0  0  0
  1 15  1  1  0  0  0
  1 17  1  0  0  0  0
  3  2  1  1  0  0  0
  3  1  1  0  0  0  0
  4 13  2  0  0  0  0
  5  8  2  0  0  0  0
  5 11  1  0  0  0  0
  6 14  2  0  0  0  0
  7 10  1  0  0  0  0
  7 13  1  0  0  0  0
  8  6  1  0  0  0  0
  9 14  1  0  0  0  0
 10  5  1  0  0  0  0
 11  9  2  0  0  0  0
 12  7  1  0  0  0  0
 13  8  1  0  0  0  0
 14  3  1  0  0  0  0
 15 16  1  0  0  0  0
 18 17  1  1  0  0  0
 18 28  1  0  0  0  0
 19 18  1  0  0  0  0
 20 23  1  0  0  0  0
 20 19  1  0  0  0  0
 21 19  2  0  0  0  0
 22 23  2  0  0  0  0
 23 24  1  0  0  0  0
 24 26  2  0  0  0  0
 25 24  1  0  0  0  0
 28 27  1  0  0  0  0
M  END
>  <MODEL>
7

>  <REMARK>
 VINA RESULT:      -7.1      3.684      6.242
  Name = 
  9 active torsions:
  status: ('A' for Active; 'I' for Inactive)
    1  A    between atoms: C_1  and  C_2
    2  A    between atoms: C_1  and  C_17
    3  A    between atoms: C_1  and  C_26
    4  A    between atoms: N_3  and  C_11
    5  A    between atoms: C_6  and  C_11
    6  A    between atoms: C_16  and  C_27
    7  A    between atoms: C_17  and  C_27
    8  A    between atoms: C_20  and  C_25
    9  A    between atoms: C_20  and  C_27
                            x       y       z     vdW  Elec       q    Type
                         _______ _______ _______ _____ _____    ______ ____

>  <TORSDO>
F 9

$$$$
=
 OpenBabel10272401563D

 28 29  0  0  1  0  0  0  0  0999 V2000
  190.1860  176.8480  141.3930 C   0  0  2  0  0  3  0  0  0  0  0  0
  190.9190  175.3780  143.3310 C   0  0  0  0  0  1  0  0  0  0  0  0
  189.7430  176.0130  142.6040 C   0  0  1  0  0  3  0  0  0  0  0  0
  184.7280  177.8530  142.5960 O   0  0  0  0  0  0  0  0  0  0  0  0
  187.0550  178.0450  145.2340 C   0  0  0  0  0  0  0  0  0  0  0  0
  187.5040  177.0240  143.0950 C   0  0  0  0  0  3  0  0  0  0  0  0
  184.6880  178.7160  144.7240 N   0  0  0  0  0  0  0  0  0  0  0  0
  186.6340  177.6910  143.9580 C   0  0  0  0  0  0  0  0  0  0  0  0
  189.2090  177.0910  144.8460 C   0  0  0  0  0  3  0  0  0  0  0  0
  185.7760  178.8160  145.9810 S   0  0  0  0  0  0  0  0  0  0  0  0
  188.3300  177.7640  145.7100 C   0  0  0  0  0  3  0  0  0  0  0  0
  183.3270  179.2220  144.7430 C   0  0  0  0  0  1  0  0  0  0  0  0
  185.3060  178.0780  143.6940 C   0  0  0  0  0  0  0  0  0  0  0  0
  188.8020  176.7180  143.5420 C   0  0  0  0  0  0  0  0  0  0  0  0
  191.3530  177.7870  141.6890 C   0  0  0  0  0  2  0  0  0  0  0  0
  192.4770  177.5690  140.6950 C   0  0  0  0  0  1  0  0  0  0  0  0
  189.0080  177.6450  140.8420 C   0  0  0  0  0  2  0  0  0  0  0  0
  188.6710  177.3040  139.3870 C   0  0  1  0  0  3  0  0  0  0  0  0
  188.4020  178.4970  138.5100 C   0  0  0  0  0  0  0  0  0  0  0  0
  187.2460  178.5730  137.6610 N   0  0  0  0  0  2  0  0  0  0  0  0
  189.1890  179.4800  138.5430 O   0  0  0  0  0  0  0  0  0  0  0  0
  186.4990  176.4760  136.7260 C   0  0  0  0  0  2  0  0  0  0  0  0
  186.2340  177.5780  137.4220 C   0  0  0  0  0  0  0  0  0  0  0  0
  184.8650  177.8080  137.9350 C   0  0  0  0  0  0  0  0  0  0  0  0
  183.6630  177.3240  137.1930 C   0  0  0  0  0  1  0  0  0  0  0  0
  184.6740  178.4490  139.0810 C   0  0  0  0  0  2  0  0  0  0  0  0
  190.4410  176.7660  137.6350 C   0  0  0  0  0  1  0  0  0  0  0  0
  189.5660  176.2330  138.7570 C   0  0  0  0  0  2  0  0  0  0  0  0
  1 17  1  1  0  0  0
  1 15  1  0  0  0  0
  1  3  1  0  0  0  0
  3  2  1  1  0  0  0
  3 14  1  0  0  0  0
  4 13  2  0  0  0  0
  5 11  1  0  0  0  0
  5 10  1  0  0  0  0
  6 14  2  0  0  0  0
  6  8  1  0  0  0  0
  7 12  1  0  0  0  0
  7 10  1  0  0  0  0
  8  5  2  0  0  0  0
  9 11  2  0  0  0  0
 13  8  1  0  0  0  0
 13  7  1  0  0  0  0
 14  9  1  0  0  0  0
 16 15  1  0  0  0  0
 18 28  1  6  0  0  0
 18 17  1  0  0  0  0
 19 21  2  0  0  0  0
 19 18  1  0  0  0  0
 20 19  1  0  0  0  0
 22 23  2  0  0  0  0
 23 20  1  0  0  0  0
 23 24  1  0  0  0  0
 24 26  2  0  0  0  0
 25 24  1  0  0  0  0
 27 28  1  0  0  0  0
M  END
>  <MODEL>
8

>  <REMARK>
 VINA RESULT:      -6.8      3.010      6.863
  Name = 
  9 active torsions:
  status: ('A' for Active; 'I' for Inactive)
    1  A    between atoms: C_1  and  C_2
    2  A    between atoms: C_1  and  C_17
    3  A    between atoms: C_1  and  C_26
    4  A    between atoms: N_3  and  C_11
    5  A    between atoms: C_6  and  C_11
    6  A    between atoms: C_16  and  C_27
    7  A    between atoms: C_17  and  C_27
    8  A    between atoms: C_20  and  C_25
    9  A    between atoms: C_20  and  C_27
                            x       y       z     vdW  Elec       q    Type
                         _______ _______ _______ _____ _____    ______ ____

>  <TORSDO>
F 9

$$$$
=
 OpenBabel10272401563D

 28 29  0  0  1  0  0  0  0  0999 V2000
  188.0070  177.8260  144.9070 C   0  0  2  0  0  3  0  0  0  0  0  0
  186.9320  178.4010  147.1350 C   0  0  0  0  0  1  0  0  0  0  0  0
  186.7590  177.7040  145.7940 C   0  0  1  0  0  3  0  0  0  0  0  0
  184.8600  178.2230  140.8290 O   0  0  0  0  0  0  0  0  0  0  0  0
  183.1170  178.7870  143.8380 C   0  0  0  0  0  0  0  0  0  0  0  0
  185.4190  178.0800  143.7110 C   0  0  0  0  0  3  0  0  0  0  0  0
  182.7230  178.8810  141.3580 N   0  0  0  0  0  0  0  0  0  0  0  0
  184.2270  178.4390  143.0800 C   0  0  0  0  0  0  0  0  0  0  0  0
  184.3240  178.4360  145.8670 C   0  0  0  0  0  3  0  0  0  0  0  0
  181.8850  179.1530  142.7710 S   0  0  0  0  0  0  0  0  0  0  0  0
  183.1280  178.7980  145.2280 C   0  0  0  0  0  3  0  0  0  0  0  0
  182.1870  179.0270  140.0170 C   0  0  0  0  0  1  0  0  0  0  0  0
  183.9850  178.5000  141.6950 C   0  0  0  0  0  0  0  0  0  0  0  0
  185.4690  178.0760  145.1170 C   0  0  0  0  0  0  0  0  0  0  0  0
  188.2500  176.6090  144.0180 C   0  0  0  0  0  2  0  0  0  0  0  0
  188.0610  176.9700  142.5570 C   0  0  0  0  0  1  0  0  0  0  0  0
  189.2400  178.0960  145.7640 C   0  0  0  0  0  2  0  0  0  0  0  0
  190.5510  177.6730  145.0940 C   0  0  1  0  0  3  0  0  0  0  0  0
  191.1930  178.7380  144.2450 C   0  0  0  0  0  0  0  0  0  0  0  0
  191.6170  178.4830  142.8970 N   0  0  0  0  0  2  0  0  0  0  0  0
  191.3310  179.8990  144.7100 O   0  0  0  0  0  0  0  0  0  0  0  0
  191.5710  176.0710  142.7880 C   0  0  0  0  0  2  0  0  0  0  0  0
  191.6010  177.2460  142.1630 C   0  0  0  0  0  0  0  0  0  0  0  0
  191.6530  177.2850  140.6840 C   0  0  0  0  0  0  0  0  0  0  0  0
  190.4680  176.9200  139.8520 C   0  0  0  0  0  1  0  0  0  0  0  0
  192.7630  177.6580  140.0600 C   0  0  0  0  0  2  0  0  0  0  0  0
  190.9190  176.5620  147.3570 C   0  0  0  0  0  1  0  0  0  0  0  0
  191.5170  176.9080  146.0030 C   0  0  0  0  0  2  0  0  0  0  0  0
  1 15  1  1  0  0  0
  1 17  1  0  0  0  0
  1  3  1  0  0  0  0
  3  2  1  1  0  0  0
  4 13  2  0  0  0  0
  5 11  1  0  0  0  0
  6 14  2  0  0  0  0
  7 13  1  0  0  0  0
  7 10  1  0  0  0  0
  8  6  1  0  0  0  0
  8  5  2  0  0  0  0
 10  5  1  0  0  0  0
 11  9  2  0  0  0  0
 12  7  1  0  0  0  0
 13  8  1  0  0  0  0
 14  3  1  0  0  0  0
 14  9  1  0  0  0  0
 16 15  1  0  0  0  0
 18 17  1  1  0  0  0
 18 28  1  0  0  0  0
 19 21  2  0  0  0  0
 19 18  1  0  0  0  0
 20 19  1  0  0  0  0
 23 22  2  0  0  0  0
 23 20  1  0  0  0  0
 24 23  1  0  0  0  0
 25 24  1  0  0  0  0
 26 24  2  0  0  0  0
 28 27  1  0  0  0  0
M  END
>  <MODEL>
9

>  <REMARK>
 VINA RESULT:      -6.8      1.534      2.136
  Name = 
  9 active torsions:
  status: ('A' for Active; 'I' for Inactive)
    1  A    between atoms: C_1  and  C_2
    2  A    between atoms: C_1  and  C_17
    3  A    between atoms: C_1  and  C_26
    4  A    between atoms: N_3  and  C_11
    5  A    between atoms: C_6  and  C_11
    6  A    between atoms: C_16  and  C_27
    7  A    between atoms: C_17  and  C_27
    8  A    between atoms: C_20  and  C_25
    9  A    between atoms: C_20  and  C_27
                            x       y       z     vdW  Elec       q    Type
                         _______ _______ _______ _____ _____    ______ ____

>  <TORSDO>
F 9

$$$$
