=
 OpenBabel10272414273D

 43 49  0  0  1  0  0  0  0  0999 V2000
  190.7360  176.7870  139.6750 C   0  0  0  0  0  2  0  0  0  0  0  0
  185.1820  178.3970  144.4390 C   0  0  0  0  0  0  0  0  0  0  0  0
  188.9580  177.3690  141.2950 C   0  0  0  0  0  0  0  0  0  0  0  0
  187.2200  177.5380  143.4510 C   0  0  0  0  0  0  0  0  0  0  0  0
  184.8890  179.0850  143.2550 C   0  0  0  0  0  3  0  0  0  0  0  0
  184.3360  178.4790  145.4940 F   0  0  0  0  0  0  0  0  0  0  0  0
  186.9190  178.2370  142.2520 C   0  0  0  0  0  0  0  0  0  0  0  0
  186.3440  177.6260  144.5360 C   0  0  0  0  0  3  0  0  0  0  0  0
  185.7550  179.0060  142.1610 C   0  0  0  0  0  3  0  0  0  0  0  0
  187.7100  178.7280  139.9010 N   0  0  0  0  0  0  0  0  0  0  0  0
  187.8160  178.1290  141.1890 C   0  0  0  0  0  0  0  0  0  0  0  0
  189.2770  176.6660  142.4560 C   0  0  0  0  0  3  0  0  0  0  0  0
  189.6380  177.4680  140.0140 C   0  0  0  0  0  0  0  0  0  0  0  0
  188.8620  178.3530  139.1900 N   0  0  0  0  0  0  0  0  0  0  0  0
  188.3910  176.7600  143.5450 C   0  0  0  0  0  3  0  0  0  0  0  0
  188.1230  177.7950  136.8750 C   0  0  1  0  0  3  0  0  0  0  0  0
  187.8230  179.1230  137.2280 O   0  0  0  0  0  0  0  0  0  0  0  0
  189.0240  178.6110  137.7570 C   0  0  1  0  0  3  0  0  0  0  0  0
  185.3210  177.3540  135.0200 O   0  0  0  0  0  1  0  0  0  0  0  0
  185.3260  176.4740  136.1070 C   0  0  2  0  0  0  0  0  0  0  0  0
  187.1600  176.8330  137.5990 C   0  0  1  0  0  3  0  0  0  0  0  0
  188.5230  174.9330  136.5490 C   0  0  0  0  0  1  0  0  0  0  0  0
  185.7200  177.2140  137.3770 C   0  0  1  0  0  3  0  0  0  0  0  0
  186.2680  175.4490  135.8700 O   0  0  0  0  0  0  0  0  0  0  0  0
  185.5040  178.5820  137.3030 F   0  0  0  0  0  0  0  0  0  0  0  0
  187.1530  175.4520  136.9620 C   0  0  2  0  0  3  0  0  0  0  0  0
  184.0250  175.9150  136.2840 O   0  0  0  0  0  0  0  0  0  0  0  0
  183.4650  175.6000  137.5290 C   0  0  0  0  0  0  0  0  0  0  0  0
  183.7980  174.5250  138.0930 O   0  0  0  0  0  0  0  0  0  0  0  0
  182.4850  176.5130  138.2010 C   0  0  2  0  0  3  0  0  0  0  0  0
  180.2520  176.8130  138.9260 C   0  0  0  0  0  2  0  0  0  0  0  0
  181.8370  177.6490  140.2950 C   0  0  0  0  0  2  0  0  0  0  0  0
  180.6370  176.9160  140.2760 O   0  0  0  0  0  0  0  0  0  0  0  0
  182.9480  176.8540  139.6160 C   0  0  0  0  0  2  0  0  0  0  0  0
  181.1550  175.9030  138.2230 N   0  0  0  0  0  2  0  0  0  0  0  0
  191.3240  176.8750  138.3790 N   0  0  0  0  0  2  0  0  0  0  0  0
  194.3470  174.6490  137.7980 C   0  0  0  0  0  2  0  0  0  0  0  0
  192.2430  174.4090  135.7400 C   0  0  0  0  0  2  0  0  0  0  0  0
  193.7160  174.2230  135.3650 C   0  0  0  0  0  2  0  0  0  0  0  0
  193.5290  175.8450  138.2640 C   0  0  0  0  0  2  0  0  0  0  0  0
  192.0690  175.7610  137.8200 C   0  0  0  0  0  3  0  0  0  0  0  0
  194.7310  174.8340  136.3370 C   0  0  0  0  0  2  0  0  0  0  0  0
  191.9380  175.7900  136.3020 C   0  0  0  0  0  2  0  0  0  0  0  0
  1 13  1  0  0  0  0
  2  8  1  0  0  0  0
  2  6  1  0  0  0  0
  3 12  1  0  0  0  0
  4 15  1  0  0  0  0
  4  8  2  0  0  0  0
  5  2  2  0  0  0  0
  7  4  1  0  0  0  0
  9  7  2  0  0  0  0
  9  5  1  0  0  0  0
 10 11  2  0  0  0  0
 11  3  1  0  0  0  0
 11  7  1  0  0  0  0
 12 15  2  0  0  0  0
 13  3  2  0  0  0  0
 14 10  1  0  0  0  0
 14 13  1  0  0  0  0
 16 17  1  1  0  0  0
 16 18  1  0  0  0  0
 17 18  1  0  0  0  0
 18 14  1  1  0  0  0
 20 19  1  6  0  0  0
 20 27  1  0  0  0  0
 20 23  1  0  0  0  0
 21 16  1  6  0  0  0
 23 25  1  6  0  0  0
 23 21  1  0  0  0  0
 24 20  1  0  0  0  0
 24 26  1  0  0  0  0
 26 22  1  6  0  0  0
 26 21  1  0  0  0  0
 27 28  1  0  0  0  0
 28 29  2  0  0  0  0
 30 28  1  1  0  0  0
 30 35  1  0  0  0  0
 30 34  1  0  0  0  0
 31 33  1  0  0  0  0
 33 32  1  0  0  0  0
 34 32  1  0  0  0  0
 35 31  1  0  0  0  0
 36  1  1  0  0  0  0
 37 40  1  0  0  0  0
 38 43  1  0  0  0  0
 39 38  1  0  0  0  0
 39 42  1  0  0  0  0
 41 40  1  0  0  0  0
 41 36  1  0  0  0  0
 42 37  1  0  0  0  0
 43 41  1  0  0  0  0
M  END
>  <MODEL>
1

>  <REMARK>
 VINA RESULT:      -9.2      0.000      0.000
  Name = 
  7 active torsions:
  status: ('A' for Active; 'I' for Inactive)
    1  A    between atoms: C_1  and  N_28
    2  A    between atoms: C_2  and  C_6
    3  A    between atoms: C_4  and  O_22
    4  A    between atoms: C_11  and  C_14
    5  A    between atoms: C_13  and  N_38
    6  A    between atoms: C_14  and  O_22
    7  A    between atoms: N_28  and  C_35
                            x       y       z     vdW  Elec       q    Type
                         _______ _______ _______ _____ _____    ______ ____

>  <TORSDO>
F 7

$$$$
=
 OpenBabel10272414273D

 43 49  0  0  1  0  0  0  0  0999 V2000
  191.1310  176.7250  139.2440 C   0  0  0  0  0  3  0  0  0  0  0  0
  185.9360  177.9670  144.4990 C   0  0  0  0  0  0  0  0  0  0  0  0
  189.4720  177.1880  141.0220 C   0  0  0  0  0  0  0  0  0  0  0  0
  187.9260  177.2400  143.3250 C   0  0  0  0  0  0  0  0  0  0  0  0
  185.4970  178.6420  143.3530 C   0  0  0  0  0  3  0  0  0  0  0  0
  185.1840  177.9920  145.6260 F   0  0  0  0  0  0  0  0  0  0  0  0
  187.4780  177.9250  142.1650 C   0  0  0  0  0  0  0  0  0  0  0  0
  187.1470  177.2680  144.4840 C   0  0  0  0  0  3  0  0  0  0  0  0
  186.2660  178.6220  142.1860 C   0  0  0  0  0  3  0  0  0  0  0  0
  188.0250  178.4760  139.7590 N   0  0  0  0  0  0  0  0  0  0  0  0
  188.2810  177.8780  141.0250 C   0  0  0  0  0  0  0  0  0  0  0  0
  189.9350  176.5000  142.1430 C   0  0  0  0  0  3  0  0  0  0  0  0
  190.0280  177.3360  139.6870 C   0  0  0  0  0  0  0  0  0  0  0  0
  189.1290  178.1750  138.9440 N   0  0  0  0  0  0  0  0  0  0  0  0
  189.1460  176.5340  143.3070 C   0  0  0  0  0  3  0  0  0  0  0  0
  188.2270  177.5820  136.6970 C   0  0  1  0  0  3  0  0  0  0  0  0
  187.8740  178.8860  137.0890 O   0  0  0  0  0  0  0  0  0  0  0  0
  189.1470  178.4510  137.5060 C   0  0  1  0  0  3  0  0  0  0  0  0
  185.6770  176.4300  134.7850 O   0  0  0  0  0  1  0  0  0  0  0  0
  185.7580  175.7000  135.9750 C   0  0  2  0  0  0  0  0  0  0  0  0
  187.3960  176.5550  137.4930 C   0  0  1  0  0  3  0  0  0  0  0  0
  189.1340  174.8200  136.7610 C   0  0  0  0  0  1  0  0  0  0  0  0
  185.9310  176.6430  137.1560 C   0  0  1  0  0  3  0  0  0  0  0  0
  186.8760  174.8400  135.9160 O   0  0  0  0  0  0  0  0  0  0  0  0
  185.4880  177.9320  136.8970 F   0  0  0  0  0  0  0  0  0  0  0  0
  187.6700  175.1290  137.0400 C   0  0  2  0  0  3  0  0  0  0  0  0
  184.5630  174.9410  136.1610 O   0  0  0  0  0  0  0  0  0  0  0  0
  184.5240  173.6590  136.7230 C   0  0  0  0  0  0  0  0  0  0  0  0
  184.6780  173.5320  137.9660 O   0  0  0  0  0  0  0  0  0  0  0  0
  184.3030  172.4390  135.8800 C   0  0  2  0  0  3  0  0  0  0  0  0
  185.2800  170.5190  134.9020 C   0  0  0  0  0  2  0  0  0  0  0  0
  183.1860  170.2460  135.6940 C   0  0  0  0  0  2  0  0  0  0  0  0
  184.4580  169.6460  135.6390 O   0  0  0  0  0  0  0  0  0  0  0  0
  183.2480  171.5330  136.5110 C   0  0  0  0  0  2  0  0  0  0  0  0
  185.5610  171.7180  135.6900 N   0  0  0  0  0  2  0  0  0  0  0  0
  191.5940  176.8560  137.9030 N   0  0  0  0  0  0  0  0  0  0  0  0
  194.3010  175.8100  135.4500 C   0  0  0  0  0  2  0  0  0  0  0  0
  194.0470  174.0510  137.8090 C   0  0  0  0  0  2  0  0  0  0  0  0
  194.4790  173.4740  136.4570 C   0  0  0  0  0  2  0  0  0  0  0  0
  193.0010  176.4150  135.9630 C   0  0  0  0  0  2  0  0  0  0  0  0
  192.7950  176.1710  137.4570 C   0  0  0  0  0  3  0  0  0  0  0  0
  194.1130  174.3160  135.2290 C   0  0  0  0  0  2  0  0  0  0  0  0
  192.6650  174.6860  137.7750 C   0  0  0  0  0  2  0  0  0  0  0  0
  1 13  1  0  0  0  0
  2  6  1  0  0  0  0
  3 11  1  0  0  0  0
  3 12  1  0  0  0  0
  4  8  2  0  0  0  0
  5  2  2  0  0  0  0
  7  9  2  0  0  0  0
  7  4  1  0  0  0  0
  8  2  1  0  0  0  0
  9  5  1  0  0  0  0
 10 11  2  0  0  0  0
 11  7  1  0  0  0  0
 12 15  2  0  0  0  0
 13  3  2  0  0  0  0
 14 13  1  0  0  0  0
 14 10  1  0  0  0  0
 15  4  1  0  0  0  0
 16 17  1  1  0  0  0
 16 18  1  0  0  0  0
 17 18  1  0  0  0  0
 18 14  1  1  0  0  0
 20 19  1  6  0  0  0
 20 27  1  0  0  0  0
 20 23  1  0  0  0  0
 21 16  1  6  0  0  0
 23 25  1  6  0  0  0
 23 21  1  0  0  0  0
 24 20  1  0  0  0  0
 24 26  1  0  0  0  0
 26 22  1  6  0  0  0
 26 21  1  0  0  0  0
 27 28  1  0  0  0  0
 28 29  2  0  0  0  0
 30 34  1  0  0  0  0
 30 28  1  1  0  0  0
 31 33  1  0  0  0  0
 31 35  1  0  0  0  0
 32 34  1  0  0  0  0
 33 32  1  0  0  0  0
 35 30  1  0  0  0  0
 36  1  2  0  0  0  0
 37 40  1  0  0  0  0
 39 38  1  0  0  0  0
 40 41  1  0  0  0  0
 41 43  1  0  0  0  0
 41 36  1  0  0  0  0
 42 37  1  0  0  0  0
 42 39  1  0  0  0  0
 43 38  1  0  0  0  0
M  END
>  <MODEL>
2

>  <REMARK>
 VINA RESULT:      -8.7      2.145      3.069
  Name = 
  7 active torsions:
  status: ('A' for Active; 'I' for Inactive)
    1  A    between atoms: C_1  and  N_28
    2  A    between atoms: C_2  and  C_6
    3  A    between atoms: C_4  and  O_22
    4  A    between atoms: C_11  and  C_14
    5  A    between atoms: C_13  and  N_38
    6  A    between atoms: C_14  and  O_22
    7  A    between atoms: N_28  and  C_35
                            x       y       z     vdW  Elec       q    Type
                         _______ _______ _______ _____ _____    ______ ____

>  <TORSDO>
F 7

$$$$
=
 OpenBabel10272414273D

 43 49  0  0  1  0  0  0  0  0999 V2000
  185.8790  178.6720  141.6360 C   0  0  0  0  0  2  0  0  0  0  0  0
  190.8540  176.7030  146.8810 C   0  0  0  0  0  0  0  0  0  0  0  0
  187.4920  177.9390  143.3630 C   0  0  0  0  0  0  0  0  0  0  0  0
  188.8000  177.1980  145.6950 C   0  0  0  0  0  0  0  0  0  0  0  0
  191.5940  176.9570  145.7200 C   0  0  0  0  0  3  0  0  0  0  0  0
  191.4890  176.3400  148.0210 F   0  0  0  0  0  0  0  0  0  0  0  0
  189.5550  177.4550  144.5200 C   0  0  0  0  0  0  0  0  0  0  0  0
  189.4600  176.8240  146.8680 C   0  0  0  0  0  3  0  0  0  0  0  0
  190.9480  177.3330  144.5390 C   0  0  0  0  0  3  0  0  0  0  0  0
  189.4120  178.1390  142.0900 N   0  0  0  0  0  0  0  0  0  0  0  0
  188.8630  177.8250  143.3660 C   0  0  0  0  0  0  0  0  0  0  0  0
  186.7250  177.7000  144.5030 C   0  0  0  0  0  3  0  0  0  0  0  0
  187.1160  178.3510  142.0210 C   0  0  0  0  0  0  0  0  0  0  0  0
  188.3250  178.4220  141.2460 N   0  0  0  0  0  0  0  0  0  0  0  0
  187.3960  177.3220  145.6800 C   0  0  0  0  0  3  0  0  0  0  0  0
  189.1910  178.0670  138.9350 C   0  0  1  0  0  3  0  0  0  0  0  0
  187.7900  178.1930  138.9700 O   0  0  0  0  0  0  0  0  0  0  0  0
  188.4930  178.9800  139.9030 C   0  0  1  0  0  3  0  0  0  0  0  0
  190.4510  176.1530  136.4380 O   0  0  0  0  0  1  0  0  0  0  0  0
  190.6340  175.5210  137.6720 C   0  0  2  0  0  0  0  0  0  0  0  0
  189.6040  176.6880  139.4880 C   0  0  1  0  0  3  0  0  0  0  0  0
  191.8120  177.7990  140.1650 C   0  0  0  0  0  1  0  0  0  0  0  0
  189.3530  175.5890  138.4900 C   0  0  1  0  0  3  0  0  0  0  0  0
  191.6600  176.1810  138.3840 O   0  0  0  0  0  0  0  0  0  0  0  0
  188.2180  175.7820  137.7140 F   0  0  0  0  0  0  0  0  0  0  0  0
  191.1140  176.5600  139.6230 C   0  0  2  0  0  3  0  0  0  0  0  0
  190.9800  174.1510  137.4690 O   0  0  0  0  0  0  0  0  0  0  0  0
  191.6830  173.6730  136.3570 C   0  0  0  0  0  0  0  0  0  0  0  0
  191.0480  173.0960  135.4350 O   0  0  0  0  0  0  0  0  0  0  0  0
  193.1690  173.8340  136.2400 C   0  0  2  0  0  3  0  0  0  0  0  0
  194.9470  175.2010  135.4860 C   0  0  0  0  0  2  0  0  0  0  0  0
  195.3030  174.1380  137.4420 C   0  0  0  0  0  2  0  0  0  0  0  0
  195.4510  175.3750  136.7890 O   0  0  0  0  0  0  0  0  0  0  0  0
  193.8230  173.8130  137.6200 C   0  0  0  0  0  2  0  0  0  0  0  0
  193.4910  175.0730  135.5320 N   0  0  0  0  0  2  0  0  0  0  0  0
  185.5790  179.1330  140.3210 N   0  0  0  0  0  2  0  0  0  0  0  0
  182.3920  179.4230  138.2730 C   0  0  0  0  0  2  0  0  0  0  0  0
  182.6870  176.8620  139.7150 C   0  0  0  0  0  2  0  0  0  0  0  0
  181.2960  177.4610  139.4790 C   0  0  0  0  0  2  0  0  0  0  0  0
  183.5860  179.8490  139.1170 C   0  0  0  0  0  2  0  0  0  0  0  0
  184.4040  178.6570  139.6120 C   0  0  0  0  0  3  0  0  0  0  0  0
  181.2630  178.9650  139.1860 C   0  0  0  0  0  2  0  0  0  0  0  0
  183.5930  177.7620  140.5410 C   0  0  0  0  0  2  0  0  0  0  0  0
  1 13  1  0  0  0  0
  2  6  1  0  0  0  0
  3 11  1  0  0  0  0
  3 12  1  0  0  0  0
  4  8  2  0  0  0  0
  5  2  2  0  0  0  0
  7  9  2  0  0  0  0
  7  4  1  0  0  0  0
  8  2  1  0  0  0  0
  9  5  1  0  0  0  0
 10 11  2  0  0  0  0
 11  7  1  0  0  0  0
 12 15  2  0  0  0  0
 13  3  2  0  0  0  0
 14 13  1  0  0  0  0
 14 10  1  0  0  0  0
 15  4  1  0  0  0  0
 16 17  1  6  0  0  0
 16 18  1  0  0  0  0
 17 18  1  0  0  0  0
 18 14  1  1  0  0  0
 20 19  1  6  0  0  0
 20 24  1  0  0  0  0
 20 23  1  0  0  0  0
 21 16  1  6  0  0  0
 21 26  1  0  0  0  0
 23 25  1  6  0  0  0
 23 21  1  0  0  0  0
 24 26  1  0  0  0  0
 26 22  1  6  0  0  0
 27 20  1  0  0  0  0
 28 27  1  0  0  0  0
 29 28  2  0  0  0  0
 30 28  1  1  0  0  0
 30 34  1  0  0  0  0
 31 35  1  0  0  0  0
 31 33  1  0  0  0  0
 32 34  1  0  0  0  0
 33 32  1  0  0  0  0
 35 30  1  0  0  0  0
 36  1  1  0  0  0  0
 37 40  1  0  0  0  0
 37 42  1  0  0  0  0
 38 43  1  0  0  0  0
 39 38  1  0  0  0  0
 40 41  1  0  0  0  0
 41 36  1  0  0  0  0
 41 43  1  0  0  0  0
 42 39  1  0  0  0  0
M  END
>  <MODEL>
3

>  <REMARK>
 VINA RESULT:      -8.6      3.031      8.043
  Name = 
  7 active torsions:
  status: ('A' for Active; 'I' for Inactive)
    1  A    between atoms: C_1  and  N_28
    2  A    between atoms: C_2  and  C_6
    3  A    between atoms: C_4  and  O_22
    4  A    between atoms: C_11  and  C_14
    5  A    between atoms: C_13  and  N_38
    6  A    between atoms: C_14  and  O_22
    7  A    between atoms: N_28  and  C_35
                            x       y       z     vdW  Elec       q    Type
                         _______ _______ _______ _____ _____    ______ ____

>  <TORSDO>
F 7

$$$$
=
 OpenBabel10272414273D

 43 49  0  0  1  0  0  0  0  0999 V2000
  185.8570  178.6940  141.7570 C   0  0  0  0  0  2  0  0  0  0  0  0
  190.8720  176.7130  146.9600 C   0  0  0  0  0  0  0  0  0  0  0  0
  187.4850  177.9560  143.4680 C   0  0  0  0  0  0  0  0  0  0  0  0
  188.8090  177.1920  145.7840 C   0  0  0  0  0  0  0  0  0  0  0  0
  191.6070  177.0060  145.8050 C   0  0  0  0  0  3  0  0  0  0  0  0
  191.5150  176.3380  148.0910 F   0  0  0  0  0  0  0  0  0  0  0  0
  189.5570  177.4880  144.6150 C   0  0  0  0  0  0  0  0  0  0  0  0
  189.4760  176.8060  146.9490 C   0  0  0  0  0  3  0  0  0  0  0  0
  190.9520  177.3940  144.6320 C   0  0  0  0  0  3  0  0  0  0  0  0
  189.4010  178.2210  142.2000 N   0  0  0  0  0  0  0  0  0  0  0  0
  188.8580  177.8690  143.4690 C   0  0  0  0  0  0  0  0  0  0  0  0
  186.7230  177.6780  144.6030 C   0  0  0  0  0  3  0  0  0  0  0  0
  187.1010  178.3890  142.1350 C   0  0  0  0  0  0  0  0  0  0  0  0
  188.3080  178.5010  141.3620 N   0  0  0  0  0  0  0  0  0  0  0  0
  187.4020  177.2890  145.7720 C   0  0  0  0  0  3  0  0  0  0  0  0
  189.0580  178.1630  139.0090 C   0  0  1  0  0  3  0  0  0  0  0  0
  187.6720  178.3860  139.1030 O   0  0  0  0  0  0  0  0  0  0  0  0
  188.4640  179.0900  140.0310 C   0  0  1  0  0  3  0  0  0  0  0  0
  190.0500  176.2410  136.4000 O   0  0  0  0  0  1  0  0  0  0  0  0
  190.2430  175.5590  137.6050 C   0  0  2  0  0  0  0  0  0  0  0  0
  189.3920  176.7410  139.5010 C   0  0  1  0  0  3  0  0  0  0  0  0
  191.7080  177.6630  140.0980 C   0  0  0  0  0  1  0  0  0  0  0  0
  189.0110  175.6950  138.4870 C   0  0  1  0  0  3  0  0  0  0  0  0
  191.3480  176.1180  138.2830 O   0  0  0  0  0  0  0  0  0  0  0  0
  187.8590  175.9950  137.7750 F   0  0  0  0  0  0  0  0  0  0  0  0
  190.8930  176.4970  139.5570 C   0  0  2  0  0  3  0  0  0  0  0  0
  190.4750  174.1740  137.3470 O   0  0  0  0  0  0  0  0  0  0  0  0
  190.2250  173.5490  136.1190 C   0  0  0  0  0  0  0  0  0  0  0  0
  191.1720  173.4130  135.3000 O   0  0  0  0  0  0  0  0  0  0  0  0
  188.8620  173.0400  135.7600 C   0  0  2  0  0  3  0  0  0  0  0  0
  186.7590  172.3100  136.5640 C   0  0  0  0  0  2  0  0  0  0  0  0
  186.7010  173.5410  134.6760 C   0  0  0  0  0  2  0  0  0  0  0  0
  186.0770  173.3620  135.9240 O   0  0  0  0  0  0  0  0  0  0  0  0
  188.1290  174.0430  134.8710 C   0  0  0  0  0  2  0  0  0  0  0  0
  188.0900  172.7590  136.9710 N   0  0  0  0  0  2  0  0  0  0  0  0
  185.5480  179.1770  140.4520 N   0  0  0  0  0  2  0  0  0  0  0  0
  182.3810  179.4970  138.3780 C   0  0  0  0  0  2  0  0  0  0  0  0
  182.6090  176.9590  139.8700 C   0  0  0  0  0  2  0  0  0  0  0  0
  181.2340  177.5840  139.6130 C   0  0  0  0  0  2  0  0  0  0  0  0
  183.5790  179.9130  139.2210 C   0  0  0  0  0  2  0  0  0  0  0  0
  184.3670  178.7130  139.7440 C   0  0  0  0  0  3  0  0  0  0  0  0
  181.2370  179.0820  139.2910 C   0  0  0  0  0  2  0  0  0  0  0  0
  183.5310  177.8540  140.6850 C   0  0  0  0  0  2  0  0  0  0  0  0
  1 13  1  0  0  0  0
  2  6  1  0  0  0  0
  3 11  1  0  0  0  0
  3 12  1  0  0  0  0
  4  8  2  0  0  0  0
  5  2  2  0  0  0  0
  7  9  2  0  0  0  0
  7  4  1  0  0  0  0
  8  2  1  0  0  0  0
  9  5  1  0  0  0  0
 10 11  2  0  0  0  0
 11  7  1  0  0  0  0
 12 15  2  0  0  0  0
 13  3  2  0  0  0  0
 14 13  1  0  0  0  0
 14 10  1  0  0  0  0
 15  4  1  0  0  0  0
 16 17  1  6  0  0  0
 16 18  1  0  0  0  0
 17 18  1  0  0  0  0
 18 14  1  1  0  0  0
 20 19  1  6  0  0  0
 20 24  1  0  0  0  0
 20 23  1  0  0  0  0
 21 16  1  6  0  0  0
 21 26  1  0  0  0  0
 23 25  1  6  0  0  0
 23 21  1  0  0  0  0
 24 26  1  0  0  0  0
 26 22  1  6  0  0  0
 27 20  1  0  0  0  0
 28 27  1  0  0  0  0
 29 28  2  0  0  0  0
 30 28  1  1  0  0  0
 30 35  1  0  0  0  0
 31 35  1  0  0  0  0
 32 34  1  0  0  0  0
 32 33  1  0  0  0  0
 33 31  1  0  0  0  0
 34 30  1  0  0  0  0
 36  1  1  0  0  0  0
 37 40  1  0  0  0  0
 37 42  1  0  0  0  0
 38 43  1  0  0  0  0
 39 38  1  0  0  0  0
 40 41  1  0  0  0  0
 41 36  1  0  0  0  0
 41 43  1  0  0  0  0
 42 39  1  0  0  0  0
M  END
>  <MODEL>
4

>  <REMARK>
 VINA RESULT:      -8.5      3.012      6.906
  Name = 
  7 active torsions:
  status: ('A' for Active; 'I' for Inactive)
    1  A    between atoms: C_1  and  N_28
    2  A    between atoms: C_2  and  C_6
    3  A    between atoms: C_4  and  O_22
    4  A    between atoms: C_11  and  C_14
    5  A    between atoms: C_13  and  N_38
    6  A    between atoms: C_14  and  O_22
    7  A    between atoms: N_28  and  C_35
                            x       y       z     vdW  Elec       q    Type
                         _______ _______ _______ _____ _____    ______ ____

>  <TORSDO>
F 7

$$$$
=
 OpenBabel10272414273D

 43 49  0  0  1  0  0  0  0  0999 V2000
  188.0470  178.2690  138.2870 C   0  0  0  0  0  2  0  0  0  0  0  0
  183.6120  178.9430  144.2880 C   0  0  0  0  0  0  0  0  0  0  0  0
  186.5420  178.4170  140.2460 C   0  0  0  0  0  0  0  0  0  0  0  0
  184.4520  178.8520  142.0180 C   0  0  0  0  0  0  0  0  0  0  0  0
  184.8770  178.5980  144.7780 C   0  0  0  0  0  3  0  0  0  0  0  0
  182.5890  179.1550  145.1510 F   0  0  0  0  0  0  0  0  0  0  0  0
  185.7340  178.5030  142.5190 C   0  0  0  0  0  0  0  0  0  0  0  0
  183.4000  179.0700  142.9120 C   0  0  0  0  0  3  0  0  0  0  0  0
  185.9390  178.3780  143.8960 C   0  0  0  0  0  3  0  0  0  0  0  0
  188.1150  177.9480  141.8750 N   0  0  0  0  0  0  0  0  0  0  0  0
  186.7610  178.2910  141.5980 C   0  0  0  0  0  0  0  0  0  0  0  0
  185.2960  178.7660  139.7240 C   0  0  0  0  0  3  0  0  0  0  0  0
  187.8140  178.1460  139.5960 C   0  0  0  0  0  0  0  0  0  0  0  0
  188.7550  177.8160  140.6310 N   0  0  0  0  0  0  0  0  0  0  0  0
  184.2420  178.9820  140.6300 C   0  0  0  0  0  3  0  0  0  0  0  0
  190.9320  177.5230  141.8100 C   0  0  1  0  0  3  0  0  0  0  0  0
  190.5980  176.4100  141.0160 O   0  0  0  0  0  0  0  0  0  0  0  0
  190.2060  177.6620  140.5020 C   0  0  1  0  0  3  0  0  0  0  0  0
  192.3580  175.6330  144.2360 O   0  0  0  0  0  1  0  0  0  0  0  0
  191.2590  176.3300  144.7470 C   0  0  2  0  0  0  0  0  0  0  0  0
  190.0520  177.5420  143.0760 C   0  0  1  0  0  3  0  0  0  0  0  0
  191.2320  179.7390  143.6680 C   0  0  0  0  0  1  0  0  0  0  0  0
  190.0780  176.2190  143.7940 C   0  0  1  0  0  3  0  0  0  0  0  0
  191.5980  177.6930  144.8890 O   0  0  0  0  0  0  0  0  0  0  0  0
  190.1590  175.1210  142.9490 F   0  0  0  0  0  0  0  0  0  0  0  0
  190.6430  178.4270  144.1640 C   0  0  2  0  0  3  0  0  0  0  0  0
  190.8830  175.7830  146.0120 O   0  0  0  0  0  0  0  0  0  0  0  0
  190.7430  176.5350  147.1840 C   0  0  0  0  0  0  0  0  0  0  0  0
  191.7770  176.9130  147.7940 O   0  0  0  0  0  0  0  0  0  0  0  0
  189.3930  176.8990  147.7260 C   0  0  2  0  0  3  0  0  0  0  0  0
  188.1470  178.4110  149.0540 C   0  0  0  0  0  2  0  0  0  0  0  0
  187.1060  177.6640  147.1990 C   0  0  0  0  0  2  0  0  0  0  0  0
  187.3570  178.8180  147.9630 O   0  0  0  0  0  0  0  0  0  0  0  0
  188.4050  177.1470  146.5880 C   0  0  0  0  0  2  0  0  0  0  0  0
  189.4930  178.0740  148.5910 N   0  0  0  0  0  2  0  0  0  0  0  0
  189.3340  178.0530  137.7140 N   0  0  0  0  0  2  0  0  0  0  0  0
  188.7200  174.5540  136.3650 C   0  0  0  0  0  2  0  0  0  0  0  0
  191.5290  175.4500  136.1980 C   0  0  0  0  0  2  0  0  0  0  0  0
  191.2010  173.9700  136.4150 C   0  0  0  0  0  2  0  0  0  0  0  0
  188.5430  175.8020  137.2200 C   0  0  0  0  0  2  0  0  0  0  0  0
  189.6170  176.8540  136.9450 C   0  0  0  0  0  3  0  0  0  0  0  0
  189.8040  173.6740  136.9710 C   0  0  0  0  0  2  0  0  0  0  0  0
  191.0080  176.3480  137.3090 C   0  0  0  0  0  2  0  0  0  0  0  0
  1 13  1  0  0  0  0
  2  5  1  0  0  0  0
  2  6  1  0  0  0  0
  3 11  1  0  0  0  0
  4  7  2  0  0  0  0
  4  8  1  0  0  0  0
  7  9  1  0  0  0  0
  8  2  2  0  0  0  0
  9  5  2  0  0  0  0
 11 10  2  0  0  0  0
 11  7  1  0  0  0  0
 12  3  1  0  0  0  0
 12 15  2  0  0  0  0
 13  3  2  0  0  0  0
 13 14  1  0  0  0  0
 14 10  1  0  0  0  0
 15  4  1  0  0  0  0
 16 17  1  6  0  0  0
 18 14  1  1  0  0  0
 18 17  1  0  0  0  0
 18 16  1  0  0  0  0
 20 19  1  6  0  0  0
 20 24  1  0  0  0  0
 20 27  1  0  0  0  0
 21 16  1  6  0  0  0
 21 23  1  0  0  0  0
 21 26  1  0  0  0  0
 23 25  1  6  0  0  0
 23 20  1  0  0  0  0
 26 22  1  6  0  0  0
 26 24  1  0  0  0  0
 27 28  1  0  0  0  0
 28 29  2  0  0  0  0
 30 28  1  6  0  0  0
 30 35  1  0  0  0  0
 32 33  1  0  0  0  0
 33 31  1  0  0  0  0
 34 32  1  0  0  0  0
 34 30  1  0  0  0  0
 35 31  1  0  0  0  0
 36  1  1  0  0  0  0
 37 42  1  0  0  0  0
 37 40  1  0  0  0  0
 38 39  1  0  0  0  0
 38 43  1  0  0  0  0
 39 42  1  0  0  0  0
 41 40  1  0  0  0  0
 41 43  1  0  0  0  0
 41 36  1  0  0  0  0
M  END
>  <MODEL>
5

>  <REMARK>
 VINA RESULT:      -8.4      4.379      7.144
  Name = 
  7 active torsions:
  status: ('A' for Active; 'I' for Inactive)
    1  A    between atoms: C_1  and  N_28
    2  A    between atoms: C_2  and  C_6
    3  A    between atoms: C_4  and  O_22
    4  A    between atoms: C_11  and  C_14
    5  A    between atoms: C_13  and  N_38
    6  A    between atoms: C_14  and  O_22
    7  A    between atoms: N_28  and  C_35
                            x       y       z     vdW  Elec       q    Type
                         _______ _______ _______ _____ _____    ______ ____

>  <TORSDO>
F 7

$$$$
=
 OpenBabel10272414273D

 43 49  0  0  1  0  0  0  0  0999 V2000
  185.9680  178.7140  141.0610 C   0  0  0  0  0  2  0  0  0  0  0  0
  190.8440  176.7950  146.4160 C   0  0  0  0  0  0  0  0  0  0  0  0
  187.5490  177.9970  142.8250 C   0  0  0  0  0  0  0  0  0  0  0  0
  188.8130  177.2770  145.1870 C   0  0  0  0  0  0  0  0  0  0  0  0
  191.6060  177.0390  145.2680 C   0  0  0  0  0  3  0  0  0  0  0  0
  191.4580  176.4420  147.5710 F   0  0  0  0  0  0  0  0  0  0  0  0
  189.5900  177.5250  144.0250 C   0  0  0  0  0  0  0  0  0  0  0  0
  189.4510  176.9140  146.3760 C   0  0  0  0  0  3  0  0  0  0  0  0
  190.9820  177.4040  144.0710 C   0  0  0  0  0  3  0  0  0  0  0  0
  189.4930  178.1880  141.5860 N   0  0  0  0  0  0  0  0  0  0  0  0
  188.9200  177.8840  142.8540 C   0  0  0  0  0  0  0  0  0  0  0  0
  186.7600  177.7670  143.9520 C   0  0  0  0  0  3  0  0  0  0  0  0
  187.1990  178.3970  141.4720 C   0  0  0  0  0  0  0  0  0  0  0  0
  188.4220  178.4630  140.7200 N   0  0  0  0  0  0  0  0  0  0  0  0
  187.4100  177.4010  145.1450 C   0  0  0  0  0  3  0  0  0  0  0  0
  189.0260  177.9940  138.3470 C   0  0  1  0  0  3  0  0  0  0  0  0
  187.6930  178.4220  138.4870 O   0  0  0  0  0  0  0  0  0  0  0  0
  188.6150  179.0090  139.3750 C   0  0  1  0  0  3  0  0  0  0  0  0
  188.8240  175.8440  135.7340 O   0  0  0  0  0  1  0  0  0  0  0  0
  189.1850  175.1590  136.8990 C   0  0  2  0  0  0  0  0  0  0  0  0
  189.1620  176.5420  138.8490 C   0  0  1  0  0  3  0  0  0  0  0  0
  191.6960  176.9140  138.7440 C   0  0  0  0  0  1  0  0  0  0  0  0
  188.3010  175.5950  138.0580 C   0  0  1  0  0  3  0  0  0  0  0  0
  190.5270  175.4600  137.2170 O   0  0  0  0  0  0  0  0  0  0  0  0
  187.0920  176.1410  137.6490 F   0  0  0  0  0  0  0  0  0  0  0  0
  190.5310  175.9590  138.5310 C   0  0  2  0  0  3  0  0  0  0  0  0
  189.0290  173.7540  136.7030 O   0  0  0  0  0  0  0  0  0  0  0  0
  188.1620  173.1810  135.7650 C   0  0  0  0  0  0  0  0  0  0  0  0
  188.6240  172.8050  134.6560 O   0  0  0  0  0  0  0  0  0  0  0  0
  186.7010  173.0050  136.0520 C   0  0  2  0  0  3  0  0  0  0  0  0
  185.0350  172.7870  137.7180 C   0  0  0  0  0  2  0  0  0  0  0  0
  184.4460  173.9990  135.9110 C   0  0  0  0  0  2  0  0  0  0  0  0
  184.3870  173.9700  137.3160 O   0  0  0  0  0  0  0  0  0  0  0  0
  185.8920  174.1530  135.4500 C   0  0  0  0  0  2  0  0  0  0  0  0
  186.4750  172.9120  137.4940 N   0  0  0  0  0  2  0  0  0  0  0  0
  185.6930  179.1640  139.7370 N   0  0  0  0  0  2  0  0  0  0  0  0
  181.8960  179.0470  139.7360 C   0  0  0  0  0  2  0  0  0  0  0  0
  183.1540  177.8090  137.3690 C   0  0  0  0  0  2  0  0  0  0  0  0
  181.8310  177.2640  137.9150 C   0  0  0  0  0  2  0  0  0  0  0  0
  183.3190  179.0760  140.2770 C   0  0  0  0  0  2  0  0  0  0  0  0
  184.3650  179.0320  139.1630 C   0  0  0  0  0  3  0  0  0  0  0  0
  181.5190  177.6180  139.3730 C   0  0  0  0  0  2  0  0  0  0  0  0
  184.2940  177.7310  138.3730 C   0  0  0  0  0  2  0  0  0  0  0  0
  1 13  1  0  0  0  0
  2  6  1  0  0  0  0
  3 11  1  0  0  0  0
  3 12  1  0  0  0  0
  4  8  2  0  0  0  0
  5  2  2  0  0  0  0
  7  9  2  0  0  0  0
  7  4  1  0  0  0  0
  8  2  1  0  0  0  0
  9  5  1  0  0  0  0
 10 11  2  0  0  0  0
 11  7  1  0  0  0  0
 12 15  2  0  0  0  0
 13  3  2  0  0  0  0
 14 13  1  0  0  0  0
 14 10  1  0  0  0  0
 15  4  1  0  0  0  0
 16 17  1  6  0  0  0
 16 18  1  0  0  0  0
 17 18  1  0  0  0  0
 18 14  1  1  0  0  0
 20 19  1  6  0  0  0
 20 24  1  0  0  0  0
 20 23  1  0  0  0  0
 21 16  1  6  0  0  0
 23 25  1  6  0  0  0
 23 21  1  0  0  0  0
 24 26  1  0  0  0  0
 26 22  1  6  0  0  0
 26 21  1  0  0  0  0
 27 20  1  0  0  0  0
 28 27  1  0  0  0  0
 29 28  2  0  0  0  0
 30 28  1  1  0  0  0
 30 35  1  0  0  0  0
 32 33  1  0  0  0  0
 33 31  1  0  0  0  0
 34 32  1  0  0  0  0
 34 30  1  0  0  0  0
 35 31  1  0  0  0  0
 36  1  1  0  0  0  0
 37 40  1  0  0  0  0
 38 39  1  0  0  0  0
 38 43  1  0  0  0  0
 39 42  1  0  0  0  0
 41 36  1  0  0  0  0
 41 40  1  0  0  0  0
 42 37  1  0  0  0  0
 43 41  1  0  0  0  0
M  END
>  <MODEL>
6

>  <REMARK>
 VINA RESULT:      -8.3      2.716      6.168
  Name = 
  7 active torsions:
  status: ('A' for Active; 'I' for Inactive)
    1  A    between atoms: C_1  and  N_28
    2  A    between atoms: C_2  and  C_6
    3  A    between atoms: C_4  and  O_22
    4  A    between atoms: C_11  and  C_14
    5  A    between atoms: C_13  and  N_38
    6  A    between atoms: C_14  and  O_22
    7  A    between atoms: N_28  and  C_35
                            x       y       z     vdW  Elec       q    Type
                         _______ _______ _______ _____ _____    ______ ____

>  <TORSDO>
F 7

$$$$
=
 OpenBabel10272414273D

 43 49  0  0  1  0  0  0  0  0999 V2000
  180.5960  178.8660  138.1240 C   0  0  0  0  0  2  0  0  0  0  0  0
  183.8790  172.2030  137.1420 C   0  0  0  0  0  0  0  0  0  0  0  0
  181.6640  176.6720  137.7130 C   0  0  0  0  0  0  0  0  0  0  0  0
  182.2570  173.9970  137.2730 C   0  0  0  0  0  0  0  0  0  0  0  0
  184.9070  173.0990  137.4560 C   0  0  0  0  0  3  0  0  0  0  0  0
  184.1650  170.8970  136.9260 F   0  0  0  0  0  0  0  0  0  0  0  0
  183.3030  174.9030  137.5920 C   0  0  0  0  0  0  0  0  0  0  0  0
  182.5570  172.6510  137.0510 C   0  0  0  0  0  3  0  0  0  0  0  0
  184.6220  174.4490  137.6820 C   0  0  0  0  0  3  0  0  0  0  0  0
  183.8450  177.3100  138.1460 N   0  0  0  0  0  0  0  0  0  0  0  0
  182.9680  176.2410  137.8060 C   0  0  0  0  0  0  0  0  0  0  0  0
  180.6150  175.8050  137.4090 C   0  0  0  0  0  3  0  0  0  0  0  0
  181.6800  178.0950  138.0080 C   0  0  0  0  0  0  0  0  0  0  0  0
  183.0510  178.4670  138.2280 N   0  0  0  0  0  0  0  0  0  0  0  0
  180.9250  174.4510  137.1850 C   0  0  0  0  0  3  0  0  0  0  0  0
  183.9070  179.7130  140.2110 C   0  0  1  0  0  3  0  0  0  0  0  0
  184.8810  179.5690  139.2060 O   0  0  0  0  0  0  0  0  0  0  0  0
  183.5600  179.7370  138.7490 C   0  0  1  0  0  3  0  0  0  0  0  0
  185.1640  179.8780  143.3540 O   0  0  0  0  0  1  0  0  0  0  0  0
  184.4610  178.6830  143.1760 C   0  0  2  0  0  0  0  0  0  0  0  0
  183.6980  178.3660  140.9310 C   0  0  1  0  0  3  0  0  0  0  0  0
  181.3470  179.2160  141.4980 C   0  0  0  0  0  1  0  0  0  0  0  0
  184.8460  178.0410  141.8510 C   0  0  1  0  0  3  0  0  0  0  0  0
  183.0760  178.9580  143.1590 O   0  0  0  0  0  0  0  0  0  0  0  0
  186.0810  178.4600  141.3790 F   0  0  0  0  0  0  0  0  0  0  0  0
  182.5730  178.4380  141.9530 C   0  0  2  0  0  3  0  0  0  0  0  0
  184.7690  177.7760  144.2340 O   0  0  0  0  0  0  0  0  0  0  0  0
  185.1450  178.1700  145.5240 C   0  0  0  0  0  0  0  0  0  0  0  0
  184.4020  178.9610  146.1620 O   0  0  0  0  0  0  0  0  0  0  0  0
  186.4080  177.6700  146.1600 C   0  0  2  0  0  3  0  0  0  0  0  0
  188.7250  177.2750  145.8880 C   0  0  0  0  0  2  0  0  0  0  0  0
  188.1010  178.0260  147.9200 C   0  0  0  0  0  2  0  0  0  0  0  0
  189.0650  178.1830  146.9070 O   0  0  0  0  0  0  0  0  0  0  0  0
  186.7340  178.4760  147.4160 C   0  0  0  0  0  2  0  0  0  0  0  0
  187.5140  177.7290  145.2040 N   0  0  0  0  0  2  0  0  0  0  0  0
  180.6680  180.2440  138.4800 N   0  0  0  0  0  2  0  0  0  0  0  0
  180.0240  181.7890  135.0690 C   0  0  0  0  0  2  0  0  0  0  0  0
  180.3490  183.7500  137.2540 C   0  0  0  0  0  2  0  0  0  0  0  0
  180.8040  184.0930  135.8320 C   0  0  0  0  0  2  0  0  0  0  0  0
  180.5100  180.7900  136.1110 C   0  0  0  0  0  2  0  0  0  0  0  0
  180.2780  181.2800  137.5400 C   0  0  0  0  0  3  0  0  0  0  0  0
  181.0540  182.8970  134.9090 C   0  0  0  0  0  2  0  0  0  0  0  0
  181.0720  182.5460  137.8390 C   0  0  0  0  0  2  0  0  0  0  0  0
  1 36  1  0  0  0  0
  2  5  1  0  0  0  0
  3 11  1  0  0  0  0
  3 13  2  0  0  0  0
  4  7  2  0  0  0  0
  5  9  2  0  0  0  0
  6  2  1  0  0  0  0
  7  9  1  0  0  0  0
  7 11  1  0  0  0  0
  8  2  2  0  0  0  0
  8  4  1  0  0  0  0
 10 14  1  0  0  0  0
 11 10  2  0  0  0  0
 12  3  1  0  0  0  0
 13  1  1  0  0  0  0
 13 14  1  0  0  0  0
 15  4  1  0  0  0  0
 15 12  2  0  0  0  0
 16 17  1  6  0  0  0
 18 14  1  1  0  0  0
 18 17  1  0  0  0  0
 18 16  1  0  0  0  0
 20 19  1  1  0  0  0
 20 27  1  0  0  0  0
 21 16  1  1  0  0  0
 21 23  1  0  0  0  0
 21 26  1  0  0  0  0
 23 25  1  6  0  0  0
 23 20  1  0  0  0  0
 24 20  1  0  0  0  0
 26 22  1  6  0  0  0
 26 24  1  0  0  0  0
 27 28  1  0  0  0  0
 28 29  2  0  0  0  0
 30 28  1  6  0  0  0
 30 34  1  0  0  0  0
 31 33  1  0  0  0  0
 33 32  1  0  0  0  0
 34 32  1  0  0  0  0
 35 31  1  0  0  0  0
 35 30  1  0  0  0  0
 37 40  1  0  0  0  0
 38 43  1  0  0  0  0
 39 38  1  0  0  0  0
 40 41  1  0  0  0  0
 41 43  1  0  0  0  0
 41 36  1  0  0  0  0
 42 37  1  0  0  0  0
 42 39  1  0  0  0  0
M  END
>  <MODEL>
7

>  <REMARK>
 VINA RESULT:      -7.9      4.980      9.732
  Name = 
  7 active torsions:
  status: ('A' for Active; 'I' for Inactive)
    1  A    between atoms: C_1  and  N_28
    2  A    between atoms: C_2  and  C_6
    3  A    between atoms: C_4  and  O_22
    4  A    between atoms: C_11  and  C_14
    5  A    between atoms: C_13  and  N_38
    6  A    between atoms: C_14  and  O_22
    7  A    between atoms: N_28  and  C_35
                            x       y       z     vdW  Elec       q    Type
                         _______ _______ _______ _____ _____    ______ ____

>  <TORSDO>
F 7

$$$$
=
 OpenBabel10272414273D

 43 49  0  0  1  0  0  0  0  0999 V2000
  183.6900  178.5580  141.3750 C   0  0  0  0  0  2  0  0  0  0  0  0
  190.4440  177.6690  144.4960 C   0  0  0  0  0  0  0  0  0  0  0  0
  185.9030  178.1790  142.4180 C   0  0  0  0  0  0  0  0  0  0  0  0
  188.0540  177.8290  144.1350 C   0  0  0  0  0  0  0  0  0  0  0  0
  190.6720  177.8620  143.1280 C   0  0  0  0  0  3  0  0  0  0  0  0
  191.4920  177.4960  145.3360 F   0  0  0  0  0  0  0  0  0  0  0  0
  188.2890  178.0260  142.7480 C   0  0  0  0  0  0  0  0  0  0  0  0
  189.1390  177.6520  144.9970 C   0  0  0  0  0  3  0  0  0  0  0  0
  189.5970  178.0420  142.2530 C   0  0  0  0  0  3  0  0  0  0  0  0
  187.1840  178.4200  140.5080 N   0  0  0  0  0  0  0  0  0  0  0  0
  187.1830  178.1980  141.9150 C   0  0  0  0  0  0  0  0  0  0  0  0
  185.6410  177.9950  143.7760 C   0  0  0  0  0  3  0  0  0  0  0  0
  185.0140  178.4020  141.2900 C   0  0  0  0  0  0  0  0  0  0  0  0
  185.8380  178.5030  140.1160 N   0  0  0  0  0  0  0  0  0  0  0  0
  186.7380  177.8160  144.6380 C   0  0  0  0  0  3  0  0  0  0  0  0
  186.2780  178.3620  137.6660 C   0  0  1  0  0  3  0  0  0  0  0  0
  185.0400  177.7970  138.0220 O   0  0  0  0  0  0  0  0  0  0  0  0
  185.4310  178.9220  138.7730 C   0  0  1  0  0  3  0  0  0  0  0  0
  187.3050  176.4940  135.0310 O   0  0  0  0  0  1  0  0  0  0  0  0
  188.1640  176.3100  136.1190 C   0  0  2  0  0  0  0  0  0  0  0  0
  187.4230  177.4250  138.1010 C   0  0  1  0  0  3  0  0  0  0  0  0
  188.9900  179.4130  137.6950 C   0  0  0  0  0  1  0  0  0  0  0  0
  187.3580  176.0980  137.3920 C   0  0  1  0  0  3  0  0  0  0  0  0
  188.9650  177.4620  136.2780 O   0  0  0  0  0  0  0  0  0  0  0  0
  186.0660  175.6510  137.1540 F   0  0  0  0  0  0  0  0  0  0  0  0
  188.7750  177.9100  137.5970 C   0  0  2  0  0  3  0  0  0  0  0  0
  188.9870  175.1650  135.8990 O   0  0  0  0  0  0  0  0  0  0  0  0
  190.0280  174.7690  136.7480 C   0  0  0  0  0  0  0  0  0  0  0  0
  189.9380  173.6650  137.3480 O   0  0  0  0  0  0  0  0  0  0  0  0
  191.2400  175.6250  136.9560 C   0  0  2  0  0  3  0  0  0  0  0  0
  192.7710  176.5230  138.5220 C   0  0  0  0  0  2  0  0  0  0  0  0
  193.6600  175.8940  136.5480 C   0  0  0  0  0  2  0  0  0  0  0  0
  193.8610  175.8490  137.9390 O   0  0  0  0  0  0  0  0  0  0  0  0
  192.4290  175.0760  136.1700 C   0  0  0  0  0  2  0  0  0  0  0  0
  191.5590  175.7160  138.3810 N   0  0  0  0  0  2  0  0  0  0  0  0
  182.8760  178.8400  140.2400 N   0  0  0  0  0  2  0  0  0  0  0  0
  181.3510  175.4230  139.5830 C   0  0  0  0  0  2  0  0  0  0  0  0
  180.1330  177.6200  138.0310 C   0  0  0  0  0  2  0  0  0  0  0  0
  180.2140  176.2090  137.4410 C   0  0  0  0  0  2  0  0  0  0  0  0
  182.3980  176.4700  139.9390 C   0  0  0  0  0  2  0  0  0  0  0  0
  181.8670  177.8960  139.7920 C   0  0  0  0  0  3  0  0  0  0  0  0
  181.2630  175.2860  138.0700 C   0  0  0  0  0  2  0  0  0  0  0  0
  181.4970  178.2150  138.3490 C   0  0  0  0  0  2  0  0  0  0  0  0
  2  8  1  0  0  0  0
  2  6  1  0  0  0  0
  3 12  1  0  0  0  0
  4 15  1  0  0  0  0
  4  8  2  0  0  0  0
  5  2  2  0  0  0  0
  7  4  1  0  0  0  0
  9  7  2  0  0  0  0
  9  5  1  0  0  0  0
 10 11  2  0  0  0  0
 11  3  1  0  0  0  0
 11  7  1  0  0  0  0
 12 15  2  0  0  0  0
 13  1  1  0  0  0  0
 13  3  2  0  0  0  0
 14 10  1  0  0  0  0
 14 13  1  0  0  0  0
 16 17  1  6  0  0  0
 16 18  1  0  0  0  0
 17 18  1  0  0  0  0
 18 14  1  1  0  0  0
 20 19  1  6  0  0  0
 20 24  1  0  0  0  0
 20 23  1  0  0  0  0
 21 16  1  6  0  0  0
 23 25  1  6  0  0  0
 23 21  1  0  0  0  0
 24 26  1  0  0  0  0
 26 22  1  6  0  0  0
 26 21  1  0  0  0  0
 27 20  1  0  0  0  0
 27 28  1  0  0  0  0
 28 29  2  0  0  0  0
 30 28  1  1  0  0  0
 30 35  1  0  0  0  0
 32 33  1  0  0  0  0
 33 31  1  0  0  0  0
 34 32  1  0  0  0  0
 34 30  1  0  0  0  0
 35 31  1  0  0  0  0
 36  1  1  0  0  0  0
 37 40  1  0  0  0  0
 38 43  1  0  0  0  0
 39 38  1  0  0  0  0
 39 42  1  0  0  0  0
 41 40  1  0  0  0  0
 41 36  1  0  0  0  0
 42 37  1  0  0  0  0
 43 41  1  0  0  0  0
M  END
>  <MODEL>
8

>  <REMARK>
 VINA RESULT:      -7.7      2.327      7.483
  Name = 
  7 active torsions:
  status: ('A' for Active; 'I' for Inactive)
    1  A    between atoms: C_1  and  N_28
    2  A    between atoms: C_2  and  C_6
    3  A    between atoms: C_4  and  O_22
    4  A    between atoms: C_11  and  C_14
    5  A    between atoms: C_13  and  N_38
    6  A    between atoms: C_14  and  O_22
    7  A    between atoms: N_28  and  C_35
                            x       y       z     vdW  Elec       q    Type
                         _______ _______ _______ _____ _____    ______ ____

>  <TORSDO>
F 7

$$$$
=
 OpenBabel10272414273D

 43 49  0  0  1  0  0  0  0  0999 V2000
  191.2490  176.5930  138.0240 C   0  0  0  0  0  2  0  0  0  0  0  0
  184.4560  179.0170  140.0540 C   0  0  0  0  0  0  0  0  0  0  0  0
  188.9770  177.3090  138.6930 C   0  0  0  0  0  0  0  0  0  0  0  0
  186.3160  178.0890  138.8100 C   0  0  0  0  0  0  0  0  0  0  0  0
  185.2720  179.1630  141.1810 C   0  0  0  0  0  3  0  0  0  0  0  0
  183.1560  179.3950  140.1080 F   0  0  0  0  0  0  0  0  0  0  0  0
  187.1420  178.2400  139.9550 C   0  0  0  0  0  0  0  0  0  0  0  0
  184.9770  178.4810  138.8710 C   0  0  0  0  0  3  0  0  0  0  0  0
  186.6150  178.7760  141.1350 C   0  0  0  0  0  3  0  0  0  0  0  0
  189.4750  177.9070  140.8710 N   0  0  0  0  0  0  0  0  0  0  0  0
  188.4740  177.8370  139.8600 C   0  0  0  0  0  0  0  0  0  0  0  0
  188.1930  177.1560  137.5490 C   0  0  0  0  0  3  0  0  0  0  0  0
  190.3790  177.0200  138.9430 C   0  0  0  0  0  0  0  0  0  0  0  0
  190.6430  177.3600  140.3140 N   0  0  0  0  0  0  0  0  0  0  0  0
  186.8450  177.5510  137.6190 C   0  0  0  0  0  3  0  0  0  0  0  0
  191.8700  177.6000  142.4710 C   0  0  1  0  0  3  0  0  0  0  0  0
  192.0910  176.3500  141.8640 O   0  0  0  0  0  0  0  0  0  0  0  0
  191.9460  177.4360  140.9800 C   0  0  1  0  0  3  0  0  0  0  0  0
  191.9110  176.3280  145.6130 O   0  0  0  0  0  1  0  0  0  0  0  0
  190.6620  176.8920  145.3350 C   0  0  2  0  0  0  0  0  0  0  0  0
  190.4510  177.6430  143.0740 C   0  0  1  0  0  3  0  0  0  0  0  0
  190.9730  180.0680  143.7190 C   0  0  0  0  0  1  0  0  0  0  0  0
  190.1840  176.4540  143.9580 C   0  0  1  0  0  3  0  0  0  0  0  0
  190.7760  178.3000  145.3460 O   0  0  0  0  0  0  0  0  0  0  0  0
  190.7820  175.2810  143.5200 F   0  0  0  0  0  0  0  0  0  0  0  0
  190.3060  178.7550  144.1020 C   0  0  2  0  0  3  0  0  0  0  0  0
  189.7100  176.4680  146.3100 O   0  0  0  0  0  0  0  0  0  0  0  0
  188.8400  177.3300  146.9880 C   0  0  0  0  0  0  0  0  0  0  0  0
  189.2860  178.0240  147.9400 O   0  0  0  0  0  0  0  0  0  0  0  0
  187.3950  177.4460  146.6060 C   0  0  2  0  0  3  0  0  0  0  0  0
  185.3270  178.5170  147.0280 C   0  0  0  0  0  2  0  0  0  0  0  0
  185.7780  178.0990  144.8580 C   0  0  0  0  0  2  0  0  0  0  0  0
  185.2810  179.0780  145.7380 O   0  0  0  0  0  0  0  0  0  0  0  0
  187.2560  177.8450  145.1380 C   0  0  0  0  0  2  0  0  0  0  0  0
  186.7160  178.4100  147.4720 N   0  0  0  0  0  2  0  0  0  0  0  0
  192.6300  176.3870  138.3110 N   0  0  0  0  0  2  0  0  0  0  0  0
  195.4430  173.9350  137.5970 C   0  0  0  0  0  2  0  0  0  0  0  0
  194.2580  175.1660  135.1880 C   0  0  0  0  0  2  0  0  0  0  0  0
  195.7420  174.7870  135.2130 C   0  0  0  0  0  2  0  0  0  0  0  0
  194.6170  174.9780  138.3390 C   0  0  0  0  0  2  0  0  0  0  0  0
  193.4310  175.4750  137.5130 C   0  0  0  0  0  3  0  0  0  0  0  0
  196.3640  174.6300  136.6040 C   0  0  0  0  0  2  0  0  0  0  0  0
  193.8850  176.1920  136.2480 C   0  0  0  0  0  2  0  0  0  0  0  0
  1 36  1  0  0  0  0
  1 13  1  0  0  0  0
  2  6  1  0  0  0  0
  2  5  1  0  0  0  0
  3 13  2  0  0  0  0
  3 11  1  0  0  0  0
  4  8  1  0  0  0  0
  4  7  2  0  0  0  0
  7  9  1  0  0  0  0
  8  2  2  0  0  0  0
  9  5  2  0  0  0  0
 11  7  1  0  0  0  0
 11 10  2  0  0  0  0
 12 15  2  0  0  0  0
 12  3  1  0  0  0  0
 13 14  1  0  0  0  0
 14 10  1  0  0  0  0
 15  4  1  0  0  0  0
 16 17  1  1  0  0  0
 18 14  1  6  0  0  0
 18 17  1  0  0  0  0
 18 16  1  0  0  0  0
 20 24  1  0  0  0  0
 20 19  1  1  0  0  0
 20 27  1  0  0  0  0
 21 16  1  1  0  0  0
 21 23  1  0  0  0  0
 21 26  1  0  0  0  0
 23 25  1  6  0  0  0
 23 20  1  0  0  0  0
 26 22  1  6  0  0  0
 26 24  1  0  0  0  0
 27 28  1  0  0  0  0
 28 29  2  0  0  0  0
 30 28  1  1  0  0  0
 30 35  1  0  0  0  0
 31 35  1  0  0  0  0
 32 34  1  0  0  0  0
 32 33  1  0  0  0  0
 33 31  1  0  0  0  0
 34 30  1  0  0  0  0
 37 40  1  0  0  0  0
 38 39  1  0  0  0  0
 38 43  1  0  0  0  0
 39 42  1  0  0  0  0
 41 36  1  0  0  0  0
 41 40  1  0  0  0  0
 42 37  1  0  0  0  0
 43 41  1  0  0  0  0
M  END
>  <MODEL>
9

>  <REMARK>
 VINA RESULT:      -7.7      4.137      6.684
  Name = 
  7 active torsions:
  status: ('A' for Active; 'I' for Inactive)
    1  A    between atoms: C_1  and  N_28
    2  A    between atoms: C_2  and  C_6
    3  A    between atoms: C_4  and  O_22
    4  A    between atoms: C_11  and  C_14
    5  A    between atoms: C_13  and  N_38
    6  A    between atoms: C_14  and  O_22
    7  A    between atoms: N_28  and  C_35
                            x       y       z     vdW  Elec       q    Type
                         _______ _______ _______ _____ _____    ______ ____

>  <TORSDO>
F 7

$$$$
