=
 OpenBabel10272400503D

 25 30  0  0  1  0  0  0  0  0999 V2000
  189.0910  177.6800  142.9810 N   0  0  0  0  0  0  0  0  0  0  0  0
  189.6330  177.6050  141.6510 C   0  0  0  0  0  0  0  0  0  0  0  0
  191.2550  177.3560  143.9760 C   0  0  0  0  0  3  0  0  0  0  0  0
  187.7460  177.8720  143.4050 C   0  0  0  0  0  0  0  0  0  0  0  0
  188.7260  176.5040  138.4230 C   0  0  0  0  0  2  0  0  0  0  0  0
  188.2100  177.0210  137.1620 N   0  0  2  0  0  0  0  0  0  0  0  0
  185.2230  178.2270  144.5280 C   0  0  0  0  0  3  0  0  0  0  0  0
  191.8460  177.2780  142.6200 C   0  0  0  0  0  3  0  0  0  0  0  0
  187.5950  177.8840  144.7840 C   0  0  0  0  0  0  0  0  0  0  0  0
  186.3370  178.0610  145.3630 C   0  0  0  0  0  3  0  0  0  0  0  0
  191.6870  177.3220  140.1720 C   0  0  0  0  0  0  0  0  0  0  0  0
  193.0550  177.1360  140.0140 O   0  0  0  0  0  1  0  0  0  0  0  0
  189.0470  178.8880  138.3990 C   0  0  0  0  0  2  0  0  0  0  0  0
  188.8670  177.7200  140.5630 C   0  0  0  0  0  3  0  0  0  0  0  0
  185.3750  178.2160  143.1320 C   0  0  0  0  0  3  0  0  0  0  0  0
  189.9410  177.5490  144.1190 C   0  0  0  0  0  0  0  0  0  0  0  0
  189.1180  177.6580  145.7120 S   0  0  0  0  0  0  0  0  0  0  0  0
  189.4160  177.6370  139.1580 C   0  0  1  0  0  0  0  0  0  0  0  0
  186.6430  178.0360  142.5620 C   0  0  0  0  0  3  0  0  0  0  0  0
  190.9130  177.4370  139.0910 C   0  0  0  0  0  3  0  0  0  0  0  0
  191.0910  177.3940  141.5160 C   0  0  0  0  0  0  0  0  0  0  0  0
  188.0190  178.4470  137.3840 C   0  0  0  0  0  2  0  0  0  0  0  0
  186.8940  176.4330  136.9560 C   0  0  0  0  0  3  0  0  0  0  0  0
  186.9840  174.9230  137.0900 C   0  0  0  0  0  2  0  0  0  0  0  0
  186.9160  175.5550  135.7180 C   0  0  0  0  0  2  0  0  0  0  0  0
  1  4  1  0  0  0  0
  1 16  1  0  0  0  0
  2  1  1  0  0  0  0
  3 16  2  0  0  0  0
  4  9  1  0  0  0  0
  5 18  1  0  0  0  0
  6 23  1  1  0  0  0
  6 22  1  0  0  0  0
  6  5  1  0  0  0  0
  7 10  1  0  0  0  0
  8  3  1  0  0  0  0
  9 10  2  0  0  0  0
  9 17  1  0  0  0  0
 11 21  1  0  0  0  0
 12 11  1  0  0  0  0
 14  2  2  0  0  0  0
 15  7  2  0  0  0  0
 16 17  1  0  0  0  0
 18 13  1  6  0  0  0
 18 14  1  0  0  0  0
 19 15  1  0  0  0  0
 19  4  2  0  0  0  0
 20 18  1  0  0  0  0
 20 11  2  0  0  0  0
 21  2  1  0  0  0  0
 21  8  2  0  0  0  0
 22 13  1  0  0  0  0
 23 24  1  0  0  0  0
 25 23  1  0  0  0  0
 25 24  1  0  0  0  0
M  END
>  <MODEL>
1

>  <REMARK>
 VINA RESULT:      -8.7      0.000      0.000
  Name = 
  1 active torsions:
  status: ('A' for Active; 'I' for Inactive)
    1  A    between atoms: C_2  and  N_7
                            x       y       z     vdW  Elec       q    Type
                         _______ _______ _______ _____ _____    ______ ____

>  <TORSDO>
F 1

$$$$
=
 OpenBabel10272400503D

 25 30  0  0  1  0  0  0  0  0999 V2000
  187.5970  177.9210  143.2310 N   0  0  0  0  0  0  0  0  0  0  0  0
  188.5420  177.7630  142.1580 C   0  0  0  0  0  0  0  0  0  0  0  0
  189.2830  177.5180  144.8950 C   0  0  0  0  0  3  0  0  0  0  0  0
  186.2020  178.2030  143.1780 C   0  0  0  0  0  0  0  0  0  0  0  0
  188.6850  176.5850  138.8350 C   0  0  0  0  0  2  0  0  0  0  0  0
  188.6510  177.0780  137.4640 N   0  0  2  0  0  0  0  0  0  0  0  0
  183.4790  178.7410  143.3910 C   0  0  0  0  0  3  0  0  0  0  0  0
  190.2830  177.3540  143.8150 C   0  0  0  0  0  3  0  0  0  0  0  0
  185.6040  178.2780  144.4280 C   0  0  0  0  0  0  0  0  0  0  0  0
  184.2400  178.5480  144.5520 C   0  0  0  0  0  3  0  0  0  0  0  0
  190.9470  177.3080  141.4530 C   0  0  0  0  0  0  0  0  0  0  0  0
  192.2750  177.0410  141.7640 O   0  0  0  0  0  1  0  0  0  0  0  0
  189.1510  178.9440  138.8730 C   0  0  0  0  0  2  0  0  0  0  0  0
  188.1890  177.8760  140.8750 C   0  0  0  0  0  3  0  0  0  0  0  0
  184.0830  178.6650  142.1250 C   0  0  0  0  0  3  0  0  0  0  0  0
  188.0110  177.7880  144.5890 C   0  0  0  0  0  0  0  0  0  0  0  0
  186.7170  178.0060  145.8140 S   0  0  0  0  0  0  0  0  0  0  0  0
  189.1660  177.7070  139.7350 C   0  0  1  0  0  0  0  0  0  0  0  0
  185.4540  178.3940  142.0130 C   0  0  0  0  0  3  0  0  0  0  0  0
  190.5830  177.4230  140.1740 C   0  0  0  0  0  3  0  0  0  0  0  0
  189.9450  177.4670  142.5200 C   0  0  0  0  0  0  0  0  0  0  0  0
  188.4900  178.5210  137.5820 C   0  0  0  0  0  2  0  0  0  0  0  0
  187.4420  176.5560  136.8440 C   0  0  0  0  0  3  0  0  0  0  0  0
  187.4310  175.0410  136.9440 C   0  0  0  0  0  2  0  0  0  0  0  0
  187.8120  175.7060  135.6400 C   0  0  0  0  0  2  0  0  0  0  0  0
  1 16  1  0  0  0  0
  2 21  1  0  0  0  0
  2  1  1  0  0  0  0
  4  1  1  0  0  0  0
  4  9  1  0  0  0  0
  6 23  1  6  0  0  0
  6 22  1  0  0  0  0
  6  5  1  0  0  0  0
  7 10  1  0  0  0  0
  8  3  1  0  0  0  0
  9 10  2  0  0  0  0
  9 17  1  0  0  0  0
 11 12  1  0  0  0  0
 11 21  1  0  0  0  0
 13 18  1  0  0  0  0
 14  2  2  0  0  0  0
 15  7  2  0  0  0  0
 16  3  2  0  0  0  0
 16 17  1  0  0  0  0
 18  5  1  6  0  0  0
 18 20  1  0  0  0  0
 18 14  1  0  0  0  0
 19 15  1  0  0  0  0
 19  4  2  0  0  0  0
 20 11  2  0  0  0  0
 21  8  2  0  0  0  0
 22 13  1  0  0  0  0
 23 24  1  0  0  0  0
 25 23  1  0  0  0  0
 25 24  1  0  0  0  0
M  END
>  <MODEL>
2

>  <REMARK>
 VINA RESULT:      -8.5      1.101      1.505
  Name = 
  1 active torsions:
  status: ('A' for Active; 'I' for Inactive)
    1  A    between atoms: C_2  and  N_7
                            x       y       z     vdW  Elec       q    Type
                         _______ _______ _______ _____ _____    ______ ____

>  <TORSDO>
F 1

$$$$
=
 OpenBabel10272400503D

 25 30  0  0  1  0  0  0  0  0999 V2000
  185.6790  178.4770  144.3380 N   0  0  0  0  0  0  0  0  0  0  0  0
  186.8570  178.2250  145.1230 C   0  0  0  0  0  0  0  0  0  0  0  0
  184.2910  178.5910  146.2970 C   0  0  0  0  0  3  0  0  0  0  0  0
  185.5340  178.5860  142.9270 C   0  0  0  0  0  0  0  0  0  0  0  0
  189.9060  176.4590  144.9270 C   0  0  0  0  0  2  0  0  0  0  0  0
  191.3130  176.6750  144.6150 N   0  0  2  0  0  0  0  0  0  0  0  0
  184.9420  178.8460  140.2180 C   0  0  0  0  0  3  0  0  0  0  0  0
  185.4850  178.3370  147.1360 C   0  0  0  0  0  3  0  0  0  0  0  0
  184.2290  178.8310  142.5200 C   0  0  0  0  0  0  0  0  0  0  0  0
  183.9170  178.9640  141.1660 C   0  0  0  0  0  3  0  0  0  0  0  0
  187.8850  177.9170  147.4340 C   0  0  0  0  0  0  0  0  0  0  0  0
  187.7700  177.8640  148.8180 O   0  0  0  0  0  1  0  0  0  0  0  0
  190.3510  178.8200  145.0530 C   0  0  0  0  0  2  0  0  0  0  0  0
  188.0590  178.0520  144.5670 C   0  0  0  0  0  3  0  0  0  0  0  0
  186.2630  178.5990  140.6290 C   0  0  0  0  0  3  0  0  0  0  0  0
  184.4120  178.6530  144.9690 C   0  0  0  0  0  0  0  0  0  0  0  0
  183.0340  178.9540  143.8570 S   0  0  0  0  0  0  0  0  0  0  0  0
  189.3070  177.7780  145.3740 C   0  0  1  0  0  0  0  0  0  0  0  0
  186.5650  178.4670  141.9910 C   0  0  0  0  0  3  0  0  0  0  0  0
  189.0810  177.7440  146.8680 C   0  0  0  0  0  3  0  0  0  0  0  0
  186.7010  178.1630  146.5930 C   0  0  0  0  0  0  0  0  0  0  0  0
  191.4160  178.0870  144.2720 C   0  0  0  0  0  2  0  0  0  0  0  0
  191.6150  175.9120  143.4130 C   0  0  0  0  0  3  0  0  0  0  0  0
  191.7240  176.8530  142.2260 C   0  0  0  0  0  2  0  0  0  0  0  0
  190.4660  176.0370  142.4280 C   0  0  0  0  0  2  0  0  0  0  0  0
  1 16  1  0  0  0  0
  1  2  1  0  0  0  0
  2 21  1  0  0  0  0
  3  8  1  0  0  0  0
  4  1  1  0  0  0  0
  5 18  1  0  0  0  0
  6 23  1  6  0  0  0
  6  5  1  0  0  0  0
  7 15  2  0  0  0  0
  7 10  1  0  0  0  0
  9  4  1  0  0  0  0
  9 17  1  0  0  0  0
 10  9  2  0  0  0  0
 11 12  1  0  0  0  0
 13 18  1  0  0  0  0
 14  2  2  0  0  0  0
 15 19  1  0  0  0  0
 16  3  2  0  0  0  0
 17 16  1  0  0  0  0
 18 14  1  6  0  0  0
 18 20  1  0  0  0  0
 19  4  2  0  0  0  0
 20 11  2  0  0  0  0
 21  8  2  0  0  0  0
 21 11  1  0  0  0  0
 22  6  1  0  0  0  0
 22 13  1  0  0  0  0
 24 25  1  0  0  0  0
 24 23  1  0  0  0  0
 25 23  1  0  0  0  0
M  END
>  <MODEL>
3

>  <REMARK>
 VINA RESULT:      -8.0      3.924      6.411
  Name = 
  1 active torsions:
  status: ('A' for Active; 'I' for Inactive)
    1  A    between atoms: C_2  and  N_7
                            x       y       z     vdW  Elec       q    Type
                         _______ _______ _______ _____ _____    ______ ____

>  <TORSDO>
F 1

$$$$
=
 OpenBabel10272400503D

 25 30  0  0  1  0  0  0  0  0999 V2000
  187.3390  177.9360  145.5960 N   0  0  0  0  0  0  0  0  0  0  0  0
  188.6770  177.6320  145.1630 C   0  0  0  0  0  0  0  0  0  0  0  0
  187.8830  177.4780  147.8910 C   0  0  0  0  0  3  0  0  0  0  0  0
  186.2070  178.3410  144.8330 C   0  0  0  0  0  0  0  0  0  0  0  0
  190.3710  176.2570  142.3890 C   0  0  0  0  0  2  0  0  0  0  0  0
  191.0950  176.6720  141.1940 N   0  0  2  0  0  0  0  0  0  0  0  0
  183.8340  179.1360  143.6130 C   0  0  0  0  0  3  0  0  0  0  0  0
  189.2700  177.1610  147.4800 C   0  0  0  0  0  3  0  0  0  0  0  0
  185.0670  178.5410  145.5970 C   0  0  0  0  0  0  0  0  0  0  0  0
  183.8690  178.9410  145.0010 C   0  0  0  0  0  3  0  0  0  0  0  0
  191.0390  176.9200  145.7960 C   0  0  0  0  0  0  0  0  0  0  0  0
  191.9840  176.5510  146.7460 O   0  0  0  0  0  1  0  0  0  0  0  0
  191.0020  178.5630  142.6560 C   0  0  0  0  0  2  0  0  0  0  0  0
  189.0440  177.7030  143.8800 C   0  0  0  0  0  3  0  0  0  0  0  0
  184.9890  178.9330  142.8390 C   0  0  0  0  0  3  0  0  0  0  0  0
  186.9840  177.8440  146.9740 C   0  0  0  0  0  0  0  0  0  0  0  0
  185.2770  178.2490  147.3580 S   0  0  0  0  0  0  0  0  0  0  0  0
  190.4410  177.3800  143.4050 C   0  0  1  0  0  0  0  0  0  0  0  0
  186.1850  178.5320  143.4480 C   0  0  0  0  0  3  0  0  0  0  0  0
  191.3950  176.9940  144.5120 C   0  0  0  0  0  3  0  0  0  0  0  0
  189.6560  177.2300  146.1960 C   0  0  0  0  0  0  0  0  0  0  0  0
  191.0530  178.1280  141.2100 C   0  0  0  0  0  2  0  0  0  0  0  0
  190.3250  176.2280  140.0420 C   0  0  0  0  0  3  0  0  0  0  0  0
  191.2180  176.1930  138.8140 C   0  0  0  0  0  2  0  0  0  0  0  0
  190.2550  177.3430  139.0130 C   0  0  0  0  0  2  0  0  0  0  0  0
  1 16  1  0  0  0  0
  2  1  1  0  0  0  0
  2 21  1  0  0  0  0
  4  1  1  0  0  0  0
  4  9  1  0  0  0  0
  6 23  1  6  0  0  0
  6 22  1  0  0  0  0
  6  5  1  0  0  0  0
  7 10  1  0  0  0  0
  8  3  1  0  0  0  0
  9 17  1  0  0  0  0
 10  9  2  0  0  0  0
 11 21  1  0  0  0  0
 11 12  1  0  0  0  0
 13 18  1  0  0  0  0
 14  2  2  0  0  0  0
 15 19  1  0  0  0  0
 15  7  2  0  0  0  0
 16 17  1  0  0  0  0
 16  3  2  0  0  0  0
 18  5  1  6  0  0  0
 18 14  1  0  0  0  0
 18 20  1  0  0  0  0
 19  4  2  0  0  0  0
 20 11  2  0  0  0  0
 21  8  2  0  0  0  0
 22 13  1  0  0  0  0
 24 25  1  0  0  0  0
 24 23  1  0  0  0  0
 25 23  1  0  0  0  0
M  END
>  <MODEL>
4

>  <REMARK>
 VINA RESULT:      -7.7      2.808      4.294
  Name = 
  1 active torsions:
  status: ('A' for Active; 'I' for Inactive)
    1  A    between atoms: C_2  and  N_7
                            x       y       z     vdW  Elec       q    Type
                         _______ _______ _______ _____ _____    ______ ____

>  <TORSDO>
F 1

$$$$
=
 OpenBabel10272400503D

 25 30  0  0  1  0  0  0  0  0999 V2000
  186.7720  178.1640  142.5530 N   0  0  0  0  0  0  0  0  0  0  0  0
  186.3510  178.2700  141.1820 C   0  0  0  0  0  0  0  0  0  0  0  0
  189.0470  177.7240  141.9120 C   0  0  0  0  0  3  0  0  0  0  0  0
  186.0120  178.2880  143.7490 C   0  0  0  0  0  0  0  0  0  0  0  0
  183.5350  177.6030  139.1620 C   0  0  0  0  0  2  0  0  0  0  0  0
  182.3840  178.2800  138.5770 N   0  0  2  0  0  0  0  0  0  0  0  0
  184.7920  178.4740  146.2460 C   0  0  0  0  0  3  0  0  0  0  0  0
  188.6470  177.8310  140.4900 C   0  0  0  0  0  3  0  0  0  0  0  0
  186.7620  178.1150  144.9040 C   0  0  0  0  0  0  0  0  0  0  0  0
  186.1650  178.2060  146.1630 C   0  0  0  0  0  3  0  0  0  0  0  0
  186.9900  178.2000  138.7170 C   0  0  0  0  0  0  0  0  0  0  0  0
  187.9360  178.0460  137.7110 O   0  0  0  0  0  1  0  0  0  0  0  0
  183.9570  179.9710  139.1960 C   0  0  0  0  0  2  0  0  0  0  0  0
  185.0840  178.5250  140.8440 C   0  0  0  0  0  3  0  0  0  0  0  0
  184.0320  178.6500  145.0770 C   0  0  0  0  0  3  0  0  0  0  0  0
  188.1340  177.8870  142.8730 C   0  0  0  0  0  0  0  0  0  0  0  0
  188.5060  177.7780  144.6270 S   0  0  0  0  0  0  0  0  0  0  0  0
  184.6200  178.6330  139.4100 C   0  0  1  0  0  0  0  0  0  0  0  0
  184.6410  178.5570  143.8190 C   0  0  0  0  0  3  0  0  0  0  0  0
  185.7210  178.4540  138.3910 C   0  0  0  0  0  3  0  0  0  0  0  0
  187.3780  178.0890  140.1330 C   0  0  0  0  0  0  0  0  0  0  0  0
  182.4890  179.6630  139.0210 C   0  0  0  0  0  2  0  0  0  0  0  0
  181.1900  177.7160  139.1890 C   0  0  0  0  0  3  0  0  0  0  0  0
  181.3610  176.2170  139.3540 C   0  0  0  0  0  2  0  0  0  0  0  0
  180.5220  176.7590  138.2170 C   0  0  0  0  0  2  0  0  0  0  0  0
  1 16  1  0  0  0  0
  1  4  1  0  0  0  0
  2  1  1  0  0  0  0
  3 16  2  0  0  0  0
  4 19  2  0  0  0  0
  4  9  1  0  0  0  0
  5 18  1  0  0  0  0
  6 22  1  0  0  0  0
  6  5  1  0  0  0  0
  6 23  1  1  0  0  0
  8  3  1  0  0  0  0
  9 10  2  0  0  0  0
 10  7  1  0  0  0  0
 11 21  1  0  0  0  0
 12 11  1  0  0  0  0
 13 18  1  0  0  0  0
 14  2  2  0  0  0  0
 15  7  2  0  0  0  0
 16 17  1  0  0  0  0
 17  9  1  0  0  0  0
 18 20  1  6  0  0  0
 18 14  1  0  0  0  0
 19 15  1  0  0  0  0
 20 11  2  0  0  0  0
 21  8  2  0  0  0  0
 21  2  1  0  0  0  0
 22 13  1  0  0  0  0
 23 24  1  0  0  0  0
 25 23  1  0  0  0  0
 25 24  1  0  0  0  0
M  END
>  <MODEL>
5

>  <REMARK>
 VINA RESULT:      -7.5      3.435      4.306
  Name = 
  1 active torsions:
  status: ('A' for Active; 'I' for Inactive)
    1  A    between atoms: C_2  and  N_7
                            x       y       z     vdW  Elec       q    Type
                         _______ _______ _______ _____ _____    ______ ____

>  <TORSDO>
F 1

$$$$
=
 OpenBabel10272400503D

 25 30  0  0  1  0  0  0  0  0999 V2000
  186.2880  178.3480  141.7390 N   0  0  0  0  0  0  0  0  0  0  0  0
  186.9500  178.1880  143.0050 C   0  0  0  0  0  0  0  0  0  0  0  0
  184.1440  178.6130  142.7920 C   0  0  0  0  0  3  0  0  0  0  0  0
  186.8280  178.3280  140.4220 C   0  0  0  0  0  0  0  0  0  0  0  0
  189.6820  176.4640  144.4260 C   0  0  0  0  0  2  0  0  0  0  0  0
  191.0750  176.6750  144.7980 N   0  0  2  0  0  0  0  0  0  0  0  0
  187.5910  178.3340  137.7440 C   0  0  0  0  0  3  0  0  0  0  0  0
  184.7940  178.4560  144.1140 C   0  0  0  0  0  3  0  0  0  0  0  0
  185.8770  178.5120  139.4290 C   0  0  0  0  0  0  0  0  0  0  0  0
  186.2430  178.5180  138.0820 C   0  0  0  0  0  3  0  0  0  0  0  0
  186.7580  178.1050  145.5440 C   0  0  0  0  0  0  0  0  0  0  0  0
  186.0030  178.1750  146.7090 O   0  0  0  0  0  1  0  0  0  0  0  0
  190.0780  178.8330  144.5410 C   0  0  0  0  0  2  0  0  0  0  0  0
  188.2670  177.9860  143.1000 C   0  0  0  0  0  3  0  0  0  0  0  0
  188.5550  178.1470  138.7490 C   0  0  0  0  0  3  0  0  0  0  0  0
  184.8780  178.5580  141.6780 C   0  0  0  0  0  0  0  0  0  0  0  0
  184.1960  178.7350  140.0260 S   0  0  0  0  0  0  0  0  0  0  0  0
  188.9790  177.8070  144.4210 C   0  0  1  0  0  0  0  0  0  0  0  0
  188.1760  178.1420  140.0980 C   0  0  0  0  0  3  0  0  0  0  0  0
  188.0740  177.9030  145.6270 C   0  0  0  0  0  3  0  0  0  0  0  0
  186.1180  178.2540  144.2260 C   0  0  0  0  0  0  0  0  0  0  0  0
  191.3650  178.0520  144.4220 C   0  0  0  0  0  2  0  0  0  0  0  0
  191.8870  175.8130  143.9520 C   0  0  0  0  0  3  0  0  0  0  0  0
  191.1220  174.5390  143.6390 C   0  0  0  0  0  2  0  0  0  0  0  0
  192.2070  174.5260  144.6930 C   0  0  0  0  0  2  0  0  0  0  0  0
  1  2  1  0  0  0  0
  2 14  2  0  0  0  0
  2 21  1  0  0  0  0
  3  8  1  0  0  0  0
  4  1  1  0  0  0  0
  5  6  1  0  0  0  0
  6 23  1  6  0  0  0
  7 10  2  0  0  0  0
  7 15  1  0  0  0  0
  8 21  2  0  0  0  0
  9 17  1  0  0  0  0
  9  4  2  0  0  0  0
 10  9  1  0  0  0  0
 11 20  2  0  0  0  0
 11 12  1  0  0  0  0
 15 19  2  0  0  0  0
 16  1  1  0  0  0  0
 16  3  2  0  0  0  0
 17 16  1  0  0  0  0
 18 14  1  6  0  0  0
 18  5  1  0  0  0  0
 18 13  1  0  0  0  0
 18 20  1  0  0  0  0
 19  4  1  0  0  0  0
 21 11  1  0  0  0  0
 22 13  1  0  0  0  0
 22  6  1  0  0  0  0
 23 25  1  0  0  0  0
 24 23  1  0  0  0  0
 24 25  1  0  0  0  0
M  END
>  <MODEL>
6

>  <REMARK>
 VINA RESULT:      -7.3      3.253      6.682
  Name = 
  1 active torsions:
  status: ('A' for Active; 'I' for Inactive)
    1  A    between atoms: C_2  and  N_7
                            x       y       z     vdW  Elec       q    Type
                         _______ _______ _______ _____ _____    ______ ____

>  <TORSDO>
F 1

$$$$
=
 OpenBabel10272400503D

 25 30  0  0  1  0  0  0  0  0999 V2000
  187.8930  177.8910  141.3890 N   0  0  0  0  0  0  0  0  0  0  0  0
  187.0660  178.0690  140.2260 C   0  0  0  0  0  0  0  0  0  0  0  0
  189.8780  177.6610  140.0540 C   0  0  0  0  0  3  0  0  0  0  0  0
  187.5310  177.8730  142.7660 C   0  0  0  0  0  0  0  0  0  0  0  0
  183.7990  177.3570  139.0980 C   0  0  0  0  0  2  0  0  0  0  0  0
  182.4960  177.9940  138.9530 N   0  0  2  0  0  0  0  0  0  0  0  0
  187.1290  177.7870  145.5200 C   0  0  0  0  0  3  0  0  0  0  0  0
  189.0570  177.8450  138.8350 C   0  0  0  0  0  3  0  0  0  0  0  0
  188.6060  177.6680  143.6190 C   0  0  0  0  0  0  0  0  0  0  0  0
  188.4220  177.6220  145.0020 C   0  0  0  0  0  3  0  0  0  0  0  0
  186.9210  178.2270  137.6880 C   0  0  0  0  0  0  0  0  0  0  0  0
  187.5180  178.2140  136.4330 O   0  0  0  0  0  1  0  0  0  0  0  0
  184.1070  179.7400  139.2210 C   0  0  0  0  0  2  0  0  0  0  0  0
  185.7470  178.2580  140.3110 C   0  0  0  0  0  3  0  0  0  0  0  0
  186.0410  177.9950  144.6570 C   0  0  0  0  0  3  0  0  0  0  0  0
  189.2980  177.6880  141.2570 C   0  0  0  0  0  0  0  0  0  0  0  0
  190.1940  177.4750  142.7990 S   0  0  0  0  0  0  0  0  0  0  0  0
  184.8610  178.4390  139.1010 C   0  0  1  0  0  0  0  0  0  0  0  0
  186.2380  178.0380  143.2700 C   0  0  0  0  0  3  0  0  0  0  0  0
  185.6030  178.4140  137.7840 C   0  0  0  0  0  3  0  0  0  0  0  0
  187.7290  178.0380  138.9040 C   0  0  0  0  0  0  0  0  0  0  0  0
  182.6700  179.3440  139.4700 C   0  0  0  0  0  2  0  0  0  0  0  0
  181.5730  177.3040  139.8420 C   0  0  0  0  0  3  0  0  0  0  0  0
  181.6500  175.8070  139.5960 C   0  0  0  0  0  2  0  0  0  0  0  0
  180.5010  176.6060  139.0230 C   0  0  0  0  0  2  0  0  0  0  0  0
  1  4  1  0  0  0  0
  2 14  2  0  0  0  0
  2  1  1  0  0  0  0
  3 16  2  0  0  0  0
  4 19  2  0  0  0  0
  4  9  1  0  0  0  0
  5 18  1  0  0  0  0
  6  5  1  0  0  0  0
  6 22  1  0  0  0  0
  6 23  1  1  0  0  0
  8 21  2  0  0  0  0
  8  3  1  0  0  0  0
  9 10  2  0  0  0  0
 10  7  1  0  0  0  0
 11 20  2  0  0  0  0
 11 21  1  0  0  0  0
 12 11  1  0  0  0  0
 13 22  1  0  0  0  0
 15  7  2  0  0  0  0
 16  1  1  0  0  0  0
 16 17  1  0  0  0  0
 17  9  1  0  0  0  0
 18 20  1  6  0  0  0
 18 13  1  0  0  0  0
 18 14  1  0  0  0  0
 19 15  1  0  0  0  0
 21  2  1  0  0  0  0
 24 23  1  0  0  0  0
 25 24  1  0  0  0  0
 25 23  1  0  0  0  0
M  END
>  <MODEL>
7

>  <REMARK>
 VINA RESULT:      -7.2      3.409      4.427
  Name = 
  1 active torsions:
  status: ('A' for Active; 'I' for Inactive)
    1  A    between atoms: C_2  and  N_7
                            x       y       z     vdW  Elec       q    Type
                         _______ _______ _______ _____ _____    ______ ____

>  <TORSDO>
F 1

$$$$
=
 OpenBabel10272400503D

 25 30  0  0  1  0  0  0  0  0999 V2000
  186.0760  178.3590  141.6610 N   0  0  0  0  0  0  0  0  0  0  0  0
  187.4310  177.9700  141.3770 C   0  0  0  0  0  0  0  0  0  0  0  0
  185.6010  178.7330  139.3350 C   0  0  0  0  0  3  0  0  0  0  0  0
  185.4010  178.4500  142.9110 C   0  0  0  0  0  0  0  0  0  0  0  0
  190.6490  178.1370  142.8170 C   0  0  0  0  0  2  0  0  0  0  0  0
  191.5800  177.3220  143.5870 N   0  0  2  0  0  0  0  0  0  0  0  0
  183.8270  178.7250  145.1920 C   0  0  0  0  0  3  0  0  0  0  0  0
  186.9890  178.3340  139.0070 C   0  0  0  0  0  3  0  0  0  0  0  0
  184.0830  178.8720  142.8000 C   0  0  0  0  0  0  0  0  0  0  0  0
  183.2810  179.0140  143.9340 C   0  0  0  0  0  3  0  0  0  0  0  0
  189.2370  177.5710  139.6260 C   0  0  0  0  0  0  0  0  0  0  0  0
  189.6660  177.5510  138.3040 O   0  0  0  0  0  1  0  0  0  0  0  0
  189.9690  175.8370  142.6290 C   0  0  0  0  0  2  0  0  0  0  0  0
  188.2870  177.6150  142.3380 C   0  0  0  0  0  3  0  0  0  0  0  0
  185.1610  178.2980  145.3050 C   0  0  0  0  0  3  0  0  0  0  0  0
  185.1930  178.7350  140.6070 C   0  0  0  0  0  0  0  0  0  0  0  0
  183.5360  179.2010  141.1200 S   0  0  0  0  0  0  0  0  0  0  0  0
  189.7160  177.2110  142.0600 C   0  0  1  0  0  0  0  0  0  0  0  0
  185.9570  178.1590  144.1600 C   0  0  0  0  0  3  0  0  0  0  0  0
  190.0850  177.2180  140.5950 C   0  0  0  0  0  3  0  0  0  0  0  0
  187.8610  177.9720  139.9610 C   0  0  0  0  0  0  0  0  0  0  0  0
  190.8900  176.0590  143.8060 C   0  0  0  0  0  2  0  0  0  0  0  0
  191.7440  177.9590  144.8860 C   0  0  0  0  0  3  0  0  0  0  0  0
  191.5760  176.9250  145.9850 C   0  0  0  0  0  2  0  0  0  0  0  0
  190.4420  177.8730  145.6640 C   0  0  0  0  0  2  0  0  0  0  0  0
  1  4  1  0  0  0  0
  2  1  1  0  0  0  0
  2 14  2  0  0  0  0
  3 16  2  0  0  0  0
  4 19  1  0  0  0  0
  5  6  1  0  0  0  0
  6 22  1  0  0  0  0
  6 23  1  1  0  0  0
  7 15  1  0  0  0  0
  8  3  1  0  0  0  0
  8 21  2  0  0  0  0
  9  4  2  0  0  0  0
  9 10  1  0  0  0  0
 10  7  2  0  0  0  0
 11 21  1  0  0  0  0
 11 20  2  0  0  0  0
 12 11  1  0  0  0  0
 13 22  1  0  0  0  0
 16 17  1  0  0  0  0
 16  1  1  0  0  0  0
 17  9  1  0  0  0  0
 18 20  1  6  0  0  0
 18 14  1  0  0  0  0
 18 13  1  0  0  0  0
 18  5  1  0  0  0  0
 19 15  2  0  0  0  0
 21  2  1  0  0  0  0
 23 25  1  0  0  0  0
 23 24  1  0  0  0  0
 25 24  1  0  0  0  0
M  END
>  <MODEL>
8

>  <REMARK>
 VINA RESULT:      -7.1      2.669      5.539
  Name = 
  1 active torsions:
  status: ('A' for Active; 'I' for Inactive)
    1  A    between atoms: C_2  and  N_7
                            x       y       z     vdW  Elec       q    Type
                         _______ _______ _______ _____ _____    ______ ____

>  <TORSDO>
F 1

$$$$
=
 OpenBabel10272400503D

 25 30  0  0  1  0  0  0  0  0999 V2000
  186.1010  178.2550  142.1600 N   0  0  0  0  0  0  0  0  0  0  0  0
  187.3570  178.0630  141.4860 C   0  0  0  0  0  0  0  0  0  0  0  0
  187.0990  177.8850  144.3150 C   0  0  0  0  0  3  0  0  0  0  0  0
  184.8160  178.5450  141.6200 C   0  0  0  0  0  0  0  0  0  0  0  0
  188.6260  176.7960  138.4460 C   0  0  0  0  0  2  0  0  0  0  0  0
  189.0760  177.2530  137.1380 N   0  0  2  0  0  0  0  0  0  0  0  0
  182.1970  179.1080  140.8620 C   0  0  0  0  0  3  0  0  0  0  0  0
  188.4090  177.6850  143.6530 C   0  0  0  0  0  3  0  0  0  0  0  0
  183.8230  178.6580  142.5830 C   0  0  0  0  0  0  0  0  0  0  0  0
  182.5050  178.9400  142.2190 C   0  0  0  0  0  3  0  0  0  0  0  0
  189.8500  177.5720  141.6700 C   0  0  0  0  0  0  0  0  0  0  0  0
  190.9830  177.3040  142.4280 O   0  0  0  0  0  1  0  0  0  0  0  0
  189.0870  179.1520  138.5910 C   0  0  0  0  0  2  0  0  0  0  0  0
  187.4730  178.1440  140.1580 C   0  0  0  0  0  3  0  0  0  0  0  0
  183.2020  178.9950  139.8870 C   0  0  0  0  0  3  0  0  0  0  0  0
  186.0170  178.1560  143.5800 C   0  0  0  0  0  0  0  0  0  0  0  0
  184.3810  178.4150  144.2740 S   0  0  0  0  0  0  0  0  0  0  0  0
  188.7820  177.9380  139.4310 C   0  0  1  0  0  0  0  0  0  0  0  0
  184.5220  178.7110  140.2640 C   0  0  0  0  0  3  0  0  0  0  0  0
  189.9540  177.6550  140.3420 C   0  0  0  0  0  3  0  0  0  0  0  0
  188.5430  177.7660  142.3190 C   0  0  0  0  0  0  0  0  0  0  0  0
  188.9080  178.6990  137.1600 C   0  0  0  0  0  2  0  0  0  0  0  0
  188.1500  176.7230  136.1480 C   0  0  0  0  0  3  0  0  0  0  0  0
  187.9430  175.2380  136.3880 C   0  0  0  0  0  2  0  0  0  0  0  0
  188.8620  175.7010  135.2790 C   0  0  0  0  0  2  0  0  0  0  0  0
  1 16  1  0  0  0  0
  2  1  1  0  0  0  0
  2 21  1  0  0  0  0
  4  1  1  0  0  0  0
  4  9  1  0  0  0  0
  6 23  1  6  0  0  0
  6 22  1  0  0  0  0
  6  5  1  0  0  0  0
  7 10  1  0  0  0  0
  8  3  1  0  0  0  0
  9 17  1  0  0  0  0
 10  9  2  0  0  0  0
 11 21  1  0  0  0  0
 11 12  1  0  0  0  0
 13 18  1  0  0  0  0
 14  2  2  0  0  0  0
 15 19  1  0  0  0  0
 15  7  2  0  0  0  0
 16 17  1  0  0  0  0
 16  3  2  0  0  0  0
 18  5  1  6  0  0  0
 18 14  1  0  0  0  0
 18 20  1  0  0  0  0
 19  4  2  0  0  0  0
 20 11  2  0  0  0  0
 21  8  2  0  0  0  0
 22 13  1  0  0  0  0
 23 24  1  0  0  0  0
 25 23  1  0  0  0  0
 25 24  1  0  0  0  0
M  END
>  <MODEL>
9

>  <REMARK>
 VINA RESULT:      -7.0      2.194      3.047
  Name = 
  1 active torsions:
  status: ('A' for Active; 'I' for Inactive)
    1  A    between atoms: C_2  and  N_7
                            x       y       z     vdW  Elec       q    Type
                         _______ _______ _______ _____ _____    ______ ____

>  <TORSDO>
F 1

$$$$
