=
 OpenBabel10272413263D

 32 36  0  0  1  0  0  0  0  0999 V2000
  184.3400  178.9770  139.5690 C   0  0  1  0  0  3  0  0  0  0  0  0
  186.7190  177.8890  143.2590 C   0  0  0  0  0  2  0  0  0  0  0  0
  189.5790  177.2610  138.2900 C   0  0  0  0  0  2  0  0  0  0  0  0
  190.4770  176.4790  139.2600 C   0  0  0  0  0  2  0  0  0  0  0  0
  184.7620  178.1720  141.8490 N   0  0  2  0  0  0  0  0  0  0  0  0
  186.4020  179.5920  140.7040 O   0  0  0  0  0  0  0  0  0  0  0  0
  184.6040  179.9990  138.6550 O   0  0  0  0  0  1  0  0  0  0  0  0
  188.2400  177.6440  138.9160 C   0  0  0  0  0  2  0  0  0  0  0  0
  187.2260  178.5000  141.0240 C   0  0  1  0  0  3  0  0  0  0  0  0
  188.4680  178.4950  140.1680 C   0  0  1  0  0  3  0  0  0  0  0  0
  188.9540  177.9590  142.4810 C   0  0  2  0  0  3  0  0  0  0  0  0
  182.6500  177.8110  140.6490 C   0  0  1  0  0  3  0  0  0  0  0  0
  185.0260  179.2790  140.9050 C   0  0  1  0  0  3  0  0  0  0  0  0
  183.3170  178.0400  142.0120 C   0  0  0  0  0  2  0  0  0  0  0  0
  182.9420  178.8610  139.7430 O   0  0  0  0  0  0  0  0  0  0  0  0
  190.0130  176.5460  140.7190 C   0  0  0  0  0  2  0  0  0  0  0  0
  189.5660  177.9600  141.0880 C   0  0  1  0  0  3  0  0  0  0  0  0
  185.3170  178.4880  143.1600 C   0  0  0  0  0  2  0  0  0  0  0  0
  187.6560  178.6230  142.4130 N   0  0  2  0  0  0  0  0  0  0  0  0
  182.9740  176.4300  140.0790 C   0  0  0  0  0  2  0  0  0  0  0  0
  181.8510  175.9340  139.2360 C   0  0  0  0  0  0  0  0  0  0  0  0
  180.7520  175.3270  139.8300 O   0  0  0  0  0  1  0  0  0  0  0  0
  181.8820  176.0930  137.9890 O   0  0  0  0  0  0  0  0  0  0  0  0
  189.8720  178.6400  143.5020 C   0  0  0  0  0  2  0  0  0  0  0  0
  189.1120  177.7590  145.7260 C   0  0  0  0  0  3  0  0  0  0  0  0
  189.3310  177.0120  146.8870 C   0  0  0  0  0  0  0  0  0  0  0  0
  191.5150  176.3670  146.0580 C   0  0  0  0  0  3  0  0  0  0  0  0
  190.5310  176.3110  147.0500 C   0  0  0  0  0  3  0  0  0  0  0  0
  191.2990  177.1210  144.9010 C   0  0  0  0  0  3  0  0  0  0  0  0
  190.0950  177.8160  144.7310 C   0  0  0  0  0  0  0  0  0  0  0  0
  188.2770  176.9370  147.9360 C   0  0  0  0  0  2  0  0  0  0  0  0
  188.3730  178.0910  148.8120 N   0  0  0  0  0  1  0  0  0  0  0  0
  1  7  1  6  0  0  0
  1 15  1  0  0  0  0
  1 13  1  0  0  0  0
  3  8  1  0  0  0  0
  3  4  1  0  0  0  0
  4 16  1  0  0  0  0
  5 14  1  1  0  0  0
  5 18  1  0  0  0  0
  9  6  1  6  0  0  0
  9 19  1  0  0  0  0
 10  8  1  6  0  0  0
 10  9  1  0  0  0  0
 10 17  1  0  0  0  0
 11 24  1  1  0  0  0
 12 20  1  6  0  0  0
 12 14  1  0  0  0  0
 13  6  1  6  0  0  0
 13  5  1  0  0  0  0
 15 12  1  0  0  0  0
 17 16  1  6  0  0  0
 17 11  1  0  0  0  0
 18  2  1  0  0  0  0
 19 11  1  0  0  0  0
 19  2  1  1  0  0  0
 21 22  1  0  0  0  0
 21 20  1  0  0  0  0
 23 21  2  0  0  0  0
 24 30  1  0  0  0  0
 25 26  1  0  0  0  0
 26 28  2  0  0  0  0
 26 31  1  0  0  0  0
 27 28  1  0  0  0  0
 29 27  2  0  0  0  0
 30 29  1  0  0  0  0
 30 25  2  0  0  0  0
 31 32  1  0  0  0  0
M  END
>  <MODEL>
1

>  <REMARK>
 VINA RESULT:      -8.5      0.000      0.000
  Name = 
  5 active torsions:
  status: ('A' for Active; 'I' for Inactive)
    1  A    between atoms: C_1  and  C_17
    2  A    between atoms: C_7  and  C_22
    3  A    between atoms: C_16  and  C_27
    4  A    between atoms: C_17  and  C_19
    5  A    between atoms: C_27  and  C_32
                            x       y       z     vdW  Elec       q    Type
                         _______ _______ _______ _____ _____    ______ ____

>  <TORSDO>
F 5

$$$$
=
 OpenBabel10272413263D

 32 36  0  0  1  0  0  0  0  0999 V2000
  188.2040  177.2690  136.3540 C   0  0  1  0  0  3  0  0  0  0  0  0
  185.0710  178.0520  139.5220 C   0  0  0  0  0  2  0  0  0  0  0  0
  190.3420  176.9420  141.5830 C   0  0  0  0  0  2  0  0  0  0  0  0
  189.4800  176.7800  142.8450 C   0  0  0  0  0  2  0  0  0  0  0  0
  185.9810  177.3130  137.3940 N   0  0  2  0  0  0  0  0  0  0  0  0
  187.7700  178.7780  138.2110 O   0  0  0  0  0  0  0  0  0  0  0  0
  189.3500  178.0190  136.0840 O   0  0  0  0  0  1  0  0  0  0  0  0
  189.5010  177.0590  140.3140 C   0  0  0  0  0  2  0  0  0  0  0  0
  187.4390  178.1270  139.4120 C   0  0  1  0  0  3  0  0  0  0  0  0
  188.5540  178.2580  140.4190 C   0  0  1  0  0  3  0  0  0  0  0  0
  186.3730  178.5760  141.4280 C   0  0  2  0  0  3  0  0  0  0  0  0
  186.5170  176.0000  135.3890 C   0  0  1  0  0  3  0  0  0  0  0  0
  187.1730  178.1320  137.0900 C   0  0  1  0  0  3  0  0  0  0  0  0
  185.4420  176.7990  136.1390 C   0  0  0  0  0  2  0  0  0  0  0  0
  187.6690  176.7870  135.1380 O   0  0  0  0  0  0  0  0  0  0  0  0
  188.0000  177.1130  142.6270 C   0  0  0  0  0  2  0  0  0  0  0  0
  187.8420  178.3680  141.7680 C   0  0  1  0  0  3  0  0  0  0  0  0
  184.9460  178.1410  138.0020 C   0  0  0  0  0  2  0  0  0  0  0  0
  186.2580  178.7650  139.9860 N   0  0  2  0  0  0  0  0  0  0  0  0
  186.8420  174.6810  136.0910 C   0  0  0  0  0  2  0  0  0  0  0  0
  185.6080  173.8680  136.2770 C   0  0  0  0  0  0  0  0  0  0  0  0
  185.1770  173.5410  137.5550 O   0  0  0  0  0  1  0  0  0  0  0  0
  184.9390  173.5020  135.2760 O   0  0  0  0  0  0  0  0  0  0  0  0
  185.7790  179.7640  142.1920 C   0  0  0  0  0  2  0  0  0  0  0  0
  185.6720  179.1300  144.6180 C   0  0  0  0  0  3  0  0  0  0  0  0
  184.9550  178.7210  145.7460 C   0  0  0  0  0  0  0  0  0  0  0  0
  182.9030  178.7690  144.4580 C   0  0  0  0  0  3  0  0  0  0  0  0
  183.5690  178.5470  145.6670 C   0  0  0  0  0  3  0  0  0  0  0  0
  183.6220  179.1710  143.3280 C   0  0  0  0  0  3  0  0  0  0  0  0
  185.0070  179.3550  143.4060 C   0  0  0  0  0  0  0  0  0  0  0  0
  185.6600  178.5000  147.0380 C   0  0  0  0  0  2  0  0  0  0  0  0
  186.9350  177.8470  146.7970 N   0  0  0  0  0  1  0  0  0  0  0  0
  1  7  1  6  0  0  0
  1 13  1  0  0  0  0
  3  4  1  0  0  0  0
  5 14  1  6  0  0  0
  5 18  1  0  0  0  0
  8  3  1  0  0  0  0
  9  6  1  6  0  0  0
  9 19  1  0  0  0  0
  9 10  1  0  0  0  0
 10  8  1  1  0  0  0
 10 17  1  0  0  0  0
 11 17  1  0  0  0  0
 11 24  1  1  0  0  0
 12 20  1  1  0  0  0
 12 14  1  0  0  0  0
 13  5  1  0  0  0  0
 13  6  1  1  0  0  0
 15 12  1  0  0  0  0
 15  1  1  0  0  0  0
 16  4  1  0  0  0  0
 17 16  1  1  0  0  0
 18  2  1  0  0  0  0
 19  2  1  6  0  0  0
 19 11  1  0  0  0  0
 20 21  1  0  0  0  0
 21 22  1  0  0  0  0
 23 21  2  0  0  0  0
 24 30  1  0  0  0  0
 25 26  1  0  0  0  0
 26 31  1  0  0  0  0
 27 28  1  0  0  0  0
 28 26  2  0  0  0  0
 29 30  1  0  0  0  0
 29 27  2  0  0  0  0
 30 25  2  0  0  0  0
 32 31  1  0  0  0  0
M  END
>  <MODEL>
2

>  <REMARK>
 VINA RESULT:      -7.9      3.034      4.907
  Name = 
  5 active torsions:
  status: ('A' for Active; 'I' for Inactive)
    1  A    between atoms: C_1  and  C_17
    2  A    between atoms: C_7  and  C_22
    3  A    between atoms: C_16  and  C_27
    4  A    between atoms: C_17  and  C_19
    5  A    between atoms: C_27  and  C_32
                            x       y       z     vdW  Elec       q    Type
                         _______ _______ _______ _____ _____    ______ ____

>  <TORSDO>
F 5

$$$$
=
 OpenBabel10272413263D

 32 36  0  0  1  0  0  0  0  0999 V2000
  191.2750  176.3260  137.7770 C   0  0  1  0  0  3  0  0  0  0  0  0
  187.0440  177.5270  138.8370 C   0  0  0  0  0  2  0  0  0  0  0  0
  190.4160  176.3660  143.3700 C   0  0  0  0  0  2  0  0  0  0  0  0
  189.0210  176.3560  144.0160 C   0  0  0  0  0  2  0  0  0  0  0  0
  188.8440  176.5620  137.5220 N   0  0  2  0  0  0  0  0  0  0  0  0
  190.0840  178.0120  139.0650 O   0  0  0  0  0  0  0  0  0  0  0  0
  192.4570  176.9970  138.0960 O   0  0  0  0  0  1  0  0  0  0  0  0
  190.3510  176.4090  141.8450 C   0  0  0  0  0  2  0  0  0  0  0  0
  189.1340  177.4850  139.9560 C   0  0  1  0  0  3  0  0  0  0  0  0
  189.5880  177.6540  141.3850 C   0  0  1  0  0  3  0  0  0  0  0  0
  187.2330  178.1580  141.1110 C   0  0  2  0  0  3  0  0  0  0  0  0
  190.2140  175.0550  136.1500 C   0  0  1  0  0  3  0  0  0  0  0  0
  190.0900  177.2970  137.8320 C   0  0  1  0  0  3  0  0  0  0  0  0
  188.9800  175.9650  136.1980 C   0  0  0  0  0  2  0  0  0  0  0  0
  191.3960  175.7630  136.4860 O   0  0  0  0  0  0  0  0  0  0  0  0
  187.8930  176.7350  143.0510 C   0  0  0  0  0  2  0  0  0  0  0  0
  188.3000  177.9150  142.1680 C   0  0  1  0  0  3  0  0  0  0  0  0
  187.7190  177.4870  137.4670 C   0  0  0  0  0  2  0  0  0  0  0  0
  187.8850  178.2240  139.8070 N   0  0  2  0  0  0  0  0  0  0  0  0
  190.0250  173.7900  136.9880 C   0  0  0  0  0  2  0  0  0  0  0  0
  188.9350  172.9460  136.4240 C   0  0  0  0  0  0  0  0  0  0  0  0
  187.7680  172.7430  137.1480 O   0  0  0  0  0  1  0  0  0  0  0  0
  189.0590  172.4420  135.2780 O   0  0  0  0  0  0  0  0  0  0  0  0
  186.4350  179.4350  141.3970 C   0  0  0  0  0  2  0  0  0  0  0  0
  185.1490  179.1420  143.5320 C   0  0  0  0  0  3  0  0  0  0  0  0
  183.9620  178.8750  144.2200 C   0  0  0  0  0  0  0  0  0  0  0  0
  182.7850  178.6820  142.1100 C   0  0  0  0  0  3  0  0  0  0  0  0
  182.7780  178.6500  143.5080 C   0  0  0  0  0  3  0  0  0  0  0  0
  183.9740  178.9430  141.4230 C   0  0  0  0  0  3  0  0  0  0  0  0
  185.1580  179.1760  142.1330 C   0  0  0  0  0  0  0  0  0  0  0  0
  183.9500  178.8580  145.7080 C   0  0  0  0  0  2  0  0  0  0  0  0
  185.2560  179.2410  146.2140 N   0  0  0  0  0  1  0  0  0  0  0  0
  1 13  1  0  0  0  0
  1  7  1  6  0  0  0
  3  4  1  0  0  0  0
  5 14  1  6  0  0  0
  5 13  1  0  0  0  0
  8  3  1  0  0  0  0
  9  6  1  6  0  0  0
  9 10  1  0  0  0  0
 10  8  1  1  0  0  0
 10 17  1  0  0  0  0
 11 24  1  1  0  0  0
 11 17  1  0  0  0  0
 12 14  1  0  0  0  0
 12 15  1  0  0  0  0
 12 20  1  1  0  0  0
 13  6  1  1  0  0  0
 15  1  1  0  0  0  0
 16  4  1  0  0  0  0
 17 16  1  6  0  0  0
 18  5  1  0  0  0  0
 18  2  1  0  0  0  0
 19  2  1  6  0  0  0
 19  9  1  0  0  0  0
 19 11  1  0  0  0  0
 21 20  1  0  0  0  0
 21 22  1  0  0  0  0
 23 21  2  0  0  0  0
 24 30  1  0  0  0  0
 25 26  1  0  0  0  0
 26 31  1  0  0  0  0
 27 28  1  0  0  0  0
 28 26  2  0  0  0  0
 29 27  2  0  0  0  0
 29 30  1  0  0  0  0
 30 25  2  0  0  0  0
 31 32  1  0  0  0  0
M  END
>  <MODEL>
3

>  <REMARK>
 VINA RESULT:      -7.8      3.502      6.377
  Name = 
  5 active torsions:
  status: ('A' for Active; 'I' for Inactive)
    1  A    between atoms: C_1  and  C_17
    2  A    between atoms: C_7  and  C_22
    3  A    between atoms: C_16  and  C_27
    4  A    between atoms: C_17  and  C_19
    5  A    between atoms: C_27  and  C_32
                            x       y       z     vdW  Elec       q    Type
                         _______ _______ _______ _____ _____    ______ ____

>  <TORSDO>
F 5

$$$$
=
 OpenBabel10272413263D

 32 36  0  0  1  0  0  0  0  0999 V2000
  190.9530  176.4920  137.8470 C   0  0  1  0  0  3  0  0  0  0  0  0
  186.7710  177.6620  139.1150 C   0  0  0  0  0  2  0  0  0  0  0  0
  190.3580  176.4840  143.4750 C   0  0  0  0  0  2  0  0  0  0  0  0
  188.9960  176.4610  144.1860 C   0  0  0  0  0  2  0  0  0  0  0  0
  188.5120  176.7170  137.7100 N   0  0  2  0  0  0  0  0  0  0  0  0
  189.8160  178.1610  139.2030 O   0  0  0  0  0  0  0  0  0  0  0  0
  192.1450  177.1660  138.1150 O   0  0  0  0  0  1  0  0  0  0  0  0
  190.2220  176.5380  141.9550 C   0  0  0  0  0  2  0  0  0  0  0  0
  188.9120  177.6220  140.1340 C   0  0  1  0  0  3  0  0  0  0  0  0
  189.4310  177.7830  141.5410 C   0  0  1  0  0  3  0  0  0  0  0  0
  187.0630  178.2760  141.3830 C   0  0  2  0  0  3  0  0  0  0  0  0
  189.8230  175.2280  136.2630 C   0  0  1  0  0  3  0  0  0  0  0  0
  189.7670  177.4550  137.9660 C   0  0  1  0  0  3  0  0  0  0  0  0
  188.5870  176.1300  136.3750 C   0  0  0  0  0  2  0  0  0  0  0  0
  191.0150  175.9390  136.5480 O   0  0  0  0  0  0  0  0  0  0  0  0
  187.8220  176.8420  143.2780 C   0  0  0  0  0  2  0  0  0  0  0  0
  188.1810  178.0300  142.3860 C   0  0  1  0  0  3  0  0  0  0  0  0
  187.3800  177.6360  137.7150 C   0  0  0  0  0  2  0  0  0  0  0  0
  187.6530  178.3550  140.0500 N   0  0  2  0  0  0  0  0  0  0  0  0
  189.6790  173.9550  137.0990 C   0  0  0  0  0  2  0  0  0  0  0  0
  188.6620  173.0470  136.5000 C   0  0  0  0  0  0  0  0  0  0  0  0
  187.6120  172.5730  137.2750 O   0  0  0  0  0  1  0  0  0  0  0  0
  188.7360  172.7330  135.2840 O   0  0  0  0  0  0  0  0  0  0  0  0
  186.2740  179.5460  141.7160 C   0  0  0  0  0  2  0  0  0  0  0  0
  183.8200  179.0210  141.6800 C   0  0  0  0  0  3  0  0  0  0  0  0
  182.6080  178.7870  142.3360 C   0  0  0  0  0  0  0  0  0  0  0  0
  183.7190  179.0360  144.4750 C   0  0  0  0  0  3  0  0  0  0  0  0
  182.5590  178.7890  143.7340 C   0  0  0  0  0  3  0  0  0  0  0  0
  184.9300  179.2770  143.8180 C   0  0  0  0  0  3  0  0  0  0  0  0
  184.9830  179.2670  142.4190 C   0  0  0  0  0  0  0  0  0  0  0  0
  181.3760  178.5070  141.5480 C   0  0  0  0  0  2  0  0  0  0  0  0
  181.7190  177.7660  140.3470 N   0  0  0  0  0  1  0  0  0  0  0  0
  1 13  1  0  0  0  0
  1  7  1  6  0  0  0
  3  4  1  0  0  0  0
  5 14  1  6  0  0  0
  5 18  1  0  0  0  0
  5 13  1  0  0  0  0
  8  3  1  0  0  0  0
  9  6  1  6  0  0  0
  9 10  1  0  0  0  0
 10  8  1  1  0  0  0
 10 17  1  0  0  0  0
 11 24  1  1  0  0  0
 11 17  1  0  0  0  0
 12 14  1  0  0  0  0
 12 15  1  0  0  0  0
 12 20  1  1  0  0  0
 13  6  1  1  0  0  0
 15  1  1  0  0  0  0
 16  4  1  0  0  0  0
 17 16  1  6  0  0  0
 18  2  1  0  0  0  0
 19  2  1  6  0  0  0
 19  9  1  0  0  0  0
 19 11  1  0  0  0  0
 21 20  1  0  0  0  0
 21 22  1  0  0  0  0
 23 21  2  0  0  0  0
 24 30  1  0  0  0  0
 25 26  2  0  0  0  0
 25 30  1  0  0  0  0
 26 28  1  0  0  0  0
 28 27  2  0  0  0  0
 29 27  1  0  0  0  0
 30 29  2  0  0  0  0
 31 26  1  0  0  0  0
 32 31  1  0  0  0  0
M  END
>  <MODEL>
4

>  <REMARK>
 VINA RESULT:      -7.6      3.519      6.613
  Name = 
  5 active torsions:
  status: ('A' for Active; 'I' for Inactive)
    1  A    between atoms: C_1  and  C_17
    2  A    between atoms: C_7  and  C_22
    3  A    between atoms: C_16  and  C_27
    4  A    between atoms: C_17  and  C_19
    5  A    between atoms: C_27  and  C_32
                            x       y       z     vdW  Elec       q    Type
                         _______ _______ _______ _____ _____    ______ ____

>  <TORSDO>
F 5

$$$$
=
 OpenBabel10272413263D

 32 36  0  0  1  0  0  0  0  0999 V2000
  184.4100  178.7210  138.8450 C   0  0  1  0  0  3  0  0  0  0  0  0
  184.6590  177.9160  143.2900 C   0  0  0  0  0  2  0  0  0  0  0  0
  189.6260  177.2140  140.4430 C   0  0  0  0  0  2  0  0  0  0  0  0
  189.9380  176.5220  141.7780 C   0  0  0  0  0  2  0  0  0  0  0  0
  183.6580  178.0390  141.0800 N   0  0  2  0  0  0  0  0  0  0  0  0
  185.6190  179.4870  140.8120 O   0  0  0  0  0  0  0  0  0  0  0  0
  185.0710  179.7140  138.1200 O   0  0  0  0  0  1  0  0  0  0  0  0
  188.1450  177.5570  140.2970 C   0  0  0  0  0  2  0  0  0  0  0  0
  186.1980  178.4530  141.5670 C   0  0  1  0  0  3  0  0  0  0  0  0
  187.7010  178.4730  141.4410 C   0  0  1  0  0  3  0  0  0  0  0  0
  186.9820  178.0630  143.7190 C   0  0  2  0  0  3  0  0  0  0  0  0
  182.4310  177.5210  139.0170 C   0  0  1  0  0  3  0  0  0  0  0  0
  184.3320  179.1160  140.3240 C   0  0  1  0  0  3  0  0  0  0  0  0
  182.3270  177.8430  140.5130 C   0  0  0  0  0  2  0  0  0  0  0  0
  183.1140  178.5430  138.3110 O   0  0  0  0  0  0  0  0  0  0  0  0
  188.8080  176.6290  142.8070 C   0  0  0  0  0  2  0  0  0  0  0  0
  188.2070  178.0340  142.8160 C   0  0  1  0  0  3  0  0  0  0  0  0
  183.4800  178.4400  142.4710 C   0  0  0  0  0  2  0  0  0  0  0  0
  185.8770  178.6590  142.9750 N   0  0  2  0  0  0  0  0  0  0  0  0
  183.0260  176.1330  138.7710 C   0  0  0  0  0  2  0  0  0  0  0  0
  183.1600  175.8730  137.3100 C   0  0  0  0  0  0  0  0  0  0  0  0
  184.4180  175.8300  136.7250 O   0  0  0  0  0  1  0  0  0  0  0  0
  182.1350  175.6620  136.6120 O   0  0  0  0  0  0  0  0  0  0  0  0
  187.2560  178.8330  145.0160 C   0  0  0  0  0  2  0  0  0  0  0  0
  189.3900  177.7050  145.7020 C   0  0  0  0  0  3  0  0  0  0  0  0
  190.1410  176.9540  146.6110 C   0  0  0  0  0  0  0  0  0  0  0  0
  188.2520  176.9020  148.1270 C   0  0  0  0  0  3  0  0  0  0  0  0
  189.5730  176.5570  147.8260 C   0  0  0  0  0  3  0  0  0  0  0  0
  187.4990  177.6480  147.2140 C   0  0  0  0  0  3  0  0  0  0  0  0
  188.0680  178.0540  146.0010 C   0  0  0  0  0  0  0  0  0  0  0  0
  191.5530  176.6010  146.2990 C   0  0  0  0  0  2  0  0  0  0  0  0
  192.1950  176.0530  147.4810 N   0  0  0  0  0  1  0  0  0  0  0  0
  1  7  1  6  0  0  0
  1 13  1  0  0  0  0
  3  4  1  0  0  0  0
  4 16  1  0  0  0  0
  5 14  1  6  0  0  0
  5 18  1  0  0  0  0
  8  3  1  0  0  0  0
  9  6  1  6  0  0  0
  9 19  1  0  0  0  0
 10  8  1  6  0  0  0
 10  9  1  0  0  0  0
 10 17  1  0  0  0  0
 11 24  1  1  0  0  0
 12 20  1  1  0  0  0
 12 14  1  0  0  0  0
 13  6  1  1  0  0  0
 13  5  1  0  0  0  0
 15  1  1  0  0  0  0
 15 12  1  0  0  0  0
 17 16  1  6  0  0  0
 17 11  1  0  0  0  0
 18  2  1  0  0  0  0
 19  2  1  1  0  0  0
 19 11  1  0  0  0  0
 21 20  1  0  0  0  0
 22 21  1  0  0  0  0
 23 21  2  0  0  0  0
 24 30  1  0  0  0  0
 25 30  2  0  0  0  0
 25 26  1  0  0  0  0
 26 28  2  0  0  0  0
 28 27  1  0  0  0  0
 29 27  2  0  0  0  0
 30 29  1  0  0  0  0
 31 26  1  0  0  0  0
 31 32  1  0  0  0  0
M  END
>  <MODEL>
5

>  <REMARK>
 VINA RESULT:      -7.1      1.503      2.349
  Name = 
  5 active torsions:
  status: ('A' for Active; 'I' for Inactive)
    1  A    between atoms: C_1  and  C_17
    2  A    between atoms: C_7  and  C_22
    3  A    between atoms: C_16  and  C_27
    4  A    between atoms: C_17  and  C_19
    5  A    between atoms: C_27  and  C_32
                            x       y       z     vdW  Elec       q    Type
                         _______ _______ _______ _____ _____    ______ ____

>  <TORSDO>
F 5

$$$$
=
 OpenBabel10272413263D

 32 36  0  0  1  0  0  0  0  0999 V2000
  185.4570  177.2930  136.4920 C   0  0  1  0  0  3  0  0  0  0  0  0
  184.0930  177.7150  140.7840 C   0  0  0  0  0  2  0  0  0  0  0  0
  189.8160  177.5430  140.0930 C   0  0  0  0  0  2  0  0  0  0  0  0
  189.6840  177.3040  141.6050 C   0  0  0  0  0  2  0  0  0  0  0  0
  184.0060  177.0330  138.4540 N   0  0  2  0  0  0  0  0  0  0  0  0
  185.7090  178.7970  138.3870 O   0  0  0  0  0  0  0  0  0  0  0  0
  186.2070  178.2010  135.7420 O   0  0  0  0  0  1  0  0  0  0  0  0
  188.4720  177.4690  139.3710 C   0  0  0  0  0  2  0  0  0  0  0  0
  186.0870  178.1570  139.5790 C   0  0  1  0  0  3  0  0  0  0  0  0
  187.5070  178.5070  139.9500 C   0  0  1  0  0  3  0  0  0  0  0  0
  186.0330  178.5220  141.8740 C   0  0  2  0  0  3  0  0  0  0  0  0
  183.7430  175.7330  136.3880 C   0  0  1  0  0  3  0  0  0  0  0  0
  184.7690  178.0150  137.6550 C   0  0  1  0  0  3  0  0  0  0  0  0
  183.0320  176.3850  137.5810 C   0  0  0  0  0  2  0  0  0  0  0  0
  184.5010  176.6780  135.6530 O   0  0  0  0  0  0  0  0  0  0  0  0
  188.2430  177.3900  142.1180 C   0  0  0  0  0  2  0  0  0  0  0  0
  187.5020  178.5640  141.4780 C   0  0  1  0  0  3  0  0  0  0  0  0
  183.2580  177.7150  139.5040 C   0  0  0  0  0  2  0  0  0  0  0  0
  185.2280  178.6260  140.6610 N   0  0  2  0  0  0  0  0  0  0  0  0
  184.5660  174.5140  136.8090 C   0  0  0  0  0  2  0  0  0  0  0  0
  183.9460  173.2610  136.2970 C   0  0  0  0  0  0  0  0  0  0  0  0
  182.7950  173.3220  135.5220 O   0  0  0  0  0  0  0  0  0  0  0  0
  184.4800  172.1480  136.5420 O   0  0  0  0  0  1  0  0  0  0  0  0
  185.6840  179.6360  142.8670 C   0  0  0  0  0  2  0  0  0  0  0  0
  186.4690  178.5130  144.9700 C   0  0  0  0  0  3  0  0  0  0  0  0
  186.2320  178.0150  146.2550 C   0  0  0  0  0  0  0  0  0  0  0  0
  183.9290  178.7550  146.1150 C   0  0  0  0  0  3  0  0  0  0  0  0
  184.9620  178.1420  146.8290 C   0  0  0  0  0  3  0  0  0  0  0  0
  184.1650  179.2460  144.8270 C   0  0  0  0  0  3  0  0  0  0  0  0
  185.4370  179.1290  144.2530 C   0  0  0  0  0  0  0  0  0  0  0  0
  187.3360  177.3770  147.0230 C   0  0  0  0  0  2  0  0  0  0  0  0
  188.2420  178.3980  147.5190 N   0  0  0  0  0  1  0  0  0  0  0  0
  1  7  1  6  0  0  0
  1 13  1  0  0  0  0
  3  4  1  0  0  0  0
  4 16  1  0  0  0  0
  5 14  1  6  0  0  0
  5 18  1  0  0  0  0
  8  3  1  0  0  0  0
  9  6  1  6  0  0  0
  9 10  1  0  0  0  0
  9 19  1  0  0  0  0
 10  8  1  1  0  0  0
 10 17  1  0  0  0  0
 11 24  1  1  0  0  0
 12 20  1  1  0  0  0
 12 14  1  0  0  0  0
 13  6  1  1  0  0  0
 13  5  1  0  0  0  0
 15 12  1  0  0  0  0
 15  1  1  0  0  0  0
 17 11  1  0  0  0  0
 17 16  1  1  0  0  0
 18  2  1  0  0  0  0
 19  2  1  1  0  0  0
 19 11  1  0  0  0  0
 21 23  1  0  0  0  0
 21 20  1  0  0  0  0
 22 21  2  0  0  0  0
 24 30  1  0  0  0  0
 25 26  1  0  0  0  0
 26 28  2  0  0  0  0
 26 31  1  0  0  0  0
 27 28  1  0  0  0  0
 29 27  2  0  0  0  0
 30 29  1  0  0  0  0
 30 25  2  0  0  0  0
 31 32  1  0  0  0  0
M  END
>  <MODEL>
6

>  <REMARK>
 VINA RESULT:      -6.5      2.593      3.999
  Name = 
  5 active torsions:
  status: ('A' for Active; 'I' for Inactive)
    1  A    between atoms: C_1  and  C_17
    2  A    between atoms: C_7  and  C_22
    3  A    between atoms: C_16  and  C_27
    4  A    between atoms: C_17  and  C_19
    5  A    between atoms: C_27  and  C_32
                            x       y       z     vdW  Elec       q    Type
                         _______ _______ _______ _____ _____    ______ ____

>  <TORSDO>
F 5

$$$$
=
 OpenBabel10272413263D

 32 36  0  0  1  0  0  0  0  0999 V2000
  187.8670  178.0880  139.7960 C   0  0  1  0  0  3  0  0  0  0  0  0
  191.5270  175.8150  138.4150 C   0  0  0  0  0  2  0  0  0  0  0  0
  186.5220  173.7130  136.4670 C   0  0  0  0  0  2  0  0  0  0  0  0
  187.4810  172.5520  136.1600 C   0  0  0  0  0  2  0  0  0  0  0  0
  190.1420  177.1690  139.8820 N   0  0  2  0  0  0  0  0  0  0  0  0
  188.9760  177.4160  137.7380 O   0  0  0  0  0  0  0  0  0  0  0  0
  186.9510  178.7870  139.0080 O   0  0  0  0  0  1  0  0  0  0  0  0
  187.1650  174.7830  137.3460 C   0  0  0  0  0  2  0  0  0  0  0  0
  189.2860  176.0470  137.6750 C   0  0  1  0  0  3  0  0  0  0  0  0
  188.4140  175.3460  136.6630 C   0  0  1  0  0  3  0  0  0  0  0  0
  190.7210  174.6110  136.5430 C   0  0  2  0  0  3  0  0  0  0  0  0
  188.9690  178.0780  141.8380 C   0  0  1  0  0  3  0  0  0  0  0  0
  189.1950  177.9380  139.0460 C   0  0  1  0  0  3  0  0  0  0  0  0
  190.3220  177.8780  141.1440 C   0  0  0  0  0  2  0  0  0  0  0  0
  188.0590  178.7830  141.0110 O   0  0  0  0  0  0  0  0  0  0  0  0
  188.9450  172.8600  136.4900 C   0  0  0  0  0  2  0  0  0  0  0  0
  189.3200  174.2760  136.0520 C   0  0  1  0  0  3  0  0  0  0  0  0
  191.4450  177.1040  139.2310 C   0  0  0  0  0  2  0  0  0  0  0  0
  190.6690  175.8950  137.2360 N   0  0  2  0  0  0  0  0  0  0  0  0
  188.3940  176.7600  142.3600 C   0  0  0  0  0  2  0  0  0  0  0  0
  189.3220  176.1380  143.3440 C   0  0  0  0  0  0  0  0  0  0  0  0
  190.1050  175.0540  142.9710 O   0  0  0  0  0  0  0  0  0  0  0  0
  189.4200  176.6120  144.5060 O   0  0  0  0  0  1  0  0  0  0  0  0
  191.7300  174.6440  135.3910 C   0  0  0  0  0  2  0  0  0  0  0  0
  194.1830  175.1750  135.4600 C   0  0  0  0  0  3  0  0  0  0  0  0
  195.4920  174.8680  135.8420 C   0  0  0  0  0  0  0  0  0  0  0  0
  194.6950  172.8750  136.9660 C   0  0  0  0  0  3  0  0  0  0  0  0
  195.7460  173.7200  136.6010 C   0  0  0  0  0  3  0  0  0  0  0  0
  193.3860  173.1780  136.5760 C   0  0  0  0  0  3  0  0  0  0  0  0
  193.1270  174.3300  135.8250 C   0  0  0  0  0  0  0  0  0  0  0  0
  196.6100  175.7770  135.4690 C   0  0  0  0  0  2  0  0  0  0  0  0
  197.6070  175.7880  136.5250 N   0  0  0  0  0  1  0  0  0  0  0  0
  1  7  1  6  0  0  0
  1 15  1  0  0  0  0
  2 18  1  0  0  0  0
  3  8  1  0  0  0  0
  4  3  1  0  0  0  0
  4 16  1  0  0  0  0
  5 18  1  6  0  0  0
  5 14  1  0  0  0  0
  9  6  1  6  0  0  0
 10  8  1  1  0  0  0
 10  9  1  0  0  0  0
 11 24  1  6  0  0  0
 11 19  1  0  0  0  0
 12 20  1  6  0  0  0
 13  6  1  6  0  0  0
 13  1  1  0  0  0  0
 13  5  1  0  0  0  0
 14 12  1  0  0  0  0
 15 12  1  0  0  0  0
 17 16  1  1  0  0  0
 17 11  1  0  0  0  0
 17 10  1  0  0  0  0
 19  9  1  0  0  0  0
 19  2  1  1  0  0  0
 20 21  1  0  0  0  0
 21 23  1  0  0  0  0
 22 21  2  0  0  0  0
 24 30  1  0  0  0  0
 25 30  2  0  0  0  0
 25 26  1  0  0  0  0
 26 28  2  0  0  0  0
 28 27  1  0  0  0  0
 29 27  2  0  0  0  0
 30 29  1  0  0  0  0
 31 26  1  0  0  0  0
 31 32  1  0  0  0  0
M  END
>  <MODEL>
7

>  <REMARK>
 VINA RESULT:      -6.3      4.698      8.289
  Name = 
  5 active torsions:
  status: ('A' for Active; 'I' for Inactive)
    1  A    between atoms: C_1  and  C_17
    2  A    between atoms: C_7  and  C_22
    3  A    between atoms: C_16  and  C_27
    4  A    between atoms: C_17  and  C_19
    5  A    between atoms: C_27  and  C_32
                            x       y       z     vdW  Elec       q    Type
                         _______ _______ _______ _____ _____    ______ ____

>  <TORSDO>
F 5

$$$$
=
 OpenBabel10272413263D

 32 36  0  0  1  0  0  0  0  0999 V2000
  187.9170  178.0000  139.2970 C   0  0  1  0  0  3  0  0  0  0  0  0
  191.2590  175.1870  138.1170 C   0  0  0  0  0  2  0  0  0  0  0  0
  185.9930  173.4620  136.5160 C   0  0  0  0  0  2  0  0  0  0  0  0
  186.8080  172.1730  136.3260 C   0  0  0  0  0  2  0  0  0  0  0  0
  190.0780  176.8440  139.4450 N   0  0  2  0  0  0  0  0  0  0  0  0
  188.8800  176.9820  137.3090 O   0  0  0  0  0  0  0  0  0  0  0  0
  187.0590  178.7060  138.4520 O   0  0  0  0  0  1  0  0  0  0  0  0
  186.7780  174.5440  137.2550 C   0  0  0  0  0  2  0  0  0  0  0  0
  189.0350  175.5880  137.3970 C   0  0  1  0  0  3  0  0  0  0  0  0
  188.0600  174.8810  136.4890 C   0  0  1  0  0  3  0  0  0  0  0  0
  190.2660  173.8810  136.4100 C   0  0  2  0  0  3  0  0  0  0  0  0
  189.0750  178.0920  141.3060 C   0  0  1  0  0  3  0  0  0  0  0  0
  189.1970  177.6180  138.5440 C   0  0  1  0  0  3  0  0  0  0  0  0
  190.3760  177.6650  140.6140 C   0  0  0  0  0  2  0  0  0  0  0  0
  188.2230  178.8000  140.4210 O   0  0  0  0  0  0  0  0  0  0  0  0
  188.3070  172.3470  136.5910 C   0  0  0  0  0  2  0  0  0  0  0  0
  188.8220  173.6540  135.9870 C   0  0  1  0  0  3  0  0  0  0  0  0
  191.3450  176.5600  138.7820 C   0  0  0  0  0  2  0  0  0  0  0  0
  190.3780  175.2320  136.9520 N   0  0  2  0  0  0  0  0  0  0  0  0
  188.3750  176.9150  141.9860 C   0  0  0  0  0  2  0  0  0  0  0  0
  189.1750  176.4280  143.1440 C   0  0  0  0  0  0  0  0  0  0  0  0
  190.0940  175.4020  142.9700 O   0  0  0  0  0  0  0  0  0  0  0  0
  189.0410  176.9650  144.2730 O   0  0  0  0  0  1  0  0  0  0  0  0
  191.2360  173.6710  135.2430 C   0  0  0  0  0  2  0  0  0  0  0  0
  193.4560  173.2120  136.3200 C   0  0  0  0  0  3  0  0  0  0  0  0
  194.5240  172.3570  136.6090 C   0  0  0  0  0  0  0  0  0  0  0  0
  193.4070  170.5640  135.4210 C   0  0  0  0  0  3  0  0  0  0  0  0
  194.4960  171.0300  136.1650 C   0  0  0  0  0  3  0  0  0  0  0  0
  192.3430  171.4220  135.1260 C   0  0  0  0  0  3  0  0  0  0  0  0
  192.3650  172.7470  135.5770 C   0  0  0  0  0  0  0  0  0  0  0  0
  195.6750  172.8480  137.4150 C   0  0  0  0  0  2  0  0  0  0  0  0
  195.3480  172.7830  138.8290 N   0  0  0  0  0  1  0  0  0  0  0  0
  1  7  1  6  0  0  0
  1 15  1  0  0  0  0
  2 18  1  0  0  0  0
  3  8  1  0  0  0  0
  4  3  1  0  0  0  0
  4 16  1  0  0  0  0
  5 18  1  6  0  0  0
  5 14  1  0  0  0  0
  9  6  1  6  0  0  0
 10  8  1  1  0  0  0
 10  9  1  0  0  0  0
 11 24  1  6  0  0  0
 11 19  1  0  0  0  0
 12 20  1  6  0  0  0
 13  6  1  6  0  0  0
 13  1  1  0  0  0  0
 13  5  1  0  0  0  0
 14 12  1  0  0  0  0
 15 12  1  0  0  0  0
 17 11  1  0  0  0  0
 17 10  1  0  0  0  0
 17 16  1  1  0  0  0
 19  9  1  0  0  0  0
 19  2  1  1  0  0  0
 20 21  1  0  0  0  0
 21 23  1  0  0  0  0
 22 21  2  0  0  0  0
 24 30  1  0  0  0  0
 25 26  1  0  0  0  0
 26 31  1  0  0  0  0
 27 28  1  0  0  0  0
 28 26  2  0  0  0  0
 29 27  2  0  0  0  0
 29 30  1  0  0  0  0
 30 25  2  0  0  0  0
 31 32  1  0  0  0  0
M  END
>  <MODEL>
8

>  <REMARK>
 VINA RESULT:      -6.2      4.896      8.385
  Name = 
  5 active torsions:
  status: ('A' for Active; 'I' for Inactive)
    1  A    between atoms: C_1  and  C_17
    2  A    between atoms: C_7  and  C_22
    3  A    between atoms: C_16  and  C_27
    4  A    between atoms: C_17  and  C_19
    5  A    between atoms: C_27  and  C_32
                            x       y       z     vdW  Elec       q    Type
                         _______ _______ _______ _____ _____    ______ ____

>  <TORSDO>
F 5

$$$$
=
 OpenBabel10272413263D

 32 36  0  0  1  0  0  0  0  0999 V2000
  192.4490  174.4970  136.1770 C   0  0  1  0  0  3  0  0  0  0  0  0
  191.7060  177.0980  139.8030 C   0  0  0  0  0  2  0  0  0  0  0  0
  187.4000  177.0450  135.9650 C   0  0  0  0  0  2  0  0  0  0  0  0
  187.0240  178.2580  136.8300 C   0  0  0  0  0  2  0  0  0  0  0  0
  192.9780  175.9680  138.0700 N   0  0  2  0  0  0  0  0  0  0  0  0
  190.8540  174.7440  137.9970 O   0  0  0  0  0  0  0  0  0  0  0  0
  191.7370  173.3640  135.7800 O   0  0  0  0  0  1  0  0  0  0  0  0
  188.8040  176.5270  136.2680 C   0  0  0  0  0  2  0  0  0  0  0  0
  190.3620  176.0500  138.1530 C   0  0  1  0  0  3  0  0  0  0  0  0
  188.9120  176.1300  137.7440 C   0  0  1  0  0  3  0  0  0  0  0  0
  189.3550  177.3760  139.7750 C   0  0  2  0  0  3  0  0  0  0  0  0
  194.5600  175.4560  136.2630 C   0  0  1  0  0  3  0  0  0  0  0  0
  192.2420  174.7480  137.6750 C   0  0  1  0  0  3  0  0  0  0  0  0
  194.3900  175.7770  137.7540 C   0  0  0  0  0  2  0  0  0  0  0  0
  193.8200  174.3060  135.8900 O   0  0  0  0  0  0  0  0  0  0  0  0
  187.9570  178.4760  138.0250 C   0  0  0  0  0  2  0  0  0  0  0  0
  188.2980  177.1490  138.7040 C   0  0  1  0  0  3  0  0  0  0  0  0
  192.8810  176.1670  139.5110 C   0  0  0  0  0  2  0  0  0  0  0  0
  190.4350  176.4180  139.5630 N   0  0  2  0  0  0  0  0  0  0  0  0
  194.2580  176.6670  135.3800 C   0  0  0  0  0  2  0  0  0  0  0  0
  195.5150  177.3860  135.0290 C   0  0  0  0  0  0  0  0  0  0  0  0
  195.6760  178.7170  135.3880 O   0  0  0  0  0  1  0  0  0  0  0  0
  196.4420  176.7790  134.4340 O   0  0  0  0  0  0  0  0  0  0  0  0
  188.7680  177.2470  141.1850 C   0  0  0  0  0  2  0  0  0  0  0  0
  190.3520  176.4090  142.9430 C   0  0  0  0  0  3  0  0  0  0  0  0
  191.2720  176.6360  143.9700 C   0  0  0  0  0  0  0  0  0  0  0  0
  191.0510  179.0260  143.6380 C   0  0  0  0  0  3  0  0  0  0  0  0
  191.6270  177.9460  144.3130 C   0  0  0  0  0  3  0  0  0  0  0  0
  190.1250  178.7990  142.6160 C   0  0  0  0  0  3  0  0  0  0  0  0
  189.7750  177.4900  142.2640 C   0  0  0  0  0  0  0  0  0  0  0  0
  191.8990  175.4860  144.6770 C   0  0  0  0  0  2  0  0  0  0  0  0
  192.0120  175.7830  146.0940 N   0  0  0  0  0  1  0  0  0  0  0  0
  1  7  1  1  0  0  0
  1 13  1  0  0  0  0
  3  8  1  0  0  0  0
  3  4  1  0  0  0  0
  4 16  1  0  0  0  0
  5 14  1  1  0  0  0
  5 18  1  0  0  0  0
  9  6  1  1  0  0  0
  9 19  1  0  0  0  0
 10  8  1  6  0  0  0
 10  9  1  0  0  0  0
 10 17  1  0  0  0  0
 11 24  1  1  0  0  0
 12 20  1  6  0  0  0
 12 14  1  0  0  0  0
 13  6  1  6  0  0  0
 13  5  1  0  0  0  0
 15  1  1  0  0  0  0
 15 12  1  0  0  0  0
 17 16  1  6  0  0  0
 17 11  1  0  0  0  0
 18  2  1  0  0  0  0
 19 11  1  0  0  0  0
 19  2  1  6  0  0  0
 21 20  1  0  0  0  0
 21 22  1  0  0  0  0
 23 21  2  0  0  0  0
 24 30  1  0  0  0  0
 25 26  1  0  0  0  0
 26 28  2  0  0  0  0
 26 31  1  0  0  0  0
 27 28  1  0  0  0  0
 29 27  2  0  0  0  0
 30 29  1  0  0  0  0
 30 25  2  0  0  0  0
 31 32  1  0  0  0  0
M  END
>  <MODEL>
9

>  <REMARK>
 VINA RESULT:      -6.0      5.023      8.076
  Name = 
  5 active torsions:
  status: ('A' for Active; 'I' for Inactive)
    1  A    between atoms: C_1  and  C_17
    2  A    between atoms: C_7  and  C_22
    3  A    between atoms: C_16  and  C_27
    4  A    between atoms: C_17  and  C_19
    5  A    between atoms: C_27  and  C_32
                            x       y       z     vdW  Elec       q    Type
                         _______ _______ _______ _____ _____    ______ ____

>  <TORSDO>
F 5

$$$$
