=
 OpenBabel10272400333D

 31 35  0  0  1  0  0  0  0  0999 V2000
  185.1150  178.3130  144.6390 C   0  0  2  0  0  3  0  0  0  0  0  0
  188.6380  177.6590  143.4410 C   0  0  0  0  0  0  0  0  0  0  0  0
  189.3960  177.5890  144.6310 C   0  0  0  0  0  0  0  0  0  0  0  0
  188.8340  176.8480  146.9200 C   0  0  0  0  0  3  0  0  0  0  0  0
  187.2090  177.8870  143.4060 N   0  0  0  0  0  0  0  0  0  0  0  0
  184.4070  178.4780  143.2930 C   0  0  0  0  0  2  0  0  0  0  0  0
  188.7980  177.9770  145.9480 C   0  0  0  0  0  2  0  0  0  0  0  0
  188.4890  177.6610  140.9600 C   0  0  2  0  0  3  0  0  0  0  0  0
  185.4850  179.6620  145.2340 C   0  0  0  0  0  1  0  0  0  0  0  0
  191.3410  177.1590  143.3140 N   0  0  0  0  0  0  0  0  0  0  0  0
  189.9710  176.3290  147.3790 C   0  0  0  0  0  3  0  0  0  0  0  0
  187.4700  178.6120  141.1590 O   0  0  0  0  0  0  0  0  0  0  0  0
  189.3040  177.5400  142.2190 C   0  0  0  0  0  0  0  0  0  0  0  0
  186.3500  177.4240  144.4990 C   0  0  0  0  0  2  0  0  0  0  0  0
  191.3200  176.7310  146.9370 C   0  0  0  0  0  3  0  0  0  0  0  0
  186.5660  178.0660  142.0910 C   0  0  2  0  0  3  0  0  0  0  0  0
  185.3630  178.9940  142.2200 C   0  0  0  0  0  2  0  0  0  0  0  0
  190.6350  177.2730  142.1910 N   0  0  0  0  0  0  0  0  0  0  0  0
  190.7740  177.3000  144.5410 C   0  0  0  0  0  0  0  0  0  0  0  0
  191.6610  177.1560  145.7150 C   0  0  0  0  0  3  0  0  0  0  0  0
  189.3500  178.0780  139.7700 C   0  0  0  0  0  2  0  0  0  0  0  0
  191.0530  176.7620  138.4140 C   0  0  0  0  0  1  0  0  0  0  0  0
  189.5850  176.9410  138.7730 C   0  0  2  0  0  3  0  0  0  0  0  0
  186.4100  177.1160  135.9760 C   0  0  2  0  0  3  0  0  0  0  0  0
  188.3010  178.1970  137.1310 C   0  0  0  0  0  3  0  0  0  0  0  0
  188.7420  174.5390  136.9740 C   0  0  0  0  0  1  0  0  0  0  0  0
  185.3080  177.2210  134.5390 S   0  0  0  0  0  1  0  0  0  0  0  0
  187.2780  178.3660  136.0440 C   0  0  0  0  0  2  0  0  0  0  0  0
  187.8540  175.7650  137.1010 C   0  0  1  0  0  3  0  0  0  0  0  0
  188.6410  176.9830  137.5940 C   0  0  0  0  0  0  0  0  0  0  0  0
  187.2440  175.9940  135.8480 O   0  0  0  0  0  0  0  0  0  0  0  0
  1  9  1  6  0  0  0
  2  3  1  0  0  0  0
  3  7  1  0  0  0  0
  4 11  2  0  0  0  0
  5  2  1  0  0  0  0
  5 14  1  0  0  0  0
  6  1  1  0  0  0  0
  7  4  1  0  0  0  0
  8 21  1  6  0  0  0
  8 12  1  0  0  0  0
  8 13  1  0  0  0  0
 10 19  1  0  0  0  0
 12 16  1  0  0  0  0
 13  2  2  0  0  0  0
 14  1  1  0  0  0  0
 15 11  1  0  0  0  0
 16 17  1  1  0  0  0
 16  5  1  0  0  0  0
 17  6  1  0  0  0  0
 18 13  1  0  0  0  0
 18 10  2  0  0  0  0
 19  3  2  0  0  0  0
 19 20  1  0  0  0  0
 20 15  2  0  0  0  0
 23 22  1  6  0  0  0
 23 21  1  0  0  0  0
 24 27  1  6  0  0  0
 24 28  1  0  0  0  0
 25 30  2  0  0  0  0
 28 25  1  0  0  0  0
 29 26  1  6  0  0  0
 29 30  1  0  0  0  0
 30 23  1  0  0  0  0
 31 24  1  0  0  0  0
 31 29  1  0  0  0  0
M  END
>  <MODEL>
1

>  <REMARK>
 VINA RESULT:      -9.7      0.000      0.000
  Name = 
  3 active torsions:
  status: ('A' for Active; 'I' for Inactive)
    1  A    between atoms: C_9  and  C_22
    2  A    between atoms: C_9  and  C_23
    3  A    between atoms: C_15  and  C_23
                            x       y       z     vdW  Elec       q    Type
                         _______ _______ _______ _____ _____    ______ ____

>  <TORSDO>
F 3

$$$$
=
 OpenBabel10272400333D

 31 35  0  0  1  0  0  0  0  0999 V2000
  185.0320  178.3610  144.4550 C   0  0  2  0  0  3  0  0  0  0  0  0
  188.5610  177.8290  143.2170 C   0  0  0  0  0  0  0  0  0  0  0  0
  189.3270  177.7330  144.4000 C   0  0  0  0  0  0  0  0  0  0  0  0
  188.7940  176.8950  146.6620 C   0  0  0  0  0  3  0  0  0  0  0  0
  187.1280  178.0270  143.1970 N   0  0  0  0  0  0  0  0  0  0  0  0
  184.3130  178.5590  143.1190 C   0  0  0  0  0  2  0  0  0  0  0  0
  188.7280  178.0580  145.7330 C   0  0  0  0  0  2  0  0  0  0  0  0
  188.3990  177.9200  140.7390 C   0  0  2  0  0  3  0  0  0  0  0  0
  185.3750  179.6950  145.0980 C   0  0  0  0  0  1  0  0  0  0  0  0
  191.2740  177.3940  143.0590 N   0  0  0  0  0  0  0  0  0  0  0  0
  189.9450  176.3850  147.0970 C   0  0  0  0  0  3  0  0  0  0  0  0
  187.3600  178.8400  140.9770 O   0  0  0  0  0  0  0  0  0  0  0  0
  189.2240  177.7700  141.9880 C   0  0  0  0  0  0  0  0  0  0  0  0
  186.2850  177.5050  144.2760 C   0  0  0  0  0  2  0  0  0  0  0  0
  191.2820  176.8320  146.6640 C   0  0  0  0  0  3  0  0  0  0  0  0
  186.4730  178.2400  141.8930 C   0  0  2  0  0  3  0  0  0  0  0  0
  185.2520  179.1360  142.0610 C   0  0  0  0  0  2  0  0  0  0  0  0
  190.5600  177.5340  141.9440 N   0  0  0  0  0  0  0  0  0  0  0  0
  190.7110  177.4770  144.2930 C   0  0  0  0  0  0  0  0  0  0  0  0
  191.6070  177.3100  145.4570 C   0  0  0  0  0  3  0  0  0  0  0  0
  189.2440  178.4000  139.5600 C   0  0  0  0  0  2  0  0  0  0  0  0
  187.5020  177.0520  138.2870 C   0  0  0  0  0  1  0  0  0  0  0  0
  188.8650  177.7270  138.2390 C   0  0  2  0  0  3  0  0  0  0  0  0
  192.3910  175.9580  136.6980 C   0  0  2  0  0  3  0  0  0  0  0  0
  190.7860  176.2660  138.5460 C   0  0  0  0  0  3  0  0  0  0  0  0
  189.1840  176.8260  135.2720 C   0  0  0  0  0  1  0  0  0  0  0  0
  193.7190  174.8980  136.0640 S   0  0  0  0  0  1  0  0  0  0  0  0
  191.9960  175.4970  138.0960 C   0  0  0  0  0  2  0  0  0  0  0  0
  190.3890  176.9130  136.1920 C   0  0  1  0  0  3  0  0  0  0  0  0
  189.9770  176.8780  137.6670 C   0  0  0  0  0  0  0  0  0  0  0  0
  191.2700  175.8600  135.8580 O   0  0  0  0  0  0  0  0  0  0  0  0
  1  9  1  6  0  0  0
  2  3  1  0  0  0  0
  3  7  1  0  0  0  0
  4 11  2  0  0  0  0
  5  2  1  0  0  0  0
  5 14  1  0  0  0  0
  6  1  1  0  0  0  0
  7  4  1  0  0  0  0
  8 21  1  6  0  0  0
  8 12  1  0  0  0  0
  8 13  1  0  0  0  0
 10 19  1  0  0  0  0
 12 16  1  0  0  0  0
 13  2  2  0  0  0  0
 14  1  1  0  0  0  0
 15 11  1  0  0  0  0
 16 17  1  1  0  0  0
 16  5  1  0  0  0  0
 17  6  1  0  0  0  0
 18 13  1  0  0  0  0
 18 10  2  0  0  0  0
 19  3  2  0  0  0  0
 19 20  1  0  0  0  0
 20 15  2  0  0  0  0
 23 22  1  1  0  0  0
 23 21  1  0  0  0  0
 24 27  1  6  0  0  0
 24 28  1  0  0  0  0
 28 25  1  0  0  0  0
 29 26  1  6  0  0  0
 29 30  1  0  0  0  0
 30 23  1  0  0  0  0
 30 25  2  0  0  0  0
 31 29  1  0  0  0  0
 31 24  1  0  0  0  0
M  END
>  <MODEL>
2

>  <REMARK>
 VINA RESULT:      -9.2      2.006      2.625
  Name = 
  3 active torsions:
  status: ('A' for Active; 'I' for Inactive)
    1  A    between atoms: C_9  and  C_22
    2  A    between atoms: C_9  and  C_23
    3  A    between atoms: C_15  and  C_23
                            x       y       z     vdW  Elec       q    Type
                         _______ _______ _______ _____ _____    ______ ____

>  <TORSDO>
F 3

$$$$
=
 OpenBabel10272400333D

 31 35  0  0  1  0  0  0  0  0999 V2000
  189.8670  176.0670  136.6200 C   0  0  2  0  0  3  0  0  0  0  0  0
  188.2990  177.5560  139.7180 C   0  0  0  0  0  0  0  0  0  0  0  0
  187.0610  178.0640  139.2640 C   0  0  0  0  0  0  0  0  0  0  0  0
  185.5270  177.3440  137.4670 C   0  0  0  0  0  3  0  0  0  0  0  0
  189.2530  176.8750  138.8690 N   0  0  0  0  0  0  0  0  0  0  0  0
  191.2240  175.6500  137.1890 C   0  0  0  0  0  2  0  0  0  0  0  0
  186.7470  178.1310  137.8020 C   0  0  0  0  0  2  0  0  0  0  0  0
  189.9890  177.2440  141.5130 C   0  0  2  0  0  3  0  0  0  0  0  0
  189.9530  177.4130  135.9220 C   0  0  0  0  0  1  0  0  0  0  0  0
  186.5850  178.7720  141.4950 N   0  0  0  0  0  0  0  0  0  0  0  0
  184.3190  177.6560  137.9300 C   0  0  0  0  0  3  0  0  0  0  0  0
  190.9240  177.4050  140.4720 O   0  0  0  0  0  0  0  0  0  0  0  0
  188.6490  177.7520  141.0570 C   0  0  0  0  0  0  0  0  0  0  0  0
  188.8030  176.0900  137.7170 C   0  0  0  0  0  2  0  0  0  0  0  0
  184.0370  178.7460  138.8830 C   0  0  0  0  0  3  0  0  0  0  0  0
  190.5610  176.5120  139.4450 C   0  0  2  0  0  3  0  0  0  0  0  0
  191.6340  176.5380  138.3620 C   0  0  0  0  0  2  0  0  0  0  0  0
  187.7720  178.3370  141.9120 N   0  0  0  0  0  0  0  0  0  0  0  0
  186.1860  178.6540  140.2010 C   0  0  0  0  0  0  0  0  0  0  0  0
  184.8480  179.1780  139.8560 C   0  0  0  0  0  3  0  0  0  0  0  0
  190.4790  177.9850  142.7560 C   0  0  0  0  0  2  0  0  0  0  0  0
  191.3170  175.6490  143.3130 C   0  0  0  0  0  1  0  0  0  0  0  0
  191.0260  177.0480  143.8350 C   0  0  2  0  0  3  0  0  0  0  0  0
  188.9470  177.9040  147.4240 C   0  0  2  0  0  3  0  0  0  0  0  0
  188.9240  177.3860  145.0130 C   0  0  0  0  0  3  0  0  0  0  0  0
  191.9540  176.0550  146.6410 C   0  0  0  0  0  1  0  0  0  0  0  0
  187.9400  177.9380  148.9320 S   0  0  0  0  0  1  0  0  0  0  0  0
  188.0610  177.5800  146.2280 C   0  0  0  0  0  2  0  0  0  0  0  0
  190.8750  177.1160  146.5090 C   0  0  1  0  0  3  0  0  0  0  0  0
  190.2300  177.0970  145.1190 C   0  0  0  0  0  0  0  0  0  0  0  0
  189.9310  176.9090  147.5390 O   0  0  0  0  0  0  0  0  0  0  0  0
  1  9  1  1  0  0  0
  1  6  1  0  0  0  0
  1 14  1  0  0  0  0
  2 13  1  0  0  0  0
  3  2  2  0  0  0  0
  3 19  1  0  0  0  0
  4  7  1  0  0  0  0
  4 11  2  0  0  0  0
  5 16  1  0  0  0  0
  5  2  1  0  0  0  0
  6 17  1  0  0  0  0
  7  3  1  0  0  0  0
  8 21  1  1  0  0  0
 10 18  1  0  0  0  0
 11 15  1  0  0  0  0
 12  8  1  0  0  0  0
 13  8  1  0  0  0  0
 13 18  2  0  0  0  0
 14  5  1  0  0  0  0
 15 20  2  0  0  0  0
 16 17  1  6  0  0  0
 16 12  1  0  0  0  0
 19 10  2  0  0  0  0
 20 19  1  0  0  0  0
 21 23  1  0  0  0  0
 23 22  1  6  0  0  0
 23 30  1  0  0  0  0
 24 31  1  0  0  0  0
 24 27  1  1  0  0  0
 25 30  2  0  0  0  0
 25 28  1  0  0  0  0
 28 24  1  0  0  0  0
 29 26  1  6  0  0  0
 29 31  1  0  0  0  0
 30 29  1  0  0  0  0
M  END
>  <MODEL>
3

>  <REMARK>
 VINA RESULT:      -9.2      3.471      8.234
  Name = 
  3 active torsions:
  status: ('A' for Active; 'I' for Inactive)
    1  A    between atoms: C_9  and  C_22
    2  A    between atoms: C_9  and  C_23
    3  A    between atoms: C_15  and  C_23
                            x       y       z     vdW  Elec       q    Type
                         _______ _______ _______ _____ _____    ______ ____

>  <TORSDO>
F 3

$$$$
=
 OpenBabel10272400333D

 31 35  0  0  1  0  0  0  0  0999 V2000
  190.6870  176.9020  147.0150 C   0  0  2  0  0  3  0  0  0  0  0  0
  188.3890  177.5060  144.0770 C   0  0  0  0  0  0  0  0  0  0  0  0
  187.1250  177.7190  144.6710 C   0  0  0  0  0  0  0  0  0  0  0  0
  186.4490  178.6860  146.8410 C   0  0  0  0  0  3  0  0  0  0  0  0
  189.5990  177.2420  144.8270 N   0  0  0  0  0  0  0  0  0  0  0  0
  191.9840  176.5790  146.2700 C   0  0  0  0  0  2  0  0  0  0  0  0
  186.9060  177.4600  146.1290 C   0  0  0  0  0  2  0  0  0  0  0  0
  189.8250  177.2360  142.0660 C   0  0  2  0  0  3  0  0  0  0  0  0
  189.9580  175.6330  147.4240 C   0  0  0  0  0  1  0  0  0  0  0  0
  186.2080  178.0510  142.4900 N   0  0  0  0  0  0  0  0  0  0  0  0
  185.2840  179.2770  146.5810 C   0  0  0  0  0  3  0  0  0  0  0  0
  190.5100  176.2880  142.8510 O   0  0  0  0  0  0  0  0  0  0  0  0
  188.4800  177.5090  142.6830 C   0  0  0  0  0  0  0  0  0  0  0  0
  189.7840  177.7990  146.1690 C   0  0  0  0  0  2  0  0  0  0  0  0
  184.3460  178.8620  145.5220 C   0  0  0  0  0  3  0  0  0  0  0  0
  190.8240  176.9090  144.0750 C   0  0  2  0  0  3  0  0  0  0  0  0
  191.7030  175.9730  144.8970 C   0  0  0  0  0  2  0  0  0  0  0  0
  187.3890  177.8010  141.9290 N   0  0  0  0  0  0  0  0  0  0  0  0
  186.0290  178.0280  143.8370 C   0  0  0  0  0  0  0  0  0  0  0  0
  184.6700  178.3170  144.3440 C   0  0  0  0  0  3  0  0  0  0  0  0
  189.6930  176.7140  140.6370 C   0  0  0  0  0  2  0  0  0  0  0  0
  189.1460  178.4570  138.8670 C   0  0  0  0  0  1  0  0  0  0  0  0
  190.2410  177.6880  139.5910 C   0  0  2  0  0  3  0  0  0  0  0  0
  192.9020  175.3000  137.3200 C   0  0  2  0  0  3  0  0  0  0  0  0
  190.8930  176.7240  137.4530 C   0  0  0  0  0  3  0  0  0  0  0  0
  193.3140  177.5710  140.1030 C   0  0  0  0  0  1  0  0  0  0  0  0
  194.1240  174.5830  136.1880 S   0  0  0  0  0  1  0  0  0  0  0  0
  191.8070  175.9890  136.5150 C   0  0  0  0  0  2  0  0  0  0  0  0
  192.6370  176.5560  139.1980 C   0  0  1  0  0  3  0  0  0  0  0  0
  191.2840  177.0640  138.6920 C   0  0  0  0  0  0  0  0  0  0  0  0
  193.5240  176.2530  138.1410 O   0  0  0  0  0  0  0  0  0  0  0  0
  1  9  1  6  0  0  0
  2  3  1  0  0  0  0
  2  5  1  0  0  0  0
  3  7  1  0  0  0  0
  5 14  1  0  0  0  0
  6  1  1  0  0  0  0
  7  4  1  0  0  0  0
  8 21  1  6  0  0  0
  8 13  1  0  0  0  0
  8 12  1  0  0  0  0
 10 19  1  0  0  0  0
 11  4  2  0  0  0  0
 12 16  1  0  0  0  0
 13  2  2  0  0  0  0
 14  1  1  0  0  0  0
 15 11  1  0  0  0  0
 16  5  1  0  0  0  0
 16 17  1  1  0  0  0
 17  6  1  0  0  0  0
 18 10  2  0  0  0  0
 18 13  1  0  0  0  0
 19 20  1  0  0  0  0
 19  3  2  0  0  0  0
 20 15  2  0  0  0  0
 23 22  1  6  0  0  0
 23 21  1  0  0  0  0
 24 27  1  6  0  0  0
 24 31  1  0  0  0  0
 25 30  2  0  0  0  0
 28 24  1  0  0  0  0
 28 25  1  0  0  0  0
 29 26  1  1  0  0  0
 30 29  1  0  0  0  0
 30 23  1  0  0  0  0
 31 29  1  0  0  0  0
M  END
>  <MODEL>
4

>  <REMARK>
 VINA RESULT:      -9.1      2.819      5.065
  Name = 
  3 active torsions:
  status: ('A' for Active; 'I' for Inactive)
    1  A    between atoms: C_9  and  C_22
    2  A    between atoms: C_9  and  C_23
    3  A    between atoms: C_15  and  C_23
                            x       y       z     vdW  Elec       q    Type
                         _______ _______ _______ _____ _____    ______ ____

>  <TORSDO>
F 3

$$$$
=
 OpenBabel10272400333D

 31 35  0  0  1  0  0  0  0  0999 V2000
  190.5920  177.1510  142.9710 C   0  0  2  0  0  3  0  0  0  0  0  0
  187.0980  178.1400  141.9310 C   0  0  0  0  0  0  0  0  0  0  0  0
  186.3490  178.0570  143.1260 C   0  0  0  0  0  0  0  0  0  0  0  0
  186.9550  178.4070  145.4950 C   0  0  0  0  0  3  0  0  0  0  0  0
  188.5150  177.8570  141.8440 N   0  0  0  0  0  0  0  0  0  0  0  0
  191.2860  177.1680  141.6080 C   0  0  0  0  0  2  0  0  0  0  0  0
  186.9350  177.4420  144.3590 C   0  0  0  0  0  2  0  0  0  0  0  0
  187.2350  178.5180  139.4780 C   0  0  2  0  0  3  0  0  0  0  0  0
  190.1650  175.7440  143.3530 C   0  0  0  0  0  1  0  0  0  0  0  0
  184.4190  178.7730  141.9140 N   0  0  0  0  0  0  0  0  0  0  0  0
  185.8450  178.8970  146.0430 C   0  0  0  0  0  3  0  0  0  0  0  0
  188.2110  177.5040  139.5150 O   0  0  0  0  0  0  0  0  0  0  0  0
  186.4320  178.4770  140.7490 C   0  0  0  0  0  0  0  0  0  0  0  0
  189.3990  178.1050  142.9850 C   0  0  0  0  0  2  0  0  0  0  0  0
  184.4780  178.6290  145.5600 C   0  0  0  0  0  3  0  0  0  0  0  0
  189.1430  177.8570  140.5100 C   0  0  2  0  0  3  0  0  0  0  0  0
  190.3030  176.8680  140.4780 C   0  0  0  0  0  2  0  0  0  0  0  0
  185.1140  178.8040  140.7790 N   0  0  0  0  0  0  0  0  0  0  0  0
  184.9850  178.4170  143.0980 C   0  0  0  0  0  0  0  0  0  0  0  0
  184.1120  178.4160  144.2910 C   0  0  0  0  0  3  0  0  0  0  0  0
  186.3500  178.3300  138.2470 C   0  0  0  0  0  2  0  0  0  0  0  0
  187.3060  178.2350  135.8920 C   0  0  0  0  0  1  0  0  0  0  0  0
  187.0030  177.4630  137.1680 C   0  0  2  0  0  3  0  0  0  0  0  0
  184.9660  173.7530  137.3260 C   0  0  2  0  0  3  0  0  0  0  0  0
  184.9550  176.1790  136.8820 C   0  0  0  0  0  3  0  0  0  0  0  0
  188.3180  174.7440  136.4000 C   0  0  0  0  0  1  0  0  0  0  0  0
  184.0720  172.2010  137.0430 S   0  0  0  0  0  1  0  0  0  0  0  0
  184.1400  174.9200  136.8010 C   0  0  0  0  0  2  0  0  0  0  0  0
  186.9840  174.7850  137.1250 C   0  0  1  0  0  3  0  0  0  0  0  0
  186.2950  176.1430  136.9630 C   0  0  0  0  0  0  0  0  0  0  0  0
  186.1900  173.7220  136.6390 O   0  0  0  0  0  0  0  0  0  0  0  0
  1 14  1  0  0  0  0
  1  9  1  6  0  0  0
  2  3  1  0  0  0  0
  3  7  1  0  0  0  0
  4 11  2  0  0  0  0
  5  2  1  0  0  0  0
  5 14  1  0  0  0  0
  6  1  1  0  0  0  0
  7  4  1  0  0  0  0
  8 21  1  6  0  0  0
  8 12  1  0  0  0  0
  8 13  1  0  0  0  0
 10 19  1  0  0  0  0
 12 16  1  0  0  0  0
 13 18  1  0  0  0  0
 13  2  2  0  0  0  0
 15 11  1  0  0  0  0
 16 17  1  1  0  0  0
 16  5  1  0  0  0  0
 17  6  1  0  0  0  0
 18 10  2  0  0  0  0
 19  3  2  0  0  0  0
 19 20  1  0  0  0  0
 20 15  2  0  0  0  0
 23 22  1  6  0  0  0
 23 21  1  0  0  0  0
 24 27  1  6  0  0  0
 25 30  2  0  0  0  0
 28 25  1  0  0  0  0
 28 24  1  0  0  0  0
 29 26  1  6  0  0  0
 30 29  1  0  0  0  0
 30 23  1  0  0  0  0
 31 29  1  0  0  0  0
 31 24  1  0  0  0  0
M  END
>  <MODEL>
5

>  <REMARK>
 VINA RESULT:      -9.1      2.182      4.554
  Name = 
  3 active torsions:
  status: ('A' for Active; 'I' for Inactive)
    1  A    between atoms: C_9  and  C_22
    2  A    between atoms: C_9  and  C_23
    3  A    between atoms: C_15  and  C_23
                            x       y       z     vdW  Elec       q    Type
                         _______ _______ _______ _____ _____    ______ ____

>  <TORSDO>
F 3

$$$$
=
 OpenBabel10272400333D

 31 35  0  0  1  0  0  0  0  0999 V2000
  190.7570  177.5370  144.7150 C   0  0  2  0  0  3  0  0  0  0  0  0
  187.6180  178.1670  142.7100 C   0  0  0  0  0  0  0  0  0  0  0  0
  186.5820  178.0970  143.6670 C   0  0  0  0  0  0  0  0  0  0  0  0
  186.5030  178.6430  146.0750 C   0  0  0  0  0  3  0  0  0  0  0  0
  189.0210  177.9970  143.0240 N   0  0  0  0  0  0  0  0  0  0  0  0
  191.7910  177.5260  143.5860 C   0  0  0  0  0  2  0  0  0  0  0  0
  186.8500  177.6110  145.0580 C   0  0  0  0  0  2  0  0  0  0  0  0
  188.3880  178.4010  140.3580 C   0  0  2  0  0  3  0  0  0  0  0  0
  190.3320  176.1260  145.0850 C   0  0  0  0  0  1  0  0  0  0  0  0
  185.0090  178.5750  141.9340 N   0  0  0  0  0  0  0  0  0  0  0  0
  185.2580  179.0740  146.2680 C   0  0  0  0  0  3  0  0  0  0  0  0
  189.3790  177.4750  140.7350 O   0  0  0  0  0  0  0  0  0  0  0  0
  187.2750  178.3740  141.3710 C   0  0  0  0  0  0  0  0  0  0  0  0
  189.5470  178.3880  144.3340 C   0  0  0  0  0  2  0  0  0  0  0  0
  184.0910  178.6640  145.4640 C   0  0  0  0  0  3  0  0  0  0  0  0
  189.9840  177.9650  141.9080 C   0  0  2  0  0  3  0  0  0  0  0  0
  191.1690  177.0760  142.2660 C   0  0  0  0  0  2  0  0  0  0  0  0
  185.9810  178.5920  141.0240 N   0  0  0  0  0  0  0  0  0  0  0  0
  185.2560  178.3410  143.2500 C   0  0  0  0  0  0  0  0  0  0  0  0
  184.0950  178.3420  144.1650 C   0  0  0  0  0  3  0  0  0  0  0  0
  187.8810  178.0640  138.9570 C   0  0  0  0  0  2  0  0  0  0  0  0
  189.0160  179.1970  136.9820 C   0  0  0  0  0  1  0  0  0  0  0  0
  189.0010  177.9960  137.9160 C   0  0  2  0  0  3  0  0  0  0  0  0
  188.7400  174.0200  136.4810 C   0  0  2  0  0  3  0  0  0  0  0  0
  188.2060  176.4160  136.2450 C   0  0  0  0  0  3  0  0  0  0  0  0
  191.3120  175.9190  138.1700 C   0  0  0  0  0  1  0  0  0  0  0  0
  188.8260  172.4370  135.6000 S   0  0  0  0  0  1  0  0  0  0  0  0
  188.1180  175.0740  135.5740 C   0  0  0  0  0  2  0  0  0  0  0  0
  189.9130  175.4820  137.7710 C   0  0  1  0  0  3  0  0  0  0  0  0
  189.0880  176.6530  137.2290 C   0  0  0  0  0  0  0  0  0  0  0  0
  190.0350  174.4330  136.8310 O   0  0  0  0  0  0  0  0  0  0  0  0
  1  9  1  6  0  0  0
  2  5  1  0  0  0  0
  2  3  1  0  0  0  0
  3  7  1  0  0  0  0
  4 11  2  0  0  0  0
  5 14  1  0  0  0  0
  6  1  1  0  0  0  0
  7  4  1  0  0  0  0
  8 21  1  6  0  0  0
  8 12  1  0  0  0  0
  8 13  1  0  0  0  0
 10 19  1  0  0  0  0
 12 16  1  0  0  0  0
 13  2  2  0  0  0  0
 14  1  1  0  0  0  0
 15 11  1  0  0  0  0
 16 17  1  1  0  0  0
 16  5  1  0  0  0  0
 17  6  1  0  0  0  0
 18 13  1  0  0  0  0
 18 10  2  0  0  0  0
 19  3  2  0  0  0  0
 19 20  1  0  0  0  0
 20 15  2  0  0  0  0
 23 22  1  6  0  0  0
 23 21  1  0  0  0  0
 24 27  1  6  0  0  0
 24 31  1  0  0  0  0
 25 30  2  0  0  0  0
 28 25  1  0  0  0  0
 28 24  1  0  0  0  0
 29 26  1  6  0  0  0
 30 29  1  0  0  0  0
 30 23  1  0  0  0  0
 31 29  1  0  0  0  0
M  END
>  <MODEL>
6

>  <REMARK>
 VINA RESULT:      -9.0      1.926      4.353
  Name = 
  3 active torsions:
  status: ('A' for Active; 'I' for Inactive)
    1  A    between atoms: C_9  and  C_22
    2  A    between atoms: C_9  and  C_23
    3  A    between atoms: C_15  and  C_23
                            x       y       z     vdW  Elec       q    Type
                         _______ _______ _______ _____ _____    ______ ____

>  <TORSDO>
F 3

$$$$
=
 OpenBabel10272400333D

 31 35  0  0  1  0  0  0  0  0999 V2000
  185.1770  178.3220  146.4300 C   0  0  2  0  0  3  0  0  0  0  0  0
  187.6890  177.9610  143.6320 C   0  0  0  0  0  0  0  0  0  0  0  0
  188.9260  177.8210  144.2990 C   0  0  0  0  0  0  0  0  0  0  0  0
  189.5340  176.8430  146.4850 C   0  0  0  0  0  3  0  0  0  0  0  0
  186.4190  178.1190  144.3090 N   0  0  0  0  0  0  0  0  0  0  0  0
  183.9090  178.5740  145.6130 C   0  0  0  0  0  2  0  0  0  0  0  0
  189.0350  178.0540  145.7740 C   0  0  0  0  0  2  0  0  0  0  0  0
  186.3650  178.1850  141.5400 C   0  0  2  0  0  3  0  0  0  0  0  0
  185.7870  179.6270  146.9140 C   0  0  0  0  0  1  0  0  0  0  0  0
  189.9980  177.6130  142.1750 N   0  0  0  0  0  0  0  0  0  0  0  0
  190.7520  176.3420  146.2870 C   0  0  0  0  0  3  0  0  0  0  0  0
  185.5670  179.0610  142.3010 O   0  0  0  0  0  0  0  0  0  0  0  0
  187.6850  177.9900  142.2340 C   0  0  0  0  0  0  0  0  0  0  0  0
  186.1920  177.5140  145.6230 C   0  0  0  0  0  2  0  0  0  0  0  0
  191.7220  176.8510  145.2990 C   0  0  0  0  0  3  0  0  0  0  0  0
  185.2230  178.3860  143.4890 C   0  0  2  0  0  3  0  0  0  0  0  0
  184.2300  179.2350  144.2740 C   0  0  0  0  0  2  0  0  0  0  0  0
  188.8380  177.7950  141.5450 N   0  0  0  0  0  0  0  0  0  0  0  0
  190.0910  177.6110  143.5300 C   0  0  0  0  0  0  0  0  0  0  0  0
  191.4330  177.4040  144.1150 C   0  0  0  0  0  3  0  0  0  0  0  0
  186.5470  178.7540  140.1340 C   0  0  0  0  0  2  0  0  0  0  0  0
  186.5480  177.8940  137.7400 C   0  0  0  0  0  1  0  0  0  0  0  0
  185.8000  177.9550  139.0640 C   0  0  2  0  0  3  0  0  0  0  0  0
  181.7220  179.0160  139.4950 C   0  0  2  0  0  3  0  0  0  0  0  0
  184.0490  179.6430  138.9730 C   0  0  0  0  0  3  0  0  0  0  0  0
  183.4400  176.0700  138.2920 C   0  0  0  0  0  1  0  0  0  0  0  0
  179.9890  179.5230  139.3300 S   0  0  0  0  0  1  0  0  0  0  0  0
  182.6290  180.1320  138.9930 C   0  0  0  0  0  2  0  0  0  0  0  0
  183.1960  177.3250  139.1110 C   0  0  1  0  0  3  0  0  0  0  0  0
  184.3400  178.3320  138.9550 C   0  0  0  0  0  0  0  0  0  0  0  0
  181.9510  177.8670  138.7210 O   0  0  0  0  0  0  0  0  0  0  0  0
  1  9  1  6  0  0  0
  2  3  1  0  0  0  0
  2  5  1  0  0  0  0
  3  7  1  0  0  0  0
  5 14  1  0  0  0  0
  6  1  1  0  0  0  0
  7  4  1  0  0  0  0
  8 21  1  6  0  0  0
  8 13  1  0  0  0  0
  8 12  1  0  0  0  0
 10 19  1  0  0  0  0
 11  4  2  0  0  0  0
 12 16  1  0  0  0  0
 13  2  2  0  0  0  0
 14  1  1  0  0  0  0
 15 11  1  0  0  0  0
 16 17  1  1  0  0  0
 16  5  1  0  0  0  0
 17  6  1  0  0  0  0
 18 10  2  0  0  0  0
 18 13  1  0  0  0  0
 19 20  1  0  0  0  0
 19  3  2  0  0  0  0
 20 15  2  0  0  0  0
 23 22  1  6  0  0  0
 23 21  1  0  0  0  0
 24 27  1  6  0  0  0
 25 28  1  0  0  0  0
 28 24  1  0  0  0  0
 29 26  1  6  0  0  0
 30 25  2  0  0  0  0
 30 23  1  0  0  0  0
 30 29  1  0  0  0  0
 31 29  1  0  0  0  0
 31 24  1  0  0  0  0
M  END
>  <MODEL>
7

>  <REMARK>
 VINA RESULT:      -8.7      2.775      3.479
  Name = 
  3 active torsions:
  status: ('A' for Active; 'I' for Inactive)
    1  A    between atoms: C_9  and  C_22
    2  A    between atoms: C_9  and  C_23
    3  A    between atoms: C_15  and  C_23
                            x       y       z     vdW  Elec       q    Type
                         _______ _______ _______ _____ _____    ______ ____

>  <TORSDO>
F 3

$$$$
=
 OpenBabel10272400333D

 31 35  0  0  1  0  0  0  0  0999 V2000
  190.9910  176.4690  143.4660 C   0  0  2  0  0  3  0  0  0  0  0  0
  188.5880  177.7430  140.8440 C   0  0  0  0  0  0  0  0  0  0  0  0
  189.3230  177.6650  139.6400 C   0  0  0  0  0  0  0  0  0  0  0  0
  191.1070  176.1360  138.8770 C   0  0  0  0  0  3  0  0  0  0  0  0
  189.1070  177.3430  142.1350 N   0  0  0  0  0  0  0  0  0  0  0  0
  190.1500  176.6940  144.7240 C   0  0  0  0  0  2  0  0  0  0  0  0
  190.7910  177.3690  139.6530 C   0  0  0  0  0  2  0  0  0  0  0  0
  186.5430  178.3900  142.1000 C   0  0  2  0  0  3  0  0  0  0  0  0
  191.9640  177.6150  143.2430 C   0  0  0  0  0  1  0  0  0  0  0  0
  187.4130  178.4970  138.4720 N   0  0  0  0  0  0  0  0  0  0  0  0
  190.9110  176.0420  137.5640 C   0  0  0  0  0  3  0  0  0  0  0  0
  187.4460  178.7180  143.1300 O   0  0  0  0  0  0  0  0  0  0  0  0
  187.2950  178.2730  140.8030 C   0  0  0  0  0  0  0  0  0  0  0  0
  190.0970  176.2690  142.2430 C   0  0  0  0  0  2  0  0  0  0  0  0
  190.2900  177.0850  136.7270 C   0  0  0  0  0  3  0  0  0  0  0  0
  188.2780  177.6000  143.3270 C   0  0  2  0  0  3  0  0  0  0  0  0
  189.1690  177.8500  144.5380 C   0  0  0  0  0  2  0  0  0  0  0  0
  186.7370  178.6160  139.6140 N   0  0  0  0  0  0  0  0  0  0  0  0
  188.6870  178.0270  138.4330 C   0  0  0  0  0  0  0  0  0  0  0  0
  189.3370  177.9440  137.1080 C   0  0  0  0  0  3  0  0  0  0  0  0
  185.4500  179.4540  142.0230 C   0  0  0  0  0  2  0  0  0  0  0  0
  184.4980  178.3110  144.0860 C   0  0  0  0  0  1  0  0  0  0  0  0
  184.1920  179.0770  142.8080 C   0  0  2  0  0  3  0  0  0  0  0  0
  181.2340  177.9820  139.9810 C   0  0  2  0  0  3  0  0  0  0  0  0
  183.5220  177.7590  140.8750 C   0  0  0  0  0  3  0  0  0  0  0  0
  181.1600  178.8390  143.4930 C   0  0  0  0  0  1  0  0  0  0  0  0
  179.9820  177.1970  138.9290 S   0  0  0  0  0  1  0  0  0  0  0  0
  182.5430  177.2090  139.8760 C   0  0  0  0  0  2  0  0  0  0  0  0
  181.6330  178.8410  142.0500 C   0  0  1  0  0  3  0  0  0  0  0  0
  183.1140  178.4660  141.9410 C   0  0  0  0  0  0  0  0  0  0  0  0
  180.8040  177.9610  141.3180 O   0  0  0  0  0  0  0  0  0  0  0  0
  1  9  1  6  0  0  0
  1  6  1  0  0  0  0
  2  5  1  0  0  0  0
  3  7  1  0  0  0  0
  3  2  2  0  0  0  0
  4  7  1  0  0  0  0
  5 14  1  0  0  0  0
  5 16  1  0  0  0  0
  8 21  1  6  0  0  0
  8 12  1  0  0  0  0
 10 18  1  0  0  0  0
 11  4  2  0  0  0  0
 12 16  1  0  0  0  0
 13  2  1  0  0  0  0
 13  8  1  0  0  0  0
 14  1  1  0  0  0  0
 15 20  2  0  0  0  0
 15 11  1  0  0  0  0
 16 17  1  1  0  0  0
 17  6  1  0  0  0  0
 18 13  2  0  0  0  0
 19 10  2  0  0  0  0
 19  3  1  0  0  0  0
 20 19  1  0  0  0  0
 21 23  1  0  0  0  0
 23 22  1  1  0  0  0
 24 27  1  6  0  0  0
 24 31  1  0  0  0  0
 25 30  2  0  0  0  0
 28 24  1  0  0  0  0
 28 25  1  0  0  0  0
 29 26  1  1  0  0  0
 30 29  1  0  0  0  0
 30 23  1  0  0  0  0
 31 29  1  0  0  0  0
M  END
>  <MODEL>
8

>  <REMARK>
 VINA RESULT:      -8.6      2.720      6.636
  Name = 
  3 active torsions:
  status: ('A' for Active; 'I' for Inactive)
    1  A    between atoms: C_9  and  C_22
    2  A    between atoms: C_9  and  C_23
    3  A    between atoms: C_15  and  C_23
                            x       y       z     vdW  Elec       q    Type
                         _______ _______ _______ _____ _____    ______ ____

>  <TORSDO>
F 3

$$$$
=
 OpenBabel10272400333D

 31 35  0  0  1  0  0  0  0  0999 V2000
  185.0510  178.3200  145.1380 C   0  0  2  0  0  3  0  0  0  0  0  0
  188.3590  177.7550  143.4020 C   0  0  0  0  0  0  0  0  0  0  0  0
  189.2890  177.6640  144.4610 C   0  0  0  0  0  0  0  0  0  0  0  0
  189.0890  176.8500  146.7840 C   0  0  0  0  0  3  0  0  0  0  0  0
  186.9380  177.9620  143.5900 N   0  0  0  0  0  0  0  0  0  0  0  0
  184.1450  178.5110  143.9190 C   0  0  0  0  0  2  0  0  0  0  0  0
  188.8930  178.0050  145.8640 C   0  0  0  0  0  2  0  0  0  0  0  0
  187.8350  177.8250  140.9730 C   0  0  2  0  0  3  0  0  0  0  0  0
  185.4910  179.6570  145.7100 C   0  0  0  0  0  1  0  0  0  0  0  0
  191.0170  177.3010  142.8520 N   0  0  0  0  0  0  0  0  0  0  0  0
  190.2880  176.3360  147.0510 C   0  0  0  0  0  3  0  0  0  0  0  0
  186.8470  178.7540  141.3520 O   0  0  0  0  0  0  0  0  0  0  0  0
  188.8330  177.6810  142.0890 C   0  0  0  0  0  0  0  0  0  0  0  0
  186.2600  177.4550  144.7850 C   0  0  0  0  0  2  0  0  0  0  0  0
  191.5490  176.7710  146.4230 C   0  0  0  0  0  3  0  0  0  0  0  0
  186.1010  178.1680  142.3930 C   0  0  2  0  0  3  0  0  0  0  0  0
  184.9220  179.0730  142.7300 C   0  0  0  0  0  2  0  0  0  0  0  0
  190.1480  177.4360  141.8520 N   0  0  0  0  0  0  0  0  0  0  0  0
  190.6410  177.3990  144.1540 C   0  0  0  0  0  0  0  0  0  0  0  0
  191.6960  177.2360  145.1760 C   0  0  0  0  0  3  0  0  0  0  0  0
  188.5010  178.2890  139.6790 C   0  0  0  0  0  2  0  0  0  0  0  0
  186.1380  178.3170  138.7360 C   0  0  0  0  0  1  0  0  0  0  0  0
  187.6160  178.0930  138.4460 C   0  0  2  0  0  3  0  0  0  0  0  0
  188.4240  174.2050  136.9740 C   0  0  2  0  0  3  0  0  0  0  0  0
  186.8860  176.1160  137.2290 C   0  0  0  0  0  3  0  0  0  0  0  0
  190.4080  177.2000  137.3850 C   0  0  0  0  0  1  0  0  0  0  0  0
  188.7490  172.6930  136.0250 S   0  0  0  0  0  1  0  0  0  0  0  0
  187.0730  174.7790  136.5680 C   0  0  0  0  0  2  0  0  0  0  0  0
  189.3200  176.1780  137.6670 C   0  0  1  0  0  3  0  0  0  0  0  0
  187.9310  176.8240  137.6880 C   0  0  0  0  0  0  0  0  0  0  0  0
  189.4190  175.1560  136.6970 O   0  0  0  0  0  0  0  0  0  0  0  0
  1  9  1  6  0  0  0
  2  5  1  0  0  0  0
  2  3  1  0  0  0  0
  3  7  1  0  0  0  0
  4 11  2  0  0  0  0
  5 14  1  0  0  0  0
  6  1  1  0  0  0  0
  7  4  1  0  0  0  0
  8 21  1  6  0  0  0
  8 12  1  0  0  0  0
  8 13  1  0  0  0  0
 10 19  1  0  0  0  0
 12 16  1  0  0  0  0
 13  2  2  0  0  0  0
 14  1  1  0  0  0  0
 15 11  1  0  0  0  0
 16 17  1  1  0  0  0
 16  5  1  0  0  0  0
 17  6  1  0  0  0  0
 18 13  1  0  0  0  0
 18 10  2  0  0  0  0
 19  3  2  0  0  0  0
 19 20  1  0  0  0  0
 20 15  2  0  0  0  0
 23 22  1  1  0  0  0
 23 21  1  0  0  0  0
 24 27  1  6  0  0  0
 25 30  2  0  0  0  0
 28 24  1  0  0  0  0
 28 25  1  0  0  0  0
 29 26  1  6  0  0  0
 29 30  1  0  0  0  0
 30 23  1  0  0  0  0
 31 24  1  0  0  0  0
 31 29  1  0  0  0  0
M  END
>  <MODEL>
9

>  <REMARK>
 VINA RESULT:      -8.6      1.419      2.006
  Name = 
  3 active torsions:
  status: ('A' for Active; 'I' for Inactive)
    1  A    between atoms: C_9  and  C_22
    2  A    between atoms: C_9  and  C_23
    3  A    between atoms: C_15  and  C_23
                            x       y       z     vdW  Elec       q    Type
                         _______ _______ _______ _____ _____    ______ ____

>  <TORSDO>
F 3

$$$$
