=
 OpenBabel10272400453D

 25 29  0  0  1  0  0  0  0  0999 V2000
  189.5810  177.4380  144.1940 C   0  0  0  0  0  0  0  0  0  0  0  0
  189.1290  177.6560  142.8790 C   0  0  0  0  0  0  0  0  0  0  0  0
  191.7730  176.8300  143.3460 C   0  0  0  0  0  3  0  0  0  0  0  0
  188.8740  177.5750  145.4040 C   0  0  0  0  0  0  0  0  0  0  0  0
  187.8150  177.7330  147.9860 C   0  0  0  0  0  3  0  0  0  0  0  0
  191.3270  177.0460  142.0770 N   0  0  0  0  0  0  0  0  0  0  0  0
  189.6540  177.2690  146.5180 C   0  0  0  0  0  0  0  0  0  0  0  0
  189.1500  177.3400  147.8150 C   0  0  0  0  0  3  0  0  0  0  0  0
  189.6200  177.6630  140.4980 C   0  0  0  0  0  0  0  0  0  0  0  0
  190.5140  177.4700  139.4060 N   0  0  0  0  0  1  0  0  0  0  0  0
  187.8250  178.0670  142.5860 C   0  0  0  0  0  3  0  0  0  0  0  0
  187.0150  178.0440  146.8700 C   0  0  0  0  0  3  0  0  0  0  0  0
  190.8950  177.0280  144.4050 C   0  0  0  0  0  0  0  0  0  0  0  0
  191.2100  176.8300  146.0490 S   0  0  0  0  0  0  0  0  0  0  0  0
  188.3430  178.0640  140.2540 N   0  0  0  0  0  0  0  0  0  0  0  0
  187.5420  177.9670  145.5710 C   0  0  0  0  0  3  0  0  0  0  0  0
  187.4460  178.2610  141.2570 C   0  0  0  0  0  0  0  0  0  0  0  0
  190.0460  177.4480  141.8160 C   0  0  0  0  0  0  0  0  0  0  0  0
  186.0690  178.7250  140.9410 C   0  0  0  0  0  2  0  0  0  0  0  0
  185.5660  179.5410  142.0320 N   0  0  0  0  0  2  0  0  0  0  0  0
  184.2300  179.0600  142.3450 C   0  0  1  0  0  3  0  0  0  0  0  0
  183.8050  178.0400  141.3040 C   0  0  0  0  0  1  0  0  0  0  0  0
  184.2310  178.4120  143.7180 C   0  0  0  0  0  3  0  0  0  0  0  0
  182.9830  178.8280  144.4730 C   0  0  0  0  0  2  0  0  0  0  0  0
  184.3100  179.4870  144.7840 C   0  0  0  0  0  2  0  0  0  0  0  0
  1 13  2  0  0  0  0
  1  4  1  0  0  0  0
  2  1  1  0  0  0  0
  3 13  1  0  0  0  0
  4 16  2  0  0  0  0
  4  7  1  0  0  0  0
  6  3  2  0  0  0  0
  7  8  2  0  0  0  0
  8  5  1  0  0  0  0
  9 18  1  0  0  0  0
 10  9  1  0  0  0  0
 11  2  1  0  0  0  0
 12  5  2  0  0  0  0
 13 14  1  0  0  0  0
 14  7  1  0  0  0  0
 15  9  2  0  0  0  0
 15 17  1  0  0  0  0
 16 12  1  0  0  0  0
 17 11  2  0  0  0  0
 18  6  1  0  0  0  0
 18  2  2  0  0  0  0
 19 17  1  0  0  0  0
 19 20  1  0  0  0  0
 20 21  1  0  0  0  0
 21 22  1  6  0  0  0
 21 23  1  0  0  0  0
 23 24  1  0  0  0  0
 23 25  1  0  0  0  0
 24 25  1  0  0  0  0
M  END
>  <MODEL>
1

>  <REMARK>
 VINA RESULT:      -9.7      0.000      0.000
  Name = 
  4 active torsions:
  status: ('A' for Active; 'I' for Inactive)
    1  A    between atoms: C_2  and  C_21
    2  A    between atoms: C_6  and  N_15
    3  A    between atoms: C_6  and  C_23
    4  A    between atoms: N_15  and  C_21
                            x       y       z     vdW  Elec       q    Type
                         _______ _______ _______ _____ _____    ______ ____

>  <TORSDO>
F 4

$$$$
=
 OpenBabel10272400453D

 25 29  0  0  1  0  0  0  0  0999 V2000
  187.5330  177.8160  145.7100 C   0  0  0  0  0  0  0  0  0  0  0  0
  188.8720  177.4290  145.5130 C   0  0  0  0  0  0  0  0  0  0  0  0
  187.8950  177.8600  148.1100 C   0  0  0  0  0  3  0  0  0  0  0  0
  186.5270  178.0390  144.7500 C   0  0  0  0  0  0  0  0  0  0  0  0
  184.2920  178.5690  143.1580 C   0  0  0  0  0  3  0  0  0  0  0  0
  189.1890  177.4870  147.9080 N   0  0  0  0  0  0  0  0  0  0  0  0
  185.3120  178.4140  145.3220 C   0  0  0  0  0  0  0  0  0  0  0  0
  184.1840  178.6830  144.5510 C   0  0  0  0  0  3  0  0  0  0  0  0
  191.0330  176.8880  146.4840 C   0  0  0  0  0  0  0  0  0  0  0  0
  191.8910  176.7240  147.6090 N   0  0  0  0  0  1  0  0  0  0  0  0
  189.4120  177.2000  144.2430 C   0  0  0  0  0  3  0  0  0  0  0  0
  185.5120  178.1920  142.5650 C   0  0  0  0  0  3  0  0  0  0  0  0
  187.0670  178.0240  147.0060 C   0  0  0  0  0  0  0  0  0  0  0  0
  185.4440  178.4780  147.0000 S   0  0  0  0  0  0  0  0  0  0  0  0
  191.5220  176.6760  145.2320 N   0  0  0  0  0  0  0  0  0  0  0  0
  186.6380  177.9240  143.3600 C   0  0  0  0  0  3  0  0  0  0  0  0
  190.7480  176.8160  144.1230 C   0  0  0  0  0  0  0  0  0  0  0  0
  189.6950  177.2690  146.6570 C   0  0  0  0  0  0  0  0  0  0  0  0
  191.3370  176.5980  142.7750 C   0  0  0  0  0  2  0  0  0  0  0  0
  190.2740  176.4620  141.7940 N   0  0  0  0  0  2  0  0  0  0  0  0
  190.5270  177.4430  140.7510 C   0  0  1  0  0  3  0  0  0  0  0  0
  191.9420  177.2690  140.2280 C   0  0  0  0  0  1  0  0  0  0  0  0
  189.5390  177.2440  139.6160 C   0  0  0  0  0  3  0  0  0  0  0  0
  189.1740  178.5920  139.0230 C   0  0  0  0  0  2  0  0  0  0  0  0
  188.2200  177.9010  139.9730 C   0  0  0  0  0  2  0  0  0  0  0  0
  1 13  1  0  0  0  0
  2  1  2  0  0  0  0
  2 18  1  0  0  0  0
  4  7  1  0  0  0  0
  4  1  1  0  0  0  0
  5  8  1  0  0  0  0
  6  3  1  0  0  0  0
  7 14  1  0  0  0  0
  8  7  2  0  0  0  0
  9 18  1  0  0  0  0
  9 10  1  0  0  0  0
 11  2  1  0  0  0  0
 12  5  2  0  0  0  0
 12 16  1  0  0  0  0
 13  3  2  0  0  0  0
 14 13  1  0  0  0  0
 15  9  2  0  0  0  0
 16  4  2  0  0  0  0
 17 11  2  0  0  0  0
 17 15  1  0  0  0  0
 18  6  2  0  0  0  0
 19 17  1  0  0  0  0
 20 19  1  0  0  0  0
 21 22  1  6  0  0  0
 21 20  1  0  0  0  0
 23 25  1  0  0  0  0
 23 21  1  0  0  0  0
 24 23  1  0  0  0  0
 24 25  1  0  0  0  0
M  END
>  <MODEL>
2

>  <REMARK>
 VINA RESULT:      -9.7      2.400      5.691
  Name = 
  4 active torsions:
  status: ('A' for Active; 'I' for Inactive)
    1  A    between atoms: C_2  and  C_21
    2  A    between atoms: C_6  and  N_15
    3  A    between atoms: C_6  and  C_23
    4  A    between atoms: N_15  and  C_21
                            x       y       z     vdW  Elec       q    Type
                         _______ _______ _______ _____ _____    ______ ____

>  <TORSDO>
F 4

$$$$
=
 OpenBabel10272400453D

 25 29  0  0  1  0  0  0  0  0999 V2000
  187.2180  177.9550  145.5260 C   0  0  0  0  0  0  0  0  0  0  0  0
  186.3780  178.2620  144.4390 C   0  0  0  0  0  0  0  0  0  0  0  0
  185.3970  178.4080  147.0660 C   0  0  0  0  0  3  0  0  0  0  0  0
  188.5690  177.5590  145.5140 C   0  0  0  0  0  0  0  0  0  0  0  0
  191.2200  176.7570  145.8920 C   0  0  0  0  0  3  0  0  0  0  0  0
  184.5920  178.7000  146.0070 N   0  0  0  0  0  0  0  0  0  0  0  0
  189.0760  177.3400  146.7940 C   0  0  0  0  0  0  0  0  0  0  0  0
  190.3920  176.9400  147.0090 C   0  0  0  0  0  3  0  0  0  0  0  0
  184.1840  178.9450  143.6480 C   0  0  0  0  0  0  0  0  0  0  0  0
  182.8310  179.3230  143.8880 N   0  0  0  0  0  1  0  0  0  0  0  0
  186.8130  178.2070  143.1100 C   0  0  0  0  0  3  0  0  0  0  0  0
  190.7230  176.9730  144.5940 C   0  0  0  0  0  3  0  0  0  0  0  0
  186.7130  178.0340  146.8210 C   0  0  0  0  0  0  0  0  0  0  0  0
  187.8900  177.6260  147.9560 S   0  0  0  0  0  0  0  0  0  0  0  0
  184.6430  178.8790  142.3700 N   0  0  0  0  0  0  0  0  0  0  0  0
  189.3920  177.3760  144.3970 C   0  0  0  0  0  3  0  0  0  0  0  0
  185.9250  178.5270  142.0820 C   0  0  0  0  0  0  0  0  0  0  0  0
  185.0390  178.6390  144.7160 C   0  0  0  0  0  0  0  0  0  0  0  0
  186.3720  178.4440  140.6670 C   0  0  0  0  0  2  0  0  0  0  0  0
  187.8070  178.6540  140.5940 N   0  0  0  0  0  2  0  0  0  0  0  0
  188.3220  177.7460  139.5820 C   0  0  1  0  0  3  0  0  0  0  0  0
  187.7100  178.0910  138.2360 C   0  0  0  0  0  1  0  0  0  0  0  0
  189.8320  177.8760  139.5010 C   0  0  0  0  0  3  0  0  0  0  0  0
  190.4620  176.4990  139.5680 C   0  0  0  0  0  2  0  0  0  0  0  0
  190.4520  177.3860  140.7950 C   0  0  0  0  0  2  0  0  0  0  0  0
  1 13  2  0  0  0  0
  2 18  1  0  0  0  0
  2  1  1  0  0  0  0
  4  1  1  0  0  0  0
  4  7  1  0  0  0  0
  5  8  1  0  0  0  0
  6  3  2  0  0  0  0
  7  8  2  0  0  0  0
  7 14  1  0  0  0  0
  9 10  1  0  0  0  0
  9 18  2  0  0  0  0
 11  2  2  0  0  0  0
 12  5  2  0  0  0  0
 13  3  1  0  0  0  0
 13 14  1  0  0  0  0
 15  9  1  0  0  0  0
 16 12  1  0  0  0  0
 16  4  2  0  0  0  0
 17 15  2  0  0  0  0
 17 11  1  0  0  0  0
 18  6  1  0  0  0  0
 19 17  1  0  0  0  0
 20 19  1  0  0  0  0
 21 22  1  6  0  0  0
 21 20  1  0  0  0  0
 23 24  1  0  0  0  0
 23 21  1  0  0  0  0
 23 25  1  0  0  0  0
 24 25  1  0  0  0  0
M  END
>  <MODEL>
3

>  <REMARK>
 VINA RESULT:      -9.0      1.748      5.125
  Name = 
  4 active torsions:
  status: ('A' for Active; 'I' for Inactive)
    1  A    between atoms: C_2  and  C_21
    2  A    between atoms: C_6  and  N_15
    3  A    between atoms: C_6  and  C_23
    4  A    between atoms: N_15  and  C_21
                            x       y       z     vdW  Elec       q    Type
                         _______ _______ _______ _____ _____    ______ ____

>  <TORSDO>
F 4

$$$$
=
 OpenBabel10272400453D

 25 29  0  0  1  0  0  0  0  0999 V2000
  187.4040  177.8780  145.5070 C   0  0  0  0  0  0  0  0  0  0  0  0
  188.7060  177.5240  145.1060 C   0  0  0  0  0  0  0  0  0  0  0  0
  188.0790  177.7420  147.8350 C   0  0  0  0  0  3  0  0  0  0  0  0
  186.2810  178.1610  144.7070 C   0  0  0  0  0  0  0  0  0  0  0  0
  183.8540  178.7830  143.4670 C   0  0  0  0  0  3  0  0  0  0  0  0
  189.3360  177.4020  147.4370 N   0  0  0  0  0  0  0  0  0  0  0  0
  185.1510  178.4750  145.4610 C   0  0  0  0  0  0  0  0  0  0  0  0
  183.9310  178.7890  144.8670 C   0  0  0  0  0  3  0  0  0  0  0  0
  190.9790  176.9370  145.7410 C   0  0  0  0  0  0  0  0  0  0  0  0
  191.9770  176.6980  146.7280 N   0  0  0  0  0  1  0  0  0  0  0  0
  189.0760  177.4000  143.7630 C   0  0  0  0  0  3  0  0  0  0  0  0
  184.9860  178.4680  142.6930 C   0  0  0  0  0  3  0  0  0  0  0  0
  187.1130  177.9800  146.8650 C   0  0  0  0  0  0  0  0  0  0  0  0
  185.5020  178.4130  147.1070 S   0  0  0  0  0  0  0  0  0  0  0  0
  191.2990  176.8280  144.4240 N   0  0  0  0  0  0  0  0  0  0  0  0
  186.2080  178.1550  143.3100 C   0  0  0  0  0  3  0  0  0  0  0  0
  190.3850  177.0430  143.4400 C   0  0  0  0  0  0  0  0  0  0  0  0
  189.6740  177.2870  146.1170 C   0  0  0  0  0  0  0  0  0  0  0  0
  190.7920  176.9360  142.0130 C   0  0  0  0  0  2  0  0  0  0  0  0
  189.8050  176.1630  141.2800 N   0  0  0  0  0  2  0  0  0  0  0  0
  189.4710  176.9210  140.0850 C   0  0  1  0  0  3  0  0  0  0  0  0
  188.7300  178.1850  140.4810 C   0  0  0  0  0  1  0  0  0  0  0  0
  190.7430  177.2890  139.3430 C   0  0  0  0  0  3  0  0  0  0  0  0
  190.4950  177.2150  137.8490 C   0  0  0  0  0  2  0  0  0  0  0  0
  191.2300  176.0930  138.5500 C   0  0  0  0  0  2  0  0  0  0  0  0
  1 13  1  0  0  0  0
  2  1  2  0  0  0  0
  2 18  1  0  0  0  0
  4  7  1  0  0  0  0
  4  1  1  0  0  0  0
  5  8  1  0  0  0  0
  6  3  1  0  0  0  0
  7 14  1  0  0  0  0
  8  7  2  0  0  0  0
  9 18  1  0  0  0  0
  9 10  1  0  0  0  0
 11  2  1  0  0  0  0
 12 16  1  0  0  0  0
 12  5  2  0  0  0  0
 13 14  1  0  0  0  0
 13  3  2  0  0  0  0
 15  9  2  0  0  0  0
 16  4  2  0  0  0  0
 17 11  2  0  0  0  0
 17 15  1  0  0  0  0
 18  6  2  0  0  0  0
 19 17  1  0  0  0  0
 20 19  1  0  0  0  0
 21 22  1  1  0  0  0
 21 20  1  0  0  0  0
 23 21  1  0  0  0  0
 24 25  1  0  0  0  0
 24 23  1  0  0  0  0
 25 23  1  0  0  0  0
M  END
>  <MODEL>
4

>  <REMARK>
 VINA RESULT:      -8.9      2.335      5.673
  Name = 
  4 active torsions:
  status: ('A' for Active; 'I' for Inactive)
    1  A    between atoms: C_2  and  C_21
    2  A    between atoms: C_6  and  N_15
    3  A    between atoms: C_6  and  C_23
    4  A    between atoms: N_15  and  C_21
                            x       y       z     vdW  Elec       q    Type
                         _______ _______ _______ _____ _____    ______ ____

>  <TORSDO>
F 4

$$$$
=
 OpenBabel10272400453D

 25 29  0  0  1  0  0  0  0  0999 V2000
  186.0260  178.3800  144.4070 C   0  0  0  0  0  0  0  0  0  0  0  0
  186.0820  178.5100  143.0070 C   0  0  0  0  0  0  0  0  0  0  0  0
  183.6890  179.0370  144.3780 C   0  0  0  0  0  3  0  0  0  0  0  0
  187.0460  178.0020  145.3000 C   0  0  0  0  0  0  0  0  0  0  0  0
  188.7950  177.2970  147.3640 C   0  0  0  0  0  3  0  0  0  0  0  0
  183.7540  179.1580  143.0230 N   0  0  0  0  0  0  0  0  0  0  0  0
  186.6180  177.9840  146.6270 C   0  0  0  0  0  0  0  0  0  0  0  0
  187.4700  177.6370  147.6730 C   0  0  0  0  0  3  0  0  0  0  0  0
  184.9350  179.0410  140.9300 C   0  0  0  0  0  0  0  0  0  0  0  0
  183.7690  179.4340  140.2130 N   0  0  0  0  0  1  0  0  0  0  0  0
  187.2460  178.2610  142.2720 C   0  0  0  0  0  3  0  0  0  0  0  0
  189.2410  177.3110  146.0300 C   0  0  0  0  0  3  0  0  0  0  0  0
  184.8300  178.6460  145.0690 C   0  0  0  0  0  0  0  0  0  0  0  0
  184.9970  178.4270  146.7320 S   0  0  0  0  0  0  0  0  0  0  0  0
  186.0860  178.7890  140.2510 N   0  0  0  0  0  0  0  0  0  0  0  0
  188.3670  177.6640  144.9890 C   0  0  0  0  0  3  0  0  0  0  0  0
  187.2290  178.4130  140.8840 C   0  0  0  0  0  0  0  0  0  0  0  0
  184.9030  178.9090  142.3260 C   0  0  0  0  0  0  0  0  0  0  0  0
  188.4550  178.1240  140.0940 C   0  0  0  0  0  2  0  0  0  0  0  0
  189.6310  178.3350  140.9200 N   0  0  0  0  0  2  0  0  0  0  0  0
  190.4050  177.1050  140.8850 C   0  0  1  0  0  3  0  0  0  0  0  0
  190.7970  176.7970  139.4510 C   0  0  0  0  0  1  0  0  0  0  0  0
  191.6560  177.2670  141.7300 C   0  0  0  0  0  3  0  0  0  0  0  0
  191.4660  176.5550  143.0550 C   0  0  0  0  0  2  0  0  0  0  0  0
  191.3240  178.0600  142.9790 C   0  0  0  0  0  2  0  0  0  0  0  0
  1 13  2  0  0  0  0
  1  4  1  0  0  0  0
  2  1  1  0  0  0  0
  3 13  1  0  0  0  0
  4  7  1  0  0  0  0
  5  8  1  0  0  0  0
  6  3  2  0  0  0  0
  7 14  1  0  0  0  0
  7  8  2  0  0  0  0
  9 18  2  0  0  0  0
 10  9  1  0  0  0  0
 11  2  2  0  0  0  0
 12  5  2  0  0  0  0
 13 14  1  0  0  0  0
 15 17  2  0  0  0  0
 15  9  1  0  0  0  0
 16  4  2  0  0  0  0
 16 12  1  0  0  0  0
 17 11  1  0  0  0  0
 18  2  1  0  0  0  0
 18  6  1  0  0  0  0
 19 17  1  0  0  0  0
 19 20  1  0  0  0  0
 21 22  1  6  0  0  0
 21 20  1  0  0  0  0
 21 23  1  0  0  0  0
 23 25  1  0  0  0  0
 23 24  1  0  0  0  0
 25 24  1  0  0  0  0
M  END
>  <MODEL>
5

>  <REMARK>
 VINA RESULT:      -8.9      1.819      5.258
  Name = 
  4 active torsions:
  status: ('A' for Active; 'I' for Inactive)
    1  A    between atoms: C_2  and  C_21
    2  A    between atoms: C_6  and  N_15
    3  A    between atoms: C_6  and  C_23
    4  A    between atoms: N_15  and  C_21
                            x       y       z     vdW  Elec       q    Type
                         _______ _______ _______ _____ _____    ______ ____

>  <TORSDO>
F 4

$$$$
=
 OpenBabel10272400453D

 25 29  0  0  1  0  0  0  0  0999 V2000
  185.8070  178.5230  142.5460 C   0  0  0  0  0  0  0  0  0  0  0  0
  187.0030  178.2690  141.8500 C   0  0  0  0  0  0  0  0  0  0  0  0
  184.6940  179.0460  140.4530 C   0  0  0  0  0  3  0  0  0  0  0  0
  185.5570  178.4470  143.9300 C   0  0  0  0  0  0  0  0  0  0  0  0
  184.6840  178.4060  146.5850 C   0  0  0  0  0  3  0  0  0  0  0  0
  185.8560  178.7970  139.7880 N   0  0  0  0  0  0  0  0  0  0  0  0
  184.2410  178.7720  144.2560 C   0  0  0  0  0  0  0  0  0  0  0  0
  183.7820  178.7590  145.5710 C   0  0  0  0  0  3  0  0  0  0  0  0
  188.1780  178.1660  139.7240 C   0  0  0  0  0  0  0  0  0  0  0  0
  188.2080  178.2990  138.3060 N   0  0  0  0  0  1  0  0  0  0  0  0
  188.1830  177.8810  142.4920 C   0  0  0  0  0  3  0  0  0  0  0  0
  186.0150  178.0750  146.2700 C   0  0  0  0  0  3  0  0  0  0  0  0
  184.6730  178.9080  141.8350 C   0  0  0  0  0  0  0  0  0  0  0  0
  183.3660  179.1560  142.8710 S   0  0  0  0  0  0  0  0  0  0  0  0
  189.3040  177.7880  140.3850 N   0  0  0  0  0  0  0  0  0  0  0  0
  186.4600  178.0940  144.9380 C   0  0  0  0  0  3  0  0  0  0  0  0
  189.3340  177.6490  141.7380 C   0  0  0  0  0  0  0  0  0  0  0  0
  186.9980  178.4170  140.4390 C   0  0  0  0  0  0  0  0  0  0  0  0
  190.5840  177.2080  142.4110 C   0  0  0  0  0  2  0  0  0  0  0  0
  190.2660  176.6510  143.7150 N   0  0  0  0  0  2  0  0  0  0  0  0
  191.0780  177.3600  144.6910 C   0  0  1  0  0  3  0  0  0  0  0  0
  191.6540  178.6120  144.0550 C   0  0  0  0  0  1  0  0  0  0  0  0
  190.2190  177.7450  145.8830 C   0  0  0  0  0  3  0  0  0  0  0  0
  190.6200  176.9120  147.0840 C   0  0  0  0  0  2  0  0  0  0  0  0
  189.3730  176.5590  146.3020 C   0  0  0  0  0  2  0  0  0  0  0  0
  1  4  1  0  0  0  0
  2 11  1  0  0  0  0
  2  1  1  0  0  0  0
  3 13  1  0  0  0  0
  4  7  2  0  0  0  0
  4 16  1  0  0  0  0
  6 18  1  0  0  0  0
  6  3  2  0  0  0  0
  7  8  1  0  0  0  0
  8  5  2  0  0  0  0
  9 15  2  0  0  0  0
  9 18  1  0  0  0  0
 10  9  1  0  0  0  0
 12  5  1  0  0  0  0
 13  1  2  0  0  0  0
 13 14  1  0  0  0  0
 14  7  1  0  0  0  0
 15 17  1  0  0  0  0
 16 12  2  0  0  0  0
 17 19  1  0  0  0  0
 17 11  2  0  0  0  0
 18  2  2  0  0  0  0
 19 20  1  0  0  0  0
 20 21  1  0  0  0  0
 21 22  1  6  0  0  0
 21 23  1  0  0  0  0
 23 25  1  0  0  0  0
 23 24  1  0  0  0  0
 25 24  1  0  0  0  0
M  END
>  <MODEL>
6

>  <REMARK>
 VINA RESULT:      -8.8      2.196      5.330
  Name = 
  4 active torsions:
  status: ('A' for Active; 'I' for Inactive)
    1  A    between atoms: C_2  and  C_21
    2  A    between atoms: C_6  and  N_15
    3  A    between atoms: C_6  and  C_23
    4  A    between atoms: N_15  and  C_21
                            x       y       z     vdW  Elec       q    Type
                         _______ _______ _______ _____ _____    ______ ____

>  <TORSDO>
F 4

$$$$
=
 OpenBabel10272400453D

 25 29  0  0  1  0  0  0  0  0999 V2000
  186.3050  178.3570  144.4150 C   0  0  0  0  0  0  0  0  0  0  0  0
  186.3930  178.4910  143.0160 C   0  0  0  0  0  0  0  0  0  0  0  0
  183.9810  179.0550  144.3380 C   0  0  0  0  0  3  0  0  0  0  0  0
  187.2990  177.9580  145.3280 C   0  0  0  0  0  0  0  0  0  0  0  0
  188.9900  177.2160  147.4260 C   0  0  0  0  0  3  0  0  0  0  0  0
  184.0760  179.1790  142.9860 N   0  0  0  0  0  0  0  0  0  0  0  0
  186.8420  177.9430  146.6450 C   0  0  0  0  0  0  0  0  0  0  0  0
  187.6650  177.5770  147.7080 C   0  0  0  0  0  3  0  0  0  0  0  0
  185.3000  179.0500  140.9180 C   0  0  0  0  0  0  0  0  0  0  0  0
  184.1570  179.4650  140.1770 N   0  0  0  0  0  1  0  0  0  0  0  0
  187.5680  178.2250  142.3050 C   0  0  0  0  0  3  0  0  0  0  0  0
  189.4650  177.2260  146.1020 C   0  0  0  0  0  3  0  0  0  0  0  0
  185.1000  178.6420  145.0510 C   0  0  0  0  0  0  0  0  0  0  0  0
  185.2270  178.4140  146.7170 S   0  0  0  0  0  0  0  0  0  0  0  0
  186.4610  178.7800  140.2620 N   0  0  0  0  0  0  0  0  0  0  0  0
  188.6200  177.5990  145.0430 C   0  0  0  0  0  3  0  0  0  0  0  0
  187.5840  178.3820  140.9190 C   0  0  0  0  0  0  0  0  0  0  0  0
  185.2360  178.9130  142.3120 C   0  0  0  0  0  0  0  0  0  0  0  0
  188.8210  178.0740  140.1530 C   0  0  0  0  0  2  0  0  0  0  0  0
  188.8860  178.9130  138.9700 N   0  0  0  0  0  2  0  0  0  0  0  0
  189.2960  178.0620  137.8640 C   0  0  1  0  0  3  0  0  0  0  0  0
  190.2750  177.0170  138.3690 C   0  0  0  0  0  1  0  0  0  0  0  0
  188.0800  177.3740  137.2720 C   0  0  0  0  0  3  0  0  0  0  0  0
  188.0600  177.5870  135.7710 C   0  0  0  0  0  2  0  0  0  0  0  0
  187.1580  178.4130  136.6630 C   0  0  0  0  0  2  0  0  0  0  0  0
  1 13  2  0  0  0  0
  1  4  1  0  0  0  0
  2  1  1  0  0  0  0
  3 13  1  0  0  0  0
  4  7  1  0  0  0  0
  5  8  1  0  0  0  0
  6  3  2  0  0  0  0
  7 14  1  0  0  0  0
  7  8  2  0  0  0  0
  9 18  2  0  0  0  0
 10  9  1  0  0  0  0
 11  2  2  0  0  0  0
 12  5  2  0  0  0  0
 13 14  1  0  0  0  0
 15  9  1  0  0  0  0
 15 17  2  0  0  0  0
 16  4  2  0  0  0  0
 16 12  1  0  0  0  0
 17 11  1  0  0  0  0
 18  6  1  0  0  0  0
 18  2  1  0  0  0  0
 19 17  1  0  0  0  0
 20 19  1  0  0  0  0
 21 22  1  1  0  0  0
 21 20  1  0  0  0  0
 23 21  1  0  0  0  0
 24 25  1  0  0  0  0
 24 23  1  0  0  0  0
 25 23  1  0  0  0  0
M  END
>  <MODEL>
7

>  <REMARK>
 VINA RESULT:      -8.7      2.325      5.302
  Name = 
  4 active torsions:
  status: ('A' for Active; 'I' for Inactive)
    1  A    between atoms: C_2  and  C_21
    2  A    between atoms: C_6  and  N_15
    3  A    between atoms: C_6  and  C_23
    4  A    between atoms: N_15  and  C_21
                            x       y       z     vdW  Elec       q    Type
                         _______ _______ _______ _____ _____    ______ ____

>  <TORSDO>
F 4

$$$$
=
 OpenBabel10272400453D

 25 29  0  0  1  0  0  0  0  0999 V2000
  189.3280  177.4020  144.2810 C   0  0  0  0  0  0  0  0  0  0  0  0
  188.3390  177.6860  145.2410 C   0  0  0  0  0  0  0  0  0  0  0  0
  190.8970  176.8590  146.0530 C   0  0  0  0  0  3  0  0  0  0  0  0
  189.2420  177.4700  142.8780 C   0  0  0  0  0  0  0  0  0  0  0  0
  189.4560  177.4810  140.0910 C   0  0  0  0  0  3  0  0  0  0  0  0
  189.9320  177.1340  146.9730 N   0  0  0  0  0  0  0  0  0  0  0  0
  190.4340  177.1130  142.2490 C   0  0  0  0  0  0  0  0  0  0  0  0
  190.5660  177.1100  140.8630 C   0  0  0  0  0  3  0  0  0  0  0  0
  187.7060  177.8130  147.5850 C   0  0  0  0  0  0  0  0  0  0  0  0
  188.0080  177.6710  148.9690 N   0  0  0  0  0  1  0  0  0  0  0  0
  187.0490  178.1020  144.8950 C   0  0  0  0  0  3  0  0  0  0  0  0
  188.2460  177.8430  140.7110 C   0  0  0  0  0  3  0  0  0  0  0  0
  190.5910  176.9940  144.7040 C   0  0  0  0  0  0  0  0  0  0  0  0
  191.6070  176.7120  143.3890 S   0  0  0  0  0  0  0  0  0  0  0  0
  186.4620  178.2140  147.2080 N   0  0  0  0  0  0  0  0  0  0  0  0
  188.1320  177.8400  142.1110 C   0  0  0  0  0  3  0  0  0  0  0  0
  186.1190  178.3690  145.9010 C   0  0  0  0  0  0  0  0  0  0  0  0
  188.6770  177.5390  146.6110 C   0  0  0  0  0  0  0  0  0  0  0  0
  184.7380  178.7850  145.5400 C   0  0  0  0  0  2  0  0  0  0  0  0
  184.7150  179.2680  144.1710 N   0  0  0  0  0  2  0  0  0  0  0  0
  183.6490  178.5580  143.4840 C   0  0  1  0  0  3  0  0  0  0  0  0
  182.3380  178.7880  144.2140 C   0  0  0  0  0  1  0  0  0  0  0  0
  183.5330  179.0680  142.0590 C   0  0  0  0  0  3  0  0  0  0  0  0
  184.0130  177.9970  141.0990 C   0  0  0  0  0  2  0  0  0  0  0  0
  184.9140  179.1640  141.4420 C   0  0  0  0  0  2  0  0  0  0  0  0
  1 13  1  0  0  0  0
  1  2  2  0  0  0  0
  2 18  1  0  0  0  0
  3  6  1  0  0  0  0
  4  1  1  0  0  0  0
  5 12  2  0  0  0  0
  5  8  1  0  0  0  0
  7  4  1  0  0  0  0
  7 14  1  0  0  0  0
  8  7  2  0  0  0  0
  9 10  1  0  0  0  0
 11  2  1  0  0  0  0
 11 17  2  0  0  0  0
 12 16  1  0  0  0  0
 13  3  2  0  0  0  0
 14 13  1  0  0  0  0
 15  9  2  0  0  0  0
 16  4  2  0  0  0  0
 17 15  1  0  0  0  0
 18  6  2  0  0  0  0
 18  9  1  0  0  0  0
 19 17  1  0  0  0  0
 20 19  1  0  0  0  0
 21 20  1  0  0  0  0
 21 22  1  1  0  0  0
 23 21  1  0  0  0  0
 24 25  1  0  0  0  0
 24 23  1  0  0  0  0
 25 23  1  0  0  0  0
M  END
>  <MODEL>
8

>  <REMARK>
 VINA RESULT:      -8.7      2.378      4.767
  Name = 
  4 active torsions:
  status: ('A' for Active; 'I' for Inactive)
    1  A    between atoms: C_2  and  C_21
    2  A    between atoms: C_6  and  N_15
    3  A    between atoms: C_6  and  C_23
    4  A    between atoms: N_15  and  C_21
                            x       y       z     vdW  Elec       q    Type
                         _______ _______ _______ _____ _____    ______ ____

>  <TORSDO>
F 4

$$$$
=
 OpenBabel10272400453D

 25 29  0  0  1  0  0  0  0  0999 V2000
  188.6710  177.6250  144.2770 C   0  0  0  0  0  0  0  0  0  0  0  0
  188.7380  177.6870  142.8730 C   0  0  0  0  0  0  0  0  0  0  0  0
  190.9730  176.8570  144.3560 C   0  0  0  0  0  3  0  0  0  0  0  0
  187.5900  177.9340  145.1240 C   0  0  0  0  0  0  0  0  0  0  0  0
  185.6910  178.4470  147.1100 C   0  0  0  0  0  3  0  0  0  0  0  0
  191.0270  176.9210  142.9970 N   0  0  0  0  0  0  0  0  0  0  0  0
  187.8960  177.7520  146.4730 C   0  0  0  0  0  0  0  0  0  0  0  0
  186.9680  178.0000  147.4810 C   0  0  0  0  0  3  0  0  0  0  0  0
  190.0470  177.3780  140.8480 C   0  0  0  0  0  0  0  0  0  0  0  0
  191.2570  177.0230  140.1840 N   0  0  0  0  0  1  0  0  0  0  0  0
  187.6570  178.0920  142.0830 C   0  0  0  0  0  3  0  0  0  0  0  0
  185.3680  178.6350  145.7540 C   0  0  0  0  0  3  0  0  0  0  0  0
  189.7900  177.2110  144.9950 C   0  0  0  0  0  0  0  0  0  0  0  0
  189.4820  177.2150  146.6520 S   0  0  0  0  0  0  0  0  0  0  0  0
  188.9730  177.7790  140.1140 N   0  0  0  0  0  0  0  0  0  0  0  0
  186.3180  178.3790  144.7510 C   0  0  0  0  0  3  0  0  0  0  0  0
  187.7940  178.1260  140.6940 C   0  0  0  0  0  0  0  0  0  0  0  0
  189.9570  177.3210  142.2460 C   0  0  0  0  0  0  0  0  0  0  0  0
  186.6580  178.5820  139.8500 C   0  0  0  0  0  2  0  0  0  0  0  0
  185.6770  179.2640  140.6770 N   0  0  0  0  0  2  0  0  0  0  0  0
  184.3680  178.9670  140.1210 C   0  0  1  0  0  3  0  0  0  0  0  0
  184.5340  178.3300  138.7530 C   0  0  0  0  0  1  0  0  0  0  0  0
  183.6300  178.0100  141.0390 C   0  0  0  0  0  3  0  0  0  0  0  0
  182.3820  178.6850  141.5750 C   0  0  0  0  0  2  0  0  0  0  0  0
  183.6140  178.5720  142.4480 C   0  0  0  0  0  2  0  0  0  0  0  0
  1 13  2  0  0  0  0
  1  4  1  0  0  0  0
  2  1  1  0  0  0  0
  3 13  1  0  0  0  0
  4  7  1  0  0  0  0
  5  8  1  0  0  0  0
  6  3  2  0  0  0  0
  7 14  1  0  0  0  0
  7  8  2  0  0  0  0
  9 18  2  0  0  0  0
 10  9  1  0  0  0  0
 11  2  2  0  0  0  0
 12  5  2  0  0  0  0
 13 14  1  0  0  0  0
 15 17  2  0  0  0  0
 15  9  1  0  0  0  0
 16  4  2  0  0  0  0
 16 12  1  0  0  0  0
 17 11  1  0  0  0  0
 18  2  1  0  0  0  0
 18  6  1  0  0  0  0
 19 20  1  0  0  0  0
 19 17  1  0  0  0  0
 21 22  1  6  0  0  0
 21 20  1  0  0  0  0
 21 23  1  0  0  0  0
 23 24  1  0  0  0  0
 23 25  1  0  0  0  0
 24 25  1  0  0  0  0
M  END
>  <MODEL>
9

>  <REMARK>
 VINA RESULT:      -8.7      1.175      1.717
  Name = 
  4 active torsions:
  status: ('A' for Active; 'I' for Inactive)
    1  A    between atoms: C_2  and  C_21
    2  A    between atoms: C_6  and  N_15
    3  A    between atoms: C_6  and  C_23
    4  A    between atoms: N_15  and  C_21
                            x       y       z     vdW  Elec       q    Type
                         _______ _______ _______ _____ _____    ______ ____

>  <TORSDO>
F 4

$$$$
