=
 OpenBabel10262423473D

 34 38  0  0  1  0  0  0  0  0999 V2000
  188.0640  176.7930  137.9030 C   0  0  0  0  0  0  0  0  0  0  0  0
  186.5020  175.4730  136.4180 C   0  0  0  0  0  0  0  0  0  0  0  0
  182.3910  175.0390  137.7770 C   0  0  0  0  0  0  0  0  0  0  0  0
  185.7290  177.4800  137.7050 C   0  0  0  0  0  0  0  0  0  0  0  0
  182.7050  178.6450  138.1140 C   0  0  0  0  0  2  0  0  0  0  0  0
  189.5960  178.0430  139.4490 C   0  0  0  0  0  1  0  0  0  0  0  0
  187.4210  174.7540  135.9420 O   0  0  0  0  0  0  0  0  0  0  0  0
  184.3780  176.4800  135.7550 C   0  0  0  0  0  2  0  0  0  0  0  0
  182.6960  171.6200  137.1590 C   0  0  0  0  0  1  0  0  0  0  0  0
  182.3950  174.0280  136.7550 N   0  0  0  0  0  0  0  0  0  0  0  0
  183.3740  172.9440  136.8560 C   0  0  2  0  0  3  0  0  0  0  0  0
  186.7870  176.6040  137.3410 C   0  0  0  0  0  0  0  0  0  0  0  0
  182.6370  174.7250  138.9720 O   0  0  0  0  0  0  0  0  0  0  0  0
  183.2690  177.3090  137.9150 N   0  0  1  0  0  0  0  0  0  0  0  0
  189.1340  175.9720  137.5500 O   0  0  0  0  0  1  0  0  0  0  0  0
  184.8180  174.1340  135.0410 C   0  0  0  0  0  2  0  0  0  0  0  0
  185.9590  178.4370  138.7260 C   0  0  0  0  0  0  0  0  0  0  0  0
  188.2580  177.8140  138.8360 C   0  0  0  0  0  0  0  0  0  0  0  0
  185.0680  175.1820  136.1160 C   0  0  1  0  0  3  0  0  0  0  0  0
  183.7650  179.7170  138.4330 C   0  0  0  0  0  2  0  0  0  0  0  0
  184.8570  179.2360  139.3990 C   0  0  1  0  0  3  0  0  0  0  0  0
  182.1610  176.4790  137.4310 C   0  0  0  0  0  2  0  0  0  0  0  0
  184.3940  177.4290  136.9660 C   0  0  1  0  0  3  0  0  0  0  0  0
  187.2110  178.5760  139.2370 N   0  0  0  0  0  0  0  0  0  0  0  0
  184.2680  172.8170  135.6110 C   0  0  0  0  0  2  0  0  0  0  0  0
  184.5480  178.0980  143.0970 C   0  0  1  0  0  3  0  0  0  0  0  0
  183.3540  178.7950  143.3630 O   0  0  0  0  0  0  0  0  0  0  0  0
  184.2940  178.5460  140.6570 C   0  0  1  0  0  3  0  0  0  0  0  0
  182.4520  178.4650  142.3350 C   0  0  0  0  0  2  0  0  0  0  0  0
  185.2290  178.6880  141.8620 C   0  0  0  0  0  2  0  0  0  0  0  0
  182.9100  179.0940  141.0180 C   0  0  0  0  0  2  0  0  0  0  0  0
  185.4760  178.2140  144.2870 C   0  0  0  0  0  1  0  0  0  0  0  0
  179.9820  173.7600  136.3810 C   0  0  0  0  0  1  0  0  0  0  0  0
  181.3400  173.9840  135.7430 C   0  0  0  0  0  2  0  0  0  0  0  0
  1 18  1  0  0  0  0
  2 12  1  0  0  0  0
  3 13  2  0  0  0  0
  4 17  2  0  0  0  0
  5 20  1  0  0  0  0
  7  2  2  0  0  0  0
  8 19  1  0  0  0  0
 10 11  1  0  0  0  0
 10  3  1  0  0  0  0
 11  9  1  6  0  0  0
 12  4  1  0  0  0  0
 12  1  2  0  0  0  0
 14 22  1  6  0  0  0
 14  5  1  0  0  0  0
 15  1  1  0  0  0  0
 16 25  1  0  0  0  0
 17 24  1  0  0  0  0
 17 21  1  0  0  0  0
 18 24  2  0  0  0  0
 18  6  1  0  0  0  0
 19 16  1  6  0  0  0
 19  2  1  0  0  0  0
 21 20  1  6  0  0  0
 21 28  1  0  0  0  0
 22  3  1  0  0  0  0
 23  8  1  6  0  0  0
 23  4  1  0  0  0  0
 23 14  1  0  0  0  0
 25 11  1  0  0  0  0
 26 27  1  0  0  0  0
 26 32  1  1  0  0  0
 28 31  1  1  0  0  0
 28 30  1  0  0  0  0
 29 27  1  0  0  0  0
 30 26  1  0  0  0  0
 31 29  1  0  0  0  0
 34 33  1  0  0  0  0
 34 10  1  0  0  0  0
M  END
>  <MODEL>
1

>  <REMARK>
 VINA RESULT:      -6.3      0.000      0.000
  Name = 
  2 active torsions:
  status: ('A' for Active; 'I' for Inactive)
    1  A    between atoms: C_12  and  C_28
    2  A    between atoms: N_13  and  C_33
                            x       y       z     vdW  Elec       q    Type
                         _______ _______ _______ _____ _____    ______ ____

>  <TORSDO>
F 2

$$$$
=
 OpenBabel10262423473D

 34 38  0  0  1  0  0  0  0  0999 V2000
  184.5980  178.2530  139.8770 C   0  0  0  0  0  0  0  0  0  0  0  0
  186.9880  178.3780  139.0650 C   0  0  0  0  0  0  0  0  0  0  0  0
  188.1180  175.6750  135.8470 C   0  0  0  0  0  0  0  0  0  0  0  0
  185.0780  177.9380  137.5020 C   0  0  0  0  0  0  0  0  0  0  0  0
  185.1290  177.0990  134.3460 C   0  0  0  0  0  2  0  0  0  0  0  0
  182.2370  178.0370  140.7010 C   0  0  0  0  0  1  0  0  0  0  0  0
  187.4380  178.7630  140.1780 O   0  0  0  0  0  0  0  0  0  0  0  0
  187.4060  178.6610  136.6760 C   0  0  0  0  0  2  0  0  0  0  0  0
  190.8890  174.7760  137.7650 C   0  0  0  0  0  1  0  0  0  0  0  0
  189.4320  176.0780  136.2700 N   0  0  0  0  0  0  0  0  0  0  0  0
  189.8130  175.8430  137.6650 C   0  0  2  0  0  3  0  0  0  0  0  0
  185.5300  178.2070  138.8230 C   0  0  0  0  0  0  0  0  0  0  0  0
  187.6020  174.6250  136.3140 O   0  0  0  0  0  0  0  0  0  0  0  0
  186.0200  176.8610  135.4830 N   0  0  1  0  0  0  0  0  0  0  0  0
  184.9980  178.5420  141.1790 O   0  0  0  0  0  1  0  0  0  0  0  0
  189.3790  178.3630  138.1670 C   0  0  0  0  0  2  0  0  0  0  0  0
  183.7170  177.5910  137.3070 C   0  0  0  0  0  0  0  0  0  0  0  0
  183.2510  177.9950  139.6110 C   0  0  0  0  0  0  0  0  0  0  0  0
  187.9130  178.0180  137.9480 C   0  0  1  0  0  3  0  0  0  0  0  0
  183.7550  177.6650  134.7520 C   0  0  0  0  0  2  0  0  0  0  0  0
  183.1690  177.0150  136.0140 C   0  0  1  0  0  3  0  0  0  0  0  0
  187.3240  176.5240  134.9020 C   0  0  0  0  0  2  0  0  0  0  0  0
  186.0270  178.0810  136.3160 C   0  0  1  0  0  3  0  0  0  0  0  0
  182.8590  177.6480  138.3600 N   0  0  0  0  0  0  0  0  0  0  0  0
  190.2550  177.1210  138.3960 C   0  0  0  0  0  2  0  0  0  0  0  0
  184.0580  173.3690  137.0000 C   0  0  1  0  0  3  0  0  0  0  0  0
  182.7480  172.9900  137.3490 O   0  0  0  0  0  0  0  0  0  0  0  0
  183.2040  175.4750  135.9760 C   0  0  1  0  0  3  0  0  0  0  0  0
  181.9190  173.3590  136.2750 C   0  0  0  0  0  2  0  0  0  0  0  0
  184.1770  174.8920  137.0060 C   0  0  0  0  0  2  0  0  0  0  0  0
  181.8090  174.8830  136.2010 C   0  0  0  0  0  2  0  0  0  0  0  0
  185.0350  172.7860  138.0000 C   0  0  0  0  0  1  0  0  0  0  0  0
  190.8250  175.4300  134.3540 C   0  0  0  0  0  1  0  0  0  0  0  0
  190.4210  176.5450  135.2990 C   0  0  0  0  0  2  0  0  0  0  0  0
  1 15  1  0  0  0  0
  2  7  2  0  0  0  0
  3 10  1  0  0  0  0
  3 13  2  0  0  0  0
  4 12  1  0  0  0  0
  5 20  1  0  0  0  0
 10 11  1  0  0  0  0
 11  9  1  6  0  0  0
 11 25  1  0  0  0  0
 12  2  1  0  0  0  0
 12  1  2  0  0  0  0
 14  5  1  6  0  0  0
 14 23  1  0  0  0  0
 16 25  1  0  0  0  0
 17  4  2  0  0  0  0
 17 24  1  0  0  0  0
 18  1  1  0  0  0  0
 18  6  1  0  0  0  0
 19  8  1  6  0  0  0
 19 16  1  0  0  0  0
 19  2  1  0  0  0  0
 21 20  1  6  0  0  0
 21 17  1  0  0  0  0
 22 14  1  0  0  0  0
 22  3  1  0  0  0  0
 23  8  1  1  0  0  0
 23  4  1  0  0  0  0
 24 18  2  0  0  0  0
 26 30  1  0  0  0  0
 26 27  1  0  0  0  0
 26 32  1  1  0  0  0
 28 21  1  0  0  0  0
 28 31  1  1  0  0  0
 28 30  1  0  0  0  0
 29 27  1  0  0  0  0
 31 29  1  0  0  0  0
 33 34  1  0  0  0  0
 34 10  1  0  0  0  0
M  END
>  <MODEL>
2

>  <REMARK>
 VINA RESULT:      -6.0      2.180      6.222
  Name = 
  2 active torsions:
  status: ('A' for Active; 'I' for Inactive)
    1  A    between atoms: C_12  and  C_28
    2  A    between atoms: N_13  and  C_33
                            x       y       z     vdW  Elec       q    Type
                         _______ _______ _______ _____ _____    ______ ____

>  <TORSDO>
F 2

$$$$
=
 OpenBabel10262423473D

 34 38  0  0  1  0  0  0  0  0999 V2000
  191.2640  173.9100  136.5220 C   0  0  0  0  0  0  0  0  0  0  0  0
  189.0910  173.3210  135.3750 C   0  0  0  0  0  0  0  0  0  0  0  0
  185.4470  174.9550  137.1020 C   0  0  0  0  0  0  0  0  0  0  0  0
  189.4780  175.5710  136.4090 C   0  0  0  0  0  0  0  0  0  0  0  0
  187.3770  178.0280  136.8790 C   0  0  0  0  0  2  0  0  0  0  0  0
  193.3890  174.4570  137.7420 C   0  0  0  0  0  1  0  0  0  0  0  0
  189.5180  172.2180  134.9380 O   0  0  0  0  0  0  0  0  0  0  0  0
  187.5700  175.1230  134.7410 C   0  0  0  0  0  2  0  0  0  0  0  0
  184.1090  171.7370  136.9710 C   0  0  0  0  0  1  0  0  0  0  0  0
  184.8590  173.9640  136.2430 N   0  0  0  0  0  0  0  0  0  0  0  0
  185.2570  172.5660  136.4240 C   0  0  2  0  0  3  0  0  0  0  0  0
  189.9740  174.2770  136.0970 C   0  0  0  0  0  0  0  0  0  0  0  0
  185.6880  174.6790  138.3070 O   0  0  0  0  0  0  0  0  0  0  0  0
  187.2530  176.5700  136.8360 N   0  0  1  0  0  0  0  0  0  0  0  0
  191.7970  172.6610  136.2100 O   0  0  0  0  0  1  0  0  0  0  0  0
  186.8160  172.7820  134.3460 C   0  0  0  0  0  2  0  0  0  0  0  0
  190.2470  176.4080  137.2580 C   0  0  0  0  0  0  0  0  0  0  0  0
  192.0190  174.8110  137.2770 C   0  0  0  0  0  0  0  0  0  0  0  0
  187.6520  173.6950  135.2330 C   0  0  1  0  0  3  0  0  0  0  0  0
  188.8350  178.5180  136.9530 C   0  0  0  0  0  2  0  0  0  0  0  0
  189.7200  177.6830  137.8910 C   0  0  1  0  0  3  0  0  0  0  0  0
  185.8370  176.3000  136.5670 C   0  0  0  0  0  2  0  0  0  0  0  0
  188.1730  176.0690  135.7940 C   0  0  1  0  0  3  0  0  0  0  0  0
  191.4870  176.0040  137.6430 N   0  0  0  0  0  0  0  0  0  0  0  0
  185.8210  171.9250  135.1440 C   0  0  0  0  0  2  0  0  0  0  0  0
  189.4350  176.8300  141.6660 C   0  0  1  0  0  3  0  0  0  0  0  0
  189.0280  178.1150  142.0740 O   0  0  0  0  0  0  0  0  0  0  0  0
  189.0870  177.4510  139.2770 C   0  0  1  0  0  3  0  0  0  0  0  0
  187.9550  178.4840  141.2430 C   0  0  0  0  0  2  0  0  0  0  0  0
  190.0980  176.9080  140.2910 C   0  0  0  0  0  2  0  0  0  0  0  0
  188.4590  178.7380  139.8220 C   0  0  0  0  0  2  0  0  0  0  0  0
  190.4220  176.2710  142.6690 C   0  0  0  0  0  1  0  0  0  0  0  0
  182.5740  174.8520  136.0990 C   0  0  0  0  0  1  0  0  0  0  0  0
  183.7680  174.3130  135.3350 C   0  0  0  0  0  2  0  0  0  0  0  0
  1 18  1  0  0  0  0
  2 12  1  0  0  0  0
  3 13  2  0  0  0  0
  4 17  2  0  0  0  0
  5 20  1  0  0  0  0
  7  2  2  0  0  0  0
  8 19  1  0  0  0  0
 10 11  1  0  0  0  0
 10  3  1  0  0  0  0
 11  9  1  6  0  0  0
 12  4  1  0  0  0  0
 12  1  2  0  0  0  0
 14 22  1  6  0  0  0
 14  5  1  0  0  0  0
 15  1  1  0  0  0  0
 16 25  1  0  0  0  0
 17 24  1  0  0  0  0
 17 21  1  0  0  0  0
 18 24  2  0  0  0  0
 18  6  1  0  0  0  0
 19 16  1  6  0  0  0
 19  2  1  0  0  0  0
 21 20  1  6  0  0  0
 21 28  1  0  0  0  0
 22  3  1  0  0  0  0
 23  8  1  1  0  0  0
 23  4  1  0  0  0  0
 23 14  1  0  0  0  0
 25 11  1  0  0  0  0
 26 27  1  0  0  0  0
 26 32  1  1  0  0  0
 28 31  1  1  0  0  0
 28 30  1  0  0  0  0
 29 27  1  0  0  0  0
 30 26  1  0  0  0  0
 31 29  1  0  0  0  0
 34 33  1  0  0  0  0
 34 10  1  0  0  0  0
M  END
>  <MODEL>
3

>  <REMARK>
 VINA RESULT:      -5.7      3.003      4.305
  Name = 
  2 active torsions:
  status: ('A' for Active; 'I' for Inactive)
    1  A    between atoms: C_12  and  C_28
    2  A    between atoms: N_13  and  C_33
                            x       y       z     vdW  Elec       q    Type
                         _______ _______ _______ _____ _____    ______ ____

>  <TORSDO>
F 2

$$$$
=
 OpenBabel10262423473D

 34 38  0  0  1  0  0  0  0  0999 V2000
  187.4540  177.8550  142.6030 C   0  0  0  0  0  0  0  0  0  0  0  0
  189.2270  177.5790  140.8240 C   0  0  0  0  0  0  0  0  0  0  0  0
  187.9170  176.0850  136.9530 C   0  0  0  0  0  0  0  0  0  0  0  0
  186.9020  178.3330  140.2730 C   0  0  0  0  0  0  0  0  0  0  0  0
  185.4980  178.7680  137.3550 C   0  0  0  0  0  2  0  0  0  0  0  0
  185.6710  178.0390  144.3610 C   0  0  0  0  0  1  0  0  0  0  0  0
  190.1520  177.3690  141.6550 O   0  0  0  0  0  0  0  0  0  0  0  0
  188.8710  178.6060  138.6380 C   0  0  0  0  0  2  0  0  0  0  0  0
  190.5190  173.7690  137.1240 C   0  0  0  0  0  1  0  0  0  0  0  0
  189.3330  175.8990  136.7940 N   0  0  0  0  0  0  0  0  0  0  0  0
  190.0350  175.0560  137.7660 C   0  0  2  0  0  3  0  0  0  0  0  0
  187.8510  177.9420  141.2560 C   0  0  0  0  0  0  0  0  0  0  0  0
  187.2010  175.1340  137.3680 O   0  0  0  0  0  0  0  0  0  0  0  0
  186.5360  177.8730  137.8680 N   0  0  1  0  0  0  0  0  0  0  0  0
  188.3620  177.5040  143.6000 O   0  0  0  0  0  1  0  0  0  0  0  0
  190.9130  177.2120  138.9400 C   0  0  0  0  0  2  0  0  0  0  0  0
  185.5470  178.4950  140.6610 C   0  0  0  0  0  0  0  0  0  0  0  0
  186.1250  178.1180  142.9440 C   0  0  0  0  0  0  0  0  0  0  0  0
  189.4630  177.4150  139.3580 C   0  0  1  0  0  3  0  0  0  0  0  0
  184.7270  179.5110  138.4630 C   0  0  0  0  0  2  0  0  0  0  0  0
  184.3970  178.6340  139.6800 C   0  0  1  0  0  3  0  0  0  0  0  0
  187.2840  177.4170  136.6910 C   0  0  0  0  0  2  0  0  0  0  0  0
  187.3460  178.6310  138.8430 C   0  0  1  0  0  3  0  0  0  0  0  0
  185.2170  178.3980  141.9760 N   0  0  0  0  0  0  0  0  0  0  0  0
  191.1990  175.7790  138.4650 C   0  0  0  0  0  2  0  0  0  0  0  0
  181.8390  175.7180  139.5680 C   0  0  1  0  0  3  0  0  0  0  0  0
  181.5100  175.8660  138.2070 O   0  0  0  0  0  0  0  0  0  0  0  0
  183.7610  177.2830  139.3000 C   0  0  1  0  0  3  0  0  0  0  0  0
  182.7240  175.9070  137.4980 C   0  0  0  0  0  2  0  0  0  0  0  0
  182.4790  177.0040  140.0900 C   0  0  0  0  0  2  0  0  0  0  0  0
  183.4610  177.2130  137.8000 C   0  0  0  0  0  2  0  0  0  0  0  0
  180.5830  175.4250  140.3610 C   0  0  0  0  0  1  0  0  0  0  0  0
  189.4610  175.7510  134.3460 C   0  0  0  0  0  1  0  0  0  0  0  0
  190.0230  176.3890  135.6020 C   0  0  0  0  0  2  0  0  0  0  0  0
  1 18  1  0  0  0  0
  1 15  1  0  0  0  0
  2 12  1  0  0  0  0
  2  7  2  0  0  0  0
  3 13  2  0  0  0  0
  4 17  2  0  0  0  0
  4 12  1  0  0  0  0
  5 14  1  0  0  0  0
  5 20  1  0  0  0  0
 10  3  1  0  0  0  0
 10 11  1  0  0  0  0
 11  9  1  6  0  0  0
 11 25  1  0  0  0  0
 12  1  2  0  0  0  0
 14 22  1  6  0  0  0
 14 23  1  0  0  0  0
 16 19  1  0  0  0  0
 17 24  1  0  0  0  0
 18  6  1  0  0  0  0
 19  8  1  6  0  0  0
 19  2  1  0  0  0  0
 21 20  1  6  0  0  0
 21 17  1  0  0  0  0
 22  3  1  0  0  0  0
 23  8  1  1  0  0  0
 23  4  1  0  0  0  0
 24 18  2  0  0  0  0
 25 16  1  0  0  0  0
 26 30  1  0  0  0  0
 26 32  1  1  0  0  0
 27 26  1  0  0  0  0
 28 31  1  6  0  0  0
 28 21  1  0  0  0  0
 28 30  1  0  0  0  0
 29 31  1  0  0  0  0
 29 27  1  0  0  0  0
 33 34  1  0  0  0  0
 34 10  1  0  0  0  0
M  END
>  <MODEL>
4

>  <REMARK>
 VINA RESULT:      -5.6      2.492      5.627
  Name = 
  2 active torsions:
  status: ('A' for Active; 'I' for Inactive)
    1  A    between atoms: C_12  and  C_28
    2  A    between atoms: N_13  and  C_33
                            x       y       z     vdW  Elec       q    Type
                         _______ _______ _______ _____ _____    ______ ____

>  <TORSDO>
F 2

$$$$
=
 OpenBabel10262423473D

 34 38  0  0  1  0  0  0  0  0999 V2000
  189.8270  174.6190  137.1470 C   0  0  0  0  0  0  0  0  0  0  0  0
  188.2170  173.1890  135.8240 C   0  0  0  0  0  0  0  0  0  0  0  0
  183.9910  174.1720  136.1430 C   0  0  0  0  0  0  0  0  0  0  0  0
  187.8540  175.6480  136.1400 C   0  0  0  0  0  0  0  0  0  0  0  0
  185.2680  177.4820  135.3530 C   0  0  0  0  0  2  0  0  0  0  0  0
  191.3790  176.0170  138.5390 C   0  0  0  0  0  1  0  0  0  0  0  0
  188.9560  172.1680  135.8630 O   0  0  0  0  0  0  0  0  0  0  0  0
  186.6110  174.2840  134.3460 C   0  0  0  0  0  2  0  0  0  0  0  0
  183.3970  170.7940  136.7750 C   0  0  0  0  0  1  0  0  0  0  0  0
  183.8710  172.8700  135.5440 N   0  0  0  0  0  0  0  0  0  0  0  0
  184.4670  171.7290  136.2420 C   0  0  2  0  0  3  0  0  0  0  0  0
  188.6600  174.5000  136.3690 C   0  0  0  0  0  0  0  0  0  0  0  0
  183.9360  174.2950  137.3960 O   0  0  0  0  0  0  0  0  0  0  0  0
  185.4490  176.0860  135.7540 N   0  0  1  0  0  0  0  0  0  0  0  0
  190.6590  173.5230  137.3680 O   0  0  0  0  0  1  0  0  0  0  0  0
  186.4690  171.8070  134.5750 C   0  0  0  0  0  2  0  0  0  0  0  0
  188.1780  176.8520  136.8160 C   0  0  0  0  0  0  0  0  0  0  0  0
  190.1510  175.8550  137.7120 C   0  0  0  0  0  0  0  0  0  0  0  0
  186.8300  173.1100  135.2750 C   0  0  1  0  0  3  0  0  0  0  0  0
  186.5240  178.3490  135.5670 C   0  0  0  0  0  2  0  0  0  0  0  0
  187.2570  178.0580  136.8840 C   0  0  1  0  0  3  0  0  0  0  0  0
  184.2440  175.3840  135.2990 C   0  0  0  0  0  2  0  0  0  0  0  0
  186.7010  175.5980  135.1420 C   0  0  1  0  0  3  0  0  0  0  0  0
  189.3160  176.9120  137.5580 N   0  0  0  0  0  0  0  0  0  0  0  0
  185.4780  170.9530  135.3810 C   0  0  0  0  0  2  0  0  0  0  0  0
  186.0550  178.4330  140.5550 C   0  0  1  0  0  3  0  0  0  0  0  0
  185.1330  179.4660  140.3000 O   0  0  0  0  0  0  0  0  0  0  0  0
  186.3220  178.0340  138.1090 C   0  0  1  0  0  3  0  0  0  0  0  0
  184.3330  179.0410  139.2240 C   0  0  0  0  0  2  0  0  0  0  0  0
  187.0650  178.3450  139.4110 C   0  0  0  0  0  2  0  0  0  0  0  0
  185.1590  179.0170  137.9380 C   0  0  0  0  0  2  0  0  0  0  0  0
  186.7860  178.7180  141.8500 C   0  0  0  0  0  1  0  0  0  0  0  0
  181.5950  173.0760  134.6420 C   0  0  0  0  0  1  0  0  0  0  0  0
  183.0290  172.6630  134.3670 C   0  0  0  0  0  2  0  0  0  0  0  0
  1 15  1  0  0  0  0
  1 18  1  0  0  0  0
  2  7  2  0  0  0  0
  2 12  1  0  0  0  0
  3 13  2  0  0  0  0
  4 12  1  0  0  0  0
  4 17  2  0  0  0  0
  5 20  1  0  0  0  0
  5 14  1  0  0  0  0
 10  3  1  0  0  0  0
 10 11  1  0  0  0  0
 11  9  1  6  0  0  0
 12  1  2  0  0  0  0
 14 22  1  6  0  0  0
 16 19  1  0  0  0  0
 16 25  1  0  0  0  0
 17 21  1  0  0  0  0
 17 24  1  0  0  0  0
 18  6  1  0  0  0  0
 19  8  1  6  0  0  0
 19  2  1  0  0  0  0
 21 20  1  6  0  0  0
 21 28  1  0  0  0  0
 22  3  1  0  0  0  0
 23  8  1  1  0  0  0
 23 14  1  0  0  0  0
 23  4  1  0  0  0  0
 24 18  2  0  0  0  0
 25 11  1  0  0  0  0
 26 32  1  1  0  0  0
 27 26  1  0  0  0  0
 28 31  1  6  0  0  0
 28 30  1  0  0  0  0
 29 27  1  0  0  0  0
 30 26  1  0  0  0  0
 31 29  1  0  0  0  0
 34 33  1  0  0  0  0
 34 10  1  0  0  0  0
M  END
>  <MODEL>
5

>  <REMARK>
 VINA RESULT:      -5.5      2.154      3.043
  Name = 
  2 active torsions:
  status: ('A' for Active; 'I' for Inactive)
    1  A    between atoms: C_12  and  C_28
    2  A    between atoms: N_13  and  C_33
                            x       y       z     vdW  Elec       q    Type
                         _______ _______ _______ _____ _____    ______ ____

>  <TORSDO>
F 2

$$$$
=
 OpenBabel10262423473D

 34 38  0  0  1  0  0  0  0  0999 V2000
  190.9500  177.1240  139.7100 C   0  0  0  0  0  0  0  0  0  0  0  0
  193.1560  176.3230  138.7730 C   0  0  0  0  0  0  0  0  0  0  0  0
  193.0040  173.0850  135.8710 C   0  0  0  0  0  0  0  0  0  0  0  0
  191.0800  176.4230  137.3740 C   0  0  0  0  0  0  0  0  0  0  0  0
  190.5590  175.3040  134.3500 C   0  0  0  0  0  2  0  0  0  0  0  0
  188.7410  177.8320  140.6690 C   0  0  0  0  0  1  0  0  0  0  0  0
  193.8090  176.6380  139.8060 O   0  0  0  0  0  0  0  0  0  0  0  0
  193.4310  176.1990  136.3500 C   0  0  0  0  0  2  0  0  0  0  0  0
  195.4610  171.4740  137.7500 C   0  0  0  0  0  1  0  0  0  0  0  0
  194.4090  173.0440  136.1760 N   0  0  0  0  0  0  0  0  0  0  0  0
  194.8100  172.8330  137.5680 C   0  0  2  0  0  3  0  0  0  0  0  0
  191.7130  176.6490  138.6260 C   0  0  0  0  0  0  0  0  0  0  0  0
  192.2050  172.3340  136.4910 O   0  0  0  0  0  0  0  0  0  0  0  0
  191.4130  174.8860  135.4630 N   0  0  1  0  0  0  0  0  0  0  0  0
  191.5400  177.3860  140.9450 O   0  0  0  0  0  1  0  0  0  0  0  0
  195.3090  175.3830  137.7690 C   0  0  0  0  0  2  0  0  0  0  0  0
  189.6700  176.5550  137.2900 C   0  0  0  0  0  0  0  0  0  0  0  0
  189.5780  177.3280  139.5450 C   0  0  0  0  0  0  0  0  0  0  0  0
  193.7990  175.5520  137.6670 C   0  0  1  0  0  3  0  0  0  0  0  0
  189.5030  176.3520  134.7470 C   0  0  0  0  0  2  0  0  0  0  0  0
  188.8450  176.0790  136.1080 C   0  0  1  0  0  3  0  0  0  0  0  0
  192.4660  174.0570  134.8660 C   0  0  0  0  0  2  0  0  0  0  0  0
  191.9100  176.1040  136.1330 C   0  0  1  0  0  3  0  0  0  0  0  0
  188.9810  177.0150  138.3680 N   0  0  0  0  0  0  0  0  0  0  0  0
  195.7250  173.9440  138.1100 C   0  0  0  0  0  2  0  0  0  0  0  0
  186.5440  173.1010  137.0530 C   0  0  1  0  0  3  0  0  0  0  0  0
  186.3040  172.6790  135.7310 O   0  0  0  0  0  0  0  0  0  0  0  0
  188.3490  174.6280  136.2640 C   0  0  1  0  0  3  0  0  0  0  0  0
  187.5580  172.5670  135.1050 C   0  0  0  0  0  2  0  0  0  0  0  0
  187.0390  174.5460  137.0540 C   0  0  0  0  0  2  0  0  0  0  0  0
  188.1640  173.9560  134.9000 C   0  0  0  0  0  2  0  0  0  0  0  0
  185.2610  173.0080  137.8530 C   0  0  0  0  0  1  0  0  0  0  0  0
  195.3810  171.7220  134.3480 C   0  0  0  0  0  1  0  0  0  0  0  0
  195.4060  173.0350  135.1060 C   0  0  0  0  0  2  0  0  0  0  0  0
  1 15  1  0  0  0  0
  2  7  2  0  0  0  0
  3 10  1  0  0  0  0
  3 13  2  0  0  0  0
  4 12  1  0  0  0  0
  5 20  1  0  0  0  0
 10 11  1  0  0  0  0
 11  9  1  6  0  0  0
 11 25  1  0  0  0  0
 12  2  1  0  0  0  0
 12  1  2  0  0  0  0
 14  5  1  6  0  0  0
 14 23  1  0  0  0  0
 16 25  1  0  0  0  0
 17  4  2  0  0  0  0
 17 24  1  0  0  0  0
 18  1  1  0  0  0  0
 18  6  1  0  0  0  0
 19  8  1  6  0  0  0
 19 16  1  0  0  0  0
 19  2  1  0  0  0  0
 21 20  1  6  0  0  0
 21 28  1  0  0  0  0
 21 17  1  0  0  0  0
 22 14  1  0  0  0  0
 22  3  1  0  0  0  0
 23  8  1  1  0  0  0
 23  4  1  0  0  0  0
 24 18  2  0  0  0  0
 26 30  1  0  0  0  0
 26 32  1  1  0  0  0
 27 26  1  0  0  0  0
 28 31  1  6  0  0  0
 28 30  1  0  0  0  0
 29 27  1  0  0  0  0
 31 29  1  0  0  0  0
 33 34  1  0  0  0  0
 34 10  1  0  0  0  0
M  END
>  <MODEL>
6

>  <REMARK>
 VINA RESULT:      -5.4      5.110      8.960
  Name = 
  2 active torsions:
  status: ('A' for Active; 'I' for Inactive)
    1  A    between atoms: C_12  and  C_28
    2  A    between atoms: N_13  and  C_33
                            x       y       z     vdW  Elec       q    Type
                         _______ _______ _______ _____ _____    ______ ____

>  <TORSDO>
F 2

$$$$
=
 OpenBabel10262423473D

 34 38  0  0  1  0  0  0  0  0999 V2000
  192.6050  175.8750  138.0520 C   0  0  0  0  0  0  0  0  0  0  0  0
  191.2950  174.7790  136.1890 C   0  0  0  0  0  0  0  0  0  0  0  0
  186.9680  174.6550  136.6320 C   0  0  0  0  0  0  0  0  0  0  0  0
  190.4270  176.7820  137.4190 C   0  0  0  0  0  0  0  0  0  0  0  0
  187.4860  178.1970  137.2690 C   0  0  0  0  0  2  0  0  0  0  0  0
  193.8660  176.9030  139.9630 C   0  0  0  0  0  1  0  0  0  0  0  0
  192.2350  174.0030  135.8670 O   0  0  0  0  0  0  0  0  0  0  0  0
  189.4470  176.0060  135.1690 C   0  0  0  0  0  2  0  0  0  0  0  0
  187.1270  171.2580  135.8620 C   0  0  0  0  0  1  0  0  0  0  0  0
  187.1090  173.7000  135.5670 N   0  0  0  0  0  0  0  0  0  0  0  0
  187.9570  172.5270  135.7960 C   0  0  2  0  0  3  0  0  0  0  0  0
  191.4660  175.8320  137.2260 C   0  0  0  0  0  0  0  0  0  0  0  0
  186.9280  174.2620  137.8280 O   0  0  0  0  0  0  0  0  0  0  0  0
  187.9730  176.8260  137.1020 N   0  0  1  0  0  0  0  0  0  0  0  0
  193.6570  174.9800  137.8740 O   0  0  0  0  0  1  0  0  0  0  0  0
  189.8420  173.6690  134.4050 C   0  0  0  0  0  2  0  0  0  0  0  0
  190.5080  177.6630  138.5280 C   0  0  0  0  0  0  0  0  0  0  0  0
  192.6750  176.8270  139.0720 C   0  0  0  0  0  0  0  0  0  0  0  0
  189.9400  174.6350  135.5770 C   0  0  1  0  0  3  0  0  0  0  0  0
  188.5350  179.1500  137.8720 C   0  0  0  0  0  2  0  0  0  0  0  0
  189.3550  178.5240  139.0100 C   0  0  1  0  0  3  0  0  0  0  0  0
  186.9310  176.1250  136.3430 C   0  0  0  0  0  2  0  0  0  0  0  0
  189.2800  176.8900  136.4180 C   0  0  1  0  0  3  0  0  0  0  0  0
  191.6300  177.6620  139.2970 N   0  0  0  0  0  0  0  0  0  0  0  0
  189.0820  172.3810  134.7580 C   0  0  0  0  0  2  0  0  0  0  0  0
  188.3810  176.7300  142.3110 C   0  0  1  0  0  3  0  0  0  0  0  0
  187.5420  177.7540  142.7900 O   0  0  0  0  0  0  0  0  0  0  0  0
  188.4850  177.8270  140.0740 C   0  0  1  0  0  3  0  0  0  0  0  0
  186.6530  178.0730  141.7480 C   0  0  0  0  0  2  0  0  0  0  0  0
  189.3190  177.2860  141.2400 C   0  0  0  0  0  2  0  0  0  0  0  0
  187.4070  178.7720  140.6150 C   0  0  0  0  0  2  0  0  0  0  0  0
  189.2000  176.1720  143.4550 C   0  0  0  0  0  1  0  0  0  0  0  0
  184.8150  173.7710  134.6930 C   0  0  0  0  0  1  0  0  0  0  0  0
  186.2940  173.8010  134.3580 C   0  0  0  0  0  2  0  0  0  0  0  0
  1 18  1  0  0  0  0
  2 12  1  0  0  0  0
  3 13  2  0  0  0  0
  4 17  2  0  0  0  0
  5 20  1  0  0  0  0
  7  2  2  0  0  0  0
  8 19  1  0  0  0  0
 10 11  1  0  0  0  0
 10  3  1  0  0  0  0
 11  9  1  6  0  0  0
 12  4  1  0  0  0  0
 12  1  2  0  0  0  0
 14 22  1  6  0  0  0
 14  5  1  0  0  0  0
 15  1  1  0  0  0  0
 16 25  1  0  0  0  0
 17 21  1  0  0  0  0
 17 24  1  0  0  0  0
 18 24  2  0  0  0  0
 18  6  1  0  0  0  0
 19 16  1  6  0  0  0
 19  2  1  0  0  0  0
 21 20  1  6  0  0  0
 21 28  1  0  0  0  0
 22  3  1  0  0  0  0
 23  8  1  6  0  0  0
 23 14  1  0  0  0  0
 23  4  1  0  0  0  0
 25 11  1  0  0  0  0
 26 27  1  0  0  0  0
 26 32  1  1  0  0  0
 28 31  1  1  0  0  0
 28 30  1  0  0  0  0
 29 27  1  0  0  0  0
 30 26  1  0  0  0  0
 31 29  1  0  0  0  0
 34 33  1  0  0  0  0
 34 10  1  0  0  0  0
M  END
>  <MODEL>
7

>  <REMARK>
 VINA RESULT:      -5.4      3.210      4.700
  Name = 
  2 active torsions:
  status: ('A' for Active; 'I' for Inactive)
    1  A    between atoms: C_12  and  C_28
    2  A    between atoms: N_13  and  C_33
                            x       y       z     vdW  Elec       q    Type
                         _______ _______ _______ _____ _____    ______ ____

>  <TORSDO>
F 2

$$$$
=
 OpenBabel10262423473D

 34 38  0  0  1  0  0  0  0  0999 V2000
  185.7200  178.6690  141.1990 C   0  0  0  0  0  0  0  0  0  0  0  0
  187.4850  178.2000  139.4530 C   0  0  0  0  0  0  0  0  0  0  0  0
  186.4500  175.3650  136.3180 C   0  0  0  0  0  0  0  0  0  0  0  0
  185.0470  178.2910  138.8820 C   0  0  0  0  0  0  0  0  0  0  0  0
  183.5400  177.5310  136.0850 C   0  0  0  0  0  2  0  0  0  0  0  0
  183.9640  179.0420  142.9540 C   0  0  0  0  0  1  0  0  0  0  0  0
  188.4460  178.4360  140.2340 O   0  0  0  0  0  0  0  0  0  0  0  0
  186.8940  178.4170  137.0940 C   0  0  0  0  0  2  0  0  0  0  0  0
  189.4730  173.7540  136.9710 C   0  0  0  0  0  1  0  0  0  0  0  0
  187.8720  175.4130  136.1130 N   0  0  0  0  0  0  0  0  0  0  0  0
  188.7470  175.0600  137.2340 C   0  0  2  0  0  3  0  0  0  0  0  0
  186.0710  178.4100  139.8610 C   0  0  0  0  0  0  0  0  0  0  0  0
  185.9510  174.4710  137.0510 O   0  0  0  0  0  0  0  0  0  0  0  0
  184.7470  177.0520  136.7610 N   0  0  1  0  0  0  0  0  0  0  0  0
  186.6960  178.8200  142.1820 O   0  0  0  0  0  1  0  0  0  0  0  0
  189.1820  177.5980  137.6400 C   0  0  0  0  0  2  0  0  0  0  0  0
  183.6940  178.3040  139.3080 C   0  0  0  0  0  0  0  0  0  0  0  0
  184.3710  178.7660  141.5480 C   0  0  0  0  0  0  0  0  0  0  0  0
  187.7280  177.6400  138.0890 C   0  0  1  0  0  3  0  0  0  0  0  0
  182.6500  178.4180  136.9760 C   0  0  0  0  0  2  0  0  0  0  0  0
  182.5250  177.9130  138.4210 C   0  0  1  0  0  3  0  0  0  0  0  0
  185.5540  176.4070  135.7190 C   0  0  0  0  0  2  0  0  0  0  0  0
  185.3990  178.2130  137.3990 C   0  0  1  0  0  3  0  0  0  0  0  0
  183.4110  178.5560  140.6130 N   0  0  0  0  0  0  0  0  0  0  0  0
  189.7480  176.1700  137.5930 C   0  0  0  0  0  2  0  0  0  0  0  0
  180.8580  174.6340  139.6590 C   0  0  1  0  0  3  0  0  0  0  0  0
  180.1450  174.3780  138.4720 O   0  0  0  0  0  0  0  0  0  0  0  0
  182.1740  176.4150  138.5130 C   0  0  1  0  0  3  0  0  0  0  0  0
  181.0680  174.4690  137.4150 C   0  0  0  0  0  2  0  0  0  0  0  0
  181.2690  176.1050  139.7100 C   0  0  0  0  0  2  0  0  0  0  0  0
  181.5030  175.9230  137.2270 C   0  0  0  0  0  2  0  0  0  0  0  0
  179.9830  174.3150  140.8530 C   0  0  0  0  0  1  0  0  0  0  0  0
  188.5180  177.1150  134.4640 C   0  0  0  0  0  1  0  0  0  0  0  0
  188.4290  175.6330  134.7790 C   0  0  0  0  0  2  0  0  0  0  0  0
  1 18  1  0  0  0  0
  1 15  1  0  0  0  0
  2 12  1  0  0  0  0
  2  7  2  0  0  0  0
  3 13  2  0  0  0  0
  4 17  2  0  0  0  0
  4 12  1  0  0  0  0
  5 14  1  0  0  0  0
  5 20  1  0  0  0  0
 10  3  1  0  0  0  0
 10 11  1  0  0  0  0
 11  9  1  6  0  0  0
 11 25  1  0  0  0  0
 12  1  2  0  0  0  0
 14 22  1  6  0  0  0
 14 23  1  0  0  0  0
 16 19  1  0  0  0  0
 17 24  1  0  0  0  0
 18  6  1  0  0  0  0
 19  8  1  6  0  0  0
 19  2  1  0  0  0  0
 21 20  1  6  0  0  0
 21 28  1  0  0  0  0
 21 17  1  0  0  0  0
 22  3  1  0  0  0  0
 23  8  1  1  0  0  0
 23  4  1  0  0  0  0
 24 18  2  0  0  0  0
 25 16  1  0  0  0  0
 26 30  1  0  0  0  0
 26 32  1  1  0  0  0
 27 26  1  0  0  0  0
 28 31  1  6  0  0  0
 28 30  1  0  0  0  0
 29 27  1  0  0  0  0
 31 29  1  0  0  0  0
 33 34  1  0  0  0  0
 34 10  1  0  0  0  0
M  END
>  <MODEL>
8

>  <REMARK>
 VINA RESULT:      -5.3      2.148      5.170
  Name = 
  2 active torsions:
  status: ('A' for Active; 'I' for Inactive)
    1  A    between atoms: C_12  and  C_28
    2  A    between atoms: N_13  and  C_33
                            x       y       z     vdW  Elec       q    Type
                         _______ _______ _______ _____ _____    ______ ____

>  <TORSDO>
F 2

$$$$
=
 OpenBabel10262423473D

 34 38  0  0  1  0  0  0  0  0999 V2000
  188.6670  177.8050  140.2170 C   0  0  0  0  0  0  0  0  0  0  0  0
  190.7010  177.0560  138.9180 C   0  0  0  0  0  0  0  0  0  0  0  0
  189.9880  174.7280  135.3110 C   0  0  0  0  0  0  0  0  0  0  0  0
  188.5750  177.7330  137.7770 C   0  0  0  0  0  0  0  0  0  0  0  0
  187.7480  177.5080  134.6250 C   0  0  0  0  0  2  0  0  0  0  0  0
  186.6200  178.4590  141.5140 C   0  0  0  0  0  1  0  0  0  0  0  0
  191.4460  177.0200  139.9350 O   0  0  0  0  0  0  0  0  0  0  0  0
  190.8180  177.5460  136.5280 C   0  0  0  0  0  2  0  0  0  0  0  0
  192.3340  172.4360  136.4960 C   0  0  0  0  0  1  0  0  0  0  0  0
  191.3920  174.4640  135.4710 N   0  0  0  0  0  0  0  0  0  0  0  0
  191.8440  173.8550  136.7240 C   0  0  2  0  0  3  0  0  0  0  0  0
  189.3020  177.5560  138.9850 C   0  0  0  0  0  0  0  0  0  0  0  0
  189.1400  173.9280  135.7870 O   0  0  0  0  0  0  0  0  0  0  0  0
  188.6070  176.7270  135.5160 N   0  0  1  0  0  0  0  0  0  0  0  0
  189.3550  177.6710  141.4210 O   0  0  0  0  0  1  0  0  0  0  0  0
  192.6610  176.1970  137.5220 C   0  0  0  0  0  2  0  0  0  0  0  0
  187.1900  178.0270  137.8540 C   0  0  0  0  0  0  0  0  0  0  0  0
  187.3230  178.1850  140.2300 C   0  0  0  0  0  0  0  0  0  0  0  0
  191.1800  176.5410  137.6000 C   0  0  1  0  0  3  0  0  0  0  0  0
  186.8520  178.5180  135.3670 C   0  0  0  0  0  2  0  0  0  0  0  0
  186.2460  177.9660  136.6660 C   0  0  1  0  0  3  0  0  0  0  0  0
  189.5150  175.9810  134.6380 C   0  0  0  0  0  2  0  0  0  0  0  0
  189.2870  177.6680  136.4290 C   0  0  1  0  0  3  0  0  0  0  0  0
  186.6250  178.2560  139.0690 N   0  0  0  0  0  0  0  0  0  0  0  0
  192.9170  174.6840  137.4490 C   0  0  0  0  0  2  0  0  0  0  0  0
  185.6110  174.1580  137.0620 C   0  0  1  0  0  3  0  0  0  0  0  0
  184.3720  174.2860  137.7180 O   0  0  0  0  0  0  0  0  0  0  0  0
  185.5860  176.5850  136.4900 C   0  0  1  0  0  3  0  0  0  0  0  0
  183.5900  175.1620  136.9450 C   0  0  0  0  0  2  0  0  0  0  0  0
  186.3900  175.4690  137.1640 C   0  0  0  0  0  2  0  0  0  0  0  0
  184.1530  176.5810  137.0340 C   0  0  0  0  0  2  0  0  0  0  0  0
  186.4110  173.0460  137.7060 C   0  0  0  0  0  1  0  0  0  0  0  0
  192.9150  176.0290  134.3460 C   0  0  0  0  0  1  0  0  0  0  0  0
  192.3170  174.6340  134.3520 C   0  0  0  0  0  2  0  0  0  0  0  0
  1 18  1  0  0  0  0
  1 15  1  0  0  0  0
  2 12  1  0  0  0  0
  2  7  2  0  0  0  0
  3 10  1  0  0  0  0
  3 13  2  0  0  0  0
  4 17  2  0  0  0  0
  4 12  1  0  0  0  0
  5 20  1  0  0  0  0
 10 11  1  0  0  0  0
 11  9  1  6  0  0  0
 11 25  1  0  0  0  0
 12  1  2  0  0  0  0
 14  5  1  6  0  0  0
 14 23  1  0  0  0  0
 16 19  1  0  0  0  0
 17 24  1  0  0  0  0
 18  6  1  0  0  0  0
 19  8  1  6  0  0  0
 19  2  1  0  0  0  0
 21 20  1  6  0  0  0
 21 17  1  0  0  0  0
 22  3  1  0  0  0  0
 22 14  1  0  0  0  0
 23  8  1  1  0  0  0
 23  4  1  0  0  0  0
 24 18  2  0  0  0  0
 25 16  1  0  0  0  0
 26 30  1  0  0  0  0
 26 32  1  1  0  0  0
 26 27  1  0  0  0  0
 28 21  1  0  0  0  0
 28 31  1  1  0  0  0
 28 30  1  0  0  0  0
 29 31  1  0  0  0  0
 29 27  1  0  0  0  0
 33 34  1  0  0  0  0
 34 10  1  0  0  0  0
M  END
>  <MODEL>
9

>  <REMARK>
 VINA RESULT:      -5.1      3.345      6.686
  Name = 
  2 active torsions:
  status: ('A' for Active; 'I' for Inactive)
    1  A    between atoms: C_12  and  C_28
    2  A    between atoms: N_13  and  C_33
                            x       y       z     vdW  Elec       q    Type
                         _______ _______ _______ _____ _____    ______ ____

>  <TORSDO>
F 2

$$$$
