=
 OpenBabel10262423433D

 34 35  0  0  1  0  0  0  0  0999 V2000
  190.6150  176.8170  146.8790 C   0  0  2  0  0  3  0  0  0  0  0  0
  189.7870  177.1240  144.5040 C   0  0  1  0  0  3  0  0  0  0  0  0
  190.9860  177.2820  145.4590 C   0  0  2  0  0  3  0  0  0  0  0  0
  188.4460  177.5860  145.1290 C   0  0  2  0  0  3  0  0  0  0  0  0
  189.4780  177.5930  147.3540 N   0  0  0  0  0  2  0  0  0  0  0  0
  188.3100  177.1750  146.5930 C   0  0  0  0  0  2  0  0  0  0  0  0
  192.0670  176.5390  144.9670 O   0  0  0  0  0  0  0  0  0  0  0  0
  191.6350  175.2080  144.9950 C   0  0  0  0  0  1  0  0  0  0  0  0
  192.4570  175.6820  148.1180 C   0  0  0  0  0  1  0  0  0  0  0  0
  191.7710  177.0090  147.8450 C   0  0  0  0  0  2  0  0  0  0  0  0
  187.4560  175.9640  143.6420 O   0  0  0  0  0  1  0  0  0  0  0  0
  187.2940  177.1030  144.3610 N   0  0  0  0  0  0  0  0  0  0  0  0
  184.0640  178.5680  143.0990 C   0  0  0  0  0  0  0  0  0  0  0  0
  183.5290  179.0970  144.2780 C   0  0  0  0  0  3  0  0  0  0  0  0
  186.0240  177.7910  144.3220 C   0  0  0  0  0  0  0  0  0  0  0  0
  184.2410  178.9840  145.4760 C   0  0  0  0  0  3  0  0  0  0  0  0
  185.3060  177.9270  143.1210 C   0  0  0  0  0  3  0  0  0  0  0  0
  185.4820  178.3330  145.4970 C   0  0  0  0  0  3  0  0  0  0  0  0
  183.3200  178.6980  141.8190 C   0  0  0  0  0  1  0  0  0  0  0  0
  190.0820  177.7880  143.1380 C   0  0  2  0  0  3  0  0  0  0  0  0
  190.6350  175.6490  142.1700 O   0  0  0  0  0  0  0  0  0  0  0  0
  190.1860  176.8120  141.9770 C   0  0  0  0  0  0  0  0  0  0  0  0
  189.7300  177.1480  140.6600 N   0  0  0  0  0  2  0  0  0  0  0  0
  188.9170  178.3070  140.3310 C   0  0  0  0  0  2  0  0  0  0  0  0
  189.0930  178.6730  138.8630 C   0  0  0  0  0  2  0  0  0  0  0  0
  188.6580  177.5780  137.9960 N   0  0  0  0  0  0  0  0  0  0  0  0
  189.1880  176.3110  136.0120 C   0  0  0  0  0  2  0  0  0  0  0  0
  189.5860  176.8710  137.1470 C   0  0  0  0  0  0  0  0  0  0  0  0
  191.0330  176.7750  137.5030 C   0  0  0  0  0  1  0  0  0  0  0  0
  187.2510  177.1890  138.0330 C   0  0  0  0  0  2  0  0  0  0  0  0
  185.2130  178.4830  138.5730 C   0  0  0  0  0  1  0  0  0  0  0  0
  186.3600  178.3390  137.5940 C   0  0  0  0  0  2  0  0  0  0  0  0
  191.3090  178.6870  143.2340 C   0  0  0  0  0  2  0  0  0  0  0  0
  190.9700  179.9080  143.8260 O   0  0  0  0  0  1  0  0  0  0  0  0
  1  5  1  0  0  0  0
  1 10  1  1  0  0  0
  2 20  1  6  0  0  0
  2  4  1  0  0  0  0
  2  3  1  0  0  0  0
  3  7  1  6  0  0  0
  3  1  1  0  0  0  0
  4 12  1  6  0  0  0
  4  6  1  0  0  0  0
  6  5  1  0  0  0  0
  7  8  1  0  0  0  0
 10  9  1  0  0  0  0
 11 12  1  0  0  0  0
 13 17  2  0  0  0  0
 13 14  1  0  0  0  0
 14 16  2  0  0  0  0
 15 12  1  0  0  0  0
 15 18  2  0  0  0  0
 16 18  1  0  0  0  0
 17 15  1  0  0  0  0
 19 13  1  0  0  0  0
 20 33  1  1  0  0  0
 22 21  2  0  0  0  0
 22 20  1  0  0  0  0
 23 22  1  0  0  0  0
 24 23  1  0  0  0  0
 25 24  1  0  0  0  0
 26 30  1  0  0  0  0
 26 25  1  0  0  0  0
 27 28  2  0  0  0  0
 28 29  1  0  0  0  0
 28 26  1  0  0  0  0
 32 30  1  0  0  0  0
 32 31  1  0  0  0  0
 33 34  1  0  0  0  0
M  END
>  <MODEL>
1

>  <REMARK>
 VINA RESULT:      -7.2      0.000      0.000
  Name = 
  13 active torsions:
  status: ('A' for Active; 'I' for Inactive)
    1  A    between atoms: C_1  and  C_19
    2  A    between atoms: O_2  and  C_15
    3  A    between atoms: C_3  and  N_13
    4  A    between atoms: C_3  and  C_17
    5  A    between atoms: C_4  and  C_31
    6  A    between atoms: C_10  and  C_31
    7  A    between atoms: C_12  and  N_28
    8  A    between atoms: N_13  and  C_14
    9  A    between atoms: N_13  and  C_33
   10  A    between atoms: C_17  and  N_29
   11  A    between atoms: C_18  and  C_31
   12  A    between atoms: C_21  and  N_28
   13  A    between atoms: C_22  and  C_33
                            x       y       z     vdW  Elec       q    Type
                         _______ _______ _______ _____ _____    ______ ____

>  <TORSDO>
F 13

$$$$
=
 OpenBabel10262423433D

 34 35  0  0  1  0  0  0  0  0999 V2000
  190.5880  176.7790  146.8520 C   0  0  2  0  0  3  0  0  0  0  0  0
  189.7740  177.1840  144.4870 C   0  0  1  0  0  3  0  0  0  0  0  0
  190.9580  177.3280  145.4620 C   0  0  2  0  0  3  0  0  0  0  0  0
  188.4130  177.5720  145.1210 C   0  0  2  0  0  3  0  0  0  0  0  0
  189.4230  177.4950  147.3540 N   0  0  0  0  0  2  0  0  0  0  0  0
  188.2760  177.0820  146.5600 C   0  0  0  0  0  2  0  0  0  0  0  0
  192.0660  176.6440  144.9440 O   0  0  0  0  0  0  0  0  0  0  0  0
  191.6650  175.3060  144.8740 C   0  0  0  0  0  1  0  0  0  0  0  0
  192.4320  175.6300  148.0750 C   0  0  0  0  0  1  0  0  0  0  0  0
  191.7290  176.9550  147.8390 C   0  0  0  0  0  2  0  0  0  0  0  0
  187.4510  175.9390  143.6280 O   0  0  0  0  0  1  0  0  0  0  0  0
  187.2840  177.0960  144.3160 N   0  0  0  0  0  0  0  0  0  0  0  0
  184.1460  178.6100  142.8910 C   0  0  0  0  0  0  0  0  0  0  0  0
  183.5660  179.1600  144.0390 C   0  0  0  0  0  3  0  0  0  0  0  0
  186.0310  177.8070  144.2110 C   0  0  0  0  0  0  0  0  0  0  0  0
  184.2180  179.0440  145.2690 C   0  0  0  0  0  3  0  0  0  0  0  0
  185.3730  177.9450  142.9760 C   0  0  0  0  0  3  0  0  0  0  0  0
  185.4440  178.3700  145.3550 C   0  0  0  0  0  3  0  0  0  0  0  0
  183.4660  178.7420  141.5750 C   0  0  0  0  0  1  0  0  0  0  0  0
  190.0600  177.9270  143.1610 C   0  0  2  0  0  3  0  0  0  0  0  0
  190.6200  175.8750  142.0220 O   0  0  0  0  0  0  0  0  0  0  0  0
  190.1100  177.0260  141.9370 C   0  0  0  0  0  0  0  0  0  0  0  0
  189.5350  177.4170  140.6830 N   0  0  0  0  0  2  0  0  0  0  0  0
  188.6510  178.5550  140.4910 C   0  0  0  0  0  2  0  0  0  0  0  0
  187.4130  178.1330  139.7120 C   0  0  0  0  0  2  0  0  0  0  0  0
  187.7210  177.9640  138.2920 N   0  0  0  0  0  0  0  0  0  0  0  0
  185.9840  177.6980  136.6380 C   0  0  0  0  0  2  0  0  0  0  0  0
  186.8970  177.1510  137.4310 C   0  0  0  0  0  0  0  0  0  0  0  0
  187.0670  175.6690  137.3810 C   0  0  0  0  0  1  0  0  0  0  0  0
  188.8770  178.6730  137.7500 C   0  0  0  0  0  2  0  0  0  0  0  0
  190.6090  176.9390  137.4100 C   0  0  0  0  0  1  0  0  0  0  0  0
  189.5960  177.8250  136.7140 C   0  0  0  0  0  2  0  0  0  0  0  0
  191.3180  178.7800  143.2860 C   0  0  0  0  0  2  0  0  0  0  0  0
  191.0340  179.9590  143.9830 O   0  0  0  0  0  1  0  0  0  0  0  0
  1  5  1  0  0  0  0
  1 10  1  1  0  0  0
  2 20  1  6  0  0  0
  2  4  1  0  0  0  0
  2  3  1  0  0  0  0
  3  7  1  6  0  0  0
  3  1  1  0  0  0  0
  4 12  1  6  0  0  0
  4  6  1  0  0  0  0
  6  5  1  0  0  0  0
  8  7  1  0  0  0  0
 10  9  1  0  0  0  0
 11 12  1  0  0  0  0
 13 17  2  0  0  0  0
 13 14  1  0  0  0  0
 14 16  2  0  0  0  0
 15 12  1  0  0  0  0
 15 18  2  0  0  0  0
 16 18  1  0  0  0  0
 17 15  1  0  0  0  0
 19 13  1  0  0  0  0
 20 33  1  1  0  0  0
 22 21  2  0  0  0  0
 22 20  1  0  0  0  0
 23 22  1  0  0  0  0
 24 23  1  0  0  0  0
 25 24  1  0  0  0  0
 26 25  1  0  0  0  0
 27 28  2  0  0  0  0
 28 26  1  0  0  0  0
 29 28  1  0  0  0  0
 30 26  1  0  0  0  0
 32 31  1  0  0  0  0
 32 30  1  0  0  0  0
 33 34  1  0  0  0  0
M  END
>  <MODEL>
2

>  <REMARK>
 VINA RESULT:      -7.1      0.651      1.645
  Name = 
  13 active torsions:
  status: ('A' for Active; 'I' for Inactive)
    1  A    between atoms: C_1  and  C_19
    2  A    between atoms: O_2  and  C_15
    3  A    between atoms: C_3  and  N_13
    4  A    between atoms: C_3  and  C_17
    5  A    between atoms: C_4  and  C_31
    6  A    between atoms: C_10  and  C_31
    7  A    between atoms: C_12  and  N_28
    8  A    between atoms: N_13  and  C_14
    9  A    between atoms: N_13  and  C_33
   10  A    between atoms: C_17  and  N_29
   11  A    between atoms: C_18  and  C_31
   12  A    between atoms: C_21  and  N_28
   13  A    between atoms: C_22  and  C_33
                            x       y       z     vdW  Elec       q    Type
                         _______ _______ _______ _____ _____    ______ ____

>  <TORSDO>
F 13

$$$$
=
 OpenBabel10262423433D

 34 35  0  0  1  0  0  0  0  0999 V2000
  183.7520  176.6060  135.8000 C   0  0  2  0  0  3  0  0  0  0  0  0
  185.4570  177.4670  137.4640 C   0  0  1  0  0  3  0  0  0  0  0  0
  185.1890  176.4570  136.3320 C   0  0  2  0  0  3  0  0  0  0  0  0
  184.2820  177.5810  138.4690 C   0  0  2  0  0  3  0  0  0  0  0  0
  182.8130  176.4050  136.8950 N   0  0  0  0  0  2  0  0  0  0  0  0
  182.9190  177.5550  137.7820 C   0  0  0  0  0  2  0  0  0  0  0  0
  186.1160  176.6640  135.3020 O   0  0  0  0  0  0  0  0  0  0  0  0
  185.7520  177.8860  134.7260 C   0  0  0  0  0  1  0  0  0  0  0  0
  182.8370  174.3370  135.3160 C   0  0  0  0  0  1  0  0  0  0  0  0
  183.4550  175.5870  134.7140 C   0  0  0  0  0  2  0  0  0  0  0  0
  184.7890  179.9280  138.7070 O   0  0  0  0  0  1  0  0  0  0  0  0
  184.4000  178.7760  139.3090 N   0  0  0  0  0  0  0  0  0  0  0  0
  182.5990  178.8160  142.6140 C   0  0  0  0  0  0  0  0  0  0  0  0
  183.6710  178.7180  143.5070 C   0  0  0  0  0  3  0  0  0  0  0  0
  184.1450  178.7730  140.7320 C   0  0  0  0  0  0  0  0  0  0  0  0
  184.9790  178.6560  143.0180 C   0  0  0  0  0  3  0  0  0  0  0  0
  182.8360  178.8500  141.2370 C   0  0  0  0  0  3  0  0  0  0  0  0
  185.2140  178.6830  141.6370 C   0  0  0  0  0  3  0  0  0  0  0  0
  181.2060  178.8960  143.1290 C   0  0  0  0  0  1  0  0  0  0  0  0
  186.8150  177.1780  138.1470 C   0  0  2  0  0  3  0  0  0  0  0  0
  187.8570  179.0960  137.1200 O   0  0  0  0  0  0  0  0  0  0  0  0
  187.7830  178.3510  138.1350 C   0  0  0  0  0  0  0  0  0  0  0  0
  188.5860  178.6830  139.2760 N   0  0  0  0  0  2  0  0  0  0  0  0
  188.4060  178.1340  140.6100 C   0  0  0  0  0  2  0  0  0  0  0  0
  189.5860  177.2450  140.9750 C   0  0  0  0  0  2  0  0  0  0  0  0
  189.6380  177.0110  142.4180 N   0  0  0  0  0  0  0  0  0  0  0  0
  191.4470  175.9680  143.6270 C   0  0  0  0  0  2  0  0  0  0  0  0
  190.8810  177.0690  143.1490 C   0  0  0  0  0  0  0  0  0  0  0  0
  191.5870  178.3670  143.3630 C   0  0  0  0  0  1  0  0  0  0  0  0
  188.3840  176.7490  143.1170 C   0  0  0  0  0  2  0  0  0  0  0  0
  188.0240  177.1060  145.5390 C   0  0  0  0  0  1  0  0  0  0  0  0
  188.1340  177.7920  144.1930 C   0  0  0  0  0  2  0  0  0  0  0  0
  187.4470  175.9170  137.5700 C   0  0  0  0  0  2  0  0  0  0  0  0
  188.8410  175.9910  137.6590 O   0  0  0  0  0  1  0  0  0  0  0  0
  1 10  1  6  0  0  0
  1  3  1  0  0  0  0
  1  5  1  0  0  0  0
  2 20  1  1  0  0  0
  2  4  1  0  0  0  0
  3  7  1  6  0  0  0
  3  2  1  0  0  0  0
  4 12  1  6  0  0  0
  5  6  1  0  0  0  0
  6  4  1  0  0  0  0
  8  7  1  0  0  0  0
 10  9  1  0  0  0  0
 11 12  1  0  0  0  0
 12 15  1  0  0  0  0
 13 19  1  0  0  0  0
 13 14  1  0  0  0  0
 15 17  1  0  0  0  0
 15 18  2  0  0  0  0
 16 14  2  0  0  0  0
 17 13  2  0  0  0  0
 18 16  1  0  0  0  0
 20 33  1  6  0  0  0
 21 22  2  0  0  0  0
 22 20  1  0  0  0  0
 22 23  1  0  0  0  0
 23 24  1  0  0  0  0
 24 25  1  0  0  0  0
 25 26  1  0  0  0  0
 26 30  1  0  0  0  0
 26 28  1  0  0  0  0
 28 29  1  0  0  0  0
 28 27  2  0  0  0  0
 30 32  1  0  0  0  0
 32 31  1  0  0  0  0
 33 34  1  0  0  0  0
M  END
>  <MODEL>
3

>  <REMARK>
 VINA RESULT:      -6.6      3.314      7.899
  Name = 
  13 active torsions:
  status: ('A' for Active; 'I' for Inactive)
    1  A    between atoms: C_1  and  C_19
    2  A    between atoms: O_2  and  C_15
    3  A    between atoms: C_3  and  N_13
    4  A    between atoms: C_3  and  C_17
    5  A    between atoms: C_4  and  C_31
    6  A    between atoms: C_10  and  C_31
    7  A    between atoms: C_12  and  N_28
    8  A    between atoms: N_13  and  C_14
    9  A    between atoms: N_13  and  C_33
   10  A    between atoms: C_17  and  N_29
   11  A    between atoms: C_18  and  C_31
   12  A    between atoms: C_21  and  N_28
   13  A    between atoms: C_22  and  C_33
                            x       y       z     vdW  Elec       q    Type
                         _______ _______ _______ _____ _____    ______ ____

>  <TORSDO>
F 13

$$$$
=
 OpenBabel10262423433D

 34 35  0  0  1  0  0  0  0  0999 V2000
  188.7760  177.6010  147.2740 C   0  0  2  0  0  3  0  0  0  0  0  0
  189.3430  177.3680  144.8160 C   0  0  1  0  0  3  0  0  0  0  0  0
  189.8700  177.7740  146.2060 C   0  0  2  0  0  3  0  0  0  0  0  0
  187.9120  177.8930  144.5310 C   0  0  2  0  0  3  0  0  0  0  0  0
  187.6210  178.4100  146.9110 N   0  0  0  0  0  2  0  0  0  0  0  0
  186.9980  177.7930  145.7490 C   0  0  0  0  0  2  0  0  0  0  0  0
  190.9890  176.9910  146.5200 O   0  0  0  0  0  0  0  0  0  0  0  0
  190.4650  175.8010  147.0360 C   0  0  0  0  0  1  0  0  0  0  0  0
  188.0890  178.2430  149.5840 C   0  0  0  0  0  1  0  0  0  0  0  0
  189.2640  178.0400  148.6440 C   0  0  0  0  0  2  0  0  0  0  0  0
  187.7280  175.9540  143.1080 O   0  0  0  0  0  1  0  0  0  0  0  0
  187.3020  177.2110  143.3860 N   0  0  0  0  0  0  0  0  0  0  0  0
  184.0280  178.6260  142.1820 C   0  0  0  0  0  0  0  0  0  0  0  0
  184.3760  179.0580  140.8980 C   0  0  0  0  0  3  0  0  0  0  0  0
  186.3000  177.8220  142.5430 C   0  0  0  0  0  0  0  0  0  0  0  0
  185.6800  178.8670  140.4310 C   0  0  0  0  0  3  0  0  0  0  0  0
  184.9810  178.0060  142.9950 C   0  0  0  0  0  3  0  0  0  0  0  0
  186.6360  178.2530  141.2500 C   0  0  0  0  0  3  0  0  0  0  0  0
  182.6390  178.8130  142.6800 C   0  0  0  0  0  1  0  0  0  0  0  0
  190.3590  177.7430  143.7120 C   0  0  2  0  0  3  0  0  0  0  0  0
  191.5460  175.6440  143.6720 O   0  0  0  0  0  0  0  0  0  0  0  0
  190.9800  176.5510  143.0020 C   0  0  0  0  0  0  0  0  0  0  0  0
  190.8940  176.3850  141.5810 N   0  0  0  0  0  2  0  0  0  0  0  0
  190.0300  177.1560  140.7030 C   0  0  0  0  0  2  0  0  0  0  0  0
  190.6520  177.2680  139.3180 C   0  0  0  0  0  2  0  0  0  0  0  0
  189.8790  176.5110  138.3340 N   0  0  0  0  0  0  0  0  0  0  0  0
  191.7650  175.5830  137.1500 C   0  0  0  0  0  2  0  0  0  0  0  0
  190.4900  175.4970  137.5090 C   0  0  0  0  0  0  0  0  0  0  0  0
  189.7170  174.3020  137.0590 C   0  0  0  0  0  1  0  0  0  0  0  0
  188.4480  176.7820  138.2270 C   0  0  0  0  0  2  0  0  0  0  0  0
  186.7330  178.0660  136.9910 C   0  0  0  0  0  1  0  0  0  0  0  0
  188.1940  178.0230  137.3880 C   0  0  0  0  0  2  0  0  0  0  0  0
  191.4200  178.6910  144.2600 C   0  0  0  0  0  2  0  0  0  0  0  0
  191.0870  180.0150  143.9590 O   0  0  0  0  0  1  0  0  0  0  0  0
  1 10  1  1  0  0  0
  2 20  1  6  0  0  0
  2  3  1  0  0  0  0
  3  7  1  1  0  0  0
  3  1  1  0  0  0  0
  4 12  1  6  0  0  0
  4  2  1  0  0  0  0
  4  6  1  0  0  0  0
  5  1  1  0  0  0  0
  6  5  1  0  0  0  0
  7  8  1  0  0  0  0
 10  9  1  0  0  0  0
 11 12  1  0  0  0  0
 13 19  1  0  0  0  0
 13 17  1  0  0  0  0
 14 13  2  0  0  0  0
 15 17  2  0  0  0  0
 15 12  1  0  0  0  0
 16 14  1  0  0  0  0
 16 18  2  0  0  0  0
 18 15  1  0  0  0  0
 20 33  1  1  0  0  0
 22 21  2  0  0  0  0
 22 20  1  0  0  0  0
 23 22  1  0  0  0  0
 24 23  1  0  0  0  0
 25 24  1  0  0  0  0
 26 25  1  0  0  0  0
 27 28  2  0  0  0  0
 28 26  1  0  0  0  0
 29 28  1  0  0  0  0
 30 26  1  0  0  0  0
 31 32  1  0  0  0  0
 32 30  1  0  0  0  0
 34 33  1  0  0  0  0
M  END
>  <MODEL>
4

>  <REMARK>
 VINA RESULT:      -6.6      1.530      2.264
  Name = 
  13 active torsions:
  status: ('A' for Active; 'I' for Inactive)
    1  A    between atoms: C_1  and  C_19
    2  A    between atoms: O_2  and  C_15
    3  A    between atoms: C_3  and  N_13
    4  A    between atoms: C_3  and  C_17
    5  A    between atoms: C_4  and  C_31
    6  A    between atoms: C_10  and  C_31
    7  A    between atoms: C_12  and  N_28
    8  A    between atoms: N_13  and  C_14
    9  A    between atoms: N_13  and  C_33
   10  A    between atoms: C_17  and  N_29
   11  A    between atoms: C_18  and  C_31
   12  A    between atoms: C_21  and  N_28
   13  A    between atoms: C_22  and  C_33
                            x       y       z     vdW  Elec       q    Type
                         _______ _______ _______ _____ _____    ______ ____

>  <TORSDO>
F 13

$$$$
=
 OpenBabel10262423433D

 34 35  0  0  1  0  0  0  0  0999 V2000
  181.3650  179.1640  142.5040 C   0  0  2  0  0  3  0  0  0  0  0  0
  182.9210  178.3340  140.6850 C   0  0  1  0  0  3  0  0  0  0  0  0
  181.4980  178.2530  141.2700 C   0  0  2  0  0  3  0  0  0  0  0  0
  184.0280  178.3110  141.7700 C   0  0  2  0  0  3  0  0  0  0  0  0
  182.3500  178.7660  143.5000 N   0  0  0  0  0  2  0  0  0  0  0  0
  183.6630  179.1430  142.9970 C   0  0  0  0  0  2  0  0  0  0  0  0
  180.5730  178.6250  140.2850 O   0  0  0  0  0  0  0  0  0  0  0  0
  180.6980  180.0140  140.1760 C   0  0  0  0  0  1  0  0  0  0  0  0
  179.9930  178.0820  144.2830 C   0  0  0  0  0  1  0  0  0  0  0  0
  179.9820  179.0610  143.1220 C   0  0  0  0  0  2  0  0  0  0  0  0
  185.3100  179.5140  140.1170 O   0  0  0  0  0  1  0  0  0  0  0  0
  185.3220  178.7440  141.2340 N   0  0  0  0  0  0  0  0  0  0  0  0
  187.9060  177.6310  143.7360 C   0  0  0  0  0  0  0  0  0  0  0  0
  189.0570  177.6060  142.9420 C   0  0  0  0  0  3  0  0  0  0  0  0
  186.5870  178.3720  141.8250 C   0  0  0  0  0  0  0  0  0  0  0  0
  188.9790  177.9710  141.5950 C   0  0  0  0  0  3  0  0  0  0  0  0
  186.6820  178.0190  143.1820 C   0  0  0  0  0  3  0  0  0  0  0  0
  187.7500  178.3510  141.0390 C   0  0  0  0  0  3  0  0  0  0  0  0
  187.9830  177.2580  145.1730 C   0  0  0  0  0  1  0  0  0  0  0  0
  183.1250  177.2650  139.5860 C   0  0  2  0  0  3  0  0  0  0  0  0
  182.6890  178.9440  137.9100 O   0  0  0  0  0  0  0  0  0  0  0  0
  183.2070  177.8250  138.1750 C   0  0  0  0  0  0  0  0  0  0  0  0
  183.9180  177.1470  137.1300 N   0  0  0  0  0  2  0  0  0  0  0  0
  184.8200  176.0250  137.3280 C   0  0  0  0  0  2  0  0  0  0  0  0
  185.8480  175.9730  136.2070 C   0  0  0  0  0  2  0  0  0  0  0  0
  187.2060  175.9020  136.7460 N   0  0  0  0  0  0  0  0  0  0  0  0
  189.3400  174.7820  136.8750 C   0  0  0  0  0  2  0  0  0  0  0  0
  188.1180  174.8510  136.3620 C   0  0  0  0  0  0  0  0  0  0  0  0
  187.7030  173.7870  135.4010 C   0  0  0  0  0  1  0  0  0  0  0  0
  187.6360  176.9500  137.6660 C   0  0  0  0  0  2  0  0  0  0  0  0
  189.0060  178.9950  137.4070 C   0  0  0  0  0  1  0  0  0  0  0  0
  187.7460  178.2870  136.9510 C   0  0  0  0  0  2  0  0  0  0  0  0
  182.0670  176.1730  139.6990 C   0  0  0  0  0  2  0  0  0  0  0  0
  181.1700  176.2550  138.6290 O   0  0  0  0  0  1  0  0  0  0  0  0
  1 10  1  1  0  0  0
  1  5  1  0  0  0  0
  2 20  1  6  0  0  0
  2  3  1  0  0  0  0
  2  4  1  0  0  0  0
  3  7  1  6  0  0  0
  3  1  1  0  0  0  0
  4 12  1  6  0  0  0
  4  6  1  0  0  0  0
  6  5  1  0  0  0  0
  8  7  1  0  0  0  0
 10  9  1  0  0  0  0
 11 12  1  0  0  0  0
 12 15  1  0  0  0  0
 13 19  1  0  0  0  0
 14 13  2  0  0  0  0
 15 17  2  0  0  0  0
 16 14  1  0  0  0  0
 17 13  1  0  0  0  0
 18 16  2  0  0  0  0
 18 15  1  0  0  0  0
 20 33  1  6  0  0  0
 21 22  2  0  0  0  0
 22 20  1  0  0  0  0
 23 24  1  0  0  0  0
 23 22  1  0  0  0  0
 25 26  1  0  0  0  0
 25 24  1  0  0  0  0
 26 30  1  0  0  0  0
 28 26  1  0  0  0  0
 28 27  2  0  0  0  0
 29 28  1  0  0  0  0
 32 31  1  0  0  0  0
 32 30  1  0  0  0  0
 34 33  1  0  0  0  0
M  END
>  <MODEL>
5

>  <REMARK>
 VINA RESULT:      -6.2      3.647      7.492
  Name = 
  13 active torsions:
  status: ('A' for Active; 'I' for Inactive)
    1  A    between atoms: C_1  and  C_19
    2  A    between atoms: O_2  and  C_15
    3  A    between atoms: C_3  and  N_13
    4  A    between atoms: C_3  and  C_17
    5  A    between atoms: C_4  and  C_31
    6  A    between atoms: C_10  and  C_31
    7  A    between atoms: C_12  and  N_28
    8  A    between atoms: N_13  and  C_14
    9  A    between atoms: N_13  and  C_33
   10  A    between atoms: C_17  and  N_29
   11  A    between atoms: C_18  and  C_31
   12  A    between atoms: C_21  and  N_28
   13  A    between atoms: C_22  and  C_33
                            x       y       z     vdW  Elec       q    Type
                         _______ _______ _______ _____ _____    ______ ____

>  <TORSDO>
F 13

$$$$
=
 OpenBabel10262423433D

 34 35  0  0  1  0  0  0  0  0999 V2000
  181.3690  179.1580  142.5130 C   0  0  2  0  0  3  0  0  0  0  0  0
  182.9600  178.3800  140.7010 C   0  0  1  0  0  3  0  0  0  0  0  0
  181.5340  178.2610  141.2720 C   0  0  2  0  0  3  0  0  0  0  0  0
  184.0570  178.3730  141.7970 C   0  0  2  0  0  3  0  0  0  0  0  0
  182.3540  178.7740  143.5150 N   0  0  0  0  0  2  0  0  0  0  0  0
  183.6620  179.1860  143.0270 C   0  0  0  0  0  2  0  0  0  0  0  0
  180.6100  178.6210  140.2820 O   0  0  0  0  0  0  0  0  0  0  0  0
  180.6330  180.0190  140.2550 C   0  0  0  0  0  1  0  0  0  0  0  0
  180.0460  178.2220  144.4090 C   0  0  0  0  0  1  0  0  0  0  0  0
  179.9830  179.0190  143.1170 C   0  0  0  0  0  2  0  0  0  0  0  0
  185.3230  179.6950  140.2240 O   0  0  0  0  0  1  0  0  0  0  0  0
  185.3460  178.8400  141.2770 N   0  0  0  0  0  0  0  0  0  0  0  0
  187.9700  177.5720  143.6600 C   0  0  0  0  0  0  0  0  0  0  0  0
  189.0970  177.5480  142.8330 C   0  0  0  0  0  3  0  0  0  0  0  0
  186.6170  178.4160  141.8160 C   0  0  0  0  0  0  0  0  0  0  0  0
  188.9910  177.9650  141.5030 C   0  0  0  0  0  3  0  0  0  0  0  0
  186.7410  178.0100  143.1570 C   0  0  0  0  0  3  0  0  0  0  0  0
  187.7570  178.3950  140.9970 C   0  0  0  0  0  3  0  0  0  0  0  0
  188.0780  177.1440  145.0800 C   0  0  0  0  0  1  0  0  0  0  0  0
  183.1980  177.3250  139.5950 C   0  0  2  0  0  3  0  0  0  0  0  0
  182.3610  178.6230  137.7420 O   0  0  0  0  0  0  0  0  0  0  0  0
  183.2920  177.9010  138.1910 C   0  0  0  0  0  0  0  0  0  0  0  0
  184.4480  177.7010  137.3650 N   0  0  0  0  0  2  0  0  0  0  0  0
  185.7190  177.1690  137.8260 C   0  0  0  0  0  2  0  0  0  0  0  0
  186.8710  177.8860  137.1350 C   0  0  0  0  0  2  0  0  0  0  0  0
  187.7710  176.9290  136.4910 N   0  0  0  0  0  0  0  0  0  0  0  0
  189.3330  176.2890  138.2160 C   0  0  0  0  0  2  0  0  0  0  0  0
  189.1120  176.7080  136.9770 C   0  0  0  0  0  0  0  0  0  0  0  0
  190.2940  176.9130  136.0880 C   0  0  0  0  0  1  0  0  0  0  0  0
  187.2650  176.1680  135.3530 C   0  0  0  0  0  2  0  0  0  0  0  0
  188.0750  173.8310  135.2840 C   0  0  0  0  0  1  0  0  0  0  0  0
  186.9550  174.7350  135.7540 C   0  0  0  0  0  2  0  0  0  0  0  0
  182.1580  176.2150  139.6820 C   0  0  0  0  0  2  0  0  0  0  0  0
  182.3860  175.2600  138.6860 O   0  0  0  0  0  1  0  0  0  0  0  0
  1 10  1  1  0  0  0
  1  5  1  0  0  0  0
  2 20  1  6  0  0  0
  2  3  1  0  0  0  0
  2  4  1  0  0  0  0
  3  7  1  6  0  0  0
  3  1  1  0  0  0  0
  4 12  1  6  0  0  0
  4  6  1  0  0  0  0
  6  5  1  0  0  0  0
  8  7  1  0  0  0  0
 10  9  1  0  0  0  0
 11 12  1  0  0  0  0
 12 15  1  0  0  0  0
 13 19  1  0  0  0  0
 14 13  2  0  0  0  0
 15 17  2  0  0  0  0
 16 14  1  0  0  0  0
 17 13  1  0  0  0  0
 18 16  2  0  0  0  0
 18 15  1  0  0  0  0
 20 33  1  6  0  0  0
 21 22  2  0  0  0  0
 22 20  1  0  0  0  0
 23 24  1  0  0  0  0
 23 22  1  0  0  0  0
 25 24  1  0  0  0  0
 26 28  1  0  0  0  0
 26 25  1  0  0  0  0
 28 27  2  0  0  0  0
 29 28  1  0  0  0  0
 30 32  1  0  0  0  0
 30 26  1  0  0  0  0
 31 32  1  0  0  0  0
 34 33  1  0  0  0  0
M  END
>  <MODEL>
6

>  <REMARK>
 VINA RESULT:      -6.1      3.585      7.426
  Name = 
  13 active torsions:
  status: ('A' for Active; 'I' for Inactive)
    1  A    between atoms: C_1  and  C_19
    2  A    between atoms: O_2  and  C_15
    3  A    between atoms: C_3  and  N_13
    4  A    between atoms: C_3  and  C_17
    5  A    between atoms: C_4  and  C_31
    6  A    between atoms: C_10  and  C_31
    7  A    between atoms: C_12  and  N_28
    8  A    between atoms: N_13  and  C_14
    9  A    between atoms: N_13  and  C_33
   10  A    between atoms: C_17  and  N_29
   11  A    between atoms: C_18  and  C_31
   12  A    between atoms: C_21  and  N_28
   13  A    between atoms: C_22  and  C_33
                            x       y       z     vdW  Elec       q    Type
                         _______ _______ _______ _____ _____    ______ ____

>  <TORSDO>
F 13

$$$$
=
 OpenBabel10262423433D

 34 35  0  0  1  0  0  0  0  0999 V2000
  187.0190  174.0670  137.0540 C   0  0  2  0  0  3  0  0  0  0  0  0
  188.6820  175.9680  137.2540 C   0  0  1  0  0  3  0  0  0  0  0  0
  187.2780  175.5570  136.7700 C   0  0  2  0  0  3  0  0  0  0  0  0
  189.7750  174.9250  136.9050 C   0  0  2  0  0  3  0  0  0  0  0  0
  188.0410  173.2690  136.3910 N   0  0  0  0  0  2  0  0  0  0  0  0
  189.2960  173.4880  137.0940 C   0  0  0  0  0  2  0  0  0  0  0  0
  186.3190  176.3520  137.4120 O   0  0  0  0  0  0  0  0  0  0  0  0
  185.4240  176.7260  136.4040 C   0  0  0  0  0  1  0  0  0  0  0  0
  184.8460  173.0040  137.6600 C   0  0  0  0  0  1  0  0  0  0  0  0
  185.6570  173.6330  136.5410 C   0  0  0  0  0  2  0  0  0  0  0  0
  190.8740  175.5330  138.9650 O   0  0  0  0  0  1  0  0  0  0  0  0
  191.0050  175.1520  137.6700 N   0  0  0  0  0  0  0  0  0  0  0  0
  194.2400  175.9350  135.9120 C   0  0  0  0  0  0  0  0  0  0  0  0
  194.9220  174.7220  136.0480 C   0  0  0  0  0  3  0  0  0  0  0  0
  192.3270  175.0090  137.1030 C   0  0  0  0  0  0  0  0  0  0  0  0
  194.3080  173.6500  136.7020 C   0  0  0  0  0  3  0  0  0  0  0  0
  192.9490  176.0740  136.4290 C   0  0  0  0  0  3  0  0  0  0  0  0
  193.0170  173.7940  137.2280 C   0  0  0  0  0  3  0  0  0  0  0  0
  194.8810  177.0750  135.2040 C   0  0  0  0  0  1  0  0  0  0  0  0
  189.0310  177.3980  136.7790 C   0  0  2  0  0  3  0  0  0  0  0  0
  187.6060  179.3400  136.9010 O   0  0  0  0  0  0  0  0  0  0  0  0
  188.3060  178.5020  137.5320 C   0  0  0  0  0  0  0  0  0  0  0  0
  188.3390  178.5920  138.9620 N   0  0  0  0  0  2  0  0  0  0  0  0
  188.8290  177.5520  139.8520 C   0  0  0  0  0  2  0  0  0  0  0  0
  189.1480  178.1390  141.2200 C   0  0  0  0  0  2  0  0  0  0  0  0
  188.7120  177.2390  142.2890 N   0  0  0  0  0  0  0  0  0  0  0  0
  187.3030  176.9770  144.2300 C   0  0  0  0  0  2  0  0  0  0  0  0
  187.4800  177.4590  143.0060 C   0  0  0  0  0  0  0  0  0  0  0  0
  186.3760  178.2650  142.4070 C   0  0  0  0  0  1  0  0  0  0  0  0
  189.5460  176.0810  142.5950 C   0  0  0  0  0  2  0  0  0  0  0  0
  191.0610  176.7770  144.4220 C   0  0  0  0  0  1  0  0  0  0  0  0
  190.9640  176.5080  142.9350 C   0  0  0  0  0  2  0  0  0  0  0  0
  188.8400  177.5220  135.2710 C   0  0  0  0  0  2  0  0  0  0  0  0
  190.0460  177.2730  134.6090 O   0  0  0  0  0  1  0  0  0  0  0  0
  1 10  1  6  0  0  0
  2 20  1  6  0  0  0
  3  1  1  0  0  0  0
  3  2  1  0  0  0  0
  3  7  1  1  0  0  0
  4  6  1  0  0  0  0
  4  2  1  0  0  0  0
  4 12  1  1  0  0  0
  5  1  1  0  0  0  0
  5  6  1  0  0  0  0
  8  7  1  0  0  0  0
 10  9  1  0  0  0  0
 12 11  1  0  0  0  0
 13 14  2  0  0  0  0
 13 17  1  0  0  0  0
 14 16  1  0  0  0  0
 15 18  1  0  0  0  0
 15 12  1  0  0  0  0
 16 18  2  0  0  0  0
 17 15  2  0  0  0  0
 19 13  1  0  0  0  0
 20 33  1  6  0  0  0
 20 22  1  0  0  0  0
 21 22  2  0  0  0  0
 22 23  1  0  0  0  0
 23 24  1  0  0  0  0
 24 25  1  0  0  0  0
 25 26  1  0  0  0  0
 26 30  1  0  0  0  0
 26 28  1  0  0  0  0
 28 27  2  0  0  0  0
 29 28  1  0  0  0  0
 30 32  1  0  0  0  0
 32 31  1  0  0  0  0
 34 33  1  0  0  0  0
M  END
>  <MODEL>
7

>  <REMARK>
 VINA RESULT:      -6.0      3.402      9.363
  Name = 
  13 active torsions:
  status: ('A' for Active; 'I' for Inactive)
    1  A    between atoms: C_1  and  C_19
    2  A    between atoms: O_2  and  C_15
    3  A    between atoms: C_3  and  N_13
    4  A    between atoms: C_3  and  C_17
    5  A    between atoms: C_4  and  C_31
    6  A    between atoms: C_10  and  C_31
    7  A    between atoms: C_12  and  N_28
    8  A    between atoms: N_13  and  C_14
    9  A    between atoms: N_13  and  C_33
   10  A    between atoms: C_17  and  N_29
   11  A    between atoms: C_18  and  C_31
   12  A    between atoms: C_21  and  N_28
   13  A    between atoms: C_22  and  C_33
                            x       y       z     vdW  Elec       q    Type
                         _______ _______ _______ _____ _____    ______ ____

>  <TORSDO>
F 13

$$$$
=
 OpenBabel10262423433D

 34 35  0  0  1  0  0  0  0  0999 V2000
  189.4600  174.0460  135.0270 C   0  0  2  0  0  3  0  0  0  0  0  0
  188.8720  175.9560  136.5840 C   0  0  1  0  0  3  0  0  0  0  0  0
  189.8770  174.8270  136.2860 C   0  0  2  0  0  3  0  0  0  0  0  0
  187.3950  175.5150  136.4160 C   0  0  2  0  0  3  0  0  0  0  0  0
  188.1240  173.5000  135.2230 N   0  0  0  0  0  2  0  0  0  0  0  0
  187.1860  174.6130  135.2020 C   0  0  0  0  0  2  0  0  0  0  0  0
  191.1540  175.3800  136.1190 O   0  0  0  0  0  0  0  0  0  0  0  0
  191.0540  176.1840  134.9780 C   0  0  0  0  0  1  0  0  0  0  0  0
  189.6570  171.5860  134.6670 C   0  0  0  0  0  1  0  0  0  0  0  0
  190.4160  172.9000  134.7440 C   0  0  0  0  0  2  0  0  0  0  0  0
  186.7250  177.5930  135.3890 O   0  0  0  0  0  1  0  0  0  0  0  0
  186.4890  176.6660  136.3500 N   0  0  0  0  0  0  0  0  0  0  0  0
  184.1580  178.2490  138.8470 C   0  0  0  0  0  0  0  0  0  0  0  0
  183.2100  177.2340  139.0120 C   0  0  0  0  0  3  0  0  0  0  0  0
  185.3890  176.8610  137.2660 C   0  0  0  0  0  0  0  0  0  0  0  0
  183.3520  176.0310  138.3150 C   0  0  0  0  0  3  0  0  0  0  0  0
  185.2430  178.0600  137.9860 C   0  0  0  0  0  3  0  0  0  0  0  0
  184.4350  175.8460  137.4450 C   0  0  0  0  0  3  0  0  0  0  0  0
  184.0210  179.5260  139.5960 C   0  0  0  0  0  1  0  0  0  0  0  0
  189.1610  176.6010  137.9600 C   0  0  2  0  0  3  0  0  0  0  0  0
  189.3540  178.7710  136.9250 O   0  0  0  0  0  0  0  0  0  0  0  0
  189.0790  178.1190  137.9690 C   0  0  0  0  0  0  0  0  0  0  0  0
  188.6330  178.8470  139.1210 N   0  0  0  0  0  2  0  0  0  0  0  0
  187.9920  178.2560  140.2840 C   0  0  0  0  0  2  0  0  0  0  0  0
  188.4690  178.9460  141.5550 C   0  0  0  0  0  2  0  0  0  0  0  0
  188.6350  177.9810  142.6420 N   0  0  0  0  0  0  0  0  0  0  0  0
  190.5650  178.7860  143.8460 C   0  0  0  0  0  2  0  0  0  0  0  0
  189.9110  177.7770  143.2840 C   0  0  0  0  0  0  0  0  0  0  0  0
  190.5220  176.4180  143.3650 C   0  0  0  0  0  1  0  0  0  0  0  0
  187.4580  177.2440  143.0920 C   0  0  0  0  0  2  0  0  0  0  0  0
  186.1250  178.0540  145.0120 C   0  0  0  0  0  1  0  0  0  0  0  0
  187.3530  177.2650  144.6080 C   0  0  0  0  0  2  0  0  0  0  0  0
  190.4910  176.1040  138.5150 C   0  0  0  0  0  2  0  0  0  0  0  0
  190.4840  176.1610  139.9120 O   0  0  0  0  0  1  0  0  0  0  0  0
  1 10  1  1  0  0  0
  1  5  1  0  0  0  0
  1  3  1  0  0  0  0
  2 20  1  1  0  0  0
  3  7  1  6  0  0  0
  3  2  1  0  0  0  0
  4 12  1  6  0  0  0
  4  2  1  0  0  0  0
  6  5  1  0  0  0  0
  6  4  1  0  0  0  0
  8  7  1  0  0  0  0
  9 10  1  0  0  0  0
 11 12  1  0  0  0  0
 12 15  1  0  0  0  0
 13 14  1  0  0  0  0
 13 19  1  0  0  0  0
 15 18  2  0  0  0  0
 15 17  1  0  0  0  0
 16 14  2  0  0  0  0
 17 13  2  0  0  0  0
 18 16  1  0  0  0  0
 20 22  1  0  0  0  0
 20 33  1  6  0  0  0
 21 22  2  0  0  0  0
 22 23  1  0  0  0  0
 23 24  1  0  0  0  0
 24 25  1  0  0  0  0
 25 26  1  0  0  0  0
 26 30  1  0  0  0  0
 26 28  1  0  0  0  0
 28 29  1  0  0  0  0
 28 27  2  0  0  0  0
 30 32  1  0  0  0  0
 32 31  1  0  0  0  0
 33 34  1  0  0  0  0
M  END
>  <MODEL>
8

>  <REMARK>
 VINA RESULT:      -6.0      2.974      7.889
  Name = 
  13 active torsions:
  status: ('A' for Active; 'I' for Inactive)
    1  A    between atoms: C_1  and  C_19
    2  A    between atoms: O_2  and  C_15
    3  A    between atoms: C_3  and  N_13
    4  A    between atoms: C_3  and  C_17
    5  A    between atoms: C_4  and  C_31
    6  A    between atoms: C_10  and  C_31
    7  A    between atoms: C_12  and  N_28
    8  A    between atoms: N_13  and  C_14
    9  A    between atoms: N_13  and  C_33
   10  A    between atoms: C_17  and  N_29
   11  A    between atoms: C_18  and  C_31
   12  A    between atoms: C_21  and  N_28
   13  A    between atoms: C_22  and  C_33
                            x       y       z     vdW  Elec       q    Type
                         _______ _______ _______ _____ _____    ______ ____

>  <TORSDO>
F 13

$$$$
=
 OpenBabel10262423433D

 34 35  0  0  1  0  0  0  0  0999 V2000
  190.6030  175.7800  138.6320 C   0  0  2  0  0  3  0  0  0  0  0  0
  188.5150  177.1970  138.8500 C   0  0  1  0  0  3  0  0  0  0  0  0
  189.5060  176.5440  137.8680 C   0  0  2  0  0  3  0  0  0  0  0  0
  189.2110  177.8730  140.0590 C   0  0  2  0  0  3  0  0  0  0  0  0
  191.2970  176.7010  139.5210 N   0  0  0  0  0  2  0  0  0  0  0  0
  190.3800  177.0510  140.5960 C   0  0  0  0  0  2  0  0  0  0  0  0
  188.8080  175.6780  137.0170 O   0  0  0  0  0  0  0  0  0  0  0  0
  189.3520  175.9000  135.7470 C   0  0  0  0  0  1  0  0  0  0  0  0
  192.9330  175.9200  137.7550 C   0  0  0  0  0  1  0  0  0  0  0  0
  191.6160  175.1680  137.6810 C   0  0  0  0  0  2  0  0  0  0  0  0
  187.1220  178.8190  140.8080 O   0  0  0  0  0  1  0  0  0  0  0  0
  188.2620  178.1640  141.1390 N   0  0  0  0  0  0  0  0  0  0  0  0
  189.9630  177.7000  144.4650 C   0  0  0  0  0  0  0  0  0  0  0  0
  188.9260  177.1480  145.2240 C   0  0  0  0  0  3  0  0  0  0  0  0
  188.5000  177.8080  142.5190 C   0  0  0  0  0  0  0  0  0  0  0  0
  187.6810  176.9160  144.6330 C   0  0  0  0  0  3  0  0  0  0  0  0
  189.7530  178.0210  143.1200 C   0  0  0  0  0  3  0  0  0  0  0  0
  187.4690  177.2460  143.2870 C   0  0  0  0  0  3  0  0  0  0  0  0
  191.2950  177.9360  145.0830 C   0  0  0  0  0  1  0  0  0  0  0  0
  187.5440  178.1420  138.1030 C   0  0  2  0  0  3  0  0  0  0  0  0
  186.2270  176.4400  137.0110 O   0  0  0  0  0  0  0  0  0  0  0  0
  186.2270  177.4960  137.7020 C   0  0  0  0  0  0  0  0  0  0  0  0
  184.9640  178.0150  138.1380 N   0  0  0  0  0  2  0  0  0  0  0  0
  184.7880  179.0200  139.1730 C   0  0  0  0  0  2  0  0  0  0  0  0
  183.3300  179.4500  139.2460 C   0  0  0  0  0  2  0  0  0  0  0  0
  182.6370  178.7680  140.3400 N   0  0  0  0  0  0  0  0  0  0  0  0
  180.5620  177.5490  140.5170 C   0  0  0  0  0  2  0  0  0  0  0  0
  181.1970  178.7090  140.4020 C   0  0  0  0  0  0  0  0  0  0  0  0
  180.3750  179.9550  140.3740 C   0  0  0  0  0  1  0  0  0  0  0  0
  183.4470  178.1110  141.3620 C   0  0  0  0  0  2  0  0  0  0  0  0
  184.6250  179.2910  143.1900 C   0  0  0  0  0  1  0  0  0  0  0  0
  183.2770  178.7940  142.7090 C   0  0  0  0  0  2  0  0  0  0  0  0
  188.2390  178.7920  136.9120 C   0  0  0  0  0  2  0  0  0  0  0  0
  188.9780  179.9030  137.3320 O   0  0  0  0  0  1  0  0  0  0  0  0
  1 10  1  6  0  0  0
  1  5  1  0  0  0  0
  2 20  1  6  0  0  0
  2  4  1  0  0  0  0
  3  7  1  6  0  0  0
  3  1  1  0  0  0  0
  3  2  1  0  0  0  0
  4  6  1  0  0  0  0
  4 12  1  1  0  0  0
  5  6  1  0  0  0  0
  8  7  1  0  0  0  0
 10  9  1  0  0  0  0
 11 12  1  0  0  0  0
 12 15  1  0  0  0  0
 13 19  1  0  0  0  0
 13 14  1  0  0  0  0
 15 17  1  0  0  0  0
 15 18  2  0  0  0  0
 16 14  2  0  0  0  0
 17 13  2  0  0  0  0
 18 16  1  0  0  0  0
 20 33  1  6  0  0  0
 21 22  2  0  0  0  0
 22 20  1  0  0  0  0
 22 23  1  0  0  0  0
 23 24  1  0  0  0  0
 24 25  1  0  0  0  0
 25 26  1  0  0  0  0
 26 28  1  0  0  0  0
 26 30  1  0  0  0  0
 28 27  2  0  0  0  0
 29 28  1  0  0  0  0
 30 32  1  0  0  0  0
 32 31  1  0  0  0  0
 33 34  1  0  0  0  0
M  END
>  <MODEL>
9

>  <REMARK>
 VINA RESULT:      -6.0      2.797      6.940
  Name = 
  13 active torsions:
  status: ('A' for Active; 'I' for Inactive)
    1  A    between atoms: C_1  and  C_19
    2  A    between atoms: O_2  and  C_15
    3  A    between atoms: C_3  and  N_13
    4  A    between atoms: C_3  and  C_17
    5  A    between atoms: C_4  and  C_31
    6  A    between atoms: C_10  and  C_31
    7  A    between atoms: C_12  and  N_28
    8  A    between atoms: N_13  and  C_14
    9  A    between atoms: N_13  and  C_33
   10  A    between atoms: C_17  and  N_29
   11  A    between atoms: C_18  and  C_31
   12  A    between atoms: C_21  and  N_28
   13  A    between atoms: C_22  and  C_33
                            x       y       z     vdW  Elec       q    Type
                         _______ _______ _______ _____ _____    ______ ____

>  <TORSDO>
F 13

$$$$
