=
 OpenBabel10272414023D

 30 30  0  0  1  0  0  0  0  0999 V2000
  188.6420  177.9800  141.8680 C   0  0  2  0  0  3  0  0  0  0  0  0
  187.8930  178.1660  140.5770 C   0  0  0  0  0  0  0  0  0  0  0  0
  188.5190  177.6120  139.1580 S   0  0  0  0  0  0  0  0  0  0  0  0
  186.5950  178.7680  140.6210 N   0  0  0  0  0  2  0  0  0  0  0  0
  185.6190  178.6510  139.5500 C   0  0  0  0  0  2  0  0  0  0  0  0
  184.7600  179.7490  139.5800 O   0  0  0  0  0  1  0  0  0  0  0  0
  189.8930  175.8820  142.5550 C   0  0  0  0  0  1  0  0  0  0  0  0
  189.9170  177.1380  141.6860 C   0  0  2  0  0  3  0  0  0  0  0  0
  191.2110  177.9500  141.8900 C   0  0  1  0  0  3  0  0  0  0  0  0
  191.7210  177.9180  143.3250 C   0  0  0  0  0  2  0  0  0  0  0  0
  191.4270  179.2350  144.0150 C   0  0  0  0  0  1  0  0  0  0  0  0
  192.3050  177.4740  140.9470 C   0  0  0  0  0  2  0  0  0  0  0  0
  191.7380  177.0260  139.7520 O   0  0  0  0  0  0  0  0  0  0  0  0
  192.8280  176.7920  138.9090 C   0  0  0  0  0  2  0  0  0  0  0  0
  193.4200  175.9780  136.7380 O   0  0  0  0  0  1  0  0  0  0  0  0
  192.3470  176.4180  137.5150 C   0  0  0  0  0  3  0  0  0  0  0  0
  191.3790  175.4140  137.5930 O   0  0  0  0  0  1  0  0  0  0  0  0
  187.7200  177.3440  142.9040 C   0  0  0  0  0  2  0  0  0  0  0  0
  187.2760  178.3580  143.9520 C   0  0  0  0  0  2  0  0  0  0  0  0
  187.4070  177.8050  145.3720 C   0  0  2  0  0  0  0  0  0  0  0  0
  186.8740  178.2260  147.7990 O   0  0  0  0  0  1  0  0  0  0  0  0
  186.1520  177.0650  145.8080 C   0  0  0  0  0  2  0  0  0  0  0  0
  186.5150  178.3860  146.4560 C   0  0  2  0  0  0  0  0  0  0  0  0
  188.6830  177.0930  145.8140 C   0  0  0  0  0  2  0  0  0  0  0  0
  189.5200  177.9810  146.4920 O   0  0  0  0  0  0  0  0  0  0  0  0
  191.3660  176.5060  146.7480 C   0  0  0  0  0  1  0  0  0  0  0  0
  190.1930  177.1880  147.4210 C   0  0  0  0  0  2  0  0  0  0  0  0
  185.5910  179.3930  146.1440 O   0  0  0  0  0  0  0  0  0  0  0  0
  184.3530  178.7560  146.0110 C   0  0  0  0  0  2  0  0  0  0  0  0
  183.6020  179.2230  144.4270 S   0  0  0  0  0  1  0  0  0  0  0  0
  1 18  1  1  0  0  0
  2  4  1  0  0  0  0
  2  1  1  0  0  0  0
  3  2  2  0  0  0  0
  5  6  1  0  0  0  0
  5  4  1  0  0  0  0
  8  1  1  0  0  0  0
  8  9  1  0  0  0  0
  8  7  1  1  0  0  0
  9 12  1  6  0  0  0
  9 10  1  0  0  0  0
 10 11  1  0  0  0  0
 13 12  1  0  0  0  0
 14 13  1  0  0  0  0
 15 16  1  0  0  0  0
 16 17  1  0  0  0  0
 16 14  1  0  0  0  0
 18 19  1  0  0  0  0
 20 19  1  6  0  0  0
 20 22  1  0  0  0  0
 20 24  1  0  0  0  0
 20 23  1  0  0  0  0
 22 23  1  0  0  0  0
 23 21  1  1  0  0  0
 24 25  1  0  0  0  0
 25 27  1  0  0  0  0
 26 27  1  0  0  0  0
 28 23  1  0  0  0  0
 29 28  1  0  0  0  0
 30 29  1  0  0  0  0
M  END
>  <MODEL>
1

>  <REMARK>
 VINA RESULT:      -5.8      0.000      0.000
  Name = 
  18 active torsions:
  status: ('A' for Active; 'I' for Inactive)
    1  A    between atoms: C_1  and  C_4
    2  A    between atoms: C_1  and  C_22
    3  A    between atoms: C_2  and  N_14
    4  A    between atoms: C_2  and  C_29
    5  A    between atoms: C_3  and  C_11
    6  A    between atoms: C_4  and  C_5
    7  A    between atoms: C_5  and  O_21
    8  A    between atoms: C_11  and  C_23
    9  A    between atoms: C_11  and  C_24
   10  A    between atoms: C_12  and  O_27
   11  A    between atoms: C_13  and  O_27
   12  A    between atoms: N_14  and  C_20
   13  A    between atoms: O_15  and  C_24
   14  A    between atoms: O_15  and  C_25
   15  A    between atoms: C_16  and  C_25
   16  A    between atoms: C_17  and  O_21
   17  A    between atoms: C_22  and  C_29
   18  A    between atoms: C_23  and  C_29
                            x       y       z     vdW  Elec       q    Type
                         _______ _______ _______ _____ _____    ______ ____

>  <TORSDO>
F 18

$$$$
=
 OpenBabel10272414023D

 30 30  0  0  1  0  0  0  0  0999 V2000
  189.4240  177.1190  144.3130 C   0  0  2  0  0  3  0  0  0  0  0  0
  190.7580  177.7780  144.5360 C   0  0  0  0  0  0  0  0  0  0  0  0
  190.9600  179.3850  144.2310 S   0  0  0  0  0  0  0  0  0  0  0  0
  191.8230  176.9960  145.0860 N   0  0  0  0  0  2  0  0  0  0  0  0
  191.7010  176.2210  146.3100 C   0  0  0  0  0  2  0  0  0  0  0  0
  191.7450  177.0780  147.4100 O   0  0  0  0  0  1  0  0  0  0  0  0
  190.1470  175.1110  142.9410 C   0  0  0  0  0  1  0  0  0  0  0  0
  189.3440  176.4110  142.9500 C   0  0  2  0  0  3  0  0  0  0  0  0
  189.7230  177.3260  141.7690 C   0  0  1  0  0  3  0  0  0  0  0  0
  190.7900  176.7260  140.8630 C   0  0  0  0  0  2  0  0  0  0  0  0
  192.0410  177.5820  140.8920 C   0  0  0  0  0  1  0  0  0  0  0  0
  188.4960  177.6870  140.9470 C   0  0  0  0  0  2  0  0  0  0  0  0
  188.6220  177.1720  139.6560 O   0  0  0  0  0  0  0  0  0  0  0  0
  187.8920  178.0500  138.8510 C   0  0  0  0  0  2  0  0  0  0  0  0
  188.8890  179.7620  137.5080 O   0  0  0  0  0  1  0  0  0  0  0  0
  188.6730  178.3850  137.5890 C   0  0  0  0  0  3  0  0  0  0  0  0
  189.8990  177.7150  137.5900 O   0  0  0  0  0  1  0  0  0  0  0  0
  188.3150  178.1590  144.4460 C   0  0  0  0  0  2  0  0  0  0  0  0
  186.9360  177.5110  144.3980 C   0  0  0  0  0  2  0  0  0  0  0  0
  185.8340  178.4850  144.8160 C   0  0  2  0  0  0  0  0  0  0  0  0
  184.4630  180.4730  144.0920 O   0  0  0  0  0  1  0  0  0  0  0  0
  184.4740  178.0650  144.2800 C   0  0  0  0  0  2  0  0  0  0  0  0
  185.1510  179.3070  143.7360 C   0  0  2  0  0  0  0  0  0  0  0  0
  185.7560  179.0010  146.2510 C   0  0  0  0  0  2  0  0  0  0  0  0
  186.1360  177.9980  147.1450 O   0  0  0  0  0  0  0  0  0  0  0  0
  188.2380  177.5050  148.1390 C   0  0  0  0  0  1  0  0  0  0  0  0
  187.1820  178.5590  147.8760 C   0  0  0  0  0  2  0  0  0  0  0  0
  185.5230  179.1540  142.3930 O   0  0  0  0  0  0  0  0  0  0  0  0
  184.4690  178.4780  141.7730 C   0  0  0  0  0  2  0  0  0  0  0  0
  184.3660  178.9870  140.0340 S   0  0  0  0  0  1  0  0  0  0  0  0
  1 18  1  6  0  0  0
  1  2  1  0  0  0  0
  2  4  1  0  0  0  0
  3  2  2  0  0  0  0
  4  5  1  0  0  0  0
  5  6  1  0  0  0  0
  8  7  1  1  0  0  0
  8  1  1  0  0  0  0
  9 10  1  6  0  0  0
  9  8  1  0  0  0  0
 10 11  1  0  0  0  0
 12  9  1  0  0  0  0
 13 12  1  0  0  0  0
 14 13  1  0  0  0  0
 15 16  1  0  0  0  0
 16 17  1  0  0  0  0
 16 14  1  0  0  0  0
 19 18  1  0  0  0  0
 20 19  1  6  0  0  0
 20 24  1  0  0  0  0
 22 20  1  0  0  0  0
 23 21  1  1  0  0  0
 23 22  1  0  0  0  0
 23 20  1  0  0  0  0
 24 25  1  0  0  0  0
 25 27  1  0  0  0  0
 27 26  1  0  0  0  0
 28 23  1  0  0  0  0
 29 28  1  0  0  0  0
 30 29  1  0  0  0  0
M  END
>  <MODEL>
2

>  <REMARK>
 VINA RESULT:      -5.7      2.688      4.505
  Name = 
  18 active torsions:
  status: ('A' for Active; 'I' for Inactive)
    1  A    between atoms: C_1  and  C_4
    2  A    between atoms: C_1  and  C_22
    3  A    between atoms: C_2  and  N_14
    4  A    between atoms: C_2  and  C_29
    5  A    between atoms: C_3  and  C_11
    6  A    between atoms: C_4  and  C_5
    7  A    between atoms: C_5  and  O_21
    8  A    between atoms: C_11  and  C_23
    9  A    between atoms: C_11  and  C_24
   10  A    between atoms: C_12  and  O_27
   11  A    between atoms: C_13  and  O_27
   12  A    between atoms: N_14  and  C_20
   13  A    between atoms: O_15  and  C_24
   14  A    between atoms: O_15  and  C_25
   15  A    between atoms: C_16  and  C_25
   16  A    between atoms: C_17  and  O_21
   17  A    between atoms: C_22  and  C_29
   18  A    between atoms: C_23  and  C_29
                            x       y       z     vdW  Elec       q    Type
                         _______ _______ _______ _____ _____    ______ ____

>  <TORSDO>
F 18

$$$$
=
 OpenBabel10272414023D

 30 30  0  0  1  0  0  0  0  0999 V2000
  188.6270  177.1340  141.8650 C   0  0  2  0  0  3  0  0  0  0  0  0
  189.9770  177.1030  142.5280 C   0  0  0  0  0  0  0  0  0  0  0  0
  190.5960  175.6860  143.0990 S   0  0  0  0  0  0  0  0  0  0  0  0
  190.7390  178.3130  142.5850 N   0  0  0  0  0  2  0  0  0  0  0  0
  190.9220  179.0900  143.7990 C   0  0  0  0  0  2  0  0  0  0  0  0
  192.0550  178.6390  144.4750 O   0  0  0  0  0  1  0  0  0  0  0  0
  187.3400  178.5480  140.1970 C   0  0  0  0  0  1  0  0  0  0  0  0
  188.6630  177.8480  140.5020 C   0  0  2  0  0  3  0  0  0  0  0  0
  189.1010  176.9250  139.3480 C   0  0  1  0  0  3  0  0  0  0  0  0
  188.3200  177.1590  138.0610 C   0  0  0  0  0  2  0  0  0  0  0  0
  189.1230  178.0250  137.1120 C   0  0  0  0  0  1  0  0  0  0  0  0
  190.5910  177.0670  139.0760 C   0  0  0  0  0  2  0  0  0  0  0  0
  191.2130  175.8220  139.1860 O   0  0  0  0  0  0  0  0  0  0  0  0
  191.7610  175.5860  137.9230 C   0  0  0  0  0  2  0  0  0  0  0  0
  193.9540  176.2050  138.6540 O   0  0  0  0  0  1  0  0  0  0  0  0
  192.9740  176.4770  137.6980 C   0  0  0  0  0  3  0  0  0  0  0  0
  193.4930  176.2680  136.4190 O   0  0  0  0  0  1  0  0  0  0  0  0
  187.6180  177.8000  142.7960 C   0  0  0  0  0  2  0  0  0  0  0  0
  187.2650  176.8980  143.9720 C   0  0  0  0  0  2  0  0  0  0  0  0
  187.0190  177.7000  145.2510 C   0  0  2  0  0  0  0  0  0  0  0  0
  185.6360  179.5300  146.2960 O   0  0  0  0  0  1  0  0  0  0  0  0
  185.8570  177.1370  146.0560 C   0  0  0  0  0  2  0  0  0  0  0  0
  185.7220  178.4830  145.3720 C   0  0  2  0  0  0  0  0  0  0  0  0
  188.1860  178.1250  146.1380 C   0  0  0  0  0  2  0  0  0  0  0  0
  189.2120  177.1820  146.0690 O   0  0  0  0  0  0  0  0  0  0  0  0
  189.0320  178.0680  148.2670 C   0  0  0  0  0  1  0  0  0  0  0  0
  189.5610  176.9450  147.3990 C   0  0  0  0  0  2  0  0  0  0  0  0
  184.7800  178.4490  144.3340 O   0  0  0  0  0  0  0  0  0  0  0  0
  183.6910  179.2090  144.7740 C   0  0  0  0  0  2  0  0  0  0  0  0
  182.3060  178.9990  143.6200 S   0  0  0  0  0  1  0  0  0  0  0  0
  1  2  1  0  0  0  0
  1 18  1  1  0  0  0
  2  4  1  0  0  0  0
  2  3  2  0  0  0  0
  4  5  1  0  0  0  0
  5  6  1  0  0  0  0
  8  7  1  6  0  0  0
  8  1  1  0  0  0  0
  9 10  1  6  0  0  0
  9  8  1  0  0  0  0
 11 10  1  0  0  0  0
 12 13  1  0  0  0  0
 12  9  1  0  0  0  0
 14 13  1  0  0  0  0
 16 14  1  0  0  0  0
 16 15  1  0  0  0  0
 17 16  1  0  0  0  0
 18 19  1  0  0  0  0
 20 19  1  6  0  0  0
 20 23  1  0  0  0  0
 20 22  1  0  0  0  0
 20 24  1  0  0  0  0
 23 22  1  0  0  0  0
 23 21  1  1  0  0  0
 25 24  1  0  0  0  0
 25 27  1  0  0  0  0
 27 26  1  0  0  0  0
 28 29  1  0  0  0  0
 28 23  1  0  0  0  0
 30 29  1  0  0  0  0
M  END
>  <MODEL>
3

>  <REMARK>
 VINA RESULT:      -5.7      1.965      3.484
  Name = 
  18 active torsions:
  status: ('A' for Active; 'I' for Inactive)
    1  A    between atoms: C_1  and  C_4
    2  A    between atoms: C_1  and  C_22
    3  A    between atoms: C_2  and  N_14
    4  A    between atoms: C_2  and  C_29
    5  A    between atoms: C_3  and  C_11
    6  A    between atoms: C_4  and  C_5
    7  A    between atoms: C_5  and  O_21
    8  A    between atoms: C_11  and  C_23
    9  A    between atoms: C_11  and  C_24
   10  A    between atoms: C_12  and  O_27
   11  A    between atoms: C_13  and  O_27
   12  A    between atoms: N_14  and  C_20
   13  A    between atoms: O_15  and  C_24
   14  A    between atoms: O_15  and  C_25
   15  A    between atoms: C_16  and  C_25
   16  A    between atoms: C_17  and  O_21
   17  A    between atoms: C_22  and  C_29
   18  A    between atoms: C_23  and  C_29
                            x       y       z     vdW  Elec       q    Type
                         _______ _______ _______ _____ _____    ______ ____

>  <TORSDO>
F 18

$$$$
=
 OpenBabel10272414023D

 30 30  0  0  1  0  0  0  0  0999 V2000
  189.1120  176.7260  142.5680 C   0  0  2  0  0  3  0  0  0  0  0  0
  190.5340  176.8450  143.0460 C   0  0  0  0  0  0  0  0  0  0  0  0
  191.3200  175.5370  143.6680 S   0  0  0  0  0  0  0  0  0  0  0  0
  191.2090  178.0960  142.8780 N   0  0  0  0  0  2  0  0  0  0  0  0
  191.7900  178.8470  143.9790 C   0  0  0  0  0  2  0  0  0  0  0  0
  191.0960  180.0450  144.1430 O   0  0  0  0  0  1  0  0  0  0  0  0
  187.3610  178.3740  141.7610 C   0  0  0  0  0  1  0  0  0  0  0  0
  188.7560  177.7980  141.5240 C   0  0  2  0  0  3  0  0  0  0  0  0
  188.9360  177.3130  140.0730 C   0  0  1  0  0  3  0  0  0  0  0  0
  188.0710  178.0710  139.0730 C   0  0  0  0  0  2  0  0  0  0  0  0
  188.9300  178.6310  137.9580 C   0  0  0  0  0  1  0  0  0  0  0  0
  190.3950  177.3920  139.6510 C   0  0  0  0  0  2  0  0  0  0  0  0
  190.9090  176.1050  139.4810 O   0  0  0  0  0  0  0  0  0  0  0  0
  191.7710  176.2110  138.3860 C   0  0  0  0  0  2  0  0  0  0  0  0
  190.3770  174.3590  137.7880 O   0  0  0  0  0  1  0  0  0  0  0  0
  191.4780  175.1120  137.3750 C   0  0  0  0  0  3  0  0  0  0  0  0
  191.2240  175.6690  136.1200 O   0  0  0  0  0  1  0  0  0  0  0  0
  188.1660  176.8010  143.7630 C   0  0  0  0  0  2  0  0  0  0  0  0
  188.5460  177.9400  144.7030 C   0  0  0  0  0  2  0  0  0  0  0  0
  187.9750  177.7340  146.1070 C   0  0  2  0  0  0  0  0  0  0  0  0
  188.1160  176.3340  148.1980 O   0  0  0  0  0  1  0  0  0  0  0  0
  188.8370  178.3970  147.1700 C   0  0  0  0  0  2  0  0  0  0  0  0
  188.7650  176.8850  147.0880 C   0  0  2  0  0  0  0  0  0  0  0  0
  186.4830  177.9160  146.3730 C   0  0  0  0  0  2  0  0  0  0  0  0
  185.9920  178.9990  145.6410 O   0  0  0  0  0  0  0  0  0  0  0  0
  184.2810  179.5690  144.0930 C   0  0  0  0  0  1  0  0  0  0  0  0
  184.9560  178.4630  144.8760 C   0  0  0  0  0  2  0  0  0  0  0  0
  189.9920  176.3240  146.7060 O   0  0  0  0  0  0  0  0  0  0  0  0
  190.9600  176.9110  147.5280 C   0  0  0  0  0  2  0  0  0  0  0  0
  192.3600  175.7710  147.7180 S   0  0  0  0  0  1  0  0  0  0  0  0
  1  2  1  0  0  0  0
  1 18  1  1  0  0  0
  2  3  2  0  0  0  0
  4  2  1  0  0  0  0
  4  5  1  0  0  0  0
  5  6  1  0  0  0  0
  8  7  1  6  0  0  0
  8  1  1  0  0  0  0
  9 10  1  6  0  0  0
  9  8  1  0  0  0  0
 11 10  1  0  0  0  0
 12  9  1  0  0  0  0
 13 12  1  0  0  0  0
 14 13  1  0  0  0  0
 16 15  1  0  0  0  0
 16 14  1  0  0  0  0
 17 16  1  0  0  0  0
 18 19  1  0  0  0  0
 20 19  1  6  0  0  0
 20 24  1  0  0  0  0
 20 23  1  0  0  0  0
 20 22  1  0  0  0  0
 23 22  1  0  0  0  0
 23 21  1  1  0  0  0
 25 24  1  0  0  0  0
 26 27  1  0  0  0  0
 27 25  1  0  0  0  0
 28 23  1  0  0  0  0
 28 29  1  0  0  0  0
 29 30  1  0  0  0  0
M  END
>  <MODEL>
4

>  <REMARK>
 VINA RESULT:      -5.6      2.734      4.650
  Name = 
  18 active torsions:
  status: ('A' for Active; 'I' for Inactive)
    1  A    between atoms: C_1  and  C_4
    2  A    between atoms: C_1  and  C_22
    3  A    between atoms: C_2  and  N_14
    4  A    between atoms: C_2  and  C_29
    5  A    between atoms: C_3  and  C_11
    6  A    between atoms: C_4  and  C_5
    7  A    between atoms: C_5  and  O_21
    8  A    between atoms: C_11  and  C_23
    9  A    between atoms: C_11  and  C_24
   10  A    between atoms: C_12  and  O_27
   11  A    between atoms: C_13  and  O_27
   12  A    between atoms: N_14  and  C_20
   13  A    between atoms: O_15  and  C_24
   14  A    between atoms: O_15  and  C_25
   15  A    between atoms: C_16  and  C_25
   16  A    between atoms: C_17  and  O_21
   17  A    between atoms: C_22  and  C_29
   18  A    between atoms: C_23  and  C_29
                            x       y       z     vdW  Elec       q    Type
                         _______ _______ _______ _____ _____    ______ ____

>  <TORSDO>
F 18

$$$$
=
 OpenBabel10272414023D

 30 30  0  0  1  0  0  0  0  0999 V2000
  188.9190  177.7650  141.6660 C   0  0  2  0  0  3  0  0  0  0  0  0
  189.4800  177.4670  140.3030 C   0  0  0  0  0  0  0  0  0  0  0  0
  189.0130  178.3510  138.9930 S   0  0  0  0  0  0  0  0  0  0  0  0
  190.4810  176.4500  140.1830 N   0  0  0  0  0  2  0  0  0  0  0  0
  191.2200  176.1920  138.9580 C   0  0  0  0  0  2  0  0  0  0  0  0
  190.6640  175.0960  138.3010 O   0  0  0  0  0  1  0  0  0  0  0  0
  188.2520  175.9750  143.3360 C   0  0  0  0  0  1  0  0  0  0  0  0
  189.4080  176.7680  142.7300 C   0  0  2  0  0  3  0  0  0  0  0  0
  190.2830  177.4240  143.8170 C   0  0  1  0  0  3  0  0  0  0  0  0
  190.4060  178.9340  143.6580 C   0  0  0  0  0  2  0  0  0  0  0  0
  191.7610  179.4030  144.1510 C   0  0  0  0  0  1  0  0  0  0  0  0
  189.7600  177.0950  145.2060 C   0  0  0  0  0  2  0  0  0  0  0  0
  190.7850  176.5520  145.9820 O   0  0  0  0  0  0  0  0  0  0  0  0
  190.4840  176.9420  147.2900 C   0  0  0  0  0  2  0  0  0  0  0  0
  188.2240  176.4720  147.9200 O   0  0  0  0  0  1  0  0  0  0  0  0
  189.0540  177.4530  147.3730 C   0  0  0  0  0  3  0  0  0  0  0  0
  189.0000  178.6060  148.1590 O   0  0  0  0  0  1  0  0  0  0  0  0
  187.3940  177.7740  141.5980 C   0  0  0  0  0  2  0  0  0  0  0  0
  186.8270  179.1340  141.9900 C   0  0  0  0  0  2  0  0  0  0  0  0
  185.3200  179.0720  142.2400 C   0  0  2  0  0  0  0  0  0  0  0  0
  183.5100  178.0100  143.6370 O   0  0  0  0  0  1  0  0  0  0  0  0
  184.9010  179.9700  143.3940 C   0  0  0  0  0  2  0  0  0  0  0  0
  184.8300  178.4630  143.5440 C   0  0  2  0  0  0  0  0  0  0  0  0
  184.3350  179.1290  141.0750 C   0  0  0  0  0  2  0  0  0  0  0  0
  184.9570  179.6650  139.9450 O   0  0  0  0  0  0  0  0  0  0  0  0
  183.6070  177.7910  139.3860 C   0  0  0  0  0  1  0  0  0  0  0  0
  184.6860  178.7500  138.9290 C   0  0  0  0  0  2  0  0  0  0  0  0
  185.7510  177.9880  144.4890 O   0  0  0  0  0  0  0  0  0  0  0  0
  185.8420  178.9770  145.4720 C   0  0  0  0  0  2  0  0  0  0  0  0
  185.1920  178.3310  147.0390 S   0  0  0  0  0  1  0  0  0  0  0  0
  1 18  1  6  0  0  0
  1  8  1  0  0  0  0
  2  1  1  0  0  0  0
  3  2  2  0  0  0  0
  4  2  1  0  0  0  0
  5  4  1  0  0  0  0
  6  5  1  0  0  0  0
  8  7  1  1  0  0  0
  8  9  1  0  0  0  0
  9 10  1  6  0  0  0
  9 12  1  0  0  0  0
 10 11  1  0  0  0  0
 12 13  1  0  0  0  0
 13 14  1  0  0  0  0
 14 16  1  0  0  0  0
 16 15  1  0  0  0  0
 16 17  1  0  0  0  0
 18 19  1  0  0  0  0
 19 20  1  0  0  0  0
 20 24  1  6  0  0  0
 20 22  1  0  0  0  0
 20 23  1  0  0  0  0
 22 23  1  0  0  0  0
 23 21  1  6  0  0  0
 23 28  1  0  0  0  0
 25 24  1  0  0  0  0
 27 26  1  0  0  0  0
 27 25  1  0  0  0  0
 28 29  1  0  0  0  0
 29 30  1  0  0  0  0
M  END
>  <MODEL>
5

>  <REMARK>
 VINA RESULT:      -5.5      1.981      6.031
  Name = 
  18 active torsions:
  status: ('A' for Active; 'I' for Inactive)
    1  A    between atoms: C_1  and  C_4
    2  A    between atoms: C_1  and  C_22
    3  A    between atoms: C_2  and  N_14
    4  A    between atoms: C_2  and  C_29
    5  A    between atoms: C_3  and  C_11
    6  A    between atoms: C_4  and  C_5
    7  A    between atoms: C_5  and  O_21
    8  A    between atoms: C_11  and  C_23
    9  A    between atoms: C_11  and  C_24
   10  A    between atoms: C_12  and  O_27
   11  A    between atoms: C_13  and  O_27
   12  A    between atoms: N_14  and  C_20
   13  A    between atoms: O_15  and  C_24
   14  A    between atoms: O_15  and  C_25
   15  A    between atoms: C_16  and  C_25
   16  A    between atoms: C_17  and  O_21
   17  A    between atoms: C_22  and  C_29
   18  A    between atoms: C_23  and  C_29
                            x       y       z     vdW  Elec       q    Type
                         _______ _______ _______ _____ _____    ______ ____

>  <TORSDO>
F 18

$$$$
=
 OpenBabel10272414023D

 30 30  0  0  1  0  0  0  0  0999 V2000
  188.5550  177.9230  141.7040 C   0  0  2  0  0  3  0  0  0  0  0  0
  189.0190  177.8070  140.2770 C   0  0  0  0  0  0  0  0  0  0  0  0
  190.3250  176.8780  139.8940 S   0  0  0  0  0  0  0  0  0  0  0  0
  188.2570  178.4600  139.2560 N   0  0  0  0  0  2  0  0  0  0  0  0
  188.6170  178.4360  137.8470 C   0  0  0  0  0  2  0  0  0  0  0  0
  188.9540  179.7230  137.4310 O   0  0  0  0  0  1  0  0  0  0  0  0
  188.0620  176.0970  143.3950 C   0  0  0  0  0  1  0  0  0  0  0  0
  189.1470  176.8220  142.6000 C   0  0  2  0  0  3  0  0  0  0  0  0
  190.2820  177.3290  143.5120 C   0  0  1  0  0  3  0  0  0  0  0  0
  190.2080  178.8260  143.7860 C   0  0  0  0  0  2  0  0  0  0  0  0
  191.5960  179.3800  144.0390 C   0  0  0  0  0  1  0  0  0  0  0  0
  190.3030  176.5680  144.8280 C   0  0  0  0  0  2  0  0  0  0  0  0
  189.8810  177.4020  145.8650 O   0  0  0  0  0  0  0  0  0  0  0  0
  190.1850  176.6970  147.0320 C   0  0  0  0  0  2  0  0  0  0  0  0
  192.1590  177.2400  148.2720 O   0  0  0  0  0  1  0  0  0  0  0  0
  191.6900  176.5240  147.1690 C   0  0  0  0  0  3  0  0  0  0  0  0
  192.0080  175.1720  147.3160 O   0  0  0  0  0  1  0  0  0  0  0  0
  187.0300  177.8910  141.7470 C   0  0  0  0  0  2  0  0  0  0  0  0
  186.4570  179.2380  142.1710 C   0  0  0  0  0  2  0  0  0  0  0  0
  185.0080  179.1170  142.6460 C   0  0  2  0  0  0  0  0  0  0  0  0
  183.4990  178.1420  144.4140 O   0  0  0  0  0  1  0  0  0  0  0  0
  184.6820  180.1340  143.7290 C   0  0  0  0  0  2  0  0  0  0  0  0
  184.7530  178.6590  144.0720 C   0  0  2  0  0  0  0  0  0  0  0  0
  183.8720  178.9570  141.6400 C   0  0  0  0  0  2  0  0  0  0  0  0
  183.7940  177.6320  141.2080 O   0  0  0  0  0  0  0  0  0  0  0  0
  182.7090  176.2860  139.5770 C   0  0  0  0  0  1  0  0  0  0  0  0
  182.7520  177.6260  140.2810 C   0  0  0  0  0  2  0  0  0  0  0  0
  185.8300  178.3730  144.9240 O   0  0  0  0  0  0  0  0  0  0  0  0
  185.3920  178.6710  146.2170 C   0  0  0  0  0  2  0  0  0  0  0  0
  186.7350  178.3520  147.3960 S   0  0  0  0  0  1  0  0  0  0  0  0
  1 18  1  6  0  0  0
  1  8  1  0  0  0  0
  2  1  1  0  0  0  0
  3  2  2  0  0  0  0
  4  2  1  0  0  0  0
  5  4  1  0  0  0  0
  6  5  1  0  0  0  0
  8  7  1  1  0  0  0
  8  9  1  0  0  0  0
  9 10  1  1  0  0  0
  9 12  1  0  0  0  0
 10 11  1  0  0  0  0
 12 13  1  0  0  0  0
 13 14  1  0  0  0  0
 14 16  1  0  0  0  0
 16 17  1  0  0  0  0
 16 15  1  0  0  0  0
 18 19  1  0  0  0  0
 19 20  1  0  0  0  0
 20 24  1  6  0  0  0
 20 22  1  0  0  0  0
 20 23  1  0  0  0  0
 22 23  1  0  0  0  0
 23 21  1  1  0  0  0
 23 28  1  0  0  0  0
 25 24  1  0  0  0  0
 26 27  1  0  0  0  0
 27 25  1  0  0  0  0
 28 29  1  0  0  0  0
 29 30  1  0  0  0  0
M  END
>  <MODEL>
6

>  <REMARK>
 VINA RESULT:      -5.5      2.681      5.617
  Name = 
  18 active torsions:
  status: ('A' for Active; 'I' for Inactive)
    1  A    between atoms: C_1  and  C_4
    2  A    between atoms: C_1  and  C_22
    3  A    between atoms: C_2  and  N_14
    4  A    between atoms: C_2  and  C_29
    5  A    between atoms: C_3  and  C_11
    6  A    between atoms: C_4  and  C_5
    7  A    between atoms: C_5  and  O_21
    8  A    between atoms: C_11  and  C_23
    9  A    between atoms: C_11  and  C_24
   10  A    between atoms: C_12  and  O_27
   11  A    between atoms: C_13  and  O_27
   12  A    between atoms: N_14  and  C_20
   13  A    between atoms: O_15  and  C_24
   14  A    between atoms: O_15  and  C_25
   15  A    between atoms: C_16  and  C_25
   16  A    between atoms: C_17  and  O_21
   17  A    between atoms: C_22  and  C_29
   18  A    between atoms: C_23  and  C_29
                            x       y       z     vdW  Elec       q    Type
                         _______ _______ _______ _____ _____    ______ ____

>  <TORSDO>
F 18

$$$$
=
 OpenBabel10272414023D

 30 30  0  0  1  0  0  0  0  0999 V2000
  189.1030  178.0580  143.4270 C   0  0  2  0  0  3  0  0  0  0  0  0
  190.2610  178.3430  144.3440 C   0  0  0  0  0  0  0  0  0  0  0  0
  191.2930  179.5880  144.0270 S   0  0  0  0  0  0  0  0  0  0  0  0
  190.4010  177.5570  145.5320 N   0  0  0  0  0  2  0  0  0  0  0  0
  191.5100  176.6470  145.7660 C   0  0  0  0  0  2  0  0  0  0  0  0
  191.7460  175.8950  144.6160 O   0  0  0  0  0  1  0  0  0  0  0  0
  188.1890  175.6950  143.2800 C   0  0  0  0  0  1  0  0  0  0  0  0
  188.1260  177.0290  144.0220 C   0  0  2  0  0  3  0  0  0  0  0  0
  186.6820  177.5570  144.1290 C   0  0  1  0  0  3  0  0  0  0  0  0
  186.4370  178.3880  145.3820 C   0  0  0  0  0  2  0  0  0  0  0  0
  186.9920  177.6750  146.5990 C   0  0  0  0  0  1  0  0  0  0  0  0
  186.3080  178.3660  142.8970 C   0  0  0  0  0  2  0  0  0  0  0  0
  185.1430  179.0950  143.1440 O   0  0  0  0  0  0  0  0  0  0  0  0
  184.2950  178.7790  142.0800 C   0  0  0  0  0  2  0  0  0  0  0  0
  182.6580  179.3640  143.7250 O   0  0  0  0  0  1  0  0  0  0  0  0
  182.8680  178.5980  142.5770 C   0  0  0  0  0  3  0  0  0  0  0  0
  181.9620  178.9770  141.5850 O   0  0  0  0  0  1  0  0  0  0  0  0
  189.6290  177.5820  142.0760 C   0  0  0  0  0  2  0  0  0  0  0  0
  189.0220  178.3820  140.9290 C   0  0  0  0  0  2  0  0  0  0  0  0
  189.1900  177.6700  139.5860 C   0  0  2  0  0  0  0  0  0  0  0  0
  187.9670  176.7130  137.6000 O   0  0  0  0  0  1  0  0  0  0  0  0
  189.1590  178.6470  138.4200 C   0  0  0  0  0  2  0  0  0  0  0  0
  188.0170  177.6700  138.6190 C   0  0  2  0  0  0  0  0  0  0  0  0
  190.2520  176.5880  139.4070 C   0  0  0  0  0  2  0  0  0  0  0  0
  191.5270  177.1570  139.4270 O   0  0  0  0  0  0  0  0  0  0  0  0
  191.3610  175.3800  137.8580 C   0  0  0  0  0  1  0  0  0  0  0  0
  192.2210  176.4950  138.4140 C   0  0  0  0  0  2  0  0  0  0  0  0
  186.8240  178.3240  138.9590 O   0  0  0  0  0  0  0  0  0  0  0  0
  185.9900  178.2140  137.8430 C   0  0  0  0  0  2  0  0  0  0  0  0
  184.2870  177.9070  138.3910 S   0  0  0  0  0  1  0  0  0  0  0  0
  1 18  1  6  0  0  0
  1  8  1  0  0  0  0
  1  2  1  0  0  0  0
  2  4  1  0  0  0  0
  3  2  2  0  0  0  0
  4  5  1  0  0  0  0
  6  5  1  0  0  0  0
  8  7  1  6  0  0  0
  8  9  1  0  0  0  0
  9 12  1  6  0  0  0
  9 10  1  0  0  0  0
 10 11  1  0  0  0  0
 12 13  1  0  0  0  0
 14 16  1  0  0  0  0
 14 13  1  0  0  0  0
 16 15  1  0  0  0  0
 17 16  1  0  0  0  0
 19 18  1  0  0  0  0
 20 24  1  6  0  0  0
 20 19  1  0  0  0  0
 22 23  1  0  0  0  0
 22 20  1  0  0  0  0
 23 21  1  6  0  0  0
 23 28  1  0  0  0  0
 23 20  1  0  0  0  0
 24 25  1  0  0  0  0
 26 27  1  0  0  0  0
 27 25  1  0  0  0  0
 29 30  1  0  0  0  0
 29 28  1  0  0  0  0
M  END
>  <MODEL>
7

>  <REMARK>
 VINA RESULT:      -5.3      2.755      7.487
  Name = 
  18 active torsions:
  status: ('A' for Active; 'I' for Inactive)
    1  A    between atoms: C_1  and  C_4
    2  A    between atoms: C_1  and  C_22
    3  A    between atoms: C_2  and  N_14
    4  A    between atoms: C_2  and  C_29
    5  A    between atoms: C_3  and  C_11
    6  A    between atoms: C_4  and  C_5
    7  A    between atoms: C_5  and  O_21
    8  A    between atoms: C_11  and  C_23
    9  A    between atoms: C_11  and  C_24
   10  A    between atoms: C_12  and  O_27
   11  A    between atoms: C_13  and  O_27
   12  A    between atoms: N_14  and  C_20
   13  A    between atoms: O_15  and  C_24
   14  A    between atoms: O_15  and  C_25
   15  A    between atoms: C_16  and  C_25
   16  A    between atoms: C_17  and  O_21
   17  A    between atoms: C_22  and  C_29
   18  A    between atoms: C_23  and  C_29
                            x       y       z     vdW  Elec       q    Type
                         _______ _______ _______ _____ _____    ______ ____

>  <TORSDO>
F 18

$$$$
=
 OpenBabel10272414023D

 30 30  0  0  1  0  0  0  0  0999 V2000
  188.0060  178.1150  142.3280 C   0  0  2  0  0  3  0  0  0  0  0  0
  189.1880  177.5160  143.0400 C   0  0  0  0  0  0  0  0  0  0  0  0
  189.4860  175.8980  142.9510 S   0  0  0  0  0  0  0  0  0  0  0  0
  190.0840  178.3910  143.7320 N   0  0  0  0  0  2  0  0  0  0  0  0
  191.5120  178.1450  143.8540 C   0  0  0  0  0  2  0  0  0  0  0  0
  191.8390  177.9540  145.1960 O   0  0  0  0  0  1  0  0  0  0  0  0
  185.4810  178.0490  142.0890 C   0  0  0  0  0  1  0  0  0  0  0  0
  186.6710  177.7410  142.9950 C   0  0  2  0  0  3  0  0  0  0  0  0
  186.5000  178.3610  144.3960 C   0  0  1  0  0  3  0  0  0  0  0  0
  185.2880  179.2790  144.5030 C   0  0  0  0  0  2  0  0  0  0  0  0
  184.3560  178.7880  145.5930 C   0  0  0  0  0  1  0  0  0  0  0  0
  186.4200  177.2800  145.4620 C   0  0  0  0  0  2  0  0  0  0  0  0
  187.6930  177.0280  145.9780 O   0  0  0  0  0  0  0  0  0  0  0  0
  187.9370  178.0890  146.8520 C   0  0  0  0  0  2  0  0  0  0  0  0
  189.0370  178.0590  148.9780 O   0  0  0  0  0  1  0  0  0  0  0  0
  189.2370  177.8610  147.6100 C   0  0  0  0  0  3  0  0  0  0  0  0
  189.7040  176.5650  147.3850 O   0  0  0  0  0  1  0  0  0  0  0  0
  188.0180  177.6790  140.8660 C   0  0  0  0  0  2  0  0  0  0  0  0
  188.8910  178.5980  140.0180 C   0  0  0  0  0  2  0  0  0  0  0  0
  189.2690  177.9530  138.6840 C   0  0  2  0  0  0  0  0  0  0  0  0
  188.3900  176.6770  136.6950 O   0  0  0  0  0  1  0  0  0  0  0  0
  188.9780  178.8740  137.5090 C   0  0  0  0  0  2  0  0  0  0  0  0
  188.1550  177.6160  137.7060 C   0  0  2  0  0  0  0  0  0  0  0  0
  190.5940  177.2130  138.5270 C   0  0  0  0  0  2  0  0  0  0  0  0
  190.4310  175.8610  138.8370 O   0  0  0  0  0  0  0  0  0  0  0  0
  191.8810  176.1210  136.9720 C   0  0  0  0  0  1  0  0  0  0  0  0
  191.4070  175.2090  138.0840 C   0  0  0  0  0  2  0  0  0  0  0  0
  186.8230  177.9090  138.0270 O   0  0  0  0  0  0  0  0  0  0  0  0
  186.0480  177.3800  136.9910 C   0  0  0  0  0  2  0  0  0  0  0  0
  184.3120  177.3010  137.5150 S   0  0  0  0  0  1  0  0  0  0  0  0
  1 18  1  6  0  0  0
  1  8  1  0  0  0  0
  1  2  1  0  0  0  0
  2  4  1  0  0  0  0
  3  2  2  0  0  0  0
  4  5  1  0  0  0  0
  5  6  1  0  0  0  0
  8  7  1  6  0  0  0
  8  9  1  0  0  0  0
  9 10  1  6  0  0  0
  9 12  1  0  0  0  0
 10 11  1  0  0  0  0
 12 13  1  0  0  0  0
 13 14  1  0  0  0  0
 14 16  1  0  0  0  0
 16 15  1  0  0  0  0
 17 16  1  0  0  0  0
 19 18  1  0  0  0  0
 20 24  1  6  0  0  0
 20 19  1  0  0  0  0
 22 23  1  0  0  0  0
 22 20  1  0  0  0  0
 23 21  1  6  0  0  0
 23 28  1  0  0  0  0
 23 20  1  0  0  0  0
 24 25  1  0  0  0  0
 26 27  1  0  0  0  0
 27 25  1  0  0  0  0
 29 30  1  0  0  0  0
 29 28  1  0  0  0  0
M  END
>  <MODEL>
8

>  <REMARK>
 VINA RESULT:      -5.2      2.497      7.772
  Name = 
  18 active torsions:
  status: ('A' for Active; 'I' for Inactive)
    1  A    between atoms: C_1  and  C_4
    2  A    between atoms: C_1  and  C_22
    3  A    between atoms: C_2  and  N_14
    4  A    between atoms: C_2  and  C_29
    5  A    between atoms: C_3  and  C_11
    6  A    between atoms: C_4  and  C_5
    7  A    between atoms: C_5  and  O_21
    8  A    between atoms: C_11  and  C_23
    9  A    between atoms: C_11  and  C_24
   10  A    between atoms: C_12  and  O_27
   11  A    between atoms: C_13  and  O_27
   12  A    between atoms: N_14  and  C_20
   13  A    between atoms: O_15  and  C_24
   14  A    between atoms: O_15  and  C_25
   15  A    between atoms: C_16  and  C_25
   16  A    between atoms: C_17  and  O_21
   17  A    between atoms: C_22  and  C_29
   18  A    between atoms: C_23  and  C_29
                            x       y       z     vdW  Elec       q    Type
                         _______ _______ _______ _____ _____    ______ ____

>  <TORSDO>
F 18

$$$$
=
 OpenBabel10272414023D

 30 30  0  0  1  0  0  0  0  0999 V2000
  186.4270  177.8630  143.7700 C   0  0  2  0  0  3  0  0  0  0  0  0
  186.1790  178.1440  145.2270 C   0  0  0  0  0  0  0  0  0  0  0  0
  184.7240  178.7320  145.7300 S   0  0  0  0  0  0  0  0  0  0  0  0
  187.2060  177.8220  146.1690 N   0  0  0  0  0  2  0  0  0  0  0  0
  187.0400  177.9410  147.6090 C   0  0  0  0  0  2  0  0  0  0  0  0
  188.1980  178.4810  148.1680 O   0  0  0  0  0  1  0  0  0  0  0  0
  187.9610  178.5040  141.8530 C   0  0  0  0  0  1  0  0  0  0  0  0
  187.8670  178.1990  143.3470 C   0  0  2  0  0  3  0  0  0  0  0  0
  188.8890  177.1280  143.7780 C   0  0  1  0  0  3  0  0  0  0  0  0
  189.1700  176.0950  142.6940 C   0  0  0  0  0  2  0  0  0  0  0  0
  190.6310  176.1410  142.2930 C   0  0  0  0  0  1  0  0  0  0  0  0
  190.1930  177.7710  144.2230 C   0  0  0  0  0  2  0  0  0  0  0  0
  190.3310  177.6510  145.6070 O   0  0  0  0  0  0  0  0  0  0  0  0
  191.5890  177.0720  145.7890 C   0  0  0  0  0  2  0  0  0  0  0  0
  192.3540  176.8130  148.0420 O   0  0  0  0  0  1  0  0  0  0  0  0
  191.5970  176.2050  147.0390 C   0  0  0  0  0  3  0  0  0  0  0  0
  190.2920  176.0020  147.4920 O   0  0  0  0  0  1  0  0  0  0  0  0
  185.4220  178.6390  142.9230 C   0  0  0  0  0  2  0  0  0  0  0  0
  184.5170  177.7010  142.1330 C   0  0  0  0  0  2  0  0  0  0  0  0
  183.5900  178.4660  141.1870 C   0  0  2  0  0  0  0  0  0  0  0  0
  183.5040  180.0280  139.2110 O   0  0  0  0  0  1  0  0  0  0  0  0
  183.3650  177.7130  139.8850 C   0  0  0  0  0  2  0  0  0  0  0  0
  184.1680  178.9990  139.8870 C   0  0  2  0  0  0  0  0  0  0  0  0
  182.3110  179.1150  141.7100 C   0  0  0  0  0  2  0  0  0  0  0  0
  182.1870  178.8980  143.0830 O   0  0  0  0  0  0  0  0  0  0  0  0
  179.9820  178.1780  143.6020 C   0  0  0  0  0  1  0  0  0  0  0  0
  180.9090  179.3580  143.3970 C   0  0  0  0  0  2  0  0  0  0  0  0
  185.5150  178.7730  139.5690 O   0  0  0  0  0  0  0  0  0  0  0  0
  185.5240  178.2150  138.2880 C   0  0  0  0  0  2  0  0  0  0  0  0
  187.2400  177.9600  137.7540 S   0  0  0  0  0  1  0  0  0  0  0  0
  1 18  1  6  0  0  0
  1  2  1  0  0  0  0
  2  3  2  0  0  0  0
  2  4  1  0  0  0  0
  4  5  1  0  0  0  0
  5  6  1  0  0  0  0
  8  7  1  6  0  0  0
  8  1  1  0  0  0  0
  8  9  1  0  0  0  0
  9 10  1  6  0  0  0
  9 12  1  0  0  0  0
 11 10  1  0  0  0  0
 12 13  1  0  0  0  0
 13 14  1  0  0  0  0
 14 16  1  0  0  0  0
 16 17  1  0  0  0  0
 16 15  1  0  0  0  0
 19 18  1  0  0  0  0
 20 24  1  1  0  0  0
 20 19  1  0  0  0  0
 22 23  1  0  0  0  0
 22 20  1  0  0  0  0
 23 21  1  6  0  0  0
 23 20  1  0  0  0  0
 24 25  1  0  0  0  0
 25 27  1  0  0  0  0
 27 26  1  0  0  0  0
 28 23  1  0  0  0  0
 29 28  1  0  0  0  0
 30 29  1  0  0  0  0
M  END
>  <MODEL>
9

>  <REMARK>
 VINA RESULT:      -5.1      3.188      7.130
  Name = 
  18 active torsions:
  status: ('A' for Active; 'I' for Inactive)
    1  A    between atoms: C_1  and  C_4
    2  A    between atoms: C_1  and  C_22
    3  A    between atoms: C_2  and  N_14
    4  A    between atoms: C_2  and  C_29
    5  A    between atoms: C_3  and  C_11
    6  A    between atoms: C_4  and  C_5
    7  A    between atoms: C_5  and  O_21
    8  A    between atoms: C_11  and  C_23
    9  A    between atoms: C_11  and  C_24
   10  A    between atoms: C_12  and  O_27
   11  A    between atoms: C_13  and  O_27
   12  A    between atoms: N_14  and  C_20
   13  A    between atoms: O_15  and  C_24
   14  A    between atoms: O_15  and  C_25
   15  A    between atoms: C_16  and  C_25
   16  A    between atoms: C_17  and  O_21
   17  A    between atoms: C_22  and  C_29
   18  A    between atoms: C_23  and  C_29
                            x       y       z     vdW  Elec       q    Type
                         _______ _______ _______ _____ _____    ______ ____

>  <TORSDO>
F 18

$$$$
