=
 OpenBabel10272413513D

 30 32  0  0  1  0  0  0  0  0999 V2000
  186.5040  177.5020  145.1770 C   0  0  2  0  0  3  0  0  0  0  0  0
  186.5380  178.2320  143.9070 N   0  0  0  0  0  2  0  0  0  0  0  0
  184.1580  178.7680  144.2840 C   0  0  0  0  0  3  0  0  0  0  0  0
  185.6920  178.3160  146.1910 C   0  0  0  0  0  2  0  0  0  0  0  0
  185.1850  178.1990  143.3340 C   0  0  1  0  0  3  0  0  0  0  0  0
  184.3810  178.7750  145.6060 C   0  0  0  0  0  3  0  0  0  0  0  0
  185.1180  178.8640  142.0250 N   0  0  0  0  0  0  0  0  0  0  0  0
  186.4250  178.8600  141.3770 C   0  0  0  0  0  1  0  0  0  0  0  0
  184.2070  178.1170  141.1680 C   0  0  0  0  0  2  0  0  0  0  0  0
  181.2620  178.5410  138.0310 C   0  0  1  0  0  3  0  0  0  0  0  0
  180.4240  179.1700  139.1490 C   0  0  0  0  0  2  0  0  0  0  0  0
  181.1900  179.4170  136.7980 C   0  0  0  0  0  1  0  0  0  0  0  0
  183.0390  178.9960  140.7390 C   0  0  2  0  0  3  0  0  0  0  0  0
  180.5710  178.4200  140.4370 C   0  0  0  0  0  3  0  0  0  0  0  0
  182.7240  178.3300  138.4320 C   0  0  0  0  0  2  0  0  0  0  0  0
  181.7250  178.3370  141.1190 C   0  0  0  0  0  3  0  0  0  0  0  0
  183.1690  179.3960  139.3290 N   0  0  0  0  0  2  0  0  0  0  0  0
  188.1360  177.9980  146.8640 O   0  0  0  0  0  1  0  0  0  0  0  0
  187.9250  177.2480  145.7010 C   0  0  2  0  0  3  0  0  0  0  0  0
  191.0120  179.6760  143.8870 O   0  0  0  0  0  1  0  0  0  0  0  0
  189.0340  176.6760  143.4620 C   0  0  0  0  0  2  0  0  0  0  0  0
  190.4000  177.8080  145.2720 C   0  0  1  0  0  3  0  0  0  0  0  0
  191.4210  177.5000  142.9560 C   0  0  0  0  0  2  0  0  0  0  0  0
  191.3680  178.3680  144.2200 C   0  0  1  0  0  3  0  0  0  0  0  0
  188.9920  177.6290  144.6610 C   0  0  2  0  0  3  0  0  0  0  0  0
  189.8670  176.9030  141.2250 N   0  0  0  0  0  2  0  0  0  0  0  0
  190.0430  177.1590  142.4680 C   0  0  0  0  0  0  0  0  0  0  0  0
  190.9650  176.5140  145.8620 C   0  0  0  0  0  2  0  0  0  0  0  0
  192.4260  175.7320  147.7260 C   0  0  0  0  0  1  0  0  0  0  0  0
  191.2970  176.6670  147.3380 C   0  0  0  0  0  2  0  0  0  0  0  0
  1 19  1  1  0  0  0
  1  4  1  0  0  0  0
  2  1  1  0  0  0  0
  3  6  2  0  0  0  0
  5  7  1  6  0  0  0
  5  2  1  0  0  0  0
  5  3  1  0  0  0  0
  6  4  1  0  0  0  0
  8  7  1  0  0  0  0
  9  7  1  0  0  0  0
 10 12  1  6  0  0  0
 10 15  1  0  0  0  0
 10 11  1  0  0  0  0
 11 14  1  0  0  0  0
 13 16  1  0  0  0  0
 13  9  1  6  0  0  0
 14 16  2  0  0  0  0
 15 17  1  0  0  0  0
 17 13  1  0  0  0  0
 19 18  1  1  0  0  0
 21 25  1  0  0  0  0
 22 28  1  6  0  0  0
 23 24  1  0  0  0  0
 24 20  1  6  0  0  0
 24 22  1  0  0  0  0
 25 22  1  0  0  0  0
 25 19  1  1  0  0  0
 26 27  2  0  0  0  0
 27 23  1  0  0  0  0
 27 21  1  0  0  0  0
 28 30  1  0  0  0  0
 30 29  1  0  0  0  0
M  END
>  <MODEL>
1

>  <REMARK>
 VINA RESULT:      -8.7      0.000      0.000
  Name = 
  7 active torsions:
  status: ('A' for Active; 'I' for Inactive)
    1  A    between atoms: C_3  and  N_11
    2  A    between atoms: C_3  and  C_19
    3  A    between atoms: C_4  and  C_8
    4  A    between atoms: C_4  and  C_23
    5  A    between atoms: C_7  and  C_30
    6  A    between atoms: N_11  and  C_25
    7  A    between atoms: C_13  and  C_30
                            x       y       z     vdW  Elec       q    Type
                         _______ _______ _______ _____ _____    ______ ____

>  <TORSDO>
F 7

$$$$
=
 OpenBabel10272413513D

 30 32  0  0  1  0  0  0  0  0999 V2000
  186.0330  177.7350  144.5340 C   0  0  2  0  0  3  0  0  0  0  0  0
  186.4080  178.0450  143.1530 N   0  0  0  0  0  2  0  0  0  0  0  0
  184.1490  179.0000  142.8740 C   0  0  0  0  0  3  0  0  0  0  0  0
  185.2440  178.9190  145.1070 C   0  0  0  0  0  2  0  0  0  0  0  0
  185.1830  178.0360  142.3410 C   0  0  1  0  0  3  0  0  0  0  0  0
  184.1570  179.3660  144.1630 C   0  0  0  0  0  3  0  0  0  0  0  0
  185.4550  178.2870  140.9180 N   0  0  0  0  0  0  0  0  0  0  0  0
  184.5780  179.3320  140.4030 C   0  0  0  0  0  1  0  0  0  0  0  0
  186.8250  178.7620  140.7820 C   0  0  0  0  0  2  0  0  0  0  0  0
  187.7050  178.4960  136.5580 C   0  0  1  0  0  3  0  0  0  0  0  0
  188.9910  177.8250  137.0510 C   0  0  0  0  0  2  0  0  0  0  0  0
  187.1120  177.6740  135.4320 C   0  0  0  0  0  1  0  0  0  0  0  0
  187.5850  177.9110  139.7740 C   0  0  2  0  0  3  0  0  0  0  0  0
  189.5470  178.5170  138.2570 C   0  0  0  0  0  3  0  0  0  0  0  0
  186.6670  178.6780  137.6690 C   0  0  0  0  0  2  0  0  0  0  0  0
  188.9160  178.5620  139.4420 C   0  0  0  0  0  3  0  0  0  0  0  0
  186.7360  177.5710  138.6210 N   0  0  0  0  0  2  0  0  0  0  0  0
  187.3240  178.3480  146.4610 O   0  0  0  0  0  1  0  0  0  0  0  0
  187.2750  177.4490  145.3900 C   0  0  2  0  0  3  0  0  0  0  0  0
  190.8750  179.3520  143.9290 O   0  0  0  0  0  1  0  0  0  0  0  0
  188.7930  176.4100  143.6050 C   0  0  0  0  0  2  0  0  0  0  0  0
  189.8230  177.8130  145.4470 C   0  0  1  0  0  3  0  0  0  0  0  0
  191.2930  177.0220  143.5210 C   0  0  0  0  0  2  0  0  0  0  0  0
  191.0390  178.1190  144.5630 C   0  0  1  0  0  3  0  0  0  0  0  0
  188.5710  177.5780  144.5720 C   0  0  2  0  0  3  0  0  0  0  0  0
  190.1090  176.1660  141.6160 N   0  0  0  0  0  2  0  0  0  0  0  0
  190.0310  176.6500  142.7990 C   0  0  0  0  0  0  0  0  0  0  0  0
  190.1350  176.6360  146.3740 C   0  0  0  0  0  2  0  0  0  0  0  0
  192.2590  175.6990  147.2850 C   0  0  0  0  0  1  0  0  0  0  0  0
  191.3490  176.9120  147.2450 C   0  0  0  0  0  2  0  0  0  0  0  0
  1  4  1  0  0  0  0
  1 19  1  1  0  0  0
  2  1  1  0  0  0  0
  3  6  2  0  0  0  0
  5  7  1  6  0  0  0
  5  3  1  0  0  0  0
  5  2  1  0  0  0  0
  6  4  1  0  0  0  0
  8  7  1  0  0  0  0
  9  7  1  0  0  0  0
 10 12  1  6  0  0  0
 10 11  1  0  0  0  0
 10 15  1  0  0  0  0
 11 14  1  0  0  0  0
 13  9  1  1  0  0  0
 14 16  2  0  0  0  0
 15 17  1  0  0  0  0
 16 13  1  0  0  0  0
 17 13  1  0  0  0  0
 19 18  1  1  0  0  0
 21 25  1  0  0  0  0
 22 28  1  6  0  0  0
 23 24  1  0  0  0  0
 24 20  1  6  0  0  0
 24 22  1  0  0  0  0
 25 19  1  1  0  0  0
 25 22  1  0  0  0  0
 26 27  2  0  0  0  0
 27 23  1  0  0  0  0
 27 21  1  0  0  0  0
 28 30  1  0  0  0  0
 30 29  1  0  0  0  0
M  END
>  <MODEL>
2

>  <REMARK>
 VINA RESULT:      -8.2      2.308      3.590
  Name = 
  7 active torsions:
  status: ('A' for Active; 'I' for Inactive)
    1  A    between atoms: C_3  and  N_11
    2  A    between atoms: C_3  and  C_19
    3  A    between atoms: C_4  and  C_8
    4  A    between atoms: C_4  and  C_23
    5  A    between atoms: C_7  and  C_30
    6  A    between atoms: N_11  and  C_25
    7  A    between atoms: C_13  and  C_30
                            x       y       z     vdW  Elec       q    Type
                         _______ _______ _______ _____ _____    ______ ____

>  <TORSDO>
F 7

$$$$
=
 OpenBabel10272413513D

 30 32  0  0  1  0  0  0  0  0999 V2000
  187.1570  177.4490  146.2300 C   0  0  2  0  0  3  0  0  0  0  0  0
  186.8920  178.0600  144.9260 N   0  0  0  0  0  2  0  0  0  0  0  0
  184.6120  178.5400  145.7440 C   0  0  0  0  0  3  0  0  0  0  0  0
  186.5250  178.3210  147.3200 C   0  0  0  0  0  2  0  0  0  0  0  0
  185.4540  177.9250  144.6510 C   0  0  1  0  0  3  0  0  0  0  0  0
  185.0990  178.6760  146.9850 C   0  0  0  0  0  3  0  0  0  0  0  0
  185.0850  178.4650  143.3340 N   0  0  0  0  0  0  0  0  0  0  0  0
  184.8470  179.9020  143.4150 C   0  0  0  0  0  1  0  0  0  0  0  0
  186.1980  178.2590  142.4170 C   0  0  0  0  0  2  0  0  0  0  0  0
  186.7710  177.8240  138.1540 C   0  0  1  0  0  3  0  0  0  0  0  0
  185.5150  178.6980  138.0770 C   0  0  0  0  0  2  0  0  0  0  0  0
  187.8130  178.3610  137.1950 C   0  0  0  0  0  1  0  0  0  0  0  0
  185.9420  178.9790  141.1000 C   0  0  2  0  0  3  0  0  0  0  0  0
  184.5010  178.2980  139.1060 C   0  0  0  0  0  3  0  0  0  0  0  0
  187.3560  177.7500  139.5670 C   0  0  0  0  0  2  0  0  0  0  0  0
  184.7040  178.4120  140.4280 C   0  0  0  0  0  3  0  0  0  0  0  0
  187.1580  179.0150  140.2720 N   0  0  0  0  0  2  0  0  0  0  0  0
  189.0730  178.1720  147.4800 O   0  0  0  0  0  1  0  0  0  0  0  0
  188.6660  177.2970  146.4670 C   0  0  2  0  0  3  0  0  0  0  0  0
  191.2610  179.5690  143.8560 O   0  0  0  0  0  1  0  0  0  0  0  0
  189.2580  176.5650  144.0830 C   0  0  0  0  0  2  0  0  0  0  0  0
  190.9830  177.8050  145.4650 C   0  0  1  0  0  3  0  0  0  0  0  0
  191.4690  177.3320  143.0080 C   0  0  0  0  0  2  0  0  0  0  0  0
  191.6910  178.2840  144.1900 C   0  0  1  0  0  3  0  0  0  0  0  0
  189.4750  177.5970  145.1940 C   0  0  2  0  0  3  0  0  0  0  0  0
  189.5760  176.6320  141.7070 N   0  0  0  0  0  2  0  0  0  0  0  0
  190.0200  176.9700  142.8600 C   0  0  0  0  0  0  0  0  0  0  0  0
  191.6730  176.5490  146.0030 C   0  0  0  0  0  2  0  0  0  0  0  0
  192.8060  175.5690  147.9970 C   0  0  0  0  0  1  0  0  0  0  0  0
  191.7660  176.5650  147.5200 C   0  0  0  0  0  2  0  0  0  0  0  0
  1 19  1  1  0  0  0
  1  4  1  0  0  0  0
  2  1  1  0  0  0  0
  3  6  2  0  0  0  0
  5  7  1  6  0  0  0
  5  2  1  0  0  0  0
  5  3  1  0  0  0  0
  6  4  1  0  0  0  0
  7  8  1  0  0  0  0
  9  7  1  0  0  0  0
 10 12  1  6  0  0  0
 10 15  1  0  0  0  0
 11 10  1  0  0  0  0
 11 14  1  0  0  0  0
 13  9  1  1  0  0  0
 14 16  2  0  0  0  0
 15 17  1  0  0  0  0
 16 13  1  0  0  0  0
 17 13  1  0  0  0  0
 19 18  1  1  0  0  0
 21 25  1  0  0  0  0
 22 28  1  6  0  0  0
 23 24  1  0  0  0  0
 24 20  1  6  0  0  0
 24 22  1  0  0  0  0
 25 22  1  0  0  0  0
 25 19  1  1  0  0  0
 26 27  2  0  0  0  0
 27 23  1  0  0  0  0
 27 21  1  0  0  0  0
 28 30  1  0  0  0  0
 30 29  1  0  0  0  0
M  END
>  <MODEL>
3

>  <REMARK>
 VINA RESULT:      -8.0      1.945      2.650
  Name = 
  7 active torsions:
  status: ('A' for Active; 'I' for Inactive)
    1  A    between atoms: C_3  and  N_11
    2  A    between atoms: C_3  and  C_19
    3  A    between atoms: C_4  and  C_8
    4  A    between atoms: C_4  and  C_23
    5  A    between atoms: C_7  and  C_30
    6  A    between atoms: N_11  and  C_25
    7  A    between atoms: C_13  and  C_30
                            x       y       z     vdW  Elec       q    Type
                         _______ _______ _______ _____ _____    ______ ____

>  <TORSDO>
F 7

$$$$
=
 OpenBabel10272413513D

 30 32  0  0  1  0  0  0  0  0999 V2000
  185.8730  177.7780  143.3800 C   0  0  2  0  0  3  0  0  0  0  0  0
  186.6440  178.3440  142.2720 N   0  0  0  0  0  2  0  0  0  0  0  0
  184.4880  178.8980  141.2060 C   0  0  0  0  0  3  0  0  0  0  0  0
  184.6880  178.7020  143.6790 C   0  0  0  0  0  2  0  0  0  0  0  0
  185.8320  178.2270  141.0520 C   0  0  1  0  0  3  0  0  0  0  0  0
  183.9450  179.0720  142.4200 C   0  0  0  0  0  3  0  0  0  0  0  0
  186.5360  178.7240  139.8620 N   0  0  0  0  0  0  0  0  0  0  0  0
  187.9400  178.3260  139.8910 C   0  0  0  0  0  1  0  0  0  0  0  0
  185.9380  178.1200  138.6800 C   0  0  0  0  0  2  0  0  0  0  0  0
  186.5220  175.7570  135.1060 C   0  0  1  0  0  3  0  0  0  0  0  0
  187.6510  176.7590  134.8450 C   0  0  0  0  0  2  0  0  0  0  0  0
  187.0370  174.3520  134.8740 C   0  0  0  0  0  1  0  0  0  0  0  0
  187.0190  177.6950  137.6950 C   0  0  2  0  0  3  0  0  0  0  0  0
  187.2400  178.1570  135.1940 C   0  0  0  0  0  3  0  0  0  0  0  0
  185.9450  175.8700  136.5200 C   0  0  0  0  0  2  0  0  0  0  0  0
  186.9510  178.5520  136.4440 C   0  0  0  0  0  3  0  0  0  0  0  0
  186.9890  176.2400  137.4730 N   0  0  0  0  0  2  0  0  0  0  0  0
  186.4980  178.6460  145.5280 O   0  0  0  0  0  1  0  0  0  0  0  0
  186.7520  177.6060  144.6280 C   0  0  2  0  0  3  0  0  0  0  0  0
  190.7180  179.2660  144.1570 O   0  0  0  0  0  1  0  0  0  0  0  0
  188.7180  176.2970  143.6310 C   0  0  0  0  0  2  0  0  0  0  0  0
  189.1550  177.9910  145.4650 C   0  0  1  0  0  3  0  0  0  0  0  0
  191.1350  176.9040  144.2820 C   0  0  0  0  0  2  0  0  0  0  0  0
  190.6070  178.1560  144.9960 C   0  0  1  0  0  3  0  0  0  0  0  0
  188.2480  177.6070  144.2740 C   0  0  2  0  0  3  0  0  0  0  0  0
  190.5980  175.7390  142.2520 N   0  0  0  0  0  2  0  0  0  0  0  0
  190.1620  176.4100  143.2520 C   0  0  0  0  0  0  0  0  0  0  0  0
  189.0910  176.9840  146.6160 C   0  0  0  0  0  2  0  0  0  0  0  0
  188.0910  178.0910  148.6140 C   0  0  0  0  0  1  0  0  0  0  0  0
  189.3810  177.6410  147.9550 C   0  0  0  0  0  2  0  0  0  0  0  0
  1  4  1  0  0  0  0
  1 19  1  1  0  0  0
  2  1  1  0  0  0  0
  3  6  2  0  0  0  0
  5  7  1  6  0  0  0
  5  3  1  0  0  0  0
  5  2  1  0  0  0  0
  6  4  1  0  0  0  0
  7  8  1  0  0  0  0
  9  7  1  0  0  0  0
 10 12  1  1  0  0  0
 10 15  1  0  0  0  0
 11 10  1  0  0  0  0
 11 14  1  0  0  0  0
 13  9  1  1  0  0  0
 14 16  2  0  0  0  0
 15 17  1  0  0  0  0
 16 13  1  0  0  0  0
 17 13  1  0  0  0  0
 19 18  1  1  0  0  0
 21 25  1  0  0  0  0
 22 28  1  1  0  0  0
 23 24  1  0  0  0  0
 24 20  1  6  0  0  0
 24 22  1  0  0  0  0
 25 19  1  1  0  0  0
 25 22  1  0  0  0  0
 26 27  2  0  0  0  0
 27 21  1  0  0  0  0
 27 23  1  0  0  0  0
 28 30  1  0  0  0  0
 30 29  1  0  0  0  0
M  END
>  <MODEL>
4

>  <REMARK>
 VINA RESULT:      -7.9      3.097      4.053
  Name = 
  7 active torsions:
  status: ('A' for Active; 'I' for Inactive)
    1  A    between atoms: C_3  and  N_11
    2  A    between atoms: C_3  and  C_19
    3  A    between atoms: C_4  and  C_8
    4  A    between atoms: C_4  and  C_23
    5  A    between atoms: C_7  and  C_30
    6  A    between atoms: N_11  and  C_25
    7  A    between atoms: C_13  and  C_30
                            x       y       z     vdW  Elec       q    Type
                         _______ _______ _______ _____ _____    ______ ____

>  <TORSDO>
F 7

$$$$
=
 OpenBabel10272413513D

 30 32  0  0  1  0  0  0  0  0999 V2000
  184.4920  178.9690  142.5840 C   0  0  2  0  0  3  0  0  0  0  0  0
  185.5610  178.2150  143.2410 N   0  0  0  0  0  2  0  0  0  0  0  0
  184.5740  178.9120  145.3930 C   0  0  0  0  0  3  0  0  0  0  0  0
  183.1810  178.7230  143.3400 C   0  0  0  0  0  2  0  0  0  0  0  0
  185.8210  178.8450  144.5440 C   0  0  1  0  0  3  0  0  0  0  0  0
  183.3590  178.9020  144.8260 C   0  0  0  0  0  3  0  0  0  0  0  0
  186.9190  178.1930  145.2700 N   0  0  0  0  0  0  0  0  0  0  0  0
  186.5520  177.9640  146.6630 C   0  0  0  0  0  1  0  0  0  0  0  0
  187.1700  176.8920  144.6670 C   0  0  0  0  0  2  0  0  0  0  0  0
  190.0670  177.7000  141.5610 C   0  0  1  0  0  3  0  0  0  0  0  0
  191.0420  177.7770  142.7390 C   0  0  0  0  0  2  0  0  0  0  0  0
  190.6700  176.8430  140.4670 C   0  0  0  0  0  1  0  0  0  0  0  0
  188.6490  176.7300  144.3450 C   0  0  2  0  0  3  0  0  0  0  0  0
  190.4400  178.4960  143.9080 C   0  0  0  0  0  3  0  0  0  0  0  0
  188.6970  177.1430  141.9590 C   0  0  0  0  0  2  0  0  0  0  0  0
  189.3820  178.0360  144.5950 C   0  0  0  0  0  3  0  0  0  0  0  0
  188.8390  176.1380  143.0110 N   0  0  0  0  0  2  0  0  0  0  0  0
  184.7130  179.6240  140.2870 O   0  0  0  0  0  1  0  0  0  0  0  0
  184.3520  178.5530  141.1130 C   0  0  2  0  0  3  0  0  0  0  0  0
  180.0330  178.6510  141.3140 O   0  0  0  0  0  1  0  0  0  0  0  0
  182.8460  176.8810  139.8860 C   0  0  0  0  0  2  0  0  0  0  0  0
  182.0620  179.2720  140.1840 C   0  0  1  0  0  3  0  0  0  0  0  0
  180.4490  177.5490  139.2210 C   0  0  0  0  0  2  0  0  0  0  0  0
  180.5980  178.8310  140.0500 C   0  0  1  0  0  3  0  0  0  0  0  0
  182.9140  178.1260  140.7760 C   0  0  2  0  0  3  0  0  0  0  0  0
  181.1280  175.2590  139.4760 N   0  0  0  0  0  2  0  0  0  0  0  0
  181.4170  176.4920  139.6680 C   0  0  0  0  0  0  0  0  0  0  0  0
  182.5820  179.7690  138.8330 C   0  0  0  0  0  2  0  0  0  0  0  0
  181.0350  180.9560  137.2780 C   0  0  0  0  0  1  0  0  0  0  0  0
  181.9770  181.1110  138.4570 C   0  0  0  0  0  2  0  0  0  0  0  0
  1 19  1  6  0  0  0
  1  2  1  0  0  0  0
  1  4  1  0  0  0  0
  2  5  1  0  0  0  0
  4  6  1  0  0  0  0
  5  7  1  1  0  0  0
  5  3  1  0  0  0  0
  6  3  2  0  0  0  0
  7  8  1  0  0  0  0
  9  7  1  0  0  0  0
 10 12  1  6  0  0  0
 10 15  1  0  0  0  0
 10 11  1  0  0  0  0
 11 14  1  0  0  0  0
 13 16  1  0  0  0  0
 13  9  1  6  0  0  0
 14 16  2  0  0  0  0
 15 17  1  0  0  0  0
 17 13  1  0  0  0  0
 19 18  1  6  0  0  0
 21 25  1  0  0  0  0
 22 28  1  6  0  0  0
 22 25  1  0  0  0  0
 23 27  1  0  0  0  0
 23 24  1  0  0  0  0
 24 22  1  0  0  0  0
 24 20  1  1  0  0  0
 25 19  1  6  0  0  0
 26 27  2  0  0  0  0
 27 21  1  0  0  0  0
 29 30  1  0  0  0  0
 30 28  1  0  0  0  0
M  END
>  <MODEL>
5

>  <REMARK>
 VINA RESULT:      -7.7      2.729      8.565
  Name = 
  7 active torsions:
  status: ('A' for Active; 'I' for Inactive)
    1  A    between atoms: C_3  and  N_11
    2  A    between atoms: C_3  and  C_19
    3  A    between atoms: C_4  and  C_8
    4  A    between atoms: C_4  and  C_23
    5  A    between atoms: C_7  and  C_30
    6  A    between atoms: N_11  and  C_25
    7  A    between atoms: C_13  and  C_30
                            x       y       z     vdW  Elec       q    Type
                         _______ _______ _______ _____ _____    ______ ____

>  <TORSDO>
F 7

$$$$
=
 OpenBabel10272413513D

 30 32  0  0  1  0  0  0  0  0999 V2000
  190.6250  176.3520  137.9770 C   0  0  2  0  0  3  0  0  0  0  0  0
  190.6050  176.0080  139.4010 N   0  0  0  0  0  2  0  0  0  0  0  0
  188.9230  177.7910  139.6900 C   0  0  0  0  0  3  0  0  0  0  0  0
  189.1870  176.6130  137.5140 C   0  0  0  0  0  2  0  0  0  0  0  0
  190.2430  177.2190  140.1510 C   0  0  1  0  0  3  0  0  0  0  0  0
  188.4650  177.5440  138.4550 C   0  0  0  0  0  3  0  0  0  0  0  0
  190.2430  176.9970  141.6040 N   0  0  0  0  0  0  0  0  0  0  0  0
  191.5380  177.3440  142.1780 C   0  0  0  0  0  1  0  0  0  0  0  0
  189.2500  177.8730  142.2100 C   0  0  0  0  0  2  0  0  0  0  0  0
  187.9130  177.8790  146.3210 C   0  0  1  0  0  3  0  0  0  0  0  0
  186.6800  177.1860  145.7340 C   0  0  0  0  0  2  0  0  0  0  0  0
  188.3700  177.1260  147.5540 C   0  0  0  0  0  1  0  0  0  0  0  0
  188.3730  177.0920  143.1800 C   0  0  2  0  0  3  0  0  0  0  0  0
  186.2670  177.8050  144.4330 C   0  0  0  0  0  3  0  0  0  0  0  0
  189.0680  177.9840  145.3210 C   0  0  0  0  0  2  0  0  0  0  0  0
  187.0230  177.7710  143.3240 C   0  0  0  0  0  3  0  0  0  0  0  0
  189.0880  176.8200  144.4370 N   0  0  0  0  0  2  0  0  0  0  0  0
  190.9580  173.9890  137.7290 O   0  0  0  0  0  1  0  0  0  0  0  0
  191.2630  175.2260  137.1510 C   0  0  2  0  0  3  0  0  0  0  0  0
  195.3640  174.8570  138.4760 O   0  0  0  0  0  1  0  0  0  0  0  0
  193.2540  176.1870  135.8540 C   0  0  0  0  0  2  0  0  0  0  0  0
  193.5400  174.0260  137.1480 C   0  0  1  0  0  3  0  0  0  0  0  0
  195.5880  175.1250  136.1000 C   0  0  0  0  0  2  0  0  0  0  0  0
  195.0530  174.2640  137.2510 C   0  0  1  0  0  3  0  0  0  0  0  0
  192.7910  175.3760  137.0690 C   0  0  2  0  0  3  0  0  0  0  0  0
  195.2710  177.3900  135.3680 N   0  0  0  0  0  2  0  0  0  0  0  0
  194.7420  176.3470  135.8910 C   0  0  0  0  0  0  0  0  0  0  0  0
  193.2380  173.1040  135.9650 C   0  0  0  0  0  2  0  0  0  0  0  0
  194.8030  171.2830  135.2900 C   0  0  0  0  0  1  0  0  0  0  0  0
  193.6850  171.6770  136.2360 C   0  0  0  0  0  2  0  0  0  0  0  0
  1 19  1  6  0  0  0
  1  2  1  0  0  0  0
  2  5  1  0  0  0  0
  3  5  1  0  0  0  0
  4  1  1  0  0  0  0
  4  6  1  0  0  0  0
  5  7  1  1  0  0  0
  6  3  2  0  0  0  0
  7  8  1  0  0  0  0
  7  9  1  0  0  0  0
 10 12  1  1  0  0  0
 11 10  1  0  0  0  0
 13  9  1  6  0  0  0
 13 16  1  0  0  0  0
 13 17  1  0  0  0  0
 14 11  1  0  0  0  0
 15 10  1  0  0  0  0
 16 14  2  0  0  0  0
 17 15  1  0  0  0  0
 19 18  1  1  0  0  0
 21 27  1  0  0  0  0
 21 25  1  0  0  0  0
 22 28  1  6  0  0  0
 22 24  1  0  0  0  0
 23 24  1  0  0  0  0
 24 20  1  1  0  0  0
 25 22  1  0  0  0  0
 25 19  1  6  0  0  0
 26 27  2  0  0  0  0
 27 23  1  0  0  0  0
 28 30  1  0  0  0  0
 29 30  1  0  0  0  0
M  END
>  <MODEL>
6

>  <REMARK>
 VINA RESULT:      -7.6      5.581      8.803
  Name = 
  7 active torsions:
  status: ('A' for Active; 'I' for Inactive)
    1  A    between atoms: C_3  and  N_11
    2  A    between atoms: C_3  and  C_19
    3  A    between atoms: C_4  and  C_8
    4  A    between atoms: C_4  and  C_23
    5  A    between atoms: C_7  and  C_30
    6  A    between atoms: N_11  and  C_25
    7  A    between atoms: C_13  and  C_30
                            x       y       z     vdW  Elec       q    Type
                         _______ _______ _______ _____ _____    ______ ____

>  <TORSDO>
F 7

$$$$
=
 OpenBabel10272413513D

 30 32  0  0  1  0  0  0  0  0999 V2000
  186.7900  177.8480  137.7430 C   0  0  2  0  0  3  0  0  0  0  0  0
  187.4340  177.8190  139.0570 N   0  0  0  0  0  2  0  0  0  0  0  0
  189.5980  177.8270  137.8700 C   0  0  0  0  0  3  0  0  0  0  0  0
  187.5610  178.8160  136.8380 C   0  0  0  0  0  2  0  0  0  0  0  0
  188.7340  177.1490  138.9060 C   0  0  1  0  0  3  0  0  0  0  0  0
  189.0450  178.5570  136.8910 C   0  0  0  0  0  3  0  0  0  0  0  0
  189.4470  177.0210  140.1850 N   0  0  0  0  0  0  0  0  0  0  0  0
  190.8410  177.4260  140.0410 C   0  0  0  0  0  1  0  0  0  0  0  0
  188.8320  177.9170  141.1550 C   0  0  0  0  0  2  0  0  0  0  0  0
  188.7270  177.8750  145.4760 C   0  0  1  0  0  3  0  0  0  0  0  0
  187.3730  177.1920  145.2580 C   0  0  0  0  0  2  0  0  0  0  0  0
  189.5130  177.1050  146.5180 C   0  0  0  0  0  1  0  0  0  0  0  0
  188.2650  177.1260  142.3260 C   0  0  2  0  0  3  0  0  0  0  0  0
  186.6090  177.8290  144.1370 C   0  0  0  0  0  3  0  0  0  0  0  0
  189.5480  177.9900  144.1890 C   0  0  0  0  0  2  0  0  0  0  0  0
  187.0160  177.8070  142.8580 C   0  0  0  0  0  3  0  0  0  0  0  0
  189.3080  176.8370  143.3230 N   0  0  0  0  0  2  0  0  0  0  0  0
  185.1820  179.1950  138.9070 O   0  0  0  0  0  1  0  0  0  0  0  0
  185.3200  178.2750  137.8620 C   0  0  2  0  0  3  0  0  0  0  0  0
  182.2860  175.9800  139.9210 O   0  0  0  0  0  1  0  0  0  0  0  0
  184.6780  175.8810  137.2080 C   0  0  0  0  0  2  0  0  0  0  0  0
  182.8970  177.4410  138.1120 C   0  0  1  0  0  3  0  0  0  0  0  0
  182.3200  174.9880  137.7340 C   0  0  0  0  0  2  0  0  0  0  0  0
  182.0520  176.2450  138.5700 C   0  0  1  0  0  3  0  0  0  0  0  0
  184.3990  177.0730  138.1290 C   0  0  2  0  0  3  0  0  0  0  0  0
  184.2020  173.5380  137.3810 N   0  0  0  0  0  2  0  0  0  0  0  0
  183.7920  174.7340  137.5820 C   0  0  0  0  0  0  0  0  0  0  0  0
  182.4150  177.9260  136.7430 C   0  0  0  0  0  2  0  0  0  0  0  0
  181.7050  179.9540  138.0100 C   0  0  0  0  0  1  0  0  0  0  0  0
  181.3610  179.0130  136.8710 C   0  0  0  0  0  2  0  0  0  0  0  0
  1 19  1  1  0  0  0
  1  2  1  0  0  0  0
  3  5  1  0  0  0  0
  4  6  1  0  0  0  0
  4  1  1  0  0  0  0
  5  2  1  0  0  0  0
  5  7  1  1  0  0  0
  6  3  2  0  0  0  0
  7  9  1  0  0  0  0
  8  7  1  0  0  0  0
 10 12  1  1  0  0  0
 11 10  1  0  0  0  0
 13  9  1  6  0  0  0
 13 16  1  0  0  0  0
 13 17  1  0  0  0  0
 14 11  1  0  0  0  0
 15 10  1  0  0  0  0
 16 14  2  0  0  0  0
 17 15  1  0  0  0  0
 19 18  1  1  0  0  0
 21 27  1  0  0  0  0
 21 25  1  0  0  0  0
 22 28  1  6  0  0  0
 22 25  1  0  0  0  0
 22 24  1  0  0  0  0
 23 24  1  0  0  0  0
 24 20  1  1  0  0  0
 25 19  1  6  0  0  0
 26 27  2  0  0  0  0
 27 23  1  0  0  0  0
 28 30  1  0  0  0  0
 30 29  1  0  0  0  0
M  END
>  <MODEL>
7

>  <REMARK>
 VINA RESULT:      -7.6      3.579      9.154
  Name = 
  7 active torsions:
  status: ('A' for Active; 'I' for Inactive)
    1  A    between atoms: C_3  and  N_11
    2  A    between atoms: C_3  and  C_19
    3  A    between atoms: C_4  and  C_8
    4  A    between atoms: C_4  and  C_23
    5  A    between atoms: C_7  and  C_30
    6  A    between atoms: N_11  and  C_25
    7  A    between atoms: C_13  and  C_30
                            x       y       z     vdW  Elec       q    Type
                         _______ _______ _______ _____ _____    ______ ____

>  <TORSDO>
F 7

$$$$
=
 OpenBabel10272413513D

 30 32  0  0  1  0  0  0  0  0999 V2000
  182.9900  178.8980  141.7370 C   0  0  2  0  0  3  0  0  0  0  0  0
  184.1490  178.0390  141.9840 N   0  0  0  0  0  2  0  0  0  0  0  0
  184.0940  178.8320  144.3210 C   0  0  0  0  0  3  0  0  0  0  0  0
  182.0320  178.7880  142.9290 C   0  0  0  0  0  2  0  0  0  0  0  0
  184.9290  178.6380  143.0770 C   0  0  1  0  0  3  0  0  0  0  0  0
  182.7610  178.9470  144.2390 C   0  0  0  0  0  3  0  0  0  0  0  0
  186.1500  177.8770  143.3740 N   0  0  0  0  0  0  0  0  0  0  0  0
  187.1250  178.0270  142.3000 C   0  0  0  0  0  1  0  0  0  0  0  0
  186.7520  178.4150  144.5860 C   0  0  0  0  0  2  0  0  0  0  0  0
  190.4520  177.3170  146.5340 C   0  0  1  0  0  3  0  0  0  0  0  0
  189.5210  176.5390  147.4690 C   0  0  0  0  0  2  0  0  0  0  0  0
  191.6070  176.4270  146.1240 C   0  0  0  0  0  1  0  0  0  0  0  0
  187.3810  177.2980  145.4090 C   0  0  2  0  0  3  0  0  0  0  0  0
  188.2870  177.3230  147.7950 C   0  0  0  0  0  3  0  0  0  0  0  0
  189.7370  177.8440  145.2870 C   0  0  0  0  0  2  0  0  0  0  0  0
  187.3630  177.6630  146.8820 C   0  0  0  0  0  3  0  0  0  0  0  0
  188.6930  176.9140  144.8630 N   0  0  0  0  0  2  0  0  0  0  0  0
  181.2640  177.5800  140.7180 O   0  0  0  0  0  1  0  0  0  0  0  0
  182.2790  178.5000  140.4360 C   0  0  2  0  0  3  0  0  0  0  0  0
  183.9640  175.3820  137.9550 O   0  0  0  0  0  1  0  0  0  0  0  0
  184.4060  178.8060  139.0380 C   0  0  0  0  0  2  0  0  0  0  0  0
  182.5510  177.3150  138.1660 C   0  0  1  0  0  3  0  0  0  0  0  0
  184.7710  177.3910  136.9170 C   0  0  0  0  0  2  0  0  0  0  0  0
  183.5520  176.5420  137.2970 C   0  0  1  0  0  3  0  0  0  0  0  0
  183.2540  177.8730  139.4250 C   0  0  2  0  0  3  0  0  0  0  0  0
  186.5840  178.4140  138.1150 N   0  0  0  0  0  2  0  0  0  0  0  0
  185.3440  178.0940  138.1130 C   0  0  0  0  0  0  0  0  0  0  0  0
  181.8670  178.4020  137.3320 C   0  0  0  0  0  2  0  0  0  0  0  0
  181.4170  178.7690  134.9070 C   0  0  0  0  0  1  0  0  0  0  0  0
  181.2240  177.8280  136.0800 C   0  0  0  0  0  2  0  0  0  0  0  0
  1 19  1  6  0  0  0
  1  2  1  0  0  0  0
  1  4  1  0  0  0  0
  2  5  1  0  0  0  0
  4  6  1  0  0  0  0
  5  7  1  1  0  0  0
  5  3  1  0  0  0  0
  6  3  2  0  0  0  0
  7  9  1  0  0  0  0
  8  7  1  0  0  0  0
 10 12  1  6  0  0  0
 10 11  1  0  0  0  0
 11 14  1  0  0  0  0
 13  9  1  6  0  0  0
 13 16  1  0  0  0  0
 15 10  1  0  0  0  0
 16 14  2  0  0  0  0
 17 15  1  0  0  0  0
 17 13  1  0  0  0  0
 19 18  1  1  0  0  0
 21 25  1  0  0  0  0
 22 28  1  6  0  0  0
 22 25  1  0  0  0  0
 23 24  1  0  0  0  0
 23 27  1  0  0  0  0
 24 20  1  1  0  0  0
 24 22  1  0  0  0  0
 25 19  1  1  0  0  0
 27 26  2  0  0  0  0
 27 21  1  0  0  0  0
 29 30  1  0  0  0  0
 30 28  1  0  0  0  0
M  END
>  <MODEL>
8

>  <REMARK>
 VINA RESULT:      -7.4      3.022      8.957
  Name = 
  7 active torsions:
  status: ('A' for Active; 'I' for Inactive)
    1  A    between atoms: C_3  and  N_11
    2  A    between atoms: C_3  and  C_19
    3  A    between atoms: C_4  and  C_8
    4  A    between atoms: C_4  and  C_23
    5  A    between atoms: C_7  and  C_30
    6  A    between atoms: N_11  and  C_25
    7  A    between atoms: C_13  and  C_30
                            x       y       z     vdW  Elec       q    Type
                         _______ _______ _______ _____ _____    ______ ____

>  <TORSDO>
F 7

$$$$
=
 OpenBabel10272413513D

 30 32  0  0  1  0  0  0  0  0999 V2000
  189.1640  177.6290  138.7120 C   0  0  2  0  0  3  0  0  0  0  0  0
  188.6750  178.3910  139.8640 N   0  0  0  0  0  2  0  0  0  0  0  0
  190.0350  176.8980  141.2830 C   0  0  0  0  0  3  0  0  0  0  0  0
  190.6550  177.3370  138.9130 C   0  0  0  0  0  2  0  0  0  0  0  0
  188.6700  177.4930  141.0280 C   0  0  1  0  0  3  0  0  0  0  0  0
  190.9290  176.7880  140.2900 C   0  0  0  0  0  3  0  0  0  0  0  0
  188.1450  178.1470  142.2350 N   0  0  0  0  0  0  0  0  0  0  0  0
  186.7290  178.4580  142.0770 C   0  0  0  0  0  1  0  0  0  0  0  0
  188.2660  177.2240  143.3550 C   0  0  0  0  0  2  0  0  0  0  0  0
  188.5410  177.1860  147.6700 C   0  0  1  0  0  3  0  0  0  0  0  0
  189.9870  177.6130  147.4020 C   0  0  0  0  0  2  0  0  0  0  0  0
  187.9490  178.0710  148.7470 C   0  0  0  0  0  1  0  0  0  0  0  0
  189.0120  177.8820  144.5080 C   0  0  2  0  0  3  0  0  0  0  0  0
  190.5790  176.8640  146.2470 C   0  0  0  0  0  3  0  0  0  0  0  0
  187.6640  177.2410  146.4150 C   0  0  0  0  0  2  0  0  0  0  0  0
  190.1340  176.9780  144.9860 C   0  0  0  0  0  3  0  0  0  0  0  0
  188.0780  178.3420  145.5480 N   0  0  0  0  0  2  0  0  0  0  0  0
  188.9840  179.7780  137.6620 O   0  0  0  0  0  1  0  0  0  0  0  0
  188.9360  178.4040  137.4060 C   0  0  2  0  0  3  0  0  0  0  0  0
  185.8730  178.3900  134.3520 O   0  0  0  0  0  1  0  0  0  0  0  0
  186.6250  177.3450  137.7330 C   0  0  0  0  0  2  0  0  0  0  0  0
  187.7070  177.2820  135.4430 C   0  0  1  0  0  3  0  0  0  0  0  0
  185.2990  176.4870  135.6990 C   0  0  0  0  0  2  0  0  0  0  0  0
  186.3320  177.1410  134.7740 C   0  0  1  0  0  3  0  0  0  0  0  0
  187.5780  178.0610  136.7710 C   0  0  2  0  0  3  0  0  0  0  0  0
  184.2420  177.0790  137.7730 N   0  0  0  0  0  2  0  0  0  0  0  0
  185.3070  177.1160  137.0620 C   0  0  0  0  0  0  0  0  0  0  0  0
  188.3450  175.9010  135.6180 C   0  0  0  0  0  2  0  0  0  0  0  0
  190.8290  175.8590  135.4090 C   0  0  0  0  0  1  0  0  0  0  0  0
  189.5150  175.6980  134.6700 C   0  0  0  0  0  2  0  0  0  0  0  0
  1 19  1  6  0  0  0
  1  4  1  0  0  0  0
  1  2  1  0  0  0  0
  2  5  1  0  0  0  0
  4  6  1  0  0  0  0
  5  3  1  0  0  0  0
  5  7  1  1  0  0  0
  6  3  2  0  0  0  0
  7  9  1  0  0  0  0
  8  7  1  0  0  0  0
 10 12  1  1  0  0  0
 11 10  1  0  0  0  0
 13  9  1  6  0  0  0
 13 16  1  0  0  0  0
 13 17  1  0  0  0  0
 14 11  1  0  0  0  0
 15 10  1  0  0  0  0
 16 14  2  0  0  0  0
 17 15  1  0  0  0  0
 19 18  1  1  0  0  0
 22 28  1  1  0  0  0
 22 25  1  0  0  0  0
 23 27  1  0  0  0  0
 24 20  1  1  0  0  0
 24 22  1  0  0  0  0
 24 23  1  0  0  0  0
 25 19  1  1  0  0  0
 25 21  1  0  0  0  0
 27 21  1  0  0  0  0
 27 26  2  0  0  0  0
 30 29  1  0  0  0  0
 30 28  1  0  0  0  0
M  END
>  <MODEL>
9

>  <REMARK>
 VINA RESULT:      -7.4      4.315      9.072
  Name = 
  7 active torsions:
  status: ('A' for Active; 'I' for Inactive)
    1  A    between atoms: C_3  and  N_11
    2  A    between atoms: C_3  and  C_19
    3  A    between atoms: C_4  and  C_8
    4  A    between atoms: C_4  and  C_23
    5  A    between atoms: C_7  and  C_30
    6  A    between atoms: N_11  and  C_25
    7  A    between atoms: C_13  and  C_30
                            x       y       z     vdW  Elec       q    Type
                         _______ _______ _______ _____ _____    ______ ____

>  <TORSDO>
F 7

$$$$
