=
 OpenBabel10272401063D

 27 29  0  0  1  0  0  0  0  0999 V2000
  188.2820  177.7040  144.1590 C   0  0  2  0  0  3  0  0  0  0  0  0
  191.4140  176.5260  146.8620 C   0  0  0  0  0  2  0  0  0  0  0  0
  189.4460  177.7470  145.1590 C   0  0  2  0  0  3  0  0  0  0  0  0
  190.7150  177.0500  144.6550 C   0  0  0  0  0  2  0  0  0  0  0  0
  191.7950  177.2060  145.6260 N   0  0  0  0  0  2  0  0  0  0  0  0
  190.2100  177.2230  147.4890 C   0  0  0  0  0  2  0  0  0  0  0  0
  189.0330  177.1850  146.5190 C   0  0  0  0  0  2  0  0  0  0  0  0
  186.6880  177.0690  144.8180 S   0  0  0  0  0  0  0  0  0  0  0  0
  183.3600  179.0950  144.9820 C   0  0  0  0  0  3  0  0  0  0  0  0
  182.7990  178.8800  143.6060 C   0  0  0  0  0  2  0  0  0  0  0  0
  185.6500  178.4480  144.2330 C   0  0  1  0  0  3  0  0  0  0  0  0
  185.0650  179.0660  146.5890 O   0  0  0  0  0  1  0  0  0  0  0  0
  183.8820  179.0100  142.5440 C   0  0  0  0  0  2  0  0  0  0  0  0
  185.0160  178.0580  142.8940 C   0  0  0  0  0  2  0  0  0  0  0  0
  184.6400  178.8520  145.2850 C   0  0  0  0  0  0  0  0  0  0  0  0
  188.6630  177.0620  142.8360 C   0  0  0  0  0  2  0  0  0  0  0  0
  188.3640  178.0260  141.7010 C   0  0  0  0  0  2  0  0  0  0  0  0
  191.2770  176.7220  139.6930 C   0  0  0  0  0  3  0  0  0  0  0  0
  191.7190  176.6140  137.3310 O   0  0  0  0  0  1  0  0  0  0  0  0
  189.6750  177.6360  138.1270 C   0  0  0  0  0  0  0  0  0  0  0  0
  189.3010  177.9010  136.8140 O   0  0  0  0  0  1  0  0  0  0  0  0
  188.8370  178.0290  139.1850 C   0  0  0  0  0  0  0  0  0  0  0  0
  190.8900  176.9890  138.3820 C   0  0  0  0  0  0  0  0  0  0  0  0
  189.2270  177.7280  140.5180 C   0  0  0  0  0  0  0  0  0  0  0  0
  190.4490  177.0850  140.7530 C   0  0  0  0  0  3  0  0  0  0  0  0
  186.4340  178.0710  138.4670 C   0  0  0  0  0  1  0  0  0  0  0  0
  187.6490  178.7000  138.8470 O   0  0  0  0  0  0  0  0  0  0  0  0
  1 16  1  6  0  0  0
  1  8  1  0  0  0  0
  2  6  1  0  0  0  0
  3  1  1  6  0  0  0
  3  7  1  0  0  0  0
  4  3  1  0  0  0  0
  4  5  1  0  0  0  0
  5  2  1  0  0  0  0
  7  6  1  0  0  0  0
  9 15  2  0  0  0  0
 10  9  1  0  0  0  0
 11  8  1  1  0  0  0
 11 15  1  0  0  0  0
 13 14  1  0  0  0  0
 13 10  1  0  0  0  0
 14 11  1  0  0  0  0
 15 12  1  0  0  0  0
 17 16  1  0  0  0  0
 18 25  1  0  0  0  0
 19 23  1  0  0  0  0
 20 23  1  0  0  0  0
 20 22  2  0  0  0  0
 21 20  1  0  0  0  0
 22 24  1  0  0  0  0
 23 18  2  0  0  0  0
 24 25  2  0  0  0  0
 24 17  1  0  0  0  0
 26 27  1  0  0  0  0
 27 22  1  0  0  0  0
M  END
>  <MODEL>
1

>  <REMARK>
 VINA RESULT:      -8.4      0.000      0.000
  Name = 
  7 active torsions:
  status: ('A' for Active; 'I' for Inactive)
    1  A    between atoms: S_1  and  C_15
    2  A    between atoms: S_1  and  C_18
    3  A    between atoms: C_2  and  C_6
    4  A    between atoms: C_2  and  C_15
    5  A    between atoms: C_6  and  C_17
    6  A    between atoms: C_9  and  C_15
    7  A    between atoms: C_14  and  O_19
                            x       y       z     vdW  Elec       q    Type
                         _______ _______ _______ _____ _____    ______ ____

>  <TORSDO>
F 7

$$$$
=
 OpenBabel10272401063D

 27 29  0  0  1  0  0  0  0  0999 V2000
  188.3900  177.7950  144.4190 C   0  0  2  0  0  3  0  0  0  0  0  0
  191.3020  176.4600  147.2890 C   0  0  0  0  0  2  0  0  0  0  0  0
  189.5300  177.7750  145.4460 C   0  0  2  0  0  3  0  0  0  0  0  0
  190.7160  176.8960  145.0310 C   0  0  0  0  0  2  0  0  0  0  0  0
  191.7870  176.9950  146.0190 N   0  0  0  0  0  2  0  0  0  0  0  0
  190.1790  177.3410  147.8300 C   0  0  0  0  0  2  0  0  0  0  0  0
  189.0260  177.3690  146.8310 C   0  0  0  0  0  2  0  0  0  0  0  0
  186.7790  177.1280  145.0020 S   0  0  0  0  0  0  0  0  0  0  0  0
  183.3880  179.0500  144.9650 C   0  0  0  0  0  3  0  0  0  0  0  0
  182.9300  178.8440  143.5500 C   0  0  0  0  0  2  0  0  0  0  0  0
  185.7430  178.4860  144.3680 C   0  0  1  0  0  3  0  0  0  0  0  0
  184.9760  179.0430  146.6870 O   0  0  0  0  0  1  0  0  0  0  0  0
  184.0810  179.0270  142.5680 C   0  0  0  0  0  2  0  0  0  0  0  0
  185.2160  178.1030  142.9810 C   0  0  0  0  0  2  0  0  0  0  0  0
  184.6500  178.8400  145.3530 C   0  0  0  0  0  0  0  0  0  0  0  0
  188.8000  177.2320  143.0690 C   0  0  0  0  0  2  0  0  0  0  0  0
  189.0250  178.3720  142.0910 C   0  0  0  0  0  2  0  0  0  0  0  0
  187.2490  177.9860  138.7890 C   0  0  0  0  0  3  0  0  0  0  0  0
  187.8710  176.9560  136.7060 O   0  0  0  0  0  1  0  0  0  0  0  0
  189.3850  176.8660  138.5920 C   0  0  0  0  0  0  0  0  0  0  0  0
  190.2950  176.1500  137.8230 O   0  0  0  0  0  1  0  0  0  0  0  0
  189.6890  177.1710  139.9300 C   0  0  0  0  0  0  0  0  0  0  0  0
  188.1690  177.2690  138.0270 C   0  0  0  0  0  0  0  0  0  0  0  0
  188.7550  177.9250  140.6920 C   0  0  0  0  0  0  0  0  0  0  0  0
  187.5420  178.3140  140.1100 C   0  0  0  0  0  3  0  0  0  0  0  0
  192.1220  177.4550  140.4720 C   0  0  0  0  0  1  0  0  0  0  0  0
  190.9160  176.7050  140.4320 O   0  0  0  0  0  0  0  0  0  0  0  0
  1 16  1  6  0  0  0
  1  8  1  0  0  0  0
  2  6  1  0  0  0  0
  3  1  1  6  0  0  0
  3  7  1  0  0  0  0
  4  3  1  0  0  0  0
  4  5  1  0  0  0  0
  5  2  1  0  0  0  0
  7  6  1  0  0  0  0
  9 15  2  0  0  0  0
 10  9  1  0  0  0  0
 11  8  1  1  0  0  0
 11 15  1  0  0  0  0
 13 14  1  0  0  0  0
 13 10  1  0  0  0  0
 14 11  1  0  0  0  0
 15 12  1  0  0  0  0
 17 16  1  0  0  0  0
 18 25  1  0  0  0  0
 19 23  1  0  0  0  0
 20 22  2  0  0  0  0
 21 20  1  0  0  0  0
 22 27  1  0  0  0  0
 22 24  1  0  0  0  0
 23 20  1  0  0  0  0
 23 18  2  0  0  0  0
 24 17  1  0  0  0  0
 25 24  2  0  0  0  0
 27 26  1  0  0  0  0
M  END
>  <MODEL>
2

>  <REMARK>
 VINA RESULT:      -8.3      1.007      2.074
  Name = 
  7 active torsions:
  status: ('A' for Active; 'I' for Inactive)
    1  A    between atoms: S_1  and  C_15
    2  A    between atoms: S_1  and  C_18
    3  A    between atoms: C_2  and  C_6
    4  A    between atoms: C_2  and  C_15
    5  A    between atoms: C_6  and  C_17
    6  A    between atoms: C_9  and  C_15
    7  A    between atoms: C_14  and  O_19
                            x       y       z     vdW  Elec       q    Type
                         _______ _______ _______ _____ _____    ______ ____

>  <TORSDO>
F 7

$$$$
=
 OpenBabel10272401063D

 27 29  0  0  1  0  0  0  0  0999 V2000
  187.9970  177.9220  142.4880 C   0  0  2  0  0  3  0  0  0  0  0  0
  190.8730  177.0100  139.4220 C   0  0  0  0  0  2  0  0  0  0  0  0
  189.1220  178.0490  141.4510 C   0  0  2  0  0  3  0  0  0  0  0  0
  188.6840  177.7040  140.0240 C   0  0  0  0  0  2  0  0  0  0  0  0
  189.7860  177.9280  139.0900 N   0  0  0  0  0  2  0  0  0  0  0  0
  191.4400  177.3510  140.7970 C   0  0  0  0  0  2  0  0  0  0  0  0
  190.3440  177.2210  141.8500 C   0  0  0  0  0  2  0  0  0  0  0  0
  188.2140  176.5950  143.7410 S   0  0  0  0  0  0  0  0  0  0  0  0
  189.3930  177.2760  147.3950 C   0  0  0  0  0  3  0  0  0  0  0  0
  188.0860  177.3790  148.1280 C   0  0  0  0  0  2  0  0  0  0  0  0
  188.2820  177.6860  145.1990 C   0  0  1  0  0  3  0  0  0  0  0  0
  190.7320  177.2420  145.4730 O   0  0  0  0  0  1  0  0  0  0  0  0
  187.0760  178.2010  147.3380 C   0  0  0  0  0  2  0  0  0  0  0  0
  186.9480  177.5990  145.9470 C   0  0  0  0  0  2  0  0  0  0  0  0
  189.4820  177.3640  146.0630 C   0  0  0  0  0  0  0  0  0  0  0  0
  186.6140  177.9110  141.8610 C   0  0  0  0  0  2  0  0  0  0  0  0
  185.9340  179.2450  142.1080 C   0  0  0  0  0  2  0  0  0  0  0  0
  183.0000  179.0710  144.4700 C   0  0  0  0  0  3  0  0  0  0  0  0
  180.6460  178.7110  144.1310 O   0  0  0  0  0  1  0  0  0  0  0  0
  182.1540  178.6600  142.2400 C   0  0  0  0  0  0  0  0  0  0  0  0
  181.0810  178.4030  141.3950 O   0  0  0  0  0  1  0  0  0  0  0  0
  183.4530  178.7530  141.7110 C   0  0  0  0  0  0  0  0  0  0  0  0
  181.9310  178.8150  143.6140 C   0  0  0  0  0  0  0  0  0  0  0  0
  184.5340  179.0410  142.5880 C   0  0  0  0  0  0  0  0  0  0  0  0
  184.2910  179.1870  143.9600 C   0  0  0  0  0  3  0  0  0  0  0  0
  183.6070  179.5870  139.3490 C   0  0  0  0  0  1  0  0  0  0  0  0
  183.5980  178.5550  140.3270 O   0  0  0  0  0  0  0  0  0  0  0  0
  1 16  1  6  0  0  0
  1  8  1  0  0  0  0
  2  6  1  0  0  0  0
  3  7  1  0  0  0  0
  3  1  1  1  0  0  0
  4  3  1  0  0  0  0
  5  2  1  0  0  0  0
  5  4  1  0  0  0  0
  6  7  1  0  0  0  0
  9 10  1  0  0  0  0
 11  8  1  6  0  0  0
 11 14  1  0  0  0  0
 11 15  1  0  0  0  0
 12 15  1  0  0  0  0
 13 10  1  0  0  0  0
 14 13  1  0  0  0  0
 15  9  2  0  0  0  0
 16 17  1  0  0  0  0
 17 24  1  0  0  0  0
 20 23  1  0  0  0  0
 21 20  1  0  0  0  0
 22 20  2  0  0  0  0
 22 24  1  0  0  0  0
 23 19  1  0  0  0  0
 23 18  2  0  0  0  0
 24 25  2  0  0  0  0
 25 18  1  0  0  0  0
 26 27  1  0  0  0  0
 27 22  1  0  0  0  0
M  END
>  <MODEL>
3

>  <REMARK>
 VINA RESULT:      -8.1      3.007      6.493
  Name = 
  7 active torsions:
  status: ('A' for Active; 'I' for Inactive)
    1  A    between atoms: S_1  and  C_15
    2  A    between atoms: S_1  and  C_18
    3  A    between atoms: C_2  and  C_6
    4  A    between atoms: C_2  and  C_15
    5  A    between atoms: C_6  and  C_17
    6  A    between atoms: C_9  and  C_15
    7  A    between atoms: C_14  and  O_19
                            x       y       z     vdW  Elec       q    Type
                         _______ _______ _______ _____ _____    ______ ____

>  <TORSDO>
F 7

$$$$
=
 OpenBabel10272401063D

 27 29  0  0  1  0  0  0  0  0999 V2000
  189.3360  177.5570  141.2820 C   0  0  2  0  0  3  0  0  0  0  0  0
  191.4440  176.7830  144.9500 C   0  0  0  0  0  2  0  0  0  0  0  0
  190.4550  177.3360  142.3090 C   0  0  2  0  0  3  0  0  0  0  0  0
  190.4130  175.9580  142.9780 C   0  0  0  0  0  2  0  0  0  0  0  0
  191.5540  175.7980  143.8770 N   0  0  0  0  0  2  0  0  0  0  0  0
  191.5800  178.1920  144.3800 C   0  0  0  0  0  2  0  0  0  0  0  0
  190.4700  178.4420  143.3640 C   0  0  0  0  0  2  0  0  0  0  0  0
  189.8860  177.9220  139.5670 S   0  0  0  0  0  0  0  0  0  0  0  0
  188.8040  175.7800  136.4940 C   0  0  0  0  0  3  0  0  0  0  0  0
  187.6410  176.5680  135.9620 C   0  0  0  0  0  2  0  0  0  0  0  0
  188.6420  176.8970  138.7190 C   0  0  1  0  0  3  0  0  0  0  0  0
  190.3820  175.1970  138.1240 O   0  0  0  0  0  1  0  0  0  0  0  0
  186.7380  177.0450  137.0910 C   0  0  0  0  0  2  0  0  0  0  0  0
  187.5860  177.8140  138.0930 C   0  0  0  0  0  2  0  0  0  0  0  0
  189.2950  175.9610  137.7250 C   0  0  0  0  0  0  0  0  0  0  0  0
  188.2680  178.5210  141.7700 C   0  0  0  0  0  2  0  0  0  0  0  0
  186.9440  177.7890  141.9000 C   0  0  0  0  0  2  0  0  0  0  0  0
  186.6990  177.6400  145.6590 C   0  0  0  0  0  3  0  0  0  0  0  0
  185.0970  178.5060  147.2310 O   0  0  0  0  0  1  0  0  0  0  0  0
  184.7480  178.8260  144.8570 C   0  0  0  0  0  0  0  0  0  0  0  0
  183.5660  179.5060  145.1270 O   0  0  0  0  0  1  0  0  0  0  0  0
  185.1590  178.6380  143.5260 C   0  0  0  0  0  0  0  0  0  0  0  0
  185.5140  178.3260  145.9170 C   0  0  0  0  0  0  0  0  0  0  0  0
  186.3820  177.9600  143.2730 C   0  0  0  0  0  0  0  0  0  0  0  0
  187.1320  177.4630  144.3470 C   0  0  0  0  0  3  0  0  0  0  0  0
  183.3570  178.3850  141.7990 C   0  0  0  0  0  1  0  0  0  0  0  0
  184.3190  179.1430  142.5180 O   0  0  0  0  0  0  0  0  0  0  0  0
  1 16  1  1  0  0  0
  3  1  1  6  0  0  0
  3  4  1  0  0  0  0
  3  7  1  0  0  0  0
  4  5  1  0  0  0  0
  5  2  1  0  0  0  0
  6  2  1  0  0  0  0
  7  6  1  0  0  0  0
  8  1  1  0  0  0  0
  9 15  2  0  0  0  0
 10  9  1  0  0  0  0
 10 13  1  0  0  0  0
 11  8  1  6  0  0  0
 13 14  1  0  0  0  0
 14 11  1  0  0  0  0
 15 12  1  0  0  0  0
 15 11  1  0  0  0  0
 16 17  1  0  0  0  0
 17 24  1  0  0  0  0
 18 23  1  0  0  0  0
 20 21  1  0  0  0  0
 20 23  2  0  0  0  0
 22 20  1  0  0  0  0
 23 19  1  0  0  0  0
 24 22  2  0  0  0  0
 24 25  1  0  0  0  0
 25 18  2  0  0  0  0
 26 27  1  0  0  0  0
 27 22  1  0  0  0  0
M  END
>  <MODEL>
4

>  <REMARK>
 VINA RESULT:      -7.9      2.236      6.669
  Name = 
  7 active torsions:
  status: ('A' for Active; 'I' for Inactive)
    1  A    between atoms: S_1  and  C_15
    2  A    between atoms: S_1  and  C_18
    3  A    between atoms: C_2  and  C_6
    4  A    between atoms: C_2  and  C_15
    5  A    between atoms: C_6  and  C_17
    6  A    between atoms: C_9  and  C_15
    7  A    between atoms: C_14  and  O_19
                            x       y       z     vdW  Elec       q    Type
                         _______ _______ _______ _____ _____    ______ ____

>  <TORSDO>
F 7

$$$$
=
 OpenBabel10272401063D

 27 29  0  0  1  0  0  0  0  0999 V2000
  187.4660  178.0820  141.4130 C   0  0  2  0  0  3  0  0  0  0  0  0
  190.2190  176.8400  138.3510 C   0  0  0  0  0  2  0  0  0  0  0  0
  188.6040  178.0740  140.3840 C   0  0  2  0  0  3  0  0  0  0  0  0
  188.1340  177.8040  138.9500 C   0  0  0  0  0  2  0  0  0  0  0  0
  189.2610  177.8940  138.0240 N   0  0  0  0  0  2  0  0  0  0  0  0
  190.8170  177.0900  139.7320 C   0  0  0  0  0  2  0  0  0  0  0  0
  189.7060  177.0910  140.7780 C   0  0  0  0  0  2  0  0  0  0  0  0
  186.0040  179.1090  140.9790 S   0  0  0  0  0  0  0  0  0  0  0  0
  182.3620  178.4120  142.1820 C   0  0  0  0  0  3  0  0  0  0  0  0
  182.3280  179.1320  143.5000 C   0  0  0  0  0  2  0  0  0  0  0  0
  184.8560  178.3670  142.1830 C   0  0  1  0  0  3  0  0  0  0  0  0
  183.4350  177.4540  140.3330 O   0  0  0  0  0  1  0  0  0  0  0  0
  183.6030  178.8840  144.2950 C   0  0  0  0  0  2  0  0  0  0  0  0
  184.7930  179.2610  143.4260 C   0  0  0  0  0  2  0  0  0  0  0  0
  183.5040  178.1080  141.5560 C   0  0  0  0  0  0  0  0  0  0  0  0
  187.9530  178.3300  142.8310 C   0  0  0  0  0  2  0  0  0  0  0  0
  187.7810  177.0670  143.6550 C   0  0  0  0  0  2  0  0  0  0  0  0
  187.0430  178.0140  147.2290 C   0  0  0  0  0  3  0  0  0  0  0  0
  188.3750  178.0090  149.2320 O   0  0  0  0  0  1  0  0  0  0  0  0
  189.3700  177.3570  147.1240 C   0  0  0  0  0  0  0  0  0  0  0  0
  190.5830  177.1410  147.7680 O   0  0  0  0  0  1  0  0  0  0  0  0
  189.2670  177.1460  145.7380 C   0  0  0  0  0  0  0  0  0  0  0  0
  188.2630  177.7920  147.8630 C   0  0  0  0  0  0  0  0  0  0  0  0
  188.0110  177.3490  145.1030 C   0  0  0  0  0  0  0  0  0  0  0  0
  186.9170  177.7900  145.8600 C   0  0  0  0  0  3  0  0  0  0  0  0
  191.3550  177.6100  144.4280 C   0  0  0  0  0  1  0  0  0  0  0  0
  190.4300  176.7380  145.0630 O   0  0  0  0  0  0  0  0  0  0  0  0
  1 16  1  1  0  0  0
  2  6  1  0  0  0  0
  3  7  1  0  0  0  0
  3  1  1  1  0  0  0
  4  3  1  0  0  0  0
  5  2  1  0  0  0  0
  5  4  1  0  0  0  0
  6  7  1  0  0  0  0
  8  1  1  0  0  0  0
  9 10  1  0  0  0  0
 10 13  1  0  0  0  0
 11  8  1  6  0  0  0
 11 14  1  0  0  0  0
 12 15  1  0  0  0  0
 14 13  1  0  0  0  0
 15  9  2  0  0  0  0
 15 11  1  0  0  0  0
 16 17  1  0  0  0  0
 17 24  1  0  0  0  0
 18 23  1  0  0  0  0
 20 21  1  0  0  0  0
 20 23  2  0  0  0  0
 22 20  1  0  0  0  0
 23 19  1  0  0  0  0
 24 22  2  0  0  0  0
 24 25  1  0  0  0  0
 25 18  2  0  0  0  0
 26 27  1  0  0  0  0
 27 22  1  0  0  0  0
M  END
>  <MODEL>
5

>  <REMARK>
 VINA RESULT:      -7.9      3.091      6.549
  Name = 
  7 active torsions:
  status: ('A' for Active; 'I' for Inactive)
    1  A    between atoms: S_1  and  C_15
    2  A    between atoms: S_1  and  C_18
    3  A    between atoms: C_2  and  C_6
    4  A    between atoms: C_2  and  C_15
    5  A    between atoms: C_6  and  C_17
    6  A    between atoms: C_9  and  C_15
    7  A    between atoms: C_14  and  O_19
                            x       y       z     vdW  Elec       q    Type
                         _______ _______ _______ _____ _____    ______ ____

>  <TORSDO>
F 7

$$$$
=
 OpenBabel10272401063D

 27 29  0  0  1  0  0  0  0  0999 V2000
  188.5590  177.4590  143.4450 C   0  0  2  0  0  3  0  0  0  0  0  0
  190.5330  176.7390  147.1980 C   0  0  0  0  0  2  0  0  0  0  0  0
  189.3650  177.6550  144.7360 C   0  0  2  0  0  3  0  0  0  0  0  0
  190.6090  176.7640  144.8250 C   0  0  0  0  0  2  0  0  0  0  0  0
  191.3620  177.0690  146.0400 N   0  0  0  0  0  2  0  0  0  0  0  0
  189.3140  177.6550  147.2440 C   0  0  0  0  0  2  0  0  0  0  0  0
  188.4880  177.4710  145.9750 C   0  0  0  0  0  2  0  0  0  0  0  0
  189.0140  178.5600  142.0460 S   0  0  0  0  0  0  0  0  0  0  0  0
  191.4580  177.1240  139.3680 C   0  0  0  0  0  3  0  0  0  0  0  0
  190.5850  177.0750  138.1470 C   0  0  0  0  0  2  0  0  0  0  0  0
  189.4740  177.2400  140.8760 C   0  0  1  0  0  3  0  0  0  0  0  0
  191.8480  177.3010  141.6710 O   0  0  0  0  0  1  0  0  0  0  0  0
  189.1990  176.5390  138.4820 C   0  0  0  0  0  2  0  0  0  0  0  0
  188.6190  177.3780  139.6110 C   0  0  0  0  0  2  0  0  0  0  0  0
  190.9620  177.2500  140.6040 C   0  0  0  0  0  0  0  0  0  0  0  0
  187.0590  177.4110  143.6860 C   0  0  0  0  0  2  0  0  0  0  0  0
  186.3480  178.2260  142.6200 C   0  0  0  0  0  2  0  0  0  0  0  0
  183.2360  178.7860  144.6720 C   0  0  0  0  0  3  0  0  0  0  0  0
  180.9140  179.0250  144.0910 O   0  0  0  0  0  1  0  0  0  0  0  0
  182.5490  178.6020  142.3590 C   0  0  0  0  0  0  0  0  0  0  0  0
  181.5380  178.6220  141.4050 O   0  0  0  0  0  1  0  0  0  0  0  0
  183.8780  178.3690  141.9640 C   0  0  0  0  0  0  0  0  0  0  0  0
  182.2310  178.8060  143.7070 C   0  0  0  0  0  0  0  0  0  0  0  0
  184.9000  178.3770  142.9520 C   0  0  0  0  0  0  0  0  0  0  0  0
  184.5610  178.5770  144.2960 C   0  0  0  0  0  3  0  0  0  0  0  0
  184.4820  179.1400  139.6540 C   0  0  0  0  0  1  0  0  0  0  0  0
  184.1110  178.1440  140.5960 O   0  0  0  0  0  0  0  0  0  0  0  0
  1 16  1  1  0  0  0
  2  6  1  0  0  0  0
  3  1  1  6  0  0  0
  3  4  1  0  0  0  0
  3  7  1  0  0  0  0
  4  5  1  0  0  0  0
  5  2  1  0  0  0  0
  7  6  1  0  0  0  0
  8  1  1  0  0  0  0
  9 15  2  0  0  0  0
 10 13  1  0  0  0  0
 10  9  1  0  0  0  0
 11  8  1  1  0  0  0
 13 14  1  0  0  0  0
 14 11  1  0  0  0  0
 15 11  1  0  0  0  0
 15 12  1  0  0  0  0
 17 24  1  0  0  0  0
 17 16  1  0  0  0  0
 20 23  1  0  0  0  0
 21 20  1  0  0  0  0
 22 20  2  0  0  0  0
 22 24  1  0  0  0  0
 23 19  1  0  0  0  0
 23 18  2  0  0  0  0
 24 25  2  0  0  0  0
 25 18  1  0  0  0  0
 26 27  1  0  0  0  0
 27 22  1  0  0  0  0
M  END
>  <MODEL>
6

>  <REMARK>
 VINA RESULT:      -7.9      2.230      6.417
  Name = 
  7 active torsions:
  status: ('A' for Active; 'I' for Inactive)
    1  A    between atoms: S_1  and  C_15
    2  A    between atoms: S_1  and  C_18
    3  A    between atoms: C_2  and  C_6
    4  A    between atoms: C_2  and  C_15
    5  A    between atoms: C_6  and  C_17
    6  A    between atoms: C_9  and  C_15
    7  A    between atoms: C_14  and  O_19
                            x       y       z     vdW  Elec       q    Type
                         _______ _______ _______ _____ _____    ______ ____

>  <TORSDO>
F 7

$$$$
=
 OpenBabel10272401063D

 27 29  0  0  1  0  0  0  0  0999 V2000
  189.8400  177.7170  142.1200 C   0  0  2  0  0  3  0  0  0  0  0  0
  192.0130  176.9130  138.4970 C   0  0  0  0  0  2  0  0  0  0  0  0
  190.6520  177.0090  141.0260 C   0  0  2  0  0  3  0  0  0  0  0  0
  192.0100  177.6630  140.7490 C   0  0  0  0  0  2  0  0  0  0  0  0
  192.7510  176.8860  139.7580 N   0  0  0  0  0  2  0  0  0  0  0  0
  190.6810  176.1880  138.6570 C   0  0  0  0  0  2  0  0  0  0  0  0
  189.8480  176.8790  139.7330 C   0  0  0  0  0  2  0  0  0  0  0  0
  190.8080  178.3400  143.5530 S   0  0  0  0  0  0  0  0  0  0  0  0
  191.3100  176.5180  146.9630 C   0  0  0  0  0  3  0  0  0  0  0  0
  192.3210  175.4660  146.6060 C   0  0  0  0  0  2  0  0  0  0  0  0
  190.6790  176.8340  144.5710 C   0  0  1  0  0  3  0  0  0  0  0  0
  189.6990  178.1440  146.4670 O   0  0  0  0  0  1  0  0  0  0  0  0
  191.9830  174.8090  145.2740 C   0  0  0  0  0  2  0  0  0  0  0  0
  191.8420  175.8990  144.2220 C   0  0  0  0  0  2  0  0  0  0  0  0
  190.5990  177.1780  146.0420 C   0  0  0  0  0  0  0  0  0  0  0  0
  188.6100  176.9330  142.5440 C   0  0  0  0  0  2  0  0  0  0  0  0
  187.3630  177.7450  142.2440 C   0  0  0  0  0  2  0  0  0  0  0  0
  186.3600  177.5740  145.8740 C   0  0  0  0  0  3  0  0  0  0  0  0
  184.4820  178.4490  147.0960 O   0  0  0  0  0  1  0  0  0  0  0  0
  184.6240  178.7890  144.7040 C   0  0  0  0  0  0  0  0  0  0  0  0
  183.4190  179.4820  144.7350 O   0  0  0  0  0  1  0  0  0  0  0  0
  185.2940  178.6040  143.4820 C   0  0  0  0  0  0  0  0  0  0  0  0
  185.1550  178.2720  145.8930 C   0  0  0  0  0  0  0  0  0  0  0  0
  186.5360  177.9130  143.4760 C   0  0  0  0  0  0  0  0  0  0  0  0
  187.0470  177.4000  144.6750 C   0  0  0  0  0  3  0  0  0  0  0  0
  183.8600  178.3890  141.4350 C   0  0  0  0  0  1  0  0  0  0  0  0
  184.6810  179.1270  142.3300 O   0  0  0  0  0  0  0  0  0  0  0  0
  1 16  1  1  0  0  0
  1  8  1  0  0  0  0
  2  6  1  0  0  0  0
  2  5  1  0  0  0  0
  3  1  1  1  0  0  0
  4  3  1  0  0  0  0
  5  4  1  0  0  0  0
  6  7  1  0  0  0  0
  7  3  1  0  0  0  0
 10  9  1  0  0  0  0
 11  8  1  6  0  0  0
 11 15  1  0  0  0  0
 13 10  1  0  0  0  0
 14 11  1  0  0  0  0
 14 13  1  0  0  0  0
 15 12  1  0  0  0  0
 15  9  2  0  0  0  0
 17 16  1  0  0  0  0
 17 24  1  0  0  0  0
 18 23  1  0  0  0  0
 20 21  1  0  0  0  0
 20 23  2  0  0  0  0
 22 20  1  0  0  0  0
 23 19  1  0  0  0  0
 24 22  2  0  0  0  0
 24 25  1  0  0  0  0
 25 18  2  0  0  0  0
 26 27  1  0  0  0  0
 27 22  1  0  0  0  0
M  END
>  <MODEL>
7

>  <REMARK>
 VINA RESULT:      -7.7      3.085      6.941
  Name = 
  7 active torsions:
  status: ('A' for Active; 'I' for Inactive)
    1  A    between atoms: S_1  and  C_15
    2  A    between atoms: S_1  and  C_18
    3  A    between atoms: C_2  and  C_6
    4  A    between atoms: C_2  and  C_15
    5  A    between atoms: C_6  and  C_17
    6  A    between atoms: C_9  and  C_15
    7  A    between atoms: C_14  and  O_19
                            x       y       z     vdW  Elec       q    Type
                         _______ _______ _______ _____ _____    ______ ____

>  <TORSDO>
F 7

$$$$
=
 OpenBabel10272401063D

 27 29  0  0  1  0  0  0  0  0999 V2000
  187.8820  178.3580  142.2690 C   0  0  2  0  0  3  0  0  0  0  0  0
  190.0380  177.0960  138.7680 C   0  0  0  0  0  2  0  0  0  0  0  0
  188.8870  178.3000  141.1100 C   0  0  2  0  0  3  0  0  0  0  0  0
  188.2290  178.2980  139.7260 C   0  0  0  0  0  2  0  0  0  0  0  0
  189.2520  178.3240  138.6820 N   0  0  0  0  0  2  0  0  0  0  0  0
  190.8120  177.0640  140.0830 C   0  0  0  0  0  2  0  0  0  0  0  0
  189.8340  177.1090  141.2530 C   0  0  0  0  0  2  0  0  0  0  0  0
  187.8480  176.8860  143.3700 S   0  0  0  0  0  0  0  0  0  0  0  0
  189.7030  177.0110  146.7970 C   0  0  0  0  0  3  0  0  0  0  0  0
  188.5580  177.0710  147.7670 C   0  0  0  0  0  2  0  0  0  0  0  0
  188.2500  177.7650  144.9150 C   0  0  1  0  0  3  0  0  0  0  0  0
  190.6730  177.1780  144.6710 O   0  0  0  0  0  1  0  0  0  0  0  0
  187.4830  178.0380  147.2880 C   0  0  0  0  0  2  0  0  0  0  0  0
  187.0670  177.6360  145.8800 C   0  0  0  0  0  2  0  0  0  0  0  0
  189.5590  177.2750  145.4940 C   0  0  0  0  0  0  0  0  0  0  0  0
  186.4940  178.7870  141.8260 C   0  0  0  0  0  2  0  0  0  0  0  0
  185.4500  177.9740  142.5710 C   0  0  0  0  0  2  0  0  0  0  0  0
  182.4630  178.0010  140.2700 C   0  0  0  0  0  3  0  0  0  0  0  0
  180.2250  178.8530  140.5040 O   0  0  0  0  0  1  0  0  0  0  0  0
  181.8220  179.1600  142.2960 C   0  0  0  0  0  0  0  0  0  0  0  0
  180.8550  179.8300  143.0380 O   0  0  0  0  0  1  0  0  0  0  0  0
  183.1140  178.9890  142.8240 C   0  0  0  0  0  0  0  0  0  0  0  0
  181.5010  178.6710  141.0240 C   0  0  0  0  0  0  0  0  0  0  0  0
  184.0810  178.2810  142.0590 C   0  0  0  0  0  0  0  0  0  0  0  0
  183.7420  177.8040  140.7870 C   0  0  0  0  0  3  0  0  0  0  0  0
  183.4850  178.7900  145.2970 C   0  0  0  0  0  1  0  0  0  0  0  0
  183.3650  179.5360  144.0940 O   0  0  0  0  0  0  0  0  0  0  0  0
  1 16  1  6  0  0  0
  1  8  1  0  0  0  0
  2  6  1  0  0  0  0
  3  7  1  0  0  0  0
  3  1  1  1  0  0  0
  4  3  1  0  0  0  0
  5  2  1  0  0  0  0
  5  4  1  0  0  0  0
  6  7  1  0  0  0  0
  9 10  1  0  0  0  0
 11  8  1  6  0  0  0
 11 15  1  0  0  0  0
 11 14  1  0  0  0  0
 12 15  1  0  0  0  0
 13 10  1  0  0  0  0
 14 13  1  0  0  0  0
 15  9  2  0  0  0  0
 16 17  1  0  0  0  0
 18 25  2  0  0  0  0
 18 23  1  0  0  0  0
 19 23  1  0  0  0  0
 20 22  1  0  0  0  0
 20 21  1  0  0  0  0
 22 27  1  0  0  0  0
 23 20  2  0  0  0  0
 24 17  1  0  0  0  0
 24 22  2  0  0  0  0
 25 24  1  0  0  0  0
 27 26  1  0  0  0  0
M  END
>  <MODEL>
8

>  <REMARK>
 VINA RESULT:      -7.7      3.102      6.805
  Name = 
  7 active torsions:
  status: ('A' for Active; 'I' for Inactive)
    1  A    between atoms: S_1  and  C_15
    2  A    between atoms: S_1  and  C_18
    3  A    between atoms: C_2  and  C_6
    4  A    between atoms: C_2  and  C_15
    5  A    between atoms: C_6  and  C_17
    6  A    between atoms: C_9  and  C_15
    7  A    between atoms: C_14  and  O_19
                            x       y       z     vdW  Elec       q    Type
                         _______ _______ _______ _____ _____    ______ ____

>  <TORSDO>
F 7

$$$$
=
 OpenBabel10272401063D

 27 29  0  0  1  0  0  0  0  0999 V2000
  188.8420  177.9110  142.9150 C   0  0  2  0  0  3  0  0  0  0  0  0
  190.2730  177.3690  138.8950 C   0  0  0  0  0  2  0  0  0  0  0  0
  189.1680  177.2940  141.5480 C   0  0  2  0  0  3  0  0  0  0  0  0
  190.6680  177.2560  141.2330 C   0  0  0  0  0  2  0  0  0  0  0  0
  190.8980  176.5830  139.9570 N   0  0  0  0  0  2  0  0  0  0  0  0
  188.7580  177.3750  139.0750 C   0  0  0  0  0  2  0  0  0  0  0  0
  188.4050  177.9940  140.4240 C   0  0  0  0  0  2  0  0  0  0  0  0
  190.2910  178.3930  143.9390 S   0  0  0  0  0  0  0  0  0  0  0  0
  191.1460  176.5030  147.2400 C   0  0  0  0  0  3  0  0  0  0  0  0
  192.2960  175.6370  146.8120 C   0  0  0  0  0  2  0  0  0  0  0  0
  190.4180  176.8360  144.8770 C   0  0  1  0  0  3  0  0  0  0  0  0
  189.2940  177.8850  146.8550 O   0  0  0  0  0  1  0  0  0  0  0  0
  192.0310  175.0030  145.4520 C   0  0  0  0  0  2  0  0  0  0  0  0
  191.7010  176.1100  144.4620 C   0  0  0  0  0  2  0  0  0  0  0  0
  190.3210  177.0900  146.3660 C   0  0  0  0  0  0  0  0  0  0  0  0
  187.8170  177.1070  143.6970 C   0  0  0  0  0  2  0  0  0  0  0  0
  186.9540  178.0480  144.5190 C   0  0  0  0  0  2  0  0  0  0  0  0
  184.3730  178.1810  141.7740 C   0  0  0  0  0  3  0  0  0  0  0  0
  182.0280  178.7190  141.7580 O   0  0  0  0  0  1  0  0  0  0  0  0
  183.2790  178.8550  143.8250 C   0  0  0  0  0  0  0  0  0  0  0  0
  182.1270  179.2590  144.4910 O   0  0  0  0  0  1  0  0  0  0  0  0
  184.4880  178.7310  144.5320 C   0  0  0  0  0  0  0  0  0  0  0  0
  183.2250  178.5850  142.4530 C   0  0  0  0  0  0  0  0  0  0  0  0
  185.6480  178.2940  143.8380 C   0  0  0  0  0  0  0  0  0  0  0  0
  185.5750  178.0330  142.4630 C   0  0  0  0  0  3  0  0  0  0  0  0
  184.8870  178.1890  146.9490 C   0  0  0  0  0  1  0  0  0  0  0  0
  184.4660  179.0510  145.9010 O   0  0  0  0  0  0  0  0  0  0  0  0
  1 16  1  1  0  0  0
  1  8  1  0  0  0  0
  2  6  1  0  0  0  0
  2  5  1  0  0  0  0
  3  1  1  1  0  0  0
  4  3  1  0  0  0  0
  5  4  1  0  0  0  0
  6  7  1  0  0  0  0
  7  3  1  0  0  0  0
 10  9  1  0  0  0  0
 11  8  1  6  0  0  0
 11 15  1  0  0  0  0
 13 10  1  0  0  0  0
 14 11  1  0  0  0  0
 14 13  1  0  0  0  0
 15 12  1  0  0  0  0
 15  9  2  0  0  0  0
 16 17  1  0  0  0  0
 18 23  2  0  0  0  0
 18 25  1  0  0  0  0
 19 23  1  0  0  0  0
 20 21  1  0  0  0  0
 20 22  2  0  0  0  0
 22 27  1  0  0  0  0
 23 20  1  0  0  0  0
 24 17  1  0  0  0  0
 24 22  1  0  0  0  0
 25 24  2  0  0  0  0
 27 26  1  0  0  0  0
M  END
>  <MODEL>
9

>  <REMARK>
 VINA RESULT:      -7.7      3.272      7.050
  Name = 
  7 active torsions:
  status: ('A' for Active; 'I' for Inactive)
    1  A    between atoms: S_1  and  C_15
    2  A    between atoms: S_1  and  C_18
    3  A    between atoms: C_2  and  C_6
    4  A    between atoms: C_2  and  C_15
    5  A    between atoms: C_6  and  C_17
    6  A    between atoms: C_9  and  C_15
    7  A    between atoms: C_14  and  O_19
                            x       y       z     vdW  Elec       q    Type
                         _______ _______ _______ _____ _____    ______ ____

>  <TORSDO>
F 7

$$$$
