=
 OpenBabel10272413563D

 30 32  0  0  1  0  0  0  0  0999 V2000
  187.4680  178.0150  142.3870 N   0  0  0  0  0  0  0  0  0  0  0  0
  186.3590  178.5490  140.3310 C   0  0  0  0  0  0  0  0  0  0  0  0
  184.0130  178.7530  144.6190 C   0  0  0  0  0  3  0  0  0  0  0  0
  187.5130  177.8720  143.7380 C   0  0  0  0  0  0  0  0  0  0  0  0
  184.0340  178.5860  146.0050 C   0  0  0  0  0  3  0  0  0  0  0  0
  188.7340  177.4240  144.3510 N   0  0  0  0  0  0  0  0  0  0  0  0
  185.2000  178.9490  139.6610 C   0  0  0  0  0  3  0  0  0  0  0  0
  187.8140  178.2350  139.3990 Cl  0  0  0  0  0  0  0  0  0  0  0  0
  185.1680  178.5220  143.8540 C   0  0  0  0  0  0  0  0  0  0  0  0
  184.0270  179.2090  140.3720 C   0  0  0  0  0  3  0  0  0  0  0  0
  186.3460  178.4080  141.7290 C   0  0  0  0  0  0  0  0  0  0  0  0
  186.3590  178.1190  144.5040 C   0  0  0  0  0  0  0  0  0  0  0  0
  185.2090  178.1850  146.6430 C   0  0  0  0  0  3  0  0  0  0  0  0
  186.3650  177.9520  145.8970 C   0  0  0  0  0  3  0  0  0  0  0  0
  184.0060  179.0710  141.7610 C   0  0  0  0  0  3  0  0  0  0  0  0
  185.1600  178.6720  142.4540 C   0  0  0  0  0  0  0  0  0  0  0  0
  190.4550  179.0300  143.5980 C   0  0  0  0  0  1  0  0  0  0  0  0
  189.7600  178.3750  144.7810 C   0  0  2  0  0  3  0  0  0  0  0  0
  191.9540  177.6500  145.4190 O   0  0  0  0  0  0  0  0  0  0  0  0
  190.7340  177.7450  145.7300 C   0  0  0  0  0  0  0  0  0  0  0  0
  190.2510  177.2110  146.9650 N   0  0  0  0  0  0  0  0  0  0  0  0
  188.6930  178.4920  148.4590 O   0  0  0  0  0  0  0  0  0  0  0  0
  189.4610  177.8600  147.7230 C   0  0  0  0  0  0  0  0  0  0  0  0
  189.1350  176.0320  144.1980 C   0  0  0  0  0  2  0  0  0  0  0  0
  189.1850  175.6410  142.7290 C   0  0  0  0  0  2  0  0  0  0  0  0
  190.4700  176.0140  142.1640 N   0  0  0  0  0  2  0  0  0  0  0  0
  190.2570  176.2650  140.8030 N   0  0  0  0  0  2  0  0  0  0  0  0
  192.4290  177.5700  140.6630 C   0  0  0  0  0  1  0  0  0  0  0  0
  191.2000  177.0100  140.0340 C   0  0  0  0  0  0  0  0  0  0  0  0
  190.9870  177.2060  138.8090 O   0  0  0  0  0  0  0  0  0  0  0  0
  1  4  1  0  0  0  0
  2 11  1  0  0  0  0
  3  5  2  0  0  0  0
  4  6  1  0  0  0  0
  4 12  2  0  0  0  0
  5 13  1  0  0  0  0
  6 18  1  0  0  0  0
  7  2  2  0  0  0  0
  7 10  1  0  0  0  0
  8  2  1  0  0  0  0
  9 12  1  0  0  0  0
  9  3  1  0  0  0  0
 10 15  2  0  0  0  0
 11  1  2  0  0  0  0
 11 16  1  0  0  0  0
 12 14  1  0  0  0  0
 14 13  2  0  0  0  0
 15 16  1  0  0  0  0
 16  9  2  0  0  0  0
 18 17  1  6  0  0  0
 18 20  1  0  0  0  0
 19 20  2  0  0  0  0
 20 21  1  0  0  0  0
 21 23  2  0  0  0  0
 23 22  2  0  0  0  0
 24  6  1  0  0  0  0
 25 24  1  0  0  0  0
 26 25  1  0  0  0  0
 27 26  1  0  0  0  0
 29 28  1  0  0  0  0
 29 27  1  0  0  0  0
 30 29  2  0  0  0  0
M  END
>  <MODEL>
1

>  <REMARK>
 VINA RESULT:      -7.6      0.000      0.000
  Name = 
  7 active torsions:
  status: ('A' for Active; 'I' for Inactive)
    1  A    between atoms: N_5  and  C_12
    2  A    between atoms: N_7  and  N_16
    3  A    between atoms: C_8  and  C_12
    4  A    between atoms: C_8  and  N_13
    5  A    between atoms: N_13  and  C_27
    6  A    between atoms: N_16  and  C_30
    7  A    between atoms: C_27  and  C_30
                            x       y       z     vdW  Elec       q    Type
                         _______ _______ _______ _____ _____    ______ ____

>  <TORSDO>
F 7

$$$$
=
 OpenBabel10272413563D

 30 32  0  0  1  0  0  0  0  0999 V2000
  187.9660  177.7950  144.4360 N   0  0  0  0  0  0  0  0  0  0  0  0
  186.9410  177.7540  146.6010 C   0  0  0  0  0  0  0  0  0  0  0  0
  184.3860  178.9180  142.5940 C   0  0  0  0  0  3  0  0  0  0  0  0
  187.9440  177.9670  143.0880 C   0  0  0  0  0  0  0  0  0  0  0  0
  184.3520  179.1250  141.2140 C   0  0  0  0  0  3  0  0  0  0  0  0
  189.1640  177.8050  142.3450 N   0  0  0  0  0  0  0  0  0  0  0  0
  185.8030  177.9250  147.3940 C   0  0  0  0  0  3  0  0  0  0  0  0
  188.4490  177.2850  147.3690 Cl  0  0  0  0  0  0  0  0  0  0  0  0
  185.5770  178.5280  143.2290 C   0  0  0  0  0  0  0  0  0  0  0  0
  184.5880  178.2950  146.8160 C   0  0  0  0  0  3  0  0  0  0  0  0
  186.8630  177.9550  145.2120 C   0  0  0  0  0  0  0  0  0  0  0  0
  186.7460  178.3430  142.4520 C   0  0  0  0  0  0  0  0  0  0  0  0
  185.5070  178.9450  140.4510 C   0  0  0  0  0  3  0  0  0  0  0  0
  186.6980  178.5570  141.0670 C   0  0  0  0  0  3  0  0  0  0  0  0
  184.5020  178.4970  145.4370 C   0  0  0  0  0  3  0  0  0  0  0  0
  185.6330  178.3290  144.6210 C   0  0  0  0  0  0  0  0  0  0  0  0
  190.1590  175.6070  142.8790 C   0  0  0  0  0  1  0  0  0  0  0  0
  189.5580  176.5030  141.8070 C   0  0  2  0  0  3  0  0  0  0  0  0
  191.7130  176.6470  140.7690 O   0  0  0  0  0  0  0  0  0  0  0  0
  190.4590  176.6450  140.6190 C   0  0  0  0  0  0  0  0  0  0  0  0
  189.8780  176.8270  139.3260 N   0  0  0  0  0  0  0  0  0  0  0  0
  189.0770  179.0650  138.5190 O   0  0  0  0  0  0  0  0  0  0  0  0
  189.4720  177.9620  138.9170 C   0  0  0  0  0  0  0  0  0  0  0  0
  190.1990  178.8250  142.4510 C   0  0  0  0  0  2  0  0  0  0  0  0
  190.6120  179.0290  143.9000 C   0  0  0  0  0  2  0  0  0  0  0  0
  191.5600  178.0020  144.2910 N   0  0  0  0  0  2  0  0  0  0  0  0
  191.5630  177.9650  145.6910 N   0  0  0  0  0  2  0  0  0  0  0  0
  192.0420  175.4720  145.6630 C   0  0  0  0  0  1  0  0  0  0  0  0
  191.8100  176.7480  146.3960 C   0  0  0  0  0  0  0  0  0  0  0  0
  191.8200  176.7500  147.6540 O   0  0  0  0  0  0  0  0  0  0  0  0
  1 11  1  0  0  0  0
  2  8  1  0  0  0  0
  2  7  1  0  0  0  0
  3  9  1  0  0  0  0
  4  1  2  0  0  0  0
  5  3  2  0  0  0  0
  6 24  1  0  0  0  0
  6  4  1  0  0  0  0
  9 16  1  0  0  0  0
 10  7  2  0  0  0  0
 11  2  2  0  0  0  0
 12  4  1  0  0  0  0
 12  9  2  0  0  0  0
 13 14  2  0  0  0  0
 13  5  1  0  0  0  0
 14 12  1  0  0  0  0
 15 10  1  0  0  0  0
 16 11  1  0  0  0  0
 16 15  2  0  0  0  0
 18  6  1  0  0  0  0
 18 17  1  1  0  0  0
 20 19  2  0  0  0  0
 20 18  1  0  0  0  0
 21 20  1  0  0  0  0
 22 23  2  0  0  0  0
 23 21  2  0  0  0  0
 24 25  1  0  0  0  0
 25 26  1  0  0  0  0
 26 27  1  0  0  0  0
 27 29  1  0  0  0  0
 28 29  1  0  0  0  0
 29 30  2  0  0  0  0
M  END
>  <MODEL>
2

>  <REMARK>
 VINA RESULT:      -7.5      2.115      5.387
  Name = 
  7 active torsions:
  status: ('A' for Active; 'I' for Inactive)
    1  A    between atoms: N_5  and  C_12
    2  A    between atoms: N_7  and  N_16
    3  A    between atoms: C_8  and  C_12
    4  A    between atoms: C_8  and  N_13
    5  A    between atoms: N_13  and  C_27
    6  A    between atoms: N_16  and  C_30
    7  A    between atoms: C_27  and  C_30
                            x       y       z     vdW  Elec       q    Type
                         _______ _______ _______ _____ _____    ______ ____

>  <TORSDO>
F 7

$$$$
=
 OpenBabel10272413563D

 30 32  0  0  1  0  0  0  0  0999 V2000
  186.5970  177.7380  143.0050 N   0  0  0  0  0  0  0  0  0  0  0  0
  184.3300  178.3410  142.5190 C   0  0  0  0  0  0  0  0  0  0  0  0
  186.1030  178.5620  147.0730 C   0  0  0  0  0  3  0  0  0  0  0  0
  187.6540  177.5740  143.8440 C   0  0  0  0  0  0  0  0  0  0  0  0
  187.1700  178.3740  147.9530 C   0  0  0  0  0  3  0  0  0  0  0  0
  188.8930  177.0760  143.3140 N   0  0  0  0  0  0  0  0  0  0  0  0
  183.0850  178.7920  142.9660 C   0  0  0  0  0  3  0  0  0  0  0  0
  184.5440  177.9910  140.8110 Cl  0  0  0  0  0  0  0  0  0  0  0  0
  186.2540  178.3030  145.7000 C   0  0  0  0  0  0  0  0  0  0  0  0
  182.8810  179.0820  144.3160 C   0  0  0  0  0  3  0  0  0  0  0  0
  185.3850  178.1800  143.4320 C   0  0  0  0  0  0  0  0  0  0  0  0
  187.5040  177.8490  145.2160 C   0  0  0  0  0  0  0  0  0  0  0  0
  188.4010  177.9230  147.4730 C   0  0  0  0  0  3  0  0  0  0  0  0
  188.5670  177.6610  146.1120 C   0  0  0  0  0  3  0  0  0  0  0  0
  183.9240  178.9230  145.2300 C   0  0  0  0  0  3  0  0  0  0  0  0
  185.1840  178.4740  144.8020 C   0  0  0  0  0  0  0  0  0  0  0  0
  189.8550  179.3470  143.4600 C   0  0  0  0  0  1  0  0  0  0  0  0
  189.9150  177.9830  142.7920 C   0  0  2  0  0  3  0  0  0  0  0  0
  188.8390  178.5850  140.7350 O   0  0  0  0  0  0  0  0  0  0  0  0
  189.8530  178.0830  141.2980 C   0  0  0  0  0  0  0  0  0  0  0  0
  190.9340  177.5600  140.5230 N   0  0  0  0  0  0  0  0  0  0  0  0
  190.6170  175.7060  138.8610 O   0  0  0  0  0  0  0  0  0  0  0  0
  190.7730  176.6200  139.6800 C   0  0  0  0  0  0  0  0  0  0  0  0
  188.9880  175.6730  142.9320 C   0  0  0  0  0  2  0  0  0  0  0  0
  190.3720  175.1210  143.2350 C   0  0  0  0  0  2  0  0  0  0  0  0
  191.1090  176.0650  144.0560 N   0  0  0  0  0  2  0  0  0  0  0  0
  191.9020  175.3110  144.9290 N   0  0  0  0  0  2  0  0  0  0  0  0
  191.5770  177.0270  146.7710 C   0  0  0  0  0  1  0  0  0  0  0  0
  192.1420  175.7430  146.2680 C   0  0  0  0  0  0  0  0  0  0  0  0
  192.8480  175.0350  147.0320 O   0  0  0  0  0  0  0  0  0  0  0  0
  1 11  2  0  0  0  0
  1  4  1  0  0  0  0
  2  7  2  0  0  0  0
  2 11  1  0  0  0  0
  3  5  2  0  0  0  0
  4 12  2  0  0  0  0
  6  4  1  0  0  0  0
  7 10  1  0  0  0  0
  8  2  1  0  0  0  0
  9  3  1  0  0  0  0
 10 15  2  0  0  0  0
 11 16  1  0  0  0  0
 12  9  1  0  0  0  0
 12 14  1  0  0  0  0
 13  5  1  0  0  0  0
 14 13  2  0  0  0  0
 16 15  1  0  0  0  0
 16  9  2  0  0  0  0
 18  6  1  0  0  0  0
 18 17  1  1  0  0  0
 19 20  2  0  0  0  0
 20 18  1  0  0  0  0
 21 20  1  0  0  0  0
 22 23  2  0  0  0  0
 23 21  2  0  0  0  0
 24 25  1  0  0  0  0
 24  6  1  0  0  0  0
 25 26  1  0  0  0  0
 26 27  1  0  0  0  0
 27 29  1  0  0  0  0
 29 28  1  0  0  0  0
 29 30  2  0  0  0  0
M  END
>  <MODEL>
3

>  <REMARK>
 VINA RESULT:      -7.5      2.027      4.396
  Name = 
  7 active torsions:
  status: ('A' for Active; 'I' for Inactive)
    1  A    between atoms: N_5  and  C_12
    2  A    between atoms: N_7  and  N_16
    3  A    between atoms: C_8  and  C_12
    4  A    between atoms: C_8  and  N_13
    5  A    between atoms: N_13  and  C_27
    6  A    between atoms: N_16  and  C_30
    7  A    between atoms: C_27  and  C_30
                            x       y       z     vdW  Elec       q    Type
                         _______ _______ _______ _____ _____    ______ ____

>  <TORSDO>
F 7

$$$$
=
 OpenBabel10272413563D

 30 32  0  0  1  0  0  0  0  0999 V2000
  185.7080  178.5940  140.0170 N   0  0  0  0  0  0  0  0  0  0  0  0
  188.0610  178.2750  140.3330 C   0  0  0  0  0  0  0  0  0  0  0  0
  184.9930  178.5250  144.1350 C   0  0  0  0  0  3  0  0  0  0  0  0
  184.4320  178.7280  140.4670 C   0  0  0  0  0  0  0  0  0  0  0  0
  183.6920  178.6870  144.6150 C   0  0  0  0  0  3  0  0  0  0  0  0
  183.3760  178.9390  139.5150 N   0  0  0  0  0  0  0  0  0  0  0  0
  189.1440  178.0980  141.1990 C   0  0  0  0  0  3  0  0  0  0  0  0
  188.3550  178.3070  138.6020 Cl  0  0  0  0  0  0  0  0  0  0  0  0
  185.2510  178.5320  142.7540 C   0  0  0  0  0  0  0  0  0  0  0  0
  188.9450  178.0650  142.5800 C   0  0  0  0  0  3  0  0  0  0  0  0
  186.7640  178.4180  140.8540 C   0  0  0  0  0  0  0  0  0  0  0  0
  184.1740  178.7050  141.8500 C   0  0  0  0  0  0  0  0  0  0  0  0
  182.6330  178.8610  143.7220 C   0  0  0  0  0  3  0  0  0  0  0  0
  182.8730  178.8700  142.3470 C   0  0  0  0  0  3  0  0  0  0  0  0
  187.6600  178.2080  143.1050 C   0  0  0  0  0  3  0  0  0  0  0  0
  186.5580  178.3840  142.2530 C   0  0  0  0  0  0  0  0  0  0  0  0
  182.6990  176.5800  139.8020 C   0  0  0  0  0  1  0  0  0  0  0  0
  182.6600  177.8130  138.9140 C   0  0  2  0  0  3  0  0  0  0  0  0
  182.4550  177.8660  136.5260 O   0  0  0  0  0  0  0  0  0  0  0  0
  183.1470  177.5260  137.5270 C   0  0  0  0  0  0  0  0  0  0  0  0
  184.3790  176.8210  137.3570 N   0  0  0  0  0  0  0  0  0  0  0  0
  186.2410  177.7020  135.9230 O   0  0  0  0  0  0  0  0  0  0  0  0
  185.3230  177.2680  136.6300 C   0  0  0  0  0  0  0  0  0  0  0  0
  183.2700  180.2310  138.8490 C   0  0  0  0  0  2  0  0  0  0  0  0
  181.8130  180.6300  138.6730 C   0  0  0  0  0  2  0  0  0  0  0  0
  181.7210  182.0590  138.4310 N   0  0  0  0  0  2  0  0  0  0  0  0
  181.0210  182.2230  137.2300 N   0  0  0  0  0  2  0  0  0  0  0  0
  181.5180  184.7120  137.2340 C   0  0  0  0  0  1  0  0  0  0  0  0
  180.9120  183.5030  136.6080 C   0  0  0  0  0  0  0  0  0  0  0  0
  180.2880  183.6150  135.5210 O   0  0  0  0  0  0  0  0  0  0  0  0
  1  4  2  0  0  0  0
  1 11  1  0  0  0  0
  2 11  2  0  0  0  0
  2  7  1  0  0  0  0
  3  5  1  0  0  0  0
  4 12  1  0  0  0  0
  6  4  1  0  0  0  0
  7 10  2  0  0  0  0
  8  2  1  0  0  0  0
  9  3  2  0  0  0  0
 10 15  1  0  0  0  0
 11 16  1  0  0  0  0
 12 14  2  0  0  0  0
 12  9  1  0  0  0  0
 13  5  2  0  0  0  0
 14 13  1  0  0  0  0
 16  9  1  0  0  0  0
 16 15  2  0  0  0  0
 18  6  1  0  0  0  0
 18 17  1  1  0  0  0
 19 20  2  0  0  0  0
 20 18  1  0  0  0  0
 21 20  1  0  0  0  0
 22 23  2  0  0  0  0
 23 21  2  0  0  0  0
 24  6  1  0  0  0  0
 25 24  1  0  0  0  0
 26 25  1  0  0  0  0
 27 26  1  0  0  0  0
 29 27  1  0  0  0  0
 29 28  1  0  0  0  0
 30 29  2  0  0  0  0
M  END
>  <MODEL>
4

>  <REMARK>
 VINA RESULT:      -7.2      4.687      8.267
  Name = 
  7 active torsions:
  status: ('A' for Active; 'I' for Inactive)
    1  A    between atoms: N_5  and  C_12
    2  A    between atoms: N_7  and  N_16
    3  A    between atoms: C_8  and  C_12
    4  A    between atoms: C_8  and  N_13
    5  A    between atoms: N_13  and  C_27
    6  A    between atoms: N_16  and  C_30
    7  A    between atoms: C_27  and  C_30
                            x       y       z     vdW  Elec       q    Type
                         _______ _______ _______ _____ _____    ______ ____

>  <TORSDO>
F 7

$$$$
=
 OpenBabel10272413563D

 30 32  0  0  1  0  0  0  0  0999 V2000
  188.2740  177.7950  144.9840 N   0  0  0  0  0  0  0  0  0  0  0  0
  186.6300  178.1290  146.6940 C   0  0  0  0  0  0  0  0  0  0  0  0
  185.5120  178.6160  141.9560 C   0  0  0  0  0  3  0  0  0  0  0  0
  188.6800  177.7360  143.6880 C   0  0  0  0  0  0  0  0  0  0  0  0
  185.9180  178.5860  140.6210 C   0  0  0  0  0  3  0  0  0  0  0  0
  190.0570  177.4420  143.4020 N   0  0  0  0  0  0  0  0  0  0  0  0
  185.3150  178.4400  147.0520 C   0  0  0  0  0  3  0  0  0  0  0  0
  187.7960  177.7850  147.9610 Cl  0  0  0  0  0  0  0  0  0  0  0  0
  186.4230  178.3300  142.9870 C   0  0  0  0  0  0  0  0  0  0  0  0
  184.3620  178.7160  146.0690 C   0  0  0  0  0  3  0  0  0  0  0  0
  186.9960  178.0920  145.3380 C   0  0  0  0  0  0  0  0  0  0  0  0
  187.7620  178.0080  142.6570 C   0  0  0  0  0  0  0  0  0  0  0  0
  187.2400  178.2710  140.2990 C   0  0  0  0  0  3  0  0  0  0  0  0
  188.1560  177.9850  141.3110 C   0  0  0  0  0  3  0  0  0  0  0  0
  184.7190  178.6820  144.7200 C   0  0  0  0  0  3  0  0  0  0  0  0
  186.0340  178.3700  144.3390 C   0  0  0  0  0  0  0  0  0  0  0  0
  189.3590  175.0970  143.0580 C   0  0  0  0  0  1  0  0  0  0  0  0
  190.5190  176.0640  143.2290 C   0  0  2  0  0  3  0  0  0  0  0  0
  192.2610  174.7030  144.1560 O   0  0  0  0  0  0  0  0  0  0  0  0
  191.4430  175.6490  144.3330 C   0  0  0  0  0  0  0  0  0  0  0  0
  191.3500  176.3060  145.5990 N   0  0  0  0  0  0  0  0  0  0  0  0
  192.7490  175.6260  147.5680 O   0  0  0  0  0  0  0  0  0  0  0  0
  192.0600  175.9620  146.5980 C   0  0  0  0  0  0  0  0  0  0  0  0
  191.0690  178.4570  143.6650 C   0  0  0  0  0  2  0  0  0  0  0  0
  192.1780  178.3990  142.6260 C   0  0  0  0  0  2  0  0  0  0  0  0
  191.6460  177.9090  141.3670 N   0  0  0  0  0  2  0  0  0  0  0  0
  192.7450  177.5920  140.5590 N   0  0  0  0  0  2  0  0  0  0  0  0
  191.2200  176.5060  138.8440 C   0  0  0  0  0  1  0  0  0  0  0  0
  192.5730  176.9190  139.3120 C   0  0  0  0  0  0  0  0  0  0  0  0
  193.5790  176.6600  138.6020 O   0  0  0  0  0  0  0  0  0  0  0  0
  1 11  1  0  0  0  0
  2  7  1  0  0  0  0
  2  8  1  0  0  0  0
  3  9  1  0  0  0  0
  4  1  2  0  0  0  0
  5  3  2  0  0  0  0
  6 24  1  0  0  0  0
  6  4  1  0  0  0  0
  9 16  1  0  0  0  0
 10  7  2  0  0  0  0
 11  2  2  0  0  0  0
 12  9  2  0  0  0  0
 12  4  1  0  0  0  0
 13  5  1  0  0  0  0
 13 14  2  0  0  0  0
 14 12  1  0  0  0  0
 15 10  1  0  0  0  0
 16 15  2  0  0  0  0
 16 11  1  0  0  0  0
 18 17  1  1  0  0  0
 18  6  1  0  0  0  0
 18 20  1  0  0  0  0
 19 20  2  0  0  0  0
 20 21  1  0  0  0  0
 21 23  2  0  0  0  0
 23 22  2  0  0  0  0
 25 24  1  0  0  0  0
 26 25  1  0  0  0  0
 27 26  1  0  0  0  0
 28 29  1  0  0  0  0
 29 27  1  0  0  0  0
 30 29  2  0  0  0  0
M  END
>  <MODEL>
5

>  <REMARK>
 VINA RESULT:      -6.8      2.407      4.075
  Name = 
  7 active torsions:
  status: ('A' for Active; 'I' for Inactive)
    1  A    between atoms: N_5  and  C_12
    2  A    between atoms: N_7  and  N_16
    3  A    between atoms: C_8  and  C_12
    4  A    between atoms: C_8  and  N_13
    5  A    between atoms: N_13  and  C_27
    6  A    between atoms: N_16  and  C_30
    7  A    between atoms: C_27  and  C_30
                            x       y       z     vdW  Elec       q    Type
                         _______ _______ _______ _____ _____    ______ ____

>  <TORSDO>
F 7

$$$$
=
 OpenBabel10272413563D

 30 32  0  0  1  0  0  0  0  0999 V2000
  184.3370  178.6740  140.7790 N   0  0  0  0  0  0  0  0  0  0  0  0
  186.3380  178.3870  142.0640 C   0  0  0  0  0  0  0  0  0  0  0  0
  181.9480  178.6390  144.2090 C   0  0  0  0  0  3  0  0  0  0  0  0
  182.9890  178.7970  140.6460 C   0  0  0  0  0  0  0  0  0  0  0  0
  180.5650  178.7900  144.0920 C   0  0  0  0  0  3  0  0  0  0  0  0
  182.4340  178.9850  139.3330 N   0  0  0  0  0  0  0  0  0  0  0  0
  186.9540  178.2330  143.3090 C   0  0  0  0  0  3  0  0  0  0  0  0
  187.3360  178.4050  140.6190 Cl  0  0  0  0  0  0  0  0  0  0  0  0
  182.7660  178.6350  143.0660 C   0  0  0  0  0  0  0  0  0  0  0  0
  186.1900  178.2120  144.4770 C   0  0  0  0  0  3  0  0  0  0  0  0
  184.9410  178.5200  141.9860 C   0  0  0  0  0  0  0  0  0  0  0  0
  182.1710  178.7850  141.7900 C   0  0  0  0  0  0  0  0  0  0  0  0
  179.9820  178.9420  142.8320 C   0  0  0  0  0  3  0  0  0  0  0  0
  180.7810  178.9400  141.6880 C   0  0  0  0  0  3  0  0  0  0  0  0
  184.8020  178.3440  144.4080 C   0  0  0  0  0  3  0  0  0  0  0  0
  184.1630  178.4980  143.1670 C   0  0  0  0  0  0  0  0  0  0  0  0
  181.9520  176.5620  139.3130 C   0  0  0  0  0  1  0  0  0  0  0  0
  182.0460  177.8450  138.5030 C   0  0  2  0  0  3  0  0  0  0  0  0
  182.4700  177.7580  136.1450 O   0  0  0  0  0  0  0  0  0  0  0  0
  182.9460  177.6970  137.3130 C   0  0  0  0  0  0  0  0  0  0  0  0
  184.3360  177.4380  137.5240 N   0  0  0  0  0  0  0  0  0  0  0  0
  185.4220  175.2910  136.8110 O   0  0  0  0  0  0  0  0  0  0  0  0
  184.8870  176.3500  137.1620 C   0  0  0  0  0  0  0  0  0  0  0  0
  182.6100  180.2680  138.6650 C   0  0  0  0  0  2  0  0  0  0  0  0
  181.3490  181.1120  138.7720 C   0  0  0  0  0  2  0  0  0  0  0  0
  181.0510  181.7150  137.4850 N   0  0  0  0  0  2  0  0  0  0  0  0
  181.3240  183.0830  137.6050 N   0  0  0  0  0  2  0  0  0  0  0  0
  180.7840  183.4470  135.1520 C   0  0  0  0  0  1  0  0  0  0  0  0
  181.1910  183.9630  136.4890 C   0  0  0  0  0  0  0  0  0  0  0  0
  181.4300  185.1900  136.6330 O   0  0  0  0  0  0  0  0  0  0  0  0
  1 11  1  0  0  0  0
  2  7  1  0  0  0  0
  4  1  2  0  0  0  0
  4 12  1  0  0  0  0
  5  3  1  0  0  0  0
  6  4  1  0  0  0  0
  7 10  2  0  0  0  0
  8  2  1  0  0  0  0
  9 16  1  0  0  0  0
  9  3  2  0  0  0  0
 11  2  2  0  0  0  0
 11 16  1  0  0  0  0
 12  9  1  0  0  0  0
 13  5  2  0  0  0  0
 14 12  2  0  0  0  0
 14 13  1  0  0  0  0
 15 10  1  0  0  0  0
 16 15  2  0  0  0  0
 18 17  1  1  0  0  0
 18  6  1  0  0  0  0
 19 20  2  0  0  0  0
 20 21  1  0  0  0  0
 20 18  1  0  0  0  0
 22 23  2  0  0  0  0
 23 21  2  0  0  0  0
 24 25  1  0  0  0  0
 24  6  1  0  0  0  0
 26 27  1  0  0  0  0
 26 25  1  0  0  0  0
 28 29  1  0  0  0  0
 29 30  2  0  0  0  0
 29 27  1  0  0  0  0
M  END
>  <MODEL>
6

>  <REMARK>
 VINA RESULT:      -6.8      5.003      8.620
  Name = 
  7 active torsions:
  status: ('A' for Active; 'I' for Inactive)
    1  A    between atoms: N_5  and  C_12
    2  A    between atoms: N_7  and  N_16
    3  A    between atoms: C_8  and  C_12
    4  A    between atoms: C_8  and  N_13
    5  A    between atoms: N_13  and  C_27
    6  A    between atoms: N_16  and  C_30
    7  A    between atoms: C_27  and  C_30
                            x       y       z     vdW  Elec       q    Type
                         _______ _______ _______ _____ _____    ______ ____

>  <TORSDO>
F 7

$$$$
=
 OpenBabel10272413563D

 30 32  0  0  1  0  0  0  0  0999 V2000
  187.4680  178.0250  143.9240 N   0  0  0  0  0  0  0  0  0  0  0  0
  186.0790  178.1720  145.8700 C   0  0  0  0  0  0  0  0  0  0  0  0
  184.2760  178.9560  141.3900 C   0  0  0  0  0  3  0  0  0  0  0  0
  187.6840  178.0760  142.5820 C   0  0  0  0  0  0  0  0  0  0  0  0
  184.4860  179.0380  140.0120 C   0  0  0  0  0  3  0  0  0  0  0  0
  189.0130  177.8560  142.0820 N   0  0  0  0  0  0  0  0  0  0  0  0
  184.8220  178.4050  146.4330 C   0  0  0  0  0  3  0  0  0  0  0  0
  187.4250  177.7820  146.9290 Cl  0  0  0  0  0  0  0  0  0  0  0  0
  185.3340  178.6320  142.2560 C   0  0  0  0  0  0  0  0  0  0  0  0
  183.7300  178.7140  145.6200 C   0  0  0  0  0  3  0  0  0  0  0  0
  186.2470  178.2470  144.4770 C   0  0  0  0  0  0  0  0  0  0  0  0
  186.6200  178.3850  141.7160 C   0  0  0  0  0  0  0  0  0  0  0  0
  185.7560  178.7980  139.4830 C   0  0  0  0  0  3  0  0  0  0  0  0
  186.8160  178.4750  140.3300 C   0  0  0  0  0  3  0  0  0  0  0  0
  183.8890  178.7920  144.2350 C   0  0  0  0  0  3  0  0  0  0  0  0
  185.1440  178.5590  143.6490 C   0  0  0  0  0  0  0  0  0  0  0  0
  189.9990  175.7670  142.9600 C   0  0  0  0  0  1  0  0  0  0  0  0
  189.4830  176.5130  141.7400 C   0  0  2  0  0  3  0  0  0  0  0  0
  190.2260  176.0170  139.5150 O   0  0  0  0  0  0  0  0  0  0  0  0
  190.4900  176.5460  140.6310 C   0  0  0  0  0  0  0  0  0  0  0  0
  191.7680  177.1410  140.8720 N   0  0  0  0  0  0  0  0  0  0  0  0
  193.5950  177.1350  139.1520 O   0  0  0  0  0  0  0  0  0  0  0  0
  192.6940  177.1380  140.0000 C   0  0  0  0  0  0  0  0  0  0  0  0
  190.0240  178.8880  142.2760 C   0  0  0  0  0  2  0  0  0  0  0  0
  190.1500  179.2520  143.7470 C   0  0  0  0  0  2  0  0  0  0  0  0
  191.0530  178.3270  144.4070 N   0  0  0  0  0  2  0  0  0  0  0  0
  190.4970  178.0420  145.6600 N   0  0  0  0  0  2  0  0  0  0  0  0
  191.9820  175.9970  145.8970 C   0  0  0  0  0  1  0  0  0  0  0  0
  190.9360  176.9190  146.4230 C   0  0  0  0  0  0  0  0  0  0  0  0
  190.4260  176.6970  147.5520 O   0  0  0  0  0  0  0  0  0  0  0  0
  1 11  1  0  0  0  0
  2  7  1  0  0  0  0
  2  8  1  0  0  0  0
  3  9  1  0  0  0  0
  4  1  2  0  0  0  0
  5  3  2  0  0  0  0
  6 24  1  0  0  0  0
  6  4  1  0  0  0  0
  9 16  1  0  0  0  0
 10  7  2  0  0  0  0
 11  2  2  0  0  0  0
 12  9  2  0  0  0  0
 12  4  1  0  0  0  0
 13  5  1  0  0  0  0
 13 14  2  0  0  0  0
 14 12  1  0  0  0  0
 15 10  1  0  0  0  0
 16 15  2  0  0  0  0
 16 11  1  0  0  0  0
 18  6  1  0  0  0  0
 18 17  1  1  0  0  0
 19 20  2  0  0  0  0
 20 21  1  0  0  0  0
 20 18  1  0  0  0  0
 22 23  2  0  0  0  0
 23 21  2  0  0  0  0
 24 25  1  0  0  0  0
 25 26  1  0  0  0  0
 26 27  1  0  0  0  0
 27 29  1  0  0  0  0
 28 29  1  0  0  0  0
 29 30  2  0  0  0  0
M  END
>  <MODEL>
7

>  <REMARK>
 VINA RESULT:      -6.8      1.878      5.339
  Name = 
  7 active torsions:
  status: ('A' for Active; 'I' for Inactive)
    1  A    between atoms: N_5  and  C_12
    2  A    between atoms: N_7  and  N_16
    3  A    between atoms: C_8  and  C_12
    4  A    between atoms: C_8  and  N_13
    5  A    between atoms: N_13  and  C_27
    6  A    between atoms: N_16  and  C_30
    7  A    between atoms: C_27  and  C_30
                            x       y       z     vdW  Elec       q    Type
                         _______ _______ _______ _____ _____    ______ ____

>  <TORSDO>
F 7

$$$$
=
 OpenBabel10272413563D

 30 32  0  0  1  0  0  0  0  0999 V2000
  188.6130  177.3100  140.2510 N   0  0  0  0  0  0  0  0  0  0  0  0
  188.4330  177.8000  142.5890 C   0  0  0  0  0  0  0  0  0  0  0  0
  192.7880  177.1990  140.4420 C   0  0  0  0  0  3  0  0  0  0  0  0
  189.3190  177.0640  139.1150 C   0  0  0  0  0  0  0  0  0  0  0  0
  193.5270  176.9210  139.2900 C   0  0  0  0  0  3  0  0  0  0  0  0
  188.6060  176.8010  137.8950 N   0  0  0  0  0  0  0  0  0  0  0  0
  189.0540  178.0330  143.8190 C   0  0  0  0  0  3  0  0  0  0  0  0
  186.6790  177.8430  142.5020 Cl  0  0  0  0  0  0  0  0  0  0  0  0
  191.3840  177.2530  140.3940 C   0  0  0  0  0  0  0  0  0  0  0  0
  190.4460  178.0090  143.9220 C   0  0  0  0  0  3  0  0  0  0  0  0
  189.2120  177.5410  141.4480 C   0  0  0  0  0  0  0  0  0  0  0  0
  190.7250  177.0250  139.1620 C   0  0  0  0  0  0  0  0  0  0  0  0
  192.8740  176.6940  138.0780 C   0  0  0  0  0  3  0  0  0  0  0  0
  191.4810  176.7450  138.0140 C   0  0  0  0  0  3  0  0  0  0  0  0
  191.2270  177.7520  142.7940 C   0  0  0  0  0  3  0  0  0  0  0  0
  190.6230  177.5170  141.5480 C   0  0  0  0  0  0  0  0  0  0  0  0
  188.9810  179.1690  137.2960 C   0  0  0  0  0  1  0  0  0  0  0  0
  188.2250  177.8860  136.9900 C   0  0  2  0  0  3  0  0  0  0  0  0
  186.0640  177.7590  135.9610 O   0  0  0  0  0  0  0  0  0  0  0  0
  186.7420  178.0950  136.9730 C   0  0  0  0  0  0  0  0  0  0  0  0
  186.1170  178.7240  138.0950 N   0  0  0  0  0  0  0  0  0  0  0  0
  183.8050  178.1130  138.8570 O   0  0  0  0  0  0  0  0  0  0  0  0
  184.9450  178.4140  138.4810 C   0  0  0  0  0  0  0  0  0  0  0  0
  187.9190  175.5260  137.7360 C   0  0  0  0  0  2  0  0  0  0  0  0
  188.4480  174.7740  136.5250 C   0  0  0  0  0  2  0  0  0  0  0  0
  188.9300  173.4660  136.9310 N   0  0  0  0  0  2  0  0  0  0  0  0
  190.2570  173.6330  137.3460 N   0  0  0  0  0  2  0  0  0  0  0  0
  191.1040  172.7940  135.1050 C   0  0  0  0  0  1  0  0  0  0  0  0
  191.3460  173.3280  136.4750 C   0  0  0  0  0  0  0  0  0  0  0  0
  192.5270  173.5030  136.8730 O   0  0  0  0  0  0  0  0  0  0  0  0
  1 11  1  0  0  0  0
  2  7  1  0  0  0  0
  4 12  1  0  0  0  0
  4  1  2  0  0  0  0
  5  3  2  0  0  0  0
  6  4  1  0  0  0  0
  7 10  2  0  0  0  0
  8  2  1  0  0  0  0
  9  3  1  0  0  0  0
  9 16  1  0  0  0  0
 11 16  1  0  0  0  0
 11  2  2  0  0  0  0
 12  9  2  0  0  0  0
 13  5  1  0  0  0  0
 14 13  2  0  0  0  0
 14 12  1  0  0  0  0
 15 10  1  0  0  0  0
 16 15  2  0  0  0  0
 18 17  1  1  0  0  0
 18  6  1  0  0  0  0
 19 20  2  0  0  0  0
 20 18  1  0  0  0  0
 20 21  1  0  0  0  0
 21 23  2  0  0  0  0
 23 22  2  0  0  0  0
 24  6  1  0  0  0  0
 25 26  1  0  0  0  0
 25 24  1  0  0  0  0
 26 27  1  0  0  0  0
 28 29  1  0  0  0  0
 29 30  2  0  0  0  0
 29 27  1  0  0  0  0
M  END
>  <MODEL>
8

>  <REMARK>
 VINA RESULT:      -6.7      4.107      7.575
  Name = 
  7 active torsions:
  status: ('A' for Active; 'I' for Inactive)
    1  A    between atoms: N_5  and  C_12
    2  A    between atoms: N_7  and  N_16
    3  A    between atoms: C_8  and  C_12
    4  A    between atoms: C_8  and  N_13
    5  A    between atoms: N_13  and  C_27
    6  A    between atoms: N_16  and  C_30
    7  A    between atoms: C_27  and  C_30
                            x       y       z     vdW  Elec       q    Type
                         _______ _______ _______ _____ _____    ______ ____

>  <TORSDO>
F 7

$$$$
=
 OpenBabel10272413563D

 30 32  0  0  1  0  0  0  0  0999 V2000
  186.9450  178.0840  142.1450 N   0  0  0  0  0  0  0  0  0  0  0  0
  185.3460  178.6140  140.4420 C   0  0  0  0  0  0  0  0  0  0  0  0
  184.1130  178.6000  145.1760 C   0  0  0  0  0  3  0  0  0  0  0  0
  187.3250  177.9110  143.4390 C   0  0  0  0  0  0  0  0  0  0  0  0
  184.4790  178.4000  146.5080 C   0  0  0  0  0  3  0  0  0  0  0  0
  188.6750  177.5080  143.7210 N   0  0  0  0  0  0  0  0  0  0  0  0
  184.0430  178.9750  140.0880 C   0  0  0  0  0  3  0  0  0  0  0  0
  186.5400  178.3940  139.1730 Cl  0  0  0  0  0  0  0  0  0  0  0  0
  185.0540  178.4440  144.1450 C   0  0  0  0  0  0  0  0  0  0  0  0
  183.0700  179.1610  141.0720 C   0  0  0  0  0  3  0  0  0  0  0  0
  185.6810  178.4390  141.7950 C   0  0  0  0  0  0  0  0  0  0  0  0
  186.3840  178.0830  144.4710 C   0  0  0  0  0  0  0  0  0  0  0  0
  185.7900  178.0410  146.8270 C   0  0  0  0  0  3  0  0  0  0  0  0
  186.7370  177.8820  145.8140 C   0  0  0  0  0  3  0  0  0  0  0  0
  183.3950  178.9870  142.4180 C   0  0  0  0  0  3  0  0  0  0  0  0
  184.6990  178.6270  142.7950 C   0  0  0  0  0  0  0  0  0  0  0  0
  190.3780  178.9110  142.6080 C   0  0  0  0  0  1  0  0  0  0  0  0
  189.7360  178.4960  143.9220 C   0  0  2  0  0  3  0  0  0  0  0  0
  191.9810  178.1000  144.6620 O   0  0  0  0  0  0  0  0  0  0  0  0
  190.7480  178.0240  144.9210 C   0  0  0  0  0  0  0  0  0  0  0  0
  190.2940  177.4430  146.1460 N   0  0  0  0  0  0  0  0  0  0  0  0
  191.7680  175.9950  147.5690 O   0  0  0  0  0  0  0  0  0  0  0  0
  191.0420  176.7090  146.8680 C   0  0  0  0  0  0  0  0  0  0  0  0
  189.0840  176.1410  143.4250 C   0  0  0  0  0  2  0  0  0  0  0  0
  190.2470  176.1230  142.4460 C   0  0  0  0  0  2  0  0  0  0  0  0
  189.7450  176.1580  141.0840 N   0  0  0  0  0  2  0  0  0  0  0  0
  190.8610  176.2180  140.2410 N   0  0  0  0  0  2  0  0  0  0  0  0
  189.3850  176.8080  138.2630 C   0  0  0  0  0  1  0  0  0  0  0  0
  190.7250  176.5460  138.8590 C   0  0  0  0  0  0  0  0  0  0  0  0
  191.7490  176.6060  138.1310 O   0  0  0  0  0  0  0  0  0  0  0  0
  1  4  1  0  0  0  0
  2 11  1  0  0  0  0
  3  5  2  0  0  0  0
  4  6  1  0  0  0  0
  4 12  2  0  0  0  0
  5 13  1  0  0  0  0
  6 18  1  0  0  0  0
  7  2  2  0  0  0  0
  7 10  1  0  0  0  0
  8  2  1  0  0  0  0
  9 12  1  0  0  0  0
  9  3  1  0  0  0  0
 10 15  2  0  0  0  0
 11  1  2  0  0  0  0
 11 16  1  0  0  0  0
 12 14  1  0  0  0  0
 14 13  2  0  0  0  0
 15 16  1  0  0  0  0
 16  9  2  0  0  0  0
 18 17  1  6  0  0  0
 18 20  1  0  0  0  0
 19 20  2  0  0  0  0
 20 21  1  0  0  0  0
 21 23  2  0  0  0  0
 23 22  2  0  0  0  0
 24  6  1  0  0  0  0
 25 24  1  0  0  0  0
 26 25  1  0  0  0  0
 27 26  1  0  0  0  0
 28 29  1  0  0  0  0
 29 27  1  0  0  0  0
 30 29  2  0  0  0  0
M  END
>  <MODEL>
9

>  <REMARK>
 VINA RESULT:      -6.7      1.243      1.389
  Name = 
  7 active torsions:
  status: ('A' for Active; 'I' for Inactive)
    1  A    between atoms: N_5  and  C_12
    2  A    between atoms: N_7  and  N_16
    3  A    between atoms: C_8  and  C_12
    4  A    between atoms: C_8  and  N_13
    5  A    between atoms: N_13  and  C_27
    6  A    between atoms: N_16  and  C_30
    7  A    between atoms: C_27  and  C_30
                            x       y       z     vdW  Elec       q    Type
                         _______ _______ _______ _____ _____    ______ ____

>  <TORSDO>
F 7

$$$$
