=
 OpenBabel10272400423D

 25 27  0  0  1  0  0  0  0  0999 V2000
  188.7530  176.8650  142.0820 C   0  0  1  0  0  3  0  0  0  0  0  0
  187.4580  177.6290  142.2380 C   0  0  0  0  0  0  0  0  0  0  0  0
  188.9950  177.9680  139.8300 C   0  0  0  0  0  2  0  0  0  0  0  0
  187.5140  178.3210  139.7930 C   0  0  0  0  0  2  0  0  0  0  0  0
  185.7210  179.1020  141.3730 C   0  0  0  0  0  0  0  0  0  0  0  0
  185.1510  179.8300  140.3350 O   0  0  0  0  0  1  0  0  0  0  0  0
  186.8220  177.6330  143.4850 C   0  0  0  0  0  3  0  0  0  0  0  0
  189.1930  176.6860  140.6250 C   0  0  0  0  0  2  0  0  0  0  0  0
  185.1010  179.0970  142.6250 C   0  0  0  0  0  3  0  0  0  0  0  0
  185.6460  178.3600  143.6790 C   0  0  0  0  0  0  0  0  0  0  0  0
  186.9060  178.3760  141.1700 C   0  0  0  0  0  0  0  0  0  0  0  0
  189.8640  177.3990  142.9450 C   0  0  0  0  0  0  0  0  0  0  0  0
  191.7920  178.4210  144.8150 C   0  0  0  0  0  3  0  0  0  0  0  0
  190.8420  176.5210  143.6320 C   0  0  0  0  0  0  0  0  0  0  0  0
  191.7450  177.1000  144.6340 C   0  0  0  0  0  3  0  0  0  0  0  0
  190.9980  179.3810  143.9670 C   0  0  0  0  0  2  0  0  0  0  0  0
  190.8890  175.2870  143.3970 O   0  0  0  0  0  0  0  0  0  0  0  0
  189.9150  178.7180  143.1510 C   0  0  0  0  0  3  0  0  0  0  0  0
  184.9920  178.3770  145.0150 C   0  0  0  0  0  2  0  0  0  0  0  0
  185.7920  177.5380  145.9970 C   0  0  0  0  0  2  0  0  0  0  0  0
  186.4190  178.4180  147.0250 C   0  0  0  0  0  0  0  0  0  0  0  0
  185.8150  179.4580  147.3970 O   0  0  0  0  0  0  0  0  0  0  0  0
  187.7410  178.0970  147.5820 C   0  0  0  0  0  0  0  0  0  0  0  0
  188.7860  177.6450  146.7270 N   0  0  0  0  0  1  0  0  0  0  0  0
  187.9590  178.2220  148.8160 O   0  0  0  0  0  0  0  0  0  0  0  0
  1  2  1  0  0  0  0
  1 12  1  1  0  0  0
  2  7  1  0  0  0  0
  3  8  1  0  0  0  0
  4  3  1  0  0  0  0
  4 11  1  0  0  0  0
  5  9  2  0  0  0  0
  6  5  1  0  0  0  0
  7 10  2  0  0  0  0
  8  1  1  0  0  0  0
  9 10  1  0  0  0  0
 10 19  1  0  0  0  0
 11  5  1  0  0  0  0
 11  2  2  0  0  0  0
 12 18  2  0  0  0  0
 12 14  1  0  0  0  0
 14 15  1  0  0  0  0
 15 13  2  0  0  0  0
 16 13  1  0  0  0  0
 17 14  2  0  0  0  0
 18 16  1  0  0  0  0
 19 20  1  0  0  0  0
 20 21  1  0  0  0  0
 21 22  2  0  0  0  0
 21 23  1  0  0  0  0
 23 25  2  0  0  0  0
 24 23  1  0  0  0  0
M  END
>  <MODEL>
1

>  <REMARK>
 VINA RESULT:      -8.1      0.000      0.000
  Name = 
  5 active torsions:
  status: ('A' for Active; 'I' for Inactive)
    1  A    between atoms: C_1  and  C_5
    2  A    between atoms: C_2  and  C_21
    3  A    between atoms: C_6  and  C_15
    4  A    between atoms: C_6  and  C_23
    5  A    between atoms: C_15  and  C_21
                            x       y       z     vdW  Elec       q    Type
                         _______ _______ _______ _____ _____    ______ ____

>  <TORSDO>
F 5

$$$$
=
 OpenBabel10272400423D

 25 27  0  0  1  0  0  0  0  0999 V2000
  186.1990  177.2900  143.6880 C   0  0  1  0  0  3  0  0  0  0  0  0
  186.6110  177.6640  145.0930 C   0  0  0  0  0  0  0  0  0  0  0  0
  184.8090  179.3900  143.6630 C   0  0  0  0  0  2  0  0  0  0  0  0
  184.8360  179.4810  145.1830 C   0  0  0  0  0  2  0  0  0  0  0  0
  186.4520  179.0820  147.0670 C   0  0  0  0  0  0  0  0  0  0  0  0
  185.8680  180.1320  147.7650 O   0  0  0  0  0  1  0  0  0  0  0  0
  187.6450  176.9470  145.7070 C   0  0  0  0  0  3  0  0  0  0  0  0
  184.8820  177.9300  143.2380 C   0  0  0  0  0  2  0  0  0  0  0  0
  187.4880  178.3590  147.6640 C   0  0  0  0  0  3  0  0  0  0  0  0
  188.0800  177.2890  146.9890 C   0  0  0  0  0  0  0  0  0  0  0  0
  186.0100  178.7470  145.7760 C   0  0  0  0  0  0  0  0  0  0  0  0
  187.2960  177.4870  142.6760 C   0  0  0  0  0  0  0  0  0  0  0  0
  189.5180  178.0430  140.9400 C   0  0  0  0  0  3  0  0  0  0  0  0
  188.4540  176.5690  142.5550 C   0  0  0  0  0  0  0  0  0  0  0  0
  189.5900  176.9560  141.7090 C   0  0  0  0  0  3  0  0  0  0  0  0
  188.2670  178.8770  140.8360 C   0  0  0  0  0  2  0  0  0  0  0  0
  188.4960  175.4830  143.1890 O   0  0  0  0  0  0  0  0  0  0  0  0
  187.2490  178.5810  141.9100 C   0  0  0  0  0  3  0  0  0  0  0  0
  189.1970  176.5360  147.6220 C   0  0  0  0  0  2  0  0  0  0  0  0
  190.4930  177.3190  147.4930 C   0  0  0  0  0  2  0  0  0  0  0  0
  191.4460  176.5850  146.6120 C   0  0  0  0  0  0  0  0  0  0  0  0
  192.2620  175.7750  147.1270 O   0  0  0  0  0  0  0  0  0  0  0  0
  191.4590  176.8190  145.1610 C   0  0  0  0  0  0  0  0  0  0  0  0
  191.1640  178.1110  144.6430 N   0  0  0  0  0  1  0  0  0  0  0  0
  191.7330  175.8800  144.3670 O   0  0  0  0  0  0  0  0  0  0  0  0
  1 12  1  6  0  0  0
  1  2  1  0  0  0  0
  2  7  2  0  0  0  0
  2 11  1  0  0  0  0
  3  4  1  0  0  0  0
  4 11  1  0  0  0  0
  5  9  1  0  0  0  0
  5  6  1  0  0  0  0
  7 10  1  0  0  0  0
  8  3  1  0  0  0  0
  8  1  1  0  0  0  0
 10 19  1  0  0  0  0
 10  9  2  0  0  0  0
 11  5  2  0  0  0  0
 13 15  2  0  0  0  0
 14 12  1  0  0  0  0
 14 17  2  0  0  0  0
 15 14  1  0  0  0  0
 16 13  1  0  0  0  0
 16 18  1  0  0  0  0
 18 12  2  0  0  0  0
 20 19  1  0  0  0  0
 21 22  2  0  0  0  0
 21 20  1  0  0  0  0
 23 21  1  0  0  0  0
 24 23  1  0  0  0  0
 25 23  2  0  0  0  0
M  END
>  <MODEL>
2

>  <REMARK>
 VINA RESULT:      -7.9      1.967      4.775
  Name = 
  5 active torsions:
  status: ('A' for Active; 'I' for Inactive)
    1  A    between atoms: C_1  and  C_5
    2  A    between atoms: C_2  and  C_21
    3  A    between atoms: C_6  and  C_15
    4  A    between atoms: C_6  and  C_23
    5  A    between atoms: C_15  and  C_21
                            x       y       z     vdW  Elec       q    Type
                         _______ _______ _______ _____ _____    ______ ____

>  <TORSDO>
F 5

$$$$
=
 OpenBabel10272400423D

 25 27  0  0  1  0  0  0  0  0999 V2000
  186.9370  177.0470  145.3210 C   0  0  1  0  0  3  0  0  0  0  0  0
  188.2480  177.1280  144.5730 C   0  0  0  0  0  0  0  0  0  0  0  0
  188.0810  178.2520  147.2150 C   0  0  0  0  0  2  0  0  0  0  0  0
  189.4580  177.8920  146.6740 C   0  0  0  0  0  2  0  0  0  0  0  0
  190.6160  177.6860  144.4520 C   0  0  0  0  0  0  0  0  0  0  0  0
  191.7930  178.1260  145.0470 O   0  0  0  0  0  1  0  0  0  0  0  0
  188.2750  176.7770  143.2180 C   0  0  0  0  0  3  0  0  0  0  0  0
  187.0850  177.1630  146.8420 C   0  0  0  0  0  2  0  0  0  0  0  0
  190.6240  177.3360  143.1000 C   0  0  0  0  0  3  0  0  0  0  0  0
  189.4580  176.8760  142.4830 C   0  0  0  0  0  0  0  0  0  0  0  0
  189.4300  177.5930  145.1980 C   0  0  0  0  0  0  0  0  0  0  0  0
  185.8900  177.9850  144.7840 C   0  0  0  0  0  0  0  0  0  0  0  0
  183.7440  179.5360  143.6660 C   0  0  0  0  0  3  0  0  0  0  0  0
  184.7740  178.5050  145.6110 C   0  0  0  0  0  0  0  0  0  0  0  0
  183.6720  179.2220  144.9600 C   0  0  0  0  0  3  0  0  0  0  0  0
  184.9670  179.2500  142.8330 C   0  0  0  0  0  2  0  0  0  0  0  0
  184.7390  178.3140  146.8540 O   0  0  0  0  0  0  0  0  0  0  0  0
  185.9370  178.2950  143.4850 C   0  0  0  0  0  3  0  0  0  0  0  0
  189.4690  176.5240  141.0370 C   0  0  0  0  0  2  0  0  0  0  0  0
  190.0570  177.6670  140.2270 C   0  0  0  0  0  2  0  0  0  0  0  0
  188.9930  178.3030  139.3970 C   0  0  0  0  0  0  0  0  0  0  0  0
  187.9050  178.6330  139.9390 O   0  0  0  0  0  0  0  0  0  0  0  0
  189.1930  178.5190  137.9570 C   0  0  0  0  0  0  0  0  0  0  0  0
  189.8470  177.5290  137.1710 N   0  0  0  0  0  1  0  0  0  0  0  0
  188.7860  179.5780  137.4100 O   0  0  0  0  0  0  0  0  0  0  0  0
  1 12  1  6  0  0  0
  1  8  1  0  0  0  0
  2 11  1  0  0  0  0
  2  1  1  0  0  0  0
  4  3  1  0  0  0  0
  5  6  1  0  0  0  0
  5 11  2  0  0  0  0
  7  2  2  0  0  0  0
  8  3  1  0  0  0  0
  9  5  1  0  0  0  0
 10  9  2  0  0  0  0
 10  7  1  0  0  0  0
 11  4  1  0  0  0  0
 12 14  1  0  0  0  0
 13 15  2  0  0  0  0
 14 17  2  0  0  0  0
 15 14  1  0  0  0  0
 16 18  1  0  0  0  0
 16 13  1  0  0  0  0
 18 12  2  0  0  0  0
 19 10  1  0  0  0  0
 20 19  1  0  0  0  0
 21 22  2  0  0  0  0
 21 20  1  0  0  0  0
 23 21  1  0  0  0  0
 24 23  1  0  0  0  0
 25 23  2  0  0  0  0
M  END
>  <MODEL>
3

>  <REMARK>
 VINA RESULT:      -7.7      2.623      6.938
  Name = 
  5 active torsions:
  status: ('A' for Active; 'I' for Inactive)
    1  A    between atoms: C_1  and  C_5
    2  A    between atoms: C_2  and  C_21
    3  A    between atoms: C_6  and  C_15
    4  A    between atoms: C_6  and  C_23
    5  A    between atoms: C_15  and  C_21
                            x       y       z     vdW  Elec       q    Type
                         _______ _______ _______ _____ _____    ______ ____

>  <TORSDO>
F 5

$$$$
=
 OpenBabel10272400423D

 25 27  0  0  1  0  0  0  0  0999 V2000
  189.6810  176.2260  143.7810 C   0  0  1  0  0  3  0  0  0  0  0  0
  188.7370  177.0250  142.9130 C   0  0  0  0  0  0  0  0  0  0  0  0
  191.5580  177.1350  142.3700 C   0  0  0  0  0  2  0  0  0  0  0  0
  190.5970  177.5130  141.2510 C   0  0  0  0  0  2  0  0  0  0  0  0
  188.2800  178.4550  140.9950 C   0  0  0  0  0  0  0  0  0  0  0  0
  188.6940  179.1070  139.8390 O   0  0  0  0  0  1  0  0  0  0  0  0
  187.3970  177.1440  143.3030 C   0  0  0  0  0  3  0  0  0  0  0  0
  191.0250  175.9190  143.1120 C   0  0  0  0  0  2  0  0  0  0  0  0
  186.9480  178.5660  141.4000 C   0  0  0  0  0  3  0  0  0  0  0  0
  186.5040  177.9070  142.5490 C   0  0  0  0  0  0  0  0  0  0  0  0
  189.1870  177.6920  141.7490 C   0  0  0  0  0  0  0  0  0  0  0  0
  189.8570  176.8070  145.1580 C   0  0  0  0  0  0  0  0  0  0  0  0
  190.0210  177.6970  147.8860 C   0  0  0  0  0  3  0  0  0  0  0  0
  191.0110  176.4780  146.0290 C   0  0  0  0  0  0  0  0  0  0  0  0
  190.9910  176.8990  147.4350 C   0  0  0  0  0  3  0  0  0  0  0  0
  188.9570  178.2640  146.9810 C   0  0  0  0  0  2  0  0  0  0  0  0
  191.9890  175.8180  145.5950 O   0  0  0  0  0  0  0  0  0  0  0  0
  188.8850  177.5930  145.6320 C   0  0  0  0  0  3  0  0  0  0  0  0
  185.0890  178.0460  142.9870 C   0  0  0  0  0  2  0  0  0  0  0  0
  184.9120  179.3300  143.7800 C   0  0  0  0  0  2  0  0  0  0  0  0
  184.3660  179.0210  145.1330 C   0  0  0  0  0  0  0  0  0  0  0  0
  183.1280  179.1300  145.3370 O   0  0  0  0  0  0  0  0  0  0  0  0
  185.2590  178.6210  146.2300 C   0  0  0  0  0  0  0  0  0  0  0  0
  185.6690  179.5770  147.2020 N   0  0  0  0  0  1  0  0  0  0  0  0
  185.6660  177.4320  146.3190 O   0  0  0  0  0  0  0  0  0  0  0  0
  1 12  1  1  0  0  0
  2  7  1  0  0  0  0
  2  1  1  0  0  0  0
  3  8  1  0  0  0  0
  4 11  1  0  0  0  0
  4  3  1  0  0  0  0
  5  9  2  0  0  0  0
  5 11  1  0  0  0  0
  6  5  1  0  0  0  0
  8  1  1  0  0  0  0
  9 10  1  0  0  0  0
 10 19  1  0  0  0  0
 10  7  2  0  0  0  0
 11  2  2  0  0  0  0
 12 18  2  0  0  0  0
 12 14  1  0  0  0  0
 14 15  1  0  0  0  0
 15 13  2  0  0  0  0
 16 13  1  0  0  0  0
 17 14  2  0  0  0  0
 18 16  1  0  0  0  0
 19 20  1  0  0  0  0
 20 21  1  0  0  0  0
 21 22  2  0  0  0  0
 21 23  1  0  0  0  0
 23 25  2  0  0  0  0
 23 24  1  0  0  0  0
M  END
>  <MODEL>
4

>  <REMARK>
 VINA RESULT:      -7.6      1.952      2.870
  Name = 
  5 active torsions:
  status: ('A' for Active; 'I' for Inactive)
    1  A    between atoms: C_1  and  C_5
    2  A    between atoms: C_2  and  C_21
    3  A    between atoms: C_6  and  C_15
    4  A    between atoms: C_6  and  C_23
    5  A    between atoms: C_15  and  C_21
                            x       y       z     vdW  Elec       q    Type
                         _______ _______ _______ _____ _____    ______ ____

>  <TORSDO>
F 5

$$$$
=
 OpenBabel10272400423D

 25 27  0  0  1  0  0  0  0  0999 V2000
  188.8640  176.5910  144.4180 C   0  0  1  0  0  3  0  0  0  0  0  0
  188.1020  177.2750  143.3070 C   0  0  0  0  0  0  0  0  0  0  0  0
  190.9640  177.5370  143.3990 C   0  0  0  0  0  2  0  0  0  0  0  0
  190.2630  177.7840  142.0690 C   0  0  0  0  0  2  0  0  0  0  0  0
  188.0210  178.5560  141.2360 C   0  0  0  0  0  0  0  0  0  0  0  0
  188.6530  179.1640  140.1570 O   0  0  0  0  0  1  0  0  0  0  0  0
  186.7050  177.3290  143.3790 C   0  0  0  0  0  3  0  0  0  0  0  0
  190.3390  176.3340  144.0890 C   0  0  0  0  0  2  0  0  0  0  0  0
  186.6270  178.6030  141.3260 C   0  0  0  0  0  3  0  0  0  0  0  0
  185.9680  177.9860  142.3910 C   0  0  0  0  0  0  0  0  0  0  0  0
  188.7700  177.9000  142.2270 C   0  0  0  0  0  0  0  0  0  0  0  0
  188.6940  177.2630  145.7540 C   0  0  0  0  0  0  0  0  0  0  0  0
  188.2240  178.3030  148.3920 C   0  0  0  0  0  3  0  0  0  0  0  0
  189.7180  177.1990  146.8240 C   0  0  0  0  0  0  0  0  0  0  0  0
  189.3810  177.6790  148.1700 C   0  0  0  0  0  3  0  0  0  0  0  0
  187.2500  178.6160  147.2850 C   0  0  0  0  0  2  0  0  0  0  0  0
  190.8580  176.7120  146.6080 O   0  0  0  0  0  0  0  0  0  0  0  0
  187.5320  177.8770  146.0000 C   0  0  0  0  0  3  0  0  0  0  0  0
  184.4850  178.0580  142.4920 C   0  0  0  0  0  2  0  0  0  0  0  0
  184.0670  179.3920  143.0860 C   0  0  0  0  0  2  0  0  0  0  0  0
  183.0030  179.1820  144.1100 C   0  0  0  0  0  0  0  0  0  0  0  0
  183.3310  179.0340  145.3170 O   0  0  0  0  0  0  0  0  0  0  0  0
  181.5880  179.1180  143.7190 C   0  0  0  0  0  0  0  0  0  0  0  0
  181.1090  179.9070  142.6360 N   0  0  0  0  0  1  0  0  0  0  0  0
  180.7900  178.3640  144.3380 O   0  0  0  0  0  0  0  0  0  0  0  0
  1 12  1  1  0  0  0
  2  7  1  0  0  0  0
  2  1  1  0  0  0  0
  3  8  1  0  0  0  0
  4 11  1  0  0  0  0
  4  3  1  0  0  0  0
  5  9  2  0  0  0  0
  5 11  1  0  0  0  0
  6  5  1  0  0  0  0
  8  1  1  0  0  0  0
  9 10  1  0  0  0  0
 10 19  1  0  0  0  0
 10  7  2  0  0  0  0
 11  2  2  0  0  0  0
 12 18  2  0  0  0  0
 12 14  1  0  0  0  0
 14 15  1  0  0  0  0
 15 13  2  0  0  0  0
 16 13  1  0  0  0  0
 17 14  2  0  0  0  0
 18 16  1  0  0  0  0
 19 20  1  0  0  0  0
 20 21  1  0  0  0  0
 21 22  2  0  0  0  0
 23 21  1  0  0  0  0
 23 25  2  0  0  0  0
 24 23  1  0  0  0  0
M  END
>  <MODEL>
5

>  <REMARK>
 VINA RESULT:      -7.1      2.860      4.274
  Name = 
  5 active torsions:
  status: ('A' for Active; 'I' for Inactive)
    1  A    between atoms: C_1  and  C_5
    2  A    between atoms: C_2  and  C_21
    3  A    between atoms: C_6  and  C_15
    4  A    between atoms: C_6  and  C_23
    5  A    between atoms: C_15  and  C_21
                            x       y       z     vdW  Elec       q    Type
                         _______ _______ _______ _____ _____    ______ ____

>  <TORSDO>
F 5

$$$$
=
 OpenBabel10272400423D

 25 27  0  0  1  0  0  0  0  0999 V2000
  188.4780  176.6220  144.3970 C   0  0  1  0  0  3  0  0  0  0  0  0
  187.7960  177.3540  143.2640 C   0  0  0  0  0  0  0  0  0  0  0  0
  190.6680  177.3880  143.4170 C   0  0  0  0  0  2  0  0  0  0  0  0
  190.0170  177.6780  142.0710 C   0  0  0  0  0  2  0  0  0  0  0  0
  187.8620  178.6180  141.1820 C   0  0  0  0  0  0  0  0  0  0  0  0
  188.5630  179.1630  140.1130 O   0  0  0  0  0  1  0  0  0  0  0  0
  186.4070  177.5190  143.3050 C   0  0  0  0  0  3  0  0  0  0  0  0
  189.9340  176.2450  144.1030 C   0  0  0  0  0  2  0  0  0  0  0  0
  186.4750  178.7760  141.2410 C   0  0  0  0  0  3  0  0  0  0  0  0
  185.7460  178.2230  142.2970 C   0  0  0  0  0  0  0  0  0  0  0  0
  188.5350  177.9130  142.1940 C   0  0  0  0  0  0  0  0  0  0  0  0
  188.3330  177.3180  145.7240 C   0  0  0  0  0  0  0  0  0  0  0  0
  187.8980  178.4130  148.3450 C   0  0  0  0  0  3  0  0  0  0  0  0
  189.3420  177.2070  146.8050 C   0  0  0  0  0  0  0  0  0  0  0  0
  189.0190  177.7210  148.1420 C   0  0  0  0  0  3  0  0  0  0  0  0
  186.9550  178.7690  147.2240 C   0  0  0  0  0  2  0  0  0  0  0  0
  190.4540  176.6530  146.6070 O   0  0  0  0  0  0  0  0  0  0  0  0
  187.2070  178.0000  145.9510 C   0  0  0  0  0  3  0  0  0  0  0  0
  184.2720  178.4130  142.3640 C   0  0  0  0  0  2  0  0  0  0  0  0
  183.6080  177.7810  141.1520 C   0  0  0  0  0  2  0  0  0  0  0  0
  182.6840  178.7590  140.5100 C   0  0  0  0  0  0  0  0  0  0  0  0
  181.5930  179.0380  141.0750 O   0  0  0  0  0  0  0  0  0  0  0  0
  183.0200  179.3740  139.2180 C   0  0  0  0  0  0  0  0  0  0  0  0
  184.1070  180.2890  139.1240 N   0  0  0  0  0  1  0  0  0  0  0  0
  182.3520  179.0960  138.1870 O   0  0  0  0  0  0  0  0  0  0  0  0
  1 12  1  1  0  0  0
  2  7  1  0  0  0  0
  2  1  1  0  0  0  0
  3  8  1  0  0  0  0
  4 11  1  0  0  0  0
  4  3  1  0  0  0  0
  5  9  2  0  0  0  0
  5 11  1  0  0  0  0
  6  5  1  0  0  0  0
  8  1  1  0  0  0  0
  9 10  1  0  0  0  0
 10 19  1  0  0  0  0
 10  7  2  0  0  0  0
 11  2  2  0  0  0  0
 12 18  2  0  0  0  0
 12 14  1  0  0  0  0
 14 15  1  0  0  0  0
 15 13  2  0  0  0  0
 16 13  1  0  0  0  0
 17 14  2  0  0  0  0
 18 16  1  0  0  0  0
 20 19  1  0  0  0  0
 21 22  2  0  0  0  0
 21 20  1  0  0  0  0
 23 21  1  0  0  0  0
 24 23  1  0  0  0  0
 25 23  2  0  0  0  0
M  END
>  <MODEL>
6

>  <REMARK>
 VINA RESULT:      -7.0      2.792      5.202
  Name = 
  5 active torsions:
  status: ('A' for Active; 'I' for Inactive)
    1  A    between atoms: C_1  and  C_5
    2  A    between atoms: C_2  and  C_21
    3  A    between atoms: C_6  and  C_15
    4  A    between atoms: C_6  and  C_23
    5  A    between atoms: C_15  and  C_21
                            x       y       z     vdW  Elec       q    Type
                         _______ _______ _______ _____ _____    ______ ____

>  <TORSDO>
F 5

$$$$
=
 OpenBabel10272400423D

 25 27  0  0  1  0  0  0  0  0999 V2000
  188.0380  178.5880  139.2060 C   0  0  1  0  0  3  0  0  0  0  0  0
  188.2430  178.0450  140.6010 C   0  0  0  0  0  0  0  0  0  0  0  0
  190.0280  177.2120  138.5050 C   0  0  0  0  0  2  0  0  0  0  0  0
  190.5010  177.0780  139.9460 C   0  0  0  0  0  2  0  0  0  0  0  0
  189.5100  176.7550  142.2340 C   0  0  0  0  0  0  0  0  0  0  0  0
  190.6240  176.0040  142.5890 O   0  0  0  0  0  1  0  0  0  0  0  0
  187.2580  178.2770  141.5680 C   0  0  0  0  0  3  0  0  0  0  0  0
  189.2940  178.5340  138.3300 C   0  0  0  0  0  2  0  0  0  0  0  0
  188.5150  176.9930  143.1860 C   0  0  0  0  0  3  0  0  0  0  0  0
  187.3930  177.7580  142.8570 C   0  0  0  0  0  0  0  0  0  0  0  0
  189.3800  177.2710  140.9340 C   0  0  0  0  0  0  0  0  0  0  0  0
  186.8400  177.9990  138.5100 C   0  0  0  0  0  0  0  0  0  0  0  0
  184.5450  176.6740  137.3990 C   0  0  0  0  0  3  0  0  0  0  0  0
  185.4590  178.4890  138.7330 C   0  0  0  0  0  0  0  0  0  0  0  0
  184.3300  177.7170  138.2010 C   0  0  0  0  0  3  0  0  0  0  0  0
  185.9260  176.2810  136.9390 C   0  0  0  0  0  2  0  0  0  0  0  0
  185.2360  179.5350  139.3960 O   0  0  0  0  0  0  0  0  0  0  0  0
  187.0370  176.9410  137.7180 C   0  0  0  0  0  3  0  0  0  0  0  0
  186.3280  177.9900  143.8700 C   0  0  0  0  0  2  0  0  0  0  0  0
  186.5870  177.1420  145.1030 C   0  0  0  0  0  2  0  0  0  0  0  0
  186.8190  178.0210  146.2860 C   0  0  0  0  0  0  0  0  0  0  0  0
  187.9590  178.0460  146.8200 O   0  0  0  0  0  0  0  0  0  0  0  0
  185.7260  178.8300  146.8450 C   0  0  0  0  0  0  0  0  0  0  0  0
  184.3750  178.4130  146.6860 N   0  0  0  0  0  1  0  0  0  0  0  0
  185.9780  179.8950  147.4680 O   0  0  0  0  0  0  0  0  0  0  0  0
  1 12  1  6  0  0  0
  1  2  1  0  0  0  0
  2 11  2  0  0  0  0
  2  7  1  0  0  0  0
  3  4  1  0  0  0  0
  4 11  1  0  0  0  0
  5  6  1  0  0  0  0
  5  9  2  0  0  0  0
  7 10  2  0  0  0  0
  8  3  1  0  0  0  0
  8  1  1  0  0  0  0
 10  9  1  0  0  0  0
 10 19  1  0  0  0  0
 11  5  1  0  0  0  0
 12 14  1  0  0  0  0
 13 15  2  0  0  0  0
 14 17  2  0  0  0  0
 15 14  1  0  0  0  0
 16 13  1  0  0  0  0
 16 18  1  0  0  0  0
 18 12  2  0  0  0  0
 19 20  1  0  0  0  0
 20 21  1  0  0  0  0
 21 22  2  0  0  0  0
 21 23  1  0  0  0  0
 23 25  2  0  0  0  0
 24 23  1  0  0  0  0
M  END
>  <MODEL>
7

>  <REMARK>
 VINA RESULT:      -7.0      2.026      5.183
  Name = 
  5 active torsions:
  status: ('A' for Active; 'I' for Inactive)
    1  A    between atoms: C_1  and  C_5
    2  A    between atoms: C_2  and  C_21
    3  A    between atoms: C_6  and  C_15
    4  A    between atoms: C_6  and  C_23
    5  A    between atoms: C_15  and  C_21
                            x       y       z     vdW  Elec       q    Type
                         _______ _______ _______ _____ _____    ______ ____

>  <TORSDO>
F 5

$$$$
=
 OpenBabel10272400423D

 25 27  0  0  1  0  0  0  0  0999 V2000
  184.8730  179.4520  143.4510 C   0  0  1  0  0  3  0  0  0  0  0  0
  184.5680  178.9990  142.0430 C   0  0  0  0  0  0  0  0  0  0  0  0
  182.5660  178.6610  144.0800 C   0  0  0  0  0  2  0  0  0  0  0  0
  182.1150  178.6730  142.6260 C   0  0  0  0  0  2  0  0  0  0  0  0
  183.0450  178.1160  140.3580 C   0  0  0  0  0  0  0  0  0  0  0  0
  181.7800  177.6990  139.9630 O   0  0  0  0  0  1  0  0  0  0  0  0
  185.6050  178.9640  141.1040 C   0  0  0  0  0  3  0  0  0  0  0  0
  183.6250  179.7320  144.2950 C   0  0  0  0  0  2  0  0  0  0  0  0
  184.0930  178.0840  139.4350 C   0  0  0  0  0  3  0  0  0  0  0  0
  185.3710  178.5130  139.8030 C   0  0  0  0  0  0  0  0  0  0  0  0
  183.2730  178.5650  141.6690 C   0  0  0  0  0  0  0  0  0  0  0  0
  185.8460  178.5540  144.1660 C   0  0  0  0  0  0  0  0  0  0  0  0
  187.9150  177.0340  145.4590 C   0  0  0  0  0  3  0  0  0  0  0  0
  186.0860  178.6270  145.6270 C   0  0  0  0  0  0  0  0  0  0  0  0
  187.2100  177.8830  146.2080 C   0  0  0  0  0  3  0  0  0  0  0  0
  187.5580  176.7350  144.0250 C   0  0  0  0  0  2  0  0  0  0  0  0
  185.3640  179.3380  146.3720 O   0  0  0  0  0  0  0  0  0  0  0  0
  186.5740  177.7100  143.4270 C   0  0  0  0  0  3  0  0  0  0  0  0
  186.4870  178.4570  138.8210 C   0  0  0  0  0  2  0  0  0  0  0  0
  187.7960  178.1700  139.5360 C   0  0  0  0  0  2  0  0  0  0  0  0
  188.9450  178.4590  138.6300 C   0  0  0  0  0  0  0  0  0  0  0  0
  188.9090  179.4820  137.8970 O   0  0  0  0  0  0  0  0  0  0  0  0
  190.0980  177.5490  138.5660 C   0  0  0  0  0  0  0  0  0  0  0  0
  190.8100  177.2140  139.7510 N   0  0  0  0  0  1  0  0  0  0  0  0
  190.4620  177.0590  137.4640 O   0  0  0  0  0  0  0  0  0  0  0  0
  1 12  1  1  0  0  0
  1  8  1  0  0  0  0
  2  1  1  0  0  0  0
  3  8  1  0  0  0  0
  4  3  1  0  0  0  0
  5 11  2  0  0  0  0
  6  5  1  0  0  0  0
  7  2  2  0  0  0  0
  9 10  2  0  0  0  0
  9  5  1  0  0  0  0
 10  7  1  0  0  0  0
 11  2  1  0  0  0  0
 11  4  1  0  0  0  0
 12 14  1  0  0  0  0
 13 15  2  0  0  0  0
 14 15  1  0  0  0  0
 14 17  2  0  0  0  0
 16 13  1  0  0  0  0
 18 16  1  0  0  0  0
 18 12  2  0  0  0  0
 19 20  1  0  0  0  0
 19 10  1  0  0  0  0
 21 20  1  0  0  0  0
 22 21  2  0  0  0  0
 23 21  1  0  0  0  0
 23 24  1  0  0  0  0
 25 23  2  0  0  0  0
M  END
>  <MODEL>
8

>  <REMARK>
 VINA RESULT:      -6.9      3.002      6.254
  Name = 
  5 active torsions:
  status: ('A' for Active; 'I' for Inactive)
    1  A    between atoms: C_1  and  C_5
    2  A    between atoms: C_2  and  C_21
    3  A    between atoms: C_6  and  C_15
    4  A    between atoms: C_6  and  C_23
    5  A    between atoms: C_15  and  C_21
                            x       y       z     vdW  Elec       q    Type
                         _______ _______ _______ _____ _____    ______ ____

>  <TORSDO>
F 5

$$$$
=
 OpenBabel10272400423D

 25 27  0  0  1  0  0  0  0  0999 V2000
  188.0350  178.5740  139.5720 C   0  0  1  0  0  3  0  0  0  0  0  0
  188.1260  177.9500  140.9460 C   0  0  0  0  0  0  0  0  0  0  0  0
  190.0550  177.2070  138.9470 C   0  0  0  0  0  2  0  0  0  0  0  0
  190.4160  176.9840  140.4100 C   0  0  0  0  0  2  0  0  0  0  0  0
  189.2480  176.5500  142.5930 C   0  0  0  0  0  0  0  0  0  0  0  0
  190.3230  175.7630  142.9890 O   0  0  0  0  0  1  0  0  0  0  0  0
  187.0730  178.1430  141.8470 C   0  0  0  0  0  3  0  0  0  0  0  0
  189.3530  178.5480  138.7920 C   0  0  0  0  0  2  0  0  0  0  0  0
  188.1870  176.7500  143.4790 C   0  0  0  0  0  3  0  0  0  0  0  0
  187.1030  177.5510  143.1110 C   0  0  0  0  0  0  0  0  0  0  0  0
  189.2250  177.1400  141.3190 C   0  0  0  0  0  0  0  0  0  0  0  0
  186.8870  178.0440  138.7560 C   0  0  0  0  0  0  0  0  0  0  0  0
  184.6700  176.8190  137.3980 C   0  0  0  0  0  3  0  0  0  0  0  0
  185.4960  178.5350  138.9090 C   0  0  0  0  0  0  0  0  0  0  0  0
  184.4030  177.8110  138.2480 C   0  0  0  0  0  3  0  0  0  0  0  0
  186.0770  176.4410  137.0140 C   0  0  0  0  0  2  0  0  0  0  0  0
  185.2320  179.5380  139.6210 O   0  0  0  0  0  0  0  0  0  0  0  0
  187.1330  177.0360  137.9130 C   0  0  0  0  0  3  0  0  0  0  0  0
  185.9660  177.7430  144.0510 C   0  0  0  0  0  2  0  0  0  0  0  0
  185.2570  179.0530  143.7510 C   0  0  0  0  0  2  0  0  0  0  0  0
  183.8890  179.0400  144.3470 C   0  0  0  0  0  0  0  0  0  0  0  0
  183.7600  179.1630  145.5940 O   0  0  0  0  0  0  0  0  0  0  0  0
  182.7030  178.8560  143.5000 C   0  0  0  0  0  0  0  0  0  0  0  0
  181.4080  178.7880  144.0880 N   0  0  0  0  0  1  0  0  0  0  0  0
  182.8220  178.7590  142.2490 O   0  0  0  0  0  0  0  0  0  0  0  0
  1 12  1  6  0  0  0
  1  2  1  0  0  0  0
  2 11  2  0  0  0  0
  2  7  1  0  0  0  0
  3  4  1  0  0  0  0
  4 11  1  0  0  0  0
  5  6  1  0  0  0  0
  5  9  2  0  0  0  0
  7 10  2  0  0  0  0
  8  3  1  0  0  0  0
  8  1  1  0  0  0  0
 10  9  1  0  0  0  0
 10 19  1  0  0  0  0
 11  5  1  0  0  0  0
 12 14  1  0  0  0  0
 13 15  2  0  0  0  0
 14 17  2  0  0  0  0
 15 14  1  0  0  0  0
 16 13  1  0  0  0  0
 16 18  1  0  0  0  0
 18 12  2  0  0  0  0
 20 19  1  0  0  0  0
 20 21  1  0  0  0  0
 21 22  2  0  0  0  0
 23 24  1  0  0  0  0
 23 21  1  0  0  0  0
 25 23  2  0  0  0  0
M  END
>  <MODEL>
9

>  <REMARK>
 VINA RESULT:      -6.9      2.755      5.681
  Name = 
  5 active torsions:
  status: ('A' for Active; 'I' for Inactive)
    1  A    between atoms: C_1  and  C_5
    2  A    between atoms: C_2  and  C_21
    3  A    between atoms: C_6  and  C_15
    4  A    between atoms: C_6  and  C_23
    5  A    between atoms: C_15  and  C_21
                            x       y       z     vdW  Elec       q    Type
                         _______ _______ _______ _____ _____    ______ ____

>  <TORSDO>
F 5

$$$$
