=
 OpenBabel10272414413D

 43 48  0  0  1  0  0  0  0  0999 V2000
  185.1410  175.9280  135.9130 C   0  0  1  0  0  0  0  0  0  0  0  0
  183.7690  178.6950  142.2040 C   0  0  0  0  0  0  0  0  0  0  0  0
  183.9020  177.6140  137.2760 N   0  0  0  0  0  0  0  0  0  0  0  0
  185.4520  173.6170  134.9650 C   0  0  0  0  0  2  0  0  0  0  0  0
  186.2590  178.1190  137.8090 N   0  0  0  0  0  2  0  0  0  0  0  0
  183.1420  178.1840  139.9020 C   0  0  2  0  0  3  0  0  0  0  0  0
  185.0640  178.8450  141.9060 C   0  0  0  0  0  3  0  0  0  0  0  0
  184.5960  172.7770  135.8680 C   0  0  0  0  0  0  0  0  0  0  0  0
  183.3290  178.8410  143.6130 C   0  0  0  0  0  1  0  0  0  0  0  0
  184.5660  178.2960  139.5000 C   0  0  0  0  0  0  0  0  0  0  0  0
  182.7770  178.3680  141.1690 C   0  0  0  0  0  3  0  0  0  0  0  0
  185.6050  178.7230  140.5070 C   0  0  0  0  0  3  0  0  0  0  0  0
  186.5840  178.1520  136.3930 C   0  0  2  0  0  3  0  0  0  0  0  0
  184.4970  174.4430  137.8330 C   0  0  0  0  0  2  0  0  0  0  0  0
  184.9010  178.0470  138.2250 C   0  0  0  0  0  0  0  0  0  0  0  0
  184.8450  174.9940  134.7450 C   0  0  0  0  0  2  0  0  0  0  0  0
  182.5160  177.5690  137.6490 C   0  0  0  0  0  3  0  0  0  0  0  0
  184.2280  177.1650  135.9120 C   0  0  1  0  0  3  0  0  0  0  0  0
  185.6020  175.3150  137.2450 C   0  0  0  0  0  2  0  0  0  0  0  0
  185.7030  177.2790  135.4700 C   0  0  2  0  0  3  0  0  0  0  0  0
  184.2340  173.1370  137.1170 C   0  0  0  0  0  3  0  0  0  0  0  0
  182.1340  177.8370  138.8960 C   0  0  0  0  0  3  0  0  0  0  0  0
  183.7260  170.6460  136.3820 F   0  0  0  0  0  0  0  0  0  0  0  0
  184.1260  171.4640  135.3440 C   0  0  0  0  0  2  0  0  0  0  0  0
  188.0940  178.0490  136.1400 C   0  0  1  0  0  3  0  0  0  0  0  0
  188.9850  179.4660  137.7860 O   0  0  0  0  0  0  0  0  0  0  0  0
  188.9320  178.3270  137.3520 C   0  0  0  0  0  0  0  0  0  0  0  0
  189.7050  177.2370  138.0340 C   0  0  0  0  0  2  0  0  0  0  0  0
  190.0470  177.6200  139.3990 N   0  0  0  0  0  0  0  0  0  0  0  0
  191.4300  177.2360  139.6340 C   0  0  0  0  0  2  0  0  0  0  0  0
  191.9020  176.3120  138.5310 C   0  0  0  0  0  1  0  0  0  0  0  0
  189.1690  176.9670  140.3780 C   0  0  0  0  0  2  0  0  0  0  0  0
  189.2830  177.5140  141.8020 C   0  0  1  0  0  3  0  0  0  0  0  0
  188.8450  178.9660  141.8010 C   0  0  0  0  0  1  0  0  0  0  0  0
  188.3950  176.7090  142.7470 C   0  0  0  0  0  2  0  0  0  0  0  0
  188.2090  177.4100  144.0820 C   0  0  2  0  0  3  0  0  0  0  0  0
  186.5030  178.0110  145.8280 C   0  0  0  0  0  2  0  0  0  0  0  0
  189.1330  177.8540  146.6210 S   0  0  0  0  0  0  0  0  0  0  0  0
  187.3770  177.4860  146.9580 C   0  0  0  0  0  2  0  0  0  0  0  0
  189.1670  176.8360  145.1150 C   0  0  0  0  0  2  0  0  0  0  0  0
  186.7670  177.2300  144.5460 C   0  0  0  0  0  2  0  0  0  0  0  0
  188.4370  176.8280  135.5640 O   0  0  0  0  0  0  0  0  0  0  0  0
  189.1240  177.1570  134.3970 C   0  0  0  0  0  1  0  0  0  0  0  0
  1 16  1  6  0  0  0
  1 19  1  0  0  0  0
  2  9  1  0  0  0  0
  3 17  1  0  0  0  0
  3 15  1  0  0  0  0
  4  8  1  0  0  0  0
  5 15  1  0  0  0  0
  6 22  1  1  0  0  0
  6 11  1  0  0  0  0
  7  2  1  0  0  0  0
  8 21  2  0  0  0  0
 10  6  1  0  0  0  0
 10 12  1  0  0  0  0
 11  2  2  0  0  0  0
 12  7  2  0  0  0  0
 13 25  1  1  0  0  0
 13  5  1  0  0  0  0
 15 10  2  0  0  0  0
 16  4  1  0  0  0  0
 17 22  2  0  0  0  0
 18  1  1  0  0  0  0
 18  3  1  1  0  0  0
 19 14  1  0  0  0  0
 20 18  1  0  0  0  0
 20  1  1  0  0  0  0
 20 13  1  0  0  0  0
 21 14  1  0  0  0  0
 24  8  1  0  0  0  0
 24 23  1  0  0  0  0
 25 27  1  0  0  0  0
 27 26  2  0  0  0  0
 27 28  1  0  0  0  0
 28 29  1  0  0  0  0
 29 30  1  0  0  0  0
 29 32  1  0  0  0  0
 31 30  1  0  0  0  0
 32 33  1  0  0  0  0
 33 35  1  0  0  0  0
 34 33  1  0  0  0  0
 35 36  1  0  0  0  0
 36 41  1  0  0  0  0
 36 40  1  0  0  0  0
 37 39  1  0  0  0  0
 38 39  1  0  0  0  0
 40 38  1  0  0  0  0
 41 37  1  0  0  0  0
 42 25  1  0  0  0  0
 43 42  1  0  0  0  0
M  END
>  <MODEL>
1

>  <REMARK>
 VINA RESULT:      -7.6      0.000      0.000
  Name = 
  11 active torsions:
  status: ('A' for Active; 'I' for Inactive)
    1  A    between atoms: C_2  and  C_6
    2  A    between atoms: C_2  and  O_12
    3  A    between atoms: C_2  and  C_27
    4  A    between atoms: N_4  and  C_7
    5  A    between atoms: N_4  and  C_10
    6  A    between atoms: N_4  and  C_15
    7  A    between atoms: C_6  and  C_7
    8  A    between atoms: C_11  and  C_14
    9  A    between atoms: C_14  and  C_22
   10  A    between atoms: C_15  and  C_22
   11  A    between atoms: C_19  and  C_37
                            x       y       z     vdW  Elec       q    Type
                         _______ _______ _______ _____ _____    ______ ____

>  <TORSDO>
F 11

$$$$
=
 OpenBabel10272414413D

 43 48  0  0  1  0  0  0  0  0999 V2000
  184.7500  176.2010  136.2850 C   0  0  1  0  0  0  0  0  0  0  0  0
  183.1160  178.7190  142.6190 C   0  0  0  0  0  0  0  0  0  0  0  0
  183.6130  177.9540  137.6550 N   0  0  0  0  0  0  0  0  0  0  0  0
  184.8440  173.9370  135.1910 C   0  0  0  0  0  2  0  0  0  0  0  0
  185.9490  178.0850  138.4450 N   0  0  0  0  0  2  0  0  0  0  0  0
  182.6690  178.4520  140.2350 C   0  0  2  0  0  3  0  0  0  0  0  0
  184.4430  178.7030  142.4550 C   0  0  0  0  0  3  0  0  0  0  0  0
  183.7950  173.1700  135.9410 C   0  0  0  0  0  0  0  0  0  0  0  0
  182.5560  178.8330  143.9870 C   0  0  0  0  0  1  0  0  0  0  0  0
  184.1280  178.3890  139.9780 C   0  0  0  0  0  0  0  0  0  0  0  0
  182.2020  178.6040  141.4720 C   0  0  0  0  0  3  0  0  0  0  0  0
  185.1050  178.5970  141.1090 C   0  0  0  0  0  3  0  0  0  0  0  0
  186.4210  178.1630  137.0720 C   0  0  2  0  0  3  0  0  0  0  0  0
  183.7170  174.7010  138.0130 C   0  0  0  0  0  2  0  0  0  0  0  0
  184.5580  178.1780  138.7240 C   0  0  0  0  0  0  0  0  0  0  0  0
  184.4540  175.3970  135.0240 C   0  0  0  0  0  2  0  0  0  0  0  0
  182.2030  178.0810  137.8910 C   0  0  0  0  0  3  0  0  0  0  0  0
  184.0160  177.5530  136.2970 C   0  0  1  0  0  3  0  0  0  0  0  0
  184.9830  175.4450  137.6020 C   0  0  0  0  0  2  0  0  0  0  0  0
  185.5310  177.4860  136.0050 C   0  0  2  0  0  3  0  0  0  0  0  0
  183.3560  173.4940  137.1750 C   0  0  0  0  0  3  0  0  0  0  0  0
  181.7330  178.3180  139.1150 C   0  0  0  0  0  3  0  0  0  0  0  0
  184.0810  170.9050  135.3470 F   0  0  0  0  0  0  0  0  0  0  0  0
  183.2090  171.9730  135.2730 C   0  0  0  0  0  2  0  0  0  0  0  0
  187.9210  177.8650  136.9550 C   0  0  1  0  0  3  0  0  0  0  0  0
  189.0550  179.2520  138.4710 O   0  0  0  0  0  0  0  0  0  0  0  0
  188.6900  178.1160  138.2170 C   0  0  0  0  0  0  0  0  0  0  0  0
  189.0190  177.0030  139.1670 C   0  0  0  0  0  2  0  0  0  0  0  0
  190.1260  177.3750  140.0400 N   0  0  0  0  0  0  0  0  0  0  0  0
  191.3550  176.8960  139.4260 C   0  0  0  0  0  2  0  0  0  0  0  0
  192.5510  177.4970  140.1310 C   0  0  0  0  0  1  0  0  0  0  0  0
  189.9730  176.7970  141.3810 C   0  0  0  0  0  2  0  0  0  0  0  0
  189.0440  177.5800  142.3100 C   0  0  1  0  0  3  0  0  0  0  0  0
  188.0700  176.6110  142.9520 C   0  0  0  0  0  1  0  0  0  0  0  0
  189.8560  178.2860  143.3930 C   0  0  0  0  0  2  0  0  0  0  0  0
  190.0360  177.4130  144.6230 C   0  0  2  0  0  3  0  0  0  0  0  0
  191.7510  176.2170  146.0180 C   0  0  0  0  0  2  0  0  0  0  0  0
  189.3880  176.9240  147.2390 S   0  0  0  0  0  0  0  0  0  0  0  0
  191.2090  176.8080  147.3120 C   0  0  0  0  0  2  0  0  0  0  0  0
  189.4130  178.0840  145.8390 C   0  0  0  0  0  2  0  0  0  0  0  0
  191.5250  177.1800  144.8590 C   0  0  0  0  0  2  0  0  0  0  0  0
  188.1530  176.5780  136.4750 O   0  0  0  0  0  0  0  0  0  0  0  0
  189.3010  176.6820  135.6930 C   0  0  0  0  0  1  0  0  0  0  0  0
  1 16  1  6  0  0  0
  1 18  1  0  0  0  0
  1 19  1  0  0  0  0
  2  9  1  0  0  0  0
  3 17  1  0  0  0  0
  3 15  1  0  0  0  0
  4  8  1  0  0  0  0
  5 15  1  0  0  0  0
  6 22  1  1  0  0  0
  6 11  1  0  0  0  0
  7  2  1  0  0  0  0
  8 21  2  0  0  0  0
 10  6  1  0  0  0  0
 10 12  1  0  0  0  0
 11  2  2  0  0  0  0
 12  7  2  0  0  0  0
 13 25  1  1  0  0  0
 13  5  1  0  0  0  0
 15 10  2  0  0  0  0
 16  4  1  0  0  0  0
 17 22  2  0  0  0  0
 18  3  1  1  0  0  0
 19 14  1  0  0  0  0
 20  1  1  0  0  0  0
 20 18  1  0  0  0  0
 20 13  1  0  0  0  0
 21 14  1  0  0  0  0
 24 23  1  0  0  0  0
 24  8  1  0  0  0  0
 25 27  1  0  0  0  0
 27 26  2  0  0  0  0
 27 28  1  0  0  0  0
 28 29  1  0  0  0  0
 29 32  1  0  0  0  0
 30 29  1  0  0  0  0
 30 31  1  0  0  0  0
 32 33  1  0  0  0  0
 33 34  1  0  0  0  0
 33 35  1  0  0  0  0
 35 36  1  0  0  0  0
 36 41  1  0  0  0  0
 36 40  1  0  0  0  0
 37 39  1  0  0  0  0
 38 39  1  0  0  0  0
 40 38  1  0  0  0  0
 41 37  1  0  0  0  0
 42 25  1  0  0  0  0
 43 42  1  0  0  0  0
M  END
>  <MODEL>
2

>  <REMARK>
 VINA RESULT:      -7.4      1.130      1.643
  Name = 
  11 active torsions:
  status: ('A' for Active; 'I' for Inactive)
    1  A    between atoms: C_2  and  C_6
    2  A    between atoms: C_2  and  O_12
    3  A    between atoms: C_2  and  C_27
    4  A    between atoms: N_4  and  C_7
    5  A    between atoms: N_4  and  C_10
    6  A    between atoms: N_4  and  C_15
    7  A    between atoms: C_6  and  C_7
    8  A    between atoms: C_11  and  C_14
    9  A    between atoms: C_14  and  C_22
   10  A    between atoms: C_15  and  C_22
   11  A    between atoms: C_19  and  C_37
                            x       y       z     vdW  Elec       q    Type
                         _______ _______ _______ _____ _____    ______ ____

>  <TORSDO>
F 11

$$$$
=
 OpenBabel10272414413D

 43 48  0  0  1  0  0  0  0  0999 V2000
  187.0620  175.0950  135.6200 C   0  0  1  0  0  0  0  0  0  0  0  0
  182.5660  178.6870  139.6210 C   0  0  0  0  0  0  0  0  0  0  0  0
  185.3920  176.9420  135.8210 N   0  0  0  0  0  0  0  0  0  0  0  0
  187.6900  172.6790  135.2990 C   0  0  0  0  0  2  0  0  0  0  0  0
  187.0600  177.5360  137.5420 N   0  0  0  0  0  2  0  0  0  0  0  0
  183.3200  177.8590  137.4530 C   0  0  2  0  0  3  0  0  0  0  0  0
  183.8080  178.8050  140.1010 C   0  0  0  0  0  3  0  0  0  0  0  0
  186.4160  171.9640  135.6420 C   0  0  0  0  0  0  0  0  0  0  0  0
  181.4160  179.0200  140.4970 C   0  0  0  0  0  1  0  0  0  0  0  0
  184.7250  177.9280  137.9260 C   0  0  0  0  0  0  0  0  0  0  0  0
  182.3160  178.2130  138.2520 C   0  0  0  0  0  3  0  0  0  0  0  0
  185.0370  178.4980  139.2890 C   0  0  0  0  0  3  0  0  0  0  0  0
  188.1320  177.3770  136.5730 C   0  0  2  0  0  3  0  0  0  0  0  0
  185.3390  173.8830  136.9860 C   0  0  0  0  0  2  0  0  0  0  0  0
  185.7050  177.5090  137.1120 C   0  0  0  0  0  0  0  0  0  0  0  0
  187.4140  174.0080  134.6110 C   0  0  0  0  0  2  0  0  0  0  0  0
  184.0410  176.9360  135.3380 C   0  0  0  0  0  3  0  0  0  0  0  0
  186.4010  176.3130  134.9530 C   0  0  1  0  0  3  0  0  0  0  0  0
  186.6410  174.6750  137.0370 C   0  0  0  0  0  2  0  0  0  0  0  0
  187.8700  176.3790  135.4220 C   0  0  2  0  0  3  0  0  0  0  0  0
  185.4360  172.4880  136.4070 C   0  0  0  0  0  3  0  0  0  0  0  0
  183.0390  177.3690  136.1010 C   0  0  0  0  0  3  0  0  0  0  0  0
  185.1070  170.0030  135.6440 F   0  0  0  0  0  0  0  0  0  0  0  0
  186.2330  170.5870  135.1020 C   0  0  0  0  0  2  0  0  0  0  0  0
  189.5070  177.2540  137.2430 C   0  0  1  0  0  3  0  0  0  0  0  0
  189.2080  178.8750  138.9130 O   0  0  0  0  0  0  0  0  0  0  0  0
  189.5340  177.7260  138.6650 C   0  0  0  0  0  0  0  0  0  0  0  0
  189.9550  176.8180  139.7820 C   0  0  0  0  0  2  0  0  0  0  0  0
  189.9790  177.5350  141.0520 N   0  0  0  0  0  0  0  0  0  0  0  0
  191.3620  177.6000  141.4970 C   0  0  0  0  0  2  0  0  0  0  0  0
  191.5410  176.7630  142.7460 C   0  0  0  0  0  1  0  0  0  0  0  0
  189.1540  176.8640  142.0650 C   0  0  0  0  0  2  0  0  0  0  0  0
  188.2610  177.8000  142.8820 C   0  0  1  0  0  3  0  0  0  0  0  0
  187.2000  178.3790  141.9670 C   0  0  0  0  0  1  0  0  0  0  0  0
  187.5950  177.0310  144.0200 C   0  0  0  0  0  2  0  0  0  0  0  0
  187.8590  177.6770  145.3690 C   0  0  2  0  0  3  0  0  0  0  0  0
  186.7620  178.4000  147.5120 C   0  0  0  0  0  2  0  0  0  0  0  0
  189.4590  177.8580  147.5850 S   0  0  0  0  0  0  0  0  0  0  0  0
  187.8150  177.7050  148.3640 C   0  0  0  0  0  2  0  0  0  0  0  0
  188.9610  176.9270  146.1040 C   0  0  0  0  0  2  0  0  0  0  0  0
  186.5750  177.6620  146.1930 C   0  0  0  0  0  2  0  0  0  0  0  0
  190.0170  175.9620  137.1340 O   0  0  0  0  0  0  0  0  0  0  0  0
  191.2850  176.1170  136.5770 C   0  0  0  0  0  1  0  0  0  0  0  0
  1 16  1  6  0  0  0
  1 19  1  0  0  0  0
  2  7  1  0  0  0  0
  2  9  1  0  0  0  0
  3 15  1  0  0  0  0
  4  8  1  0  0  0  0
  6 22  1  1  0  0  0
  6 10  1  0  0  0  0
  6 11  1  0  0  0  0
  8 21  2  0  0  0  0
 10 12  1  0  0  0  0
 11  2  2  0  0  0  0
 12  7  2  0  0  0  0
 13 25  1  1  0  0  0
 13  5  1  0  0  0  0
 14 19  1  0  0  0  0
 15  5  1  0  0  0  0
 15 10  2  0  0  0  0
 16  4  1  0  0  0  0
 17  3  1  0  0  0  0
 17 22  2  0  0  0  0
 18 20  1  0  0  0  0
 18  1  1  0  0  0  0
 18  3  1  1  0  0  0
 20  1  1  0  0  0  0
 20 13  1  0  0  0  0
 21 14  1  0  0  0  0
 24  8  1  0  0  0  0
 24 23  1  0  0  0  0
 25 27  1  0  0  0  0
 27 26  2  0  0  0  0
 27 28  1  0  0  0  0
 28 29  1  0  0  0  0
 29 30  1  0  0  0  0
 29 32  1  0  0  0  0
 30 31  1  0  0  0  0
 32 33  1  0  0  0  0
 33 35  1  0  0  0  0
 34 33  1  0  0  0  0
 35 36  1  0  0  0  0
 36 40  1  0  0  0  0
 36 41  1  0  0  0  0
 37 39  1  0  0  0  0
 38 39  1  0  0  0  0
 40 38  1  0  0  0  0
 41 37  1  0  0  0  0
 42 25  1  0  0  0  0
 43 42  1  0  0  0  0
M  END
>  <MODEL>
3

>  <REMARK>
 VINA RESULT:      -7.0      1.482      2.135
  Name = 
  11 active torsions:
  status: ('A' for Active; 'I' for Inactive)
    1  A    between atoms: C_2  and  C_6
    2  A    between atoms: C_2  and  O_12
    3  A    between atoms: C_2  and  C_27
    4  A    between atoms: N_4  and  C_7
    5  A    between atoms: N_4  and  C_10
    6  A    between atoms: N_4  and  C_15
    7  A    between atoms: C_6  and  C_7
    8  A    between atoms: C_11  and  C_14
    9  A    between atoms: C_14  and  C_22
   10  A    between atoms: C_15  and  C_22
   11  A    between atoms: C_19  and  C_37
                            x       y       z     vdW  Elec       q    Type
                         _______ _______ _______ _____ _____    ______ ____

>  <TORSDO>
F 11

$$$$
=
 OpenBabel10272414413D

 43 48  0  0  1  0  0  0  0  0999 V2000
  190.1520  176.5060  137.3580 C   0  0  1  0  0  0  0  0  0  0  0  0
  183.2010  176.8900  136.5440 C   0  0  0  0  0  0  0  0  0  0  0  0
  188.1790  177.7140  136.4150 N   0  0  0  0  0  0  0  0  0  0  0  0
  191.8980  174.6950  137.2960 C   0  0  0  0  0  2  0  0  0  0  0  0
  187.6750  177.6650  138.8310 N   0  0  0  0  0  2  0  0  0  0  0  0
  185.4770  177.3610  135.8020 C   0  0  2  0  0  3  0  0  0  0  0  0
  183.5200  176.9670  137.8400 C   0  0  0  0  0  3  0  0  0  0  0  0
  191.3030  173.7010  136.3420 C   0  0  0  0  0  0  0  0  0  0  0  0
  181.8080  176.5590  136.1590 C   0  0  0  0  0  1  0  0  0  0  0  0
  185.9160  177.4240  137.2180 C   0  0  0  0  0  0  0  0  0  0  0  0
  184.2070  177.1080  135.4940 C   0  0  0  0  0  3  0  0  0  0  0  0
  184.9020  177.3030  138.3290 C   0  0  0  0  0  3  0  0  0  0  0  0
  189.0020  178.1790  139.1290 C   0  0  2  0  0  3  0  0  0  0  0  0
  188.8640  174.5140  136.5350 C   0  0  0  0  0  2  0  0  0  0  0  0
  187.2150  177.6250  137.4870 C   0  0  0  0  0  0  0  0  0  0  0  0
  191.5540  176.1230  136.9000 C   0  0  0  0  0  2  0  0  0  0  0  0
  187.7460  177.7180  135.0460 C   0  0  0  0  0  3  0  0  0  0  0  0
  189.6330  177.7640  136.6420 C   0  0  1  0  0  3  0  0  0  0  0  0
  189.1730  175.3870  137.7460 C   0  0  0  0  0  2  0  0  0  0  0  0
  190.1110  177.8380  138.1080 C   0  0  2  0  0  3  0  0  0  0  0  0
  189.9860  173.6150  136.0620 C   0  0  0  0  0  3  0  0  0  0  0  0
  186.4620  177.5510  134.7330 C   0  0  0  0  0  3  0  0  0  0  0  0
  193.5180  172.9190  136.1430 F   0  0  0  0  0  0  0  0  0  0  0  0
  192.2330  172.7530  135.6680 C   0  0  0  0  0  2  0  0  0  0  0  0
  189.3860  177.9780  140.6010 C   0  0  1  0  0  3  0  0  0  0  0  0
  188.1060  176.5320  141.9350 O   0  0  0  0  0  0  0  0  0  0  0  0
  188.2230  177.6630  141.4940 C   0  0  0  0  0  0  0  0  0  0  0  0
  187.2070  178.7070  141.8510 C   0  0  0  0  0  2  0  0  0  0  0  0
  185.8560  178.1590  141.7830 N   0  0  0  0  0  0  0  0  0  0  0  0
  184.9920  179.1820  141.2150 C   0  0  0  0  0  2  0  0  0  0  0  0
  183.5420  178.8020  141.4200 C   0  0  0  0  0  1  0  0  0  0  0  0
  185.3680  177.7660  143.1100 C   0  0  0  0  0  2  0  0  0  0  0  0
  186.0450  178.4840  144.2790 C   0  0  1  0  0  3  0  0  0  0  0  0
  185.0600  179.4670  144.8800 C   0  0  0  0  0  1  0  0  0  0  0  0
  186.4770  177.4740  145.3380 C   0  0  0  0  0  2  0  0  0  0  0  0
  187.8750  177.7610  145.8570 C   0  0  2  0  0  3  0  0  0  0  0  0
  189.2740  177.8750  147.9420 C   0  0  0  0  0  2  0  0  0  0  0  0
  190.5770  177.4220  145.5620 S   0  0  0  0  0  0  0  0  0  0  0  0
  190.3750  177.0190  147.3310 C   0  0  0  0  0  2  0  0  0  0  0  0
  188.8920  176.8850  145.1390 C   0  0  0  0  0  2  0  0  0  0  0  0
  187.9190  177.4930  147.3570 C   0  0  0  0  0  2  0  0  0  0  0  0
  190.3970  177.0290  140.7430 O   0  0  0  0  0  0  0  0  0  0  0  0
  191.2310  177.5340  141.7380 C   0  0  0  0  0  1  0  0  0  0  0  0
  1 16  1  6  0  0  0
  1 19  1  0  0  0  0
  1 20  1  0  0  0  0
  2  7  1  0  0  0  0
  3 15  1  0  0  0  0
  5 13  1  0  0  0  0
  6 22  1  6  0  0  0
  6 10  1  0  0  0  0
  7 12  2  0  0  0  0
  8  4  1  0  0  0  0
  9  2  1  0  0  0  0
 10 15  2  0  0  0  0
 10 12  1  0  0  0  0
 11  6  1  0  0  0  0
 11  2  2  0  0  0  0
 13 25  1  1  0  0  0
 14 19  1  0  0  0  0
 15  5  1  0  0  0  0
 16  4  1  0  0  0  0
 17  3  1  0  0  0  0
 18  3  1  1  0  0  0
 18  1  1  0  0  0  0
 18 20  1  0  0  0  0
 20 13  1  0  0  0  0
 21  8  2  0  0  0  0
 21 14  1  0  0  0  0
 22 17  2  0  0  0  0
 24 23  1  0  0  0  0
 24  8  1  0  0  0  0
 25 42  1  0  0  0  0
 25 27  1  0  0  0  0
 27 28  1  0  0  0  0
 27 26  2  0  0  0  0
 29 28  1  0  0  0  0
 29 32  1  0  0  0  0
 30 31  1  0  0  0  0
 30 29  1  0  0  0  0
 32 33  1  0  0  0  0
 33 34  1  0  0  0  0
 33 35  1  0  0  0  0
 35 36  1  0  0  0  0
 36 41  1  0  0  0  0
 38 39  1  0  0  0  0
 39 37  1  0  0  0  0
 40 38  1  0  0  0  0
 40 36  1  0  0  0  0
 41 37  1  0  0  0  0
 42 43  1  0  0  0  0
M  END
>  <MODEL>
4

>  <REMARK>
 VINA RESULT:      -6.9      2.739      5.327
  Name = 
  11 active torsions:
  status: ('A' for Active; 'I' for Inactive)
    1  A    between atoms: C_2  and  C_6
    2  A    between atoms: C_2  and  O_12
    3  A    between atoms: C_2  and  C_27
    4  A    between atoms: N_4  and  C_7
    5  A    between atoms: N_4  and  C_10
    6  A    between atoms: N_4  and  C_15
    7  A    between atoms: C_6  and  C_7
    8  A    between atoms: C_11  and  C_14
    9  A    between atoms: C_14  and  C_22
   10  A    between atoms: C_15  and  C_22
   11  A    between atoms: C_19  and  C_37
                            x       y       z     vdW  Elec       q    Type
                         _______ _______ _______ _____ _____    ______ ____

>  <TORSDO>
F 11

$$$$
=
 OpenBabel10272414413D

 43 48  0  0  1  0  0  0  0  0999 V2000
  190.3240  177.6820  143.6280 C   0  0  1  0  0  0  0  0  0  0  0  0
  190.6950  174.9010  137.2050 C   0  0  0  0  0  0  0  0  0  0  0  0
  191.0250  177.9130  141.2410 N   0  0  0  0  0  0  0  0  0  0  0  0
  190.6710  176.8770  145.9870 C   0  0  0  0  0  2  0  0  0  0  0  0
  188.6010  177.4830  141.0510 N   0  0  0  0  0  2  0  0  0  0  0  0
  191.5150  176.4060  138.9420 C   0  0  0  0  0  0  0  0  0  0  0  0
  189.4180  175.0300  137.5800 C   0  0  0  0  0  3  0  0  0  0  0  0
  191.6860  175.7850  145.8120 C   0  0  0  0  0  0  0  0  0  0  0  0
  191.0320  173.9960  136.0800 C   0  0  0  0  0  1  0  0  0  0  0  0
  190.1270  176.5710  139.4410 C   0  0  0  0  0  0  0  0  0  0  0  0
  191.7730  175.6220  137.8980 C   0  0  0  0  0  3  0  0  0  0  0  0
  188.9770  175.9280  138.7040 C   0  0  0  0  0  2  0  0  0  0  0  0
  188.3280  178.5250  142.0270 C   0  0  2  0  0  3  0  0  0  0  0  0
  191.2720  175.3800  143.3010 C   0  0  0  0  0  2  0  0  0  0  0  0
  189.9140  177.3250  140.5300 C   0  0  0  0  0  0  0  0  0  0  0  0
  190.8980  178.0120  145.0010 C   0  0  0  0  0  2  0  0  0  0  0  0
  192.3590  177.8080  140.7220 C   0  0  0  0  0  3  0  0  0  0  0  0
  190.8760  178.6080  142.5310 C   0  0  1  0  0  3  0  0  0  0  0  0
  189.9970  176.2160  143.3000 C   0  0  0  0  0  2  0  0  0  0  0  0
  189.4400  178.7960  143.0660 C   0  0  2  0  0  3  0  0  0  0  0  0
  191.8970  175.1250  144.6550 C   0  0  0  0  0  3  0  0  0  0  0  0
  192.6120  177.0940  139.6270 C   0  0  0  0  0  3  0  0  0  0  0  0
  191.7390  175.4530  148.1470 F   0  0  0  0  0  0  0  0  0  0  0  0
  192.5060  175.4120  147.0000 C   0  0  0  0  0  2  0  0  0  0  0  0
  186.9090  178.4270  142.6020 C   0  0  1  0  0  3  0  0  0  0  0  0
  186.0500  179.5440  140.7250 O   0  0  0  0  0  0  0  0  0  0  0  0
  185.8290  178.7320  141.6080 C   0  0  0  0  0  0  0  0  0  0  0  0
  184.4890  178.0620  141.6800 C   0  0  0  0  0  2  0  0  0  0  0  0
  183.6880  178.3770  140.5020 N   0  0  0  0  0  0  0  0  0  0  0  0
  182.5100  179.1030  140.9490 C   0  0  0  0  0  2  0  0  0  0  0  0
  182.2230  178.7770  142.3990 C   0  0  0  0  0  1  0  0  0  0  0  0
  183.2880  177.1610  139.7820 C   0  0  0  0  0  2  0  0  0  0  0  0
  183.6040  177.1740  138.2850 C   0  0  1  0  0  3  0  0  0  0  0  0
  182.6290  178.1060  137.5920 C   0  0  0  0  0  1  0  0  0  0  0  0
  185.0330  177.6570  138.0530 C   0  0  0  0  0  2  0  0  0  0  0  0
  185.5470  177.2620  136.6790 C   0  0  2  0  0  3  0  0  0  0  0  0
  187.3150  177.7600  134.9630 C   0  0  0  0  0  2  0  0  0  0  0  0
  186.1720  175.2580  134.9210 S   0  0  0  0  0  0  0  0  0  0  0  0
  187.6740  176.2890  134.8090 C   0  0  0  0  0  2  0  0  0  0  0  0
  185.8220  175.7660  136.6310 C   0  0  0  0  0  2  0  0  0  0  0  0
  186.8230  178.0400  136.3780 C   0  0  0  0  0  2  0  0  0  0  0  0
  186.6890  177.1970  143.2190 O   0  0  0  0  0  0  0  0  0  0  0  0
  186.6160  177.4810  144.5810 C   0  0  0  0  0  1  0  0  0  0  0  0
  1 19  1  6  0  0  0
  1 16  1  0  0  0  0
  2  7  2  0  0  0  0
  2 11  1  0  0  0  0
  5 13  1  0  0  0  0
  6 10  1  0  0  0  0
  6 22  1  0  0  0  0
  7 12  1  0  0  0  0
  8  4  1  0  0  0  0
  8 24  1  0  0  0  0
  9  2  1  0  0  0  0
 10 15  2  0  0  0  0
 11  6  2  0  0  0  0
 12 10  1  0  0  0  0
 13 25  1  1  0  0  0
 13 20  1  0  0  0  0
 14 21  1  0  0  0  0
 15  5  1  0  0  0  0
 15  3  1  0  0  0  0
 16  4  1  0  0  0  0
 17  3  1  0  0  0  0
 18  3  1  6  0  0  0
 18 20  1  0  0  0  0
 18  1  1  0  0  0  0
 19 14  1  0  0  0  0
 20  1  1  0  0  0  0
 21  8  2  0  0  0  0
 22 17  2  0  0  0  0
 24 23  1  0  0  0  0
 25 42  1  0  0  0  0
 26 27  2  0  0  0  0
 27 28  1  0  0  0  0
 27 25  1  0  0  0  0
 29 30  1  0  0  0  0
 29 28  1  0  0  0  0
 30 31  1  0  0  0  0
 32 29  1  0  0  0  0
 33 32  1  0  0  0  0
 34 33  1  0  0  0  0
 35 33  1  0  0  0  0
 36 35  1  0  0  0  0
 37 41  1  0  0  0  0
 38 40  1  0  0  0  0
 39 38  1  0  0  0  0
 39 37  1  0  0  0  0
 40 36  1  0  0  0  0
 41 36  1  0  0  0  0
 42 43  1  0  0  0  0
M  END
>  <MODEL>
5

>  <REMARK>
 VINA RESULT:      -6.1      3.669      9.208
  Name = 
  11 active torsions:
  status: ('A' for Active; 'I' for Inactive)
    1  A    between atoms: C_2  and  C_6
    2  A    between atoms: C_2  and  O_12
    3  A    between atoms: C_2  and  C_27
    4  A    between atoms: N_4  and  C_7
    5  A    between atoms: N_4  and  C_10
    6  A    between atoms: N_4  and  C_15
    7  A    between atoms: C_6  and  C_7
    8  A    between atoms: C_11  and  C_14
    9  A    between atoms: C_14  and  C_22
   10  A    between atoms: C_15  and  C_22
   11  A    between atoms: C_19  and  C_37
                            x       y       z     vdW  Elec       q    Type
                         _______ _______ _______ _____ _____    ______ ____

>  <TORSDO>
F 11

$$$$
=
 OpenBabel10272414413D

 43 48  0  0  1  0  0  0  0  0999 V2000
  182.7050  176.5560  137.1610 C   0  0  1  0  0  0  0  0  0  0  0  0
  184.0510  178.6860  143.7010 C   0  0  0  0  0  0  0  0  0  0  0  0
  182.5620  178.3520  138.8900 N   0  0  0  0  0  0  0  0  0  0  0  0
  181.8850  174.4450  136.0630 C   0  0  0  0  0  2  0  0  0  0  0  0
  184.9890  177.9210  138.7640 N   0  0  0  0  0  2  0  0  0  0  0  0
  182.7370  178.7640  141.6470 C   0  0  0  0  0  0  0  0  0  0  0  0
  185.1920  178.4160  143.0590 C   0  0  0  0  0  3  0  0  0  0  0  0
  181.0250  173.8350  137.1320 C   0  0  0  0  0  0  0  0  0  0  0  0
  184.0560  178.7710  145.1820 C   0  0  0  0  0  1  0  0  0  0  0  0
  183.9540  178.4310  140.8670 C   0  0  0  0  0  0  0  0  0  0  0  0
  182.7890  178.8790  142.9720 C   0  0  0  0  0  3  0  0  0  0  0  0
  185.2890  178.3170  141.5610 C   0  0  0  0  0  2  0  0  0  0  0  0
  184.9460  178.0420  137.3160 C   0  0  2  0  0  3  0  0  0  0  0  0
  182.0410  175.1280  139.1170 C   0  0  0  0  0  2  0  0  0  0  0  0
  183.8490  178.2670  139.5390 C   0  0  0  0  0  0  0  0  0  0  0  0
  181.8050  175.9640  136.0830 C   0  0  0  0  0  2  0  0  0  0  0  0
  181.3970  178.7400  139.6340 C   0  0  0  0  0  3  0  0  0  0  0  0
  182.3520  178.0200  137.4720 C   0  0  1  0  0  3  0  0  0  0  0  0
  183.2120  175.6350  138.2830 C   0  0  0  0  0  2  0  0  0  0  0  0
  183.6060  177.6760  136.6390 C   0  0  2  0  0  3  0  0  0  0  0  0
  181.1410  174.1130  138.4460 C   0  0  0  0  0  3  0  0  0  0  0  0
  181.4600  178.9410  140.9490 C   0  0  0  0  0  3  0  0  0  0  0  0
  180.3560  172.2450  135.5230 F   0  0  0  0  0  0  0  0  0  0  0  0
  179.9840  172.8590  136.7030 C   0  0  0  0  0  2  0  0  0  0  0  0
  186.1970  177.4580  136.6460 C   0  0  1  0  0  3  0  0  0  0  0  0
  185.7380  175.1570  136.5830 O   0  0  0  0  0  0  0  0  0  0  0  0
  186.4720  176.0310  137.0150 C   0  0  0  0  0  0  0  0  0  0  0  0
  187.6240  175.6610  137.9010 C   0  0  0  0  0  2  0  0  0  0  0  0
  188.8540  176.3010  137.4470 N   0  0  0  0  0  0  0  0  0  0  0  0
  189.4480  175.4470  136.4300 C   0  0  0  0  0  2  0  0  0  0  0  0
  190.6210  176.1540  135.7860 C   0  0  0  0  0  1  0  0  0  0  0  0
  189.7980  176.4990  138.5540 C   0  0  0  0  0  2  0  0  0  0  0  0
  189.6360  177.8240  139.3010 C   0  0  1  0  0  3  0  0  0  0  0  0
  189.2320  178.8950  138.3060 C   0  0  0  0  0  1  0  0  0  0  0  0
  188.5650  177.6930  140.3790 C   0  0  0  0  0  2  0  0  0  0  0  0
  189.1520  177.8020  141.7760 C   0  0  2  0  0  3  0  0  0  0  0  0
  188.9580  176.9260  144.1240 C   0  0  0  0  0  2  0  0  0  0  0  0
  191.3880  177.9580  143.3500 S   0  0  0  0  0  0  0  0  0  0  0  0
  190.4520  176.6520  144.2170 C   0  0  0  0  0  2  0  0  0  0  0  0
  190.6540  177.5590  141.7350 C   0  0  0  0  0  2  0  0  0  0  0  0
  188.4800  176.7780  142.6850 C   0  0  0  0  0  2  0  0  0  0  0  0
  186.1600  177.6190  135.2620 O   0  0  0  0  0  0  0  0  0  0  0  0
  187.3720  178.2230  134.9340 C   0  0  0  0  0  1  0  0  0  0  0  0
  1 16  1  6  0  0  0
  1 18  1  0  0  0  0
  1 19  1  0  0  0  0
  2  9  1  0  0  0  0
  3 15  1  0  0  0  0
  3 17  1  0  0  0  0
  4 16  1  0  0  0  0
  4  8  1  0  0  0  0
  5 15  1  0  0  0  0
  6 11  2  0  0  0  0
  7  2  2  0  0  0  0
  8 21  2  0  0  0  0
 10 12  1  0  0  0  0
 10  6  1  0  0  0  0
 11  2  1  0  0  0  0
 12  7  1  0  0  0  0
 13 25  1  6  0  0  0
 13  5  1  0  0  0  0
 15 10  2  0  0  0  0
 17 22  2  0  0  0  0
 18  3  1  1  0  0  0
 19 14  1  0  0  0  0
 20  1  1  0  0  0  0
 20 13  1  0  0  0  0
 20 18  1  0  0  0  0
 21 14  1  0  0  0  0
 22  6  1  0  0  0  0
 23 24  1  0  0  0  0
 24  8  1  0  0  0  0
 25 27  1  0  0  0  0
 26 27  2  0  0  0  0
 27 28  1  0  0  0  0
 29 28  1  0  0  0  0
 29 32  1  0  0  0  0
 30 29  1  0  0  0  0
 31 30  1  0  0  0  0
 32 33  1  0  0  0  0
 33 35  1  0  0  0  0
 34 33  1  0  0  0  0
 35 36  1  0  0  0  0
 36 41  1  0  0  0  0
 37 39  1  0  0  0  0
 38 39  1  0  0  0  0
 40 36  1  0  0  0  0
 40 38  1  0  0  0  0
 41 37  1  0  0  0  0
 42 25  1  0  0  0  0
 43 42  1  0  0  0  0
M  END
>  <MODEL>
6

>  <REMARK>
 VINA RESULT:      -6.1      2.065      2.919
  Name = 
  11 active torsions:
  status: ('A' for Active; 'I' for Inactive)
    1  A    between atoms: C_2  and  C_6
    2  A    between atoms: C_2  and  O_12
    3  A    between atoms: C_2  and  C_27
    4  A    between atoms: N_4  and  C_7
    5  A    between atoms: N_4  and  C_10
    6  A    between atoms: N_4  and  C_15
    7  A    between atoms: C_6  and  C_7
    8  A    between atoms: C_11  and  C_14
    9  A    between atoms: C_14  and  C_22
   10  A    between atoms: C_15  and  C_22
   11  A    between atoms: C_19  and  C_37
                            x       y       z     vdW  Elec       q    Type
                         _______ _______ _______ _____ _____    ______ ____

>  <TORSDO>
F 11

$$$$
=
 OpenBabel10272414413D

 43 48  0  0  1  0  0  0  0  0999 V2000
  189.9190  176.2700  136.7490 C   0  0  1  0  0  0  0  0  0  0  0  0
  182.9810  177.2140  137.0530 C   0  0  0  0  0  0  0  0  0  0  0  0
  187.9140  177.5880  136.0550 N   0  0  0  0  0  0  0  0  0  0  0  0
  191.4860  174.3120  136.5350 C   0  0  0  0  0  2  0  0  0  0  0  0
  187.8220  177.7260  138.5180 N   0  0  0  0  0  2  0  0  0  0  0  0
  185.1290  177.4380  135.9180 C   0  0  2  0  0  3  0  0  0  0  0  0
  183.5190  177.3380  138.2710 C   0  0  0  0  0  3  0  0  0  0  0  0
  190.6640  173.3210  135.7640 C   0  0  0  0  0  0  0  0  0  0  0  0
  181.5210  176.9840  136.9260 C   0  0  0  0  0  1  0  0  0  0  0  0
  185.8030  177.5460  137.2350 C   0  0  0  0  0  0  0  0  0  0  0  0
  183.8100  177.2800  135.8400 C   0  0  0  0  0  3  0  0  0  0  0  0
  184.9850  177.5790  138.5030 C   0  0  0  0  0  3  0  0  0  0  0  0
  189.2160  178.1380  138.5590 C   0  0  2  0  0  3  0  0  0  0  0  0
  188.3620  174.3540  136.2930 C   0  0  0  0  0  2  0  0  0  0  0  0
  187.1400  177.6480  137.2730 C   0  0  0  0  0  0  0  0  0  0  0  0
  191.1910  175.7390  136.0980 C   0  0  0  0  0  2  0  0  0  0  0  0
  187.2590  177.5500  134.7790 C   0  0  0  0  0  3  0  0  0  0  0  0
  189.3850  177.5250  136.0380 C   0  0  1  0  0  3  0  0  0  0  0  0
  188.9370  175.2650  137.3720 C   0  0  0  0  0  2  0  0  0  0  0  0
  190.1080  177.6420  137.3980 C   0  0  2  0  0  3  0  0  0  0  0  0
  189.3160  173.3340  135.7100 C   0  0  0  0  0  3  0  0  0  0  0  0
  185.9320  177.4790  134.6920 C   0  0  0  0  0  3  0  0  0  0  0  0
  192.3720  171.6960  135.8120 F   0  0  0  0  0  0  0  0  0  0  0  0
  191.3920  172.2560  135.0180 C   0  0  0  0  0  2  0  0  0  0  0  0
  189.8260  177.9900  139.9590 C   0  0  1  0  0  3  0  0  0  0  0  0
  188.1300  178.9020  141.3010 O   0  0  0  0  0  0  0  0  0  0  0  0
  188.8100  177.9180  141.0590 C   0  0  0  0  0  0  0  0  0  0  0  0
  188.6170  176.6670  141.8630 C   0  0  0  0  0  2  0  0  0  0  0  0
  189.4490  176.6880  143.0610 N   0  0  0  0  0  0  0  0  0  0  0  0
  190.2560  175.4780  143.0610 C   0  0  0  0  0  2  0  0  0  0  0  0
  191.6000  175.7550  143.6990 C   0  0  0  0  0  1  0  0  0  0  0  0
  188.6350  176.7500  144.2810 C   0  0  0  0  0  2  0  0  0  0  0  0
  189.2890  177.4950  145.4470 C   0  0  1  0  0  3  0  0  0  0  0  0
  190.1040  178.6460  144.8910 C   0  0  0  0  0  1  0  0  0  0  0  0
  188.2190  178.0340  146.3930 C   0  0  0  0  0  2  0  0  0  0  0  0
  186.8290  177.9400  145.7860 C   0  0  2  0  0  3  0  0  0  0  0  0
  184.3870  178.2930  146.2660 C   0  0  0  0  0  2  0  0  0  0  0  0
  185.1960  178.4100  143.6380 S   0  0  0  0  0  0  0  0  0  0  0  0
  184.1850  179.1020  144.9920 C   0  0  0  0  0  2  0  0  0  0  0  0
  186.7640  178.7450  144.4960 C   0  0  0  0  0  2  0  0  0  0  0  0
  185.8080  178.4710  146.7870 C   0  0  0  0  0  2  0  0  0  0  0  0
  190.7100  176.9160  140.0230 O   0  0  0  0  0  0  0  0  0  0  0  0
  191.9390  177.4760  140.3660 C   0  0  0  0  0  1  0  0  0  0  0  0
  1 16  1  6  0  0  0
  1 19  1  0  0  0  0
  1 20  1  0  0  0  0
  2  7  1  0  0  0  0
  3 15  1  0  0  0  0
  5 13  1  0  0  0  0
  6 22  1  1  0  0  0
  6 10  1  0  0  0  0
  7 12  2  0  0  0  0
  8  4  1  0  0  0  0
  9  2  1  0  0  0  0
 10 15  2  0  0  0  0
 10 12  1  0  0  0  0
 11  6  1  0  0  0  0
 11  2  2  0  0  0  0
 13 25  1  1  0  0  0
 14 19  1  0  0  0  0
 15  5  1  0  0  0  0
 16  4  1  0  0  0  0
 17  3  1  0  0  0  0
 18  3  1  1  0  0  0
 18  1  1  0  0  0  0
 18 20  1  0  0  0  0
 20 13  1  0  0  0  0
 21  8  2  0  0  0  0
 21 14  1  0  0  0  0
 22 17  2  0  0  0  0
 24  8  1  0  0  0  0
 24 23  1  0  0  0  0
 25 42  1  0  0  0  0
 25 27  1  0  0  0  0
 27 26  2  0  0  0  0
 27 28  1  0  0  0  0
 28 29  1  0  0  0  0
 29 30  1  0  0  0  0
 29 32  1  0  0  0  0
 30 31  1  0  0  0  0
 32 33  1  0  0  0  0
 33 35  1  0  0  0  0
 34 33  1  0  0  0  0
 36 35  1  0  0  0  0
 36 41  1  0  0  0  0
 37 41  1  0  0  0  0
 38 40  1  0  0  0  0
 38 39  1  0  0  0  0
 39 37  1  0  0  0  0
 40 36  1  0  0  0  0
 42 43  1  0  0  0  0
M  END
>  <MODEL>
7

>  <REMARK>
 VINA RESULT:      -6.0      2.777      4.711
  Name = 
  11 active torsions:
  status: ('A' for Active; 'I' for Inactive)
    1  A    between atoms: C_2  and  C_6
    2  A    between atoms: C_2  and  O_12
    3  A    between atoms: C_2  and  C_27
    4  A    between atoms: N_4  and  C_7
    5  A    between atoms: N_4  and  C_10
    6  A    between atoms: N_4  and  C_15
    7  A    between atoms: C_6  and  C_7
    8  A    between atoms: C_11  and  C_14
    9  A    between atoms: C_14  and  C_22
   10  A    between atoms: C_15  and  C_22
   11  A    between atoms: C_19  and  C_37
                            x       y       z     vdW  Elec       q    Type
                         _______ _______ _______ _____ _____    ______ ____

>  <TORSDO>
F 11

$$$$
=
 OpenBabel10272414413D

 43 48  0  0  1  0  0  0  0  0999 V2000
  181.1920  179.0310  138.9680 C   0  0  1  0  0  0  0  0  0  0  0  0
  183.6670  173.0700  136.2350 C   0  0  0  0  0  0  0  0  0  0  0  0
  180.9650  176.5590  138.6840 N   0  0  0  0  0  0  0  0  0  0  0  0
  180.8820  181.4040  138.1900 C   0  0  0  0  0  2  0  0  0  0  0  0
  183.2140  176.7820  139.6790 N   0  0  0  0  0  2  0  0  0  0  0  0
  181.8380  174.4450  137.0830 C   0  0  2  0  0  3  0  0  0  0  0  0
  184.5650  173.6040  137.0700 C   0  0  0  0  0  3  0  0  0  0  0  0
  180.6820  181.2380  136.7110 C   0  0  0  0  0  0  0  0  0  0  0  0
  184.1070  172.0450  135.2580 C   0  0  0  0  0  1  0  0  0  0  0  0
  182.7820  175.1110  138.0130 C   0  0  0  0  0  0  0  0  0  0  0  0
  182.2590  173.4940  136.2520 C   0  0  0  0  0  3  0  0  0  0  0  0
  184.2150  174.6440  138.1000 C   0  0  0  0  0  3  0  0  0  0  0  0
  182.6770  177.6330  140.7290 C   0  0  2  0  0  3  0  0  0  0  0  0
  181.7360  178.8930  136.5210 C   0  0  0  0  0  2  0  0  0  0  0  0
  182.3320  176.1040  138.7950 C   0  0  0  0  0  0  0  0  0  0  0  0
  180.2740  180.2480  138.9680 C   0  0  0  0  0  2  0  0  0  0  0  0
  180.0360  175.8730  137.8320 C   0  0  0  0  0  3  0  0  0  0  0  0
  180.4540  177.7480  139.3870 C   0  0  1  0  0  3  0  0  0  0  0  0
  182.3200  178.9600  137.9270 C   0  0  0  0  0  2  0  0  0  0  0  0
  181.4180  178.4530  140.3660 C   0  0  2  0  0  3  0  0  0  0  0  0
  181.0970  180.1650  136.0070 C   0  0  0  0  0  3  0  0  0  0  0  0
  180.4330  174.8620  137.0610 C   0  0  0  0  0  3  0  0  0  0  0  0
  180.8890  183.2810  135.5520 F   0  0  0  0  0  0  0  0  0  0  0  0
  179.9820  182.3350  135.9850 C   0  0  0  0  0  2  0  0  0  0  0  0
  183.7750  178.4150  141.4620 C   0  0  1  0  0  3  0  0  0  0  0  0
  184.5170  179.9070  139.8100 O   0  0  0  0  0  0  0  0  0  0  0  0
  184.8210  178.9890  140.5540 C   0  0  0  0  0  0  0  0  0  0  0  0
  186.2230  178.4580  140.5420 C   0  0  0  0  0  2  0  0  0  0  0  0
  186.8790  178.6970  141.8230 N   0  0  0  0  0  0  0  0  0  0  0  0
  188.3140  178.6040  141.6100 C   0  0  0  0  0  2  0  0  0  0  0  0
  188.7140  177.1570  141.4190 C   0  0  0  0  0  1  0  0  0  0  0  0
  186.4550  177.7210  142.8350 C   0  0  0  0  0  2  0  0  0  0  0  0
  186.7600  178.1260  144.2790 C   0  0  1  0  0  3  0  0  0  0  0  0
  185.4600  178.5100  144.9590 C   0  0  0  0  0  1  0  0  0  0  0  0
  187.4070  176.9630  145.0250 C   0  0  0  0  0  2  0  0  0  0  0  0
  188.8160  177.2980  145.4810 C   0  0  2  0  0  3  0  0  0  0  0  0
  190.3250  177.3760  147.4900 C   0  0  0  0  0  2  0  0  0  0  0  0
  191.5100  177.1250  145.0200 S   0  0  0  0  0  0  0  0  0  0  0  0
  191.4320  176.6170  146.7720 C   0  0  0  0  0  2  0  0  0  0  0  0
  189.8340  176.5200  144.6600 C   0  0  0  0  0  2  0  0  0  0  0  0
  188.9610  176.9520  146.9600 C   0  0  0  0  0  2  0  0  0  0  0  0
  183.2390  179.3970  142.2920 O   0  0  0  0  0  0  0  0  0  0  0  0
  182.6930  178.7040  143.3700 C   0  0  0  0  0  1  0  0  0  0  0  0
  1 19  1  6  0  0  0
  1 18  1  0  0  0  0
  1 20  1  0  0  0  0
  2 11  2  0  0  0  0
  2  7  1  0  0  0  0
  3 15  1  0  0  0  0
  4 16  1  0  0  0  0
  5 13  1  0  0  0  0
  6 11  1  6  0  0  0
  6 10  1  0  0  0  0
  7 12  2  0  0  0  0
  8  4  1  0  0  0  0
  9  2  1  0  0  0  0
 10 12  1  0  0  0  0
 10 15  2  0  0  0  0
 13 25  1  6  0  0  0
 14 19  1  0  0  0  0
 15  5  1  0  0  0  0
 16  1  1  0  0  0  0
 17  3  1  0  0  0  0
 18  3  1  6  0  0  0
 18 20  1  0  0  0  0
 20 13  1  0  0  0  0
 21 14  1  0  0  0  0
 21  8  2  0  0  0  0
 22  6  1  0  0  0  0
 22 17  2  0  0  0  0
 23 24  1  0  0  0  0
 24  8  1  0  0  0  0
 25 42  1  0  0  0  0
 26 27  2  0  0  0  0
 27 25  1  0  0  0  0
 28 27  1  0  0  0  0
 28 29  1  0  0  0  0
 29 32  1  0  0  0  0
 30 29  1  0  0  0  0
 31 30  1  0  0  0  0
 32 33  1  0  0  0  0
 33 34  1  0  0  0  0
 33 35  1  0  0  0  0
 35 36  1  0  0  0  0
 36 41  1  0  0  0  0
 38 39  1  0  0  0  0
 39 37  1  0  0  0  0
 40 38  1  0  0  0  0
 40 36  1  0  0  0  0
 41 37  1  0  0  0  0
 42 43  1  0  0  0  0
M  END
>  <MODEL>
8

>  <REMARK>
 VINA RESULT:      -5.9      3.420      6.283
  Name = 
  11 active torsions:
  status: ('A' for Active; 'I' for Inactive)
    1  A    between atoms: C_2  and  C_6
    2  A    between atoms: C_2  and  O_12
    3  A    between atoms: C_2  and  C_27
    4  A    between atoms: N_4  and  C_7
    5  A    between atoms: N_4  and  C_10
    6  A    between atoms: N_4  and  C_15
    7  A    between atoms: C_6  and  C_7
    8  A    between atoms: C_11  and  C_14
    9  A    between atoms: C_14  and  C_22
   10  A    between atoms: C_15  and  C_22
   11  A    between atoms: C_19  and  C_37
                            x       y       z     vdW  Elec       q    Type
                         _______ _______ _______ _____ _____    ______ ____

>  <TORSDO>
F 11

$$$$
=
 OpenBabel10272414413D

 43 48  0  0  1  0  0  0  0  0999 V2000
  187.5010  177.9710  137.6870 C   0  0  1  0  0  0  0  0  0  0  0  0
  183.7410  172.2990  136.0120 C   0  0  0  0  0  0  0  0  0  0  0  0
  186.1900  176.7110  135.9740 N   0  0  0  0  0  0  0  0  0  0  0  0
  189.6090  178.4470  138.9790 C   0  0  0  0  0  2  0  0  0  0  0  0
  184.5580  176.9840  137.8070 N   0  0  0  0  0  2  0  0  0  0  0  0
  185.1930  174.1650  135.4100 C   0  0  2  0  0  3  0  0  0  0  0  0
  183.1440  172.9740  137.0000 C   0  0  0  0  0  3  0  0  0  0  0  0
  190.3930  177.1800  138.7980 C   0  0  0  0  0  0  0  0  0  0  0  0
  183.3540  170.8890  135.7620 C   0  0  0  0  0  1  0  0  0  0  0  0
  184.6040  174.9660  136.5110 C   0  0  0  0  0  0  0  0  0  0  0  0
  184.7870  172.9170  135.1840 C   0  0  0  0  0  3  0  0  0  0  0  0
  183.4630  174.4080  137.3260 C   0  0  0  0  0  3  0  0  0  0  0  0
  184.8490  178.4070  137.8690 C   0  0  2  0  0  3  0  0  0  0  0  0
  188.4030  175.6740  138.1530 C   0  0  0  0  0  2  0  0  0  0  0  0
  185.0800  176.1980  136.7440 C   0  0  0  0  0  0  0  0  0  0  0  0
  188.7930  178.7790  137.7380 C   0  0  0  0  0  2  0  0  0  0  0  0
  186.7150  175.9630  134.8680 C   0  0  0  0  0  3  0  0  0  0  0  0
  186.8670  177.9810  136.2860 C   0  0  1  0  0  3  0  0  0  0  0  0
  187.3790  176.7220  138.5750 C   0  0  0  0  0  2  0  0  0  0  0  0
  186.2670  178.8340  137.4250 C   0  0  2  0  0  3  0  0  0  0  0  0
  189.8460  175.9880  138.4840 C   0  0  0  0  0  3  0  0  0  0  0  0
  186.2530  174.7470  134.5830 C   0  0  0  0  0  3  0  0  0  0  0  0
  192.1760  177.7210  140.2450 F   0  0  0  0  0  0  0  0  0  0  0  0
  191.8700  177.2550  138.9820 C   0  0  0  0  0  2  0  0  0  0  0  0
  184.3540  179.0460  139.1730 C   0  0  1  0  0  3  0  0  0  0  0  0
  186.2470  179.3370  140.5290 O   0  0  0  0  0  0  0  0  0  0  0  0
  185.2030  178.7270  140.3660 C   0  0  0  0  0  0  0  0  0  0  0  0
  184.7970  177.6750  141.3550 C   0  0  0  0  0  2  0  0  0  0  0  0
  184.1070  178.2730  142.4930 N   0  0  0  0  0  0  0  0  0  0  0  0
  182.8710  178.8620  142.0020 C   0  0  0  0  0  2  0  0  0  0  0  0
  181.8570  178.9380  143.1230 C   0  0  0  0  0  1  0  0  0  0  0  0
  184.9320  179.2980  143.1440 C   0  0  0  0  0  2  0  0  0  0  0  0
  185.4440  178.9170  144.5350 C   0  0  1  0  0  3  0  0  0  0  0  0
  184.2670  178.8720  145.4900 C   0  0  0  0  0  1  0  0  0  0  0  0
  186.1210  177.5500  144.4880 C   0  0  0  0  0  2  0  0  0  0  0  0
  187.5770  177.6540  144.0670 C   0  0  2  0  0  3  0  0  0  0  0  0
  189.9120  177.9930  144.9330 C   0  0  0  0  0  2  0  0  0  0  0  0
  189.6250  176.6840  142.5290 S   0  0  0  0  0  0  0  0  0  0  0  0
  190.4450  176.7960  144.1570 C   0  0  0  0  0  2  0  0  0  0  0  0
  187.9790  176.4290  143.2580 C   0  0  0  0  0  2  0  0  0  0  0  0
  188.4530  177.7730  145.3100 C   0  0  0  0  0  2  0  0  0  0  0  0
  184.1800  180.4220  139.0360 O   0  0  0  0  0  0  0  0  0  0  0  0
  182.8230  180.5930  138.7720 C   0  0  0  0  0  1  0  0  0  0  0  0
  1 16  1  1  0  0  0
  1 19  1  0  0  0  0
  2  7  1  0  0  0  0
  3 15  1  0  0  0  0
  5 13  1  0  0  0  0
  6 22  1  1  0  0  0
  6 10  1  0  0  0  0
  7 12  2  0  0  0  0
  8  4  1  0  0  0  0
  8 24  1  0  0  0  0
  9  2  1  0  0  0  0
 10 15  2  0  0  0  0
 10 12  1  0  0  0  0
 11  6  1  0  0  0  0
 11  2  2  0  0  0  0
 13 25  1  1  0  0  0
 14 21  1  0  0  0  0
 14 19  1  0  0  0  0
 15  5  1  0  0  0  0
 16  4  1  0  0  0  0
 17  3  1  0  0  0  0
 18  3  1  1  0  0  0
 18 20  1  0  0  0  0
 18  1  1  0  0  0  0
 20  1  1  0  0  0  0
 20 13  1  0  0  0  0
 21  8  2  0  0  0  0
 22 17  2  0  0  0  0
 24 23  1  0  0  0  0
 25 27  1  0  0  0  0
 27 26  2  0  0  0  0
 27 28  1  0  0  0  0
 28 29  1  0  0  0  0
 29 32  1  0  0  0  0
 30 29  1  0  0  0  0
 30 31  1  0  0  0  0
 32 33  1  0  0  0  0
 33 34  1  0  0  0  0
 35 33  1  0  0  0  0
 36 35  1  0  0  0  0
 36 41  1  0  0  0  0
 37 41  1  0  0  0  0
 38 40  1  0  0  0  0
 38 39  1  0  0  0  0
 39 37  1  0  0  0  0
 40 36  1  0  0  0  0
 42 25  1  0  0  0  0
 43 42  1  0  0  0  0
M  END
>  <MODEL>
9

>  <REMARK>
 VINA RESULT:      -5.9      2.696      6.179
  Name = 
  11 active torsions:
  status: ('A' for Active; 'I' for Inactive)
    1  A    between atoms: C_2  and  C_6
    2  A    between atoms: C_2  and  O_12
    3  A    between atoms: C_2  and  C_27
    4  A    between atoms: N_4  and  C_7
    5  A    between atoms: N_4  and  C_10
    6  A    between atoms: N_4  and  C_15
    7  A    between atoms: C_6  and  C_7
    8  A    between atoms: C_11  and  C_14
    9  A    between atoms: C_14  and  C_22
   10  A    between atoms: C_15  and  C_22
   11  A    between atoms: C_19  and  C_37
                            x       y       z     vdW  Elec       q    Type
                         _______ _______ _______ _____ _____    ______ ____

>  <TORSDO>
F 11

$$$$
