=
 OpenBabel10272414493D

 37 42  0  0  1  0  0  0  0  0999 V2000
  187.3180  178.3530  139.7880 C   0  0  1  0  0  3  0  0  0  0  0  0
  188.7190  176.5140  139.0460 O   0  0  0  0  0  0  0  0  0  0  0  0
  187.6730  177.7740  141.1490 C   0  0  2  0  0  3  0  0  0  0  0  0
  188.1010  177.7190  138.6440 C   0  0  1  0  0  3  0  0  0  0  0  0
  187.2070  178.6390  142.1490 O   0  0  0  0  0  0  0  0  0  0  0  0
  187.0590  177.4490  137.5810 C   0  0  0  0  0  2  0  0  0  0  0  0
  189.7200  176.8020  140.0140 C   0  0  2  0  0  3  0  0  0  0  0  0
  185.2090  179.3060  140.0670 C   0  0  0  0  0  2  0  0  0  0  0  0
  185.8020  178.1290  138.0900 C   0  0  0  0  0  2  0  0  0  0  0  0
  185.9040  178.1380  139.5380 N   0  0  1  0  0  0  0  0  0  0  0  0
  189.1780  177.5460  141.2580 C   0  0  2  0  0  3  0  0  0  0  0  0
  185.8710  178.2640  142.3600 C   0  0  2  0  0  3  0  0  0  0  0  0
  184.8820  179.1420  141.5650 C   0  0  0  0  0  2  0  0  0  0  0  0
  184.3180  178.7870  144.2460 C   0  0  0  0  0  3  0  0  0  0  0  0
  185.5520  178.2810  143.8190 C   0  0  0  0  0  0  0  0  0  0  0  0
  186.4600  177.7790  144.7630 C   0  0  0  0  0  3  0  0  0  0  0  0
  187.0190  177.3090  147.0330 F   0  0  0  0  0  0  0  0  0  0  0  0
  184.9050  178.3010  146.5460 C   0  0  0  0  0  3  0  0  0  0  0  0
  186.1380  177.7930  146.1240 C   0  0  0  0  0  0  0  0  0  0  0  0
  183.9950  178.7960  145.6060 C   0  0  0  0  0  3  0  0  0  0  0  0
  192.0060  176.5120  139.0870 C   0  0  2  0  0  3  0  0  0  0  0  0
  190.9180  177.5240  139.4020 C   0  0  2  0  0  3  0  0  0  0  0  0
  192.1230  177.3960  140.3120 C   0  0  0  0  0  2  0  0  0  0  0  0
  192.8140  177.0170  138.0690 O   0  0  0  0  0  0  0  0  0  0  0  0
  193.3970  175.8890  137.4890 C   0  0  0  0  0  1  0  0  0  0  0  0
  190.4030  175.4620  142.3120 O   0  0  0  0  0  0  0  0  0  0  0  0
  189.5340  176.6240  142.7760 S   0  0  1  0  0  0  0  0  0  0  0  0
  190.6530  177.6830  143.7270 C   0  0  2  0  0  3  0  0  0  0  0  0
  189.9520  176.1850  145.5260 O   0  0  0  0  0  0  0  0  0  0  0  0
  190.4730  177.4640  145.2260 C   0  0  1  0  0  0  0  0  0  0  0  0
  191.2730  176.4480  145.9440 C   0  0  2  0  0  0  0  0  0  0  0  0
  189.8600  178.4590  145.9930 O   0  0  0  0  0  1  0  0  0  0  0  0
  192.2020  175.7150  145.2020 O   0  0  0  0  0  1  0  0  0  0  0  0
  192.4300  175.8800  148.0400 C   0  0  0  0  0  2  0  0  0  0  0  0
  191.4100  176.4840  147.4340 C   0  0  0  0  0  3  0  0  0  0  0  0
  191.3980  179.9430  143.9560 O   0  0  0  0  0  1  0  0  0  0  0  0
  190.4010  179.1450  143.3940 C   0  0  0  0  0  2  0  0  0  0  0  0
  1  3  1  0  0  0  0
  2  7  1  0  0  0  0
  3 11  1  0  0  0  0
  3  5  1  0  0  0  0
  4  2  1  0  0  0  0
  4  1  1  0  0  0  0
  5 12  1  0  0  0  0
  6  9  1  0  0  0  0
  6  4  1  0  0  0  0
  7 11  1  0  0  0  0
  8 13  1  0  0  0  0
  9 10  1  0  0  0  0
 10  1  1  0  0  0  0
 10  8  1  0  0  0  0
 11 27  1  0  0  0  0
 12 15  1  0  0  0  0
 13 12  1  0  0  0  0
 14 20  1  0  0  0  0
 15 14  2  0  0  0  0
 15 16  1  0  0  0  0
 16 19  2  0  0  0  0
 19 18  1  0  0  0  0
 19 17  1  0  0  0  0
 20 18  2  0  0  0  0
 21 22  1  0  0  0  0
 21 23  1  0  0  0  0
 22  7  1  0  0  0  0
 22 23  1  0  0  0  0
 24 21  1  0  0  0  0
 25 24  1  0  0  0  0
 26 27  2  0  0  0  0
 27 28  1  0  0  0  0
 28 30  1  0  0  0  0
 29 31  1  0  0  0  0
 30 29  1  0  0  0  0
 30 31  1  0  0  0  0
 30 32  1  0  0  0  0
 31 35  1  0  0  0  0
 33 31  1  0  0  0  0
 35 34  2  0  0  0  0
 37 28  1  0  0  0  0
 37 36  1  0  0  0  0
M  END
>  <MODEL>
1

>  <REMARK>
 VINA RESULT:      -8.3      0.000      0.000
  Name = 
  8 active torsions:
  status: ('A' for Active; 'I' for Inactive)
    1  A    between atoms: O_3  and  C_21
    2  A    between atoms: C_6  and  C_31
    3  A    between atoms: C_11  and  C_33
    4  A    between atoms: C_17  and  C_23
    5  A    between atoms: C_20  and  C_25
    6  A    between atoms: C_27  and  C_33
    7  A    between atoms: C_29  and  S_36
    8  A    between atoms: C_33  and  S_36
                            x       y       z     vdW  Elec       q    Type
                         _______ _______ _______ _____ _____    ______ ____

>  <TORSDO>
F 8

$$$$
=
 OpenBabel10272414493D

 37 42  0  0  1  0  0  0  0  0999 V2000
  187.7340  178.3400  139.6400 C   0  0  1  0  0  3  0  0  0  0  0  0
  189.2020  176.5120  139.0070 O   0  0  0  0  0  0  0  0  0  0  0  0
  187.9630  177.7420  141.0210 C   0  0  2  0  0  3  0  0  0  0  0  0
  188.6220  177.7220  138.5660 C   0  0  1  0  0  3  0  0  0  0  0  0
  187.4040  178.5930  141.9850 O   0  0  0  0  0  0  0  0  0  0  0  0
  187.6830  177.4670  137.4070 C   0  0  0  0  0  2  0  0  0  0  0  0
  190.1080  176.7870  140.0680 C   0  0  2  0  0  3  0  0  0  0  0  0
  185.6060  179.2870  139.7360 C   0  0  0  0  0  2  0  0  0  0  0  0
  186.3830  178.1380  137.8060 C   0  0  0  0  0  2  0  0  0  0  0  0
  186.3500  178.1270  139.2580 N   0  0  1  0  0  0  0  0  0  0  0  0
  189.4520  177.5140  141.2660 C   0  0  2  0  0  3  0  0  0  0  0  0
  186.0540  178.2140  142.0660 C   0  0  2  0  0  3  0  0  0  0  0  0
  185.1430  179.1030  141.1940 C   0  0  0  0  0  2  0  0  0  0  0  0
  186.4360  177.6680  144.4730 C   0  0  0  0  0  3  0  0  0  0  0  0
  185.6010  178.2110  143.4890 C   0  0  0  0  0  0  0  0  0  0  0  0
  184.3640  178.7610  143.8540 C   0  0  0  0  0  3  0  0  0  0  0  0
  182.7650  179.2880  145.5430 F   0  0  0  0  0  0  0  0  0  0  0  0
  184.7980  178.2140  146.1740 C   0  0  0  0  0  3  0  0  0  0  0  0
  183.9620  178.7580  145.1940 C   0  0  0  0  0  0  0  0  0  0  0  0
  186.0350  177.6700  145.8130 C   0  0  0  0  0  3  0  0  0  0  0  0
  192.4200  176.5010  139.2050 C   0  0  2  0  0  3  0  0  0  0  0  0
  191.3560  177.5190  139.5800 C   0  0  2  0  0  3  0  0  0  0  0  0
  192.5160  177.2520  140.5180 C   0  0  0  0  0  2  0  0  0  0  0  0
  193.2880  177.0730  138.2760 O   0  0  0  0  0  0  0  0  0  0  0  0
  193.4990  176.0710  137.3280 C   0  0  0  0  0  1  0  0  0  0  0  0
  190.5840  175.4210  142.4030 O   0  0  0  0  0  0  0  0  0  0  0  0
  189.6660  176.5710  142.7970 S   0  0  1  0  0  0  0  0  0  0  0  0
  190.6820  177.6220  143.8670 C   0  0  2  0  0  3  0  0  0  0  0  0
  189.4610  176.5610  145.6990 O   0  0  0  0  0  0  0  0  0  0  0  0
  190.0560  177.7610  145.2520 C   0  0  1  0  0  0  0  0  0  0  0  0
  190.5960  177.0090  146.4050 C   0  0  2  0  0  0  0  0  0  0  0  0
  189.2470  178.8680  145.5270 O   0  0  0  0  0  1  0  0  0  0  0  0
  191.7010  176.1860  146.1800 O   0  0  0  0  0  1  0  0  0  0  0  0
  189.0150  177.4820  148.2300 C   0  0  0  0  0  2  0  0  0  0  0  0
  190.2770  177.4170  147.8100 C   0  0  0  0  0  3  0  0  0  0  0  0
  191.7820  179.7420  143.9680 O   0  0  0  0  0  1  0  0  0  0  0  0
  190.8480  178.9980  143.2440 C   0  0  0  0  0  2  0  0  0  0  0  0
  1  3  1  0  0  0  0
  2  7  1  0  0  0  0
  3 11  1  0  0  0  0
  3  5  1  0  0  0  0
  4  2  1  0  0  0  0
  4  1  1  0  0  0  0
  5 12  1  0  0  0  0
  6  9  1  0  0  0  0
  6  4  1  0  0  0  0
  7 11  1  0  0  0  0
  8 13  1  0  0  0  0
  9 10  1  0  0  0  0
 10  1  1  0  0  0  0
 10  8  1  0  0  0  0
 11 27  1  0  0  0  0
 12 15  1  0  0  0  0
 13 12  1  0  0  0  0
 14 20  1  0  0  0  0
 15 16  1  0  0  0  0
 15 14  2  0  0  0  0
 16 19  2  0  0  0  0
 19 17  1  0  0  0  0
 19 18  1  0  0  0  0
 20 18  2  0  0  0  0
 21 22  1  0  0  0  0
 21 23  1  0  0  0  0
 22  7  1  0  0  0  0
 22 23  1  0  0  0  0
 24 21  1  0  0  0  0
 25 24  1  0  0  0  0
 26 27  2  0  0  0  0
 27 28  1  0  0  0  0
 28 30  1  0  0  0  0
 29 31  1  0  0  0  0
 30 32  1  0  0  0  0
 30 29  1  0  0  0  0
 30 31  1  0  0  0  0
 31 35  1  0  0  0  0
 33 31  1  0  0  0  0
 35 34  2  0  0  0  0
 37 28  1  0  0  0  0
 37 36  1  0  0  0  0
M  END
>  <MODEL>
2

>  <REMARK>
 VINA RESULT:      -7.5      1.076      1.407
  Name = 
  8 active torsions:
  status: ('A' for Active; 'I' for Inactive)
    1  A    between atoms: O_3  and  C_21
    2  A    between atoms: C_6  and  C_31
    3  A    between atoms: C_11  and  C_33
    4  A    between atoms: C_17  and  C_23
    5  A    between atoms: C_20  and  C_25
    6  A    between atoms: C_27  and  C_33
    7  A    between atoms: C_29  and  S_36
    8  A    between atoms: C_33  and  S_36
                            x       y       z     vdW  Elec       q    Type
                         _______ _______ _______ _____ _____    ______ ____

>  <TORSDO>
F 8

$$$$
=
 OpenBabel10272414493D

 37 42  0  0  1  0  0  0  0  0999 V2000
  189.6440  176.8330  142.5880 C   0  0  1  0  0  3  0  0  0  0  0  0
  191.0910  177.9430  140.9860 O   0  0  0  0  0  0  0  0  0  0  0  0
  188.5760  177.5530  141.7770 C   0  0  2  0  0  3  0  0  0  0  0  0
  191.0340  176.9320  141.9710 C   0  0  1  0  0  3  0  0  0  0  0  0
  187.3120  177.1100  142.1920 O   0  0  0  0  0  0  0  0  0  0  0  0
  191.9370  177.2760  143.1350 C   0  0  0  0  0  2  0  0  0  0  0  0
  190.2660  177.5740  139.8880 C   0  0  2  0  0  3  0  0  0  0  0  0
  188.7580  176.6650  144.7380 C   0  0  0  0  0  2  0  0  0  0  0  0
  191.0540  177.1460  144.3620 C   0  0  0  0  0  2  0  0  0  0  0  0
  189.6990  177.4170  143.9170 N   0  0  1  0  0  0  0  0  0  0  0  0
  188.7920  177.3200  140.2840 C   0  0  2  0  0  3  0  0  0  0  0  0
  186.9890  177.9180  143.2950 C   0  0  2  0  0  3  0  0  0  0  0  0
  187.3310  177.2400  144.6380 C   0  0  0  0  0  2  0  0  0  0  0  0
  184.9020  178.7000  144.4230 C   0  0  0  0  0  3  0  0  0  0  0  0
  185.5500  178.3150  143.2430 C   0  0  0  0  0  0  0  0  0  0  0  0
  184.8480  178.3270  142.0290 C   0  0  0  0  0  3  0  0  0  0  0  0
  182.8280  178.7210  140.8250 F   0  0  0  0  0  0  0  0  0  0  0  0
  182.8600  179.0950  143.1810 C   0  0  0  0  0  3  0  0  0  0  0  0
  183.5030  178.7120  141.9990 C   0  0  0  0  0  0  0  0  0  0  0  0
  183.5590  179.0890  144.3910 C   0  0  0  0  0  3  0  0  0  0  0  0
  192.1600  176.8290  138.4650 C   0  0  2  0  0  3  0  0  0  0  0  0
  190.8490  176.4020  139.1020 C   0  0  2  0  0  3  0  0  0  0  0  0
  190.9020  176.7420  137.6260 C   0  0  0  0  0  2  0  0  0  0  0  0
  192.9470  175.6990  138.2450 O   0  0  0  0  0  0  0  0  0  0  0  0
  193.5680  175.9360  137.0170 C   0  0  0  0  0  1  0  0  0  0  0  0
  188.5450  178.9670  138.2390 O   0  0  0  0  0  0  0  0  0  0  0  0
  187.6720  178.3910  139.3460 S   0  0  1  0  0  0  0  0  0  0  0  0
  186.5360  177.2650  138.4950 C   0  0  2  0  0  3  0  0  0  0  0  0
  188.0420  175.8140  137.2300 O   0  0  0  0  0  0  0  0  0  0  0  0
  187.0900  176.8530  137.1340 C   0  0  1  0  0  0  0  0  0  0  0  0
  186.8260  175.5050  136.5860 C   0  0  2  0  0  0  0  0  0  0  0  0
  187.5020  177.8440  136.2380 O   0  0  0  0  0  1  0  0  0  0  0  0
  186.0440  174.6380  137.3510 O   0  0  0  0  0  1  0  0  0  0  0  0
  187.7540  174.1950  134.7220 C   0  0  0  0  0  2  0  0  0  0  0  0
  187.0040  175.2170  135.1280 C   0  0  0  0  0  3  0  0  0  0  0  0
  185.2590  179.2810  138.6390 O   0  0  0  0  0  1  0  0  0  0  0  0
  185.1800  177.9260  138.3130 C   0  0  0  0  0  2  0  0  0  0  0  0
  1 10  1  0  0  0  0
  2  4  1  0  0  0  0
  3  5  1  0  0  0  0
  3  1  1  0  0  0  0
  4  1  1  0  0  0  0
  4  6  1  0  0  0  0
  5 12  1  0  0  0  0
  6  9  1  0  0  0  0
  7 11  1  0  0  0  0
  7  2  1  0  0  0  0
 10  9  1  0  0  0  0
 10  8  1  0  0  0  0
 11  3  1  0  0  0  0
 12 13  1  0  0  0  0
 13  8  1  0  0  0  0
 15 12  1  0  0  0  0
 15 14  2  0  0  0  0
 16 15  1  0  0  0  0
 17 19  1  0  0  0  0
 18 20  2  0  0  0  0
 19 16  2  0  0  0  0
 19 18  1  0  0  0  0
 20 14  1  0  0  0  0
 21 22  1  0  0  0  0
 22  7  1  0  0  0  0
 23 21  1  0  0  0  0
 23 22  1  0  0  0  0
 24 21  1  0  0  0  0
 25 24  1  0  0  0  0
 26 27  2  0  0  0  0
 27 11  1  0  0  0  0
 28 27  1  0  0  0  0
 30 29  1  0  0  0  0
 30 28  1  0  0  0  0
 31 30  1  0  0  0  0
 31 29  1  0  0  0  0
 31 33  1  0  0  0  0
 32 30  1  0  0  0  0
 34 35  2  0  0  0  0
 35 31  1  0  0  0  0
 37 28  1  0  0  0  0
 37 36  1  0  0  0  0
M  END
>  <MODEL>
3

>  <REMARK>
 VINA RESULT:      -6.8      2.737      6.255
  Name = 
  8 active torsions:
  status: ('A' for Active; 'I' for Inactive)
    1  A    between atoms: O_3  and  C_21
    2  A    between atoms: C_6  and  C_31
    3  A    between atoms: C_11  and  C_33
    4  A    between atoms: C_17  and  C_23
    5  A    between atoms: C_20  and  C_25
    6  A    between atoms: C_27  and  C_33
    7  A    between atoms: C_29  and  S_36
    8  A    between atoms: C_33  and  S_36
                            x       y       z     vdW  Elec       q    Type
                         _______ _______ _______ _____ _____    ______ ____

>  <TORSDO>
F 8

$$$$
=
 OpenBabel10272414493D

 37 42  0  0  1  0  0  0  0  0999 V2000
  189.1040  177.0850  141.1310 C   0  0  1  0  0  3  0  0  0  0  0  0
  188.7840  178.6330  139.2880 O   0  0  0  0  0  0  0  0  0  0  0  0
  187.8870  177.8260  141.6640 C   0  0  2  0  0  3  0  0  0  0  0  0
  189.4450  177.4510  139.6910 C   0  0  1  0  0  3  0  0  0  0  0  0
  187.4280  177.1780  142.8190 O   0  0  0  0  0  0  0  0  0  0  0  0
  190.9440  177.6620  139.7030 C   0  0  0  0  0  2  0  0  0  0  0  0
  187.3830  178.3930  139.2460 C   0  0  2  0  0  3  0  0  0  0  0  0
  190.2810  176.4130  143.0280 C   0  0  0  0  0  2  0  0  0  0  0  0
  191.3880  177.2040  141.0800 C   0  0  0  0  0  2  0  0  0  0  0  0
  190.2520  177.4070  141.9610 N   0  0  1  0  0  0  0  0  0  0  0  0
  186.8010  177.9090  140.5960 C   0  0  2  0  0  3  0  0  0  0  0  0
  188.1910  177.7190  143.8670 C   0  0  2  0  0  3  0  0  0  0  0  0
  189.4060  176.8370  144.2230 C   0  0  0  0  0  2  0  0  0  0  0  0
  187.9010  177.8990  146.3410 C   0  0  0  0  0  3  0  0  0  0  0  0
  187.3300  177.9590  145.0640 C   0  0  0  0  0  0  0  0  0  0  0  0
  185.9690  178.2640  144.9260 C   0  0  0  0  0  3  0  0  0  0  0  0
  183.8660  178.7900  145.9210 F   0  0  0  0  0  0  0  0  0  0  0  0
  185.7560  178.4350  147.3330 C   0  0  0  0  0  3  0  0  0  0  0  0
  185.1820  178.4970  146.0590 C   0  0  0  0  0  0  0  0  0  0  0  0
  187.1150  178.1370  147.4730 C   0  0  0  0  0  3  0  0  0  0  0  0
  187.4890  178.0520  136.7880 C   0  0  2  0  0  3  0  0  0  0  0  0
  186.9940  177.4640  138.0980 C   0  0  2  0  0  3  0  0  0  0  0  0
  186.0260  178.1660  137.1670 C   0  0  0  0  0  2  0  0  0  0  0  0
  187.6520  177.0230  135.8620 O   0  0  0  0  0  0  0  0  0  0  0  0
  187.8900  177.6750  134.6500 C   0  0  0  0  0  1  0  0  0  0  0  0
  185.2030  179.9130  139.9740 O   0  0  0  0  0  0  0  0  0  0  0  0
  185.4820  179.0110  141.1700 S   0  0  1  0  0  0  0  0  0  0  0  0
  184.0120  177.9640  141.3080 C   0  0  2  0  0  3  0  0  0  0  0  0
  183.5220  177.6640  138.9320 O   0  0  0  0  0  0  0  0  0  0  0  0
  183.0520  178.2110  140.1480 C   0  0  1  0  0  0  0  0  0  0  0  0
  182.3610  177.0830  139.4840 C   0  0  2  0  0  0  0  0  0  0  0  0
  182.5200  179.4900  139.9620 O   0  0  0  0  0  1  0  0  0  0  0  0
  182.6090  175.7970  139.9690 O   0  0  0  0  0  1  0  0  0  0  0  0
  180.4400  176.2860  138.1690 C   0  0  0  0  0  2  0  0  0  0  0  0
  181.1460  177.3120  138.6410 C   0  0  0  0  0  3  0  0  0  0  0  0
  183.5330  179.5440  143.0370 O   0  0  0  0  0  1  0  0  0  0  0  0
  183.2980  178.2320  142.6230 C   0  0  0  0  0  2  0  0  0  0  0  0
  1  3  1  0  0  0  0
  1 10  1  0  0  0  0
  2  4  1  0  0  0  0
  3  5  1  0  0  0  0
  4  6  1  0  0  0  0
  4  1  1  0  0  0  0
  5 12  1  0  0  0  0
  6  9  1  0  0  0  0
  7  2  1  0  0  0  0
  7 11  1  0  0  0  0
  8 13  1  0  0  0  0
  9 10  1  0  0  0  0
 10  8  1  0  0  0  0
 11 27  1  0  0  0  0
 11  3  1  0  0  0  0
 12 13  1  0  0  0  0
 12 15  1  0  0  0  0
 14 20  1  0  0  0  0
 15 14  2  0  0  0  0
 16 15  1  0  0  0  0
 16 19  2  0  0  0  0
 17 19  1  0  0  0  0
 18 20  2  0  0  0  0
 19 18  1  0  0  0  0
 21 23  1  0  0  0  0
 21 22  1  0  0  0  0
 22  7  1  0  0  0  0
 23 22  1  0  0  0  0
 24 21  1  0  0  0  0
 25 24  1  0  0  0  0
 26 27  2  0  0  0  0
 27 28  1  0  0  0  0
 28 37  1  0  0  0  0
 29 31  1  0  0  0  0
 29 30  1  0  0  0  0
 30 28  1  0  0  0  0
 31 33  1  0  0  0  0
 31 30  1  0  0  0  0
 32 30  1  0  0  0  0
 34 35  2  0  0  0  0
 35 31  1  0  0  0  0
 37 36  1  0  0  0  0
M  END
>  <MODEL>
4

>  <REMARK>
 VINA RESULT:      -6.8      2.881      6.551
  Name = 
  8 active torsions:
  status: ('A' for Active; 'I' for Inactive)
    1  A    between atoms: O_3  and  C_21
    2  A    between atoms: C_6  and  C_31
    3  A    between atoms: C_11  and  C_33
    4  A    between atoms: C_17  and  C_23
    5  A    between atoms: C_20  and  C_25
    6  A    between atoms: C_27  and  C_33
    7  A    between atoms: C_29  and  S_36
    8  A    between atoms: C_33  and  S_36
                            x       y       z     vdW  Elec       q    Type
                         _______ _______ _______ _____ _____    ______ ____

>  <TORSDO>
F 8

$$$$
=
 OpenBabel10272414493D

 37 42  0  0  1  0  0  0  0  0999 V2000
  186.6530  177.8380  145.3990 C   0  0  1  0  0  3  0  0  0  0  0  0
  188.6660  178.7660  146.3900 O   0  0  0  0  0  0  0  0  0  0  0  0
  187.4150  178.1480  144.1190 C   0  0  2  0  0  3  0  0  0  0  0  0
  187.4940  178.0250  146.6570 C   0  0  1  0  0  3  0  0  0  0  0  0
  186.7170  177.6070  143.0300 O   0  0  0  0  0  0  0  0  0  0  0  0
  186.5900  178.7870  147.6020 C   0  0  0  0  0  2  0  0  0  0  0  0
  189.5130  178.0090  145.5340 C   0  0  2  0  0  3  0  0  0  0  0  0
  184.4020  178.0380  144.8260 C   0  0  0  0  0  2  0  0  0  0  0  0
  185.2380  178.8040  146.9150 C   0  0  0  0  0  2  0  0  0  0  0  0
  185.5050  178.7230  145.4900 N   0  0  1  0  0  0  0  0  0  0  0  0
  188.8390  177.6060  144.2000 C   0  0  2  0  0  3  0  0  0  0  0  0
  185.7730  178.5860  142.6810 C   0  0  2  0  0  3  0  0  0  0  0  0
  184.3900  178.3180  143.3100 C   0  0  0  0  0  2  0  0  0  0  0  0
  184.4730  179.1350  140.6200 C   0  0  0  0  0  3  0  0  0  0  0  0
  185.6740  178.7050  141.1950 C   0  0  0  0  0  0  0  0  0  0  0  0
  186.7730  178.4130  140.3730 C   0  0  0  0  0  3  0  0  0  0  0  0
  187.7260  178.2570  138.1930 F   0  0  0  0  0  0  0  0  0  0  0  0
  185.4610  178.9700  138.4140 C   0  0  0  0  0  3  0  0  0  0  0  0
  186.6640  178.5410  138.9840 C   0  0  0  0  0  0  0  0  0  0  0  0
  184.3670  179.2670  139.2320 C   0  0  0  0  0  3  0  0  0  0  0  0
  191.2860  177.2580  147.1020 C   0  0  2  0  0  3  0  0  0  0  0  0
  190.1170  176.8010  146.2480 C   0  0  2  0  0  3  0  0  0  0  0  0
  191.5380  176.5750  145.7730 C   0  0  0  0  0  2  0  0  0  0  0  0
  191.4750  176.3440  148.1390 O   0  0  0  0  0  0  0  0  0  0  0  0
  192.7320  175.7880  147.8950 C   0  0  0  0  0  1  0  0  0  0  0  0
  190.9430  178.9850  143.4070 O   0  0  0  0  0  0  0  0  0  0  0  0
  189.7890  178.2120  142.7820 S   0  0  1  0  0  0  0  0  0  0  0  0
  190.5610  176.7410  142.0610 C   0  0  2  0  0  3  0  0  0  0  0  0
  190.6750  178.0380  139.9930 O   0  0  0  0  0  0  0  0  0  0  0  0
  190.4510  176.7550  140.5390 C   0  0  1  0  0  0  0  0  0  0  0  0
  191.6320  177.0450  139.6970 C   0  0  2  0  0  0  0  0  0  0  0  0
  189.3650  176.1210  139.9270 O   0  0  0  0  0  1  0  0  0  0  0  0
  192.8440  177.2880  140.3470 O   0  0  0  0  0  1  0  0  0  0  0  0
  192.7580  176.1930  137.6820 C   0  0  0  0  0  2  0  0  0  0  0  0
  191.6540  176.6800  138.2460 C   0  0  0  0  0  3  0  0  0  0  0  0
  190.8560  174.6770  143.2310 O   0  0  0  0  0  1  0  0  0  0  0  0
  189.9030  175.4840  142.6060 C   0  0  0  0  0  2  0  0  0  0  0  0
  1 10  1  0  0  0  0
  1  4  1  0  0  0  0
  2  4  1  0  0  0  0
  3 11  1  0  0  0  0
  3  1  1  0  0  0  0
  4  6  1  0  0  0  0
  5  3  1  0  0  0  0
  7 22  1  0  0  0  0
  7  2  1  0  0  0  0
  8 10  1  0  0  0  0
  9  6  1  0  0  0  0
 10  9  1  0  0  0  0
 11  7  1  0  0  0  0
 12  5  1  0  0  0  0
 12 13  1  0  0  0  0
 13  8  1  0  0  0  0
 14 15  1  0  0  0  0
 15 12  1  0  0  0  0
 16 15  2  0  0  0  0
 17 19  1  0  0  0  0
 18 19  2  0  0  0  0
 18 20  1  0  0  0  0
 19 16  1  0  0  0  0
 20 14  2  0  0  0  0
 21 24  1  0  0  0  0
 22 21  1  0  0  0  0
 23 22  1  0  0  0  0
 23 21  1  0  0  0  0
 25 24  1  0  0  0  0
 27 26  2  0  0  0  0
 27 11  1  0  0  0  0
 28 37  1  0  0  0  0
 28 27  1  0  0  0  0
 29 30  1  0  0  0  0
 30 28  1  0  0  0  0
 31 29  1  0  0  0  0
 31 33  1  0  0  0  0
 31 30  1  0  0  0  0
 32 30  1  0  0  0  0
 34 35  2  0  0  0  0
 35 31  1  0  0  0  0
 37 36  1  0  0  0  0
M  END
>  <MODEL>
5

>  <REMARK>
 VINA RESULT:      -6.7      2.230      6.389
  Name = 
  8 active torsions:
  status: ('A' for Active; 'I' for Inactive)
    1  A    between atoms: O_3  and  C_21
    2  A    between atoms: C_6  and  C_31
    3  A    between atoms: C_11  and  C_33
    4  A    between atoms: C_17  and  C_23
    5  A    between atoms: C_20  and  C_25
    6  A    between atoms: C_27  and  C_33
    7  A    between atoms: C_29  and  S_36
    8  A    between atoms: C_33  and  S_36
                            x       y       z     vdW  Elec       q    Type
                         _______ _______ _______ _____ _____    ______ ____

>  <TORSDO>
F 8

$$$$
=
 OpenBabel10272414493D

 37 42  0  0  1  0  0  0  0  0999 V2000
  186.2360  177.9660  139.5440 C   0  0  1  0  0  3  0  0  0  0  0  0
  185.8880  179.6010  141.3050 O   0  0  0  0  0  0  0  0  0  0  0  0
  187.6450  177.9860  140.1190 C   0  0  2  0  0  3  0  0  0  0  0  0
  185.2350  178.7520  140.3840 C   0  0  1  0  0  3  0  0  0  0  0  0
  188.3960  176.9650  139.5190 O   0  0  0  0  0  0  0  0  0  0  0  0
  184.4560  179.5660  139.3740 C   0  0  0  0  0  2  0  0  0  0  0  0
  186.5770  178.8100  142.2650 C   0  0  2  0  0  3  0  0  0  0  0  0
  186.5100  177.4480  137.2880 C   0  0  0  0  0  2  0  0  0  0  0  0
  184.9100  179.0440  138.0240 C   0  0  0  0  0  2  0  0  0  0  0  0
  186.2610  178.5470  138.2140 N   0  0  1  0  0  0  0  0  0  0  0  0
  187.6050  177.8380  141.6370 C   0  0  2  0  0  3  0  0  0  0  0  0
  188.8930  177.5290  138.3330 C   0  0  2  0  0  3  0  0  0  0  0  0
  188.0180  177.1870  137.1090 C   0  0  0  0  0  2  0  0  0  0  0  0
  190.6780  176.5460  136.8880 C   0  0  0  0  0  3  0  0  0  0  0  0
  190.3110  177.1110  138.1150 C   0  0  0  0  0  0  0  0  0  0  0  0
  191.2800  177.2970  139.1120 C   0  0  0  0  0  3  0  0  0  0  0  0
  193.5380  177.0890  139.8510 F   0  0  0  0  0  0  0  0  0  0  0  0
  192.9670  176.3440  137.6580 C   0  0  0  0  0  3  0  0  0  0  0  0
  192.6050  176.9090  138.8840 C   0  0  0  0  0  0  0  0  0  0  0  0
  192.0040  176.1630  136.6600 C   0  0  0  0  0  3  0  0  0  0  0  0
  185.4530  178.8970  144.4770 C   0  0  2  0  0  3  0  0  0  0  0  0
  185.6170  178.0850  143.2050 C   0  0  2  0  0  3  0  0  0  0  0  0
  186.3420  177.6700  144.4690 C   0  0  0  0  0  2  0  0  0  0  0  0
  184.2270  178.5810  145.0630 O   0  0  0  0  0  0  0  0  0  0  0  0
  184.5170  178.4130  146.4180 C   0  0  0  0  0  1  0  0  0  0  0  0
  189.1390  179.4370  143.0680 O   0  0  0  0  0  0  0  0  0  0  0  0
  189.2640  178.1240  142.3070 S   0  0  1  0  0  0  0  0  0  0  0  0
  189.4820  176.8670  143.5930 C   0  0  2  0  0  3  0  0  0  0  0  0
  190.0560  178.3730  145.4290 O   0  0  0  0  0  0  0  0  0  0  0  0
  190.5180  177.3100  144.6220 C   0  0  1  0  0  0  0  0  0  0  0  0
  190.2690  177.1350  146.0690 C   0  0  2  0  0  0  0  0  0  0  0  0
  191.8400  177.5120  144.2160 O   0  0  0  0  0  1  0  0  0  0  0  0
  189.0650  176.5390  146.4510 O   0  0  0  0  0  1  0  0  0  0  0  0
  191.9820  176.0630  147.4730 C   0  0  0  0  0  2  0  0  0  0  0  0
  191.3940  177.1820  147.0560 C   0  0  0  0  0  3  0  0  0  0  0  0
  190.5500  175.7820  141.7490 O   0  0  0  0  0  1  0  0  0  0  0  0
  189.9160  175.5500  142.9700 C   0  0  0  0  0  2  0  0  0  0  0  0
  1  3  1  0  0  0  0
  1  4  1  0  0  0  0
  2  7  1  0  0  0  0
  3 11  1  0  0  0  0
  4  2  1  0  0  0  0
  5  3  1  0  0  0  0
  6  4  1  0  0  0  0
  7 22  1  0  0  0  0
  8 10  1  0  0  0  0
  9 10  1  0  0  0  0
  9  6  1  0  0  0  0
 10  1  1  0  0  0  0
 11  7  1  0  0  0  0
 11 27  1  0  0  0  0
 12  5  1  0  0  0  0
 13  8  1  0  0  0  0
 13 12  1  0  0  0  0
 14 15  1  0  0  0  0
 15 12  1  0  0  0  0
 15 16  2  0  0  0  0
 18 19  2  0  0  0  0
 19 16  1  0  0  0  0
 19 17  1  0  0  0  0
 20 14  2  0  0  0  0
 20 18  1  0  0  0  0
 21 24  1  0  0  0  0
 22 23  1  0  0  0  0
 22 21  1  0  0  0  0
 23 21  1  0  0  0  0
 24 25  1  0  0  0  0
 27 26  2  0  0  0  0
 27 28  1  0  0  0  0
 28 30  1  0  0  0  0
 29 31  1  0  0  0  0
 30 29  1  0  0  0  0
 30 31  1  0  0  0  0
 31 33  1  0  0  0  0
 31 35  1  0  0  0  0
 32 30  1  0  0  0  0
 35 34  2  0  0  0  0
 36 37  1  0  0  0  0
 37 28  1  0  0  0  0
M  END
>  <MODEL>
6

>  <REMARK>
 VINA RESULT:      -6.2      2.121      6.170
  Name = 
  8 active torsions:
  status: ('A' for Active; 'I' for Inactive)
    1  A    between atoms: O_3  and  C_21
    2  A    between atoms: C_6  and  C_31
    3  A    between atoms: C_11  and  C_33
    4  A    between atoms: C_17  and  C_23
    5  A    between atoms: C_20  and  C_25
    6  A    between atoms: C_27  and  C_33
    7  A    between atoms: C_29  and  S_36
    8  A    between atoms: C_33  and  S_36
                            x       y       z     vdW  Elec       q    Type
                         _______ _______ _______ _____ _____    ______ ____

>  <TORSDO>
F 8

$$$$
=
 OpenBabel10272414493D

 37 42  0  0  1  0  0  0  0  0999 V2000
  187.0700  177.6810  146.4950 C   0  0  1  0  0  3  0  0  0  0  0  0
  189.3570  178.4350  146.8070 O   0  0  0  0  0  0  0  0  0  0  0  0
  187.4030  178.0070  145.0460 C   0  0  2  0  0  3  0  0  0  0  0  0
  188.2800  177.7540  147.4180 C   0  0  1  0  0  3  0  0  0  0  0  0
  186.3550  177.5630  144.2270 O   0  0  0  0  0  0  0  0  0  0  0  0
  187.7850  178.5230  148.6250 C   0  0  0  0  0  2  0  0  0  0  0  0
  189.8270  177.6710  145.7040 C   0  0  2  0  0  3  0  0  0  0  0  0
  184.7750  178.0450  146.6850 C   0  0  0  0  0  2  0  0  0  0  0  0
  186.2890  178.6550  148.4120 C   0  0  0  0  0  2  0  0  0  0  0  0
  186.0800  178.6290  146.9750 N   0  0  1  0  0  0  0  0  0  0  0  0
  188.7340  177.3760  144.6490 C   0  0  2  0  0  3  0  0  0  0  0  0
  185.4230  178.6130  144.2280 C   0  0  2  0  0  3  0  0  0  0  0  0
  184.2990  178.3990  145.2620 C   0  0  0  0  0  2  0  0  0  0  0  0
  185.7370  178.9930  141.7790 C   0  0  0  0  0  3  0  0  0  0  0  0
  184.8630  178.8110  142.8570 C   0  0  0  0  0  0  0  0  0  0  0  0
  183.4790  178.7950  142.6340 C   0  0  0  0  0  3  0  0  0  0  0  0
  181.6360  178.9580  141.1300 F   0  0  0  0  0  0  0  0  0  0  0  0
  183.8510  179.1540  140.2670 C   0  0  0  0  0  3  0  0  0  0  0  0
  182.9740  178.9720  141.3410 C   0  0  0  0  0  0  0  0  0  0  0  0
  185.2320  179.1640  140.4860 C   0  0  0  0  0  3  0  0  0  0  0  0
  191.6390  176.7540  147.1340 C   0  0  2  0  0  3  0  0  0  0  0  0
  190.5380  176.3960  146.1520 C   0  0  2  0  0  3  0  0  0  0  0  0
  191.9830  176.4190  145.6970 C   0  0  0  0  0  2  0  0  0  0  0  0
  191.9000  175.6500  147.9460 O   0  0  0  0  0  0  0  0  0  0  0  0
  193.0950  175.9650  148.5950 C   0  0  0  0  0  1  0  0  0  0  0  0
  189.9620  179.2910  143.3130 O   0  0  0  0  0  0  0  0  0  0  0  0
  189.2220  177.9930  143.0160 S   0  0  1  0  0  0  0  0  0  0  0  0
  190.5070  176.8530  142.4410 C   0  0  2  0  0  3  0  0  0  0  0  0
  190.4440  176.0830  140.1230 O   0  0  0  0  0  0  0  0  0  0  0  0
  190.8640  177.1220  140.9820 C   0  0  1  0  0  0  0  0  0  0  0  0
  189.8060  177.3320  139.9700 C   0  0  2  0  0  0  0  0  0  0  0  0
  192.1530  177.5590  140.6650 O   0  0  0  0  0  1  0  0  0  0  0  0
  188.4790  177.2880  140.4030 O   0  0  0  0  0  1  0  0  0  0  0  0
  190.3030  177.2430  137.5620 C   0  0  0  0  0  2  0  0  0  0  0  0
  190.1120  177.9780  138.6550 C   0  0  0  0  0  3  0  0  0  0  0  0
  191.0150  174.6600  143.2460 O   0  0  0  0  0  1  0  0  0  0  0  0
  190.0390  175.4150  142.5930 C   0  0  0  0  0  2  0  0  0  0  0  0
  1 10  1  0  0  0  0
  1  4  1  0  0  0  0
  2  4  1  0  0  0  0
  3  1  1  0  0  0  0
  4  6  1  0  0  0  0
  5 12  1  0  0  0  0
  5  3  1  0  0  0  0
  7 22  1  0  0  0  0
  7  2  1  0  0  0  0
  8 10  1  0  0  0  0
  9  6  1  0  0  0  0
 10  9  1  0  0  0  0
 11  3  1  0  0  0  0
 11  7  1  0  0  0  0
 12 13  1  0  0  0  0
 13  8  1  0  0  0  0
 14 15  1  0  0  0  0
 15 12  1  0  0  0  0
 16 15  2  0  0  0  0
 17 19  1  0  0  0  0
 18 20  1  0  0  0  0
 18 19  2  0  0  0  0
 19 16  1  0  0  0  0
 20 14  2  0  0  0  0
 21 24  1  0  0  0  0
 22 21  1  0  0  0  0
 23 22  1  0  0  0  0
 23 21  1  0  0  0  0
 24 25  1  0  0  0  0
 27 26  2  0  0  0  0
 27 11  1  0  0  0  0
 28 37  1  0  0  0  0
 28 27  1  0  0  0  0
 29 30  1  0  0  0  0
 30 28  1  0  0  0  0
 31 29  1  0  0  0  0
 31 33  1  0  0  0  0
 31 30  1  0  0  0  0
 32 30  1  0  0  0  0
 34 35  2  0  0  0  0
 35 31  1  0  0  0  0
 37 36  1  0  0  0  0
M  END
>  <MODEL>
7

>  <REMARK>
 VINA RESULT:      -5.8      2.502      6.543
  Name = 
  8 active torsions:
  status: ('A' for Active; 'I' for Inactive)
    1  A    between atoms: O_3  and  C_21
    2  A    between atoms: C_6  and  C_31
    3  A    between atoms: C_11  and  C_33
    4  A    between atoms: C_17  and  C_23
    5  A    between atoms: C_20  and  C_25
    6  A    between atoms: C_27  and  C_33
    7  A    between atoms: C_29  and  S_36
    8  A    between atoms: C_33  and  S_36
                            x       y       z     vdW  Elec       q    Type
                         _______ _______ _______ _____ _____    ______ ____

>  <TORSDO>
F 8

$$$$
=
 OpenBabel10272414493D

 37 42  0  0  1  0  0  0  0  0999 V2000
  188.5870  177.1340  138.4880 C   0  0  1  0  0  3  0  0  0  0  0  0
  187.0710  178.8930  137.7760 O   0  0  0  0  0  0  0  0  0  0  0  0
  188.3610  177.8020  139.8370 C   0  0  2  0  0  3  0  0  0  0  0  0
  187.6730  177.6730  137.3930 C   0  0  1  0  0  3  0  0  0  0  0  0
  188.9490  177.0160  140.8390 O   0  0  0  0  0  0  0  0  0  0  0  0
  188.5930  177.8860  136.2100 C   0  0  0  0  0  2  0  0  0  0  0  0
  186.1830  178.6560  138.8610 C   0  0  2  0  0  3  0  0  0  0  0  0
  190.7360  176.2410  138.6080 C   0  0  0  0  0  2  0  0  0  0  0  0
  189.9120  177.2660  136.6290 C   0  0  0  0  0  2  0  0  0  0  0  0
  189.9610  177.3570  138.0770 N   0  0  1  0  0  0  0  0  0  0  0  0
  186.8700  178.0090  140.0880 C   0  0  2  0  0  3  0  0  0  0  0  0
  190.2910  177.4290  140.8820 C   0  0  2  0  0  3  0  0  0  0  0  0
  191.2130  176.5150  140.0480 C   0  0  0  0  0  2  0  0  0  0  0  0
  190.7770  178.7650  142.9350 C   0  0  0  0  0  3  0  0  0  0  0  0
  190.7600  177.5200  142.2970 C   0  0  0  0  0  0  0  0  0  0  0  0
  191.1620  176.3740  142.9990 C   0  0  0  0  0  3  0  0  0  0  0  0
  191.9770  175.3690  145.0020 F   0  0  0  0  0  0  0  0  0  0  0  0
  191.6050  177.7250  144.9610 C   0  0  0  0  0  3  0  0  0  0  0  0
  191.5880  176.4780  144.3280 C   0  0  0  0  0  0  0  0  0  0  0  0
  191.1990  178.8680  144.2650 C   0  0  0  0  0  3  0  0  0  0  0  0
  183.7200  178.7570  138.5600 C   0  0  2  0  0  3  0  0  0  0  0  0
  184.9470  177.8710  138.4290 C   0  0  2  0  0  3  0  0  0  0  0  0
  184.0050  177.6970  139.6040 C   0  0  0  0  0  2  0  0  0  0  0  0
  182.7340  178.2990  137.6870 O   0  0  0  0  0  0  0  0  0  0  0  0
  181.8400  179.3650  137.5750 C   0  0  0  0  0  1  0  0  0  0  0  0
  185.4540  179.9120  141.2420 O   0  0  0  0  0  0  0  0  0  0  0  0
  186.6510  179.0300  141.5690 S   0  0  1  0  0  0  0  0  0  0  0  0
  186.0500  177.8950  142.8460 C   0  0  2  0  0  3  0  0  0  0  0  0
  184.4330  179.7050  143.1330 O   0  0  0  0  0  0  0  0  0  0  0  0
  185.0220  178.5760  143.7450 C   0  0  1  0  0  0  0  0  0  0  0  0
  183.5900  178.6000  143.3750 C   0  0  2  0  0  0  0  0  0  0  0  0
  185.3460  178.8290  145.0810 O   0  0  0  0  0  1  0  0  0  0  0  0
  183.2190  177.9660  142.1870 O   0  0  0  0  0  1  0  0  0  0  0  0
  181.2450  178.7280  144.1080 C   0  0  0  0  0  2  0  0  0  0  0  0
  182.5350  178.8930  144.3950 C   0  0  0  0  0  3  0  0  0  0  0  0
  187.5140  176.0730  143.3500 O   0  0  0  0  0  1  0  0  0  0  0  0
  187.2100  177.3920  143.6900 C   0  0  0  0  0  2  0  0  0  0  0  0
  1  3  1  0  0  0  0
  2  7  1  0  0  0  0
  3 11  1  0  0  0  0
  3  5  1  0  0  0  0
  4  2  1  0  0  0  0
  4  1  1  0  0  0  0
  5 12  1  0  0  0  0
  6  9  1  0  0  0  0
  6  4  1  0  0  0  0
  7 11  1  0  0  0  0
  8 13  1  0  0  0  0
  9 10  1  0  0  0  0
 10  1  1  0  0  0  0
 10  8  1  0  0  0  0
 11 27  1  0  0  0  0
 12 15  1  0  0  0  0
 13 12  1  0  0  0  0
 14 20  1  0  0  0  0
 15 14  2  0  0  0  0
 15 16  1  0  0  0  0
 16 19  2  0  0  0  0
 19 18  1  0  0  0  0
 19 17  1  0  0  0  0
 20 18  2  0  0  0  0
 21 23  1  0  0  0  0
 22 21  1  0  0  0  0
 22  7  1  0  0  0  0
 22 23  1  0  0  0  0
 24 21  1  0  0  0  0
 25 24  1  0  0  0  0
 26 27  2  0  0  0  0
 27 28  1  0  0  0  0
 28 37  1  0  0  0  0
 28 30  1  0  0  0  0
 29 31  1  0  0  0  0
 29 30  1  0  0  0  0
 30 32  1  0  0  0  0
 31 30  1  0  0  0  0
 31 35  1  0  0  0  0
 33 31  1  0  0  0  0
 34 35  2  0  0  0  0
 36 37  1  0  0  0  0
M  END
>  <MODEL>
8

>  <REMARK>
 VINA RESULT:      -5.6      2.660      6.452
  Name = 
  8 active torsions:
  status: ('A' for Active; 'I' for Inactive)
    1  A    between atoms: O_3  and  C_21
    2  A    between atoms: C_6  and  C_31
    3  A    between atoms: C_11  and  C_33
    4  A    between atoms: C_17  and  C_23
    5  A    between atoms: C_20  and  C_25
    6  A    between atoms: C_27  and  C_33
    7  A    between atoms: C_29  and  S_36
    8  A    between atoms: C_33  and  S_36
                            x       y       z     vdW  Elec       q    Type
                         _______ _______ _______ _____ _____    ______ ____

>  <TORSDO>
F 8

$$$$
=
 OpenBabel10272414493D

 37 42  0  0  1  0  0  0  0  0999 V2000
  188.8340  177.1130  140.8530 C   0  0  1  0  0  3  0  0  0  0  0  0
  188.4020  178.5020  138.9080 O   0  0  0  0  0  0  0  0  0  0  0  0
  187.5340  177.7550  141.3150 C   0  0  2  0  0  3  0  0  0  0  0  0
  189.1710  177.4230  139.3990 C   0  0  1  0  0  3  0  0  0  0  0  0
  187.1160  177.1350  142.5010 O   0  0  0  0  0  0  0  0  0  0  0  0
  190.6390  177.7890  139.4240 C   0  0  0  0  0  2  0  0  0  0  0  0
  187.0340  178.1170  138.8570 C   0  0  2  0  0  3  0  0  0  0  0  0
  190.0270  176.6850  142.8090 C   0  0  0  0  0  2  0  0  0  0  0  0
  191.0940  177.4660  140.8350 C   0  0  0  0  0  2  0  0  0  0  0  0
  189.9220  177.6030  141.6810 N   0  0  1  0  0  0  0  0  0  0  0  0
  186.4720  177.6590  140.2240 C   0  0  2  0  0  3  0  0  0  0  0  0
  187.7930  177.8160  143.5250 C   0  0  2  0  0  3  0  0  0  0  0  0
  189.0830  177.0890  143.9590 C   0  0  0  0  0  2  0  0  0  0  0  0
  187.3700  177.8430  145.9870 C   0  0  0  0  0  3  0  0  0  0  0  0
  186.8840  178.0390  144.6890 C   0  0  0  0  0  0  0  0  0  0  0  0
  185.5600  178.4610  144.5000 C   0  0  0  0  0  3  0  0  0  0  0  0
  183.4480  179.0820  145.4170 F   0  0  0  0  0  0  0  0  0  0  0  0
  185.2160  178.4770  146.8980 C   0  0  0  0  0  3  0  0  0  0  0  0
  184.7270  178.6750  145.6030 C   0  0  0  0  0  0  0  0  0  0  0  0
  186.5380  178.0620  147.0890 C   0  0  0  0  0  3  0  0  0  0  0  0
  187.2550  177.6290  136.4320 C   0  0  2  0  0  3  0  0  0  0  0  0
  186.7710  177.0830  137.7640 C   0  0  2  0  0  3  0  0  0  0  0  0
  185.7760  177.6300  136.7610 C   0  0  0  0  0  2  0  0  0  0  0  0
  187.5430  176.5620  135.5810 O   0  0  0  0  0  0  0  0  0  0  0  0
  187.8060  177.1570  134.3460 C   0  0  0  0  0  1  0  0  0  0  0  0
  185.3940  180.0650  140.2650 O   0  0  0  0  0  0  0  0  0  0  0  0
  185.0340  178.6510  140.7020 S   0  0  1  0  0  0  0  0  0  0  0  0
  183.7090  178.1460  139.5750 C   0  0  2  0  0  3  0  0  0  0  0  0
  182.8390  180.3120  138.8530 O   0  0  0  0  0  0  0  0  0  0  0  0
  182.5580  179.1460  139.5990 C   0  0  1  0  0  0  0  0  0  0  0  0
  181.8140  179.4750  138.3630 C   0  0  2  0  0  0  0  0  0  0  0  0
  181.9470  179.4540  140.8190 O   0  0  0  0  0  1  0  0  0  0  0  0
  182.1970  178.8270  137.1870 O   0  0  0  0  0  1  0  0  0  0  0  0
  180.0750  180.9730  137.4770 C   0  0  0  0  0  2  0  0  0  0  0  0
  180.4650  180.1210  138.4230 C   0  0  0  0  0  3  0  0  0  0  0  0
  183.0720  175.9700  138.8170 O   0  0  0  0  0  1  0  0  0  0  0  0
  183.1930  176.7680  139.9560 C   0  0  0  0  0  2  0  0  0  0  0  0
  1  3  1  0  0  0  0
  1 10  1  0  0  0  0
  2  4  1  0  0  0  0
  3  5  1  0  0  0  0
  4  6  1  0  0  0  0
  4  1  1  0  0  0  0
  5 12  1  0  0  0  0
  6  9  1  0  0  0  0
  7  2  1  0  0  0  0
  7 11  1  0  0  0  0
  8 13  1  0  0  0  0
  9 10  1  0  0  0  0
 10  8  1  0  0  0  0
 11 27  1  0  0  0  0
 11  3  1  0  0  0  0
 12 13  1  0  0  0  0
 12 15  1  0  0  0  0
 14 20  1  0  0  0  0
 15 14  2  0  0  0  0
 16 15  1  0  0  0  0
 16 19  2  0  0  0  0
 17 19  1  0  0  0  0
 18 20  2  0  0  0  0
 19 18  1  0  0  0  0
 21 23  1  0  0  0  0
 21 22  1  0  0  0  0
 22  7  1  0  0  0  0
 23 22  1  0  0  0  0
 24 21  1  0  0  0  0
 25 24  1  0  0  0  0
 26 27  2  0  0  0  0
 28 30  1  0  0  0  0
 28 37  1  0  0  0  0
 28 27  1  0  0  0  0
 29 30  1  0  0  0  0
 30 32  1  0  0  0  0
 31 35  1  0  0  0  0
 31 29  1  0  0  0  0
 31 30  1  0  0  0  0
 33 31  1  0  0  0  0
 34 35  2  0  0  0  0
 36 37  1  0  0  0  0
M  END
>  <MODEL>
9

>  <REMARK>
 VINA RESULT:      -5.5      3.173      7.099
  Name = 
  8 active torsions:
  status: ('A' for Active; 'I' for Inactive)
    1  A    between atoms: O_3  and  C_21
    2  A    between atoms: C_6  and  C_31
    3  A    between atoms: C_11  and  C_33
    4  A    between atoms: C_17  and  C_23
    5  A    between atoms: C_20  and  C_25
    6  A    between atoms: C_27  and  C_33
    7  A    between atoms: C_29  and  S_36
    8  A    between atoms: C_33  and  S_36
                            x       y       z     vdW  Elec       q    Type
                         _______ _______ _______ _____ _____    ______ ____

>  <TORSDO>
F 8

$$$$
