=
 OpenBabel10272400473D

 25 28  0  0  0  0  0  0  0  0999 V2000
  187.1400  177.9030  145.6670 C   0  0  0  0  0  0  0  0  0  0  0  0
  188.4260  177.4830  145.3290 C   0  0  0  0  0  0  0  0  0  0  0  0
  187.6770  177.9010  148.0120 C   0  0  0  0  0  3  0  0  0  0  0  0
  186.0190  178.1960  144.9250 C   0  0  0  0  0  0  0  0  0  0  0  0
  183.4910  178.9160  144.0580 C   0  0  0  0  0  3  0  0  0  0  0  0
  188.9400  177.4890  147.6930 N   0  0  0  0  0  0  0  0  0  0  0  0
  185.0520  178.5590  145.8400 C   0  0  0  0  0  0  0  0  0  0  0  0
  183.7700  178.9260  145.4380 C   0  0  0  0  0  3  0  0  0  0  0  0
  190.6470  176.8510  146.1080 C   0  0  0  0  0  0  0  0  0  0  0  0
  191.6430  176.6190  147.1930 C   0  0  0  0  0  1  0  0  0  0  0  0
  188.8260  177.2670  144.0070 C   0  0  0  0  0  3  0  0  0  0  0  0
  184.4840  178.5440  143.1240 C   0  0  0  0  0  3  0  0  0  0  0  0
  186.7720  178.1090  146.9770 C   0  0  0  0  0  0  0  0  0  0  0  0
  185.5170  178.5020  147.0720 O   0  0  0  0  0  0  0  0  0  0  0  0
  191.0340  176.6390  144.7810 C   0  0  0  0  0  3  0  0  0  0  0  0
  185.7720  178.1770  143.5540 C   0  0  0  0  0  3  0  0  0  0  0  0
  190.1320  176.8440  143.7300 C   0  0  0  0  0  0  0  0  0  0  0  0
  189.3400  177.2750  146.3970 C   0  0  0  0  0  0  0  0  0  0  0  0
  190.5780  176.6080  142.3540 C   0  0  0  0  0  3  0  0  0  0  0  0
  190.1630  177.3420  141.3730 N   0  0  0  0  0  0  0  0  0  0  0  0
  190.6080  177.0920  140.0120 C   0  0  0  0  0  2  0  0  0  0  0  0
  189.4240  177.0200  139.0560 C   0  0  0  0  0  2  0  0  0  0  0  0
  188.6650  178.3040  139.0380 C   0  0  0  0  0  0  0  0  0  0  0  0
  187.4540  178.4240  139.7730 N   0  0  0  0  0  1  0  0  0  0  0  0
  189.0870  179.2780  138.3620 O   0  0  0  0  0  0  0  0  0  0  0  0
  1 13  1  0  0  0  0
  2  1  2  0  0  0  0
  2 18  1  0  0  0  0
  4  1  1  0  0  0  0
  4  7  1  0  0  0  0
  5  8  1  0  0  0  0
  6  3  1  0  0  0  0
  7 14  1  0  0  0  0
  8  7  2  0  0  0  0
  9 18  1  0  0  0  0
  9 10  1  0  0  0  0
 11  2  1  0  0  0  0
 12 16  1  0  0  0  0
 12  5  2  0  0  0  0
 13 14  1  0  0  0  0
 13  3  2  0  0  0  0
 15  9  2  0  0  0  0
 16  4  2  0  0  0  0
 17 11  2  0  0  0  0
 17 15  1  0  0  0  0
 18  6  2  0  0  0  0
 19 17  1  0  0  0  0
 20 19  2  0  0  0  0
 21 20  1  0  0  0  0
 22 21  1  0  0  0  0
 23 22  1  0  0  0  0
 23 24  1  0  0  0  0
 25 23  2  0  0  0  0
M  END
>  <MODEL>
1

>  <REMARK>
 VINA RESULT:     -10.6      0.000      0.000
  Name = 
  4 active torsions:
  status: ('A' for Active; 'I' for Inactive)
    1  A    between atoms: C_2  and  C_25
    2  A    between atoms: C_6  and  C_23
    3  A    between atoms: N_15  and  C_21
    4  A    between atoms: C_21  and  C_25
                            x       y       z     vdW  Elec       q    Type
                         _______ _______ _______ _____ _____    ______ ____

>  <TORSDO>
F 4

$$$$
=
 OpenBabel10272400473D

 25 28  0  0  0  0  0  0  0  0999 V2000
  185.5120  178.2640  144.7340 C   0  0  0  0  0  0  0  0  0  0  0  0
  186.8400  177.8460  144.6490 C   0  0  0  0  0  0  0  0  0  0  0  0
  185.6810  178.5590  147.1160 C   0  0  0  0  0  3  0  0  0  0  0  0
  184.5150  178.4330  143.8000 C   0  0  0  0  0  0  0  0  0  0  0  0
  182.1420  178.9660  142.4790 C   0  0  0  0  0  3  0  0  0  0  0  0
  186.9830  178.1500  147.0450 N   0  0  0  0  0  0  0  0  0  0  0  0
  183.4140  178.8730  144.5070 C   0  0  0  0  0  0  0  0  0  0  0  0
  182.2050  179.1490  143.8730 C   0  0  0  0  0  3  0  0  0  0  0  0
  188.9210  177.3790  145.8280 C   0  0  0  0  0  0  0  0  0  0  0  0
  189.7410  177.3090  147.0710 C   0  0  0  0  0  1  0  0  0  0  0  0
  187.4400  177.4850  143.4400 C   0  0  0  0  0  3  0  0  0  0  0  0
  183.2720  178.5160  141.7590 C   0  0  0  0  0  3  0  0  0  0  0  0
  184.9440  178.6130  145.9390 C   0  0  0  0  0  0  0  0  0  0  0  0
  183.6850  178.9770  145.7930 O   0  0  0  0  0  0  0  0  0  0  0  0
  189.5100  177.0220  144.6100 C   0  0  0  0  0  3  0  0  0  0  0  0
  184.4830  178.2420  142.4210 C   0  0  0  0  0  3  0  0  0  0  0  0
  188.7790  177.0730  143.4180 C   0  0  0  0  0  0  0  0  0  0  0  0
  187.5800  177.7950  145.8600 C   0  0  0  0  0  0  0  0  0  0  0  0
  189.4340  176.6870  142.1650 C   0  0  0  0  0  3  0  0  0  0  0  0
  189.8130  177.5720  141.3000 N   0  0  0  0  0  0  0  0  0  0  0  0
  190.4560  177.1750  140.0580 C   0  0  0  0  0  2  0  0  0  0  0  0
  189.4360  177.0500  138.9330 C   0  0  0  0  0  2  0  0  0  0  0  0
  188.6170  178.2900  138.8060 C   0  0  0  0  0  0  0  0  0  0  0  0
  187.2650  178.2970  139.2450 N   0  0  0  0  0  1  0  0  0  0  0  0
  189.1170  179.3270  138.2970 O   0  0  0  0  0  0  0  0  0  0  0  0
  1 13  1  0  0  0  0
  2  1  2  0  0  0  0
  2 18  1  0  0  0  0
  4  7  1  0  0  0  0
  4  1  1  0  0  0  0
  5  8  1  0  0  0  0
  6  3  1  0  0  0  0
  7 14  1  0  0  0  0
  8  7  2  0  0  0  0
  9 18  1  0  0  0  0
  9 10  1  0  0  0  0
 11  2  1  0  0  0  0
 12 16  1  0  0  0  0
 12  5  2  0  0  0  0
 13  3  2  0  0  0  0
 14 13  1  0  0  0  0
 15  9  2  0  0  0  0
 16  4  2  0  0  0  0
 17 11  2  0  0  0  0
 17 15  1  0  0  0  0
 18  6  2  0  0  0  0
 19 17  1  0  0  0  0
 20 19  2  0  0  0  0
 21 20  1  0  0  0  0
 22 21  1  0  0  0  0
 23 22  1  0  0  0  0
 23 24  1  0  0  0  0
 25 23  2  0  0  0  0
M  END
>  <MODEL>
2

>  <REMARK>
 VINA RESULT:     -10.3      1.146      1.674
  Name = 
  4 active torsions:
  status: ('A' for Active; 'I' for Inactive)
    1  A    between atoms: C_2  and  C_25
    2  A    between atoms: C_6  and  C_23
    3  A    between atoms: N_15  and  C_21
    4  A    between atoms: C_21  and  C_25
                            x       y       z     vdW  Elec       q    Type
                         _______ _______ _______ _____ _____    ______ ____

>  <TORSDO>
F 4

$$$$
=
 OpenBabel10272400473D

 25 28  0  0  0  0  0  0  0  0999 V2000
  187.2310  177.8910  145.7710 C   0  0  0  0  0  0  0  0  0  0  0  0
  188.5320  177.4740  145.4920 C   0  0  0  0  0  0  0  0  0  0  0  0
  187.6700  177.9170  148.1370 C   0  0  0  0  0  3  0  0  0  0  0  0
  186.1400  178.1690  144.9800 C   0  0  0  0  0  0  0  0  0  0  0  0
  183.6460  178.8650  144.0020 C   0  0  0  0  0  3  0  0  0  0  0  0
  188.9470  177.5090  147.8750 N   0  0  0  0  0  0  0  0  0  0  0  0
  185.1340  178.5370  145.8510 C   0  0  0  0  0  0  0  0  0  0  0  0
  183.8680  178.8920  145.3920 C   0  0  0  0  0  3  0  0  0  0  0  0
  190.7220  176.8630  146.3690 C   0  0  0  0  0  0  0  0  0  0  0  0
  191.6740  176.6490  147.4970 C   0  0  0  0  0  1  0  0  0  0  0  0
  188.9870  177.2460  144.1900 C   0  0  0  0  0  3  0  0  0  0  0  0
  184.6790  178.4890  143.1140 C   0  0  0  0  0  3  0  0  0  0  0  0
  186.8080  178.1080  147.0630 C   0  0  0  0  0  0  0  0  0  0  0  0
  185.5480  178.4950  147.1020 O   0  0  0  0  0  0  0  0  0  0  0  0
  191.1650  176.6390  145.0610 C   0  0  0  0  0  3  0  0  0  0  0  0
  185.9510  178.1340  143.6000 C   0  0  0  0  0  3  0  0  0  0  0  0
  190.3060  176.8280  143.9720 C   0  0  0  0  0  0  0  0  0  0  0  0
  189.4020  177.2830  146.5990 C   0  0  0  0  0  0  0  0  0  0  0  0
  190.8100  176.5790  142.6180 C   0  0  0  0  0  3  0  0  0  0  0  0
  190.7000  177.4650  141.6820 N   0  0  0  0  0  0  0  0  0  0  0  0
  191.1980  177.2020  140.3420 C   0  0  0  0  0  2  0  0  0  0  0  0
  190.1290  177.4970  139.2970 C   0  0  0  0  0  2  0  0  0  0  0  0
  189.8360  176.2920  138.4680 C   0  0  0  0  0  0  0  0  0  0  0  0
  188.6300  176.2190  137.7200 N   0  0  0  0  0  1  0  0  0  0  0  0
  190.6500  175.3310  138.4420 O   0  0  0  0  0  0  0  0  0  0  0  0
  1 13  1  0  0  0  0
  2  1  2  0  0  0  0
  2 18  1  0  0  0  0
  4  1  1  0  0  0  0
  4  7  1  0  0  0  0
  5  8  1  0  0  0  0
  6  3  1  0  0  0  0
  7 14  1  0  0  0  0
  8  7  2  0  0  0  0
  9 18  1  0  0  0  0
  9 10  1  0  0  0  0
 11  2  1  0  0  0  0
 12 16  1  0  0  0  0
 12  5  2  0  0  0  0
 13 14  1  0  0  0  0
 13  3  2  0  0  0  0
 15  9  2  0  0  0  0
 16  4  2  0  0  0  0
 17 11  2  0  0  0  0
 17 15  1  0  0  0  0
 18  6  2  0  0  0  0
 19 17  1  0  0  0  0
 20 19  2  0  0  0  0
 21 20  1  0  0  0  0
 22 21  1  0  0  0  0
 23 22  1  0  0  0  0
 24 23  1  0  0  0  0
 25 23  2  0  0  0  0
M  END
>  <MODEL>
3

>  <REMARK>
 VINA RESULT:     -10.2      1.163      1.212
  Name = 
  4 active torsions:
  status: ('A' for Active; 'I' for Inactive)
    1  A    between atoms: C_2  and  C_25
    2  A    between atoms: C_6  and  C_23
    3  A    between atoms: N_15  and  C_21
    4  A    between atoms: C_21  and  C_25
                            x       y       z     vdW  Elec       q    Type
                         _______ _______ _______ _____ _____    ______ ____

>  <TORSDO>
F 4

$$$$
=
 OpenBabel10272400473D

 25 28  0  0  0  0  0  0  0  0999 V2000
  187.8280  177.7030  145.7430 C   0  0  0  0  0  0  0  0  0  0  0  0
  186.9360  178.0340  144.7230 C   0  0  0  0  0  0  0  0  0  0  0  0
  186.1630  178.1170  147.4300 C   0  0  0  0  0  3  0  0  0  0  0  0
  189.1440  177.3010  145.7510 C   0  0  0  0  0  0  0  0  0  0  0  0
  191.6920  176.4810  146.4550 C   0  0  0  0  0  3  0  0  0  0  0  0
  185.2820  178.4430  146.4390 N   0  0  0  0  0  0  0  0  0  0  0  0
  189.4710  177.1250  147.0800 C   0  0  0  0  0  0  0  0  0  0  0  0
  190.7430  176.7140  147.4690 C   0  0  0  0  0  3  0  0  0  0  0  0
  184.6890  178.7580  144.1190 C   0  0  0  0  0  0  0  0  0  0  0  0
  183.2980  179.1640  144.4730 C   0  0  0  0  0  1  0  0  0  0  0  0
  187.2920  178.0030  143.3710 C   0  0  0  0  0  3  0  0  0  0  0  0
  191.3530  176.6620  145.0950 C   0  0  0  0  0  3  0  0  0  0  0  0
  187.4520  177.7430  147.0670 C   0  0  0  0  0  0  0  0  0  0  0  0
  188.4440  177.3940  147.8620 O   0  0  0  0  0  0  0  0  0  0  0  0
  185.0580  178.7220  142.7700 C   0  0  0  0  0  3  0  0  0  0  0  0
  190.0610  177.0780  144.7260 C   0  0  0  0  0  3  0  0  0  0  0  0
  186.3520  178.3470  142.3910 C   0  0  0  0  0  0  0  0  0  0  0  0
  185.6230  178.4150  145.1090 C   0  0  0  0  0  0  0  0  0  0  0  0
  186.6980  178.3250  140.9670 C   0  0  0  0  0  3  0  0  0  0  0  0
  187.8970  178.0490  140.5660 N   0  0  0  0  0  0  0  0  0  0  0  0
  188.2270  178.0370  139.1500 C   0  0  0  0  0  2  0  0  0  0  0  0
  189.7360  178.0890  138.9430 C   0  0  0  0  0  2  0  0  0  0  0  0
  190.4240  177.0050  139.7020 C   0  0  0  0  0  0  0  0  0  0  0  0
  191.0280  177.2890  140.9570 N   0  0  0  0  0  1  0  0  0  0  0  0
  190.4820  175.8410  139.2260 O   0  0  0  0  0  0  0  0  0  0  0  0
  1  4  1  0  0  0  0
  1 13  2  0  0  0  0
  2 18  1  0  0  0  0
  2  1  1  0  0  0  0
  4  7  1  0  0  0  0
  5  8  1  0  0  0  0
  6  3  2  0  0  0  0
  7  8  2  0  0  0  0
  7 14  1  0  0  0  0
  9 10  1  0  0  0  0
  9 18  2  0  0  0  0
 11  2  2  0  0  0  0
 12  5  2  0  0  0  0
 13  3  1  0  0  0  0
 13 14  1  0  0  0  0
 15  9  1  0  0  0  0
 16 12  1  0  0  0  0
 16  4  2  0  0  0  0
 17 15  2  0  0  0  0
 17 11  1  0  0  0  0
 18  6  1  0  0  0  0
 19 17  1  0  0  0  0
 20 19  2  0  0  0  0
 21 20  1  0  0  0  0
 22 21  1  0  0  0  0
 22 23  1  0  0  0  0
 23 24  1  0  0  0  0
 25 23  2  0  0  0  0
M  END
>  <MODEL>
4

>  <REMARK>
 VINA RESULT:      -9.6      1.604      4.727
  Name = 
  4 active torsions:
  status: ('A' for Active; 'I' for Inactive)
    1  A    between atoms: C_2  and  C_25
    2  A    between atoms: C_6  and  C_23
    3  A    between atoms: N_15  and  C_21
    4  A    between atoms: C_21  and  C_25
                            x       y       z     vdW  Elec       q    Type
                         _______ _______ _______ _____ _____    ______ ____

>  <TORSDO>
F 4

$$$$
=
 OpenBabel10272400473D

 25 28  0  0  0  0  0  0  0  0999 V2000
  187.8440  177.6800  145.5210 C   0  0  0  0  0  0  0  0  0  0  0  0
  187.0070  178.0160  144.4570 C   0  0  0  0  0  0  0  0  0  0  0  0
  186.0820  178.0500  147.1170 C   0  0  0  0  0  3  0  0  0  0  0  0
  189.1620  177.2930  145.5970 C   0  0  0  0  0  0  0  0  0  0  0  0
  191.6760  176.4930  146.4320 C   0  0  0  0  0  3  0  0  0  0  0  0
  185.2530  178.3800  146.0830 N   0  0  0  0  0  0  0  0  0  0  0  0
  189.4160  177.1010  146.9400 C   0  0  0  0  0  0  0  0  0  0  0  0
  190.6700  176.6990  147.3940 C   0  0  0  0  0  3  0  0  0  0  0  0
  184.7880  178.7220  143.7380 C   0  0  0  0  0  0  0  0  0  0  0  0
  183.3750  179.1070  144.0190 C   0  0  0  0  0  1  0  0  0  0  0  0
  187.4380  178.0090  143.1270 C   0  0  0  0  0  3  0  0  0  0  0  0
  191.4130  176.6900  145.0570 C   0  0  0  0  0  3  0  0  0  0  0  0
  187.3940  177.6960  146.8220 C   0  0  0  0  0  0  0  0  0  0  0  0
  188.3430  177.3470  147.6670 O   0  0  0  0  0  0  0  0  0  0  0  0
  185.2320  178.7110  142.4110 C   0  0  0  0  0  3  0  0  0  0  0  0
  190.1380  177.0970  144.6220 C   0  0  0  0  0  3  0  0  0  0  0  0
  186.5500  178.3560  142.1010 C   0  0  0  0  0  0  0  0  0  0  0  0
  185.6690  178.3760  144.7740 C   0  0  0  0  0  0  0  0  0  0  0  0
  186.9750  178.3590  140.6980 C   0  0  0  0  0  3  0  0  0  0  0  0
  188.2270  178.3360  140.3710 N   0  0  0  0  0  0  0  0  0  0  0  0
  188.6350  178.3460  138.9750 C   0  0  0  0  0  2  0  0  0  0  0  0
  187.6430  177.5760  138.1130 C   0  0  0  0  0  2  0  0  0  0  0  0
  187.2100  178.3820  136.9350 C   0  0  0  0  0  0  0  0  0  0  0  0
  186.4060  177.7890  135.9240 N   0  0  0  0  0  1  0  0  0  0  0  0
  187.5680  179.5840  136.8270 O   0  0  0  0  0  0  0  0  0  0  0  0
  1  4  1  0  0  0  0
  1 13  2  0  0  0  0
  2 18  1  0  0  0  0
  2  1  1  0  0  0  0
  4  7  1  0  0  0  0
  5  8  1  0  0  0  0
  6  3  2  0  0  0  0
  7  8  2  0  0  0  0
  7 14  1  0  0  0  0
  9 10  1  0  0  0  0
  9 18  2  0  0  0  0
 11  2  2  0  0  0  0
 12  5  2  0  0  0  0
 13  3  1  0  0  0  0
 13 14  1  0  0  0  0
 15  9  1  0  0  0  0
 16 12  1  0  0  0  0
 16  4  2  0  0  0  0
 17 15  2  0  0  0  0
 17 11  1  0  0  0  0
 18  6  1  0  0  0  0
 19 17  1  0  0  0  0
 20 19  2  0  0  0  0
 21 20  1  0  0  0  0
 22 21  1  0  0  0  0
 23 22  1  0  0  0  0
 24 23  1  0  0  0  0
 25 23  2  0  0  0  0
M  END
>  <MODEL>
5

>  <REMARK>
 VINA RESULT:      -9.4      1.758      4.700
  Name = 
  4 active torsions:
  status: ('A' for Active; 'I' for Inactive)
    1  A    between atoms: C_2  and  C_25
    2  A    between atoms: C_6  and  C_23
    3  A    between atoms: N_15  and  C_21
    4  A    between atoms: C_21  and  C_25
                            x       y       z     vdW  Elec       q    Type
                         _______ _______ _______ _____ _____    ______ ____

>  <TORSDO>
F 4

$$$$
=
 OpenBabel10272400473D

 25 28  0  0  0  0  0  0  0  0999 V2000
  189.6830  177.4830  143.5310 C   0  0  0  0  0  0  0  0  0  0  0  0
  188.6230  177.6430  144.4230 C   0  0  0  0  0  0  0  0  0  0  0  0
  191.2270  177.0620  145.3290 C   0  0  0  0  0  3  0  0  0  0  0  0
  189.7800  177.5480  142.1600 C   0  0  0  0  0  0  0  0  0  0  0  0
  190.6410  177.5340  139.5300 C   0  0  0  0  0  3  0  0  0  0  0  0
  190.1960  177.2170  146.2110 N   0  0  0  0  0  0  0  0  0  0  0  0
  191.1050  177.2970  141.8680 C   0  0  0  0  0  0  0  0  0  0  0  0
  191.5710  177.2830  140.5560 C   0  0  0  0  0  3  0  0  0  0  0  0
  187.8810  177.6530  146.7450 C   0  0  0  0  0  0  0  0  0  0  0  0
  188.1350  177.5130  148.2070 C   0  0  0  0  0  1  0  0  0  0  0  0
  187.3220  177.9330  144.0030 C   0  0  0  0  0  3  0  0  0  0  0  0
  189.2850  177.7900  139.8330 C   0  0  0  0  0  3  0  0  0  0  0  0
  190.9560  177.1990  143.9720 C   0  0  0  0  0  0  0  0  0  0  0  0
  191.8030  177.0890  142.9670 O   0  0  0  0  0  0  0  0  0  0  0  0
  186.5820  177.9420  146.3100 C   0  0  0  0  0  3  0  0  0  0  0  0
  188.8360  177.7990  141.1660 C   0  0  0  0  0  3  0  0  0  0  0  0
  186.2980  178.0820  144.9470 C   0  0  0  0  0  0  0  0  0  0  0  0
  188.9140  177.5010  145.8070 C   0  0  0  0  0  0  0  0  0  0  0  0
  184.9250  178.3880  144.5360 C   0  0  0  0  0  3  0  0  0  0  0  0
  184.5970  178.4760  143.2870 N   0  0  0  0  0  0  0  0  0  0  0  0
  183.2320  178.7860  142.8930 C   0  0  0  0  0  2  0  0  0  0  0  0
  182.3040  178.7880  144.1010 C   0  0  0  0  0  2  0  0  0  0  0  0
  180.8730  178.8320  143.6840 C   0  0  0  0  0  0  0  0  0  0  0  0
  179.9820  177.7990  144.0840 N   0  0  0  0  0  1  0  0  0  0  0  0
  180.4540  179.7770  142.9650 O   0  0  0  0  0  0  0  0  0  0  0  0
  1 13  1  0  0  0  0
  1  2  2  0  0  0  0
  2 18  1  0  0  0  0
  3  6  1  0  0  0  0
  4  1  1  0  0  0  0
  5 12  2  0  0  0  0
  5  8  1  0  0  0  0
  7  4  1  0  0  0  0
  7 14  1  0  0  0  0
  8  7  2  0  0  0  0
  9 10  1  0  0  0  0
 11  2  1  0  0  0  0
 11 17  2  0  0  0  0
 12 16  1  0  0  0  0
 13  3  2  0  0  0  0
 14 13  1  0  0  0  0
 15  9  2  0  0  0  0
 16  4  2  0  0  0  0
 17 15  1  0  0  0  0
 18  6  2  0  0  0  0
 18  9  1  0  0  0  0
 19 17  1  0  0  0  0
 20 19  2  0  0  0  0
 21 20  1  0  0  0  0
 21 22  1  0  0  0  0
 23 24  1  0  0  0  0
 23 22  1  0  0  0  0
 25 23  2  0  0  0  0
M  END
>  <MODEL>
6

>  <REMARK>
 VINA RESULT:      -9.3      2.871      6.167
  Name = 
  4 active torsions:
  status: ('A' for Active; 'I' for Inactive)
    1  A    between atoms: C_2  and  C_25
    2  A    between atoms: C_6  and  C_23
    3  A    between atoms: N_15  and  C_21
    4  A    between atoms: C_21  and  C_25
                            x       y       z     vdW  Elec       q    Type
                         _______ _______ _______ _____ _____    ______ ____

>  <TORSDO>
F 4

$$$$
=
 OpenBabel10272400473D

 25 28  0  0  0  0  0  0  0  0999 V2000
  186.9730  177.8270  144.7090 C   0  0  0  0  0  0  0  0  0  0  0  0
  188.1510  177.4550  144.0620 C   0  0  0  0  0  0  0  0  0  0  0  0
  187.9860  177.5430  146.8720 C   0  0  0  0  0  3  0  0  0  0  0  0
  185.7280  178.2040  144.2580 C   0  0  0  0  0  0  0  0  0  0  0  0
  183.0920  179.0140  144.0310 C   0  0  0  0  0  3  0  0  0  0  0  0
  189.1450  177.1770  146.2490 N   0  0  0  0  0  0  0  0  0  0  0  0
  184.9810  178.4500  145.3920 C   0  0  0  0  0  0  0  0  0  0  0  0
  183.6520  178.8580  145.3130 C   0  0  0  0  0  3  0  0  0  0  0  0
  190.4710  176.7410  144.2780 C   0  0  0  0  0  0  0  0  0  0  0  0
  191.6660  176.3830  145.0950 C   0  0  0  0  0  1  0  0  0  0  0  0
  188.2620  177.4020  142.6690 C   0  0  0  0  0  3  0  0  0  0  0  0
  183.8600  178.7620  142.8730 C   0  0  0  0  0  3  0  0  0  0  0  0
  186.8900  177.8710  146.0820 C   0  0  0  0  0  0  0  0  0  0  0  0
  185.6920  178.2460  146.4840 O   0  0  0  0  0  0  0  0  0  0  0  0
  190.5680  176.6920  142.8830 C   0  0  0  0  0  3  0  0  0  0  0  0
  185.2020  178.3500  142.9760 C   0  0  0  0  0  3  0  0  0  0  0  0
  189.4720  177.0210  142.0770 C   0  0  0  0  0  0  0  0  0  0  0  0
  189.2620  177.1220  144.8820 C   0  0  0  0  0  0  0  0  0  0  0  0
  189.6170  176.9540  140.6200 C   0  0  0  0  0  3  0  0  0  0  0  0
  190.7810  176.9290  140.0560 N   0  0  0  0  0  0  0  0  0  0  0  0
  190.9100  176.8690  138.6090 C   0  0  0  0  0  2  0  0  0  0  0  0
  191.5670  175.5650  138.1750 C   0  0  0  0  0  2  0  0  0  0  0  0
  193.0270  175.7500  137.9310 C   0  0  0  0  0  0  0  0  0  0  0  0
  193.8890  174.6200  137.8870 N   0  0  0  0  0  1  0  0  0  0  0  0
  193.5000  176.9060  137.7790 O   0  0  0  0  0  0  0  0  0  0  0  0
  1 13  1  0  0  0  0
  2  1  2  0  0  0  0
  2 18  1  0  0  0  0
  4  1  1  0  0  0  0
  4  7  1  0  0  0  0
  5  8  1  0  0  0  0
  6  3  1  0  0  0  0
  7 14  1  0  0  0  0
  8  7  2  0  0  0  0
  9 18  1  0  0  0  0
  9 10  1  0  0  0  0
 11  2  1  0  0  0  0
 12 16  1  0  0  0  0
 12  5  2  0  0  0  0
 13 14  1  0  0  0  0
 13  3  2  0  0  0  0
 15  9  2  0  0  0  0
 16  4  2  0  0  0  0
 17 11  2  0  0  0  0
 17 15  1  0  0  0  0
 18  6  2  0  0  0  0
 19 17  1  0  0  0  0
 20 19  2  0  0  0  0
 21 20  1  0  0  0  0
 22 21  1  0  0  0  0
 23 22  1  0  0  0  0
 24 23  1  0  0  0  0
 25 23  2  0  0  0  0
M  END
>  <MODEL>
7

>  <REMARK>
 VINA RESULT:      -9.2      1.969      2.504
  Name = 
  4 active torsions:
  status: ('A' for Active; 'I' for Inactive)
    1  A    between atoms: C_2  and  C_25
    2  A    between atoms: C_6  and  C_23
    3  A    between atoms: N_15  and  C_21
    4  A    between atoms: C_21  and  C_25
                            x       y       z     vdW  Elec       q    Type
                         _______ _______ _______ _____ _____    ______ ____

>  <TORSDO>
F 4

$$$$
=
 OpenBabel10272400473D

 25 28  0  0  0  0  0  0  0  0999 V2000
  186.9740  178.2880  141.5460 C   0  0  0  0  0  0  0  0  0  0  0  0
  186.4470  178.3170  142.8370 C   0  0  0  0  0  0  0  0  0  0  0  0
  184.8860  179.0220  140.6000 C   0  0  0  0  0  3  0  0  0  0  0  0
  188.2110  177.9620  141.0400 C   0  0  0  0  0  0  0  0  0  0  0  0
  190.3960  177.4630  139.4170 C   0  0  0  0  0  3  0  0  0  0  0  0
  184.3600  179.0530  141.8600 N   0  0  0  0  0  0  0  0  0  0  0  0
  188.1110  178.1340  139.6740 C   0  0  0  0  0  0  0  0  0  0  0  0
  189.1910  177.8910  138.8290 C   0  0  0  0  0  3  0  0  0  0  0  0
  184.5130  178.7590  144.2530 C   0  0  0  0  0  0  0  0  0  0  0  0
  183.0930  179.1710  144.4480 C   0  0  0  0  0  1  0  0  0  0  0  0
  187.1960  177.9710  143.9650 C   0  0  0  0  0  3  0  0  0  0  0  0
  190.4950  177.2890  140.8160 C   0  0  0  0  0  3  0  0  0  0  0  0
  186.2130  178.6330  140.4520 C   0  0  0  0  0  0  0  0  0  0  0  0
  186.9030  178.5370  139.3320 O   0  0  0  0  0  0  0  0  0  0  0  0
  185.2750  178.4110  145.3730 C   0  0  0  0  0  3  0  0  0  0  0  0
  189.3900  177.5400  141.6500 C   0  0  0  0  0  3  0  0  0  0  0  0
  186.6120  178.0190  145.2370 C   0  0  0  0  0  0  0  0  0  0  0  0
  185.0900  178.7150  142.9730 C   0  0  0  0  0  0  0  0  0  0  0  0
  187.3730  177.6610  146.4370 C   0  0  0  0  0  3  0  0  0  0  0  0
  188.6540  177.8280  146.5000 N   0  0  0  0  0  0  0  0  0  0  0  0
  189.3980  177.4620  147.6940 C   0  0  0  0  0  2  0  0  0  0  0  0
  190.1890  176.1790  147.4710 C   0  0  0  0  0  2  0  0  0  0  0  0
  191.6260  176.4690  147.1990 C   0  0  0  0  0  0  0  0  0  0  0  0
  192.5980  176.2600  148.2160 N   0  0  0  0  0  1  0  0  0  0  0  0
  191.9790  176.9130  146.0750 O   0  0  0  0  0  0  0  0  0  0  0  0
  1  2  2  0  0  0  0
  2 18  1  0  0  0  0
  2 11  1  0  0  0  0
  3  6  1  0  0  0  0
  4  1  1  0  0  0  0
  4 16  1  0  0  0  0
  5 12  1  0  0  0  0
  6 18  2  0  0  0  0
  7  4  2  0  0  0  0
  8  5  2  0  0  0  0
  8  7  1  0  0  0  0
  9 10  1  0  0  0  0
  9 15  2  0  0  0  0
 11 17  2  0  0  0  0
 12 16  2  0  0  0  0
 13  3  2  0  0  0  0
 13  1  1  0  0  0  0
 14  7  1  0  0  0  0
 14 13  1  0  0  0  0
 17 15  1  0  0  0  0
 17 19  1  0  0  0  0
 18  9  1  0  0  0  0
 19 20  2  0  0  0  0
 20 21  1  0  0  0  0
 22 21  1  0  0  0  0
 23 22  1  0  0  0  0
 23 24  1  0  0  0  0
 25 23  2  0  0  0  0
M  END
>  <MODEL>
8

>  <REMARK>
 VINA RESULT:      -9.2      2.281      6.903
  Name = 
  4 active torsions:
  status: ('A' for Active; 'I' for Inactive)
    1  A    between atoms: C_2  and  C_25
    2  A    between atoms: C_6  and  C_23
    3  A    between atoms: N_15  and  C_21
    4  A    between atoms: C_21  and  C_25
                            x       y       z     vdW  Elec       q    Type
                         _______ _______ _______ _____ _____    ______ ____

>  <TORSDO>
F 4

$$$$
=
 OpenBabel10272400473D

 25 28  0  0  0  0  0  0  0  0999 V2000
  185.7940  178.5470  141.8390 C   0  0  0  0  0  0  0  0  0  0  0  0
  187.1010  178.2790  141.4300 C   0  0  0  0  0  0  0  0  0  0  0  0
  185.0670  178.8420  139.5640 C   0  0  0  0  0  3  0  0  0  0  0  0
  185.1870  178.6110  143.0720 C   0  0  0  0  0  0  0  0  0  0  0  0
  183.4030  178.8850  145.1690 C   0  0  0  0  0  3  0  0  0  0  0  0
  186.3440  178.5820  139.1530 N   0  0  0  0  0  0  0  0  0  0  0  0
  183.8650  178.9190  142.8190 C   0  0  0  0  0  0  0  0  0  0  0  0
  182.9420  179.0650  143.8520 C   0  0  0  0  0  3  0  0  0  0  0  0
  188.6600  178.0420  139.5720 C   0  0  0  0  0  0  0  0  0  0  0  0
  188.9830  178.0560  138.1160 C   0  0  0  0  0  1  0  0  0  0  0  0
  188.1300  177.9980  142.3330 C   0  0  0  0  0  3  0  0  0  0  0  0
  184.7560  178.5690  145.4240 C   0  0  0  0  0  3  0  0  0  0  0  0
  184.7990  178.8220  140.9280 C   0  0  0  0  0  0  0  0  0  0  0  0
  183.6450  179.0440  141.5250 O   0  0  0  0  0  0  0  0  0  0  0  0
  189.6810  177.7620  140.4870 C   0  0  0  0  0  3  0  0  0  0  0  0
  185.6710  178.4270  144.3650 C   0  0  0  0  0  3  0  0  0  0  0  0
  189.4240  177.7370  141.8630 C   0  0  0  0  0  0  0  0  0  0  0  0
  187.3600  178.3040  140.0340 C   0  0  0  0  0  0  0  0  0  0  0  0
  190.5220  177.4410  142.7860 C   0  0  0  0  0  3  0  0  0  0  0  0
  190.4900  176.4110  143.5680 N   0  0  0  0  0  0  0  0  0  0  0  0
  191.5840  176.1320  144.4840 C   0  0  0  0  0  2  0  0  0  0  0  0
  191.6480  177.1790  145.5890 C   0  0  0  0  0  2  0  0  0  0  0  0
  191.3430  176.5800  146.9200 C   0  0  0  0  0  0  0  0  0  0  0  0
  192.3960  176.0740  147.7300 N   0  0  0  0  0  1  0  0  0  0  0  0
  190.1520  176.5080  147.3220 O   0  0  0  0  0  0  0  0  0  0  0  0
  1  4  1  0  0  0  0
  2  1  1  0  0  0  0
  2 11  1  0  0  0  0
  3 13  1  0  0  0  0
  4 16  1  0  0  0  0
  5 12  1  0  0  0  0
  6  3  2  0  0  0  0
  6 18  1  0  0  0  0
  7  4  2  0  0  0  0
  7  8  1  0  0  0  0
  8  5  2  0  0  0  0
  9 18  1  0  0  0  0
  9 15  2  0  0  0  0
 10  9  1  0  0  0  0
 13 14  1  0  0  0  0
 13  1  2  0  0  0  0
 14  7  1  0  0  0  0
 15 17  1  0  0  0  0
 16 12  2  0  0  0  0
 17 11  2  0  0  0  0
 17 19  1  0  0  0  0
 18  2  2  0  0  0  0
 19 20  2  0  0  0  0
 20 21  1  0  0  0  0
 21 22  1  0  0  0  0
 22 23  1  0  0  0  0
 23 25  2  0  0  0  0
 23 24  1  0  0  0  0
M  END
>  <MODEL>
9

>  <REMARK>
 VINA RESULT:      -8.9      2.380      5.802
  Name = 
  4 active torsions:
  status: ('A' for Active; 'I' for Inactive)
    1  A    between atoms: C_2  and  C_25
    2  A    between atoms: C_6  and  C_23
    3  A    between atoms: N_15  and  C_21
    4  A    between atoms: C_21  and  C_25
                            x       y       z     vdW  Elec       q    Type
                         _______ _______ _______ _____ _____    ______ ____

>  <TORSDO>
F 4

$$$$
