=
 OpenBabel10272400563D

 25 25  0  0  1  0  0  0  0  0999 V2000
  188.7360  177.4650  140.9790 C   0  0  1  0  0  3  0  0  0  0  0  0
  189.0420  178.9640  139.1190 O   0  0  0  0  0  0  0  0  0  0  0  0
  188.6820  176.5660  138.6090 C   0  0  0  0  0  2  0  0  0  0  0  0
  187.1620  179.2650  136.6390 O   0  0  0  0  0  1  0  0  0  0  0  0
  188.1900  178.3690  136.9320 C   0  0  2  0  0  3  0  0  0  0  0  0
  187.6190  177.1800  137.7030 C   0  0  0  0  0  2  0  0  0  0  0  0
  189.3040  177.6300  139.5500 C   0  0  2  0  0  0  0  0  0  0  0  0
  189.2840  179.0810  137.7320 C   0  0  0  0  0  2  0  0  0  0  0  0
  190.8180  177.3960  139.5950 C   0  0  0  0  0  2  0  0  0  0  0  0
  191.1380  176.1480  139.0870 F   0  0  0  0  0  0  0  0  0  0  0  0
  190.3830  178.1680  142.5580 O   0  0  0  0  0  0  0  0  0  0  0  0
  190.1210  175.8580  142.3870 N   0  0  0  0  0  2  0  0  0  0  0  0
  191.0610  175.6130  143.3300 O   0  0  0  0  0  1  0  0  0  0  0  0
  189.7960  177.1970  142.0100 C   0  0  0  0  0  0  0  0  0  0  0  0
  187.8180  178.6130  141.4040 C   0  0  0  0  0  2  0  0  0  0  0  0
  186.6860  178.1100  142.0460 O   0  0  0  0  0  0  0  0  0  0  0  0
  185.6640  178.9890  141.6900 C   0  0  0  0  0  2  0  0  0  0  0  0
  183.8040  178.6550  143.2480 N   0  0  0  0  0  0  0  0  0  0  0  0
  184.3430  178.4150  142.1020 C   0  0  0  0  0  3  0  0  0  0  0  0
  184.4130  179.4960  144.2540 C   0  0  0  0  0  2  0  0  0  0  0  0
  184.4440  178.7800  145.5910 C   0  0  0  0  0  2  0  0  0  0  0  0
  185.8680  178.7360  146.1050 C   0  0  0  0  0  2  0  0  0  0  0  0
  186.5800  177.5330  145.5180 C   0  0  0  0  0  2  0  0  0  0  0  0
  188.0200  177.8950  145.2240 C   0  0  0  0  0  2  0  0  0  0  0  0
  188.9230  177.2780  146.2730 C   0  0  0  0  0  1  0  0  0  0  0  0
  1 15  1  1  0  0  0
  1 14  1  0  0  0  0
  2  7  1  0  0  0  0
  3  7  1  0  0  0  0
  5  4  1  1  0  0  0
  5  6  1  0  0  0  0
  5  8  1  0  0  0  0
  6  3  1  0  0  0  0
  7  9  1  1  0  0  0
  7  1  1  0  0  0  0
  8  2  1  0  0  0  0
 10  9  1  0  0  0  0
 12 13  1  0  0  0  0
 14 12  1  0  0  0  0
 14 11  2  0  0  0  0
 15 16  1  0  0  0  0
 17 16  1  0  0  0  0
 17 19  1  0  0  0  0
 18 20  1  0  0  0  0
 19 18  2  0  0  0  0
 20 21  1  0  0  0  0
 21 22  1  0  0  0  0
 23 22  1  0  0  0  0
 24 23  1  0  0  0  0
 24 25  1  0  0  0  0
M  END
>  <MODEL>
1

>  <REMARK>
 VINA RESULT:      -6.4      0.000      0.000
  Name = 
  12 active torsions:
  status: ('A' for Active; 'I' for Inactive)
    1  A    between atoms: C_1  and  C_3
    2  A    between atoms: C_1  and  C_18
    3  A    between atoms: C_1  and  C_24
    4  A    between atoms: C_2  and  C_7
    5  A    between atoms: C_2  and  C_25
    6  A    between atoms: C_3  and  O_16
    7  A    between atoms: C_6  and  N_15
    8  A    between atoms: C_6  and  C_21
    9  A    between atoms: O_16  and  C_23
   10  A    between atoms: C_17  and  C_18
   11  A    between atoms: C_20  and  C_23
   12  A    between atoms: C_21  and  C_25
                            x       y       z     vdW  Elec       q    Type
                         _______ _______ _______ _____ _____    ______ ____

>  <TORSDO>
F 12

$$$$
=
 OpenBabel10272400563D

 25 25  0  0  1  0  0  0  0  0999 V2000
  188.8720  178.3860  140.9160 C   0  0  1  0  0  3  0  0  0  0  0  0
  189.4220  176.4780  142.2790 O   0  0  0  0  0  0  0  0  0  0  0  0
  190.8190  178.5090  142.5350 C   0  0  0  0  0  2  0  0  0  0  0  0
  189.7720  176.4460  145.3860 O   0  0  0  0  0  1  0  0  0  0  0  0
  190.6420  176.7800  144.3490 C   0  0  2  0  0  3  0  0  0  0  0  0
  190.4670  178.2570  143.9980 C   0  0  0  0  0  2  0  0  0  0  0  0
  190.0080  177.5820  141.5930 C   0  0  2  0  0  0  0  0  0  0  0  0
  190.3720  175.8830  143.1380 C   0  0  0  0  0  2  0  0  0  0  0  0
  190.9550  177.0630  140.5060 C   0  0  0  0  0  2  0  0  0  0  0  0
  192.0860  177.8580  140.4190 F   0  0  0  0  0  0  0  0  0  0  0  0
  188.4020  176.9950  139.0320 O   0  0  0  0  0  0  0  0  0  0  0  0
  189.0530  179.1690  138.5000 N   0  0  0  0  0  2  0  0  0  0  0  0
  188.9400  178.9500  137.1680 O   0  0  0  0  0  1  0  0  0  0  0  0
  188.7670  178.1310  139.4380 C   0  0  0  0  0  0  0  0  0  0  0  0
  187.5180  178.2260  141.6100 C   0  0  0  0  0  2  0  0  0  0  0  0
  186.5210  178.8620  140.8690 O   0  0  0  0  0  0  0  0  0  0  0  0
  185.6350  179.3530  141.8260 C   0  0  0  0  0  2  0  0  0  0  0  0
  183.7710  178.4050  143.1030 N   0  0  0  0  0  0  0  0  0  0  0  0
  184.5680  178.3350  142.0910 C   0  0  0  0  0  3  0  0  0  0  0  0
  183.8240  179.4640  144.0850 C   0  0  0  0  0  2  0  0  0  0  0  0
  184.1110  178.8930  145.4610 C   0  0  0  0  0  2  0  0  0  0  0  0
  185.5710  178.5000  145.5470 C   0  0  0  0  0  2  0  0  0  0  0  0
  186.0450  178.6250  146.9810 C   0  0  0  0  0  2  0  0  0  0  0  0
  187.3750  177.9170  147.1340 C   0  0  0  0  0  2  0  0  0  0  0  0
  187.9880  178.2750  148.4730 C   0  0  0  0  0  1  0  0  0  0  0  0
  1  7  1  0  0  0  0
  1 15  1  1  0  0  0
  2  8  1  0  0  0  0
  3  6  1  0  0  0  0
  5  4  1  1  0  0  0
  6  5  1  0  0  0  0
  7  9  1  6  0  0  0
  7  2  1  0  0  0  0
  7  3  1  0  0  0  0
  8  5  1  0  0  0  0
 10  9  1  0  0  0  0
 11 14  2  0  0  0  0
 12 14  1  0  0  0  0
 13 12  1  0  0  0  0
 14  1  1  0  0  0  0
 16 15  1  0  0  0  0
 16 17  1  0  0  0  0
 17 19  1  0  0  0  0
 18 20  1  0  0  0  0
 19 18  2  0  0  0  0
 20 21  1  0  0  0  0
 21 22  1  0  0  0  0
 22 23  1  0  0  0  0
 23 24  1  0  0  0  0
 24 25  1  0  0  0  0
M  END
>  <MODEL>
2

>  <REMARK>
 VINA RESULT:      -6.3      1.860      4.106
  Name = 
  12 active torsions:
  status: ('A' for Active; 'I' for Inactive)
    1  A    between atoms: C_1  and  C_3
    2  A    between atoms: C_1  and  C_18
    3  A    between atoms: C_1  and  C_24
    4  A    between atoms: C_2  and  C_7
    5  A    between atoms: C_2  and  C_25
    6  A    between atoms: C_3  and  O_16
    7  A    between atoms: C_6  and  N_15
    8  A    between atoms: C_6  and  C_21
    9  A    between atoms: O_16  and  C_23
   10  A    between atoms: C_17  and  C_18
   11  A    between atoms: C_20  and  C_23
   12  A    between atoms: C_21  and  C_25
                            x       y       z     vdW  Elec       q    Type
                         _______ _______ _______ _____ _____    ______ ____

>  <TORSDO>
F 12

$$$$
=
 OpenBabel10272400563D

 25 25  0  0  1  0  0  0  0  0999 V2000
  189.4880  177.1950  143.4900 C   0  0  1  0  0  3  0  0  0  0  0  0
  191.2650  176.3010  144.8500 O   0  0  0  0  0  0  0  0  0  0  0  0
  189.8220  178.0480  145.8550 C   0  0  0  0  0  2  0  0  0  0  0  0
  190.9920  175.1160  147.7300 O   0  0  0  0  0  1  0  0  0  0  0  0
  191.1210  176.4240  147.2640 C   0  0  2  0  0  3  0  0  0  0  0  0
  189.7360  176.9870  146.9490 C   0  0  0  0  0  2  0  0  0  0  0  0
  190.5330  177.4980  144.5910 C   0  0  2  0  0  0  0  0  0  0  0  0
  192.0270  176.4450  146.0300 C   0  0  0  0  0  2  0  0  0  0  0  0
  191.4880  178.5790  144.0750 C   0  0  0  0  0  2  0  0  0  0  0  0
  190.8530  179.8080  144.0140 F   0  0  0  0  0  0  0  0  0  0  0  0
  190.3510  175.1650  142.5770 O   0  0  0  0  0  0  0  0  0  0  0  0
  190.1870  176.9230  141.0570 N   0  0  0  0  0  2  0  0  0  0  0  0
  190.6630  176.1750  140.0340 O   0  0  0  0  0  1  0  0  0  0  0  0
  190.0390  176.3670  142.3640 C   0  0  0  0  0  0  0  0  0  0  0  0
  188.1850  176.6060  144.0350 C   0  0  0  0  0  2  0  0  0  0  0  0
  187.1350  176.8660  143.1540 O   0  0  0  0  0  0  0  0  0  0  0  0
  187.1440  178.2510  143.0000 C   0  0  0  0  0  2  0  0  0  0  0  0
  185.2220  178.6610  141.5380 N   0  0  0  0  0  0  0  0  0  0  0  0
  186.5010  178.6150  141.6970 C   0  0  0  0  0  3  0  0  0  0  0  0
  184.2780  178.3650  142.5910 C   0  0  0  0  0  2  0  0  0  0  0  0
  184.1380  179.5550  143.5230 C   0  0  0  0  0  2  0  0  0  0  0  0
  183.4530  179.1140  144.8000 C   0  0  0  0  0  2  0  0  0  0  0  0
  184.4200  178.3050  145.6390 C   0  0  0  0  0  2  0  0  0  0  0  0
  185.5400  179.2030  146.1230 C   0  0  0  0  0  2  0  0  0  0  0  0
  186.4190  178.4390  147.0920 C   0  0  0  0  0  1  0  0  0  0  0  0
  1 15  1  1  0  0  0
  1  7  1  0  0  0  0
  2  8  1  0  0  0  0
  3  6  1  0  0  0  0
  5  4  1  6  0  0  0
  6  5  1  0  0  0  0
  7  9  1  6  0  0  0
  7  2  1  0  0  0  0
  7  3  1  0  0  0  0
  8  5  1  0  0  0  0
 10  9  1  0  0  0  0
 12 14  1  0  0  0  0
 13 12  1  0  0  0  0
 14 11  2  0  0  0  0
 14  1  1  0  0  0  0
 16 15  1  0  0  0  0
 17 16  1  0  0  0  0
 18 19  2  0  0  0  0
 18 20  1  0  0  0  0
 19 17  1  0  0  0  0
 20 21  1  0  0  0  0
 21 22  1  0  0  0  0
 22 23  1  0  0  0  0
 23 24  1  0  0  0  0
 24 25  1  0  0  0  0
M  END
>  <MODEL>
3

>  <REMARK>
 VINA RESULT:      -6.1      2.999      5.415
  Name = 
  12 active torsions:
  status: ('A' for Active; 'I' for Inactive)
    1  A    between atoms: C_1  and  C_3
    2  A    between atoms: C_1  and  C_18
    3  A    between atoms: C_1  and  C_24
    4  A    between atoms: C_2  and  C_7
    5  A    between atoms: C_2  and  C_25
    6  A    between atoms: C_3  and  O_16
    7  A    between atoms: C_6  and  N_15
    8  A    between atoms: C_6  and  C_21
    9  A    between atoms: O_16  and  C_23
   10  A    between atoms: C_17  and  C_18
   11  A    between atoms: C_20  and  C_23
   12  A    between atoms: C_21  and  C_25
                            x       y       z     vdW  Elec       q    Type
                         _______ _______ _______ _____ _____    ______ ____

>  <TORSDO>
F 12

$$$$
=
 OpenBabel10272400563D

 25 25  0  0  1  0  0  0  0  0999 V2000
  189.7390  176.9900  145.3160 C   0  0  1  0  0  3  0  0  0  0  0  0
  190.1500  177.8380  143.0990 O   0  0  0  0  0  0  0  0  0  0  0  0
  188.3340  176.1730  143.3690 C   0  0  0  0  0  2  0  0  0  0  0  0
  188.0400  179.0920  141.1620 O   0  0  0  0  0  1  0  0  0  0  0  0
  188.3950  177.7710  141.4320 C   0  0  2  0  0  3  0  0  0  0  0  0
  187.5730  177.2580  142.6140 C   0  0  0  0  0  2  0  0  0  0  0  0
  189.7390  176.6680  143.8030 C   0  0  2  0  0  0  0  0  0  0  0  0
  189.8960  177.6870  141.7180 C   0  0  0  0  0  2  0  0  0  0  0  0
  190.7410  175.5380  143.5430 C   0  0  0  0  0  2  0  0  0  0  0  0
  191.9820  176.0500  143.2050 F   0  0  0  0  0  0  0  0  0  0  0  0
  191.9690  177.8050  145.5690 O   0  0  0  0  0  0  0  0  0  0  0  0
  191.4370  175.9860  146.9250 N   0  0  0  0  0  2  0  0  0  0  0  0
  192.6660  175.9630  147.4940 O   0  0  0  0  0  1  0  0  0  0  0  0
  191.1110  176.9550  145.9280 C   0  0  0  0  0  0  0  0  0  0  0  0
  189.0040  178.2870  145.6600 C   0  0  0  0  0  2  0  0  0  0  0  0
  188.3810  178.1700  146.9030 O   0  0  0  0  0  0  0  0  0  0  0  0
  187.1420  177.5990  146.6200 C   0  0  0  0  0  2  0  0  0  0  0  0
  185.1620  179.0220  146.3880 N   0  0  0  0  0  0  0  0  0  0  0  0
  186.0510  178.4790  147.1480 C   0  0  0  0  0  3  0  0  0  0  0  0
  185.1230  178.8420  144.9550 C   0  0  0  0  0  2  0  0  0  0  0  0
  184.0180  179.6870  144.3470 C   0  0  0  0  0  2  0  0  0  0  0  0
  182.8240  178.8060  144.0440 C   0  0  0  0  0  2  0  0  0  0  0  0
  182.4970  178.8890  142.5660 C   0  0  0  0  0  2  0  0  0  0  0  0
  183.7060  178.4600  141.7600 C   0  0  0  0  0  2  0  0  0  0  0  0
  183.2500  177.7070  140.5260 C   0  0  0  0  0  1  0  0  0  0  0  0
  1 15  1  6  0  0  0
  1 14  1  0  0  0  0
  2  7  1  0  0  0  0
  3  7  1  0  0  0  0
  5  4  1  1  0  0  0
  5  8  1  0  0  0  0
  5  6  1  0  0  0  0
  6  3  1  0  0  0  0
  7  9  1  6  0  0  0
  7  1  1  0  0  0  0
  8  2  1  0  0  0  0
 10  9  1  0  0  0  0
 11 14  2  0  0  0  0
 12 13  1  0  0  0  0
 14 12  1  0  0  0  0
 15 16  1  0  0  0  0
 17 16  1  0  0  0  0
 17 19  1  0  0  0  0
 18 19  2  0  0  0  0
 20 18  1  0  0  0  0
 21 20  1  0  0  0  0
 22 21  1  0  0  0  0
 23 22  1  0  0  0  0
 24 23  1  0  0  0  0
 25 24  1  0  0  0  0
M  END
>  <MODEL>
4

>  <REMARK>
 VINA RESULT:      -6.0      2.624      4.598
  Name = 
  12 active torsions:
  status: ('A' for Active; 'I' for Inactive)
    1  A    between atoms: C_1  and  C_3
    2  A    between atoms: C_1  and  C_18
    3  A    between atoms: C_1  and  C_24
    4  A    between atoms: C_2  and  C_7
    5  A    between atoms: C_2  and  C_25
    6  A    between atoms: C_3  and  O_16
    7  A    between atoms: C_6  and  N_15
    8  A    between atoms: C_6  and  C_21
    9  A    between atoms: O_16  and  C_23
   10  A    between atoms: C_17  and  C_18
   11  A    between atoms: C_20  and  C_23
   12  A    between atoms: C_21  and  C_25
                            x       y       z     vdW  Elec       q    Type
                         _______ _______ _______ _____ _____    ______ ____

>  <TORSDO>
F 12

$$$$
=
 OpenBabel10272400563D

 25 25  0  0  1  0  0  0  0  0999 V2000
  188.9080  177.3040  140.9090 C   0  0  1  0  0  3  0  0  0  0  0  0
  188.9910  176.3000  138.7210 O   0  0  0  0  0  0  0  0  0  0  0  0
  191.0240  177.4700  139.5220 C   0  0  0  0  0  2  0  0  0  0  0  0
  191.1550  174.3040  137.6670 O   0  0  0  0  0  1  0  0  0  0  0  0
  191.1240  175.6960  137.7460 C   0  0  2  0  0  3  0  0  0  0  0  0
  191.6430  176.1350  139.1150 C   0  0  0  0  0  2  0  0  0  0  0  0
  189.4750  177.4110  139.4740 C   0  0  2  0  0  0  0  0  0  0  0  0
  189.6980  176.1960  137.5030 C   0  0  0  0  0  2  0  0  0  0  0  0
  188.9700  178.7130  138.8430 C   0  0  0  0  0  2  0  0  0  0  0  0
  187.7830  178.5010  138.1620 F   0  0  0  0  0  0  0  0  0  0  0  0
  190.1930  175.7820  142.2260 O   0  0  0  0  0  0  0  0  0  0  0  0
  190.6980  178.0310  142.5670 N   0  0  0  0  0  2  0  0  0  0  0  0
  191.6580  177.7480  143.4790 O   0  0  0  0  0  1  0  0  0  0  0  0
  189.9570  176.9850  141.9380 C   0  0  0  0  0  0  0  0  0  0  0  0
  188.0670  178.5140  141.3210 C   0  0  0  0  0  2  0  0  0  0  0  0
  187.0190  178.1100  142.1500 O   0  0  0  0  0  0  0  0  0  0  0  0
  185.9610  178.9490  141.8070 C   0  0  0  0  0  2  0  0  0  0  0  0
  183.9760  178.5340  143.1820 N   0  0  0  0  0  0  0  0  0  0  0  0
  184.6620  178.2720  142.1220 C   0  0  0  0  0  3  0  0  0  0  0  0
  184.3850  179.5010  144.1750 C   0  0  0  0  0  2  0  0  0  0  0  0
  184.7020  178.8070  145.4870 C   0  0  0  0  0  2  0  0  0  0  0  0
  186.1740  178.4510  145.5230 C   0  0  0  0  0  2  0  0  0  0  0  0
  186.5840  178.1430  146.9490 C   0  0  0  0  0  2  0  0  0  0  0  0
  187.9740  177.5410  146.9540 C   0  0  0  0  0  2  0  0  0  0  0  0
  188.5390  177.5590  145.5470 C   0  0  0  0  0  1  0  0  0  0  0  0
  1 15  1  1  0  0  0
  1 14  1  0  0  0  0
  2  7  1  0  0  0  0
  5  4  1  1  0  0  0
  5  6  1  0  0  0  0
  6  3  1  0  0  0  0
  7  9  1  6  0  0  0
  7  3  1  0  0  0  0
  7  1  1  0  0  0  0
  8  5  1  0  0  0  0
  8  2  1  0  0  0  0
 10  9  1  0  0  0  0
 12 13  1  0  0  0  0
 14 11  2  0  0  0  0
 14 12  1  0  0  0  0
 15 16  1  0  0  0  0
 17 19  1  0  0  0  0
 17 16  1  0  0  0  0
 18 20  1  0  0  0  0
 19 18  2  0  0  0  0
 20 21  1  0  0  0  0
 21 22  1  0  0  0  0
 22 23  1  0  0  0  0
 23 24  1  0  0  0  0
 25 24  1  0  0  0  0
M  END
>  <MODEL>
5

>  <REMARK>
 VINA RESULT:      -5.8      1.795      2.425
  Name = 
  12 active torsions:
  status: ('A' for Active; 'I' for Inactive)
    1  A    between atoms: C_1  and  C_3
    2  A    between atoms: C_1  and  C_18
    3  A    between atoms: C_1  and  C_24
    4  A    between atoms: C_2  and  C_7
    5  A    between atoms: C_2  and  C_25
    6  A    between atoms: C_3  and  O_16
    7  A    between atoms: C_6  and  N_15
    8  A    between atoms: C_6  and  C_21
    9  A    between atoms: O_16  and  C_23
   10  A    between atoms: C_17  and  C_18
   11  A    between atoms: C_20  and  C_23
   12  A    between atoms: C_21  and  C_25
                            x       y       z     vdW  Elec       q    Type
                         _______ _______ _______ _____ _____    ______ ____

>  <TORSDO>
F 12

$$$$
=
 OpenBabel10272400563D

 25 25  0  0  1  0  0  0  0  0999 V2000
  189.6140  176.9430  145.8290 C   0  0  1  0  0  3  0  0  0  0  0  0
  190.1100  176.2400  143.5790 O   0  0  0  0  0  0  0  0  0  0  0  0
  190.2350  178.6650  144.0740 C   0  0  0  0  0  2  0  0  0  0  0  0
  192.6680  176.9480  141.9260 O   0  0  0  0  0  1  0  0  0  0  0  0
  191.4750  177.6360  142.1470 C   0  0  2  0  0  3  0  0  0  0  0  0
  191.6000  178.4680  143.4220 C   0  0  0  0  0  2  0  0  0  0  0  0
  189.5310  177.3070  144.3270 C   0  0  2  0  0  0  0  0  0  0  0  0
  190.3140  176.6420  142.2410 C   0  0  0  0  0  2  0  0  0  0  0  0
  188.0550  177.4580  143.9410 C   0  0  0  0  0  2  0  0  0  0  0  0
  187.4710  176.2190  143.7370 F   0  0  0  0  0  0  0  0  0  0  0  0
  191.7280  175.8960  145.4630 O   0  0  0  0  0  0  0  0  0  0  0  0
  191.4820  176.8870  147.5580 N   0  0  0  0  0  2  0  0  0  0  0  0
  192.7320  176.5390  147.9460 O   0  0  0  0  0  1  0  0  0  0  0  0
  190.9940  176.5350  146.2630 C   0  0  0  0  0  0  0  0  0  0  0  0
  189.0330  178.0200  146.7470 C   0  0  0  0  0  2  0  0  0  0  0  0
  188.2000  177.4370  147.7030 O   0  0  0  0  0  0  0  0  0  0  0  0
  186.9210  177.5360  147.1580 C   0  0  0  0  0  2  0  0  0  0  0  0
  185.6050  179.5320  146.6260 N   0  0  0  0  0  0  0  0  0  0  0  0
  186.3520  178.8890  147.4580 C   0  0  0  0  0  3  0  0  0  0  0  0
  185.2420  179.0220  145.3240 C   0  0  0  0  0  2  0  0  0  0  0  0
  183.7320  178.9560  145.1860 C   0  0  0  0  0  2  0  0  0  0  0  0
  183.3680  178.7850  143.7260 C   0  0  0  0  0  2  0  0  0  0  0  0
  181.8860  179.0410  143.5400 C   0  0  0  0  0  2  0  0  0  0  0  0
  181.5460  178.9840  142.0650 C   0  0  0  0  0  2  0  0  0  0  0  0
  182.7220  178.4160  141.2960 C   0  0  0  0  0  1  0  0  0  0  0  0
  1 14  1  0  0  0  0
  1 15  1  1  0  0  0
  2  7  1  0  0  0  0
  3  7  1  0  0  0  0
  5  4  1  1  0  0  0
  5  8  1  0  0  0  0
  5  6  1  0  0  0  0
  6  3  1  0  0  0  0
  7  9  1  6  0  0  0
  7  1  1  0  0  0  0
  8  2  1  0  0  0  0
 10  9  1  0  0  0  0
 11 14  2  0  0  0  0
 12 13  1  0  0  0  0
 14 12  1  0  0  0  0
 15 16  1  0  0  0  0
 17 19  1  0  0  0  0
 17 16  1  0  0  0  0
 18 19  2  0  0  0  0
 20 18  1  0  0  0  0
 21 20  1  0  0  0  0
 22 21  1  0  0  0  0
 23 22  1  0  0  0  0
 24 23  1  0  0  0  0
 25 24  1  0  0  0  0
M  END
>  <MODEL>
6

>  <REMARK>
 VINA RESULT:      -5.7      3.738      5.483
  Name = 
  12 active torsions:
  status: ('A' for Active; 'I' for Inactive)
    1  A    between atoms: C_1  and  C_3
    2  A    between atoms: C_1  and  C_18
    3  A    between atoms: C_1  and  C_24
    4  A    between atoms: C_2  and  C_7
    5  A    between atoms: C_2  and  C_25
    6  A    between atoms: C_3  and  O_16
    7  A    between atoms: C_6  and  N_15
    8  A    between atoms: C_6  and  C_21
    9  A    between atoms: O_16  and  C_23
   10  A    between atoms: C_17  and  C_18
   11  A    between atoms: C_20  and  C_23
   12  A    between atoms: C_21  and  C_25
                            x       y       z     vdW  Elec       q    Type
                         _______ _______ _______ _____ _____    ______ ____

>  <TORSDO>
F 12

$$$$
=
 OpenBabel10272400563D

 25 25  0  0  1  0  0  0  0  0999 V2000
  189.8030  176.6380  139.8730 C   0  0  1  0  0  3  0  0  0  0  0  0
  187.9060  176.7650  138.3930 O   0  0  0  0  0  0  0  0  0  0  0  0
  189.3220  178.7870  138.6170 C   0  0  0  0  0  2  0  0  0  0  0  0
  187.9330  177.6800  135.4030 O   0  0  0  0  0  1  0  0  0  0  0  0
  187.8760  178.3930  136.6000 C   0  0  2  0  0  3  0  0  0  0  0  0
  189.2960  178.6620  137.0960 C   0  0  0  0  0  2  0  0  0  0  0  0
  188.6900  177.5440  139.2950 C   0  0  2  0  0  0  0  0  0  0  0  0
  187.0640  177.6060  137.6320 C   0  0  0  0  0  2  0  0  0  0  0  0
  187.8060  178.0310  140.4490 C   0  0  0  0  0  2  0  0  0  0  0  0
  188.3120  179.1980  140.9950 F   0  0  0  0  0  0  0  0  0  0  0  0
  190.5110  175.2470  138.0660 O   0  0  0  0  0  0  0  0  0  0  0  0
  192.0610  176.8600  138.7180 N   0  0  0  0  0  2  0  0  0  0  0  0
  192.9560  176.4800  137.7760 O   0  0  0  0  0  1  0  0  0  0  0  0
  190.8020  176.1970  138.8400 C   0  0  0  0  0  0  0  0  0  0  0  0
  190.4910  177.2320  141.1030 C   0  0  0  0  0  2  0  0  0  0  0  0
  190.7660  176.2270  142.0310 O   0  0  0  0  0  0  0  0  0  0  0  0
  189.8370  176.4300  143.0510 C   0  0  0  0  0  2  0  0  0  0  0  0
  189.7550  177.8730  145.0280 N   0  0  0  0  0  0  0  0  0  0  0  0
  190.2290  177.6330  143.8530 C   0  0  0  0  0  3  0  0  0  0  0  0
  188.8000  177.0150  145.6910 C   0  0  0  0  0  2  0  0  0  0  0  0
  187.7080  177.8450  146.3410 C   0  0  0  0  0  2  0  0  0  0  0  0
  186.5460  177.9870  145.3800 C   0  0  0  0  0  2  0  0  0  0  0  0
  185.5140  178.9260  145.9690 C   0  0  0  0  0  2  0  0  0  0  0  0
  184.2150  178.7920  145.2020 C   0  0  0  0  0  2  0  0  0  0  0  0
  184.5130  178.4450  143.7570 C   0  0  0  0  0  1  0  0  0  0  0  0
  1 15  1  1  0  0  0
  2  7  1  0  0  0  0
  3  7  1  0  0  0  0
  5  4  1  6  0  0  0
  5  6  1  0  0  0  0
  5  8  1  0  0  0  0
  6  3  1  0  0  0  0
  7  1  1  0  0  0  0
  7  9  1  1  0  0  0
  8  2  1  0  0  0  0
  9 10  1  0  0  0  0
 11 14  2  0  0  0  0
 12 14  1  0  0  0  0
 13 12  1  0  0  0  0
 14  1  1  0  0  0  0
 15 16  1  0  0  0  0
 16 17  1  0  0  0  0
 17 19  1  0  0  0  0
 18 20  1  0  0  0  0
 19 18  2  0  0  0  0
 20 21  1  0  0  0  0
 22 23  1  0  0  0  0
 22 21  1  0  0  0  0
 24 23  1  0  0  0  0
 25 24  1  0  0  0  0
M  END
>  <MODEL>
7

>  <REMARK>
 VINA RESULT:      -5.7      2.252      3.887
  Name = 
  12 active torsions:
  status: ('A' for Active; 'I' for Inactive)
    1  A    between atoms: C_1  and  C_3
    2  A    between atoms: C_1  and  C_18
    3  A    between atoms: C_1  and  C_24
    4  A    between atoms: C_2  and  C_7
    5  A    between atoms: C_2  and  C_25
    6  A    between atoms: C_3  and  O_16
    7  A    between atoms: C_6  and  N_15
    8  A    between atoms: C_6  and  C_21
    9  A    between atoms: O_16  and  C_23
   10  A    between atoms: C_17  and  C_18
   11  A    between atoms: C_20  and  C_23
   12  A    between atoms: C_21  and  C_25
                            x       y       z     vdW  Elec       q    Type
                         _______ _______ _______ _____ _____    ______ ____

>  <TORSDO>
F 12

$$$$
=
 OpenBabel10272400563D

 25 25  0  0  1  0  0  0  0  0999 V2000
  189.9040  176.5280  139.0110 C   0  0  1  0  0  3  0  0  0  0  0  0
  187.7110  176.8860  138.0800 O   0  0  0  0  0  0  0  0  0  0  0  0
  189.6460  177.0220  136.5370 C   0  0  0  0  0  2  0  0  0  0  0  0
  186.4740  175.4230  135.6090 O   0  0  0  0  0  1  0  0  0  0  0  0
  187.3250  176.5220  135.7170 C   0  0  2  0  0  3  0  0  0  0  0  0
  188.7730  176.0380  135.7640 C   0  0  0  0  0  2  0  0  0  0  0  0
  189.0730  177.2910  137.9530 C   0  0  2  0  0  0  0  0  0  0  0  0
  186.9670  177.3330  136.9650 C   0  0  0  0  0  2  0  0  0  0  0  0
  189.1860  178.7940  138.2320 C   0  0  0  0  0  2  0  0  0  0  0  0
  189.3490  179.5020  137.0530 F   0  0  0  0  0  0  0  0  0  0  0  0
  191.3220  174.8300  138.1150 O   0  0  0  0  0  0  0  0  0  0  0  0
  192.3390  176.9100  138.3760 N   0  0  0  0  0  2  0  0  0  0  0  0
  193.5210  176.4710  137.8820 O   0  0  0  0  0  1  0  0  0  0  0  0
  191.2200  176.0300  138.4840 C   0  0  0  0  0  0  0  0  0  0  0  0
  190.0800  177.3030  140.3190 C   0  0  0  0  0  2  0  0  0  0  0  0
  190.2920  176.4180  141.3760 O   0  0  0  0  0  0  0  0  0  0  0  0
  189.8470  177.1070  142.5030 C   0  0  0  0  0  2  0  0  0  0  0  0
  187.5130  177.7090  142.9370 N   0  0  0  0  0  0  0  0  0  0  0  0
  188.5590  177.8030  142.1880 C   0  0  0  0  0  3  0  0  0  0  0  0
  187.4710  176.9240  144.1500 C   0  0  0  0  0  2  0  0  0  0  0  0
  186.7550  177.6900  145.2480 C   0  0  0  0  0  2  0  0  0  0  0  0
  187.6020  177.6750  146.5040 C   0  0  0  0  0  2  0  0  0  0  0  0
  189.0090  177.2320  146.1600 C   0  0  0  0  0  2  0  0  0  0  0  0
  189.7880  176.9960  147.4380 C   0  0  0  0  0  2  0  0  0  0  0  0
  191.1930  176.5410  147.0980 C   0  0  0  0  0  1  0  0  0  0  0  0
  1 15  1  1  0  0  0
  3  7  1  0  0  0  0
  5  4  1  1  0  0  0
  5  6  1  0  0  0  0
  5  8  1  0  0  0  0
  6  3  1  0  0  0  0
  7  2  1  0  0  0  0
  7  9  1  1  0  0  0
  7  1  1  0  0  0  0
  8  2  1  0  0  0  0
 10  9  1  0  0  0  0
 11 14  2  0  0  0  0
 12 14  1  0  0  0  0
 13 12  1  0  0  0  0
 14  1  1  0  0  0  0
 15 16  1  0  0  0  0
 16 17  1  0  0  0  0
 18 20  1  0  0  0  0
 19 17  1  0  0  0  0
 19 18  2  0  0  0  0
 20 21  1  0  0  0  0
 21 22  1  0  0  0  0
 23 22  1  0  0  0  0
 23 24  1  0  0  0  0
 25 24  1  0  0  0  0
M  END
>  <MODEL>
8

>  <REMARK>
 VINA RESULT:      -5.6      2.596      3.564
  Name = 
  12 active torsions:
  status: ('A' for Active; 'I' for Inactive)
    1  A    between atoms: C_1  and  C_3
    2  A    between atoms: C_1  and  C_18
    3  A    between atoms: C_1  and  C_24
    4  A    between atoms: C_2  and  C_7
    5  A    between atoms: C_2  and  C_25
    6  A    between atoms: C_3  and  O_16
    7  A    between atoms: C_6  and  N_15
    8  A    between atoms: C_6  and  C_21
    9  A    between atoms: O_16  and  C_23
   10  A    between atoms: C_17  and  C_18
   11  A    between atoms: C_20  and  C_23
   12  A    between atoms: C_21  and  C_25
                            x       y       z     vdW  Elec       q    Type
                         _______ _______ _______ _____ _____    ______ ____

>  <TORSDO>
F 12

$$$$
=
 OpenBabel10272400563D

 25 25  0  0  1  0  0  0  0  0999 V2000
  189.4150  176.5930  139.0250 C   0  0  1  0  0  3  0  0  0  0  0  0
  187.2310  177.3950  138.4000 O   0  0  0  0  0  0  0  0  0  0  0  0
  188.9050  177.1060  136.5950 C   0  0  0  0  0  2  0  0  0  0  0  0
  185.3690  176.2000  136.1900 O   0  0  0  0  0  1  0  0  0  0  0  0
  186.4350  177.0980  136.1320 C   0  0  2  0  0  3  0  0  0  0  0  0
  187.7430  176.3200  135.9930 C   0  0  0  0  0  2  0  0  0  0  0  0
  188.6130  177.5040  138.0650 C   0  0  2  0  0  0  0  0  0  0  0  0
  186.4400  177.9770  137.3850 C   0  0  0  0  0  2  0  0  0  0  0  0
  189.0740  178.9520  138.2650 C   0  0  0  0  0  2  0  0  0  0  0  0
  189.3600  179.5480  137.0480 F   0  0  0  0  0  0  0  0  0  0  0  0
  191.6520  176.9120  138.2540 O   0  0  0  0  0  0  0  0  0  0  0  0
  190.8710  174.7220  138.0970 N   0  0  0  0  0  2  0  0  0  0  0  0
  192.0390  174.2700  137.5820 O   0  0  0  0  0  1  0  0  0  0  0  0
  190.7050  176.1000  138.4330 C   0  0  0  0  0  0  0  0  0  0  0  0
  189.6320  177.2110  140.4080 C   0  0  0  0  0  2  0  0  0  0  0  0
  190.3160  176.3150  141.2310 O   0  0  0  0  0  0  0  0  0  0  0  0
  189.6840  176.4270  142.4680 C   0  0  0  0  0  2  0  0  0  0  0  0
  189.6420  178.0800  144.2750 N   0  0  0  0  0  0  0  0  0  0  0  0
  190.0300  177.7440  143.0920 C   0  0  0  0  0  3  0  0  0  0  0  0
  188.8340  177.2300  145.1190 C   0  0  0  0  0  2  0  0  0  0  0  0
  188.9200  177.6870  146.5630 C   0  0  0  0  0  2  0  0  0  0  0  0
  187.5220  177.8990  147.1070 C   0  0  0  0  0  2  0  0  0  0  0  0
  186.5100  177.6640  146.0040 C   0  0  0  0  0  2  0  0  0  0  0  0
  185.3810  178.6650  146.1350 C   0  0  0  0  0  2  0  0  0  0  0  0
  184.7280  178.8720  144.7840 C   0  0  0  0  0  1  0  0  0  0  0  0
  1 15  1  1  0  0  0
  3  7  1  0  0  0  0
  5  4  1  1  0  0  0
  5  8  1  0  0  0  0
  6  5  1  0  0  0  0
  6  3  1  0  0  0  0
  7  9  1  1  0  0  0
  7  2  1  0  0  0  0
  7  1  1  0  0  0  0
  8  2  1  0  0  0  0
 10  9  1  0  0  0  0
 11 14  2  0  0  0  0
 12 14  1  0  0  0  0
 13 12  1  0  0  0  0
 14  1  1  0  0  0  0
 15 16  1  0  0  0  0
 16 17  1  0  0  0  0
 17 19  1  0  0  0  0
 18 20  1  0  0  0  0
 19 18  2  0  0  0  0
 20 21  1  0  0  0  0
 21 22  1  0  0  0  0
 23 24  1  0  0  0  0
 23 22  1  0  0  0  0
 25 24  1  0  0  0  0
M  END
>  <MODEL>
9

>  <REMARK>
 VINA RESULT:      -5.6      2.396      3.833
  Name = 
  12 active torsions:
  status: ('A' for Active; 'I' for Inactive)
    1  A    between atoms: C_1  and  C_3
    2  A    between atoms: C_1  and  C_18
    3  A    between atoms: C_1  and  C_24
    4  A    between atoms: C_2  and  C_7
    5  A    between atoms: C_2  and  C_25
    6  A    between atoms: C_3  and  O_16
    7  A    between atoms: C_6  and  N_15
    8  A    between atoms: C_6  and  C_21
    9  A    between atoms: O_16  and  C_23
   10  A    between atoms: C_17  and  C_18
   11  A    between atoms: C_20  and  C_23
   12  A    between atoms: C_21  and  C_25
                            x       y       z     vdW  Elec       q    Type
                         _______ _______ _______ _____ _____    ______ ____

>  <TORSDO>
F 12

$$$$
