=
 OpenBabel10272415233D

 34 40  0  0  1  0  0  0  0  0999 V2000
  187.1600  178.0330  144.3010 C   0  0  0  0  0  0  0  0  0  0  0  0
  183.5230  178.8550  145.1520 C   0  0  0  0  0  2  0  0  0  0  0  0
  185.5260  178.3870  146.5600 C   0  0  0  0  0  3  0  0  0  0  0  0
  189.8760  177.4660  144.5630 N   0  0  0  0  0  0  0  0  0  0  0  0
  188.0030  177.8410  143.1980 O   0  0  0  0  0  0  0  0  0  0  0  0
  189.0630  177.6480  145.7300 C   0  0  0  0  0  0  0  0  0  0  0  0
  188.8110  177.7260  148.1410 C   0  0  0  0  0  3  0  0  0  0  0  0
  189.6190  177.5460  147.0090 C   0  0  0  0  0  3  0  0  0  0  0  0
  189.3700  177.5560  143.3640 C   0  0  0  0  0  0  0  0  0  0  0  0
  186.8840  178.1100  146.7220 C   0  0  0  0  0  0  0  0  0  0  0  0
  187.6980  177.9310  145.5880 C   0  0  0  0  0  0  0  0  0  0  0  0
  187.4470  178.0070  147.9990 C   0  0  0  0  0  3  0  0  0  0  0  0
  182.9520  178.5130  143.7790 C   0  0  2  0  0  3  0  0  0  0  0  0
  183.8680  179.0700  142.6960 C   0  0  0  0  0  2  0  0  0  0  0  0
  184.9720  178.4790  145.2770 C   0  0  0  0  0  0  0  0  0  0  0  0
  185.2110  178.3490  142.7470 C   0  0  0  0  0  2  0  0  0  0  0  0
  185.7960  178.3200  144.1350 C   0  0  0  0  0  0  0  0  0  0  0  0
  192.4340  177.3950  141.1610 C   0  0  0  0  0  3  0  0  0  0  0  0
  189.6700  176.9730  140.9510 C   0  0  0  0  0  3  0  0  0  0  0  0
  192.1470  176.4370  137.5950 C   0  0  0  0  0  0  0  0  0  0  0  0
  192.7000  176.8280  138.8220 C   0  0  0  0  0  3  0  0  0  0  0  0
  191.8820  177.0070  139.9400 C   0  0  0  0  0  0  0  0  0  0  0  0
  189.9370  176.4060  138.6110 C   0  0  0  0  0  3  0  0  0  0  0  0
  190.4890  176.7940  139.8340 C   0  0  0  0  0  0  0  0  0  0  0  0
  190.7620  176.2280  137.4960 C   0  0  0  0  0  3  0  0  0  0  0  0
  190.2250  177.3640  142.1800 C   0  0  0  0  0  0  0  0  0  0  0  0
  191.6080  177.5730  142.2760 C   0  0  0  0  0  3  0  0  0  0  0  0
  193.0140  176.2500  136.4200 C   0  0  0  0  0  0  0  0  0  0  0  0
  192.5550  175.7530  135.3580 O   0  0  0  0  0  0  0  0  0  0  0  0
  194.3530  176.6210  136.4740 O   0  0  0  0  0  1  0  0  0  0  0  0
  181.6260  179.0930  143.6490 N   0  0  0  0  0  2  0  0  0  0  0  0
  181.2740  179.0480  142.2410 C   0  0  1  0  0  3  0  0  0  0  0  0
  179.9820  178.3630  142.0880 N   0  0  0  0  0  2  0  0  0  0  0  0
  180.0620  179.8280  142.0180 C   0  0  0  0  0  2  0  0  0  0  0  0
  1 11  1  0  0  0  0
  2 15  1  0  0  0  0
  3 10  1  0  0  0  0
  4  6  1  0  0  0  0
  5  9  1  0  0  0  0
  5  1  1  0  0  0  0
  6  8  1  0  0  0  0
  8  7  2  0  0  0  0
  9  4  2  0  0  0  0
 10 12  2  0  0  0  0
 11  6  2  0  0  0  0
 11 10  1  0  0  0  0
 12  7  1  0  0  0  0
 13 31  1  1  0  0  0
 13  2  1  0  0  0  0
 14 16  1  0  0  0  0
 14 13  1  0  0  0  0
 15  3  2  0  0  0  0
 16 17  1  0  0  0  0
 17  1  2  0  0  0  0
 17 15  1  0  0  0  0
 18 27  1  0  0  0  0
 19 26  1  0  0  0  0
 20 21  2  0  0  0  0
 21 22  1  0  0  0  0
 22 18  2  0  0  0  0
 23 24  1  0  0  0  0
 24 22  1  0  0  0  0
 24 19  2  0  0  0  0
 25 20  1  0  0  0  0
 25 23  2  0  0  0  0
 26 27  2  0  0  0  0
 26  9  1  0  0  0  0
 28 30  1  0  0  0  0
 28 20  1  0  0  0  0
 29 28  2  0  0  0  0
 32 31  1  1  0  0  0
 33 32  1  0  0  0  0
 34 33  1  0  0  0  0
 34 32  1  0  0  0  0
M  END
>  <MODEL>
1

>  <REMARK>
 VINA RESULT:     -11.3      0.000      0.000
  Name = 
  4 active torsions:
  status: ('A' for Active; 'I' for Inactive)
    1  A    between atoms: C_3  and  N_25
    2  A    between atoms: C_7  and  C_11
    3  A    between atoms: C_18  and  C_30
    4  A    between atoms: C_23  and  N_25
                            x       y       z     vdW  Elec       q    Type
                         _______ _______ _______ _____ _____    ______ ____

>  <TORSDO>
F 4

$$$$
=
 OpenBabel10272415233D

 34 40  0  0  1  0  0  0  0  0999 V2000
  187.4670  177.7470  143.3210 C   0  0  0  0  0  0  0  0  0  0  0  0
  184.2130  178.7670  145.0550 C   0  0  0  0  0  2  0  0  0  0  0  0
  186.4650  178.1370  145.9180 C   0  0  0  0  0  3  0  0  0  0  0  0
  190.1200  177.0070  142.8970 N   0  0  0  0  0  0  0  0  0  0  0  0
  187.9980  177.5350  142.0420 O   0  0  0  0  0  0  0  0  0  0  0  0
  189.6320  177.2060  144.2310 C   0  0  0  0  0  0  0  0  0  0  0  0
  189.9870  177.2290  146.6300 C   0  0  0  0  0  3  0  0  0  0  0  0
  190.4770  177.0330  145.3310 C   0  0  0  0  0  3  0  0  0  0  0  0
  189.3420  177.1620  141.8620 C   0  0  0  0  0  0  0  0  0  0  0  0
  187.8000  177.7720  145.7370 C   0  0  0  0  0  0  0  0  0  0  0  0
  188.2960  177.5760  144.4350 C   0  0  0  0  0  0  0  0  0  0  0  0
  188.6510  177.5980  146.8330 C   0  0  0  0  0  3  0  0  0  0  0  0
  183.3010  178.5010  143.8610 C   0  0  2  0  0  3  0  0  0  0  0  0
  183.9580  179.0310  142.5930 C   0  0  0  0  0  2  0  0  0  0  0  0
  185.6210  178.2990  144.8130 C   0  0  0  0  0  0  0  0  0  0  0  0
  185.2210  178.2270  142.3010 C   0  0  0  0  0  2  0  0  0  0  0  0
  186.1260  178.1230  143.5010 C   0  0  0  0  0  0  0  0  0  0  0  0
  189.4570  176.6770  138.1180 C   0  0  0  0  0  3  0  0  0  0  0  0
  191.2440  176.8240  140.2730 C   0  0  0  0  0  3  0  0  0  0  0  0
  192.6920  176.2220  136.3710 C   0  0  0  0  0  0  0  0  0  0  0  0
  191.3150  176.3490  136.5980 C   0  0  0  0  0  3  0  0  0  0  0  0
  190.8290  176.5500  137.8930 C   0  0  0  0  0  0  0  0  0  0  0  0
  193.1020  176.4970  138.7540 C   0  0  0  0  0  3  0  0  0  0  0  0
  191.7290  176.6240  138.9790 C   0  0  0  0  0  0  0  0  0  0  0  0
  193.5810  176.2970  137.4550 C   0  0  0  0  0  3  0  0  0  0  0  0
  189.8650  176.9520  140.5010 C   0  0  0  0  0  0  0  0  0  0  0  0
  188.9780  176.8770  139.4170 C   0  0  0  0  0  3  0  0  0  0  0  0
  193.1980  176.0110  135.0050 C   0  0  0  0  0  0  0  0  0  0  0  0
  193.8550  176.9130  134.4210 O   0  0  0  0  0  1  0  0  0  0  0  0
  192.9520  174.8130  134.3460 O   0  0  0  0  0  0  0  0  0  0  0  0
  182.0260  179.1650  144.0700 N   0  0  0  0  0  2  0  0  0  0  0  0
  181.2990  179.1040  142.8140 C   0  0  1  0  0  3  0  0  0  0  0  0
  180.0160  178.4180  143.0310 N   0  0  0  0  0  2  0  0  0  0  0  0
  180.0720  179.8820  142.9250 C   0  0  0  0  0  2  0  0  0  0  0  0
  1 17  2  0  0  0  0
  1 11  1  0  0  0  0
  4  6  1  0  0  0  0
  5  1  1  0  0  0  0
  6 11  2  0  0  0  0
  6  8  1  0  0  0  0
  7 12  1  0  0  0  0
  8  7  2  0  0  0  0
  9  5  1  0  0  0  0
  9  4  2  0  0  0  0
 10  3  1  0  0  0  0
 10 12  2  0  0  0  0
 11 10  1  0  0  0  0
 13 31  1  1  0  0  0
 13  2  1  0  0  0  0
 14 13  1  0  0  0  0
 15  2  1  0  0  0  0
 15  3  2  0  0  0  0
 16 14  1  0  0  0  0
 16 17  1  0  0  0  0
 17 15  1  0  0  0  0
 18 27  1  0  0  0  0
 19 26  1  0  0  0  0
 20 21  2  0  0  0  0
 20 25  1  0  0  0  0
 21 22  1  0  0  0  0
 22 18  2  0  0  0  0
 22 24  1  0  0  0  0
 23 24  1  0  0  0  0
 24 19  2  0  0  0  0
 25 23  2  0  0  0  0
 26  9  1  0  0  0  0
 27 26  2  0  0  0  0
 28 20  1  0  0  0  0
 29 28  1  0  0  0  0
 30 28  2  0  0  0  0
 32 34  1  0  0  0  0
 32 33  1  0  0  0  0
 32 31  1  1  0  0  0
 34 33  1  0  0  0  0
M  END
>  <MODEL>
2

>  <REMARK>
 VINA RESULT:     -10.2      1.070      1.893
  Name = 
  4 active torsions:
  status: ('A' for Active; 'I' for Inactive)
    1  A    between atoms: C_3  and  N_25
    2  A    between atoms: C_7  and  C_11
    3  A    between atoms: C_18  and  C_30
    4  A    between atoms: C_23  and  N_25
                            x       y       z     vdW  Elec       q    Type
                         _______ _______ _______ _____ _____    ______ ____

>  <TORSDO>
F 4

$$$$
=
 OpenBabel10272415233D

 34 40  0  0  1  0  0  0  0  0999 V2000
  185.3530  178.3740  141.6100 C   0  0  0  0  0  0  0  0  0  0  0  0
  184.9380  178.6460  137.8180 C   0  0  0  0  0  2  0  0  0  0  0  0
  183.3290  178.8240  139.7120 C   0  0  0  0  0  3  0  0  0  0  0  0
  184.7940  178.3810  144.3410 N   0  0  0  0  0  0  0  0  0  0  0  0
  186.3340  178.1450  142.5840 O   0  0  0  0  0  0  0  0  0  0  0  0
  183.7460  178.6180  143.3900 C   0  0  0  0  0  0  0  0  0  0  0  0
  181.4220  179.0860  142.8790 C   0  0  0  0  0  3  0  0  0  0  0  0
  182.4370  178.8560  143.8190 C   0  0  0  0  0  3  0  0  0  0  0  0
  186.0190  178.1550  143.9550 C   0  0  0  0  0  0  0  0  0  0  0  0
  183.0200  178.8390  141.0740 C   0  0  0  0  0  0  0  0  0  0  0  0
  184.0360  178.6120  142.0200 C   0  0  0  0  0  0  0  0  0  0  0  0
  181.7130  179.0770  141.5090 C   0  0  0  0  0  3  0  0  0  0  0  0
  186.2530  177.9590  137.4590 C   0  0  2  0  0  3  0  0  0  0  0  0
  187.3580  178.4700  138.3760 C   0  0  0  0  0  2  0  0  0  0  0  0
  184.6400  178.5750  139.2890 C   0  0  0  0  0  0  0  0  0  0  0  0
  187.0720  178.0340  139.8090 C   0  0  0  0  0  2  0  0  0  0  0  0
  185.6680  178.3680  140.2420 C   0  0  0  0  0  0  0  0  0  0  0  0
  187.8020  177.8540  147.2710 C   0  0  0  0  0  3  0  0  0  0  0  0
  188.3640  177.5160  144.5450 C   0  0  0  0  0  3  0  0  0  0  0  0
  191.3600  176.8360  147.4160 C   0  0  0  0  0  0  0  0  0  0  0  0
  190.0780  177.2330  147.8190 C   0  0  0  0  0  3  0  0  0  0  0  0
  189.0790  177.4600  146.8690 C   0  0  0  0  0  0  0  0  0  0  0  0
  190.6400  176.8940  145.0930 C   0  0  0  0  0  3  0  0  0  0  0  0
  189.3620  177.2890  145.4950 C   0  0  0  0  0  0  0  0  0  0  0  0
  191.6350  176.6690  146.0500 C   0  0  0  0  0  3  0  0  0  0  0  0
  187.0790  177.9130  144.9490 C   0  0  0  0  0  0  0  0  0  0  0  0
  186.8070  178.0800  146.3140 C   0  0  0  0  0  3  0  0  0  0  0  0
  192.4080  176.5990  148.4220 C   0  0  0  0  0  0  0  0  0  0  0  0
  192.9670  175.4730  148.5100 O   0  0  0  0  0  0  0  0  0  0  0  0
  192.7920  177.6170  149.2870 O   0  0  0  0  0  1  0  0  0  0  0  0
  186.5880  178.2480  136.0760 N   0  0  0  0  0  2  0  0  0  0  0  0
  186.1130  177.1330  135.2760 C   0  0  1  0  0  3  0  0  0  0  0  0
  187.1740  176.7180  134.3470 N   0  0  0  0  0  2  0  0  0  0  0  0
  186.9120  175.9490  135.5710 C   0  0  0  0  0  2  0  0  0  0  0  0
  1 11  1  0  0  0  0
  1  5  1  0  0  0  0
  2 15  1  0  0  0  0
  3 10  1  0  0  0  0
  5  9  1  0  0  0  0
  6  8  1  0  0  0  0
  6  4  1  0  0  0  0
  7  8  2  0  0  0  0
  9  4  2  0  0  0  0
  9 26  1  0  0  0  0
 10 12  2  0  0  0  0
 10 11  1  0  0  0  0
 11  6  2  0  0  0  0
 12  7  1  0  0  0  0
 13 31  1  6  0  0  0
 13  2  1  0  0  0  0
 13 14  1  0  0  0  0
 14 16  1  0  0  0  0
 15  3  2  0  0  0  0
 15 17  1  0  0  0  0
 16 17  1  0  0  0  0
 17  1  2  0  0  0  0
 19 26  2  0  0  0  0
 19 24  1  0  0  0  0
 20 21  1  0  0  0  0
 20 28  1  0  0  0  0
 22 18  1  0  0  0  0
 22 21  2  0  0  0  0
 23 24  2  0  0  0  0
 23 25  1  0  0  0  0
 24 22  1  0  0  0  0
 25 20  2  0  0  0  0
 26 27  1  0  0  0  0
 27 18  2  0  0  0  0
 28 29  2  0  0  0  0
 28 30  1  0  0  0  0
 32 34  1  0  0  0  0
 32 31  1  1  0  0  0
 33 32  1  0  0  0  0
 33 34  1  0  0  0  0
M  END
>  <MODEL>
3

>  <REMARK>
 VINA RESULT:      -9.7      3.834      7.714
  Name = 
  4 active torsions:
  status: ('A' for Active; 'I' for Inactive)
    1  A    between atoms: C_3  and  N_25
    2  A    between atoms: C_7  and  C_11
    3  A    between atoms: C_18  and  C_30
    4  A    between atoms: C_23  and  N_25
                            x       y       z     vdW  Elec       q    Type
                         _______ _______ _______ _____ _____    ______ ____

>  <TORSDO>
F 4

$$$$
=
 OpenBabel10272415233D

 34 40  0  0  1  0  0  0  0  0999 V2000
  183.5560  178.3940  141.3620 C   0  0  0  0  0  0  0  0  0  0  0  0
  182.5370  178.3200  137.6760 C   0  0  0  0  0  2  0  0  0  0  0  0
  181.2960  178.8780  139.7630 C   0  0  0  0  0  3  0  0  0  0  0  0
  183.4680  178.7460  144.1250 N   0  0  0  0  0  0  0  0  0  0  0  0
  184.6600  178.1540  142.1910 O   0  0  0  0  0  0  0  0  0  0  0  0
  182.3040  179.0050  143.3290 C   0  0  0  0  0  0  0  0  0  0  0  0
  179.9850  179.6840  143.1340 C   0  0  0  0  0  3  0  0  0  0  0  0
  181.1160  179.4370  143.9250 C   0  0  0  0  0  3  0  0  0  0  0  0
  184.5830  178.3410  143.5820 C   0  0  0  0  0  0  0  0  0  0  0  0
  181.2230  179.0690  141.1450 C   0  0  0  0  0  0  0  0  0  0  0  0
  182.3570  178.8230  141.9400 C   0  0  0  0  0  0  0  0  0  0  0  0
  180.0380  179.5010  141.7470 C   0  0  0  0  0  3  0  0  0  0  0  0
  183.6990  177.4520  137.2020 C   0  0  2  0  0  3  0  0  0  0  0  0
  184.9870  177.9220  137.8660 C   0  0  0  0  0  2  0  0  0  0  0  0
  182.4860  178.4360  139.1730 C   0  0  0  0  0  0  0  0  0  0  0  0
  184.9050  177.6720  139.3690 C   0  0  0  0  0  2  0  0  0  0  0  0
  183.6340  178.2100  139.9720 C   0  0  0  0  0  0  0  0  0  0  0  0
  186.8180  178.0590  146.6140 C   0  0  0  0  0  3  0  0  0  0  0  0
  186.9610  177.6140  143.8490 C   0  0  0  0  0  3  0  0  0  0  0  0
  190.3160  176.8850  146.2780 C   0  0  0  0  0  0  0  0  0  0  0  0
  189.1230  177.3520  146.8480 C   0  0  0  0  0  3  0  0  0  0  0  0
  188.0060  177.5950  146.0450 C   0  0  0  0  0  0  0  0  0  0  0  0
  189.2660  176.9070  144.0830 C   0  0  0  0  0  3  0  0  0  0  0  0
  188.0780  177.3710  144.6520 C   0  0  0  0  0  0  0  0  0  0  0  0
  190.3810  176.6650  144.8940 C   0  0  0  0  0  3  0  0  0  0  0  0
  185.7670  178.0810  144.4200 C   0  0  0  0  0  0  0  0  0  0  0  0
  185.7040  178.3010  145.8040 C   0  0  0  0  0  3  0  0  0  0  0  0
  191.4900  176.6310  147.1290 C   0  0  0  0  0  0  0  0  0  0  0  0
  191.7070  177.3400  148.1470 O   0  0  0  0  0  1  0  0  0  0  0  0
  192.3720  175.6030  146.8160 O   0  0  0  0  0  0  0  0  0  0  0  0
  183.8230  177.5560  135.7580 N   0  0  0  0  0  2  0  0  0  0  0  0
  183.0650  176.4600  135.1810 C   0  0  1  0  0  3  0  0  0  0  0  0
  183.9610  175.6310  134.3610 N   0  0  0  0  0  2  0  0  0  0  0  0
  183.5650  175.1950  135.7070 C   0  0  0  0  0  2  0  0  0  0  0  0
  1 11  1  0  0  0  0
  1  5  1  0  0  0  0
  2 15  1  0  0  0  0
  3 10  1  0  0  0  0
  5  9  1  0  0  0  0
  6  8  1  0  0  0  0
  6  4  1  0  0  0  0
  7  8  2  0  0  0  0
  9  4  2  0  0  0  0
  9 26  1  0  0  0  0
 10 12  2  0  0  0  0
 10 11  1  0  0  0  0
 11  6  2  0  0  0  0
 12  7  1  0  0  0  0
 13 31  1  6  0  0  0
 13  2  1  0  0  0  0
 13 14  1  0  0  0  0
 14 16  1  0  0  0  0
 15  3  2  0  0  0  0
 15 17  1  0  0  0  0
 16 17  1  0  0  0  0
 17  1  2  0  0  0  0
 19 26  2  0  0  0  0
 19 24  1  0  0  0  0
 20 21  1  0  0  0  0
 20 28  1  0  0  0  0
 22 18  1  0  0  0  0
 22 21  2  0  0  0  0
 23 24  2  0  0  0  0
 23 25  1  0  0  0  0
 24 22  1  0  0  0  0
 25 20  2  0  0  0  0
 26 27  1  0  0  0  0
 27 18  2  0  0  0  0
 28 29  1  0  0  0  0
 30 28  2  0  0  0  0
 32 34  1  0  0  0  0
 32 31  1  1  0  0  0
 33 32  1  0  0  0  0
 33 34  1  0  0  0  0
M  END
>  <MODEL>
4

>  <REMARK>
 VINA RESULT:      -9.6      4.303      7.623
  Name = 
  4 active torsions:
  status: ('A' for Active; 'I' for Inactive)
    1  A    between atoms: C_3  and  N_25
    2  A    between atoms: C_7  and  C_11
    3  A    between atoms: C_18  and  C_30
    4  A    between atoms: C_23  and  N_25
                            x       y       z     vdW  Elec       q    Type
                         _______ _______ _______ _____ _____    ______ ____

>  <TORSDO>
F 4

$$$$
=
 OpenBabel10272415233D

 34 40  0  0  1  0  0  0  0  0999 V2000
  190.2910  176.7760  138.0830 C   0  0  0  0  0  0  0  0  0  0  0  0
  192.4490  175.6760  135.1220 C   0  0  0  0  0  2  0  0  0  0  0  0
  190.1380  176.5960  135.2820 C   0  0  0  0  0  3  0  0  0  0  0  0
  188.1700  177.7920  139.5790 N   0  0  0  0  0  0  0  0  0  0  0  0
  190.3290  176.8720  139.4810 O   0  0  0  0  0  0  0  0  0  0  0  0
  188.0720  177.7150  138.1500 C   0  0  0  0  0  0  0  0  0  0  0  0
  186.8340  178.0650  136.0940 C   0  0  0  0  0  3  0  0  0  0  0  0
  186.9170  178.1470  137.4910 C   0  0  0  0  0  3  0  0  0  0  0  0
  189.2410  177.3900  140.2060 C   0  0  0  0  0  0  0  0  0  0  0  0
  189.0610  177.1140  136.0050 C   0  0  0  0  0  0  0  0  0  0  0  0
  189.1430  177.2010  137.4060 C   0  0  0  0  0  0  0  0  0  0  0  0
  187.9040  177.5500  135.3520 C   0  0  0  0  0  3  0  0  0  0  0  0
  193.4390  174.8510  135.9380 C   0  0  2  0  0  3  0  0  0  0  0  0
  193.8070  175.6110  137.2070 C   0  0  0  0  0  2  0  0  0  0  0  0
  191.2880  176.1550  135.9480 C   0  0  0  0  0  0  0  0  0  0  0  0
  192.5780  175.7340  138.1010 C   0  0  0  0  0  2  0  0  0  0  0  0
  191.3780  176.2620  137.3580 C   0  0  0  0  0  0  0  0  0  0  0  0
  190.6630  177.6600  143.6950 C   0  0  0  0  0  3  0  0  0  0  0  0
  188.1550  177.4640  142.4580 C   0  0  0  0  0  3  0  0  0  0  0  0
  188.4250  177.7150  146.6470 C   0  0  0  0  0  0  0  0  0  0  0  0
  189.5880  177.7290  145.8650 C   0  0  0  0  0  3  0  0  0  0  0  0
  189.5040  177.6460  144.4720 C   0  0  0  0  0  0  0  0  0  0  0  0
  187.0800  177.5320  144.6270 C   0  0  0  0  0  3  0  0  0  0  0  0
  188.2400  177.5470  143.8490 C   0  0  0  0  0  0  0  0  0  0  0  0
  187.1730  177.6160  146.0210 C   0  0  0  0  0  3  0  0  0  0  0  0
  189.3200  177.4780  141.6740 C   0  0  0  0  0  0  0  0  0  0  0  0
  190.5700  177.5760  142.3020 C   0  0  0  0  0  3  0  0  0  0  0  0
  188.5210  177.8030  148.1130 C   0  0  0  0  0  0  0  0  0  0  0  0
  187.6380  177.2800  148.8440 O   0  0  0  0  0  1  0  0  0  0  0  0
  189.5890  178.4660  148.7060 O   0  0  0  0  0  0  0  0  0  0  0  0
  194.6330  174.6060  135.1470 N   0  0  0  0  0  2  0  0  0  0  0  0
  195.7440  175.2340  135.8390 C   0  0  1  0  0  3  0  0  0  0  0  0
  196.9880  174.5280  135.4970 N   0  0  0  0  0  2  0  0  0  0  0  0
  196.6600  175.8130  134.8640 C   0  0  0  0  0  2  0  0  0  0  0  0
  1  5  1  0  0  0  0
  2 13  1  0  0  0  0
  2 15  1  0  0  0  0
  3 15  2  0  0  0  0
  3 10  1  0  0  0  0
  4  9  2  0  0  0  0
  5  9  1  0  0  0  0
  6  4  1  0  0  0  0
  7  8  2  0  0  0  0
  8  6  1  0  0  0  0
  9 26  1  0  0  0  0
 10 11  1  0  0  0  0
 11  1  1  0  0  0  0
 11  6  2  0  0  0  0
 12 10  2  0  0  0  0
 12  7  1  0  0  0  0
 13 31  1  6  0  0  0
 13 14  1  0  0  0  0
 14 16  1  0  0  0  0
 15 17  1  0  0  0  0
 17  1  2  0  0  0  0
 17 16  1  0  0  0  0
 18 22  1  0  0  0  0
 19 24  1  0  0  0  0
 20 28  1  0  0  0  0
 21 20  2  0  0  0  0
 22 21  1  0  0  0  0
 23 25  2  0  0  0  0
 24 22  2  0  0  0  0
 24 23  1  0  0  0  0
 25 20  1  0  0  0  0
 26 27  1  0  0  0  0
 26 19  2  0  0  0  0
 27 18  2  0  0  0  0
 28 30  2  0  0  0  0
 28 29  1  0  0  0  0
 32 31  1  6  0  0  0
 33 32  1  0  0  0  0
 34 33  1  0  0  0  0
 34 32  1  0  0  0  0
M  END
>  <MODEL>
5

>  <REMARK>
 VINA RESULT:      -9.6      3.787     10.633
  Name = 
  4 active torsions:
  status: ('A' for Active; 'I' for Inactive)
    1  A    between atoms: C_3  and  N_25
    2  A    between atoms: C_7  and  C_11
    3  A    between atoms: C_18  and  C_30
    4  A    between atoms: C_23  and  N_25
                            x       y       z     vdW  Elec       q    Type
                         _______ _______ _______ _____ _____    ______ ____

>  <TORSDO>
F 4

$$$$
=
 OpenBabel10272415233D

 34 40  0  0  1  0  0  0  0  0999 V2000
  189.4270  176.8220  138.0200 C   0  0  0  0  0  0  0  0  0  0  0  0
  187.2620  176.7660  134.8670 C   0  0  0  0  0  2  0  0  0  0  0  0
  189.7050  176.4560  135.2480 C   0  0  0  0  0  3  0  0  0  0  0  0
  191.6260  176.6490  139.7230 N   0  0  0  0  0  0  0  0  0  0  0  0
  189.3270  177.0080  139.4060 O   0  0  0  0  0  0  0  0  0  0  0  0
  191.7910  176.4530  138.3130 C   0  0  0  0  0  0  0  0  0  0  0  0
  193.1970  175.9840  136.3940 C   0  0  0  0  0  3  0  0  0  0  0  0
  193.0500  176.1720  137.7750 C   0  0  0  0  0  3  0  0  0  0  0  0
  190.4570  176.9140  140.2380 C   0  0  0  0  0  0  0  0  0  0  0  0
  190.8240  176.3570  136.0770 C   0  0  0  0  0  0  0  0  0  0  0  0
  190.6800  176.5430  137.4640 C   0  0  0  0  0  0  0  0  0  0  0  0
  192.0870  176.0760  135.5460 C   0  0  0  0  0  3  0  0  0  0  0  0
  186.0650  177.4910  135.4770 C   0  0  2  0  0  3  0  0  0  0  0  0
  185.7990  176.9430  136.8740 C   0  0  0  0  0  2  0  0  0  0  0  0
  188.4470  176.7470  135.7900 C   0  0  0  0  0  0  0  0  0  0  0  0
  186.9690  177.2910  137.7890 C   0  0  0  0  0  2  0  0  0  0  0  0
  188.2990  176.9130  137.1890 C   0  0  0  0  0  0  0  0  0  0  0  0
  191.3290  177.5020  143.8660 C   0  0  0  0  0  3  0  0  0  0  0  0
  189.0430  177.1040  142.2920 C   0  0  0  0  0  3  0  0  0  0  0  0
  188.6740  177.6740  146.4420 C   0  0  0  0  0  0  0  0  0  0  0  0
  189.9400  177.6820  145.8420 C   0  0  0  0  0  3  0  0  0  0  0  0
  190.0680  177.4930  144.4630 C   0  0  0  0  0  0  0  0  0  0  0  0
  187.6540  177.2840  144.2680 C   0  0  0  0  0  3  0  0  0  0  0  0
  188.9160  177.2930  143.6700 C   0  0  0  0  0  0  0  0  0  0  0  0
  187.5330  177.4740  145.6490 C   0  0  0  0  0  3  0  0  0  0  0  0
  190.3110  177.1120  141.6900 C   0  0  0  0  0  0  0  0  0  0  0  0
  191.4500  177.3120  142.4850 C   0  0  0  0  0  3  0  0  0  0  0  0
  188.5450  177.8740  147.8950 C   0  0  0  0  0  0  0  0  0  0  0  0
  187.4820  177.5590  148.4920 O   0  0  0  0  0  0  0  0  0  0  0  0
  189.6000  178.4130  148.6230 O   0  0  0  0  0  1  0  0  0  0  0  0
  184.8970  177.2870  134.6370 N   0  0  0  0  0  2  0  0  0  0  0  0
  183.7970  176.9210  135.5120 C   0  0  1  0  0  3  0  0  0  0  0  0
  182.5660  177.5680  135.0370 N   0  0  0  0  0  2  0  0  0  0  0  0
  182.8160  176.1470  134.7610 C   0  0  0  0  0  2  0  0  0  0  0  0
  1  5  1  0  0  0  0
  2 13  1  0  0  0  0
  2 15  1  0  0  0  0
  3 15  2  0  0  0  0
  3 10  1  0  0  0  0
  4  9  2  0  0  0  0
  5  9  1  0  0  0  0
  6  4  1  0  0  0  0
  7  8  2  0  0  0  0
  8  6  1  0  0  0  0
  9 26  1  0  0  0  0
 10 11  1  0  0  0  0
 11  1  1  0  0  0  0
 11  6  2  0  0  0  0
 12 10  2  0  0  0  0
 12  7  1  0  0  0  0
 13 31  1  6  0  0  0
 13 14  1  0  0  0  0
 14 16  1  0  0  0  0
 15 17  1  0  0  0  0
 17 16  1  0  0  0  0
 17  1  2  0  0  0  0
 18 22  1  0  0  0  0
 19 24  1  0  0  0  0
 20 28  1  0  0  0  0
 21 20  1  0  0  0  0
 22 21  2  0  0  0  0
 23 25  1  0  0  0  0
 24 23  2  0  0  0  0
 24 22  1  0  0  0  0
 25 20  2  0  0  0  0
 26 19  2  0  0  0  0
 26 27  1  0  0  0  0
 27 18  2  0  0  0  0
 28 29  2  0  0  0  0
 28 30  1  0  0  0  0
 32 31  1  6  0  0  0
 33 32  1  0  0  0  0
 34 33  1  0  0  0  0
 34 32  1  0  0  0  0
M  END
>  <MODEL>
6

>  <REMARK>
 VINA RESULT:      -9.1      3.707      8.624
  Name = 
  4 active torsions:
  status: ('A' for Active; 'I' for Inactive)
    1  A    between atoms: C_3  and  N_25
    2  A    between atoms: C_7  and  C_11
    3  A    between atoms: C_18  and  C_30
    4  A    between atoms: C_23  and  N_25
                            x       y       z     vdW  Elec       q    Type
                         _______ _______ _______ _____ _____    ______ ____

>  <TORSDO>
F 4

$$$$
=
 OpenBabel10272415233D

 34 40  0  0  1  0  0  0  0  0999 V2000
  188.6530  177.5090  143.7370 C   0  0  0  0  0  0  0  0  0  0  0  0
  189.4430  177.4020  147.4780 C   0  0  0  0  0  2  0  0  0  0  0  0
  187.3830  177.9790  146.1990 C   0  0  0  0  0  3  0  0  0  0  0  0
  187.2750  177.7860  141.3300 N   0  0  0  0  0  0  0  0  0  0  0  0
  189.2560  177.2910  142.4900 O   0  0  0  0  0  0  0  0  0  0  0  0
  186.6050  178.0250  142.5750 C   0  0  0  0  0  0  0  0  0  0  0  0
  184.6160  178.6300  143.8220 C   0  0  0  0  0  3  0  0  0  0  0  0
  185.2580  178.3980  142.5980 C   0  0  0  0  0  3  0  0  0  0  0  0
  188.5330  177.4390  141.2930 C   0  0  0  0  0  0  0  0  0  0  0  0
  186.6650  178.1200  145.0100 C   0  0  0  0  0  0  0  0  0  0  0  0
  187.3060  177.8850  143.7800 C   0  0  0  0  0  0  0  0  0  0  0  0
  185.3170  178.4920  145.0260 C   0  0  0  0  0  3  0  0  0  0  0  0
  190.9610  177.4290  147.3260 C   0  0  2  0  0  3  0  0  0  0  0  0
  191.3740  176.4930  146.1970 C   0  0  0  0  0  2  0  0  0  0  0  0
  188.7350  177.6150  146.1700 C   0  0  0  0  0  0  0  0  0  0  0  0
  190.8430  177.0290  144.8710 C   0  0  0  0  0  2  0  0  0  0  0  0
  189.3740  177.3580  144.9320 C   0  0  0  0  0  0  0  0  0  0  0  0
  189.0970  177.1020  137.5740 C   0  0  0  0  0  3  0  0  0  0  0  0
  190.5570  176.8410  139.9530 C   0  0  0  0  0  3  0  0  0  0  0  0
  192.4250  176.1630  136.2470 C   0  0  0  0  0  0  0  0  0  0  0  0
  191.0710  176.5200  136.2960 C   0  0  0  0  0  3  0  0  0  0  0  0
  190.4450  176.7460  137.5260 C   0  0  0  0  0  0  0  0  0  0  0  0
  192.5310  176.2590  138.6750 C   0  0  0  0  0  3  0  0  0  0  0  0
  191.1820  176.6150  138.7240 C   0  0  0  0  0  0  0  0  0  0  0  0
  193.1500  176.0340  137.4410 C   0  0  0  0  0  3  0  0  0  0  0  0
  189.2010  177.1990  140.0030 C   0  0  0  0  0  0  0  0  0  0  0  0
  188.4780  177.3270  138.8080 C   0  0  0  0  0  3  0  0  0  0  0  0
  193.0780  175.9260  134.9490 C   0  0  0  0  0  0  0  0  0  0  0  0
  192.9300  174.8270  134.3500 O   0  0  0  0  0  0  0  0  0  0  0  0
  193.8670  176.9140  134.3710 O   0  0  0  0  0  1  0  0  0  0  0  0
  191.5790  177.0040  148.5700 N   0  0  0  0  0  2  0  0  0  0  0  0
  192.7470  176.2140  148.2210 C   0  0  1  0  0  3  0  0  0  0  0  0
  193.8430  176.5390  149.1450 N   0  0  0  0  0  2  0  0  0  0  0  0
  193.0640  175.3060  149.3170 C   0  0  0  0  0  2  0  0  0  0  0  0
  1 11  2  0  0  0  0
  1 17  1  0  0  0  0
  4  6  1  0  0  0  0
  5  1  1  0  0  0  0
  6  8  2  0  0  0  0
  6 11  1  0  0  0  0
  7 12  2  0  0  0  0
  8  7  1  0  0  0  0
  9  4  2  0  0  0  0
  9  5  1  0  0  0  0
 10 12  1  0  0  0  0
 10  3  2  0  0  0  0
 11 10  1  0  0  0  0
 13  2  1  0  0  0  0
 13 31  1  1  0  0  0
 14 13  1  0  0  0  0
 15  3  1  0  0  0  0
 15  2  1  0  0  0  0
 16 17  1  0  0  0  0
 16 14  1  0  0  0  0
 17 15  2  0  0  0  0
 18 27  1  0  0  0  0
 19 26  1  0  0  0  0
 20 21  2  0  0  0  0
 20 25  1  0  0  0  0
 21 22  1  0  0  0  0
 22 18  2  0  0  0  0
 22 24  1  0  0  0  0
 23 24  1  0  0  0  0
 24 19  2  0  0  0  0
 25 23  2  0  0  0  0
 26  9  1  0  0  0  0
 27 26  2  0  0  0  0
 28 20  1  0  0  0  0
 29 28  2  0  0  0  0
 30 28  1  0  0  0  0
 32 31  1  1  0  0  0
 32 33  1  0  0  0  0
 32 34  1  0  0  0  0
 33 34  1  0  0  0  0
M  END
>  <MODEL>
7

>  <REMARK>
 VINA RESULT:      -8.6      2.425      6.170
  Name = 
  4 active torsions:
  status: ('A' for Active; 'I' for Inactive)
    1  A    between atoms: C_3  and  N_25
    2  A    between atoms: C_7  and  C_11
    3  A    between atoms: C_18  and  C_30
    4  A    between atoms: C_23  and  N_25
                            x       y       z     vdW  Elec       q    Type
                         _______ _______ _______ _____ _____    ______ ____

>  <TORSDO>
F 4

$$$$
=
 OpenBabel10272415233D

 34 40  0  0  1  0  0  0  0  0999 V2000
  190.4130  176.5880  137.6050 C   0  0  0  0  0  0  0  0  0  0  0  0
  192.7450  175.3590  134.8330 C   0  0  0  0  0  2  0  0  0  0  0  0
  190.4800  176.3990  134.8020 C   0  0  0  0  0  3  0  0  0  0  0  0
  188.2340  177.7220  138.9210 N   0  0  0  0  0  0  0  0  0  0  0  0
  190.3420  176.6900  139.0010 O   0  0  0  0  0  0  0  0  0  0  0  0
  188.2490  177.6420  137.4890 C   0  0  0  0  0  0  0  0  0  0  0  0
  187.2030  178.0430  135.3380 C   0  0  0  0  0  3  0  0  0  0  0  0
  187.1760  178.1300  136.7370 C   0  0  0  0  0  3  0  0  0  0  0  0
  189.2270  177.2690  139.6350 C   0  0  0  0  0  0  0  0  0  0  0  0
  189.3770  176.9770  135.4330 C   0  0  0  0  0  0  0  0  0  0  0  0
  189.3480  177.0680  136.8360 C   0  0  0  0  0  0  0  0  0  0  0  0
  188.3010  177.4690  134.6870 C   0  0  0  0  0  3  0  0  0  0  0  0
  193.6210  174.4880  135.7290 C   0  0  2  0  0  3  0  0  0  0  0  0
  193.9230  175.2360  137.0220 C   0  0  0  0  0  2  0  0  0  0  0  0
  191.5480  175.9030  135.5600 C   0  0  0  0  0  0  0  0  0  0  0  0
  192.6330  175.4280  137.8130 C   0  0  0  0  0  2  0  0  0  0  0  0
  191.5280  176.0130  136.9730 C   0  0  0  0  0  0  0  0  0  0  0  0
  188.0200  178.0150  143.1350 C   0  0  0  0  0  3  0  0  0  0  0  0
  190.2640  176.8970  141.8800 C   0  0  0  0  0  3  0  0  0  0  0  0
  190.1160  177.1820  146.0730 C   0  0  0  0  0  0  0  0  0  0  0  0
  189.0440  177.6460  145.2980 C   0  0  0  0  0  3  0  0  0  0  0  0
  189.0880  177.5530  143.9050 C   0  0  0  0  0  0  0  0  0  0  0  0
  191.2880  176.5280  144.0440 C   0  0  0  0  0  3  0  0  0  0  0  0
  190.2190  176.9900  143.2730 C   0  0  0  0  0  0  0  0  0  0  0  0
  191.2370  176.6230  145.4380 C   0  0  0  0  0  3  0  0  0  0  0  0
  189.1900  177.3610  141.1040 C   0  0  0  0  0  0  0  0  0  0  0  0
  188.0710  177.9190  141.7400 C   0  0  0  0  0  3  0  0  0  0  0  0
  190.0640  177.2820  147.5400 C   0  0  0  0  0  0  0  0  0  0  0  0
  191.1260  177.3340  148.2160 O   0  0  0  0  0  1  0  0  0  0  0  0
  188.8380  177.3200  148.1960 O   0  0  0  0  0  0  0  0  0  0  0  0
  194.8600  174.1770  135.0390 N   0  0  0  0  0  2  0  0  0  0  0  0
  194.7500  172.8130  134.5510 C   0  0  1  0  0  3  0  0  0  0  0  0
  196.0870  172.2020  134.5200 N   0  0  0  0  0  2  0  0  0  0  0  0
  195.1480  171.8880  135.6050 C   0  0  0  0  0  2  0  0  0  0  0  0
  1  5  1  0  0  0  0
  2 15  1  0  0  0  0
  2 13  1  0  0  0  0
  3 10  2  0  0  0  0
  3 15  1  0  0  0  0
  4  9  2  0  0  0  0
  5  9  1  0  0  0  0
  6  4  1  0  0  0  0
  7  8  1  0  0  0  0
  8  6  2  0  0  0  0
  9 26  1  0  0  0  0
 10 11  1  0  0  0  0
 11  6  1  0  0  0  0
 11  1  2  0  0  0  0
 12  7  2  0  0  0  0
 12 10  1  0  0  0  0
 13 31  1  6  0  0  0
 13 14  1  0  0  0  0
 14 16  1  0  0  0  0
 15 17  2  0  0  0  0
 17  1  1  0  0  0  0
 17 16  1  0  0  0  0
 18 22  1  0  0  0  0
 19 24  1  0  0  0  0
 20 28  1  0  0  0  0
 21 20  2  0  0  0  0
 22 21  1  0  0  0  0
 23 25  2  0  0  0  0
 24 22  2  0  0  0  0
 24 23  1  0  0  0  0
 25 20  1  0  0  0  0
 26 27  1  0  0  0  0
 26 19  2  0  0  0  0
 27 18  2  0  0  0  0
 28 30  2  0  0  0  0
 28 29  1  0  0  0  0
 32 31  1  1  0  0  0
 32 34  1  0  0  0  0
 33 32  1  0  0  0  0
 33 34  1  0  0  0  0
M  END
>  <MODEL>
8

>  <REMARK>
 VINA RESULT:      -8.4      4.063     10.738
  Name = 
  4 active torsions:
  status: ('A' for Active; 'I' for Inactive)
    1  A    between atoms: C_3  and  N_25
    2  A    between atoms: C_7  and  C_11
    3  A    between atoms: C_18  and  C_30
    4  A    between atoms: C_23  and  N_25
                            x       y       z     vdW  Elec       q    Type
                         _______ _______ _______ _____ _____    ______ ____

>  <TORSDO>
F 4

$$$$
=
 OpenBabel10272415233D

 34 40  0  0  1  0  0  0  0  0999 V2000
  190.1380  176.7300  137.5550 C   0  0  0  0  0  0  0  0  0  0  0  0
  192.8920  175.5630  135.1700 C   0  0  0  0  0  2  0  0  0  0  0  0
  190.6160  176.5050  134.7940 C   0  0  0  0  0  3  0  0  0  0  0  0
  187.7490  177.7890  138.5210 N   0  0  0  0  0  0  0  0  0  0  0  0
  189.8620  176.8490  138.9240 O   0  0  0  0  0  0  0  0  0  0  0  0
  187.9730  177.6890  137.1080 C   0  0  0  0  0  0  0  0  0  0  0  0
  187.2320  178.0160  134.8230 C   0  0  0  0  0  3  0  0  0  0  0  0
  187.0010  178.1210  136.2010 C   0  0  0  0  0  3  0  0  0  0  0  0
  188.6460  177.3880  139.3790 C   0  0  0  0  0  0  0  0  0  0  0  0
  189.4110  177.0450  135.2490 C   0  0  0  0  0  0  0  0  0  0  0  0
  189.1770  177.1540  136.6320 C   0  0  0  0  0  0  0  0  0  0  0  0
  188.4350  177.4790  134.3470 C   0  0  0  0  0  3  0  0  0  0  0  0
  193.6640  174.7430  136.2000 C   0  0  2  0  0  3  0  0  0  0  0  0
  193.7470  175.5200  137.5080 C   0  0  0  0  0  2  0  0  0  0  0  0
  191.5820  176.0650  135.7070 C   0  0  0  0  0  0  0  0  0  0  0  0
  192.3500  175.6690  138.1010 C   0  0  0  0  0  2  0  0  0  0  0  0
  191.3540  176.1940  137.1000 C   0  0  0  0  0  0  0  0  0  0  0  0
  189.1840  177.2690  143.1160 C   0  0  0  0  0  3  0  0  0  0  0  0
  187.1480  177.9340  141.3060 C   0  0  0  0  0  3  0  0  0  0  0  0
  186.4710  178.2360  145.4460 C   0  0  0  0  0  0  0  0  0  0  0  0
  187.7150  177.8020  144.9660 C   0  0  0  0  0  3  0  0  0  0  0  0
  187.9450  177.7000  143.5920 C   0  0  0  0  0  0  0  0  0  0  0  0
  185.6790  178.4670  143.1570 C   0  0  0  0  0  3  0  0  0  0  0  0
  186.9190  178.0350  142.6800 C   0  0  0  0  0  0  0  0  0  0  0  0
  185.4570  178.5660  144.5340 C   0  0  0  0  0  3  0  0  0  0  0  0
  188.3940  177.5000  140.8260 C   0  0  0  0  0  0  0  0  0  0  0  0
  189.4070  177.1690  141.7380 C   0  0  0  0  0  3  0  0  0  0  0  0
  186.2360  178.3400  146.8950 C   0  0  0  0  0  0  0  0  0  0  0  0
  187.1880  178.2110  147.7090 O   0  0  0  0  0  1  0  0  0  0  0  0
  184.9560  178.5830  147.3790 O   0  0  0  0  0  0  0  0  0  0  0  0
  195.0020  174.4740  135.7000 N   0  0  0  0  0  2  0  0  0  0  0  0
  194.9830  173.1460  135.1130 C   0  0  1  0  0  3  0  0  0  0  0  0
  196.2690  172.4840  135.3740 N   0  0  0  0  0  2  0  0  0  0  0  0
  195.0810  172.1460  136.1690 C   0  0  0  0  0  2  0  0  0  0  0  0
  1  5  1  0  0  0  0
  2 15  1  0  0  0  0
  2 13  1  0  0  0  0
  3 10  2  0  0  0  0
  3 15  1  0  0  0  0
  4  9  2  0  0  0  0
  5  9  1  0  0  0  0
  6  4  1  0  0  0  0
  7  8  1  0  0  0  0
  8  6  2  0  0  0  0
  9 26  1  0  0  0  0
 10 11  1  0  0  0  0
 11  6  1  0  0  0  0
 11  1  2  0  0  0  0
 12  7  2  0  0  0  0
 12 10  1  0  0  0  0
 13 31  1  6  0  0  0
 13 14  1  0  0  0  0
 14 16  1  0  0  0  0
 15 17  2  0  0  0  0
 17  1  1  0  0  0  0
 17 16  1  0  0  0  0
 18 22  1  0  0  0  0
 19 24  1  0  0  0  0
 20 28  1  0  0  0  0
 21 20  1  0  0  0  0
 22 21  2  0  0  0  0
 23 25  1  0  0  0  0
 24 23  2  0  0  0  0
 24 22  1  0  0  0  0
 25 20  2  0  0  0  0
 26 19  2  0  0  0  0
 26 27  1  0  0  0  0
 27 18  2  0  0  0  0
 28 30  2  0  0  0  0
 28 29  1  0  0  0  0
 32 33  1  0  0  0  0
 32 31  1  1  0  0  0
 32 34  1  0  0  0  0
 33 34  1  0  0  0  0
M  END
>  <MODEL>
9

>  <REMARK>
 VINA RESULT:      -8.3      3.933     10.915
  Name = 
  4 active torsions:
  status: ('A' for Active; 'I' for Inactive)
    1  A    between atoms: C_3  and  N_25
    2  A    between atoms: C_7  and  C_11
    3  A    between atoms: C_18  and  C_30
    4  A    between atoms: C_23  and  N_25
                            x       y       z     vdW  Elec       q    Type
                         _______ _______ _______ _____ _____    ______ ____

>  <TORSDO>
F 4

$$$$
