=
 OpenBabel10272401193D

 55 63  0  0  1  0  0  0  0  0999 V2000
  193.1000  176.1560  139.3580 C   0  0  0  0  0  2  0  0  0  0  0  0
  182.4480  172.4160  136.3560 O   0  0  0  0  0  1  0  0  0  0  0  0
  189.4240  174.7180  134.3470 C   0  0  0  0  0  2  0  0  0  0  0  0
  191.1900  172.3640  135.2610 C   0  0  0  0  0  1  0  0  0  0  0  0
  184.5930  174.1080  136.2710 O   0  0  0  0  0  0  0  0  0  0  0  0
  186.1270  175.6280  136.2790 C   0  0  2  0  0  3  0  0  0  0  0  0
  187.7670  177.0360  135.1250 C   0  0  0  0  0  2  0  0  0  0  0  0
  193.9560  171.8850  137.5650 O   0  0  0  0  0  0  0  0  0  0  0  0
  182.6070  174.2880  134.8220 C   0  0  0  0  0  2  0  0  0  0  0  0
  183.3350  174.7150  136.0910 C   0  0  1  0  0  0  0  0  0  0  0  0
  194.1270  170.5830  137.0400 C   0  0  0  0  0  2  0  0  0  0  0  0
  195.5030  172.9890  136.0870 C   0  0  1  0  0  3  0  0  0  0  0  0
  196.2610  171.6580  136.1530 C   0  0  0  0  0  2  0  0  0  0  0  0
  191.8430  173.7990  137.2450 C   0  0  0  0  0  2  0  0  0  0  0  0
  185.5630  177.0410  136.1370 C   0  0  1  0  0  3  0  0  0  0  0  0
  186.4160  177.7200  135.0890 C   0  0  0  0  0  2  0  0  0  0  0  0
  195.3330  170.4430  136.0860 C   0  0  0  0  0  2  0  0  0  0  0  0
  190.2280  177.8040  141.2120 C   0  0  0  0  0  3  0  0  0  0  0  0
  194.0270  172.7780  136.4810 C   0  0  2  0  0  3  0  0  0  0  0  0
  189.4340  177.1090  139.0290 C   0  0  0  0  0  0  0  0  0  0  0  0
  193.3480  176.1720  137.9810 O   0  0  0  0  0  0  0  0  0  0  0  0
  190.7170  176.6380  138.7260 C   0  0  0  0  0  3  0  0  0  0  0  0
  195.4470  175.2870  137.1750 C   0  0  2  0  0  3  0  0  0  0  0  0
  188.0830  174.5250  135.0700 C   0  0  0  0  0  2  0  0  0  0  0  0
  196.2050  173.9650  137.0370 C   0  0  0  0  0  2  0  0  0  0  0  0
  190.6270  174.8220  135.2870 C   0  0  0  0  0  2  0  0  0  0  0  0
  182.1500  173.7690  136.1760 C   0  0  2  0  0  0  0  0  0  0  0  0
  190.8260  173.5620  136.1250 C   0  0  1  0  0  3  0  0  0  0  0  0
  191.5030  177.3140  140.9070 C   0  0  0  0  0  3  0  0  0  0  0  0
  184.0850  177.1230  135.7340 C   0  0  0  0  0  2  0  0  0  0  0  0
  187.6120  175.7300  135.9090 C   0  0  2  0  0  0  0  0  0  0  0  0
  191.7530  176.7380  139.6590 C   0  0  0  0  0  0  0  0  0  0  0  0
  193.2640  174.0880  136.7410 C   0  0  2  0  0  3  0  0  0  0  0  0
  185.4260  174.7320  135.4570 O   0  0  0  0  0  0  0  0  0  0  0  0
  194.0400  174.9840  137.7180 C   0  0  2  0  0  3  0  0  0  0  0  0
  188.4360  175.7500  137.2010 C   0  0  0  0  0  2  0  0  0  0  0  0
  183.1490  176.1840  136.5040 C   0  0  2  0  0  3  0  0  0  0  0  0
  188.3380  177.0420  138.0120 C   0  0  0  0  0  2  0  0  0  0  0  0
  189.1960  177.7060  140.2720 C   0  0  0  0  0  3  0  0  0  0  0  0
  183.2000  176.3990  137.9860 C   0  0  0  0  0  0  0  0  0  0  0  0
  183.0510  177.5490  138.4770 O   0  0  0  0  0  0  0  0  0  0  0  0
  183.3800  175.3100  138.8280 O   0  0  0  0  0  1  0  0  0  0  0  0
  180.7780  174.2780  136.6150 C   0  0  1  0  0  3  0  0  0  0  0  0
  180.0610  174.7480  135.5140 O   0  0  0  0  0  1  0  0  0  0  0  0
  179.9830  173.2030  137.3460 C   0  0  0  0  0  2  0  0  0  0  0  0
  180.2320  173.2490  138.7200 O   0  0  0  0  0  1  0  0  0  0  0  0
  194.6090  177.1920  135.9500 O   0  0  0  0  0  1  0  0  0  0  0  0
  195.4450  176.0790  135.8520 C   0  0  1  0  0  3  0  0  0  0  0  0
  196.8540  176.5390  135.4970 C   0  0  0  0  0  2  0  0  0  0  0  0
  197.4210  175.7250  134.3460 C   0  0  0  0  0  2  0  0  0  0  0  0
  198.8500  174.6540  136.0470 C   0  0  1  0  0  3  0  0  0  0  0  0
  200.1970  173.2820  135.0970 N   0  0  0  0  0  2  0  0  0  0  0  0
  198.8300  175.2620  134.6630 C   0  0  1  0  0  3  0  0  0  0  0  0
  198.8420  173.7560  134.8380 C   0  0  2  0  0  3  0  0  0  0  0  0
  200.2320  174.1080  136.2920 C   0  0  0  0  0  2  0  0  0  0  0  0
  1 32  1  0  0  0  0
  3 24  1  0  0  0  0
  3 26  1  0  0  0  0
  6 34  1  6  0  0  0
  7 31  1  0  0  0  0
  9 27  1  0  0  0  0
 10  9  1  6  0  0  0
 10 27  1  0  0  0  0
 10  5  1  0  0  0  0
 10 37  1  0  0  0  0
 11  8  1  0  0  0  0
 12 13  1  1  0  0  0
 12 19  1  0  0  0  0
 12 25  1  0  0  0  0
 15 16  1  6  0  0  0
 15  6  1  0  0  0  0
 16  7  1  0  0  0  0
 17 13  1  0  0  0  0
 17 11  1  0  0  0  0
 19 33  1  0  0  0  0
 19  8  1  1  0  0  0
 20 39  1  0  0  0  0
 21  1  1  0  0  0  0
 22 20  2  0  0  0  0
 22 32  1  0  0  0  0
 23 48  1  6  0  0  0
 23 35  1  0  0  0  0
 25 23  1  0  0  0  0
 26 28  1  0  0  0  0
 27  2  1  1  0  0  0
 27 43  1  0  0  0  0
 28  4  1  6  0  0  0
 28 14  1  0  0  0  0
 29 18  1  0  0  0  0
 30 15  1  0  0  0  0
 30 37  1  0  0  0  0
 31 24  1  6  0  0  0
 31  6  1  0  0  0  0
 31 36  1  0  0  0  0
 32 29  2  0  0  0  0
 33 14  1  1  0  0  0
 33 35  1  0  0  0  0
 34  5  1  0  0  0  0
 35 21  1  6  0  0  0
 36 38  1  0  0  0  0
 37 40  1  1  0  0  0
 38 20  1  0  0  0  0
 39 18  2  0  0  0  0
 40 41  2  0  0  0  0
 40 42  1  0  0  0  0
 43 44  1  6  0  0  0
 43 45  1  0  0  0  0
 45 46  1  0  0  0  0
 48 47  1  1  0  0  0
 49 48  1  0  0  0  0
 50 49  1  0  0  0  0
 51 55  1  6  0  0  0
 52 55  1  0  0  0  0
 53 50  1  1  0  0  0
 53 54  1  0  0  0  0
 53 51  1  0  0  0  0
 54 52  1  6  0  0  0
 54 51  1  0  0  0  0
M  END
>  <MODEL>
1

>  <REMARK>
 VINA RESULT:      -5.7      0.000      0.000
  Name = 
  7 active torsions:
  status: ('A' for Active; 'I' for Inactive)
    1  A    between atoms: C_1  and  C_53
    2  A    between atoms: C_11  and  C_29
    3  A    between atoms: C_13  and  C_48
    4  A    between atoms: C_13  and  C_52
    5  A    between atoms: C_29  and  C_38
    6  A    between atoms: C_32  and  C_48
    7  A    between atoms: C_33  and  C_52
                            x       y       z     vdW  Elec       q    Type
                         _______ _______ _______ _____ _____    ______ ____

>  <TORSDO>
F 7

$$$$
=
 OpenBabel10272401193D

 55 63  0  0  1  0  0  0  0  0999 V2000
  182.5830  174.4300  137.6930 C   0  0  0  0  0  2  0  0  0  0  0  0
  194.0090  176.0570  139.5040 O   0  0  0  0  0  1  0  0  0  0  0  0
  187.2830  178.7040  137.1060 C   0  0  0  0  0  2  0  0  0  0  0  0
  185.7070  178.9990  139.7380 C   0  0  0  0  0  1  0  0  0  0  0  0
  191.7110  176.0660  138.0240 O   0  0  0  0  0  0  0  0  0  0  0  0
  190.0130  175.9100  136.6980 C   0  0  2  0  0  3  0  0  0  0  0  0
  188.4430  176.8840  135.0890 C   0  0  0  0  0  2  0  0  0  0  0  0
  182.6500  177.6330  141.1450 O   0  0  0  0  0  0  0  0  0  0  0  0
  193.8890  176.9100  137.2370 C   0  0  0  0  0  2  0  0  0  0  0  0
  192.8880  175.7630  137.3130 C   0  0  1  0  0  0  0  0  0  0  0  0
  182.7550  178.5700  142.2000 C   0  0  0  0  0  2  0  0  0  0  0  0
  181.2710  178.9820  139.7060 C   0  0  1  0  0  3  0  0  0  0  0  0
  180.6980  179.5120  141.0260 C   0  0  0  0  0  2  0  0  0  0  0  0
  184.5120  176.8550  139.1060 C   0  0  0  0  0  2  0  0  0  0  0  0
  190.4010  175.4670  135.2880 C   0  0  1  0  0  3  0  0  0  0  0  0
  189.6740  176.4030  134.3490 C   0  0  0  0  0  2  0  0  0  0  0  0
  181.7750  179.7590  142.0840 C   0  0  0  0  0  2  0  0  0  0  0  0
  184.8170  171.5650  136.5930 C   0  0  0  0  0  3  0  0  0  0  0  0
  182.6630  178.3630  139.9440 C   0  0  2  0  0  3  0  0  0  0  0  0
  186.0870  173.6270  136.4530 C   0  0  0  0  0  0  0  0  0  0  0  0
  182.5950  175.7490  137.2250 O   0  0  0  0  0  0  0  0  0  0  0  0
  184.9560  174.3370  136.8740 C   0  0  0  0  0  3  0  0  0  0  0  0
  180.8180  177.2340  137.9160 C   0  0  2  0  0  3  0  0  0  0  0  0
  188.4800  177.8050  137.4470 C   0  0  0  0  0  2  0  0  0  0  0  0
  180.2820  177.9490  139.1580 C   0  0  0  0  0  2  0  0  0  0  0  0
  185.9230  178.0670  137.4040 C   0  0  0  0  0  2  0  0  0  0  0  0
  194.1520  175.7270  138.1550 C   0  0  2  0  0  0  0  0  0  0  0  0
  185.7410  177.7400  138.8840 C   0  0  1  0  0  3  0  0  0  0  0  0
  183.6970  172.2820  137.0310 C   0  0  0  0  0  3  0  0  0  0  0  0
  191.9040  175.4880  134.9800 C   0  0  0  0  0  2  0  0  0  0  0  0
  188.6220  176.5440  136.5710 C   0  0  2  0  0  0  0  0  0  0  0  0
  183.7610  173.6720  137.1620 C   0  0  0  0  0  0  0  0  0  0  0  0
  183.1840  177.5390  138.7540 C   0  0  2  0  0  3  0  0  0  0  0  0
  190.9680  176.8010  137.2150 O   0  0  0  0  0  0  0  0  0  0  0  0
  182.1280  176.5210  138.2950 C   0  0  2  0  0  3  0  0  0  0  0  0
  187.5780  175.5270  137.0440 C   0  0  0  0  0  2  0  0  0  0  0  0
  192.7970  174.8730  136.0630 C   0  0  2  0  0  3  0  0  0  0  0  0
  187.3510  174.3460  136.1000 C   0  0  0  0  0  2  0  0  0  0  0  0
  186.0090  172.2380  136.3000 C   0  0  0  0  0  3  0  0  0  0  0  0
  192.4440  173.4490  136.3680 C   0  0  0  0  0  0  0  0  0  0  0  0
  191.7420  173.1570  137.3710 O   0  0  0  0  0  1  0  0  0  0  0  0
  192.8720  172.4420  135.5120 O   0  0  0  0  0  0  0  0  0  0  0  0
  195.3390  174.8590  137.7380 C   0  0  1  0  0  3  0  0  0  0  0  0
  196.2060  175.5840  136.9210 O   0  0  0  0  0  1  0  0  0  0  0  0
  196.0860  174.3070  138.9460 C   0  0  0  0  0  2  0  0  0  0  0  0
  197.3680  174.8560  139.0330 O   0  0  0  0  0  1  0  0  0  0  0  0
  180.4540  177.6200  135.5590 O   0  0  0  0  0  1  0  0  0  0  0  0
  180.9600  178.2010  136.7230 C   0  0  1  0  0  3  0  0  0  0  0  0
  180.2190  179.5060  136.9960 C   0  0  0  0  0  2  0  0  0  0  0  0
  180.8150  180.6500  136.1940 C   0  0  0  0  0  2  0  0  0  0  0  0
  180.9000  182.8370  137.3310 C   0  0  1  0  0  3  0  0  0  0  0  0
  180.0760  184.3470  136.0510 N   0  0  0  0  0  2  0  0  0  0  0  0
  180.0560  181.9360  136.4570 C   0  0  1  0  0  3  0  0  0  0  0  0
  180.8120  183.1040  135.8510 C   0  0  2  0  0  3  0  0  0  0  0  0
  180.1710  184.1450  137.4860 C   0  0  0  0  0  2  0  0  0  0  0  0
  3 26  1  0  0  0  0
  3 24  1  0  0  0  0
  6 34  1  6  0  0  0
  8 11  1  0  0  0  0
  9 27  1  0  0  0  0
 10  9  1  6  0  0  0
 10  5  1  0  0  0  0
 10 27  1  0  0  0  0
 12 25  1  1  0  0  0
 12 19  1  0  0  0  0
 12 13  1  0  0  0  0
 13 17  1  0  0  0  0
 15 16  1  6  0  0  0
 15  6  1  0  0  0  0
 16  7  1  0  0  0  0
 17 11  1  0  0  0  0
 18 29  1  0  0  0  0
 19  8  1  1  0  0  0
 20 22  2  0  0  0  0
 21  1  1  0  0  0  0
 22 32  1  0  0  0  0
 23 48  1  6  0  0  0
 23 35  1  0  0  0  0
 23 25  1  0  0  0  0
 26 28  1  0  0  0  0
 27  2  1  1  0  0  0
 28 14  1  0  0  0  0
 28  4  1  1  0  0  0
 29 32  2  0  0  0  0
 30 15  1  0  0  0  0
 30 37  1  0  0  0  0
 31  7  1  6  0  0  0
 31  6  1  0  0  0  0
 31 36  1  0  0  0  0
 31 24  1  0  0  0  0
 32  1  1  0  0  0  0
 33 14  1  1  0  0  0
 33 19  1  0  0  0  0
 34  5  1  0  0  0  0
 35 21  1  6  0  0  0
 35 33  1  0  0  0  0
 37 40  1  1  0  0  0
 37 10  1  0  0  0  0
 38 20  1  0  0  0  0
 38 36  1  0  0  0  0
 39 20  1  0  0  0  0
 39 18  2  0  0  0  0
 40 41  1  0  0  0  0
 42 40  2  0  0  0  0
 43 44  1  1  0  0  0
 43 27  1  0  0  0  0
 43 45  1  0  0  0  0
 45 46  1  0  0  0  0
 48 47  1  6  0  0  0
 48 49  1  0  0  0  0
 50 49  1  0  0  0  0
 51 55  1  1  0  0  0
 52 55  1  0  0  0  0
 53 50  1  6  0  0  0
 53 51  1  0  0  0  0
 54 52  1  1  0  0  0
 54 53  1  0  0  0  0
 54 51  1  0  0  0  0
M  END
>  <MODEL>
2

>  <REMARK>
 VINA RESULT:      -5.3      4.410     12.490
  Name = 
  7 active torsions:
  status: ('A' for Active; 'I' for Inactive)
    1  A    between atoms: C_1  and  C_53
    2  A    between atoms: C_11  and  C_29
    3  A    between atoms: C_13  and  C_48
    4  A    between atoms: C_13  and  C_52
    5  A    between atoms: C_29  and  C_38
    6  A    between atoms: C_32  and  C_48
    7  A    between atoms: C_33  and  C_52
                            x       y       z     vdW  Elec       q    Type
                         _______ _______ _______ _____ _____    ______ ____

>  <TORSDO>
F 7

$$$$
=
 OpenBabel10272401193D

 55 63  0  0  1  0  0  0  0  0999 V2000
  183.1840  175.4160  138.6820 C   0  0  0  0  0  2  0  0  0  0  0  0
  194.8590  175.0550  138.4760 O   0  0  0  0  0  1  0  0  0  0  0  0
  188.3900  179.0550  138.0810 C   0  0  0  0  0  2  0  0  0  0  0  0
  187.3440  178.9160  140.9770 C   0  0  0  0  0  1  0  0  0  0  0  0
  192.3850  175.7180  137.5200 O   0  0  0  0  0  0  0  0  0  0  0  0
  190.4920  176.1070  136.5580 C   0  0  2  0  0  3  0  0  0  0  0  0
  188.8700  177.6330  135.5360 C   0  0  0  0  0  2  0  0  0  0  0  0
  184.3720  177.6650  142.6470 O   0  0  0  0  0  0  0  0  0  0  0  0
  194.5160  176.4340  136.5090 C   0  0  0  0  0  2  0  0  0  0  0  0
  193.3590  175.4420  136.5410 C   0  0  1  0  0  0  0  0  0  0  0  0
  184.8090  178.3010  143.8320 C   0  0  0  0  0  2  0  0  0  0  0  0
  183.0290  179.4880  141.8290 C   0  0  1  0  0  3  0  0  0  0  0  0
  182.7810  179.7580  143.3180 C   0  0  0  0  0  2  0  0  0  0  0  0
  185.7090  177.1600  140.1600 C   0  0  0  0  0  2  0  0  0  0  0  0
  190.5590  175.9660  135.0370 C   0  0  1  0  0  3  0  0  0  0  0  0
  189.8600  177.1860  134.4810 C   0  0  0  0  0  2  0  0  0  0  0  0
  184.0440  179.6010  144.1670 C   0  0  0  0  0  2  0  0  0  0  0  0
  184.6770  172.6310  136.5810 C   0  0  0  0  0  3  0  0  0  0  0  0
  184.3120  178.6530  141.6480 C   0  0  2  0  0  3  0  0  0  0  0  0
  186.2440  174.4820  136.6270 C   0  0  0  0  0  0  0  0  0  0  0  0
  183.3460  176.7960  138.5100 O   0  0  0  0  0  0  0  0  0  0  0  0
  185.3380  175.2120  137.4050 C   0  0  0  0  0  3  0  0  0  0  0  0
  181.9910  178.2920  139.8380 C   0  0  2  0  0  3  0  0  0  0  0  0
  189.4530  177.9510  137.9790 C   0  0  0  0  0  2  0  0  0  0  0  0
  181.7990  178.7540  141.2840 C   0  0  0  0  0  2  0  0  0  0  0  0
  187.0090  178.5490  138.5040 C   0  0  0  0  0  2  0  0  0  0  0  0
  194.7190  175.0410  137.0860 C   0  0  2  0  0  0  0  0  0  0  0  0
  187.0190  177.9040  139.8870 C   0  0  1  0  0  3  0  0  0  0  0  0
  183.7860  173.3620  137.3740 C   0  0  0  0  0  3  0  0  0  0  0  0
  191.9710  175.8640  134.4470 C   0  0  0  0  0  2  0  0  0  0  0  0
  189.2290  176.9290  136.8470 C   0  0  2  0  0  0  0  0  0  0  0  0
  184.1100  174.6600  137.7800 C   0  0  0  0  0  0  0  0  0  0  0  0
  184.4800  178.0760  140.2320 C   0  0  2  0  0  3  0  0  0  0  0  0
  191.6570  176.7150  137.0490 O   0  0  0  0  0  0  0  0  0  0  0  0
  183.2030  177.3450  139.7890 C   0  0  2  0  0  3  0  0  0  0  0  0
  188.1180  175.9730  137.2950 C   0  0  0  0  0  2  0  0  0  0  0  0
  192.9100  174.8970  135.1760 C   0  0  2  0  0  3  0  0  0  0  0  0
  187.5370  175.0920  136.1880 C   0  0  0  0  0  2  0  0  0  0  0  0
  185.9020  173.1920  136.2040 C   0  0  0  0  0  3  0  0  0  0  0  0
  192.3720  173.4990  135.2380 C   0  0  0  0  0  0  0  0  0  0  0  0
  192.6910  172.6450  134.3700 O   0  0  0  0  0  0  0  0  0  0  0  0
  191.5380  173.1360  136.2870 O   0  0  0  0  0  1  0  0  0  0  0  0
  195.6520  174.1510  136.2680 C   0  0  1  0  0  3  0  0  0  0  0  0
  196.4980  174.9310  135.4800 O   0  0  0  0  0  1  0  0  0  0  0  0
  196.4660  173.2170  137.1570 C   0  0  0  0  0  2  0  0  0  0  0  0
  197.7840  173.6650  137.2730 O   0  0  0  0  0  1  0  0  0  0  0  0
  183.2980  179.4330  138.1570 O   0  0  0  0  0  1  0  0  0  0  0  0
  182.1000  179.4890  138.8720 C   0  0  1  0  0  3  0  0  0  0  0  0
  180.9310  179.4990  137.8930 C   0  0  0  0  0  2  0  0  0  0  0  0
  180.5070  178.0860  137.5340 C   0  0  0  0  0  2  0  0  0  0  0  0
  182.2190  177.4380  135.8810 C   0  0  1  0  0  3  0  0  0  0  0  0
  181.3750  176.0560  134.4740 N   0  0  0  0  0  2  0  0  0  0  0  0
  180.7640  177.8090  136.0650 C   0  0  1  0  0  3  0  0  0  0  0  0
  181.1680  176.3580  135.8860 C   0  0  2  0  0  3  0  0  0  0  0  0
  182.4210  177.0640  134.4360 C   0  0  0  0  0  2  0  0  0  0  0  0
  3 26  1  0  0  0  0
  6 31  1  0  0  0  0
  6 34  1  6  0  0  0
  8 11  1  0  0  0  0
  9 27  1  0  0  0  0
 10  9  1  6  0  0  0
 10 27  1  0  0  0  0
 10  5  1  0  0  0  0
 11 17  1  0  0  0  0
 12 25  1  1  0  0  0
 12 13  1  0  0  0  0
 13 17  1  0  0  0  0
 15 30  1  6  0  0  0
 15  6  1  0  0  0  0
 16 15  1  0  0  0  0
 16  7  1  0  0  0  0
 18 29  1  0  0  0  0
 19 12  1  0  0  0  0
 19  8  1  1  0  0  0
 20 22  2  0  0  0  0
 21  1  1  0  0  0  0
 22 32  1  0  0  0  0
 23 48  1  6  0  0  0
 23 25  1  0  0  0  0
 24  3  1  0  0  0  0
 26 28  1  0  0  0  0
 27  2  1  1  0  0  0
 28 14  1  0  0  0  0
 28  4  1  1  0  0  0
 29 32  2  0  0  0  0
 30 37  1  0  0  0  0
 31  7  1  6  0  0  0
 31 36  1  0  0  0  0
 31 24  1  0  0  0  0
 32  1  1  0  0  0  0
 33 14  1  1  0  0  0
 33 19  1  0  0  0  0
 34  5  1  0  0  0  0
 35 21  1  6  0  0  0
 35 23  1  0  0  0  0
 35 33  1  0  0  0  0
 37 40  1  1  0  0  0
 37 10  1  0  0  0  0
 38 20  1  0  0  0  0
 38 36  1  0  0  0  0
 39 18  2  0  0  0  0
 39 20  1  0  0  0  0
 40 42  1  0  0  0  0
 41 40  2  0  0  0  0
 43 44  1  1  0  0  0
 43 27  1  0  0  0  0
 43 45  1  0  0  0  0
 45 46  1  0  0  0  0
 48 47  1  6  0  0  0
 49 48  1  0  0  0  0
 50 49  1  0  0  0  0
 51 55  1  6  0  0  0
 51 54  1  0  0  0  0
 51 53  1  0  0  0  0
 53 50  1  1  0  0  0
 54 52  1  6  0  0  0
 54 53  1  0  0  0  0
 55 52  1  0  0  0  0
M  END
>  <MODEL>
3

>  <REMARK>
 VINA RESULT:      -3.1      3.784     11.798
  Name = 
  7 active torsions:
  status: ('A' for Active; 'I' for Inactive)
    1  A    between atoms: C_1  and  C_53
    2  A    between atoms: C_11  and  C_29
    3  A    between atoms: C_13  and  C_48
    4  A    between atoms: C_13  and  C_52
    5  A    between atoms: C_29  and  C_38
    6  A    between atoms: C_32  and  C_48
    7  A    between atoms: C_33  and  C_52
                            x       y       z     vdW  Elec       q    Type
                         _______ _______ _______ _____ _____    ______ ____

>  <TORSDO>
F 7

$$$$
