=
 OpenBabel10272401273D

 55 62  0  0  1  0  0  0  0  0999 V2000
  187.5100  178.4810  142.2280 C   0  0  2  0  0  3  0  0  0  0  0  0
  185.5630  176.2530  136.1480 O   0  0  0  0  0  0  0  0  0  0  0  0
  185.1440  178.4490  137.6280 O   0  0  0  0  0  0  0  0  0  0  0  0
  188.5030  176.3630  136.0430 C   0  0  1  0  0  3  0  0  0  0  0  0
  181.3490  178.8550  140.4140 C   0  0  0  0  0  3  0  0  0  0  0  0
  180.3660  179.3430  141.1680 C   0  0  0  0  0  3  0  0  0  0  0  0
  182.9280  178.9290  142.3820 C   0  0  2  0  0  3  0  0  0  0  0  0
  181.6920  179.1670  143.2050 C   0  0  0  0  0  3  0  0  0  0  0  0
  183.7060  177.3820  139.0900 O   0  0  0  0  0  0  0  0  0  0  0  0
  187.6340  175.2120  135.8180 N   0  0  0  0  0  2  0  0  0  0  0  0
  180.5090  179.3920  142.6310 C   0  0  0  0  0  3  0  0  0  0  0  0
  189.3300  176.9540  142.9800 C   0  0  0  0  0  2  0  0  0  0  0  0
  182.5940  178.2710  141.0300 C   0  0  2  0  0  3  0  0  0  0  0  0
  190.0730  176.9060  140.2420 C   0  0  1  0  0  3  0  0  0  0  0  0
  186.5370  178.6780  141.2310 O   0  0  0  0  0  0  0  0  0  0  0  0
  189.3570  177.9940  140.7770 O   0  0  0  0  0  0  0  0  0  0  0  0
  185.2590  178.6080  143.2570 C   0  0  2  0  0  3  0  0  0  0  0  0
  186.4620  175.3270  136.6810 C   0  0  0  0  0  2  0  0  0  0  0  0
  183.8520  178.0310  143.1880 C   0  0  0  0  0  2  0  0  0  0  0  0
  184.4640  176.2360  137.0130 C   0  0  0  0  0  2  0  0  0  0  0  0
  184.4830  177.4150  137.9320 C   0  0  0  0  0  0  0  0  0  0  0  0
  190.8270  176.8820  142.6710 C   0  0  0  0  0  2  0  0  0  0  0  0
  189.2340  176.2040  137.3690 C   0  0  0  0  0  2  0  0  0  0  0  0
  188.5200  177.4500  141.7700 C   0  0  2  0  0  3  0  0  0  0  0  0
  183.7440  178.4260  140.0510 C   0  0  0  0  0  2  0  0  0  0  0  0
  186.1750  177.8430  142.3070 C   0  0  2  0  0  3  0  0  0  0  0  0
  189.8120  177.5330  137.8250 C   0  0  0  0  0  2  0  0  0  0  0  0
  190.7900  177.3240  138.9690 C   0  0  0  0  0  2  0  0  0  0  0  0
  191.0930  176.3570  141.2540 C   0  0  0  0  0  2  0  0  0  0  0  0
  186.6500  177.4490  145.0620 C   0  0  0  0  0  3  0  0  0  0  0  0
  186.9160  178.4450  147.2340 N   0  0  0  0  0  0  0  0  0  0  0  0
  185.4150  179.4900  145.5680 C   0  0  0  0  0  3  0  0  0  0  0  0
  185.8270  179.4070  147.0110 C   0  0  0  0  0  2  0  0  0  0  0  0
  187.1860  177.4060  146.2820 C   0  0  0  0  0  3  0  0  0  0  0  0
  185.7740  178.5660  144.6690 C   0  0  0  0  0  0  0  0  0  0  0  0
  187.5080  178.3410  148.5640 C   0  0  0  0  0  3  0  0  0  0  0  0
  189.0230  178.4550  148.4810 C   0  0  0  0  0  2  0  0  0  0  0  0
  188.3790  177.0990  148.6490 C   0  0  0  0  0  2  0  0  0  0  0  0
  189.5470  176.4180  134.9370 C   0  0  0  0  0  2  0  0  0  0  0  0
  190.9100  175.8960  135.3790 C   0  0  2  0  0  3  0  0  0  0  0  0
  191.8820  176.5110  134.5920 O   0  0  0  0  0  1  0  0  0  0  0  0
  193.5420  174.4530  135.6630 N   0  0  0  0  0  0  0  0  0  0  0  0
  191.4810  171.5470  134.3460 O   0  0  0  0  0  1  0  0  0  0  0  0
  191.0020  174.3690  135.2100 C   0  0  1  0  0  0  0  0  0  0  0  0
  191.6800  174.3310  137.6870 C   0  0  0  0  0  1  0  0  0  0  0  0
  191.3130  173.5180  136.4470 C   0  0  2  0  0  3  0  0  0  0  0  0
  193.9950  175.1350  134.4600 C   0  0  0  0  0  1  0  0  0  0  0  0
  193.6560  171.4380  135.4380 C   0  0  1  0  0  3  0  0  0  0  0  0
  194.6880  173.6350  136.0940 C   0  0  0  0  0  2  0  0  0  0  0  0
  192.6390  172.2780  134.6320 C   0  0  2  0  0  3  0  0  0  0  0  0
  190.0650  173.7750  134.3590 O   0  0  0  0  0  1  0  0  0  0  0  0
  194.3070  172.2330  136.5720 C   0  0  0  0  0  2  0  0  0  0  0  0
  192.3530  173.6400  135.3110 C   0  0  2  0  0  0  0  0  0  0  0  0
  193.0690  170.2870  135.9720 O   0  0  0  0  0  0  0  0  0  0  0  0
  193.8860  169.9120  136.9340 O   0  0  0  0  0  1  0  0  0  0  0  0
  1 15  1  6  0  0  0
  1 26  1  0  0  0  0
  2 18  1  0  0  0  0
  2 20  1  0  0  0  0
  3 21  2  0  0  0  0
  4 39  1  6  0  0  0
  4 23  1  0  0  0  0
  5 13  1  0  0  0  0
  5  6  2  0  0  0  0
  6 11  1  0  0  0  0
  7 19  1  1  0  0  0
  7  8  1  0  0  0  0
  9 25  1  0  0  0  0
 10  4  1  0  0  0  0
 10 18  1  0  0  0  0
 11  8  2  0  0  0  0
 13 25  1  6  0  0  0
 13  7  1  0  0  0  0
 14 28  1  6  0  0  0
 14 16  1  0  0  0  0
 14 29  1  0  0  0  0
 16 24  1  0  0  0  0
 17 35  1  1  0  0  0
 19 17  1  0  0  0  0
 20 21  1  0  0  0  0
 21  9  1  0  0  0  0
 22 12  1  0  0  0  0
 23 27  1  0  0  0  0
 24  1  1  0  0  0  0
 24 12  1  1  0  0  0
 26 15  1  6  0  0  0
 26 17  1  0  0  0  0
 27 28  1  0  0  0  0
 29 22  1  0  0  0  0
 30 34  2  0  0  0  0
 31 36  1  0  0  0  0
 32 33  1  0  0  0  0
 33 31  1  0  0  0  0
 34 31  1  0  0  0  0
 35 30  1  0  0  0  0
 35 32  2  0  0  0  0
 36 38  1  0  0  0  0
 37 36  1  0  0  0  0
 37 38  1  0  0  0  0
 39 40  1  0  0  0  0
 40 41  1  6  0  0  0
 42 49  1  0  0  0  0
 44 51  1  6  0  0  0
 44 53  1  0  0  0  0
 44 40  1  0  0  0  0
 44 46  1  0  0  0  0
 46 45  1  1  0  0  0
 47 42  1  0  0  0  0
 48 54  1  1  0  0  0
 48 52  1  0  0  0  0
 49 52  1  0  0  0  0
 50 43  1  1  0  0  0
 50 53  1  0  0  0  0
 50 48  1  0  0  0  0
 53 42  1  1  0  0  0
 53 46  1  0  0  0  0
 54 55  1  0  0  0  0
M  END
>  <MODEL>
1

>  <REMARK>
 VINA RESULT:      -9.7      0.000      0.000
  Name = 
  6 active torsions:
  status: ('A' for Active; 'I' for Inactive)
    1  A    between atoms: C_6  and  C_20
    2  A    between atoms: C_7  and  C_8
    3  A    between atoms: C_7  and  C_20
    4  A    between atoms: C_10  and  N_32
    5  A    between atoms: O_11  and  C_29
    6  A    between atoms: C_33  and  C_52
                            x       y       z     vdW  Elec       q    Type
                         _______ _______ _______ _____ _____    ______ ____

>  <TORSDO>
F 6

$$$$
=
 OpenBabel10272401273D

 55 62  0  0  1  0  0  0  0  0999 V2000
  187.8570  178.4660  141.4560 C   0  0  2  0  0  3  0  0  0  0  0  0
  188.5210  175.6090  135.3630 O   0  0  0  0  0  0  0  0  0  0  0  0
  187.5220  177.9040  136.3240 O   0  0  0  0  0  0  0  0  0  0  0  0
  191.2570  175.8580  136.4200 C   0  0  1  0  0  3  0  0  0  0  0  0
  182.9270  178.3630  137.3230 C   0  0  0  0  0  3  0  0  0  0  0  0
  181.7190  178.8670  137.5730 C   0  0  0  0  0  3  0  0  0  0  0  0
  183.5890  178.6930  139.7370 C   0  0  2  0  0  3  0  0  0  0  0  0
  182.1250  178.9400  139.9750 C   0  0  0  0  0  3  0  0  0  0  0  0
  185.6330  176.9000  137.1980 O   0  0  0  0  0  0  0  0  0  0  0  0
  190.5630  174.6490  135.9870 N   0  0  0  0  0  2  0  0  0  0  0  0
  181.2660  179.0530  138.9600 C   0  0  0  0  0  3  0  0  0  0  0  0
  189.2420  177.1060  143.0180 C   0  0  0  0  0  2  0  0  0  0  0  0
  183.8290  177.9010  138.4380 C   0  0  2  0  0  3  0  0  0  0  0  0
  191.0170  176.8530  140.8180 C   0  0  1  0  0  3  0  0  0  0  0  0
  187.3600  178.5240  140.1410 O   0  0  0  0  0  0  0  0  0  0  0  0
  190.1350  177.9460  140.9110 O   0  0  0  0  0  0  0  0  0  0  0  0
  185.3810  178.5700  141.4910 C   0  0  2  0  0  3  0  0  0  0  0  0
  189.1430  174.7810  136.2990 C   0  0  0  0  0  2  0  0  0  0  0  0
  184.1240  177.9180  140.9300 C   0  0  0  0  0  2  0  0  0  0  0  0
  187.1680  175.6140  135.7190 C   0  0  0  0  0  2  0  0  0  0  0  0
  186.8070  176.8700  136.4450 C   0  0  0  0  0  0  0  0  0  0  0  0
  190.7390  177.0830  143.3350 C   0  0  0  0  0  2  0  0  0  0  0  0
  191.4000  175.8550  137.9350 C   0  0  0  0  0  2  0  0  0  0  0  0
  188.9770  177.4510  141.5420 C   0  0  2  0  0  3  0  0  0  0  0  0
  185.2720  178.0270  137.9840 C   0  0  0  0  0  2  0  0  0  0  0  0
  186.6080  177.7710  141.0640 C   0  0  2  0  0  3  0  0  0  0  0  0
  191.7340  177.2470  138.4440 C   0  0  0  0  0  2  0  0  0  0  0  0
  192.1770  177.1910  139.8970 C   0  0  0  0  0  2  0  0  0  0  0  0
  191.5540  176.4480  142.2010 C   0  0  0  0  0  2  0  0  0  0  0  0
  186.0610  177.7290  143.8080 C   0  0  0  0  0  3  0  0  0  0  0  0
  185.3190  178.8660  145.7910 N   0  0  0  0  0  0  0  0  0  0  0  0
  184.4980  179.5860  143.5710 C   0  0  0  0  0  3  0  0  0  0  0  0
  184.3060  179.6420  145.0620 C   0  0  0  0  0  2  0  0  0  0  0  0
  186.0660  177.8310  145.1370 C   0  0  0  0  0  3  0  0  0  0  0  0
  185.2910  178.6800  142.9870 C   0  0  0  0  0  0  0  0  0  0  0  0
  185.3390  178.9220  147.2500 C   0  0  0  0  0  3  0  0  0  0  0  0
  186.3600  179.9450  147.7280 C   0  0  0  0  0  2  0  0  0  0  0  0
  186.6940  178.4720  147.7690 C   0  0  0  0  0  2  0  0  0  0  0  0
  192.6550  175.8680  135.8170 C   0  0  0  0  0  2  0  0  0  0  0  0
  193.4450  174.6020  136.1300 C   0  0  2  0  0  3  0  0  0  0  0  0
  192.6980  173.8380  137.0270 O   0  0  0  0  0  1  0  0  0  0  0  0
  195.8780  172.9110  135.5670 N   0  0  0  0  0  0  0  0  0  0  0  0
  197.3580  175.0770  138.3150 O   0  0  0  0  0  1  0  0  0  0  0  0
  194.8110  174.9390  136.7560 C   0  0  1  0  0  0  0  0  0  0  0  0
  195.5930  175.3620  134.3460 C   0  0  0  0  0  1  0  0  0  0  0  0
  195.9300  175.4380  135.8340 C   0  0  2  0  0  3  0  0  0  0  0  0
  195.2340  171.8240  136.2880 C   0  0  0  0  0  1  0  0  0  0  0  0
  198.5660  173.6800  136.7250 C   0  0  1  0  0  3  0  0  0  0  0  0
  197.1640  172.3590  135.1100 C   0  0  0  0  0  2  0  0  0  0  0  0
  197.2440  173.9640  137.4740 C   0  0  2  0  0  3  0  0  0  0  0  0
  194.7890  175.5920  137.9930 O   0  0  0  0  0  1  0  0  0  0  0  0
  198.3420  173.3230  135.2550 C   0  0  0  0  0  2  0  0  0  0  0  0
  196.0400  174.0500  136.5030 C   0  0  2  0  0  0  0  0  0  0  0  0
  199.4460  174.7640  136.7990 O   0  0  0  0  0  0  0  0  0  0  0  0
  199.4800  175.2480  135.5750 O   0  0  0  0  0  1  0  0  0  0  0  0
  1 15  1  6  0  0  0
  1 24  1  0  0  0  0
  2 20  1  0  0  0  0
  2 18  1  0  0  0  0
  3 21  2  0  0  0  0
  4 39  1  6  0  0  0
  4 23  1  0  0  0  0
  5  6  2  0  0  0  0
  6 11  1  0  0  0  0
  7  8  1  1  0  0  0
  7 19  1  0  0  0  0
  9 25  1  0  0  0  0
 10 18  1  0  0  0  0
 10  4  1  0  0  0  0
 11  8  2  0  0  0  0
 12 22  1  0  0  0  0
 13  5  1  6  0  0  0
 13  7  1  0  0  0  0
 14 28  1  6  0  0  0
 14 16  1  0  0  0  0
 14 29  1  0  0  0  0
 16 24  1  0  0  0  0
 17 35  1  1  0  0  0
 19 17  1  0  0  0  0
 20 21  1  0  0  0  0
 21  9  1  0  0  0  0
 23 27  1  0  0  0  0
 24 12  1  1  0  0  0
 25 13  1  0  0  0  0
 26 15  1  6  0  0  0
 26  1  1  0  0  0  0
 26 17  1  0  0  0  0
 27 28  1  0  0  0  0
 29 22  1  0  0  0  0
 30 34  2  0  0  0  0
 31 36  1  0  0  0  0
 32 33  1  0  0  0  0
 33 31  1  0  0  0  0
 34 31  1  0  0  0  0
 35 32  2  0  0  0  0
 35 30  1  0  0  0  0
 36 37  1  0  0  0  0
 36 38  1  0  0  0  0
 37 38  1  0  0  0  0
 39 40  1  0  0  0  0
 40 44  1  0  0  0  0
 40 41  1  1  0  0  0
 42 47  1  0  0  0  0
 44 51  1  1  0  0  0
 46 45  1  6  0  0  0
 46 53  1  0  0  0  0
 46 44  1  0  0  0  0
 48 54  1  6  0  0  0
 48 50  1  0  0  0  0
 49 52  1  0  0  0  0
 49 42  1  0  0  0  0
 50 43  1  6  0  0  0
 52 48  1  0  0  0  0
 53 42  1  6  0  0  0
 53 44  1  0  0  0  0
 53 50  1  0  0  0  0
 55 54  1  0  0  0  0
M  END
>  <MODEL>
2

>  <REMARK>
 VINA RESULT:      -9.0      2.493      3.499
  Name = 
  6 active torsions:
  status: ('A' for Active; 'I' for Inactive)
    1  A    between atoms: C_6  and  C_20
    2  A    between atoms: C_7  and  C_8
    3  A    between atoms: C_7  and  C_20
    4  A    between atoms: C_10  and  N_32
    5  A    between atoms: O_11  and  C_29
    6  A    between atoms: C_33  and  C_52
                            x       y       z     vdW  Elec       q    Type
                         _______ _______ _______ _____ _____    ______ ____

>  <TORSDO>
F 6

$$$$
=
 OpenBabel10272401273D

 55 62  0  0  1  0  0  0  0  0999 V2000
  188.2960  178.3740  142.0880 C   0  0  2  0  0  3  0  0  0  0  0  0
  187.8990  176.0280  135.7580 O   0  0  0  0  0  0  0  0  0  0  0  0
  187.0890  178.2280  137.0590 O   0  0  0  0  0  0  0  0  0  0  0  0
  190.7770  176.2160  136.3510 C   0  0  1  0  0  3  0  0  0  0  0  0
  182.7330  178.5610  138.8600 C   0  0  0  0  0  3  0  0  0  0  0  0
  181.5880  179.0310  139.3520 C   0  0  0  0  0  3  0  0  0  0  0  0
  183.7990  178.7000  141.1450 C   0  0  2  0  0  3  0  0  0  0  0  0
  182.3970  178.9130  141.6480 C   0  0  0  0  0  3  0  0  0  0  0  0
  185.3710  177.1380  138.1580 O   0  0  0  0  0  0  0  0  0  0  0  0
  190.0130  175.0400  135.9450 N   0  0  0  0  0  2  0  0  0  0  0  0
  181.3790  179.1000  140.8060 C   0  0  0  0  0  3  0  0  0  0  0  0
  189.9210  176.9040  143.2750 C   0  0  0  0  0  2  0  0  0  0  0  0
  183.8100  178.0180  139.7630 C   0  0  2  0  0  3  0  0  0  0  0  0
  191.2930  176.8470  140.7920 C   0  0  1  0  0  3  0  0  0  0  0  0
  187.5830  178.5340  140.8860 O   0  0  0  0  0  0  0  0  0  0  0  0
  190.4450  177.9210  141.1230 O   0  0  0  0  0  0  0  0  0  0  0  0
  185.8620  178.4510  142.5520 C   0  0  2  0  0  3  0  0  0  0  0  0
  188.6670  175.1320  136.5040 C   0  0  0  0  0  2  0  0  0  0  0  0
  184.5260  177.8350  142.1620 C   0  0  0  0  0  2  0  0  0  0  0  0
  186.6260  175.9910  136.3390 C   0  0  0  0  0  2  0  0  0  0  0  0
  186.4000  177.1810  137.2160 C   0  0  0  0  0  0  0  0  0  0  0  0
  191.4500  176.8700  143.3300 C   0  0  0  0  0  2  0  0  0  0  0  0
  191.1750  176.0910  137.8140 C   0  0  0  0  0  2  0  0  0  0  0  0
  189.4090  177.3660  141.8990 C   0  0  2  0  0  3  0  0  0  0  0  0
  185.1550  178.1940  139.0820 C   0  0  0  0  0  2  0  0  0  0  0  0
  186.9950  177.7010  141.8590 C   0  0  2  0  0  3  0  0  0  0  0  0
  191.5980  177.4400  138.3710 C   0  0  0  0  0  2  0  0  0  0  0  0
  192.2810  177.2700  139.7180 C   0  0  0  0  0  2  0  0  0  0  0  0
  192.0560  176.3360  142.0260 C   0  0  0  0  0  2  0  0  0  0  0  0
  186.7990  177.3400  144.6560 C   0  0  0  0  0  3  0  0  0  0  0  0
  186.5320  178.3730  146.8100 N   0  0  0  0  0  0  0  0  0  0  0  0
  185.4570  179.3700  144.8170 C   0  0  0  0  0  3  0  0  0  0  0  0
  185.5170  179.3160  146.3190 C   0  0  0  0  0  2  0  0  0  0  0  0
  187.0310  177.3230  145.9690 C   0  0  0  0  0  3  0  0  0  0  0  0
  186.0290  178.4380  144.0460 C   0  0  0  0  0  0  0  0  0  0  0  0
  186.7930  178.2980  148.2440 C   0  0  0  0  0  3  0  0  0  0  0  0
  188.2490  178.6300  148.5370 C   0  0  0  0  0  2  0  0  0  0  0  0
  187.7920  177.1910  148.5330 C   0  0  0  0  0  2  0  0  0  0  0  0
  192.0510  176.2880  135.5220 C   0  0  0  0  0  2  0  0  0  0  0  0
  193.2950  175.8880  136.3090 C   0  0  2  0  0  3  0  0  0  0  0  0
  194.2710  176.8590  136.0940 O   0  0  0  0  0  1  0  0  0  0  0  0
  196.2350  175.2340  136.4310 N   0  0  0  0  0  0  0  0  0  0  0  0
  195.0910  172.1800  134.4830 O   0  0  0  0  0  1  0  0  0  0  0  0
  193.8240  174.5160  135.8520 C   0  0  1  0  0  0  0  0  0  0  0  0
  194.5130  174.1840  138.3040 C   0  0  0  0  0  1  0  0  0  0  0  0
  194.3830  173.5630  136.9150 C   0  0  2  0  0  3  0  0  0  0  0  0
  196.4570  176.2410  135.4040 C   0  0  0  0  0  1  0  0  0  0  0  0
  197.2180  172.4860  135.6330 C   0  0  1  0  0  3  0  0  0  0  0  0
  197.5750  174.7100  136.7480 C   0  0  0  0  0  2  0  0  0  0  0  0
  195.9910  173.1410  134.9590 C   0  0  2  0  0  3  0  0  0  0  0  0
  193.0900  173.8590  134.8600 O   0  0  0  0  0  1  0  0  0  0  0  0
  197.6230  173.1920  136.9280 C   0  0  0  0  0  2  0  0  0  0  0  0
  195.3300  174.2010  135.8740 C   0  0  2  0  0  0  0  0  0  0  0  0
  196.9960  171.1320  135.9070 O   0  0  0  0  0  0  0  0  0  0  0  0
  198.1130  170.7190  136.4670 O   0  0  0  0  0  1  0  0  0  0  0  0
  1 15  1  6  0  0  0
  2 20  1  0  0  0  0
  2 18  1  0  0  0  0
  3 21  2  0  0  0  0
  4 39  1  6  0  0  0
  4 23  1  0  0  0  0
  5  6  2  0  0  0  0
  6 11  1  0  0  0  0
  7  8  1  1  0  0  0
  7 19  1  0  0  0  0
  9 25  1  0  0  0  0
 10  4  1  0  0  0  0
 10 18  1  0  0  0  0
 11  8  2  0  0  0  0
 12 22  1  0  0  0  0
 13  5  1  6  0  0  0
 13  7  1  0  0  0  0
 14 28  1  6  0  0  0
 14 16  1  0  0  0  0
 14 29  1  0  0  0  0
 16 24  1  0  0  0  0
 17 35  1  1  0  0  0
 19 17  1  0  0  0  0
 20 21  1  0  0  0  0
 21  9  1  0  0  0  0
 23 27  1  0  0  0  0
 24  1  1  0  0  0  0
 24 12  1  1  0  0  0
 25 13  1  0  0  0  0
 26 15  1  6  0  0  0
 26  1  1  0  0  0  0
 26 17  1  0  0  0  0
 27 28  1  0  0  0  0
 29 22  1  0  0  0  0
 30 34  2  0  0  0  0
 31 36  1  0  0  0  0
 32 33  1  0  0  0  0
 33 31  1  0  0  0  0
 34 31  1  0  0  0  0
 35 30  1  0  0  0  0
 35 32  2  0  0  0  0
 36 38  1  0  0  0  0
 36 37  1  0  0  0  0
 38 37  1  0  0  0  0
 39 40  1  0  0  0  0
 40 41  1  6  0  0  0
 42 49  1  0  0  0  0
 44 51  1  6  0  0  0
 44 53  1  0  0  0  0
 44 40  1  0  0  0  0
 44 46  1  0  0  0  0
 46 45  1  1  0  0  0
 47 42  1  0  0  0  0
 48 54  1  1  0  0  0
 48 52  1  0  0  0  0
 49 52  1  0  0  0  0
 50 43  1  1  0  0  0
 50 48  1  0  0  0  0
 50 53  1  0  0  0  0
 53 42  1  1  0  0  0
 53 46  1  0  0  0  0
 54 55  1  0  0  0  0
M  END
>  <MODEL>
3

>  <REMARK>
 VINA RESULT:      -8.3      1.773      2.213
  Name = 
  6 active torsions:
  status: ('A' for Active; 'I' for Inactive)
    1  A    between atoms: C_6  and  C_20
    2  A    between atoms: C_7  and  C_8
    3  A    between atoms: C_7  and  C_20
    4  A    between atoms: C_10  and  N_32
    5  A    between atoms: O_11  and  C_29
    6  A    between atoms: C_33  and  C_52
                            x       y       z     vdW  Elec       q    Type
                         _______ _______ _______ _____ _____    ______ ____

>  <TORSDO>
F 6

$$$$
=
 OpenBabel10272401273D

 55 62  0  0  1  0  0  0  0  0999 V2000
  186.2220  177.2440  138.4830 C   0  0  2  0  0  3  0  0  0  0  0  0
  192.7900  176.8930  140.0520 O   0  0  0  0  0  0  0  0  0  0  0  0
  190.5230  175.7880  140.9620 O   0  0  0  0  0  0  0  0  0  0  0  0
  192.6000  176.0120  137.2490 C   0  0  1  0  0  3  0  0  0  0  0  0
  188.1620  177.6560  144.6040 C   0  0  0  0  0  3  0  0  0  0  0  0
  187.3490  177.8270  145.6460 C   0  0  0  0  0  3  0  0  0  0  0  0
  186.2490  178.0840  143.0130 C   0  0  2  0  0  3  0  0  0  0  0  0
  185.5080  178.5640  144.2300 C   0  0  0  0  0  3  0  0  0  0  0  0
  189.8120  177.7240  142.0060 O   0  0  0  0  0  0  0  0  0  0  0  0
  193.3850  177.1130  137.7980 N   0  0  0  0  0  2  0  0  0  0  0  0
  186.0130  178.4100  145.4550 C   0  0  0  0  0  3  0  0  0  0  0  0
  186.0910  178.4330  136.2970 C   0  0  0  0  0  2  0  0  0  0  0  0
  187.7750  178.1210  143.2240 C   0  0  2  0  0  3  0  0  0  0  0  0
  188.4920  177.0490  135.6900 C   0  0  1  0  0  3  0  0  0  0  0  0
  187.1000  176.8700  139.5170 O   0  0  0  0  0  0  0  0  0  0  0  0
  187.5860  176.5400  136.6400 O   0  0  0  0  0  0  0  0  0  0  0  0
  185.4280  178.1680  140.6420 C   0  0  2  0  0  3  0  0  0  0  0  0
  192.6580  177.7000  138.9200 C   0  0  0  0  0  2  0  0  0  0  0  0
  185.8600  178.9850  141.8520 C   0  0  0  0  0  2  0  0  0  0  0  0
  192.1140  177.5750  141.0700 C   0  0  0  0  0  2  0  0  0  0  0  0
  190.7670  176.9760  141.3170 C   0  0  0  0  0  0  0  0  0  0  0  0
  186.2790  177.9780  134.8480 C   0  0  0  0  0  2  0  0  0  0  0  0
  191.4320  176.5630  136.4450 C   0  0  0  0  0  2  0  0  0  0  0  0
  187.0110  177.6650  137.2620 C   0  0  2  0  0  3  0  0  0  0  0  0
  188.4860  177.2550  142.1990 C   0  0  0  0  0  2  0  0  0  0  0  0
  186.5430  178.1620  139.6020 C   0  0  2  0  0  3  0  0  0  0  0  0
  190.3860  175.4860  136.2120 C   0  0  0  0  0  2  0  0  0  0  0  0
  189.3820  175.9360  135.1640 C   0  0  0  0  0  2  0  0  0  0  0  0
  187.7550  177.7200  134.5180 C   0  0  0  0  0  2  0  0  0  0  0  0
  184.2160  179.9040  139.2090 C   0  0  0  0  0  3  0  0  0  0  0  0
  181.8480  179.7450  138.8310 N   0  0  0  0  0  0  0  0  0  0  0  0
  182.9650  178.1630  140.3710 C   0  0  0  0  0  3  0  0  0  0  0  0
  181.6640  178.7560  139.9020 C   0  0  0  0  0  2  0  0  0  0  0  0
  183.1170  180.3820  138.6250 C   0  0  0  0  0  3  0  0  0  0  0  0
  184.1480  178.7120  140.0710 C   0  0  0  0  0  0  0  0  0  0  0  0
  180.6700  180.3190  138.1880 C   0  0  0  0  0  3  0  0  0  0  0  0
  180.4770  179.7220  136.8010 C   0  0  0  0  0  2  0  0  0  0  0  0
  181.0800  181.0980  136.9510 C   0  0  0  0  0  2  0  0  0  0  0  0
  193.4780  175.2010  136.3060 C   0  0  0  0  0  2  0  0  0  0  0  0
  194.2180  174.0690  137.0100 C   0  0  2  0  0  3  0  0  0  0  0  0
  193.4490  173.6630  138.1000 O   0  0  0  0  0  1  0  0  0  0  0  0
  196.7100  172.5120  136.3340 N   0  0  0  0  0  0  0  0  0  0  0  0
  198.2500  174.9230  138.8330 O   0  0  0  0  0  1  0  0  0  0  0  0
  195.6020  174.5300  137.5020 C   0  0  1  0  0  0  0  0  0  0  0  0
  196.1580  174.8640  135.0160 C   0  0  0  0  0  1  0  0  0  0  0  0
  196.6070  175.0470  136.4650 C   0  0  2  0  0  3  0  0  0  0  0  0
  196.2040  171.4270  137.1610 C   0  0  0  0  0  1  0  0  0  0  0  0
  199.4220  173.5190  137.2220 C   0  0  1  0  0  3  0  0  0  0  0  0
  197.9910  172.0190  135.8000 C   0  0  0  0  0  2  0  0  0  0  0  0
  198.1470  173.7590  138.0630 C   0  0  2  0  0  3  0  0  0  0  0  0
  195.6340  175.2500  138.7000 O   0  0  0  0  0  1  0  0  0  0  0  0
  199.1070  173.0650  135.7960 C   0  0  0  0  0  2  0  0  0  0  0  0
  196.8670  173.7100  137.1930 C   0  0  2  0  0  0  0  0  0  0  0  0
  200.2270  174.6610  137.1660 O   0  0  0  0  0  0  0  0  0  0  0  0
  200.1810  175.0390  135.9060 O   0  0  0  0  0  1  0  0  0  0  0  0
  1 15  1  1  0  0  0
  1 26  1  0  0  0  0
  2 20  1  0  0  0  0
  3 21  2  0  0  0  0
  4 39  1  6  0  0  0
  4 10  1  0  0  0  0
  5  6  2  0  0  0  0
  7 19  1  6  0  0  0
  7 13  1  0  0  0  0
  7  8  1  0  0  0  0
  8 11  2  0  0  0  0
  9 25  1  0  0  0  0
 10 18  1  0  0  0  0
 11  6  1  0  0  0  0
 13 25  1  6  0  0  0
 13  5  1  0  0  0  0
 14 29  1  6  0  0  0
 14 16  1  0  0  0  0
 16 24  1  0  0  0  0
 17 35  1  6  0  0  0
 17 19  1  0  0  0  0
 18  2  1  0  0  0  0
 20 21  1  0  0  0  0
 21  9  1  0  0  0  0
 22 12  1  0  0  0  0
 23  4  1  0  0  0  0
 24 12  1  6  0  0  0
 24  1  1  0  0  0  0
 26 15  1  1  0  0  0
 26 17  1  0  0  0  0
 27 23  1  0  0  0  0
 28 14  1  0  0  0  0
 28 27  1  0  0  0  0
 29 22  1  0  0  0  0
 30 35  1  0  0  0  0
 31 33  1  0  0  0  0
 33 32  1  0  0  0  0
 34 31  1  0  0  0  0
 34 30  2  0  0  0  0
 35 32  2  0  0  0  0
 36 31  1  0  0  0  0
 37 38  1  0  0  0  0
 37 36  1  0  0  0  0
 38 36  1  0  0  0  0
 39 40  1  0  0  0  0
 40 44  1  0  0  0  0
 40 41  1  1  0  0  0
 42 47  1  0  0  0  0
 44 51  1  1  0  0  0
 46 45  1  6  0  0  0
 46 53  1  0  0  0  0
 46 44  1  0  0  0  0
 48 54  1  6  0  0  0
 48 50  1  0  0  0  0
 49 42  1  0  0  0  0
 50 43  1  6  0  0  0
 52 49  1  0  0  0  0
 52 48  1  0  0  0  0
 53 42  1  6  0  0  0
 53 44  1  0  0  0  0
 53 50  1  0  0  0  0
 55 54  1  0  0  0  0
M  END
>  <MODEL>
4

>  <REMARK>
 VINA RESULT:      -7.8      3.195      6.786
  Name = 
  6 active torsions:
  status: ('A' for Active; 'I' for Inactive)
    1  A    between atoms: C_6  and  C_20
    2  A    between atoms: C_7  and  C_8
    3  A    between atoms: C_7  and  C_20
    4  A    between atoms: C_10  and  N_32
    5  A    between atoms: O_11  and  C_29
    6  A    between atoms: C_33  and  C_52
                            x       y       z     vdW  Elec       q    Type
                         _______ _______ _______ _____ _____    ______ ____

>  <TORSDO>
F 6

$$$$
=
 OpenBabel10272401273D

 55 62  0  0  1  0  0  0  0  0999 V2000
  186.4620  177.2100  138.1360 C   0  0  2  0  0  3  0  0  0  0  0  0
  192.8410  176.9370  140.3620 O   0  0  0  0  0  0  0  0  0  0  0  0
  190.5080  175.8030  141.0370 O   0  0  0  0  0  0  0  0  0  0  0  0
  192.9480  176.0600  137.5540 C   0  0  1  0  0  3  0  0  0  0  0  0
  187.7660  177.6330  144.4220 C   0  0  0  0  0  3  0  0  0  0  0  0
  186.8500  177.7910  145.3760 C   0  0  0  0  0  3  0  0  0  0  0  0
  186.0200  178.0400  142.6450 C   0  0  2  0  0  3  0  0  0  0  0  0
  185.1530  178.5080  143.7820 C   0  0  0  0  0  3  0  0  0  0  0  0
  189.6700  177.7270  142.0050 O   0  0  0  0  0  0  0  0  0  0  0  0
  193.6590  177.1700  138.1810 N   0  0  0  0  0  2  0  0  0  0  0  0
  185.5330  178.3580  145.0520 C   0  0  0  0  0  3  0  0  0  0  0  0
  186.5380  178.4020  135.9490 C   0  0  0  0  0  2  0  0  0  0  0  0
  187.5150  178.0960  143.0110 C   0  0  2  0  0  3  0  0  0  0  0  0
  189.0060  177.0490  135.5870 C   0  0  1  0  0  3  0  0  0  0  0  0
  187.2350  176.8450  139.2530 O   0  0  0  0  0  0  0  0  0  0  0  0
  188.0150  176.5270  136.4390 O   0  0  0  0  0  0  0  0  0  0  0  0
  185.4420  178.1190  140.2040 C   0  0  2  0  0  3  0  0  0  0  0  0
  192.8150  177.7450  139.2240 C   0  0  0  0  0  2  0  0  0  0  0  0
  185.7380  178.9390  141.4520 C   0  0  0  0  0  2  0  0  0  0  0  0
  192.0570  177.6090  141.3070 C   0  0  0  0  0  2  0  0  0  0  0  0
  190.6990  176.9930  141.4150 C   0  0  0  0  0  0  0  0  0  0  0  0
  186.8780  177.9520  134.5260 C   0  0  0  0  0  2  0  0  0  0  0  0
  191.8610  176.5990  136.6350 C   0  0  0  0  0  2  0  0  0  0  0  0
  187.3660  177.6440  137.0010 C   0  0  2  0  0  3  0  0  0  0  0  0
  188.3370  177.2410  142.0620 C   0  0  0  0  0  2  0  0  0  0  0  0
  186.6570  178.1300  139.2820 C   0  0  2  0  0  3  0  0  0  0  0  0
  190.8570  175.5090  136.2970 C   0  0  0  0  0  2  0  0  0  0  0  0
  189.9590  175.9490  135.1530 C   0  0  0  0  0  2  0  0  0  0  0  0
  188.3830  177.7140  134.3470 C   0  0  0  0  0  2  0  0  0  0  0  0
  183.2020  177.6860  139.0480 C   0  0  0  0  0  3  0  0  0  0  0  0
  181.8270  179.5160  138.3150 N   0  0  0  0  0  0  0  0  0  0  0  0
  184.0710  179.9550  139.2600 C   0  0  0  0  0  3  0  0  0  0  0  0
  182.9130  180.4950  138.4670 C   0  0  0  0  0  2  0  0  0  0  0  0
  182.0720  178.1130  138.4860 C   0  0  0  0  0  3  0  0  0  0  0  0
  184.2200  178.6480  139.5060 C   0  0  0  0  0  0  0  0  0  0  0  0
  180.5840  179.9320  137.6730 C   0  0  0  0  0  3  0  0  0  0  0  0
  180.7090  179.8340  136.1590 C   0  0  0  0  0  2  0  0  0  0  0  0
  180.8210  181.1780  136.8380 C   0  0  0  0  0  2  0  0  0  0  0  0
  193.9270  175.2620  136.7040 C   0  0  0  0  0  2  0  0  0  0  0  0
  194.4940  174.0480  137.4320 C   0  0  2  0  0  3  0  0  0  0  0  0
  194.1790  174.1720  138.7850 O   0  0  0  0  0  1  0  0  0  0  0  0
  195.8480  171.4330  136.7860 N   0  0  0  0  0  0  0  0  0  0  0  0
  198.9650  173.4870  137.4900 O   0  0  0  0  0  1  0  0  0  0  0  0
  196.0220  173.9640  137.2660 C   0  0  1  0  0  0  0  0  0  0  0  0
  195.5260  173.3380  134.8250 C   0  0  0  0  0  1  0  0  0  0  0  0
  196.5860  173.6850  135.8680 C   0  0  2  0  0  3  0  0  0  0  0  0
  195.4440  170.9500  138.0970 C   0  0  0  0  0  1  0  0  0  0  0  0
  198.8400  171.3360  136.3520 C   0  0  1  0  0  3  0  0  0  0  0  0
  196.5560  170.3020  136.1630 C   0  0  0  0  0  2  0  0  0  0  0  0
  198.1920  172.3300  137.3430 C   0  0  2  0  0  3  0  0  0  0  0  0
  196.7830  174.8870  137.9900 O   0  0  0  0  0  1  0  0  0  0  0  0
  197.8210  170.7040  135.4030 C   0  0  0  0  0  2  0  0  0  0  0  0
  196.7140  172.6200  136.9800 C   0  0  2  0  0  0  0  0  0  0  0  0
  199.8480  171.9420  135.5950 O   0  0  0  0  0  0  0  0  0  0  0  0
  199.2840  172.1950  134.4330 O   0  0  0  0  0  1  0  0  0  0  0  0
  1 15  1  1  0  0  0
  1 26  1  0  0  0  0
  2 20  1  0  0  0  0
  3 21  2  0  0  0  0
  4 39  1  6  0  0  0
  4 10  1  0  0  0  0
  5  6  2  0  0  0  0
  7 19  1  6  0  0  0
  7 13  1  0  0  0  0
  7  8  1  0  0  0  0
  8 11  2  0  0  0  0
  9 25  1  0  0  0  0
 10 18  1  0  0  0  0
 11  6  1  0  0  0  0
 13 25  1  6  0  0  0
 13  5  1  0  0  0  0
 14 29  1  6  0  0  0
 14 16  1  0  0  0  0
 16 24  1  0  0  0  0
 17 35  1  6  0  0  0
 17 19  1  0  0  0  0
 18  2  1  0  0  0  0
 20 21  1  0  0  0  0
 21  9  1  0  0  0  0
 22 12  1  0  0  0  0
 23  4  1  0  0  0  0
 24 12  1  6  0  0  0
 24  1  1  0  0  0  0
 26 15  1  1  0  0  0
 26 17  1  0  0  0  0
 27 23  1  0  0  0  0
 28 14  1  0  0  0  0
 28 27  1  0  0  0  0
 29 22  1  0  0  0  0
 30 35  1  0  0  0  0
 31 33  1  0  0  0  0
 31 34  1  0  0  0  0
 32 35  2  0  0  0  0
 33 32  1  0  0  0  0
 34 30  2  0  0  0  0
 36 31  1  0  0  0  0
 37 38  1  0  0  0  0
 37 36  1  0  0  0  0
 38 36  1  0  0  0  0
 39 40  1  0  0  0  0
 40 41  1  1  0  0  0
 42 47  1  0  0  0  0
 44 40  1  0  0  0  0
 44 51  1  1  0  0  0
 46 45  1  6  0  0  0
 46 53  1  0  0  0  0
 46 44  1  0  0  0  0
 48 54  1  6  0  0  0
 48 50  1  0  0  0  0
 49 42  1  0  0  0  0
 50 43  1  6  0  0  0
 52 49  1  0  0  0  0
 52 48  1  0  0  0  0
 53 42  1  6  0  0  0
 53 44  1  0  0  0  0
 53 50  1  0  0  0  0
 55 54  1  0  0  0  0
M  END
>  <MODEL>
5

>  <REMARK>
 VINA RESULT:      -7.7      3.059      6.795
  Name = 
  6 active torsions:
  status: ('A' for Active; 'I' for Inactive)
    1  A    between atoms: C_6  and  C_20
    2  A    between atoms: C_7  and  C_8
    3  A    between atoms: C_7  and  C_20
    4  A    between atoms: C_10  and  N_32
    5  A    between atoms: O_11  and  C_29
    6  A    between atoms: C_33  and  C_52
                            x       y       z     vdW  Elec       q    Type
                         _______ _______ _______ _____ _____    ______ ____

>  <TORSDO>
F 6

$$$$
=
 OpenBabel10272401273D

 55 62  0  0  1  0  0  0  0  0999 V2000
  186.2990  177.4430  138.8280 C   0  0  2  0  0  3  0  0  0  0  0  0
  192.6720  176.7810  140.9880 O   0  0  0  0  0  0  0  0  0  0  0  0
  190.2820  175.7850  141.6830 O   0  0  0  0  0  0  0  0  0  0  0  0
  192.6980  175.9090  138.1760 C   0  0  1  0  0  3  0  0  0  0  0  0
  187.6890  177.7620  145.1020 C   0  0  0  0  0  3  0  0  0  0  0  0
  186.7940  177.9720  146.0660 C   0  0  0  0  0  3  0  0  0  0  0  0
  185.9520  178.2810  143.3450 C   0  0  2  0  0  3  0  0  0  0  0  0
  185.1260  178.7950  144.4910 C   0  0  0  0  0  3  0  0  0  0  0  0
  189.5710  177.7530  142.6660 O   0  0  0  0  0  0  0  0  0  0  0  0
  193.4810  176.9730  138.7990 N   0  0  0  0  0  2  0  0  0  0  0  0
  185.5090  178.6170  145.7570 C   0  0  0  0  0  3  0  0  0  0  0  0
  186.4240  178.6370  136.6450 C   0  0  0  0  0  2  0  0  0  0  0  0
  187.4520  178.2450  143.6950 C   0  0  2  0  0  3  0  0  0  0  0  0
  188.8030  177.1400  136.2520 C   0  0  1  0  0  3  0  0  0  0  0  0
  187.0600  177.0270  139.9360 O   0  0  0  0  0  0  0  0  0  0  0  0
  187.7910  176.6750  137.1140 O   0  0  0  0  0  0  0  0  0  0  0  0
  185.3560  178.4030  140.9100 C   0  0  2  0  0  3  0  0  0  0  0  0
  192.6820  177.5930  139.8530 C   0  0  0  0  0  2  0  0  0  0  0  0
  185.7130  179.1990  142.1570 C   0  0  0  0  0  2  0  0  0  0  0  0
  191.9390  177.4940  141.9430 C   0  0  0  0  0  2  0  0  0  0  0  0
  190.5480  176.9600  142.0630 C   0  0  0  0  0  0  0  0  0  0  0  0
  186.7220  178.1730  135.2170 C   0  0  0  0  0  2  0  0  0  0  0  0
  191.6360  176.5160  137.2710 C   0  0  0  0  0  2  0  0  0  0  0  0
  187.2150  177.8260  137.6860 C   0  0  2  0  0  3  0  0  0  0  0  0
  188.2120  177.3470  142.7350 C   0  0  0  0  0  2  0  0  0  0  0  0
  186.5590  178.3450  139.9750 C   0  0  2  0  0  3  0  0  0  0  0  0
  190.5650  175.4890  136.9390 C   0  0  0  0  0  2  0  0  0  0  0  0
  189.6840  175.9860  135.8050 C   0  0  0  0  0  2  0  0  0  0  0  0
  188.2080  177.8450  135.0220 C   0  0  0  0  0  2  0  0  0  0  0  0
  182.8190  178.5400  140.6180 C   0  0  0  0  0  3  0  0  0  0  0  0
  181.8410  180.1520  139.1270 N   0  0  0  0  0  0  0  0  0  0  0  0
  184.3000  179.9130  139.2510 C   0  0  0  0  0  3  0  0  0  0  0  0
  183.1270  180.4480  138.4780 C   0  0  0  0  0  2  0  0  0  0  0  0
  181.7280  179.0940  140.0890 C   0  0  0  0  0  3  0  0  0  0  0  0
  184.1600  179.0070  140.2260 C   0  0  0  0  0  0  0  0  0  0  0  0
  180.6170  180.7100  138.5600 C   0  0  0  0  0  3  0  0  0  0  0  0
  180.6290  180.5830  137.0430 C   0  0  0  0  0  2  0  0  0  0  0  0
  180.9480  181.9100  137.6900 C   0  0  0  0  0  2  0  0  0  0  0  0
  193.6190  175.0580  137.3140 C   0  0  0  0  0  2  0  0  0  0  0  0
  195.0740  175.1100  137.7680 C   0  0  2  0  0  3  0  0  0  0  0  0
  195.8190  175.7130  136.7550 O   0  0  0  0  0  1  0  0  0  0  0  0
  196.3270  173.4780  135.5640 N   0  0  0  0  0  0  0  0  0  0  0  0
  196.1930  170.7690  138.2230 O   0  0  0  0  0  1  0  0  0  0  0  0
  195.6230  173.6980  138.0380 C   0  0  1  0  0  0  0  0  0  0  0  0
  197.9190  174.6900  137.4550 C   0  0  0  0  0  1  0  0  0  0  0  0
  197.1400  173.4830  137.9720 C   0  0  2  0  0  3  0  0  0  0  0  0
  195.0190  173.4110  134.9300 C   0  0  0  0  0  1  0  0  0  0  0  0
  197.4990  170.7540  136.1660 C   0  0  1  0  0  3  0  0  0  0  0  0
  197.2300  172.7480  134.6580 C   0  0  0  0  0  2  0  0  0  0  0  0
  196.2730  171.3020  136.9320 C   0  0  2  0  0  3  0  0  0  0  0  0
  195.0120  172.9740  139.0670 O   0  0  0  0  0  1  0  0  0  0  0  0
  198.2310  171.8400  135.3750 C   0  0  0  0  0  2  0  0  0  0  0  0
  196.2220  172.8500  136.9020 C   0  0  2  0  0  0  0  0  0  0  0  0
  198.4090  170.1300  137.0250 O   0  0  0  0  0  0  0  0  0  0  0  0
  199.3820  171.0040  137.1710 O   0  0  0  0  0  1  0  0  0  0  0  0
  1 15  1  1  0  0  0
  1 26  1  0  0  0  0
  2 20  1  0  0  0  0
  3 21  2  0  0  0  0
  4 39  1  6  0  0  0
  4 10  1  0  0  0  0
  5  6  2  0  0  0  0
  7 19  1  6  0  0  0
  7 13  1  0  0  0  0
  7  8  1  0  0  0  0
  8 11  2  0  0  0  0
  9 25  1  0  0  0  0
 10 18  1  0  0  0  0
 11  6  1  0  0  0  0
 13 25  1  6  0  0  0
 13  5  1  0  0  0  0
 14 29  1  6  0  0  0
 14 16  1  0  0  0  0
 16 24  1  0  0  0  0
 17 35  1  6  0  0  0
 17 19  1  0  0  0  0
 18  2  1  0  0  0  0
 20 21  1  0  0  0  0
 21  9  1  0  0  0  0
 22 12  1  0  0  0  0
 23  4  1  0  0  0  0
 24 12  1  6  0  0  0
 24  1  1  0  0  0  0
 26 15  1  1  0  0  0
 26 17  1  0  0  0  0
 27 23  1  0  0  0  0
 28 14  1  0  0  0  0
 28 27  1  0  0  0  0
 29 22  1  0  0  0  0
 31 34  1  0  0  0  0
 32 35  2  0  0  0  0
 33 31  1  0  0  0  0
 33 32  1  0  0  0  0
 34 30  2  0  0  0  0
 35 30  1  0  0  0  0
 36 31  1  0  0  0  0
 37 38  1  0  0  0  0
 37 36  1  0  0  0  0
 38 36  1  0  0  0  0
 39 40  1  0  0  0  0
 40 41  1  6  0  0  0
 40 44  1  0  0  0  0
 44 51  1  1  0  0  0
 46 45  1  6  0  0  0
 46 44  1  0  0  0  0
 47 42  1  0  0  0  0
 48 50  1  0  0  0  0
 48 54  1  1  0  0  0
 49 52  1  0  0  0  0
 49 42  1  0  0  0  0
 50 43  1  1  0  0  0
 52 48  1  0  0  0  0
 53 42  1  6  0  0  0
 53 50  1  0  0  0  0
 53 46  1  0  0  0  0
 53 44  1  0  0  0  0
 54 55  1  0  0  0  0
M  END
>  <MODEL>
6

>  <REMARK>
 VINA RESULT:      -7.1      2.818      6.444
  Name = 
  6 active torsions:
  status: ('A' for Active; 'I' for Inactive)
    1  A    between atoms: C_6  and  C_20
    2  A    between atoms: C_7  and  C_8
    3  A    between atoms: C_7  and  C_20
    4  A    between atoms: C_10  and  N_32
    5  A    between atoms: O_11  and  C_29
    6  A    between atoms: C_33  and  C_52
                            x       y       z     vdW  Elec       q    Type
                         _______ _______ _______ _____ _____    ______ ____

>  <TORSDO>
F 6

$$$$
