=
 OpenBabel10272414403D

 43 46  0  0  1  0  0  0  0  0999 V2000
  188.2180  177.7530  138.6280 C   0  0  1  0  0  3  0  0  0  0  0  0
  186.9890  178.2930  139.2980 C   0  0  0  0  0  0  0  0  0  0  0  0
  187.0440  178.6400  140.5080 O   0  0  0  0  0  0  0  0  0  0  0  0
  185.7910  178.4780  138.5960 O   0  0  0  0  0  0  0  0  0  0  0  0
  184.6080  178.9880  139.1490 C   0  0  0  0  0  0  0  0  0  0  0  0
  184.3720  180.2250  139.1630 O   0  0  0  0  0  0  0  0  0  0  0  0
  183.5850  178.0520  139.6870 C   0  0  0  0  0  2  0  0  0  0  0  0
  183.6400  178.0430  141.2040 C   0  0  0  0  0  2  0  0  0  0  0  0
  182.5230  178.8990  141.7750 C   0  0  1  0  0  3  0  0  0  0  0  0
  181.1940  178.3370  141.3170 C   0  0  0  0  0  1  0  0  0  0  0  0
  182.5630  178.8750  143.2960 C   0  0  0  0  0  2  0  0  0  0  0  0
  183.8030  179.5760  143.8160 C   0  0  0  0  0  2  0  0  0  0  0  0
  183.7570  179.6320  145.2080 O   0  0  0  0  0  0  0  0  0  0  0  0
  184.2910  178.4110  145.6290 C   0  0  0  0  0  2  0  0  0  0  0  0
  185.8090  178.4910  145.7240 C   0  0  1  0  0  3  0  0  0  0  0  0
  187.7740  177.2290  144.9680 C   0  0  0  0  0  3  0  0  0  0  0  0
  187.7390  177.8950  147.3520 C   0  0  0  0  0  2  0  0  0  0  0  0
  188.5400  177.9350  146.0470 C   0  0  0  0  0  2  0  0  0  0  0  0
  186.2810  178.3700  147.1860 C   0  0  0  0  0  2  0  0  0  0  0  0
  186.4710  177.4870  144.8170 C   0  0  0  0  0  3  0  0  0  0  0  0
  188.0610  177.8320  137.1140 C   0  0  0  0  0  2  0  0  0  0  0  0
  191.6320  173.9580  137.1720 C   0  0  0  0  0  2  0  0  0  0  0  0
  186.9460  175.6260  137.1450 C   0  0  0  0  0  2  0  0  0  0  0  0
  189.2530  174.2590  136.2490 C   0  0  1  0  0  3  0  0  0  0  0  0
  191.8080  176.3890  136.4950 C   0  0  0  0  0  2  0  0  0  0  0  0
  192.4660  175.0140  136.4560 C   0  0  0  0  0  2  0  0  0  0  0  0
  189.4080  175.7480  136.6190 C   0  0  1  0  0  3  0  0  0  0  0  0
  190.5490  173.4360  136.2350 C   0  0  0  0  0  2  0  0  0  0  0  0
  190.4750  176.4150  135.7590 C   0  0  0  0  0  2  0  0  0  0  0  0
  188.0460  176.4490  136.4730 C   0  0  2  0  0  3  0  0  0  0  0  0
  187.0580  174.1640  136.7190 C   0  0  0  0  0  2  0  0  0  0  0  0
  188.3110  173.6520  137.0960 O   0  0  0  0  0  0  0  0  0  0  0  0
  189.4480  178.5140  139.1000 C   0  0  0  0  0  2  0  0  0  0  0  0
  190.5050  177.5500  139.6100 C   0  0  0  0  0  2  0  0  0  0  0  0
  189.8900  176.5440  140.5720 C   0  0  0  0  0  2  0  0  0  0  0  0
  190.9750  175.8340  144.1340 C   0  0  0  0  0  3  0  0  0  0  0  0
  191.4750  177.0780  144.5330 C   0  0  0  0  0  0  0  0  0  0  0  0
  190.9150  177.9850  142.3490 C   0  0  0  0  0  3  0  0  0  0  0  0
  190.4500  175.6620  142.8490 C   0  0  0  0  0  3  0  0  0  0  0  0
  190.4170  176.7380  141.9560 C   0  0  0  0  0  0  0  0  0  0  0  0
  191.4420  178.1550  143.6330 C   0  0  0  0  0  3  0  0  0  0  0  0
  191.9190  176.1810  146.7950 C   0  0  0  0  0  1  0  0  0  0  0  0
  191.9960  177.2150  145.8220 O   0  0  0  0  0  0  0  0  0  0  0  0
  1 21  1  6  0  0  0
  1 33  1  0  0  0  0
  1  2  1  0  0  0  0
  2  3  2  0  0  0  0
  4  5  1  0  0  0  0
  4  2  1  0  0  0  0
  5  6  2  0  0  0  0
  5  7  1  0  0  0  0
  7  8  1  0  0  0  0
  8  9  1  0  0  0  0
  9 10  1  1  0  0  0
  9 11  1  0  0  0  0
 11 12  1  0  0  0  0
 12 13  1  0  0  0  0
 13 14  1  0  0  0  0
 15 14  1  1  0  0  0
 15 19  1  0  0  0  0
 16 18  1  0  0  0  0
 18 17  1  0  0  0  0
 19 17  1  0  0  0  0
 20 16  2  0  0  0  0
 20 15  1  0  0  0  0
 24 28  1  1  0  0  0
 24 27  1  0  0  0  0
 24 32  1  0  0  0  0
 26 25  1  0  0  0  0
 26 22  1  0  0  0  0
 27 29  1  6  0  0  0
 28 22  1  0  0  0  0
 29 25  1  0  0  0  0
 30 27  1  0  0  0  0
 30 21  1  1  0  0  0
 30 23  1  0  0  0  0
 31 32  1  0  0  0  0
 31 23  1  0  0  0  0
 33 34  1  0  0  0  0
 34 35  1  0  0  0  0
 35 40  1  0  0  0  0
 36 37  1  0  0  0  0
 37 43  1  0  0  0  0
 38 41  1  0  0  0  0
 39 36  2  0  0  0  0
 40 38  2  0  0  0  0
 40 39  1  0  0  0  0
 41 37  2  0  0  0  0
 43 42  1  0  0  0  0
M  END
>  <MODEL>
1

>  <REMARK>
 VINA RESULT:      -7.7      0.000      0.000
  Name = 
  18 active torsions:
  status: ('A' for Active; 'I' for Inactive)
    1  A    between atoms: C_1  and  C_34
    2  A    between atoms: C_1  and  C_35
    3  A    between atoms: C_2  and  O_6
    4  A    between atoms: C_2  and  C_27
    5  A    between atoms: C_3  and  C_4
    6  A    between atoms: C_3  and  C_12
    7  A    between atoms: C_4  and  C_15
    8  A    between atoms: O_6  and  C_12
    9  A    between atoms: C_10  and  C_15
   10  A    between atoms: C_10  and  C_41
   11  A    between atoms: C_11  and  C_14
   12  A    between atoms: C_13  and  C_27
   13  A    between atoms: C_13  and  C_30
   14  A    between atoms: C_14  and  O_22
   15  A    between atoms: C_19  and  O_37
   16  A    between atoms: O_22  and  C_41
   17  A    between atoms: C_27  and  C_38
   18  A    between atoms: C_34  and  C_38
                            x       y       z     vdW  Elec       q    Type
                         _______ _______ _______ _____ _____    ______ ____

>  <TORSDO>
F 18

$$$$
=
 OpenBabel10272414403D

 43 46  0  0  1  0  0  0  0  0999 V2000
  188.4160  177.4620  138.8750 C   0  0  1  0  0  3  0  0  0  0  0  0
  187.9010  178.5370  137.9630 C   0  0  0  0  0  0  0  0  0  0  0  0
  188.7080  179.3670  137.4660 O   0  0  0  0  0  0  0  0  0  0  0  0
  186.5500  178.6080  137.6020 O   0  0  0  0  0  0  0  0  0  0  0  0
  185.8280  177.5740  136.9880 C   0  0  0  0  0  0  0  0  0  0  0  0
  186.3220  176.9020  136.0440 O   0  0  0  0  0  0  0  0  0  0  0  0
  184.4730  177.2260  137.4900 C   0  0  0  0  0  2  0  0  0  0  0  0
  183.9510  178.3380  138.3820 C   0  0  0  0  0  2  0  0  0  0  0  0
  183.1010  177.7600  139.5000 C   0  0  1  0  0  3  0  0  0  0  0  0
  182.9630  176.2670  139.2870 C   0  0  0  0  0  1  0  0  0  0  0  0
  183.7650  178.0000  140.8480 C   0  0  0  0  0  2  0  0  0  0  0  0
  184.6730  179.2140  140.7960 C   0  0  0  0  0  2  0  0  0  0  0  0
  185.6270  179.1240  141.8070 O   0  0  0  0  0  0  0  0  0  0  0  0
  185.0910  178.2140  142.7210 C   0  0  0  0  0  2  0  0  0  0  0  0
  185.5710  178.5210  144.1330 C   0  0  1  0  0  3  0  0  0  0  0  0
  186.8650  177.4420  145.9190 C   0  0  0  0  0  3  0  0  0  0  0  0
  184.7180  178.4810  146.5830 C   0  0  0  0  0  2  0  0  0  0  0  0
  186.2220  178.4180  146.8610 C   0  0  0  0  0  2  0  0  0  0  0  0
  184.3830  178.7110  145.0950 C   0  0  0  0  0  2  0  0  0  0  0  0
  186.5500  177.4860  144.6210 C   0  0  0  0  0  3  0  0  0  0  0  0
  189.8830  177.1810  138.5720 C   0  0  0  0  0  2  0  0  0  0  0  0
  193.6000  173.5710  137.6180 C   0  0  0  0  0  2  0  0  0  0  0  0
  188.8980  175.1880  137.4930 C   0  0  0  0  0  2  0  0  0  0  0  0
  191.3900  174.2780  136.5140 C   0  0  1  0  0  3  0  0  0  0  0  0
  193.7530  176.0590  138.0550 C   0  0  0  0  0  2  0  0  0  0  0  0
  194.4810  174.8150  137.5590 C   0  0  0  0  0  2  0  0  0  0  0  0
  191.4020  175.4720  137.4910 C   0  0  1  0  0  3  0  0  0  0  0  0
  192.7130  173.5120  136.3800 C   0  0  0  0  0  2  0  0  0  0  0  0
  192.5570  176.4170  137.1820 C   0  0  0  0  0  2  0  0  0  0  0  0
  190.0460  176.1950  137.4210 C   0  0  2  0  0  3  0  0  0  0  0  0
  189.1560  174.0370  136.5230 C   0  0  0  0  0  2  0  0  0  0  0  0
  190.3570  173.3900  136.8590 O   0  0  0  0  0  0  0  0  0  0  0  0
  188.2160  177.8690  140.3280 C   0  0  0  0  0  2  0  0  0  0  0  0
  189.3740  177.3790  141.1810 C   0  0  0  0  0  2  0  0  0  0  0  0
  189.4850  178.2060  142.4530 C   0  0  0  0  0  2  0  0  0  0  0  0
  190.9200  177.1920  145.8120 C   0  0  0  0  0  3  0  0  0  0  0  0
  191.6810  176.0690  145.4690 C   0  0  0  0  0  0  0  0  0  0  0  0
  191.0280  176.3550  143.1470 C   0  0  0  0  0  3  0  0  0  0  0  0
  190.2140  177.8930  144.8300 C   0  0  0  0  0  3  0  0  0  0  0  0
  190.2700  177.4780  143.4950 C   0  0  0  0  0  0  0  0  0  0  0  0
  191.7320  175.6530  144.1290 C   0  0  0  0  0  3  0  0  0  0  0  0
  192.3870  175.8260  147.8280 C   0  0  0  0  0  1  0  0  0  0  0  0
  192.3720  175.3880  146.4760 O   0  0  0  0  0  0  0  0  0  0  0  0
  1 21  1  1  0  0  0
  1 33  1  0  0  0  0
  2  1  1  0  0  0  0
  3  2  2  0  0  0  0
  4  2  1  0  0  0  0
  5  7  1  0  0  0  0
  5  4  1  0  0  0  0
  6  5  2  0  0  0  0
  7  8  1  0  0  0  0
  8  9  1  0  0  0  0
  9 10  1  6  0  0  0
  9 11  1  0  0  0  0
 12 11  1  0  0  0  0
 12 13  1  0  0  0  0
 13 14  1  0  0  0  0
 15 14  1  6  0  0  0
 15 20  1  0  0  0  0
 15 19  1  0  0  0  0
 16 18  1  0  0  0  0
 17 18  1  0  0  0  0
 19 17  1  0  0  0  0
 20 16  2  0  0  0  0
 24 28  1  1  0  0  0
 24 32  1  0  0  0  0
 24 27  1  0  0  0  0
 26 22  1  0  0  0  0
 26 25  1  0  0  0  0
 27 29  1  6  0  0  0
 28 22  1  0  0  0  0
 29 25  1  0  0  0  0
 30 27  1  0  0  0  0
 30 23  1  0  0  0  0
 30 21  1  1  0  0  0
 31 32  1  0  0  0  0
 31 23  1  0  0  0  0
 33 34  1  0  0  0  0
 34 35  1  0  0  0  0
 35 40  1  0  0  0  0
 37 36  1  0  0  0  0
 37 43  1  0  0  0  0
 38 40  2  0  0  0  0
 38 41  1  0  0  0  0
 39 36  2  0  0  0  0
 40 39  1  0  0  0  0
 41 37  2  0  0  0  0
 43 42  1  0  0  0  0
M  END
>  <MODEL>
2

>  <REMARK>
 VINA RESULT:      -7.6      1.605      2.466
  Name = 
  18 active torsions:
  status: ('A' for Active; 'I' for Inactive)
    1  A    between atoms: C_1  and  C_34
    2  A    between atoms: C_1  and  C_35
    3  A    between atoms: C_2  and  O_6
    4  A    between atoms: C_2  and  C_27
    5  A    between atoms: C_3  and  C_4
    6  A    between atoms: C_3  and  C_12
    7  A    between atoms: C_4  and  C_15
    8  A    between atoms: O_6  and  C_12
    9  A    between atoms: C_10  and  C_15
   10  A    between atoms: C_10  and  C_41
   11  A    between atoms: C_11  and  C_14
   12  A    between atoms: C_13  and  C_27
   13  A    between atoms: C_13  and  C_30
   14  A    between atoms: C_14  and  O_22
   15  A    between atoms: C_19  and  O_37
   16  A    between atoms: O_22  and  C_41
   17  A    between atoms: C_27  and  C_38
   18  A    between atoms: C_34  and  C_38
                            x       y       z     vdW  Elec       q    Type
                         _______ _______ _______ _____ _____    ______ ____

>  <TORSDO>
F 18

$$$$
=
 OpenBabel10272414403D

 43 46  0  0  1  0  0  0  0  0999 V2000
  187.7030  178.5620  140.9820 C   0  0  1  0  0  3  0  0  0  0  0  0
  186.6100  178.7690  139.9740 C   0  0  0  0  0  0  0  0  0  0  0  0
  186.7620  178.3450  138.7980 O   0  0  0  0  0  0  0  0  0  0  0  0
  185.3950  179.3740  140.3230 O   0  0  0  0  0  0  0  0  0  0  0  0
  184.2130  179.2880  139.5740 C   0  0  0  0  0  0  0  0  0  0  0  0
  183.7720  180.2780  138.9310 O   0  0  0  0  0  0  0  0  0  0  0  0
  183.4870  177.9930  139.4940 C   0  0  0  0  0  2  0  0  0  0  0  0
  183.3050  177.5920  138.0410 C   0  0  0  0  0  2  0  0  0  0  0  0
  183.7980  176.1730  137.8210 C   0  0  1  0  0  3  0  0  0  0  0  0
  182.6670  175.3460  137.2460 C   0  0  0  0  0  1  0  0  0  0  0  0
  184.9580  176.1610  136.8370 C   0  0  0  0  0  2  0  0  0  0  0  0
  185.3150  174.7420  136.4390 C   0  0  0  0  0  2  0  0  0  0  0  0
  186.6610  174.6820  136.0840 O   0  0  0  0  0  0  0  0  0  0  0  0
  187.2000  175.8900  136.5360 C   0  0  0  0  0  2  0  0  0  0  0  0
  188.5380  175.6590  137.2260 C   0  0  1  0  0  3  0  0  0  0  0  0
  190.8230  176.5540  137.1680 C   0  0  0  0  0  3  0  0  0  0  0  0
  190.6000  174.0890  137.1030 C   0  0  0  0  0  2  0  0  0  0  0  0
  191.2530  175.2730  137.8220 C   0  0  0  0  0  2  0  0  0  0  0  0
  189.0740  174.2440  136.9370 C   0  0  0  0  0  2  0  0  0  0  0  0
  189.5310  176.7360  136.8770 C   0  0  0  0  0  3  0  0  0  0  0  0
  187.2800  177.5070  141.9970 C   0  0  0  0  0  2  0  0  0  0  0  0
  183.4460  178.1730  145.5490 C   0  0  0  0  0  2  0  0  0  0  0  0
  188.1240  177.0600  144.2770 C   0  0  0  0  0  2  0  0  0  0  0  0
  186.0000  178.4540  145.5180 C   0  0  1  0  0  3  0  0  0  0  0  0
  183.6930  179.0070  143.1730 C   0  0  0  0  0  2  0  0  0  0  0  0
  182.9340  179.1410  144.4880 C   0  0  0  0  0  2  0  0  0  0  0  0
  185.9040  178.2210  143.9960 C   0  0  1  0  0  3  0  0  0  0  0  0
  184.6750  178.7620  146.2300 C   0  0  0  0  0  2  0  0  0  0  0  0
  185.1660  179.3670  143.3150 C   0  0  0  0  0  2  0  0  0  0  0  0
  187.3220  178.0430  143.4230 C   0  0  2  0  0  3  0  0  0  0  0  0
  187.9800  177.4180  145.7550 C   0  0  0  0  0  2  0  0  0  0  0  0
  186.6270  177.3560  146.1300 O   0  0  0  0  0  0  0  0  0  0  0  0
  188.9940  178.1720  140.2780 C   0  0  0  0  0  2  0  0  0  0  0  0
  189.5830  176.9200  140.9060 C   0  0  0  0  0  2  0  0  0  0  0  0
  191.0470  177.1380  141.2590 C   0  0  0  0  0  2  0  0  0  0  0  0
  191.6250  175.8630  144.7820 C   0  0  0  0  0  3  0  0  0  0  0  0
  191.7030  177.0570  145.5070 C   0  0  0  0  0  0  0  0  0  0  0  0
  191.3250  178.3080  143.4600 C   0  0  0  0  0  3  0  0  0  0  0  0
  191.4020  175.8880  143.4020 C   0  0  0  0  0  3  0  0  0  0  0  0
  191.2480  177.1110  142.7390 C   0  0  0  0  0  0  0  0  0  0  0  0
  191.5510  178.2820  144.8390 C   0  0  0  0  0  3  0  0  0  0  0  0
  192.2220  175.7800  147.5620 C   0  0  0  0  0  1  0  0  0  0  0  0
  191.9310  176.9960  146.8850 O   0  0  0  0  0  0  0  0  0  0  0  0
  1 33  1  6  0  0  0
  1 21  1  0  0  0  0
  2  4  1  0  0  0  0
  2  1  1  0  0  0  0
  3  2  2  0  0  0  0
  5  4  1  0  0  0  0
  6  5  2  0  0  0  0
  7  5  1  0  0  0  0
  8  7  1  0  0  0  0
  9 10  1  6  0  0  0
  9  8  1  0  0  0  0
 11  9  1  0  0  0  0
 12 11  1  0  0  0  0
 13 12  1  0  0  0  0
 13 14  1  0  0  0  0
 15 14  1  6  0  0  0
 16 18  1  0  0  0  0
 17 18  1  0  0  0  0
 19 17  1  0  0  0  0
 19 15  1  0  0  0  0
 20 16  2  0  0  0  0
 20 15  1  0  0  0  0
 22 28  1  0  0  0  0
 23 31  1  0  0  0  0
 24 32  1  0  0  0  0
 24 28  1  1  0  0  0
 25 29  1  0  0  0  0
 25 26  1  0  0  0  0
 26 22  1  0  0  0  0
 27 29  1  6  0  0  0
 27 24  1  0  0  0  0
 30 21  1  6  0  0  0
 30 27  1  0  0  0  0
 30 23  1  0  0  0  0
 31 32  1  0  0  0  0
 33 34  1  0  0  0  0
 34 35  1  0  0  0  0
 35 40  1  0  0  0  0
 36 37  1  0  0  0  0
 37 43  1  0  0  0  0
 38 41  1  0  0  0  0
 39 36  2  0  0  0  0
 40 39  1  0  0  0  0
 40 38  2  0  0  0  0
 41 37  2  0  0  0  0
 43 42  1  0  0  0  0
M  END
>  <MODEL>
3

>  <REMARK>
 VINA RESULT:      -7.4      1.511      7.191
  Name = 
  18 active torsions:
  status: ('A' for Active; 'I' for Inactive)
    1  A    between atoms: C_1  and  C_34
    2  A    between atoms: C_1  and  C_35
    3  A    between atoms: C_2  and  O_6
    4  A    between atoms: C_2  and  C_27
    5  A    between atoms: C_3  and  C_4
    6  A    between atoms: C_3  and  C_12
    7  A    between atoms: C_4  and  C_15
    8  A    between atoms: O_6  and  C_12
    9  A    between atoms: C_10  and  C_15
   10  A    between atoms: C_10  and  C_41
   11  A    between atoms: C_11  and  C_14
   12  A    between atoms: C_13  and  C_27
   13  A    between atoms: C_13  and  C_30
   14  A    between atoms: C_14  and  O_22
   15  A    between atoms: C_19  and  O_37
   16  A    between atoms: O_22  and  C_41
   17  A    between atoms: C_27  and  C_38
   18  A    between atoms: C_34  and  C_38
                            x       y       z     vdW  Elec       q    Type
                         _______ _______ _______ _____ _____    ______ ____

>  <TORSDO>
F 18

$$$$
=
 OpenBabel10272414403D

 43 46  0  0  1  0  0  0  0  0999 V2000
  188.0670  177.2650  137.1900 C   0  0  1  0  0  3  0  0  0  0  0  0
  188.7130  178.2030  138.1670 C   0  0  0  0  0  0  0  0  0  0  0  0
  189.0100  179.3720  137.8020 O   0  0  0  0  0  0  0  0  0  0  0  0
  188.9430  177.8320  139.4980 O   0  0  0  0  0  0  0  0  0  0  0  0
  190.0120  177.0360  139.9360 C   0  0  0  0  0  0  0  0  0  0  0  0
  190.4720  176.1070  139.2210 O   0  0  0  0  0  0  0  0  0  0  0  0
  190.6500  177.3220  141.2480 C   0  0  0  0  0  2  0  0  0  0  0  0
  189.5940  177.7260  142.2600 C   0  0  0  0  0  2  0  0  0  0  0  0
  189.5930  176.7630  143.4330 C   0  0  1  0  0  3  0  0  0  0  0  0
  190.4060  175.5400  143.0620 C   0  0  0  0  0  1  0  0  0  0  0  0
  190.2250  177.4150  144.6540 C   0  0  0  0  0  2  0  0  0  0  0  0
  189.1660  177.8130  145.6640 C   0  0  0  0  0  2  0  0  0  0  0  0
  187.9690  177.1680  145.3620 O   0  0  0  0  0  0  0  0  0  0  0  0
  186.9730  178.0380  145.8140 C   0  0  0  0  0  2  0  0  0  0  0  0
  185.7520  177.9800  144.9070 C   0  0  1  0  0  3  0  0  0  0  0  0
  185.1920  178.3290  142.5420 C   0  0  0  0  0  3  0  0  0  0  0  0
  183.7210  179.4310  144.2000 C   0  0  0  0  0  2  0  0  0  0  0  0
  183.7690  178.4950  142.9890 C   0  0  0  0  0  2  0  0  0  0  0  0
  184.7020  179.0280  145.3210 C   0  0  0  0  0  2  0  0  0  0  0  0
  186.1390  178.0900  143.4550 C   0  0  0  0  0  3  0  0  0  0  0  0
  186.8310  177.9180  136.5820 C   0  0  0  0  0  2  0  0  0  0  0  0
  181.9020  179.1140  138.0090 C   0  0  0  0  0  2  0  0  0  0  0  0
  185.2090  176.5210  135.3480 C   0  0  0  0  0  2  0  0  0  0  0  0
  183.1270  177.0050  137.1980 C   0  0  1  0  0  3  0  0  0  0  0  0
  184.1230  179.5200  139.1510 C   0  0  0  0  0  2  0  0  0  0  0  0
  182.6060  179.5010  139.3050 C   0  0  0  0  0  2  0  0  0  0  0  0
  184.4260  177.8220  137.3590 C   0  0  1  0  0  3  0  0  0  0  0  0
  181.8800  177.5970  137.8700 C   0  0  0  0  0  2  0  0  0  0  0  0
  184.6890  178.1440  138.8250 C   0  0  0  0  0  2  0  0  0  0  0  0
  185.5940  177.0400  136.7330 C   0  0  2  0  0  3  0  0  0  0  0  0
  183.8380  175.8500  135.4070 C   0  0  0  0  0  2  0  0  0  0  0  0
  182.8720  176.7760  135.8360 O   0  0  0  0  0  0  0  0  0  0  0  0
  189.0670  176.8590  136.1170 C   0  0  0  0  0  2  0  0  0  0  0  0
  188.7440  175.4720  135.5880 C   0  0  0  0  0  2  0  0  0  0  0  0
  188.4500  174.5180  136.7370 C   0  0  0  0  0  2  0  0  0  0  0  0
  185.1330  172.7420  137.2000 C   0  0  0  0  0  3  0  0  0  0  0  0
  184.8960  172.2420  135.9150 C   0  0  0  0  0  0  0  0  0  0  0  0
  186.9970  173.2080  135.1690 C   0  0  0  0  0  3  0  0  0  0  0  0
  186.2940  173.4740  137.4710 C   0  0  0  0  0  3  0  0  0  0  0  0
  187.2290  173.7050  136.4560 C   0  0  0  0  0  0  0  0  0  0  0  0
  185.8350  172.4780  134.8990 C   0  0  0  0  0  3  0  0  0  0  0  0
  182.5320  172.1250  135.1960 C   0  0  0  0  0  1  0  0  0  0  0  0
  183.7240  171.5180  135.6770 O   0  0  0  0  0  0  0  0  0  0  0  0
  1 33  1  6  0  0  0
  1  2  1  0  0  0  0
  2  4  1  0  0  0  0
  3  2  2  0  0  0  0
  4  5  1  0  0  0  0
  5  7  1  0  0  0  0
  6  5  2  0  0  0  0
  7  8  1  0  0  0  0
  8  9  1  0  0  0  0
  9 10  1  6  0  0  0
  9 11  1  0  0  0  0
 11 12  1  0  0  0  0
 13 12  1  0  0  0  0
 13 14  1  0  0  0  0
 15 19  1  0  0  0  0
 15 14  1  1  0  0  0
 16 18  1  0  0  0  0
 16 20  2  0  0  0  0
 17 19  1  0  0  0  0
 18 17  1  0  0  0  0
 20 15  1  0  0  0  0
 21  1  1  0  0  0  0
 22 26  1  0  0  0  0
 23 31  1  0  0  0  0
 23 30  1  0  0  0  0
 24 27  1  0  0  0  0
 24 28  1  6  0  0  0
 25 26  1  0  0  0  0
 27 29  1  1  0  0  0
 28 22  1  0  0  0  0
 29 25  1  0  0  0  0
 30 21  1  6  0  0  0
 30 27  1  0  0  0  0
 31 32  1  0  0  0  0
 32 24  1  0  0  0  0
 34 33  1  0  0  0  0
 34 35  1  0  0  0  0
 36 39  1  0  0  0  0
 37 36  2  0  0  0  0
 38 40  1  0  0  0  0
 40 35  1  0  0  0  0
 40 39  2  0  0  0  0
 41 38  2  0  0  0  0
 41 37  1  0  0  0  0
 42 43  1  0  0  0  0
 43 37  1  0  0  0  0
M  END
>  <MODEL>
4

>  <REMARK>
 VINA RESULT:      -7.2      2.311      7.228
  Name = 
  18 active torsions:
  status: ('A' for Active; 'I' for Inactive)
    1  A    between atoms: C_1  and  C_34
    2  A    between atoms: C_1  and  C_35
    3  A    between atoms: C_2  and  O_6
    4  A    between atoms: C_2  and  C_27
    5  A    between atoms: C_3  and  C_4
    6  A    between atoms: C_3  and  C_12
    7  A    between atoms: C_4  and  C_15
    8  A    between atoms: O_6  and  C_12
    9  A    between atoms: C_10  and  C_15
   10  A    between atoms: C_10  and  C_41
   11  A    between atoms: C_11  and  C_14
   12  A    between atoms: C_13  and  C_27
   13  A    between atoms: C_13  and  C_30
   14  A    between atoms: C_14  and  O_22
   15  A    between atoms: C_19  and  O_37
   16  A    between atoms: O_22  and  C_41
   17  A    between atoms: C_27  and  C_38
   18  A    between atoms: C_34  and  C_38
                            x       y       z     vdW  Elec       q    Type
                         _______ _______ _______ _____ _____    ______ ____

>  <TORSDO>
F 18

$$$$
=
 OpenBabel10272414403D

 43 46  0  0  1  0  0  0  0  0999 V2000
  185.4090  178.0710  137.7630 C   0  0  1  0  0  3  0  0  0  0  0  0
  186.7520  178.2570  137.1180 C   0  0  0  0  0  0  0  0  0  0  0  0
  187.1820  179.4220  136.9060 O   0  0  0  0  0  0  0  0  0  0  0  0
  187.5690  177.1650  136.7980 O   0  0  0  0  0  0  0  0  0  0  0  0
  188.8860  177.2610  136.3260 C   0  0  0  0  0  0  0  0  0  0  0  0
  189.1320  177.4260  135.1010 O   0  0  0  0  0  0  0  0  0  0  0  0
  190.0170  177.2190  137.2900 C   0  0  0  0  0  2  0  0  0  0  0  0
  189.5550  176.6070  138.6010 C   0  0  0  0  0  2  0  0  0  0  0  0
  189.9320  177.5080  139.7630 C   0  0  1  0  0  3  0  0  0  0  0  0
  188.6710  178.1190  140.3380 C   0  0  0  0  0  1  0  0  0  0  0  0
  190.6230  176.7030  140.8540 C   0  0  0  0  0  2  0  0  0  0  0  0
  191.7560  177.4970  141.4760 C   0  0  0  0  0  2  0  0  0  0  0  0
  191.8400  177.2020  142.8350 O   0  0  0  0  0  0  0  0  0  0  0  0
  190.7910  177.9190  143.4180 C   0  0  0  0  0  2  0  0  0  0  0  0
  190.3090  177.2310  144.6880 C   0  0  1  0  0  3  0  0  0  0  0  0
  188.8900  177.7240  146.6300 C   0  0  0  0  0  3  0  0  0  0  0  0
  191.1030  176.7220  147.1060 C   0  0  0  0  0  2  0  0  0  0  0  0
  189.5930  176.5960  147.3270 C   0  0  0  0  0  2  0  0  0  0  0  0
  191.4890  176.8990  145.6220 C   0  0  0  0  0  2  0  0  0  0  0  0
  189.2350  178.0320  145.3760 C   0  0  0  0  0  3  0  0  0  0  0  0
  185.0480  176.5900  137.7930 C   0  0  0  0  0  2  0  0  0  0  0  0
  182.2310  172.2280  136.8980 C   0  0  0  0  0  2  0  0  0  0  0  0
  182.9520  177.1410  136.6040 C   0  0  0  0  0  2  0  0  0  0  0  0
  182.5610  174.4850  135.7150 C   0  0  1  0  0  3  0  0  0  0  0  0
  184.6840  172.5610  137.4240 C   0  0  0  0  0  2  0  0  0  0  0  0
  183.6180  171.5940  136.9230 C   0  0  0  0  0  2  0  0  0  0  0  0
  183.6950  174.7350  136.7300 C   0  0  1  0  0  3  0  0  0  0  0  0
  182.0600  173.0370  135.6180 C   0  0  0  0  0  2  0  0  0  0  0  0
  184.8500  173.7660  136.5080 C   0  0  0  0  0  2  0  0  0  0  0  0
  184.1580  176.1990  136.6200 C   0  0  2  0  0  3  0  0  0  0  0  0
  181.9100  176.6330  135.6090 C   0  0  0  0  0  2  0  0  0  0  0  0
  181.4840  175.3470  135.9810 O   0  0  0  0  0  0  0  0  0  0  0  0
  185.4130  178.6720  139.1600 C   0  0  0  0  0  2  0  0  0  0  0  0
  183.9940  178.9700  139.6140 C   0  0  0  0  0  2  0  0  0  0  0  0
  183.5040  177.8970  140.5750 C   0  0  0  0  0  2  0  0  0  0  0  0
  183.0440  179.0470  144.1570 C   0  0  0  0  0  3  0  0  0  0  0  0
  184.3380  178.9050  144.6700 C   0  0  0  0  0  0  0  0  0  0  0  0
  185.0970  178.1270  142.4970 C   0  0  0  0  0  3  0  0  0  0  0  0
  182.7750  178.7290  142.8220 C   0  0  0  0  0  3  0  0  0  0  0  0
  183.8020  178.2710  141.9900 C   0  0  0  0  0  0  0  0  0  0  0  0
  185.3660  178.4430  143.8320 C   0  0  0  0  0  3  0  0  0  0  0  0
  185.2280  178.3430  146.9090 C   0  0  0  0  0  1  0  0  0  0  0  0
  184.5730  179.2280  146.0100 O   0  0  0  0  0  0  0  0  0  0  0  0
  1 21  1  1  0  0  0
  1 33  1  0  0  0  0
  2  1  1  0  0  0  0
  3  2  2  0  0  0  0
  4  2  1  0  0  0  0
  5  4  1  0  0  0  0
  5  7  1  0  0  0  0
  6  5  2  0  0  0  0
  7  8  1  0  0  0  0
  8  9  1  0  0  0  0
  9 10  1  1  0  0  0
  9 11  1  0  0  0  0
 11 12  1  0  0  0  0
 12 13  1  0  0  0  0
 13 14  1  0  0  0  0
 15 14  1  6  0  0  0
 15 20  1  0  0  0  0
 15 19  1  0  0  0  0
 16 18  1  0  0  0  0
 17 18  1  0  0  0  0
 19 17  1  0  0  0  0
 20 16  2  0  0  0  0
 22 26  1  0  0  0  0
 23 30  1  0  0  0  0
 24 28  1  1  0  0  0
 24 32  1  0  0  0  0
 24 27  1  0  0  0  0
 26 25  1  0  0  0  0
 27 29  1  6  0  0  0
 28 22  1  0  0  0  0
 29 25  1  0  0  0  0
 30 27  1  0  0  0  0
 30 21  1  1  0  0  0
 31 32  1  0  0  0  0
 31 23  1  0  0  0  0
 33 34  1  0  0  0  0
 34 35  1  0  0  0  0
 35 40  1  0  0  0  0
 36 37  1  0  0  0  0
 37 43  1  0  0  0  0
 38 41  1  0  0  0  0
 39 36  2  0  0  0  0
 40 38  2  0  0  0  0
 40 39  1  0  0  0  0
 41 37  2  0  0  0  0
 43 42  1  0  0  0  0
M  END
>  <MODEL>
5

>  <REMARK>
 VINA RESULT:      -7.2      2.571      6.418
  Name = 
  18 active torsions:
  status: ('A' for Active; 'I' for Inactive)
    1  A    between atoms: C_1  and  C_34
    2  A    between atoms: C_1  and  C_35
    3  A    between atoms: C_2  and  O_6
    4  A    between atoms: C_2  and  C_27
    5  A    between atoms: C_3  and  C_4
    6  A    between atoms: C_3  and  C_12
    7  A    between atoms: C_4  and  C_15
    8  A    between atoms: O_6  and  C_12
    9  A    between atoms: C_10  and  C_15
   10  A    between atoms: C_10  and  C_41
   11  A    between atoms: C_11  and  C_14
   12  A    between atoms: C_13  and  C_27
   13  A    between atoms: C_13  and  C_30
   14  A    between atoms: C_14  and  O_22
   15  A    between atoms: C_19  and  O_37
   16  A    between atoms: O_22  and  C_41
   17  A    between atoms: C_27  and  C_38
   18  A    between atoms: C_34  and  C_38
                            x       y       z     vdW  Elec       q    Type
                         _______ _______ _______ _____ _____    ______ ____

>  <TORSDO>
F 18

$$$$
=
 OpenBabel10272414403D

 43 46  0  0  1  0  0  0  0  0999 V2000
  183.8740  178.2660  140.1240 C   0  0  1  0  0  3  0  0  0  0  0  0
  184.6180  178.6520  141.3690 C   0  0  0  0  0  0  0  0  0  0  0  0
  185.4380  179.6070  141.3300 O   0  0  0  0  0  0  0  0  0  0  0  0
  184.3820  178.0130  142.5930 O   0  0  0  0  0  0  0  0  0  0  0  0
  184.1230  178.6700  143.8040 C   0  0  0  0  0  0  0  0  0  0  0  0
  182.9450  178.8430  144.2160 O   0  0  0  0  0  0  0  0  0  0  0  0
  185.2580  179.1300  144.6460 C   0  0  0  0  0  2  0  0  0  0  0  0
  185.1720  178.4940  146.0220 C   0  0  0  0  0  2  0  0  0  0  0  0
  186.3030  177.5000  146.2140 C   0  0  1  0  0  3  0  0  0  0  0  0
  187.0620  177.3660  144.9100 C   0  0  0  0  0  1  0  0  0  0  0  0
  187.2640  177.9910  147.2870 C   0  0  0  0  0  2  0  0  0  0  0  0
  188.4610  177.0680  147.4050 C   0  0  0  0  0  2  0  0  0  0  0  0
  189.6340  177.8120  147.3030 O   0  0  0  0  0  0  0  0  0  0  0  0
  190.5990  176.8960  146.8750 C   0  0  0  0  0  2  0  0  0  0  0  0
  191.1620  177.2990  145.5190 C   0  0  1  0  0  3  0  0  0  0  0  0
  190.5720  178.7610  143.6370 C   0  0  0  0  0  3  0  0  0  0  0  0
  191.2610  176.4520  143.0680 C   0  0  0  0  0  2  0  0  0  0  0  0
  191.5170  177.9390  142.8100 C   0  0  0  0  0  2  0  0  0  0  0  0
  191.2400  176.0890  144.5680 C   0  0  0  0  0  2  0  0  0  0  0  0
  190.3960  178.4520  144.9250 C   0  0  0  0  0  3  0  0  0  0  0  0
  182.4100  178.6710  140.2470 C   0  0  0  0  0  2  0  0  0  0  0  0
  181.1800  178.1000  135.1560 C   0  0  0  0  0  2  0  0  0  0  0  0
  182.0900  176.2830  139.6960 C   0  0  0  0  0  2  0  0  0  0  0  0
  180.6410  176.8480  137.3340 C   0  0  1  0  0  3  0  0  0  0  0  0
  181.0390  180.0990  136.7000 C   0  0  0  0  0  2  0  0  0  0  0  0
  180.6180  179.5020  135.3620 C   0  0  0  0  0  2  0  0  0  0  0  0
  181.3090  178.0350  138.0600 C   0  0  1  0  0  3  0  0  0  0  0  0
  180.2890  177.0820  135.8580 C   0  0  0  0  0  2  0  0  0  0  0  0
  180.4940  179.3100  137.8830 C   0  0  0  0  0  2  0  0  0  0  0  0
  181.4870  177.6810  139.5470 C   0  0  2  0  0  3  0  0  0  0  0  0
  181.3420  175.2970  138.8010 C   0  0  0  0  0  2  0  0  0  0  0  0
  181.4420  175.7010  137.4580 O   0  0  0  0  0  0  0  0  0  0  0  0
  184.5270  178.9030  138.9070 C   0  0  0  0  0  2  0  0  0  0  0  0
  185.3530  177.8770  138.1490 C   0  0  0  0  0  2  0  0  0  0  0  0
  186.5170  178.5490  137.4370 C   0  0  0  0  0  2  0  0  0  0  0  0
  189.9730  176.9940  137.5050 C   0  0  0  0  0  3  0  0  0  0  0  0
  190.3090  177.1060  138.8580 C   0  0  0  0  0  0  0  0  0  0  0  0
  188.1540  178.1390  139.2920 C   0  0  0  0  0  3  0  0  0  0  0  0
  188.7360  177.4540  137.0440 C   0  0  0  0  0  3  0  0  0  0  0  0
  187.8230  178.0250  137.9370 C   0  0  0  0  0  0  0  0  0  0  0  0
  189.3910  177.6810  139.7520 C   0  0  0  0  0  3  0  0  0  0  0  0
  192.7030  176.6380  138.4470 C   0  0  0  0  0  1  0  0  0  0  0  0
  191.5560  176.6400  139.2860 O   0  0  0  0  0  0  0  0  0  0  0  0
  1 33  1  6  0  0  0
  1 21  1  0  0  0  0
  1  2  1  0  0  0  0
  2  4  1  0  0  0  0
  3  2  2  0  0  0  0
  4  5  1  0  0  0  0
  5  6  2  0  0  0  0
  5  7  1  0  0  0  0
  7  8  1  0  0  0  0
  8  9  1  0  0  0  0
  9 10  1  6  0  0  0
  9 11  1  0  0  0  0
 11 12  1  0  0  0  0
 13 12  1  0  0  0  0
 14 13  1  0  0  0  0
 15 14  1  1  0  0  0
 16 20  2  0  0  0  0
 17 19  1  0  0  0  0
 18 17  1  0  0  0  0
 18 16  1  0  0  0  0
 19 15  1  0  0  0  0
 20 15  1  0  0  0  0
 22 26  1  0  0  0  0
 22 28  1  0  0  0  0
 24 28  1  6  0  0  0
 24 32  1  0  0  0  0
 24 27  1  0  0  0  0
 25 29  1  0  0  0  0
 26 25  1  0  0  0  0
 27 29  1  1  0  0  0
 27 30  1  0  0  0  0
 30 23  1  0  0  0  0
 30 21  1  6  0  0  0
 31 23  1  0  0  0  0
 32 31  1  0  0  0  0
 34 33  1  0  0  0  0
 35 40  1  0  0  0  0
 35 34  1  0  0  0  0
 36 37  1  0  0  0  0
 37 43  1  0  0  0  0
 37 41  2  0  0  0  0
 38 41  1  0  0  0  0
 39 36  2  0  0  0  0
 39 40  1  0  0  0  0
 40 38  2  0  0  0  0
 42 43  1  0  0  0  0
M  END
>  <MODEL>
6

>  <REMARK>
 VINA RESULT:      -7.1      2.527      6.742
  Name = 
  18 active torsions:
  status: ('A' for Active; 'I' for Inactive)
    1  A    between atoms: C_1  and  C_34
    2  A    between atoms: C_1  and  C_35
    3  A    between atoms: C_2  and  O_6
    4  A    between atoms: C_2  and  C_27
    5  A    between atoms: C_3  and  C_4
    6  A    between atoms: C_3  and  C_12
    7  A    between atoms: C_4  and  C_15
    8  A    between atoms: O_6  and  C_12
    9  A    between atoms: C_10  and  C_15
   10  A    between atoms: C_10  and  C_41
   11  A    between atoms: C_11  and  C_14
   12  A    between atoms: C_13  and  C_27
   13  A    between atoms: C_13  and  C_30
   14  A    between atoms: C_14  and  O_22
   15  A    between atoms: C_19  and  O_37
   16  A    between atoms: O_22  and  C_41
   17  A    between atoms: C_27  and  C_38
   18  A    between atoms: C_34  and  C_38
                            x       y       z     vdW  Elec       q    Type
                         _______ _______ _______ _____ _____    ______ ____

>  <TORSDO>
F 18

$$$$
=
 OpenBabel10272414403D

 43 46  0  0  1  0  0  0  0  0999 V2000
  186.5910  178.8600  141.5990 C   0  0  1  0  0  3  0  0  0  0  0  0
  185.8500  179.0040  140.3020 C   0  0  0  0  0  0  0  0  0  0  0  0
  186.3550  178.5390  139.2450 O   0  0  0  0  0  0  0  0  0  0  0  0
  184.5800  179.5910  140.2440 O   0  0  0  0  0  0  0  0  0  0  0  0
  183.4480  178.9980  139.6670 C   0  0  0  0  0  0  0  0  0  0  0  0
  182.6320  179.6730  138.9840 O   0  0  0  0  0  0  0  0  0  0  0  0
  183.2270  177.5360  139.8180 C   0  0  0  0  0  2  0  0  0  0  0  0
  183.4750  176.8360  138.4940 C   0  0  0  0  0  2  0  0  0  0  0  0
  182.9470  175.4130  138.5440 C   0  0  1  0  0  3  0  0  0  0  0  0
  181.5500  175.3890  137.9610 C   0  0  0  0  0  1  0  0  0  0  0  0
  183.8340  174.4900  137.7210 C   0  0  0  0  0  2  0  0  0  0  0  0
  184.3320  175.1920  136.4720 C   0  0  0  0  0  2  0  0  0  0  0  0
  185.7210  175.0960  136.4070 O   0  0  0  0  0  0  0  0  0  0  0  0
  186.1170  176.1960  135.6420 C   0  0  0  0  0  2  0  0  0  0  0  0
  187.5080  176.6630  136.0480 C   0  0  1  0  0  3  0  0  0  0  0  0
  189.0090  176.5220  137.9850 C   0  0  0  0  0  3  0  0  0  0  0  0
  188.7140  178.7640  136.9770 C   0  0  0  0  0  2  0  0  0  0  0  0
  189.7320  177.7040  137.4060 C   0  0  0  0  0  2  0  0  0  0  0  0
  187.5890  178.2010  136.0840 C   0  0  0  0  0  2  0  0  0  0  0  0
  187.9450  176.0300  137.3430 C   0  0  0  0  0  3  0  0  0  0  0  0
  186.1570  177.5830  142.3080 C   0  0  0  0  0  2  0  0  0  0  0  0
  187.4050  178.9450  147.2430 C   0  0  0  0  0  2  0  0  0  0  0  0
  184.4790  179.1480  143.2250 C   0  0  0  0  0  2  0  0  0  0  0  0
  185.2310  178.6500  145.9050 C   0  0  1  0  0  3  0  0  0  0  0  0
  188.1190  176.9820  145.8140 C   0  0  0  0  0  2  0  0  0  0  0  0
  188.0680  177.5720  147.2190 C   0  0  0  0  0  2  0  0  0  0  0  0
  186.1160  178.0480  144.7940 C   0  0  1  0  0  3  0  0  0  0  0  0
  185.8900  178.7830  147.2850 C   0  0  0  0  0  2  0  0  0  0  0  0
  186.7300  176.7270  145.2420 C   0  0  0  0  0  2  0  0  0  0  0  0
  185.2760  177.8760  143.5170 C   0  0  2  0  0  3  0  0  0  0  0  0
  183.7760  179.6230  144.4960 C   0  0  0  0  0  2  0  0  0  0  0  0
  184.7280  179.8950  145.4930 O   0  0  0  0  0  0  0  0  0  0  0  0
  188.0920  178.8750  141.3480 C   0  0  0  0  0  2  0  0  0  0  0  0
  188.6560  177.4660  141.4200 C   0  0  0  0  0  2  0  0  0  0  0  0
  190.1750  177.5030  141.4990 C   0  0  0  0  0  2  0  0  0  0  0  0
  191.4810  175.9610  144.7060 C   0  0  0  0  0  3  0  0  0  0  0  0
  191.5840  177.0810  145.5390 C   0  0  0  0  0  0  0  0  0  0  0  0
  190.7400  178.4770  143.7390 C   0  0  0  0  0  3  0  0  0  0  0  0
  191.0140  176.0960  143.3960 C   0  0  0  0  0  3  0  0  0  0  0  0
  190.6390  177.3550  142.9120 C   0  0  0  0  0  0  0  0  0  0  0  0
  191.2100  178.3420  145.0490 C   0  0  0  0  0  3  0  0  0  0  0  0
  192.3540  175.6340  147.3930 C   0  0  0  0  0  1  0  0  0  0  0  0
  192.0600  176.9120  146.8430 O   0  0  0  0  0  0  0  0  0  0  0  0
  1 33  1  6  0  0  0
  1 21  1  0  0  0  0
  2  1  1  0  0  0  0
  3  2  2  0  0  0  0
  4  2  1  0  0  0  0
  5  7  1  0  0  0  0
  5  4  1  0  0  0  0
  6  5  2  0  0  0  0
  8  9  1  0  0  0  0
  8  7  1  0  0  0  0
  9 10  1  6  0  0  0
 11  9  1  0  0  0  0
 12 11  1  0  0  0  0
 13 12  1  0  0  0  0
 14 13  1  0  0  0  0
 15 14  1  1  0  0  0
 15 19  1  0  0  0  0
 15 20  1  0  0  0  0
 17 18  1  0  0  0  0
 18 16  1  0  0  0  0
 19 17  1  0  0  0  0
 20 16  2  0  0  0  0
 22 28  1  0  0  0  0
 23 30  1  0  0  0  0
 23 31  1  0  0  0  0
 24 28  1  1  0  0  0
 25 26  1  0  0  0  0
 26 22  1  0  0  0  0
 27 29  1  1  0  0  0
 27 24  1  0  0  0  0
 29 25  1  0  0  0  0
 30 21  1  6  0  0  0
 30 27  1  0  0  0  0
 31 32  1  0  0  0  0
 32 24  1  0  0  0  0
 33 34  1  0  0  0  0
 34 35  1  0  0  0  0
 35 40  1  0  0  0  0
 36 37  1  0  0  0  0
 37 43  1  0  0  0  0
 38 41  1  0  0  0  0
 39 36  2  0  0  0  0
 40 39  1  0  0  0  0
 40 38  2  0  0  0  0
 41 37  2  0  0  0  0
 43 42  1  0  0  0  0
M  END
>  <MODEL>
7

>  <REMARK>
 VINA RESULT:      -7.1      1.763      7.162
  Name = 
  18 active torsions:
  status: ('A' for Active; 'I' for Inactive)
    1  A    between atoms: C_1  and  C_34
    2  A    between atoms: C_1  and  C_35
    3  A    between atoms: C_2  and  O_6
    4  A    between atoms: C_2  and  C_27
    5  A    between atoms: C_3  and  C_4
    6  A    between atoms: C_3  and  C_12
    7  A    between atoms: C_4  and  C_15
    8  A    between atoms: O_6  and  C_12
    9  A    between atoms: C_10  and  C_15
   10  A    between atoms: C_10  and  C_41
   11  A    between atoms: C_11  and  C_14
   12  A    between atoms: C_13  and  C_27
   13  A    between atoms: C_13  and  C_30
   14  A    between atoms: C_14  and  O_22
   15  A    between atoms: C_19  and  O_37
   16  A    between atoms: O_22  and  C_41
   17  A    between atoms: C_27  and  C_38
   18  A    between atoms: C_34  and  C_38
                            x       y       z     vdW  Elec       q    Type
                         _______ _______ _______ _____ _____    ______ ____

>  <TORSDO>
F 18

$$$$
=
 OpenBabel10272414403D

 43 46  0  0  1  0  0  0  0  0999 V2000
  184.4280  178.0730  140.3920 C   0  0  1  0  0  3  0  0  0  0  0  0
  184.4410  178.9460  139.1710 C   0  0  0  0  0  0  0  0  0  0  0  0
  184.4810  180.1980  139.3040 O   0  0  0  0  0  0  0  0  0  0  0  0
  184.4680  178.4020  137.8800 O   0  0  0  0  0  0  0  0  0  0  0  0
  185.4360  177.5050  137.4080 C   0  0  0  0  0  0  0  0  0  0  0  0
  185.1970  176.2720  137.3170 O   0  0  0  0  0  0  0  0  0  0  0  0
  186.7560  178.0190  136.9570 C   0  0  0  0  0  2  0  0  0  0  0  0
  187.8330  176.9820  137.2240 C   0  0  0  0  0  2  0  0  0  0  0  0
  189.1850  177.6560  137.3760 C   0  0  1  0  0  3  0  0  0  0  0  0
  188.9900  179.1570  137.3440 C   0  0  0  0  0  1  0  0  0  0  0  0
  189.8190  177.2760  138.7060 C   0  0  0  0  0  2  0  0  0  0  0  0
  189.1850  178.0490  139.8480 C   0  0  0  0  0  2  0  0  0  0  0  0
  189.4480  177.4000  141.0520 O   0  0  0  0  0  0  0  0  0  0  0  0
  190.8330  177.2090  141.0560 C   0  0  0  0  0  2  0  0  0  0  0  0
  191.3770  177.2470  142.4780 C   0  0  1  0  0  3  0  0  0  0  0  0
  191.0090  176.1180  144.6260 C   0  0  0  0  0  3  0  0  0  0  0  0
  191.1090  178.5910  144.6810 C   0  0  0  0  0  2  0  0  0  0  0  0
  191.6810  177.2970  145.2670 C   0  0  0  0  0  2  0  0  0  0  0  0
  191.1110  178.6130  143.1380 C   0  0  0  0  0  2  0  0  0  0  0  0
  190.8570  176.0970  143.2980 C   0  0  0  0  0  3  0  0  0  0  0  0
  184.9870  178.8390  141.5850 C   0  0  0  0  0  2  0  0  0  0  0  0
  186.8880  178.6730  146.4960 C   0  0  0  0  0  2  0  0  0  0  0  0
  183.2170  179.3920  143.2180 C   0  0  0  0  0  2  0  0  0  0  0  0
  184.6160  178.2280  145.3820 C   0  0  1  0  0  3  0  0  0  0  0  0
  187.7320  177.6580  144.3370 C   0  0  0  0  0  2  0  0  0  0  0  0
  187.8400  177.6670  145.8580 C   0  0  0  0  0  2  0  0  0  0  0  0
  185.3640  178.3580  144.0390 C   0  0  1  0  0  3  0  0  0  0  0  0
  185.5010  178.0570  146.6250 C   0  0  0  0  0  2  0  0  0  0  0  0
  186.3560  177.2160  143.8560 C   0  0  0  0  0  2  0  0  0  0  0  0
  184.3380  178.4040  142.8930 C   0  0  2  0  0  3  0  0  0  0  0  0
  182.7060  179.1490  144.6370 C   0  0  0  0  0  2  0  0  0  0  0  0
  183.7550  179.3250  145.5570 O   0  0  0  0  0  0  0  0  0  0  0  0
  183.0170  177.5730  140.6620 C   0  0  0  0  0  2  0  0  0  0  0  0
  182.3250  177.2050  139.3600 C   0  0  0  0  0  2  0  0  0  0  0  0
  180.9140  177.7720  139.3280 C   0  0  0  0  0  2  0  0  0  0  0  0
  180.8870  180.4120  136.6080 C   0  0  0  0  0  3  0  0  0  0  0  0
  180.7630  181.5880  137.3540 C   0  0  0  0  0  0  0  0  0  0  0  0
  180.7640  180.2740  139.3970 C   0  0  0  0  0  3  0  0  0  0  0  0
  180.9460  179.1710  137.2490 C   0  0  0  0  0  3  0  0  0  0  0  0
  180.8880  179.1010  138.6460 C   0  0  0  0  0  0  0  0  0  0  0  0
  180.7030  181.5140  138.7550 C   0  0  0  0  0  3  0  0  0  0  0  0
  180.8610  184.0600  137.3440 C   0  0  0  0  0  1  0  0  0  0  0  0
  180.7030  182.8120  136.6820 O   0  0  0  0  0  0  0  0  0  0  0  0
  1 33  1  1  0  0  0
  1 21  1  0  0  0  0
  2  3  2  0  0  0  0
  2  1  1  0  0  0  0
  4  2  1  0  0  0  0
  5  4  1  0  0  0  0
  6  5  2  0  0  0  0
  7  8  1  0  0  0  0
  7  5  1  0  0  0  0
  8  9  1  0  0  0  0
  9 10  1  1  0  0  0
  9 11  1  0  0  0  0
 11 12  1  0  0  0  0
 12 13  1  0  0  0  0
 13 14  1  0  0  0  0
 15 14  1  6  0  0  0
 15 19  1  0  0  0  0
 15 20  1  0  0  0  0
 16 18  1  0  0  0  0
 17 18  1  0  0  0  0
 19 17  1  0  0  0  0
 20 16  2  0  0  0  0
 22 28  1  0  0  0  0
 23 31  1  0  0  0  0
 24 32  1  0  0  0  0
 24 28  1  1  0  0  0
 25 26  1  0  0  0  0
 26 22  1  0  0  0  0
 27 29  1  6  0  0  0
 27 24  1  0  0  0  0
 29 25  1  0  0  0  0
 30 21  1  6  0  0  0
 30 23  1  0  0  0  0
 30 27  1  0  0  0  0
 31 32  1  0  0  0  0
 34 33  1  0  0  0  0
 35 34  1  0  0  0  0
 36 39  2  0  0  0  0
 36 37  1  0  0  0  0
 37 41  2  0  0  0  0
 39 40  1  0  0  0  0
 40 35  1  0  0  0  0
 40 38  2  0  0  0  0
 41 38  1  0  0  0  0
 43 42  1  0  0  0  0
 43 37  1  0  0  0  0
M  END
>  <MODEL>
8

>  <REMARK>
 VINA RESULT:      -7.0      2.280      8.873
  Name = 
  18 active torsions:
  status: ('A' for Active; 'I' for Inactive)
    1  A    between atoms: C_1  and  C_34
    2  A    between atoms: C_1  and  C_35
    3  A    between atoms: C_2  and  O_6
    4  A    between atoms: C_2  and  C_27
    5  A    between atoms: C_3  and  C_4
    6  A    between atoms: C_3  and  C_12
    7  A    between atoms: C_4  and  C_15
    8  A    between atoms: O_6  and  C_12
    9  A    between atoms: C_10  and  C_15
   10  A    between atoms: C_10  and  C_41
   11  A    between atoms: C_11  and  C_14
   12  A    between atoms: C_13  and  C_27
   13  A    between atoms: C_13  and  C_30
   14  A    between atoms: C_14  and  O_22
   15  A    between atoms: C_19  and  O_37
   16  A    between atoms: O_22  and  C_41
   17  A    between atoms: C_27  and  C_38
   18  A    between atoms: C_34  and  C_38
                            x       y       z     vdW  Elec       q    Type
                         _______ _______ _______ _____ _____    ______ ____

>  <TORSDO>
F 18

$$$$
=
 OpenBabel10272414403D

 43 46  0  0  1  0  0  0  0  0999 V2000
  184.6240  179.0030  139.8410 C   0  0  1  0  0  3  0  0  0  0  0  0
  185.0740  179.0620  141.2720 C   0  0  0  0  0  0  0  0  0  0  0  0
  185.9330  179.9160  141.6170 O   0  0  0  0  0  0  0  0  0  0  0  0
  184.5180  178.2290  142.2510 O   0  0  0  0  0  0  0  0  0  0  0  0
  183.7450  178.6690  143.3350 C   0  0  0  0  0  0  0  0  0  0  0  0
  182.5120  178.8960  143.2110 O   0  0  0  0  0  0  0  0  0  0  0  0
  184.3780  178.8260  144.6710 C   0  0  0  0  0  2  0  0  0  0  0  0
  185.8060  178.3140  144.6300 C   0  0  0  0  0  2  0  0  0  0  0  0
  186.4460  178.4290  146.0020 C   0  0  1  0  0  3  0  0  0  0  0  0
  185.3890  178.8530  147.0000 C   0  0  0  0  0  1  0  0  0  0  0  0
  187.0140  177.0850  146.4360 C   0  0  0  0  0  2  0  0  0  0  0  0
  187.9460  177.2500  147.6210 C   0  0  0  0  0  2  0  0  0  0  0  0
  189.0640  177.9860  147.2340 O   0  0  0  0  0  0  0  0  0  0  0  0
  190.0150  177.0260  146.8780 C   0  0  0  0  0  2  0  0  0  0  0  0
  190.7880  177.4660  145.6420 C   0  0  1  0  0  3  0  0  0  0  0  0
  190.3830  178.6790  143.5470 C   0  0  0  0  0  3  0  0  0  0  0  0
  191.6040  176.5330  143.3620 C   0  0  0  0  0  2  0  0  0  0  0  0
  191.6300  178.0260  143.0240 C   0  0  0  0  0  2  0  0  0  0  0  0
  191.3080  176.2510  144.8500 C   0  0  0  0  0  2  0  0  0  0  0  0
  189.9780  178.4080  144.7910 C   0  0  0  0  0  3  0  0  0  0  0  0
  185.2240  177.7800  139.1580 C   0  0  0  0  0  2  0  0  0  0  0  0
  190.2190  176.3240  138.3230 C   0  0  0  0  0  2  0  0  0  0  0  0
  185.6850  177.6130  136.7350 C   0  0  0  0  0  2  0  0  0  0  0  0
  188.4860  177.7630  137.0860 C   0  0  1  0  0  3  0  0  0  0  0  0
  189.0860  177.3470  140.3410 C   0  0  0  0  0  2  0  0  0  0  0  0
  190.4130  177.0160  139.6680 C   0  0  0  0  0  2  0  0  0  0  0  0
  187.6170  177.6240  138.3530 C   0  0  1  0  0  3  0  0  0  0  0  0
  189.9610  177.3660  137.2410 C   0  0  0  0  0  2  0  0  0  0  0  0
  188.2590  178.3400  139.5350 C   0  0  0  0  0  2  0  0  0  0  0  0
  186.2080  178.1690  138.0600 C   0  0  2  0  0  3  0  0  0  0  0  0
  186.7550  177.7550  135.6540 C   0  0  0  0  0  2  0  0  0  0  0  0
  187.9070  177.0430  136.0280 O   0  0  0  0  0  0  0  0  0  0  0  0
  183.1050  178.9900  139.7710 C   0  0  0  0  0  2  0  0  0  0  0  0
  182.6280  179.6120  138.4690 C   0  0  0  0  0  2  0  0  0  0  0  0
  181.4420  178.8380  137.9110 C   0  0  0  0  0  2  0  0  0  0  0  0
  182.5120  175.6980  136.0760 C   0  0  0  0  0  3  0  0  0  0  0  0
  182.5880  174.7700  137.1200 C   0  0  0  0  0  0  0  0  0  0  0  0
  181.8890  176.4940  138.6830 C   0  0  0  0  0  3  0  0  0  0  0  0
  182.1290  177.0190  136.3310 C   0  0  0  0  0  3  0  0  0  0  0  0
  181.8140  177.4180  137.6350 C   0  0  0  0  0  0  0  0  0  0  0  0
  182.2730  175.1750  138.4280 C   0  0  0  0  0  3  0  0  0  0  0  0
  184.3040  172.9900  137.0340 C   0  0  0  0  0  1  0  0  0  0  0  0
  182.9770  173.4590  136.8320 O   0  0  0  0  0  0  0  0  0  0  0  0
  1 21  1  1  0  0  0
  1  2  1  0  0  0  0
  2  3  2  0  0  0  0
  2  4  1  0  0  0  0
  4  5  1  0  0  0  0
  5  7  1  0  0  0  0
  6  5  2  0  0  0  0
  8  7  1  0  0  0  0
  8  9  1  0  0  0  0
  9 11  1  0  0  0  0
  9 10  1  1  0  0  0
 11 12  1  0  0  0  0
 13 12  1  0  0  0  0
 14 13  1  0  0  0  0
 15 14  1  1  0  0  0
 16 20  2  0  0  0  0
 17 19  1  0  0  0  0
 18 17  1  0  0  0  0
 18 16  1  0  0  0  0
 19 15  1  0  0  0  0
 20 15  1  0  0  0  0
 22 26  1  0  0  0  0
 23 30  1  0  0  0  0
 24 28  1  1  0  0  0
 24 27  1  0  0  0  0
 26 25  1  0  0  0  0
 27 29  1  1  0  0  0
 28 22  1  0  0  0  0
 29 25  1  0  0  0  0
 30 27  1  0  0  0  0
 30 21  1  1  0  0  0
 31 32  1  0  0  0  0
 31 23  1  0  0  0  0
 32 24  1  0  0  0  0
 33  1  1  0  0  0  0
 34 33  1  0  0  0  0
 35 34  1  0  0  0  0
 36 39  2  0  0  0  0
 36 37  1  0  0  0  0
 37 41  2  0  0  0  0
 39 40  1  0  0  0  0
 40 35  1  0  0  0  0
 40 38  2  0  0  0  0
 41 38  1  0  0  0  0
 43 42  1  0  0  0  0
 43 37  1  0  0  0  0
M  END
>  <MODEL>
9

>  <REMARK>
 VINA RESULT:      -7.0      2.270      6.623
  Name = 
  18 active torsions:
  status: ('A' for Active; 'I' for Inactive)
    1  A    between atoms: C_1  and  C_34
    2  A    between atoms: C_1  and  C_35
    3  A    between atoms: C_2  and  O_6
    4  A    between atoms: C_2  and  C_27
    5  A    between atoms: C_3  and  C_4
    6  A    between atoms: C_3  and  C_12
    7  A    between atoms: C_4  and  C_15
    8  A    between atoms: O_6  and  C_12
    9  A    between atoms: C_10  and  C_15
   10  A    between atoms: C_10  and  C_41
   11  A    between atoms: C_11  and  C_14
   12  A    between atoms: C_13  and  C_27
   13  A    between atoms: C_13  and  C_30
   14  A    between atoms: C_14  and  O_22
   15  A    between atoms: C_19  and  O_37
   16  A    between atoms: O_22  and  C_41
   17  A    between atoms: C_27  and  C_38
   18  A    between atoms: C_34  and  C_38
                            x       y       z     vdW  Elec       q    Type
                         _______ _______ _______ _____ _____    ______ ____

>  <TORSDO>
F 18

$$$$
