=
 OpenBabel10272401203D

 55 61  0  0  1  0  0  0  0  0999 V2000
  186.1060  177.5290  139.7960 C   0  0  0  0  0  2  0  0  0  0  0  0
  187.9290  177.6860  135.8480 C   0  0  0  0  0  1  0  0  0  0  0  0
  187.0440  174.8340  135.2160 O   0  0  0  0  0  1  0  0  0  0  0  0
  183.9600  174.1100  135.2690 C   0  0  0  0  0  3  0  0  0  0  0  0
  182.6900  173.8690  134.7430 C   0  0  0  0  0  3  0  0  0  0  0  0
  182.9580  175.1200  137.2400 C   0  0  0  0  0  0  0  0  0  0  0  0
  181.6880  174.8630  136.7070 C   0  0  0  0  0  3  0  0  0  0  0  0
  186.0520  173.7730  137.4920 O   0  0  0  0  0  1  0  0  0  0  0  0
  181.5540  174.2460  135.4620 C   0  0  0  0  0  3  0  0  0  0  0  0
  187.5370  177.8830  141.8200 C   0  0  0  0  0  2  0  0  0  0  0  0
  184.1090  174.7420  136.5140 C   0  0  0  0  0  0  0  0  0  0  0  0
  189.4740  177.6700  139.8740 C   0  0  1  0  0  3  0  0  0  0  0  0
  185.0310  178.3730  139.1420 C   0  0  0  0  0  2  0  0  0  0  0  0
  188.3290  178.6060  139.4850 C   0  0  0  0  0  2  0  0  0  0  0  0
  183.1770  177.2880  138.5680 C   0  0  1  0  0  3  0  0  0  0  0  0
  188.4280  175.8530  137.6090 C   0  0  0  0  0  2  0  0  0  0  0  0
  183.0410  175.7580  138.5980 C   0  0  0  0  0  2  0  0  0  0  0  0
  187.3750  176.6300  136.7960 C   0  0  2  0  0  3  0  0  0  0  0  0
  186.3860  175.7150  136.0850 C   0  0  2  0  0  3  0  0  0  0  0  0
  188.8910  178.4400  142.2420 C   0  0  0  0  0  2  0  0  0  0  0  0
  189.8640  176.0040  137.1120 C   0  0  1  0  0  3  0  0  0  0  0  0
  187.1360  178.4350  140.4390 C   0  0  1  0  0  3  0  0  0  0  0  0
  185.4830  174.9720  137.0730 C   0  0  2  0  0  3  0  0  0  0  0  0
  184.4350  177.6720  138.0890 O   0  0  0  0  0  0  0  0  0  0  0  0
  190.8130  176.3120  138.2710 C   0  0  0  0  0  2  0  0  0  0  0  0
  190.5800  177.7090  138.8370 C   0  0  0  0  0  2  0  0  0  0  0  0
  190.0060  178.0080  141.2710 C   0  0  0  0  0  2  0  0  0  0  0  0
  182.0810  178.0930  136.2710 C   0  0  0  0  0  3  0  0  0  0  0  0
  181.2970  180.1200  137.2210 N   0  0  0  0  0  0  0  0  0  0  0  0
  180.7150  178.1040  138.4850 C   0  0  0  0  0  2  0  0  0  0  0  0
  181.6500  179.3110  138.3750 C   0  0  1  0  0  3  0  0  0  0  0  0
  181.5470  179.4750  135.9420 C   0  0  0  0  0  3  0  0  0  0  0  0
  182.0570  177.9780  137.7920 C   0  0  1  0  0  0  0  0  0  0  0  0
  180.7810  181.4530  137.3400 C   0  0  0  0  0  0  0  0  0  0  0  0
  180.7850  182.0820  138.5080 C   0  0  0  0  0  2  0  0  0  0  0  0
  180.1750  182.1400  136.1640 C   0  0  0  0  0  1  0  0  0  0  0  0
  190.2980  174.7100  136.4510 C   0  0  0  0  0  2  0  0  0  0  0  0
  191.6760  174.5080  136.6610 O   0  0  0  0  0  0  0  0  0  0  0  0
  193.6160  172.8260  136.9160 O   0  0  0  0  0  1  0  0  0  0  0  0
  193.6570  173.4720  135.6810 C   0  0  2  0  0  0  0  0  0  0  0  0
  191.4450  173.4350  134.6110 O   0  0  0  0  0  1  0  0  0  0  0  0
  194.0200  175.6960  134.9300 C   0  0  1  0  0  3  0  0  0  0  0  0
  194.6610  174.6430  135.7750 C   0  0  2  0  0  3  0  0  0  0  0  0
  192.2980  174.1980  135.4200 C   0  0  1  0  0  0  0  0  0  0  0  0
  192.7280  175.4650  134.7260 C   0  0  0  0  0  2  0  0  0  0  0  0
  196.8000  173.6250  136.5190 C   0  0  0  0  0  2  0  0  0  0  0  0
  197.0600  175.0850  136.2280 C   0  0  0  0  0  2  0  0  0  0  0  0
  196.0930  174.3040  135.3690 C   0  0  0  0  0  3  0  0  0  0  0  0
  194.7190  176.9210  134.4170 C   0  0  0  0  0  2  0  0  0  0  0  0
  196.1240  178.5240  134.9940 C   0  0  0  0  0  1  0  0  0  0  0  0
  195.0770  177.7490  135.4900 O   0  0  0  0  0  0  0  0  0  0  0  0
  194.0100  172.4960  134.6980 O   0  0  0  0  0  0  0  0  0  0  0  0
  193.0000  170.3170  134.6680 C   0  0  0  0  0  1  0  0  0  0  0  0
  195.4370  170.5910  134.8120 C   0  0  0  0  0  1  0  0  0  0  0  0
  194.1090  171.1910  135.2260 C   0  0  0  0  0  3  0  0  0  0  0  0
  1 22  1  0  0  0  0
  4 11  1  0  0  0  0
  5  4  2  0  0  0  0
  5  9  1  0  0  0  0
  6 17  1  0  0  0  0
  7  6  1  0  0  0  0
  9  7  2  0  0  0  0
 10 20  1  0  0  0  0
 11 23  1  0  0  0  0
 11  6  2  0  0  0  0
 12 26  1  6  0  0  0
 12 27  1  0  0  0  0
 13  1  1  0  0  0  0
 14 12  1  0  0  0  0
 15 17  1  6  0  0  0
 18  2  1  6  0  0  0
 18 16  1  0  0  0  0
 19  3  1  1  0  0  0
 19 18  1  0  0  0  0
 19 23  1  0  0  0  0
 21 37  1  1  0  0  0
 21 16  1  0  0  0  0
 21 25  1  0  0  0  0
 22 14  1  6  0  0  0
 22 10  1  0  0  0  0
 23  8  1  6  0  0  0
 24 15  1  0  0  0  0
 24 13  1  0  0  0  0
 25 26  1  0  0  0  0
 27 20  1  0  0  0  0
 29 34  1  0  0  0  0
 29 31  1  0  0  0  0
 31 30  1  1  0  0  0
 32 28  2  0  0  0  0
 32 29  1  0  0  0  0
 33 28  1  6  0  0  0
 33 31  1  0  0  0  0
 33 30  1  0  0  0  0
 33 15  1  0  0  0  0
 34 35  2  0  0  0  0
 36 34  1  0  0  0  0
 37 38  1  0  0  0  0
 40 43  1  0  0  0  0
 40 39  1  1  0  0  0
 42 49  1  1  0  0  0
 42 43  1  0  0  0  0
 43 48  1  6  0  0  0
 44 41  1  6  0  0  0
 44 40  1  0  0  0  0
 44 38  1  0  0  0  0
 45 42  1  0  0  0  0
 45 44  1  0  0  0  0
 47 46  1  0  0  0  0
 48 47  1  0  0  0  0
 48 46  1  0  0  0  0
 49 51  1  0  0  0  0
 50 51  1  0  0  0  0
 52 55  1  0  0  0  0
 52 40  1  0  0  0  0
 53 55  1  0  0  0  0
 54 55  1  0  0  0  0
M  END
>  <MODEL>
1

>  <REMARK>
 VINA RESULT:      -5.1      0.000      0.000
  Name = 
  10 active torsions:
  status: ('A' for Active; 'I' for Inactive)
    1  A    between atoms: C_6  and  O_46
    2  A    between atoms: C_8  and  O_22
    3  A    between atoms: C_8  and  C_43
    4  A    between atoms: C_10  and  N_32
    5  A    between atoms: C_12  and  C_30
    6  A    between atoms: C_14  and  C_38
    7  A    between atoms: C_20  and  O_22
    8  A    between atoms: C_30  and  O_50
    9  A    between atoms: C_33  and  C_52
   10  A    between atoms: O_46  and  C_53
                            x       y       z     vdW  Elec       q    Type
                         _______ _______ _______ _____ _____    ______ ____

>  <TORSDO>
F 10

$$$$
=
 OpenBabel10272401203D

 55 61  0  0  1  0  0  0  0  0999 V2000
  185.2190  177.7920  140.5030 C   0  0  0  0  0  2  0  0  0  0  0  0
  187.5600  178.7520  136.9620 C   0  0  0  0  0  1  0  0  0  0  0  0
  186.8490  176.0890  135.6500 O   0  0  0  0  0  1  0  0  0  0  0  0
  183.8090  175.3710  135.1240 C   0  0  0  0  0  3  0  0  0  0  0  0
  182.6310  175.2430  134.3870 C   0  0  0  0  0  3  0  0  0  0  0  0
  182.5190  175.9580  137.0990 C   0  0  0  0  0  0  0  0  0  0  0  0
  181.3410  175.8160  136.3530 C   0  0  0  0  0  3  0  0  0  0  0  0
  185.5860  174.5860  137.5020 O   0  0  0  0  0  1  0  0  0  0  0  0
  181.3970  175.4660  135.0020 C   0  0  0  0  0  3  0  0  0  0  0  0
  186.3490  177.7240  142.7370 C   0  0  0  0  0  2  0  0  0  0  0  0
  183.7690  175.7350  136.4790 C   0  0  0  0  0  0  0  0  0  0  0  0
  188.5390  177.9130  141.0770 C   0  0  1  0  0  3  0  0  0  0  0  0
  184.2200  178.7520  139.8900 C   0  0  0  0  0  2  0  0  0  0  0  0
  187.4330  178.9090  140.7300 C   0  0  0  0  0  2  0  0  0  0  0  0
  182.4930  177.8080  138.8550 C   0  0  1  0  0  3  0  0  0  0  0  0
  187.8640  176.5960  138.3690 C   0  0  0  0  0  2  0  0  0  0  0  0
  182.3970  176.3050  138.5560 C   0  0  0  0  0  2  0  0  0  0  0  0
  186.9110  177.5240  137.5900 C   0  0  2  0  0  3  0  0  0  0  0  0
  186.0540  176.7740  136.5780 C   0  0  2  0  0  3  0  0  0  0  0  0
  187.6160  178.1830  143.4470 C   0  0  0  0  0  2  0  0  0  0  0  0
  189.3500  176.8450  138.1180 C   0  0  1  0  0  3  0  0  0  0  0  0
  186.1250  178.5470  141.4530 C   0  0  1  0  0  3  0  0  0  0  0  0
  185.0460  175.8450  137.2590 C   0  0  2  0  0  3  0  0  0  0  0  0
  183.7940  178.2810  138.6440 O   0  0  0  0  0  0  0  0  0  0  0  0
  190.1220  176.9100  139.4360 C   0  0  0  0  0  2  0  0  0  0  0  0
  189.7750  178.1620  140.2350 C   0  0  0  0  0  2  0  0  0  0  0  0
  188.8650  177.9580  142.5750 C   0  0  0  0  0  2  0  0  0  0  0  0
  181.5390  178.8070  136.5710 C   0  0  0  0  0  3  0  0  0  0  0  0
  180.9590  180.8740  137.5800 N   0  0  0  0  0  0  0  0  0  0  0  0
  180.1370  178.8910  138.7600 C   0  0  0  0  0  2  0  0  0  0  0  0
  181.1990  179.9920  138.7100 C   0  0  1  0  0  3  0  0  0  0  0  0
  181.1650  180.2500  136.2830 C   0  0  0  0  0  3  0  0  0  0  0  0
  181.4710  178.6430  138.0860 C   0  0  1  0  0  0  0  0  0  0  0  0
  180.5890  182.2500  137.7390 C   0  0  0  0  0  0  0  0  0  0  0  0
  180.0650  182.6870  138.8780 C   0  0  0  0  0  2  0  0  0  0  0  0
  180.7310  183.2100  136.6090 C   0  0  0  0  0  1  0  0  0  0  0  0
  189.9060  175.7140  137.2760 C   0  0  0  0  0  2  0  0  0  0  0  0
  191.2320  176.0070  136.9020 O   0  0  0  0  0  0  0  0  0  0  0  0
  191.9970  173.5440  136.9720 O   0  0  0  0  0  1  0  0  0  0  0  0
  192.2650  174.1290  135.7350 C   0  0  2  0  0  0  0  0  0  0  0  0
  190.2860  175.3180  134.8930 O   0  0  0  0  0  1  0  0  0  0  0  0
  193.6850  175.8570  134.9370 C   0  0  1  0  0  3  0  0  0  0  0  0
  193.7410  174.5860  135.7200 C   0  0  2  0  0  3  0  0  0  0  0  0
  191.4820  175.4750  135.6070 C   0  0  1  0  0  0  0  0  0  0  0  0
  192.4550  176.3540  134.8640 C   0  0  0  0  0  2  0  0  0  0  0  0
  194.9900  172.4980  136.2170 C   0  0  0  0  0  2  0  0  0  0  0  0
  196.0020  173.5990  135.9930 C   0  0  0  0  0  2  0  0  0  0  0  0
  194.7320  173.5600  135.1740 C   0  0  0  0  0  3  0  0  0  0  0  0
  194.8780  176.5500  134.3470 C   0  0  0  0  0  2  0  0  0  0  0  0
  197.0190  176.6500  134.8800 C   0  0  0  0  0  1  0  0  0  0  0  0
  195.7500  176.9490  135.3710 O   0  0  0  0  0  0  0  0  0  0  0  0
  191.9570  173.1610  134.7280 O   0  0  0  0  0  0  0  0  0  0  0  0
  189.9030  171.9430  134.4710 C   0  0  0  0  0  1  0  0  0  0  0  0
  192.0090  170.7950  134.9990 C   0  0  0  0  0  1  0  0  0  0  0  0
  191.2170  172.0660  135.2220 C   0  0  0  0  0  3  0  0  0  0  0  0
  4 11  1  0  0  0  0
  5  9  1  0  0  0  0
  5  4  2  0  0  0  0
  6 17  1  0  0  0  0
  7  6  1  0  0  0  0
  9  7  2  0  0  0  0
 10 20  1  0  0  0  0
 11  6  2  0  0  0  0
 11 23  1  0  0  0  0
 12 26  1  6  0  0  0
 12 27  1  0  0  0  0
 13  1  1  0  0  0  0
 14 12  1  0  0  0  0
 14 22  1  0  0  0  0
 15 17  1  6  0  0  0
 18  2  1  6  0  0  0
 18 16  1  0  0  0  0
 19  3  1  6  0  0  0
 19 23  1  0  0  0  0
 19 18  1  0  0  0  0
 21 37  1  6  0  0  0
 21 16  1  0  0  0  0
 21 25  1  0  0  0  0
 22  1  1  6  0  0  0
 22 10  1  0  0  0  0
 23  8  1  6  0  0  0
 24 15  1  0  0  0  0
 24 13  1  0  0  0  0
 25 26  1  0  0  0  0
 27 20  1  0  0  0  0
 29 34  1  0  0  0  0
 29 31  1  0  0  0  0
 31 30  1  1  0  0  0
 32 28  2  0  0  0  0
 32 29  1  0  0  0  0
 33 28  1  6  0  0  0
 33 31  1  0  0  0  0
 33 30  1  0  0  0  0
 33 15  1  0  0  0  0
 34 35  2  0  0  0  0
 36 34  1  0  0  0  0
 38 37  1  0  0  0  0
 40 39  1  1  0  0  0
 42 49  1  1  0  0  0
 42 43  1  0  0  0  0
 43 48  1  6  0  0  0
 43 40  1  0  0  0  0
 44 41  1  6  0  0  0
 44 40  1  0  0  0  0
 44 38  1  0  0  0  0
 45 42  1  0  0  0  0
 45 44  1  0  0  0  0
 47 46  1  0  0  0  0
 48 47  1  0  0  0  0
 48 46  1  0  0  0  0
 49 51  1  0  0  0  0
 50 51  1  0  0  0  0
 52 55  1  0  0  0  0
 52 40  1  0  0  0  0
 53 55  1  0  0  0  0
 54 55  1  0  0  0  0
M  END
>  <MODEL>
2

>  <REMARK>
 VINA RESULT:      -4.3      1.271      1.529
  Name = 
  10 active torsions:
  status: ('A' for Active; 'I' for Inactive)
    1  A    between atoms: C_6  and  O_46
    2  A    between atoms: C_8  and  O_22
    3  A    between atoms: C_8  and  C_43
    4  A    between atoms: C_10  and  N_32
    5  A    between atoms: C_12  and  C_30
    6  A    between atoms: C_14  and  C_38
    7  A    between atoms: C_20  and  O_22
    8  A    between atoms: C_30  and  O_50
    9  A    between atoms: C_33  and  C_52
   10  A    between atoms: O_46  and  C_53
                            x       y       z     vdW  Elec       q    Type
                         _______ _______ _______ _____ _____    ______ ____

>  <TORSDO>
F 10

$$$$
=
 OpenBabel10272401203D

 55 61  0  0  1  0  0  0  0  0999 V2000
  187.6020  172.9350  135.9110 C   0  0  0  0  0  2  0  0  0  0  0  0
  187.4240  177.0880  134.6230 C   0  0  0  0  0  1  0  0  0  0  0  0
  188.7290  178.0490  137.2100 O   0  0  0  0  0  1  0  0  0  0  0  0
  191.6080  176.9850  137.9940 C   0  0  0  0  0  3  0  0  0  0  0  0
  192.9980  177.0140  138.1100 C   0  0  0  0  0  3  0  0  0  0  0  0
  191.6860  174.5880  137.5930 C   0  0  0  0  0  0  0  0  0  0  0  0
  193.0810  174.6280  137.7220 C   0  0  0  0  0  3  0  0  0  0  0  0
  188.8620  175.9350  138.8830 O   0  0  0  0  0  1  0  0  0  0  0  0
  193.7340  175.8350  137.9740 C   0  0  0  0  0  3  0  0  0  0  0  0
  185.4790  171.6190  136.0970 C   0  0  0  0  0  2  0  0  0  0  0  0
  190.9380  175.7790  137.7270 C   0  0  0  0  0  0  0  0  0  0  0  0
  184.4630  174.1500  135.7170 C   0  0  1  0  0  3  0  0  0  0  0  0
  188.7670  172.8670  134.9450 C   0  0  0  0  0  2  0  0  0  0  0  0
  185.5820  173.7970  134.7370 C   0  0  0  0  0  2  0  0  0  0  0  0
  190.7860  172.9320  135.8730 C   0  0  1  0  0  3  0  0  0  0  0  0
  186.4510  176.2140  136.8610 C   0  0  0  0  0  2  0  0  0  0  0  0
  191.0340  173.2560  137.3540 C   0  0  0  0  0  2  0  0  0  0  0  0
  187.6630  176.3130  135.9140 C   0  0  2  0  0  3  0  0  0  0  0  0
  188.9240  176.7930  136.6200 C   0  0  2  0  0  3  0  0  0  0  0  0
  184.0240  171.6320  135.6460 C   0  0  0  0  0  2  0  0  0  0  0  0
  185.3070  177.1760  136.5440 C   0  0  1  0  0  3  0  0  0  0  0  0
  186.3290  172.5340  135.1940 C   0  0  1  0  0  3  0  0  0  0  0  0
  189.4410  175.7640  137.6290 C   0  0  2  0  0  3  0  0  0  0  0  0
  189.7800  173.7470  135.3410 O   0  0  0  0  0  0  0  0  0  0  0  0
  183.9640  176.4460  136.5450 C   0  0  0  0  0  2  0  0  0  0  0  0
  183.8380  175.4870  135.3660 C   0  0  0  0  0  2  0  0  0  0  0  0
  183.4080  173.0380  135.7660 C   0  0  0  0  0  2  0  0  0  0  0  0
  192.6380  171.7550  134.3520 C   0  0  0  0  0  3  0  0  0  0  0  0
  194.3840  173.0920  135.2400 N   0  0  0  0  0  0  0  0  0  0  0  0
  192.4340  174.3460  134.4510 C   0  0  0  0  0  2  0  0  0  0  0  0
  193.1750  173.7770  135.6630 C   0  0  1  0  0  3  0  0  0  0  0  0
  194.1460  171.8750  134.4810 C   0  0  0  0  0  3  0  0  0  0  0  0
  192.0530  172.9950  135.0210 C   0  0  1  0  0  0  0  0  0  0  0  0
  195.6970  173.5620  135.5760 C   0  0  0  0  0  0  0  0  0  0  0  0
  196.5250  173.9990  134.6360 C   0  0  0  0  0  2  0  0  0  0  0  0
  196.1820  173.5170  136.9850 C   0  0  0  0  0  1  0  0  0  0  0  0
  185.2750  178.2700  137.5930 C   0  0  0  0  0  2  0  0  0  0  0  0
  184.2260  178.0260  138.5020 O   0  0  0  0  0  0  0  0  0  0  0  0
  183.5460  177.2670  140.8720 O   0  0  0  0  0  1  0  0  0  0  0  0
  183.3950  178.6450  140.7120 C   0  0  2  0  0  0  0  0  0  0  0  0
  185.4110  179.6240  139.7040 O   0  0  0  0  0  1  0  0  0  0  0  0
  182.0110  180.0680  139.4090 C   0  0  1  0  0  3  0  0  0  0  0  0
  181.9140  178.9390  140.3810 C   0  0  2  0  0  3  0  0  0  0  0  0
  184.1390  179.1100  139.4190 C   0  0  1  0  0  0  0  0  0  0  0  0
  183.2230  180.1750  138.8750 C   0  0  0  0  0  2  0  0  0  0  0  0
  181.1990  178.1400  142.6210 C   0  0  0  0  0  2  0  0  0  0  0  0
  179.9830  178.1450  141.7220 C   0  0  0  0  0  2  0  0  0  0  0  0
  181.0260  179.2300  141.5900 C   0  0  0  0  0  3  0  0  0  0  0  0
  180.8660  180.9530  139.0110 C   0  0  0  0  0  2  0  0  0  0  0  0
  180.6050  182.8030  137.8340 C   0  0  0  0  0  1  0  0  0  0  0  0
  181.1110  181.5070  137.7460 O   0  0  0  0  0  0  0  0  0  0  0  0
  183.8460  179.2690  141.9160 O   0  0  0  0  0  0  0  0  0  0  0  0
  186.0250  178.4800  142.5470 C   0  0  0  0  0  1  0  0  0  0  0  0
  184.2430  178.7710  144.2120 C   0  0  0  0  0  1  0  0  0  0  0  0
  184.5280  178.3820  142.7760 C   0  0  0  0  0  3  0  0  0  0  0  0
  4  5  1  0  0  0  0
  6  7  2  0  0  0  0
  6 11  1  0  0  0  0
  7  9  1  0  0  0  0
  9  5  2  0  0  0  0
 11  4  2  0  0  0  0
 12 14  1  6  0  0  0
 12 27  1  0  0  0  0
 13 24  1  0  0  0  0
 13  1  1  0  0  0  0
 15 17  1  1  0  0  0
 17  6  1  0  0  0  0
 18  2  1  6  0  0  0
 18 19  1  0  0  0  0
 18 16  1  0  0  0  0
 19  3  1  1  0  0  0
 19 23  1  0  0  0  0
 20 27  1  0  0  0  0
 20 10  1  0  0  0  0
 21 25  1  0  0  0  0
 21 16  1  0  0  0  0
 21 37  1  1  0  0  0
 22 14  1  1  0  0  0
 22  1  1  0  0  0  0
 22 10  1  0  0  0  0
 23 11  1  0  0  0  0
 23  8  1  1  0  0  0
 24 15  1  0  0  0  0
 26 12  1  0  0  0  0
 26 25  1  0  0  0  0
 28 32  2  0  0  0  0
 29 34  1  0  0  0  0
 29 31  1  0  0  0  0
 30 33  1  0  0  0  0
 31 30  1  6  0  0  0
 32 29  1  0  0  0  0
 33 28  1  6  0  0  0
 33 31  1  0  0  0  0
 33 15  1  0  0  0  0
 34 36  1  0  0  0  0
 35 34  2  0  0  0  0
 37 38  1  0  0  0  0
 38 44  1  0  0  0  0
 40 39  1  1  0  0  0
 40 52  1  0  0  0  0
 42 49  1  6  0  0  0
 42 43  1  0  0  0  0
 43 40  1  0  0  0  0
 43 48  1  1  0  0  0
 44 41  1  1  0  0  0
 44 40  1  0  0  0  0
 45 42  1  0  0  0  0
 45 44  1  0  0  0  0
 47 46  1  0  0  0  0
 48 47  1  0  0  0  0
 48 46  1  0  0  0  0
 51 50  1  0  0  0  0
 51 49  1  0  0  0  0
 52 55  1  0  0  0  0
 53 55  1  0  0  0  0
 55 54  1  0  0  0  0
M  END
>  <MODEL>
3

>  <REMARK>
 VINA RESULT:      -2.5      3.118     11.456
  Name = 
  10 active torsions:
  status: ('A' for Active; 'I' for Inactive)
    1  A    between atoms: C_6  and  O_46
    2  A    between atoms: C_8  and  O_22
    3  A    between atoms: C_8  and  C_43
    4  A    between atoms: C_10  and  N_32
    5  A    between atoms: C_12  and  C_30
    6  A    between atoms: C_14  and  C_38
    7  A    between atoms: C_20  and  O_22
    8  A    between atoms: C_30  and  O_50
    9  A    between atoms: C_33  and  C_52
   10  A    between atoms: O_46  and  C_53
                            x       y       z     vdW  Elec       q    Type
                         _______ _______ _______ _____ _____    ______ ____

>  <TORSDO>
F 10

$$$$
