=
 OpenBabel10272415253D

 34 36  0  0  1  0  0  0  0  0999 V2000
  183.5090  177.3130  138.7680 C   0  0  1  0  0  3  0  0  0  0  0  0
  183.0590  175.3150  136.7480 C   0  0  0  0  0  3  0  0  0  0  0  0
  181.4470  176.3480  139.7590 C   0  0  0  0  0  1  0  0  0  0  0  0
  181.9820  175.7330  137.4140 C   0  0  0  0  0  0  0  0  0  0  0  0
  182.0760  176.8310  138.4610 C   0  0  2  0  0  3  0  0  0  0  0  0
  184.3400  175.9250  136.9260 N   0  0  0  0  0  0  0  0  0  0  0  0
  185.7430  177.5130  137.9400 O   0  0  0  0  0  1  0  0  0  0  0  0
  184.4260  177.2460  137.5490 C   0  0  2  0  0  3  0  0  0  0  0  0
  180.6250  174.1400  136.0830 C   0  0  0  0  0  1  0  0  0  0  0  0
  180.7580  175.1410  137.0820 O   0  0  0  0  0  0  0  0  0  0  0  0
  185.4710  175.3680  136.1930 C   0  0  0  0  0  2  0  0  0  0  0  0
  186.3990  174.6020  137.1310 C   0  0  2  0  0  3  0  0  0  0  0  0
  187.7140  174.6850  136.6700 O   0  0  0  0  0  1  0  0  0  0  0  0
  185.9760  173.1400  137.2450 C   0  0  0  0  0  0  0  0  0  0  0  0
  185.0290  173.0030  138.2440 F   0  0  0  0  0  0  0  0  0  0  0  0
  187.0770  172.3670  137.5660 F   0  0  0  0  0  0  0  0  0  0  0  0
  185.4450  172.6970  136.0470 F   0  0  0  0  0  0  0  0  0  0  0  0
  183.4810  178.7460  139.2930 C   0  0  0  0  0  2  0  0  0  0  0  0
  184.3350  178.8910  140.5050 C   0  0  0  0  0  0  0  0  0  0  0  0
  185.2870  179.7160  140.4940 O   0  0  0  0  0  0  0  0  0  0  0  0
  184.0560  178.0930  141.6630 N   0  0  0  0  0  2  0  0  0  0  0  0
  184.7320  178.7880  145.2630 C   0  0  0  0  0  3  0  0  0  0  0  0
  186.0390  177.6230  143.0760 C   0  0  0  0  0  3  0  0  0  0  0  0
  187.9590  177.8240  146.8130 C   0  0  0  0  0  0  0  0  0  0  0  0
  186.6630  178.3390  146.6580 C   0  0  0  0  0  3  0  0  0  0  0  0
  186.0220  178.2750  145.4180 C   0  0  0  0  0  0  0  0  0  0  0  0
  187.9700  177.1740  144.4680 C   0  0  0  0  0  3  0  0  0  0  0  0
  186.6800  177.6870  144.3150 C   0  0  0  0  0  0  0  0  0  0  0  0
  188.6060  177.2430  145.7110 C   0  0  0  0  0  3  0  0  0  0  0  0
  184.7420  178.1370  142.9200 C   0  0  0  0  0  0  0  0  0  0  0  0
  184.0980  178.7190  144.0190 C   0  0  0  0  0  3  0  0  0  0  0  0
  188.6190  177.8890  148.0840 N   0  0  0  0  0  0  0  0  0  0  0  0
  189.9800  177.7060  148.1700 O   0  0  0  0  0  0  0  0  0  0  0  0
  187.9680  178.1090  149.1270 O   0  0  0  0  0  0  0  0  0  0  0  0
  1 18  1  6  0  0  0
  2  6  1  0  0  0  0
  2  4  2  0  0  0  0
  4  5  1  0  0  0  0
  5  1  1  0  0  0  0
  5  3  1  1  0  0  0
  6  8  1  0  0  0  0
  8  7  1  1  0  0  0
  8  1  1  0  0  0  0
  9 10  1  0  0  0  0
 10  4  1  0  0  0  0
 11  6  1  0  0  0  0
 11 12  1  0  0  0  0
 12 13  1  6  0  0  0
 12 14  1  0  0  0  0
 14 16  1  0  0  0  0
 14 15  1  0  0  0  0
 17 14  1  0  0  0  0
 18 19  1  0  0  0  0
 19 21  1  0  0  0  0
 20 19  2  0  0  0  0
 21 30  1  0  0  0  0
 22 26  1  0  0  0  0
 23 28  1  0  0  0  0
 24 32  1  0  0  0  0
 25 24  1  0  0  0  0
 26 25  2  0  0  0  0
 27 29  1  0  0  0  0
 28 27  2  0  0  0  0
 28 26  1  0  0  0  0
 29 24  2  0  0  0  0
 30 23  2  0  0  0  0
 30 31  1  0  0  0  0
 31 22  2  0  0  0  0
 32 33  2  0  0  0  0
 32 34  2  0  0  0  0
M  END
>  <MODEL>
1

>  <REMARK>
 VINA RESULT:      -8.3      0.000      0.000
  Name = 
  8 active torsions:
  status: ('A' for Active; 'I' for Inactive)
    1  A    between atoms: C_1  and  C_9
    2  A    between atoms: C_2  and  C_23
    3  A    between atoms: C_2  and  N_32
    4  A    between atoms: C_3  and  C_23
    5  A    between atoms: C_7  and  N_11
    6  A    between atoms: C_8  and  C_9
    7  A    between atoms: N_18  and  C_30
    8  A    between atoms: C_19  and  O_22
                            x       y       z     vdW  Elec       q    Type
                         _______ _______ _______ _____ _____    ______ ____

>  <TORSDO>
F 8

$$$$
=
 OpenBabel10272415253D

 34 36  0  0  1  0  0  0  0  0999 V2000
  183.7000  177.4470  138.5680 C   0  0  1  0  0  3  0  0  0  0  0  0
  183.2580  175.6370  136.3760 C   0  0  0  0  0  3  0  0  0  0  0  0
  181.9320  176.0850  139.6590 C   0  0  0  0  0  1  0  0  0  0  0  0
  182.2320  175.8170  137.2080 C   0  0  0  0  0  0  0  0  0  0  0  0
  182.3160  176.7950  138.3690 C   0  0  2  0  0  3  0  0  0  0  0  0
  184.4580  176.4060  136.4820 N   0  0  0  0  0  0  0  0  0  0  0  0
  185.7590  178.0630  137.5220 O   0  0  0  0  0  1  0  0  0  0  0  0
  184.4490  177.6490  137.2540 C   0  0  2  0  0  3  0  0  0  0  0  0
  181.0640  173.8220  136.3080 C   0  0  0  0  0  1  0  0  0  0  0  0
  181.0640  175.0910  136.9460 O   0  0  0  0  0  0  0  0  0  0  0  0
  185.5470  176.1050  135.5600 C   0  0  0  0  0  2  0  0  0  0  0  0
  186.4550  175.0200  136.1310 C   0  0  2  0  0  3  0  0  0  0  0  0
  185.9290  174.5460  137.3350 O   0  0  0  0  0  1  0  0  0  0  0  0
  187.8690  175.5510  136.3510 C   0  0  0  0  0  0  0  0  0  0  0  0
  188.0960  175.7350  137.7030 F   0  0  0  0  0  0  0  0  0  0  0  0
  188.0080  176.7660  135.7060 F   0  0  0  0  0  0  0  0  0  0  0  0
  188.8010  174.6610  135.8470 F   0  0  0  0  0  0  0  0  0  0  0  0
  183.5510  178.7930  139.2710 C   0  0  0  0  0  2  0  0  0  0  0  0
  184.4290  178.8730  140.4720 C   0  0  0  0  0  0  0  0  0  0  0  0
  185.4980  179.5360  140.4120 O   0  0  0  0  0  0  0  0  0  0  0  0
  184.0390  178.1970  141.6750 N   0  0  0  0  0  2  0  0  0  0  0  0
  184.7310  178.7580  145.2950 C   0  0  0  0  0  3  0  0  0  0  0  0
  186.0460  177.7180  143.0510 C   0  0  0  0  0  3  0  0  0  0  0  0
  187.9950  177.8120  146.7770 C   0  0  0  0  0  0  0  0  0  0  0  0
  186.6850  178.3000  146.6540 C   0  0  0  0  0  3  0  0  0  0  0  0
  186.0340  178.2710  145.4180 C   0  0  0  0  0  0  0  0  0  0  0  0
  188.0010  177.2610  144.4070 C   0  0  0  0  0  3  0  0  0  0  0  0
  186.6970  177.7470  144.2860 C   0  0  0  0  0  0  0  0  0  0  0  0
  188.6460  177.2940  145.6470 C   0  0  0  0  0  3  0  0  0  0  0  0
  184.7360  178.2060  142.9280 C   0  0  0  0  0  0  0  0  0  0  0  0
  184.0870  178.7240  144.0550 C   0  0  0  0  0  3  0  0  0  0  0  0
  188.6650  177.8400  148.0450 N   0  0  0  0  0  0  0  0  0  0  0  0
  190.0200  177.6160  148.1180 O   0  0  0  0  0  0  0  0  0  0  0  0
  188.0280  178.0650  149.0940 O   0  0  0  0  0  0  0  0  0  0  0  0
  1 18  1  6  0  0  0
  2  6  1  0  0  0  0
  2  4  2  0  0  0  0
  4  5  1  0  0  0  0
  5  1  1  0  0  0  0
  5  3  1  1  0  0  0
  6  8  1  0  0  0  0
  8  7  1  1  0  0  0
  8  1  1  0  0  0  0
  9 10  1  0  0  0  0
 10  4  1  0  0  0  0
 11 12  1  0  0  0  0
 11  6  1  0  0  0  0
 12 14  1  0  0  0  0
 12 13  1  1  0  0  0
 14 15  1  0  0  0  0
 16 14  1  0  0  0  0
 17 14  1  0  0  0  0
 18 19  1  0  0  0  0
 19 21  1  0  0  0  0
 20 19  2  0  0  0  0
 21 30  1  0  0  0  0
 22 26  1  0  0  0  0
 23 28  1  0  0  0  0
 24 32  1  0  0  0  0
 25 24  1  0  0  0  0
 26 25  2  0  0  0  0
 27 29  1  0  0  0  0
 28 27  2  0  0  0  0
 28 26  1  0  0  0  0
 29 24  2  0  0  0  0
 30 23  2  0  0  0  0
 30 31  1  0  0  0  0
 31 22  2  0  0  0  0
 32 33  2  0  0  0  0
 32 34  2  0  0  0  0
M  END
>  <MODEL>
2

>  <REMARK>
 VINA RESULT:      -7.9      1.316      1.482
  Name = 
  8 active torsions:
  status: ('A' for Active; 'I' for Inactive)
    1  A    between atoms: C_1  and  C_9
    2  A    between atoms: C_2  and  C_23
    3  A    between atoms: C_2  and  N_32
    4  A    between atoms: C_3  and  C_23
    5  A    between atoms: C_7  and  N_11
    6  A    between atoms: C_8  and  C_9
    7  A    between atoms: N_18  and  C_30
    8  A    between atoms: C_19  and  O_22
                            x       y       z     vdW  Elec       q    Type
                         _______ _______ _______ _____ _____    ______ ____

>  <TORSDO>
F 8

$$$$
=
 OpenBabel10272415253D

 34 36  0  0  1  0  0  0  0  0999 V2000
  191.3700  175.6530  137.4720 C   0  0  1  0  0  3  0  0  0  0  0  0
  193.0460  173.6290  136.3020 C   0  0  0  0  0  3  0  0  0  0  0  0
  189.6100  173.9190  137.2200 C   0  0  0  0  0  1  0  0  0  0  0  0
  191.7480  173.5610  136.0080 C   0  0  0  0  0  0  0  0  0  0  0  0
  190.7660  174.6080  136.5110 C   0  0  2  0  0  3  0  0  0  0  0  0
  193.5970  174.7240  137.0380 N   0  0  0  0  0  0  0  0  0  0  0  0
  193.3650  176.7670  138.1750 O   0  0  0  0  0  1  0  0  0  0  0  0
  192.8310  175.9650  137.1600 C   0  0  2  0  0  3  0  0  0  0  0  0
  192.1350  171.3610  134.9310 C   0  0  0  0  0  1  0  0  0  0  0  0
  191.3340  172.5050  135.1880 O   0  0  0  0  0  0  0  0  0  0  0  0
  195.0190  174.6870  137.3570 C   0  0  0  0  0  2  0  0  0  0  0  0
  195.3370  173.5140  138.2790 C   0  0  2  0  0  3  0  0  0  0  0  0
  195.8830  173.9850  139.4750 O   0  0  0  0  0  1  0  0  0  0  0  0
  196.3020  172.5400  137.6110 C   0  0  0  0  0  0  0  0  0  0  0  0
  196.1390  172.5840  136.2390 F   0  0  0  0  0  0  0  0  0  0  0  0
  196.0350  171.2550  138.0500 F   0  0  0  0  0  0  0  0  0  0  0  0
  197.6100  172.8630  137.9280 F   0  0  0  0  0  0  0  0  0  0  0  0
  190.5610  176.9460  137.4200 C   0  0  0  0  0  2  0  0  0  0  0  0
  190.1960  177.4080  138.7880 C   0  0  0  0  0  0  0  0  0  0  0  0
  189.5500  178.4810  138.9250 O   0  0  0  0  0  0  0  0  0  0  0  0
  190.5830  176.6220  139.9230 N   0  0  0  0  0  2  0  0  0  0  0  0
  191.0720  177.4880  143.5160 C   0  0  0  0  0  3  0  0  0  0  0  0
  188.9650  176.8290  141.7920 C   0  0  0  0  0  3  0  0  0  0  0  0
  188.1940  177.6280  145.8490 C   0  0  0  0  0  0  0  0  0  0  0  0
  189.5060  177.6920  145.3550 C   0  0  0  0  0  3  0  0  0  0  0  0
  189.7670  177.4260  144.0080 C   0  0  0  0  0  0  0  0  0  0  0  0
  187.3990  177.0300  143.6280 C   0  0  0  0  0  3  0  0  0  0  0  0
  188.7040  177.0940  143.1380 C   0  0  0  0  0  0  0  0  0  0  0  0
  187.1460  177.2960  144.9780 C   0  0  0  0  0  3  0  0  0  0  0  0
  190.2770  176.8920  141.2970 C   0  0  0  0  0  0  0  0  0  0  0  0
  191.3240  177.2220  142.1670 C   0  0  0  0  0  3  0  0  0  0  0  0
  187.9240  177.9000  147.2310 N   0  0  0  0  0  0  0  0  0  0  0  0
  188.8750  177.6370  148.1890 O   0  0  0  0  0  0  0  0  0  0  0  0
  186.8240  178.3760  147.5800 O   0  0  0  0  0  0  0  0  0  0  0  0
  1 18  1  6  0  0  0
  2  6  1  0  0  0  0
  4  2  2  0  0  0  0
  4  5  1  0  0  0  0
  5  3  1  1  0  0  0
  5  1  1  0  0  0  0
  6  8  1  0  0  0  0
  6 11  1  0  0  0  0
  8  1  1  0  0  0  0
  8  7  1  1  0  0  0
  9 10  1  0  0  0  0
 10  4  1  0  0  0  0
 11 12  1  0  0  0  0
 12 13  1  1  0  0  0
 14 17  1  0  0  0  0
 14 16  1  0  0  0  0
 14 12  1  0  0  0  0
 15 14  1  0  0  0  0
 18 19  1  0  0  0  0
 19 20  2  0  0  0  0
 19 21  1  0  0  0  0
 21 30  1  0  0  0  0
 22 26  1  0  0  0  0
 23 28  1  0  0  0  0
 24 32  1  0  0  0  0
 25 24  1  0  0  0  0
 26 25  2  0  0  0  0
 27 29  1  0  0  0  0
 28 27  2  0  0  0  0
 28 26  1  0  0  0  0
 29 24  2  0  0  0  0
 30 23  2  0  0  0  0
 30 31  1  0  0  0  0
 31 22  2  0  0  0  0
 32 34  2  0  0  0  0
 32 33  2  0  0  0  0
M  END
>  <MODEL>
3

>  <REMARK>
 VINA RESULT:      -7.9      5.836      7.657
  Name = 
  8 active torsions:
  status: ('A' for Active; 'I' for Inactive)
    1  A    between atoms: C_1  and  C_9
    2  A    between atoms: C_2  and  C_23
    3  A    between atoms: C_2  and  N_32
    4  A    between atoms: C_3  and  C_23
    5  A    between atoms: C_7  and  N_11
    6  A    between atoms: C_8  and  C_9
    7  A    between atoms: N_18  and  C_30
    8  A    between atoms: C_19  and  O_22
                            x       y       z     vdW  Elec       q    Type
                         _______ _______ _______ _____ _____    ______ ____

>  <TORSDO>
F 8

$$$$
=
 OpenBabel10272415253D

 34 36  0  0  1  0  0  0  0  0999 V2000
  188.0860  176.6850  136.6440 C   0  0  1  0  0  3  0  0  0  0  0  0
  185.5100  175.5510  137.2370 C   0  0  0  0  0  3  0  0  0  0  0  0
  188.4550  174.5030  135.5160 C   0  0  0  0  0  1  0  0  0  0  0  0
  186.5040  174.6850  137.0420 C   0  0  0  0  0  0  0  0  0  0  0  0
  187.9260  175.1570  136.7840 C   0  0  2  0  0  3  0  0  0  0  0  0
  185.7380  176.9620  137.2900 N   0  0  0  0  0  0  0  0  0  0  0  0
  187.1670  178.8230  137.1890 O   0  0  0  0  0  1  0  0  0  0  0  0
  187.0960  177.4620  137.5060 C   0  0  2  0  0  3  0  0  0  0  0  0
  184.9990  172.8350  137.7240 C   0  0  0  0  0  1  0  0  0  0  0  0
  186.1880  173.3240  137.1190 O   0  0  0  0  0  0  0  0  0  0  0  0
  184.5820  177.8360  137.4560 C   0  0  0  0  0  2  0  0  0  0  0  0
  184.0300  177.7390  138.8750 C   0  0  2  0  0  3  0  0  0  0  0  0
  182.6440  177.5720  138.8350 O   0  0  0  0  0  1  0  0  0  0  0  0
  184.3840  178.9820  139.6850 C   0  0  0  0  0  0  0  0  0  0  0  0
  185.6800  178.8810  140.1580 F   0  0  0  0  0  0  0  0  0  0  0  0
  183.5240  179.0880  140.7640 F   0  0  0  0  0  0  0  0  0  0  0  0
  184.2690  180.1170  138.9020 F   0  0  0  0  0  0  0  0  0  0  0  0
  189.5070  177.1020  137.0150 C   0  0  0  0  0  2  0  0  0  0  0  0
  189.8070  176.7800  138.4380 C   0  0  0  0  0  0  0  0  0  0  0  0
  190.3530  175.6800  138.7190 O   0  0  0  0  0  0  0  0  0  0  0  0
  189.4740  177.7280  139.4600 N   0  0  0  0  0  2  0  0  0  0  0  0
  191.3520  177.2960  142.6520 C   0  0  0  0  0  3  0  0  0  0  0  0
  188.7000  177.6360  141.8150 C   0  0  0  0  0  3  0  0  0  0  0  0
  189.5810  177.2360  145.9090 C   0  0  0  0  0  0  0  0  0  0  0  0
  190.6130  177.2010  144.9580 C   0  0  0  0  0  3  0  0  0  0  0  0
  190.3250  177.3320  143.5980 C   0  0  0  0  0  0  0  0  0  0  0  0
  187.9600  177.5400  144.1190 C   0  0  0  0  0  3  0  0  0  0  0  0
  188.9880  177.5050  143.1750 C   0  0  0  0  0  0  0  0  0  0  0  0
  188.2550  177.4070  145.4790 C   0  0  0  0  0  3  0  0  0  0  0  0
  189.7330  177.6010  140.8640 C   0  0  0  0  0  0  0  0  0  0  0  0
  191.0550  177.4300  141.2930 C   0  0  0  0  0  3  0  0  0  0  0  0
  189.8740  177.1020  147.3060 N   0  0  0  0  0  0  0  0  0  0  0  0
  191.1360  176.7450  147.7190 O   0  0  0  0  0  0  0  0  0  0  0  0
  188.9880  177.3040  148.1620 O   0  0  0  0  0  0  0  0  0  0  0  0
  1  5  1  0  0  0  0
  1 18  1  1  0  0  0
  1  8  1  0  0  0  0
  2  6  1  0  0  0  0
  4 10  1  0  0  0  0
  4  2  2  0  0  0  0
  5  3  1  6  0  0  0
  5  4  1  0  0  0  0
  6 11  1  0  0  0  0
  6  8  1  0  0  0  0
  8  7  1  6  0  0  0
 10  9  1  0  0  0  0
 11 12  1  0  0  0  0
 12 13  1  6  0  0  0
 12 14  1  0  0  0  0
 14 15  1  0  0  0  0
 14 16  1  0  0  0  0
 17 14  1  0  0  0  0
 18 19  1  0  0  0  0
 19 20  2  0  0  0  0
 19 21  1  0  0  0  0
 21 30  1  0  0  0  0
 22 26  1  0  0  0  0
 23 28  1  0  0  0  0
 24 32  1  0  0  0  0
 25 24  2  0  0  0  0
 26 25  1  0  0  0  0
 27 29  2  0  0  0  0
 28 26  2  0  0  0  0
 28 27  1  0  0  0  0
 29 24  1  0  0  0  0
 30 31  1  0  0  0  0
 30 23  2  0  0  0  0
 31 22  2  0  0  0  0
 32 33  2  0  0  0  0
 32 34  2  0  0  0  0
M  END
>  <MODEL>
4

>  <REMARK>
 VINA RESULT:      -7.9      3.194      5.107
  Name = 
  8 active torsions:
  status: ('A' for Active; 'I' for Inactive)
    1  A    between atoms: C_1  and  C_9
    2  A    between atoms: C_2  and  C_23
    3  A    between atoms: C_2  and  N_32
    4  A    between atoms: C_3  and  C_23
    5  A    between atoms: C_7  and  N_11
    6  A    between atoms: C_8  and  C_9
    7  A    between atoms: N_18  and  C_30
    8  A    between atoms: C_19  and  O_22
                            x       y       z     vdW  Elec       q    Type
                         _______ _______ _______ _____ _____    ______ ____

>  <TORSDO>
F 8

$$$$
=
 OpenBabel10272415253D

 34 36  0  0  1  0  0  0  0  0999 V2000
  191.3170  175.7920  137.5600 C   0  0  1  0  0  3  0  0  0  0  0  0
  192.7720  173.6550  136.2970 C   0  0  0  0  0  3  0  0  0  0  0  0
  189.3980  174.2350  137.3060 C   0  0  0  0  0  1  0  0  0  0  0  0
  191.4660  173.7160  136.0330 C   0  0  0  0  0  0  0  0  0  0  0  0
  190.5980  174.8340  136.5870 C   0  0  2  0  0  3  0  0  0  0  0  0
  193.4380  174.6730  137.0480 N   0  0  0  0  0  0  0  0  0  0  0  0
  193.4220  176.6960  138.2430 O   0  0  0  0  0  1  0  0  0  0  0  0
  192.7940  175.9760  137.2210 C   0  0  2  0  0  3  0  0  0  0  0  0
  191.6560  171.5580  134.8260 C   0  0  0  0  0  1  0  0  0  0  0  0
  190.9380  172.7260  135.1960 O   0  0  0  0  0  0  0  0  0  0  0  0
  194.8570  174.4960  137.3320 C   0  0  0  0  0  2  0  0  0  0  0  0
  195.0680  173.4050  138.3770 C   0  0  2  0  0  3  0  0  0  0  0  0
  195.7890  173.9160  139.4580 O   0  0  0  0  0  1  0  0  0  0  0  0
  195.8020  172.2090  137.7780 C   0  0  0  0  0  0  0  0  0  0  0  0
  195.5740  172.1540  136.4150 F   0  0  0  0  0  0  0  0  0  0  0  0
  195.3290  171.0440  138.3550 F   0  0  0  0  0  0  0  0  0  0  0  0
  197.1610  172.3110  138.0120 F   0  0  0  0  0  0  0  0  0  0  0  0
  190.6310  177.1550  137.5610 C   0  0  0  0  0  2  0  0  0  0  0  0
  190.1130  177.4950  138.9150 C   0  0  0  0  0  0  0  0  0  0  0  0
  189.3680  178.5020  139.0560 O   0  0  0  0  0  0  0  0  0  0  0  0
  190.4670  176.6700  140.0330 N   0  0  0  0  0  2  0  0  0  0  0  0
  188.1900  177.2250  142.9320 C   0  0  0  0  0  3  0  0  0  0  0  0
  190.9120  176.7500  142.4710 C   0  0  0  0  0  3  0  0  0  0  0  0
  189.4950  177.2360  146.4020 C   0  0  0  0  0  0  0  0  0  0  0  0
  188.6070  177.3100  145.3180 C   0  0  0  0  0  3  0  0  0  0  0  0
  189.0730  177.1500  144.0110 C   0  0  0  0  0  0  0  0  0  0  0  0
  191.3310  176.8360  144.8560 C   0  0  0  0  0  3  0  0  0  0  0  0
  190.4460  176.9100  143.7790 C   0  0  0  0  0  0  0  0  0  0  0  0
  190.8570  176.9980  146.1610 C   0  0  0  0  0  3  0  0  0  0  0  0
  190.0230  176.8240  141.3870 C   0  0  0  0  0  0  0  0  0  0  0  0
  188.6650  177.0630  141.6270 C   0  0  0  0  0  3  0  0  0  0  0  0
  189.0190  177.3990  147.7450 N   0  0  0  0  0  0  0  0  0  0  0  0
  189.5430  178.3820  148.5520 O   0  0  0  0  0  0  0  0  0  0  0  0
  188.1270  176.6520  148.1970 O   0  0  0  0  0  0  0  0  0  0  0  0
  1 18  1  6  0  0  0
  2  6  1  0  0  0  0
  4  2  2  0  0  0  0
  4  5  1  0  0  0  0
  5  3  1  1  0  0  0
  5  1  1  0  0  0  0
  6  8  1  0  0  0  0
  6 11  1  0  0  0  0
  8  1  1  0  0  0  0
  8  7  1  1  0  0  0
  9 10  1  0  0  0  0
 10  4  1  0  0  0  0
 11 12  1  0  0  0  0
 12 13  1  1  0  0  0
 14 17  1  0  0  0  0
 14 16  1  0  0  0  0
 14 12  1  0  0  0  0
 15 14  1  0  0  0  0
 18 19  1  0  0  0  0
 19 20  2  0  0  0  0
 19 21  1  0  0  0  0
 21 30  1  0  0  0  0
 22 26  1  0  0  0  0
 23 28  1  0  0  0  0
 24 32  1  0  0  0  0
 25 24  2  0  0  0  0
 26 25  1  0  0  0  0
 27 29  2  0  0  0  0
 28 26  2  0  0  0  0
 28 27  1  0  0  0  0
 29 24  1  0  0  0  0
 30 31  1  0  0  0  0
 30 23  2  0  0  0  0
 31 22  2  0  0  0  0
 32 34  2  0  0  0  0
 32 33  2  0  0  0  0
M  END
>  <MODEL>
5

>  <REMARK>
 VINA RESULT:      -7.7      5.652      7.400
  Name = 
  8 active torsions:
  status: ('A' for Active; 'I' for Inactive)
    1  A    between atoms: C_1  and  C_9
    2  A    between atoms: C_2  and  C_23
    3  A    between atoms: C_2  and  N_32
    4  A    between atoms: C_3  and  C_23
    5  A    between atoms: C_7  and  N_11
    6  A    between atoms: C_8  and  C_9
    7  A    between atoms: N_18  and  C_30
    8  A    between atoms: C_19  and  O_22
                            x       y       z     vdW  Elec       q    Type
                         _______ _______ _______ _____ _____    ______ ____

>  <TORSDO>
F 8

$$$$
=
 OpenBabel10272415253D

 34 36  0  0  1  0  0  0  0  0999 V2000
  187.6600  177.0900  136.7090 C   0  0  1  0  0  3  0  0  0  0  0  0
  185.2940  175.5920  137.3690 C   0  0  0  0  0  3  0  0  0  0  0  0
  188.3200  174.9780  135.5790 C   0  0  0  0  0  1  0  0  0  0  0  0
  186.4010  174.8810  137.1520 C   0  0  0  0  0  0  0  0  0  0  0  0
  187.7310  175.5560  136.8570 C   0  0  2  0  0  3  0  0  0  0  0  0
  185.3130  177.0210  137.4120 N   0  0  0  0  0  0  0  0  0  0  0  0
  186.4490  179.0720  137.2700 O   0  0  0  0  0  1  0  0  0  0  0  0
  186.5870  177.7180  137.5930 C   0  0  2  0  0  3  0  0  0  0  0  0
  185.1210  172.8290  137.7050 C   0  0  0  0  0  1  0  0  0  0  0  0
  186.2910  173.4880  137.2420 O   0  0  0  0  0  0  0  0  0  0  0  0
  184.0450  177.7160  137.6040 C   0  0  0  0  0  2  0  0  0  0  0  0
  183.5920  177.6230  139.0580 C   0  0  2  0  0  3  0  0  0  0  0  0
  182.2500  177.2420  139.1140 O   0  0  0  0  0  1  0  0  0  0  0  0
  183.7880  178.9540  139.7780 C   0  0  0  0  0  0  0  0  0  0  0  0
  182.6920  179.2210  140.5770 F   0  0  0  0  0  0  0  0  0  0  0  0
  183.9160  179.9660  138.8440 F   0  0  0  0  0  0  0  0  0  0  0  0
  184.9280  178.9150  140.5620 F   0  0  0  0  0  0  0  0  0  0  0  0
  189.0120  177.7140  137.0430 C   0  0  0  0  0  2  0  0  0  0  0  0
  189.1210  178.0130  138.4980 C   0  0  0  0  0  0  0  0  0  0  0  0
  189.0600  179.2090  138.8890 O   0  0  0  0  0  0  0  0  0  0  0  0
  189.2880  176.9350  139.4290 N   0  0  0  0  0  2  0  0  0  0  0  0
  188.3500  177.7910  142.9340 C   0  0  0  0  0  3  0  0  0  0  0  0
  190.4580  176.5380  141.5790 C   0  0  0  0  0  3  0  0  0  0  0  0
  190.5740  176.9140  145.7670 C   0  0  0  0  0  0  0  0  0  0  0  0
  189.4800  177.4140  145.0440 C   0  0  0  0  0  3  0  0  0  0  0  0
  189.4380  177.2920  143.6530 C   0  0  0  0  0  0  0  0  0  0  0  0
  191.5900  176.1620  143.6880 C   0  0  0  0  0  3  0  0  0  0  0  0
  190.5010  176.6600  142.9700 C   0  0  0  0  0  0  0  0  0  0  0  0
  191.6260  176.2890  145.0800 C   0  0  0  0  0  3  0  0  0  0  0  0
  189.3640  177.0380  140.8560 C   0  0  0  0  0  0  0  0  0  0  0  0
  188.3150  177.6630  141.5420 C   0  0  0  0  0  3  0  0  0  0  0  0
  190.6200  177.0380  147.1950 N   0  0  0  0  0  0  0  0  0  0  0  0
  191.8170  176.9230  147.8640 O   0  0  0  0  0  0  0  0  0  0  0  0
  189.5770  177.2500  147.8470 O   0  0  0  0  0  0  0  0  0  0  0  0
  1  5  1  0  0  0  0
  1 18  1  1  0  0  0
  1  8  1  0  0  0  0
  2  6  1  0  0  0  0
  4 10  1  0  0  0  0
  4  2  2  0  0  0  0
  5  3  1  6  0  0  0
  5  4  1  0  0  0  0
  6  8  1  0  0  0  0
  6 11  1  0  0  0  0
  8  7  1  6  0  0  0
 10  9  1  0  0  0  0
 11 12  1  0  0  0  0
 12 13  1  6  0  0  0
 12 14  1  0  0  0  0
 14 17  1  0  0  0  0
 14 15  1  0  0  0  0
 16 14  1  0  0  0  0
 18 19  1  0  0  0  0
 19 20  2  0  0  0  0
 19 21  1  0  0  0  0
 21 30  1  0  0  0  0
 22 26  1  0  0  0  0
 23 28  1  0  0  0  0
 24 32  1  0  0  0  0
 25 24  2  0  0  0  0
 26 25  1  0  0  0  0
 27 29  2  0  0  0  0
 28 26  2  0  0  0  0
 28 27  1  0  0  0  0
 29 24  1  0  0  0  0
 30 31  1  0  0  0  0
 30 23  2  0  0  0  0
 31 22  2  0  0  0  0
 32 34  2  0  0  0  0
 32 33  2  0  0  0  0
M  END
>  <MODEL>
6

>  <REMARK>
 VINA RESULT:      -7.6      3.276      4.902
  Name = 
  8 active torsions:
  status: ('A' for Active; 'I' for Inactive)
    1  A    between atoms: C_1  and  C_9
    2  A    between atoms: C_2  and  C_23
    3  A    between atoms: C_2  and  N_32
    4  A    between atoms: C_3  and  C_23
    5  A    between atoms: C_7  and  N_11
    6  A    between atoms: C_8  and  C_9
    7  A    between atoms: N_18  and  C_30
    8  A    between atoms: C_19  and  O_22
                            x       y       z     vdW  Elec       q    Type
                         _______ _______ _______ _____ _____    ______ ____

>  <TORSDO>
F 8

$$$$
=
 OpenBabel10272415253D

 34 36  0  0  1  0  0  0  0  0999 V2000
  181.8310  178.3230  139.6530 C   0  0  1  0  0  3  0  0  0  0  0  0
  184.1020  176.9990  138.4830 C   0  0  0  0  0  3  0  0  0  0  0  0
  182.9660  180.3660  138.8120 C   0  0  0  0  0  1  0  0  0  0  0  0
  184.2870  178.2640  138.8610 C   0  0  0  0  0  0  0  0  0  0  0  0
  183.1860  179.0540  139.5500 C   0  0  2  0  0  3  0  0  0  0  0  0
  182.8910  176.2960  138.7720 N   0  0  0  0  0  0  0  0  0  0  0  0
  180.7340  176.2000  139.6970 O   0  0  0  0  0  1  0  0  0  0  0  0
  181.9880  176.8120  139.8010 C   0  0  2  0  0  3  0  0  0  0  0  0
  186.7130  178.0380  138.3970 C   0  0  0  0  0  1  0  0  0  0  0  0
  185.5500  178.8210  138.6270 O   0  0  0  0  0  0  0  0  0  0  0  0
  182.7570  174.9310  138.2740 C   0  0  0  0  0  2  0  0  0  0  0  0
  183.7260  174.6780  137.1230 C   0  0  2  0  0  3  0  0  0  0  0  0
  183.0970  174.9500  135.9060 O   0  0  0  0  0  1  0  0  0  0  0  0
  184.2310  173.2390  137.1400 C   0  0  0  0  0  0  0  0  0  0  0  0
  183.1900  172.3800  137.4440 F   0  0  0  0  0  0  0  0  0  0  0  0
  185.2120  173.1080  138.1070 F   0  0  0  0  0  0  0  0  0  0  0  0
  184.7610  172.8990  135.9090 F   0  0  0  0  0  0  0  0  0  0  0  0
  181.0320  178.8610  140.8370 C   0  0  0  0  0  2  0  0  0  0  0  0
  181.7710  178.6710  142.1160 C   0  0  0  0  0  0  0  0  0  0  0  0
  181.1310  178.3730  143.1590 O   0  0  0  0  0  0  0  0  0  0  0  0
  183.1960  178.8260  142.1360 N   0  0  0  0  0  2  0  0  0  0  0  0
  184.3970  178.7770  145.6650 C   0  0  0  0  0  3  0  0  0  0  0  0
  185.3770  178.1630  143.1130 C   0  0  0  0  0  3  0  0  0  0  0  0
  187.8350  177.6630  146.4900 C   0  0  0  0  0  0  0  0  0  0  0  0
  186.5220  178.1360  146.6370 C   0  0  0  0  0  3  0  0  0  0  0  0
  185.7030  178.3050  145.5180 C   0  0  0  0  0  0  0  0  0  0  0  0
  187.5020  177.5240  144.0830 C   0  0  0  0  0  3  0  0  0  0  0  0
  186.1970  177.9950  144.2320 C   0  0  0  0  0  0  0  0  0  0  0  0
  188.3170  177.3590  145.2070 C   0  0  0  0  0  3  0  0  0  0  0  0
  184.0630  178.6370  143.2610 C   0  0  0  0  0  0  0  0  0  0  0  0
  183.5830  178.9410  144.5400 C   0  0  0  0  0  3  0  0  0  0  0  0
  188.6780  177.4880  147.6360 N   0  0  0  0  0  0  0  0  0  0  0  0
  188.1870  177.7180  148.9010 O   0  0  0  0  0  0  0  0  0  0  0  0
  189.8660  177.1290  147.5010 O   0  0  0  0  0  0  0  0  0  0  0  0
  1  8  1  0  0  0  0
  1 18  1  1  0  0  0
  2  6  1  0  0  0  0
  2  4  2  0  0  0  0
  4  5  1  0  0  0  0
  5  3  1  6  0  0  0
  5  1  1  0  0  0  0
  6  8  1  0  0  0  0
  8  7  1  6  0  0  0
  9 10  1  0  0  0  0
 10  4  1  0  0  0  0
 11  6  1  0  0  0  0
 12 13  1  6  0  0  0
 12 14  1  0  0  0  0
 12 11  1  0  0  0  0
 14 15  1  0  0  0  0
 14 16  1  0  0  0  0
 17 14  1  0  0  0  0
 18 19  1  0  0  0  0
 19 21  1  0  0  0  0
 19 20  2  0  0  0  0
 21 30  1  0  0  0  0
 23 30  2  0  0  0  0
 23 28  1  0  0  0  0
 24 25  1  0  0  0  0
 24 32  1  0  0  0  0
 26 22  1  0  0  0  0
 26 25  2  0  0  0  0
 27 28  2  0  0  0  0
 27 29  1  0  0  0  0
 28 26  1  0  0  0  0
 29 24  2  0  0  0  0
 30 31  1  0  0  0  0
 31 22  2  0  0  0  0
 32 33  2  0  0  0  0
 34 32  2  0  0  0  0
M  END
>  <MODEL>
7

>  <REMARK>
 VINA RESULT:      -7.5      1.698      3.016
  Name = 
  8 active torsions:
  status: ('A' for Active; 'I' for Inactive)
    1  A    between atoms: C_1  and  C_9
    2  A    between atoms: C_2  and  C_23
    3  A    between atoms: C_2  and  N_32
    4  A    between atoms: C_3  and  C_23
    5  A    between atoms: C_7  and  N_11
    6  A    between atoms: C_8  and  C_9
    7  A    between atoms: N_18  and  C_30
    8  A    between atoms: C_19  and  O_22
                            x       y       z     vdW  Elec       q    Type
                         _______ _______ _______ _____ _____    ______ ____

>  <TORSDO>
F 8

$$$$
=
 OpenBabel10272415253D

 34 36  0  0  1  0  0  0  0  0999 V2000
  184.5960  177.8920  137.7260 C   0  0  1  0  0  3  0  0  0  0  0  0
  185.5140  175.2560  137.0290 C   0  0  0  0  0  3  0  0  0  0  0  0
  186.5950  178.6050  136.4350 C   0  0  0  0  0  1  0  0  0  0  0  0
  186.4440  176.2100  137.0760 C   0  0  0  0  0  0  0  0  0  0  0  0
  186.0990  177.6310  137.4940 C   0  0  2  0  0  3  0  0  0  0  0  0
  184.1660  175.4950  137.4400 N   0  0  0  0  0  0  0  0  0  0  0  0
  182.4850  176.9110  138.2700 O   0  0  0  0  0  1  0  0  0  0  0  0
  183.8630  176.6660  138.2640 C   0  0  2  0  0  3  0  0  0  0  0  0
  188.8420  175.9750  137.6630 C   0  0  0  0  0  1  0  0  0  0  0  0
  187.7550  175.8390  136.7580 O   0  0  0  0  0  0  0  0  0  0  0  0
  183.2060  174.4060  137.3050 C   0  0  0  0  0  2  0  0  0  0  0  0
  183.7120  173.3570  136.3190 C   0  0  2  0  0  3  0  0  0  0  0  0
  182.7190  173.0690  135.3800 O   0  0  0  0  0  1  0  0  0  0  0  0
  184.1320  172.0820  137.0450 C   0  0  0  0  0  0  0  0  0  0  0  0
  183.0100  171.3820  137.4490 F   0  0  0  0  0  0  0  0  0  0  0  0
  184.8750  172.4140  138.1630 F   0  0  0  0  0  0  0  0  0  0  0  0
  184.8960  171.2830  136.2140 F   0  0  0  0  0  0  0  0  0  0  0  0
  184.4080  179.0530  138.6980 C   0  0  0  0  0  2  0  0  0  0  0  0
  185.1940  178.8440  139.9460 C   0  0  0  0  0  0  0  0  0  0  0  0
  186.4520  178.8650  139.8930 O   0  0  0  0  0  0  0  0  0  0  0  0
  184.5050  178.6250  141.1850 N   0  0  0  0  0  2  0  0  0  0  0  0
  184.9020  178.6600  144.8910 C   0  0  0  0  0  3  0  0  0  0  0  0
  186.4010  177.9500  142.6340 C   0  0  0  0  0  3  0  0  0  0  0  0
  188.0460  177.5050  146.4800 C   0  0  0  0  0  0  0  0  0  0  0  0
  186.7450  178.0080  146.3230 C   0  0  0  0  0  3  0  0  0  0  0  0
  186.1960  178.1580  145.0470 C   0  0  0  0  0  0  0  0  0  0  0  0
  188.2450  177.2990  144.0630 C   0  0  0  0  0  3  0  0  0  0  0  0
  186.9510  177.8000  143.9090 C   0  0  0  0  0  0  0  0  0  0  0  0
  188.7900  177.1530  145.3430 C   0  0  0  0  0  3  0  0  0  0  0  0
  185.1000  178.4530  142.4770 C   0  0  0  0  0  0  0  0  0  0  0  0
  184.3580  178.8060  143.6110 C   0  0  0  0  0  3  0  0  0  0  0  0
  188.6120  177.3490  147.7880 N   0  0  0  0  0  0  0  0  0  0  0  0
  189.9770  177.3530  147.9580 O   0  0  0  0  0  0  0  0  0  0  0  0
  187.8750  177.2070  148.7860 O   0  0  0  0  0  0  0  0  0  0  0  0
  1  8  1  0  0  0  0
  1 18  1  1  0  0  0
  2  4  2  0  0  0  0
  2  6  1  0  0  0  0
  4  5  1  0  0  0  0
  5  3  1  6  0  0  0
  5  1  1  0  0  0  0
  6  8  1  0  0  0  0
  8  7  1  6  0  0  0
 10  4  1  0  0  0  0
 10  9  1  0  0  0  0
 11  6  1  0  0  0  0
 12 13  1  6  0  0  0
 12 14  1  0  0  0  0
 12 11  1  0  0  0  0
 14 15  1  0  0  0  0
 14 16  1  0  0  0  0
 17 14  1  0  0  0  0
 18 19  1  0  0  0  0
 19 21  1  0  0  0  0
 20 19  2  0  0  0  0
 21 30  1  0  0  0  0
 22 26  1  0  0  0  0
 23 28  1  0  0  0  0
 24 32  1  0  0  0  0
 25 24  1  0  0  0  0
 26 25  2  0  0  0  0
 27 29  1  0  0  0  0
 28 27  2  0  0  0  0
 28 26  1  0  0  0  0
 29 24  2  0  0  0  0
 30 23  2  0  0  0  0
 30 31  1  0  0  0  0
 31 22  2  0  0  0  0
 32 33  2  0  0  0  0
 32 34  2  0  0  0  0
M  END
>  <MODEL>
8

>  <REMARK>
 VINA RESULT:      -7.5      1.470      2.970
  Name = 
  8 active torsions:
  status: ('A' for Active; 'I' for Inactive)
    1  A    between atoms: C_1  and  C_9
    2  A    between atoms: C_2  and  C_23
    3  A    between atoms: C_2  and  N_32
    4  A    between atoms: C_3  and  C_23
    5  A    between atoms: C_7  and  N_11
    6  A    between atoms: C_8  and  C_9
    7  A    between atoms: N_18  and  C_30
    8  A    between atoms: C_19  and  O_22
                            x       y       z     vdW  Elec       q    Type
                         _______ _______ _______ _____ _____    ______ ____

>  <TORSDO>
F 8

$$$$
=
 OpenBabel10272415253D

 34 36  0  0  1  0  0  0  0  0999 V2000
  184.3390  177.8960  139.6320 C   0  0  1  0  0  3  0  0  0  0  0  0
  184.2250  177.0360  136.8890 C   0  0  0  0  0  3  0  0  0  0  0  0
  182.4780  176.2740  139.9060 C   0  0  0  0  0  1  0  0  0  0  0  0
  183.0970  176.9220  137.5900 C   0  0  0  0  0  0  0  0  0  0  0  0
  183.0080  177.4000  139.0310 C   0  0  2  0  0  3  0  0  0  0  0  0
  185.3840  177.6810  137.4250 N   0  0  0  0  0  0  0  0  0  0  0  0
  186.5010  178.8020  139.1610 O   0  0  0  0  0  1  0  0  0  0  0  0
  185.2460  178.5510  138.5940 C   0  0  2  0  0  3  0  0  0  0  0  0
  181.5710  176.7900  135.6390 C   0  0  0  0  0  1  0  0  0  0  0  0
  181.9900  176.3750  136.9310 O   0  0  0  0  0  0  0  0  0  0  0  0
  186.5890  177.7140  136.6040 C   0  0  0  0  0  2  0  0  0  0  0  0
  187.3240  176.3780  136.6690 C   0  0  2  0  0  3  0  0  0  0  0  0
  188.0400  176.2880  137.8650 O   0  0  0  0  0  1  0  0  0  0  0  0
  188.2680  176.2160  135.4820 C   0  0  0  0  0  0  0  0  0  0  0  0
  187.6360  175.5120  134.4730 F   0  0  0  0  0  0  0  0  0  0  0  0
  189.3910  175.5120  135.8800 F   0  0  0  0  0  0  0  0  0  0  0  0
  188.6570  177.4540  135.0020 F   0  0  0  0  0  0  0  0  0  0  0  0
  184.0700  178.8910  140.7570 C   0  0  0  0  0  2  0  0  0  0  0  0
  185.1820  178.8970  141.7480 C   0  0  0  0  0  0  0  0  0  0  0  0
  185.8500  179.9510  141.9190 O   0  0  0  0  0  0  0  0  0  0  0  0
  185.4690  177.7050  142.4920 N   0  0  0  0  0  2  0  0  0  0  0  0
  187.0370  177.5970  145.8720 C   0  0  0  0  0  3  0  0  0  0  0  0
  187.7960  177.2240  143.2020 C   0  0  0  0  0  3  0  0  0  0  0  0
  190.6370  176.8080  146.2760 C   0  0  0  0  0  0  0  0  0  0  0  0
  189.3070  177.1330  146.5840 C   0  0  0  0  0  3  0  0  0  0  0  0
  188.3610  177.2730  145.5660 C   0  0  0  0  0  0  0  0  0  0  0  0
  190.0660  176.7620  143.9110 C   0  0  0  0  0  3  0  0  0  0  0  0
  188.7430  177.0850  144.2190 C   0  0  0  0  0  0  0  0  0  0  0  0
  191.0080  176.6240  144.9350 C   0  0  0  0  0  3  0  0  0  0  0  0
  186.4660  177.5490  143.5100 C   0  0  0  0  0  0  0  0  0  0  0  0
  186.0960  177.7340  144.8480 C   0  0  0  0  0  3  0  0  0  0  0  0
  191.6100  176.6640  147.3190 N   0  0  0  0  0  0  0  0  0  0  0  0
  191.7400  177.6330  148.2860 O   0  0  0  0  0  0  0  0  0  0  0  0
  192.3520  175.6600  147.3590 O   0  0  0  0  0  0  0  0  0  0  0  0
  1 18  1  1  0  0  0
  2  6  1  0  0  0  0
  2  4  2  0  0  0  0
  4  5  1  0  0  0  0
  5  1  1  0  0  0  0
  5  3  1  1  0  0  0
  6  8  1  0  0  0  0
  8  7  1  1  0  0  0
  8  1  1  0  0  0  0
  9 10  1  0  0  0  0
 10  4  1  0  0  0  0
 11 12  1  0  0  0  0
 11  6  1  0  0  0  0
 12 13  1  1  0  0  0
 14 16  1  0  0  0  0
 14 12  1  0  0  0  0
 15 14  1  0  0  0  0
 17 14  1  0  0  0  0
 18 19  1  0  0  0  0
 19 20  2  0  0  0  0
 19 21  1  0  0  0  0
 21 30  1  0  0  0  0
 23 30  2  0  0  0  0
 23 28  1  0  0  0  0
 24 25  1  0  0  0  0
 24 32  1  0  0  0  0
 26 22  1  0  0  0  0
 26 25  2  0  0  0  0
 27 28  2  0  0  0  0
 27 29  1  0  0  0  0
 28 26  1  0  0  0  0
 29 24  2  0  0  0  0
 30 31  1  0  0  0  0
 31 22  2  0  0  0  0
 32 34  2  0  0  0  0
 32 33  2  0  0  0  0
M  END
>  <MODEL>
9

>  <REMARK>
 VINA RESULT:      -7.5      2.229      2.758
  Name = 
  8 active torsions:
  status: ('A' for Active; 'I' for Inactive)
    1  A    between atoms: C_1  and  C_9
    2  A    between atoms: C_2  and  C_23
    3  A    between atoms: C_2  and  N_32
    4  A    between atoms: C_3  and  C_23
    5  A    between atoms: C_7  and  N_11
    6  A    between atoms: C_8  and  C_9
    7  A    between atoms: N_18  and  C_30
    8  A    between atoms: C_19  and  O_22
                            x       y       z     vdW  Elec       q    Type
                         _______ _______ _______ _____ _____    ______ ____

>  <TORSDO>
F 8

$$$$
