=
 OpenBabel10272401543D

 28 31  0  0  1  0  0  0  0  0999 V2000
  187.1310  177.7900  145.4900 C   0  0  0  0  0  0  0  0  0  0  0  0
  182.9290  178.5350  143.2090 C   0  0  0  0  0  1  0  0  0  0  0  0
  186.5210  178.7940  141.9010 C   0  0  2  0  0  3  0  0  0  0  0  0
  184.4920  179.4620  140.8300 F   0  0  0  0  0  0  0  0  0  0  0  0
  185.1290  178.6360  144.4000 C   0  0  0  0  0  0  0  0  0  0  0  0
  187.0700  177.8550  142.9680 C   0  0  0  0  0  2  0  0  0  0  0  0
  185.3050  178.5450  146.8100 C   0  0  0  0  0  3  0  0  0  0  0  0
  184.3530  179.0690  143.1730 C   0  0  1  0  0  3  0  0  0  0  0  0
  184.5790  178.8700  145.6660 C   0  0  0  0  0  3  0  0  0  0  0  0
  185.0000  178.6660  141.8430 C   0  0  2  0  0  3  0  0  0  0  0  0
  186.5500  178.0150  146.7000 N   0  0  0  0  0  0  0  0  0  0  0  0
  186.4400  178.1170  144.3080 C   0  0  0  0  0  0  0  0  0  0  0  0
  189.3720  178.0640  144.7060 O   0  0  0  0  0  0  0  0  0  0  0  0
  188.5120  177.2150  145.4350 C   0  0  1  0  0  3  0  0  0  0  0  0
  190.5550  177.3580  144.3540 C   0  0  0  0  0  0  0  0  0  0  0  0
  190.5870  176.9990  146.8570 C   0  0  0  0  0  2  0  0  0  0  0  0
  191.1490  176.5340  145.5160 C   0  0  0  0  0  2  0  0  0  0  0  0
  189.0590  176.9610  146.8450 C   0  0  0  0  0  2  0  0  0  0  0  0
  190.2870  176.4390  143.1730 C   0  0  0  0  0  1  0  0  0  0  0  0
  191.5960  178.3720  143.9250 C   0  0  0  0  0  1  0  0  0  0  0  0
  186.3770  178.1940  139.4520 C   0  0  0  0  0  3  0  0  0  0  0  0
  188.5590  178.5310  140.4530 C   0  0  0  0  0  0  0  0  0  0  0  0
  188.3730  177.9520  138.1070 C   0  0  0  0  0  0  0  0  0  0  0  0
  187.1610  178.5020  140.5750 C   0  0  0  0  0  0  0  0  0  0  0  0
  189.1610  178.2570  139.2200 C   0  0  0  0  0  3  0  0  0  0  0  0
  189.3390  178.8240  141.5240 F   0  0  0  0  0  0  0  0  0  0  0  0
  188.9600  177.6870  136.9160 F   0  0  0  0  0  0  0  0  0  0  0  0
  186.9810  177.9200  138.2230 C   0  0  0  0  0  3  0  0  0  0  0  0
  1 11  1  0  0  0  0
  3 24  1  6  0  0  0
  3  6  1  0  0  0  0
  5  9  2  0  0  0  0
  6 12  1  0  0  0  0
  8  2  1  1  0  0  0
  8  5  1  0  0  0  0
  9  7  1  0  0  0  0
 10  4  1  6  0  0  0
 10  3  1  0  0  0  0
 10  8  1  0  0  0  0
 11  7  2  0  0  0  0
 12  5  1  0  0  0  0
 12  1  2  0  0  0  0
 13 14  1  0  0  0  0
 14  1  1  1  0  0  0
 14 18  1  0  0  0  0
 15 13  1  0  0  0  0
 15 17  1  0  0  0  0
 17 16  1  0  0  0  0
 18 16  1  0  0  0  0
 19 15  1  0  0  0  0
 20 15  1  0  0  0  0
 21 24  1  0  0  0  0
 22 24  2  0  0  0  0
 22 26  1  0  0  0  0
 23 28  1  0  0  0  0
 23 25  2  0  0  0  0
 25 22  1  0  0  0  0
 27 23  1  0  0  0  0
 28 21  2  0  0  0  0
M  END
>  <MODEL>
1

>  <REMARK>
 VINA RESULT:     -10.6      0.000      0.000
  Name = 
  2 active torsions:
  status: ('A' for Active; 'I' for Inactive)
    1  A    between atoms: C_1  and  C_3
    2  A    between atoms: C_10  and  C_13
                            x       y       z     vdW  Elec       q    Type
                         _______ _______ _______ _____ _____    ______ ____

>  <TORSDO>
F 2

$$$$
=
 OpenBabel10272401543D

 28 31  0  0  1  0  0  0  0  0999 V2000
  186.5930  178.1310  142.6600 C   0  0  0  0  0  0  0  0  0  0  0  0
  190.4040  176.5840  140.1100 C   0  0  0  0  0  1  0  0  0  0  0  0
  190.1160  177.4460  143.8320 C   0  0  2  0  0  3  0  0  0  0  0  0
  192.0820  176.9780  142.5560 F   0  0  0  0  0  0  0  0  0  0  0  0
  188.6500  177.8190  141.4000 C   0  0  0  0  0  0  0  0  0  0  0  0
  188.6120  177.2090  143.8600 C   0  0  0  0  0  2  0  0  0  0  0  0
  186.6590  178.7130  140.3560 C   0  0  0  0  0  3  0  0  0  0  0  0
  190.1240  177.4840  141.3040 C   0  0  1  0  0  3  0  0  0  0  0  0
  187.9960  178.3310  140.2720 C   0  0  0  0  0  3  0  0  0  0  0  0
  190.7050  176.8320  142.5630 C   0  0  2  0  0  3  0  0  0  0  0  0
  185.9920  178.6040  141.5340 N   0  0  0  0  0  0  0  0  0  0  0  0
  187.9470  177.7470  142.6240 C   0  0  0  0  0  0  0  0  0  0  0  0
  186.3810  178.8690  144.9230 O   0  0  0  0  0  0  0  0  0  0  0  0
  185.8070  178.0460  143.9300 C   0  0  1  0  0  3  0  0  0  0  0  0
  185.8620  178.5140  146.1980 C   0  0  0  0  0  0  0  0  0  0  0  0
  183.6930  178.9510  144.9740 C   0  0  0  0  0  2  0  0  0  0  0  0
  184.3320  178.3150  146.2050 C   0  0  0  0  0  2  0  0  0  0  0  0
  184.3380  178.4170  143.6940 C   0  0  0  0  0  2  0  0  0  0  0  0
  186.5350  177.2490  146.7060 C   0  0  0  0  0  1  0  0  0  0  0  0
  186.1890  179.6320  147.1650 C   0  0  0  0  0  1  0  0  0  0  0  0
  191.7060  175.8620  144.9920 C   0  0  0  0  0  3  0  0  0  0  0  0
  190.3880  177.3960  146.3310 C   0  0  0  0  0  0  0  0  0  0  0  0
  191.9240  175.8570  147.4020 C   0  0  0  0  0  0  0  0  0  0  0  0
  190.7520  176.8900  145.0720 C   0  0  0  0  0  0  0  0  0  0  0  0
  190.9750  176.8790  147.4900 C   0  0  0  0  0  3  0  0  0  0  0  0
  189.4680  178.3860  146.4360 F   0  0  0  0  0  0  0  0  0  0  0  0
  192.4900  175.3600  148.5270 F   0  0  0  0  0  0  0  0  0  0  0  0
  192.2900  175.3480  146.1520 C   0  0  0  0  0  3  0  0  0  0  0  0
  3  6  1  0  0  0  0
  3 24  1  1  0  0  0
  5 12  2  0  0  0  0
  7 11  1  0  0  0  0
  8  2  1  6  0  0  0
  8  5  1  0  0  0  0
  8 10  1  0  0  0  0
  9  7  2  0  0  0  0
  9  5  1  0  0  0  0
 10  4  1  1  0  0  0
 10  3  1  0  0  0  0
 11  1  2  0  0  0  0
 12  1  1  0  0  0  0
 12  6  1  0  0  0  0
 13 15  1  0  0  0  0
 14  1  1  6  0  0  0
 14 13  1  0  0  0  0
 15 17  1  0  0  0  0
 15 19  1  0  0  0  0
 15 20  1  0  0  0  0
 16 17  1  0  0  0  0
 18 14  1  0  0  0  0
 18 16  1  0  0  0  0
 21 24  2  0  0  0  0
 21 28  1  0  0  0  0
 22 26  1  0  0  0  0
 22 25  2  0  0  0  0
 23 25  1  0  0  0  0
 23 27  1  0  0  0  0
 24 22  1  0  0  0  0
 28 23  2  0  0  0  0
M  END
>  <MODEL>
2

>  <REMARK>
 VINA RESULT:     -10.6      2.576      6.620
  Name = 
  2 active torsions:
  status: ('A' for Active; 'I' for Inactive)
    1  A    between atoms: C_1  and  C_3
    2  A    between atoms: C_10  and  C_13
                            x       y       z     vdW  Elec       q    Type
                         _______ _______ _______ _____ _____    ______ ____

>  <TORSDO>
F 2

$$$$
=
 OpenBabel10272401543D

 28 31  0  0  1  0  0  0  0  0999 V2000
  186.6200  178.4740  141.0240 C   0  0  0  0  0  0  0  0  0  0  0  0
  182.7960  179.7340  143.7090 C   0  0  0  0  0  1  0  0  0  0  0  0
  186.0290  177.9420  144.7160 C   0  0  2  0  0  3  0  0  0  0  0  0
  184.0430  178.2740  146.0040 F   0  0  0  0  0  0  0  0  0  0  0  0
  184.5820  178.6350  142.3420 C   0  0  0  0  0  0  0  0  0  0  0  0
  186.8130  178.5100  143.5400 C   0  0  0  0  0  2  0  0  0  0  0  0
  184.5140  178.5720  139.9250 C   0  0  0  0  0  3  0  0  0  0  0  0
  183.8340  178.6240  143.6600 C   0  0  1  0  0  3  0  0  0  0  0  0
  183.8500  178.6350  141.1480 C   0  0  0  0  0  3  0  0  0  0  0  0
  184.7340  178.7340  144.8960 C   0  0  2  0  0  3  0  0  0  0  0  0
  185.8690  178.4970  139.8890 N   0  0  0  0  0  0  0  0  0  0  0  0
  185.9890  178.5200  142.2830 C   0  0  0  0  0  0  0  0  0  0  0  0
  188.5880  177.2790  141.6660 O   0  0  0  0  0  0  0  0  0  0  0  0
  188.1090  178.3770  140.9180 C   0  0  1  0  0  3  0  0  0  0  0  0
  189.9910  177.4060  141.8550 C   0  0  0  0  0  0  0  0  0  0  0  0
  189.8970  177.5610  139.3330 C   0  0  0  0  0  2  0  0  0  0  0  0
  190.7510  177.8080  140.5730 C   0  0  0  0  0  2  0  0  0  0  0  0
  188.5500  178.2750  139.4530 C   0  0  0  0  0  2  0  0  0  0  0  0
  190.2850  178.4180  142.9510 C   0  0  0  0  0  1  0  0  0  0  0  0
  190.5260  176.0630  142.3100 C   0  0  0  0  0  1  0  0  0  0  0  0
  186.4710  178.6790  147.0910 C   0  0  0  0  0  3  0  0  0  0  0  0
  188.0810  177.2410  145.9870 C   0  0  0  0  0  0  0  0  0  0  0  0
  188.4660  177.9740  148.2640 C   0  0  0  0  0  0  0  0  0  0  0  0
  186.8720  177.9550  145.9570 C   0  0  0  0  0  0  0  0  0  0  0  0
  188.8730  177.2520  147.1400 C   0  0  0  0  0  3  0  0  0  0  0  0
  188.4920  176.5350  144.9040 F   0  0  0  0  0  0  0  0  0  0  0  0
  189.2350  177.9820  149.3790 F   0  0  0  0  0  0  0  0  0  0  0  0
  187.2650  178.6880  148.2400 C   0  0  0  0  0  3  0  0  0  0  0  0
  1 12  1  0  0  0  0
  3 10  1  0  0  0  0
  3 24  1  1  0  0  0
  5  8  1  0  0  0  0
  6  3  1  0  0  0  0
  7  9  2  0  0  0  0
  8  2  1  6  0  0  0
  8 10  1  0  0  0  0
  9  5  1  0  0  0  0
 10  4  1  1  0  0  0
 11  7  1  0  0  0  0
 11  1  2  0  0  0  0
 12  5  2  0  0  0  0
 12  6  1  0  0  0  0
 13 15  1  0  0  0  0
 14  1  1  6  0  0  0
 14 13  1  0  0  0  0
 15 20  1  0  0  0  0
 15 19  1  0  0  0  0
 16 18  1  0  0  0  0
 16 17  1  0  0  0  0
 17 15  1  0  0  0  0
 18 14  1  0  0  0  0
 21 28  1  0  0  0  0
 22 25  2  0  0  0  0
 23 27  1  0  0  0  0
 24 22  1  0  0  0  0
 24 21  2  0  0  0  0
 25 23  1  0  0  0  0
 26 22  1  0  0  0  0
 28 23  2  0  0  0  0
M  END
>  <MODEL>
3

>  <REMARK>
 VINA RESULT:     -10.4      2.701      5.823
  Name = 
  2 active torsions:
  status: ('A' for Active; 'I' for Inactive)
    1  A    between atoms: C_1  and  C_3
    2  A    between atoms: C_10  and  C_13
                            x       y       z     vdW  Elec       q    Type
                         _______ _______ _______ _____ _____    ______ ____

>  <TORSDO>
F 2

$$$$
=
 OpenBabel10272401543D

 28 31  0  0  1  0  0  0  0  0999 V2000
  184.7710  178.5730  144.5310 C   0  0  0  0  0  0  0  0  0  0  0  0
  189.1410  178.3150  146.5920 C   0  0  0  0  0  1  0  0  0  0  0  0
  188.0290  177.3710  143.0500 C   0  0  2  0  0  3  0  0  0  0  0  0
  190.1240  176.9460  144.1190 F   0  0  0  0  0  0  0  0  0  0  0  0
  186.8690  177.9670  145.6000 C   0  0  0  0  0  0  0  0  0  0  0  0
  186.8220  178.2990  143.0870 C   0  0  0  0  0  2  0  0  0  0  0  0
  184.8370  178.2380  146.8840 C   0  0  0  0  0  3  0  0  0  0  0  0
  188.3280  177.5580  145.5540 C   0  0  1  0  0  3  0  0  0  0  0  0
  186.1960  177.9350  146.8280 C   0  0  0  0  0  3  0  0  0  0  0  0
  188.9880  177.7360  144.1820 C   0  0  2  0  0  3  0  0  0  0  0  0
  184.1610  178.5490  145.7480 N   0  0  0  0  0  0  0  0  0  0  0  0
  186.1400  178.2590  144.4260 C   0  0  0  0  0  0  0  0  0  0  0  0
  184.0340  177.8640  142.3710 O   0  0  0  0  0  0  0  0  0  0  0  0
  183.9680  178.9120  143.3150 C   0  0  1  0  0  3  0  0  0  0  0  0
  183.5850  178.3320  141.1060 C   0  0  0  0  0  0  0  0  0  0  0  0
  181.5740  178.9450  142.5110 C   0  0  0  0  0  2  0  0  0  0  0  0
  182.2910  179.1700  141.1830 C   0  0  0  0  0  2  0  0  0  0  0  0
  182.5130  179.2240  143.6860 C   0  0  0  0  0  2  0  0  0  0  0  0
  184.6740  179.1520  140.4320 C   0  0  0  0  0  1  0  0  0  0  0  0
  183.3060  177.1270  140.2320 C   0  0  0  0  0  1  0  0  0  0  0  0
  188.3110  178.4060  140.7630 C   0  0  0  0  0  3  0  0  0  0  0  0
  189.7100  176.5250  141.3820 C   0  0  0  0  0  0  0  0  0  0  0  0
  189.9440  177.5480  139.1980 C   0  0  0  0  0  0  0  0  0  0  0  0
  188.6950  177.4400  141.7060 C   0  0  0  0  0  0  0  0  0  0  0  0
  190.3310  176.5820  140.1310 C   0  0  0  0  0  3  0  0  0  0  0  0
  190.0970  175.5800  142.2750 F   0  0  0  0  0  0  0  0  0  0  0  0
  190.5480  177.5990  137.9870 F   0  0  0  0  0  0  0  0  0  0  0  0
  188.9330  178.4600  139.5140 C   0  0  0  0  0  3  0  0  0  0  0  0
  1 11  1  0  0  0  0
  3 24  1  6  0  0  0
  3  6  1  0  0  0  0
  3 10  1  0  0  0  0
  5  9  2  0  0  0  0
  6 12  1  0  0  0  0
  8  5  1  0  0  0  0
  8  2  1  1  0  0  0
  9  7  1  0  0  0  0
 10  4  1  1  0  0  0
 10  8  1  0  0  0  0
 11  7  2  0  0  0  0
 12  1  2  0  0  0  0
 12  5  1  0  0  0  0
 13 14  1  0  0  0  0
 14 18  1  0  0  0  0
 14  1  1  1  0  0  0
 15 17  1  0  0  0  0
 15 13  1  0  0  0  0
 16 18  1  0  0  0  0
 17 16  1  0  0  0  0
 19 15  1  0  0  0  0
 20 15  1  0  0  0  0
 21 24  1  0  0  0  0
 22 24  2  0  0  0  0
 22 26  1  0  0  0  0
 23 28  1  0  0  0  0
 23 25  2  0  0  0  0
 25 22  1  0  0  0  0
 27 23  1  0  0  0  0
 28 21  2  0  0  0  0
M  END
>  <MODEL>
4

>  <REMARK>
 VINA RESULT:      -9.7      2.340      5.140
  Name = 
  2 active torsions:
  status: ('A' for Active; 'I' for Inactive)
    1  A    between atoms: C_1  and  C_3
    2  A    between atoms: C_10  and  C_13
                            x       y       z     vdW  Elec       q    Type
                         _______ _______ _______ _____ _____    ______ ____

>  <TORSDO>
F 2

$$$$
=
 OpenBabel10272401543D

 28 31  0  0  1  0  0  0  0  0999 V2000
  188.0320  178.0660  139.3910 C   0  0  0  0  0  0  0  0  0  0  0  0
  183.4760  179.6960  139.4620 C   0  0  0  0  0  1  0  0  0  0  0  0
  185.5410  178.0350  142.2290 C   0  0  2  0  0  3  0  0  0  0  0  0
  183.2070  178.5470  142.2130 F   0  0  0  0  0  0  0  0  0  0  0  0
  185.6250  178.4130  139.3900 C   0  0  0  0  0  0  0  0  0  0  0  0
  186.8690  178.4370  141.6000 C   0  0  0  0  0  2  0  0  0  0  0  0
  186.8400  178.0300  137.3350 C   0  0  0  0  0  3  0  0  0  0  0  0
  184.2960  178.5830  140.0980 C   0  0  1  0  0  3  0  0  0  0  0  0
  185.6370  178.2590  137.9990 C   0  0  0  0  0  3  0  0  0  0  0  0
  184.4120  178.8510  141.6020 C   0  0  2  0  0  3  0  0  0  0  0  0
  187.9990  177.9420  138.0360 N   0  0  0  0  0  0  0  0  0  0  0  0
  186.8370  178.2830  140.1040 C   0  0  0  0  0  0  0  0  0  0  0  0
  189.2700  176.9480  141.1020 O   0  0  0  0  0  0  0  0  0  0  0  0
  189.3400  177.9470  140.1070 C   0  0  1  0  0  3  0  0  0  0  0  0
  190.3650  177.0880  141.9980 C   0  0  0  0  0  0  0  0  0  0  0  0
  191.6320  176.9280  139.8150 C   0  0  0  0  0  2  0  0  0  0  0  0
  191.7150  177.3220  141.2870 C   0  0  0  0  0  2  0  0  0  0  0  0
  190.4820  177.6610  139.1240 C   0  0  0  0  0  2  0  0  0  0  0  0
  190.1060  178.2260  142.9710 C   0  0  0  0  0  1  0  0  0  0  0  0
  190.4790  175.8090  142.8020 C   0  0  0  0  0  1  0  0  0  0  0  0
  184.7570  179.1230  144.3690 C   0  0  0  0  0  3  0  0  0  0  0  0
  186.5110  177.4520  144.4740 C   0  0  0  0  0  0  0  0  0  0  0  0
  185.7290  178.5230  146.5020 C   0  0  0  0  0  0  0  0  0  0  0  0
  185.6000  178.2080  143.7180 C   0  0  0  0  0  0  0  0  0  0  0  0
  186.5720  177.6120  145.8620 C   0  0  0  0  0  3  0  0  0  0  0  0
  187.3380  176.5630  143.8690 F   0  0  0  0  0  0  0  0  0  0  0  0
  185.7920  178.6750  147.8460 F   0  0  0  0  0  0  0  0  0  0  0  0
  184.8210  179.2800  145.7550 C   0  0  0  0  0  3  0  0  0  0  0  0
  1 12  1  0  0  0  0
  3 24  1  1  0  0  0
  5  8  1  0  0  0  0
  5 12  2  0  0  0  0
  6  3  1  0  0  0  0
  7  9  2  0  0  0  0
  7 11  1  0  0  0  0
  8  2  1  6  0  0  0
  8 10  1  0  0  0  0
  9  5  1  0  0  0  0
 10  4  1  1  0  0  0
 10  3  1  0  0  0  0
 11  1  2  0  0  0  0
 12  6  1  0  0  0  0
 13 15  1  0  0  0  0
 14  1  1  6  0  0  0
 14 13  1  0  0  0  0
 15 20  1  0  0  0  0
 15 19  1  0  0  0  0
 16 17  1  0  0  0  0
 17 15  1  0  0  0  0
 18 16  1  0  0  0  0
 18 14  1  0  0  0  0
 21 28  1  0  0  0  0
 22 25  2  0  0  0  0
 23 27  1  0  0  0  0
 24 21  2  0  0  0  0
 24 22  1  0  0  0  0
 25 23  1  0  0  0  0
 26 22  1  0  0  0  0
 28 23  2  0  0  0  0
M  END
>  <MODEL>
5

>  <REMARK>
 VINA RESULT:      -9.6      2.822      5.787
  Name = 
  2 active torsions:
  status: ('A' for Active; 'I' for Inactive)
    1  A    between atoms: C_1  and  C_3
    2  A    between atoms: C_10  and  C_13
                            x       y       z     vdW  Elec       q    Type
                         _______ _______ _______ _____ _____    ______ ____

>  <TORSDO>
F 2

$$$$
=
 OpenBabel10272401543D

 28 31  0  0  1  0  0  0  0  0999 V2000
  186.9160  178.4180  139.9220 C   0  0  0  0  0  0  0  0  0  0  0  0
  184.5820  179.3380  144.0600 C   0  0  0  0  0  1  0  0  0  0  0  0
  187.7400  177.2640  143.4220 C   0  0  2  0  0  3  0  0  0  0  0  0
  186.4520  177.4440  145.4280 F   0  0  0  0  0  0  0  0  0  0  0  0
  185.5740  178.4260  141.9500 C   0  0  0  0  0  0  0  0  0  0  0  0
  188.0670  178.0000  142.1290 C   0  0  0  0  0  2  0  0  0  0  0  0
  184.5740  178.7970  139.7800 C   0  0  0  0  0  3  0  0  0  0  0  0
  185.3960  178.2120  143.4400 C   0  0  1  0  0  3  0  0  0  0  0  0
  184.4440  178.6680  141.1600 C   0  0  0  0  0  3  0  0  0  0  0  0
  186.7080  178.0650  144.2170 C   0  0  2  0  0  3  0  0  0  0  0  0
  185.7940  178.6730  139.1960 N   0  0  0  0  0  0  0  0  0  0  0  0
  186.8280  178.2660  141.3200 C   0  0  0  0  0  0  0  0  0  0  0  0
  188.6200  176.9250  139.1600 O   0  0  0  0  0  0  0  0  0  0  0  0
  188.2300  178.2810  139.2190 C   0  0  1  0  0  3  0  0  0  0  0  0
  190.0000  176.8390  138.8280 C   0  0  0  0  0  0  0  0  0  0  0  0
  189.1910  178.2400  136.8840 C   0  0  0  0  0  2  0  0  0  0  0  0
  190.4130  177.7720  137.6700 C   0  0  0  0  0  2  0  0  0  0  0  0
  188.1690  178.8940  137.8140 C   0  0  0  0  0  2  0  0  0  0  0  0
  190.8550  177.1430  140.0470 C   0  0  0  0  0  1  0  0  0  0  0  0
  190.2910  175.4140  138.4030 C   0  0  0  0  0  1  0  0  0  0  0  0
  189.1750  177.6170  145.4710 C   0  0  0  0  0  3  0  0  0  0  0  0
  190.0000  176.1960  143.6880 C   0  0  0  0  0  0  0  0  0  0  0  0
  191.3440  176.5640  145.6700 C   0  0  0  0  0  0  0  0  0  0  0  0
  188.9930  177.0220  144.2120 C   0  0  0  0  0  0  0  0  0  0  0  0
  191.1710  175.9690  144.4180 C   0  0  0  0  0  3  0  0  0  0  0  0
  189.8500  175.6110  142.4730 F   0  0  0  0  0  0  0  0  0  0  0  0
  192.4790  176.3420  146.3740 F   0  0  0  0  0  0  0  0  0  0  0  0
  190.3460  177.3890  146.1970 C   0  0  0  0  0  3  0  0  0  0  0  0
  1 12  1  0  0  0  0
  3 24  1  1  0  0  0
  3 10  1  0  0  0  0
  5  8  1  0  0  0  0
  6  3  1  0  0  0  0
  7  9  2  0  0  0  0
  8  2  1  1  0  0  0
  8 10  1  0  0  0  0
  9  5  1  0  0  0  0
 10  4  1  1  0  0  0
 11  7  1  0  0  0  0
 11  1  2  0  0  0  0
 12  5  2  0  0  0  0
 12  6  1  0  0  0  0
 13 14  1  0  0  0  0
 14  1  1  6  0  0  0
 15 13  1  0  0  0  0
 15 19  1  0  0  0  0
 16 17  1  0  0  0  0
 16 18  1  0  0  0  0
 17 15  1  0  0  0  0
 18 14  1  0  0  0  0
 20 15  1  0  0  0  0
 21 28  1  0  0  0  0
 22 24  1  0  0  0  0
 22 25  2  0  0  0  0
 23 28  2  0  0  0  0
 23 27  1  0  0  0  0
 24 21  2  0  0  0  0
 25 23  1  0  0  0  0
 26 22  1  0  0  0  0
M  END
>  <MODEL>
6

>  <REMARK>
 VINA RESULT:      -9.5      2.729      6.005
  Name = 
  2 active torsions:
  status: ('A' for Active; 'I' for Inactive)
    1  A    between atoms: C_1  and  C_3
    2  A    between atoms: C_10  and  C_13
                            x       y       z     vdW  Elec       q    Type
                         _______ _______ _______ _____ _____    ______ ____

>  <TORSDO>
F 2

$$$$
=
 OpenBabel10272401543D

 28 31  0  0  1  0  0  0  0  0999 V2000
  187.2330  178.0600  146.1140 C   0  0  0  0  0  0  0  0  0  0  0  0
  191.8860  176.9130  146.7810 C   0  0  0  0  0  1  0  0  0  0  0  0
  189.7450  176.7710  143.6070 C   0  0  2  0  0  3  0  0  0  0  0  0
  191.9480  175.9130  143.9610 F   0  0  0  0  0  0  0  0  0  0  0  0
  189.4090  177.0240  146.4400 C   0  0  0  0  0  0  0  0  0  0  0  0
  188.7600  177.8130  144.1200 C   0  0  0  0  0  2  0  0  0  0  0  0
  187.8570  177.2940  148.2760 C   0  0  0  0  0  3  0  0  0  0  0  0
  190.7160  176.4610  145.9210 C   0  0  1  0  0  3  0  0  0  0  0  0
  189.0850  176.8490  147.7910 C   0  0  0  0  0  3  0  0  0  0  0  0
  191.0140  176.8070  144.4580 C   0  0  2  0  0  3  0  0  0  0  0  0
  186.9680  177.8860  147.4380 N   0  0  0  0  0  0  0  0  0  0  0  0
  188.4550  177.6100  145.5780 C   0  0  0  0  0  0  0  0  0  0  0  0
  185.8990  177.8790  144.1390 O   0  0  0  0  0  0  0  0  0  0  0  0
  186.2060  178.7080  145.2390 C   0  0  1  0  0  3  0  0  0  0  0  0
  185.2180  178.6340  143.1460 C   0  0  0  0  0  0  0  0  0  0  0  0
  183.7140  179.1000  145.1260 C   0  0  0  0  0  2  0  0  0  0  0  0
  184.1050  179.5380  143.7170 C   0  0  0  0  0  2  0  0  0  0  0  0
  184.9420  179.0520  146.0360 C   0  0  0  0  0  2  0  0  0  0  0  0
  186.2040  179.4860  142.3650 C   0  0  0  0  0  1  0  0  0  0  0  0
  184.5750  177.6640  142.1770 C   0  0  0  0  0  1  0  0  0  0  0  0
  191.3570  177.1700  141.7030 C   0  0  0  0  0  3  0  0  0  0  0  0
  188.9810  177.0670  141.2300 C   0  0  0  0  0  0  0  0  0  0  0  0
  190.5630  177.4500  139.4350 C   0  0  0  0  0  0  0  0  0  0  0  0
  190.0380  177.0050  142.1540 C   0  0  0  0  0  0  0  0  0  0  0  0
  189.2470  177.2880  139.8750 C   0  0  0  0  0  3  0  0  0  0  0  0
  187.6970  176.9130  141.6400 F   0  0  0  0  0  0  0  0  0  0  0  0
  190.8160  177.6630  138.1220 F   0  0  0  0  0  0  0  0  0  0  0  0
  191.6190  177.3910  140.3490 C   0  0  0  0  0  3  0  0  0  0  0  0
  1 11  1  0  0  0  0
  3 24  1  6  0  0  0
  3  6  1  0  0  0  0
  3 10  1  0  0  0  0
  5  9  2  0  0  0  0
  6 12  1  0  0  0  0
  8  5  1  0  0  0  0
  8  2  1  1  0  0  0
  9  7  1  0  0  0  0
 10  4  1  6  0  0  0
 10  8  1  0  0  0  0
 11  7  2  0  0  0  0
 12  1  2  0  0  0  0
 12  5  1  0  0  0  0
 13 14  1  0  0  0  0
 14 18  1  0  0  0  0
 14  1  1  1  0  0  0
 15 17  1  0  0  0  0
 15 13  1  0  0  0  0
 16 18  1  0  0  0  0
 17 16  1  0  0  0  0
 19 15  1  0  0  0  0
 20 15  1  0  0  0  0
 21 24  1  0  0  0  0
 22 26  1  0  0  0  0
 22 24  2  0  0  0  0
 23 25  2  0  0  0  0
 23 28  1  0  0  0  0
 25 22  1  0  0  0  0
 27 23  1  0  0  0  0
 28 21  2  0  0  0  0
M  END
>  <MODEL>
7

>  <REMARK>
 VINA RESULT:      -9.4      1.817      5.106
  Name = 
  2 active torsions:
  status: ('A' for Active; 'I' for Inactive)
    1  A    between atoms: C_1  and  C_3
    2  A    between atoms: C_10  and  C_13
                            x       y       z     vdW  Elec       q    Type
                         _______ _______ _______ _____ _____    ______ ____

>  <TORSDO>
F 2

$$$$
=
 OpenBabel10272401543D

 28 31  0  0  1  0  0  0  0  0999 V2000
  183.0990  178.7820  142.0710 C   0  0  0  0  0  0  0  0  0  0  0  0
  185.6070  179.4080  146.1620 C   0  0  0  0  0  1  0  0  0  0  0  0
  186.6190  177.6890  142.8910 C   0  0  2  0  0  3  0  0  0  0  0  0
  187.7720  177.7100  144.9840 F   0  0  0  0  0  0  0  0  0  0  0  0
  184.2540  178.6270  144.2060 C   0  0  0  0  0  0  0  0  0  0  0  0
  185.6030  178.4670  142.0650 C   0  0  0  0  0  2  0  0  0  0  0  0
  181.8540  178.9100  144.0910 C   0  0  0  0  0  3  0  0  0  0  0  0
  185.4910  178.3810  145.0450 C   0  0  1  0  0  3  0  0  0  0  0  0
  183.0150  178.7550  144.8460 C   0  0  0  0  0  3  0  0  0  0  0  0
  186.8000  178.3670  144.2480 C   0  0  2  0  0  3  0  0  0  0  0  0
  181.9200  178.9230  142.7350 N   0  0  0  0  0  0  0  0  0  0  0  0
  184.2950  178.6080  142.7930 C   0  0  0  0  0  0  0  0  0  0  0  0
  183.3610  177.4980  140.0720 O   0  0  0  0  0  0  0  0  0  0  0  0
  183.1040  178.7920  140.5740 C   0  0  1  0  0  3  0  0  0  0  0  0
  183.7180  177.5810  138.6980 C   0  0  0  0  0  0  0  0  0  0  0  0
  181.5000  178.7930  138.6240 C   0  0  0  0  0  2  0  0  0  0  0  0
  182.8030  178.5170  137.8810 C   0  0  0  0  0  2  0  0  0  0  0  0
  181.7820  179.3410  140.0240 C   0  0  0  0  0  2  0  0  0  0  0  0
  185.1600  178.0380  138.5560 C   0  0  0  0  0  1  0  0  0  0  0  0
  183.6120  176.1920  138.1020 C   0  0  0  0  0  1  0  0  0  0  0  0
  188.1930  178.4130  141.0530 C   0  0  0  0  0  3  0  0  0  0  0  0
  188.8630  176.6130  142.5320 C   0  0  0  0  0  0  0  0  0  0  0  0
  190.3400  177.3390  140.7540 C   0  0  0  0  0  0  0  0  0  0  0  0
  187.9160  177.5740  142.1430 C   0  0  0  0  0  0  0  0  0  0  0  0
  190.0710  176.4990  141.8370 C   0  0  0  0  0  3  0  0  0  0  0  0
  188.6180  175.7880  143.5810 F   0  0  0  0  0  0  0  0  0  0  0  0
  191.5120  177.2250  140.0840 F   0  0  0  0  0  0  0  0  0  0  0  0
  189.4010  178.2960  140.3610 C   0  0  0  0  0  3  0  0  0  0  0  0
  1 11  2  0  0  0  0
  1 12  1  0  0  0  0
  3 24  1  6  0  0  0
  3 10  1  0  0  0  0
  5  9  1  0  0  0  0
  5  8  1  0  0  0  0
  6 12  1  0  0  0  0
  6  3  1  0  0  0  0
  7  9  2  0  0  0  0
  8  2  1  1  0  0  0
 10  4  1  1  0  0  0
 10  8  1  0  0  0  0
 11  7  1  0  0  0  0
 12  5  2  0  0  0  0
 13 14  1  0  0  0  0
 14  1  1  1  0  0  0
 15 13  1  0  0  0  0
 16 18  1  0  0  0  0
 17 16  1  0  0  0  0
 17 15  1  0  0  0  0
 18 14  1  0  0  0  0
 19 15  1  0  0  0  0
 20 15  1  0  0  0  0
 21 24  1  0  0  0  0
 22 26  1  0  0  0  0
 23 25  2  0  0  0  0
 24 22  2  0  0  0  0
 25 22  1  0  0  0  0
 27 23  1  0  0  0  0
 28 23  1  0  0  0  0
 28 21  2  0  0  0  0
M  END
>  <MODEL>
8

>  <REMARK>
 VINA RESULT:      -9.2      2.996      5.921
  Name = 
  2 active torsions:
  status: ('A' for Active; 'I' for Inactive)
    1  A    between atoms: C_1  and  C_3
    2  A    between atoms: C_10  and  C_13
                            x       y       z     vdW  Elec       q    Type
                         _______ _______ _______ _____ _____    ______ ____

>  <TORSDO>
F 2

$$$$
=
 OpenBabel10272401543D

 28 31  0  0  1  0  0  0  0  0999 V2000
  186.0040  178.2210  144.0270 C   0  0  0  0  0  0  0  0  0  0  0  0
  190.7810  177.9210  144.7350 C   0  0  0  0  0  1  0  0  0  0  0  0
  188.7220  177.3470  141.5560 C   0  0  2  0  0  3  0  0  0  0  0  0
  191.0380  176.8950  141.9360 F   0  0  0  0  0  0  0  0  0  0  0  0
  188.3250  177.5900  144.3820 C   0  0  0  0  0  0  0  0  0  0  0  0
  187.5650  178.2090  142.0440 C   0  0  0  0  0  2  0  0  0  0  0  0
  186.7370  177.6180  146.2060 C   0  0  0  0  0  3  0  0  0  0  0  0
  189.7150  177.2550  143.8790 C   0  0  1  0  0  3  0  0  0  0  0  0
  188.0270  177.3850  145.7350 C   0  0  0  0  0  3  0  0  0  0  0  0
  189.9580  177.6200  142.4110 C   0  0  2  0  0  3  0  0  0  0  0  0
  185.7640  178.0290  145.3520 N   0  0  0  0  0  0  0  0  0  0  0  0
  187.2900  177.9830  143.5050 C   0  0  0  0  0  0  0  0  0  0  0  0
  184.5960  177.6690  142.1760 O   0  0  0  0  0  0  0  0  0  0  0  0
  184.8860  178.6630  143.1350 C   0  0  1  0  0  3  0  0  0  0  0  0
  183.8080  178.2270  141.1320 C   0  0  0  0  0  0  0  0  0  0  0  0
  182.3680  178.8440  143.1180 C   0  0  0  0  0  2  0  0  0  0  0  0
  182.6520  179.1130  141.6430 C   0  0  0  0  0  2  0  0  0  0  0  0
  183.6370  179.0150  143.9520 C   0  0  0  0  0  2  0  0  0  0  0  0
  184.6810  179.0360  140.1880 C   0  0  0  0  0  1  0  0  0  0  0  0
  183.2030  177.0860  140.3410 C   0  0  0  0  0  1  0  0  0  0  0  0
  188.3460  178.6620  139.4320 C   0  0  0  0  0  3  0  0  0  0  0  0
  189.8590  176.7670  139.3900 C   0  0  0  0  0  0  0  0  0  0  0  0
  189.4660  178.0560  137.3750 C   0  0  0  0  0  0  0  0  0  0  0  0
  188.9790  177.6010  140.0990 C   0  0  0  0  0  0  0  0  0  0  0  0
  190.1000  176.9970  138.0310 C   0  0  0  0  0  3  0  0  0  0  0  0
  190.4810  175.7340  140.0100 F   0  0  0  0  0  0  0  0  0  0  0  0
  189.7030  178.2750  136.0600 F   0  0  0  0  0  0  0  0  0  0  0  0
  188.5890  178.8880  138.0750 C   0  0  0  0  0  3  0  0  0  0  0  0
  1 11  1  0  0  0  0
  3 24  1  6  0  0  0
  3  6  1  0  0  0  0
  3 10  1  0  0  0  0
  5  9  2  0  0  0  0
  6 12  1  0  0  0  0
  8  5  1  0  0  0  0
  8  2  1  1  0  0  0
  9  7  1  0  0  0  0
 10  4  1  6  0  0  0
 10  8  1  0  0  0  0
 11  7  2  0  0  0  0
 12  1  2  0  0  0  0
 12  5  1  0  0  0  0
 13 14  1  0  0  0  0
 14 18  1  0  0  0  0
 14  1  1  1  0  0  0
 15 17  1  0  0  0  0
 15 13  1  0  0  0  0
 16 18  1  0  0  0  0
 17 16  1  0  0  0  0
 19 15  1  0  0  0  0
 20 15  1  0  0  0  0
 21 24  1  0  0  0  0
 22 26  1  0  0  0  0
 22 24  2  0  0  0  0
 23 25  2  0  0  0  0
 23 28  1  0  0  0  0
 25 22  1  0  0  0  0
 27 23  1  0  0  0  0
 28 21  2  0  0  0  0
M  END
>  <MODEL>
9

>  <REMARK>
 VINA RESULT:      -8.9      2.168      5.055
  Name = 
  2 active torsions:
  status: ('A' for Active; 'I' for Inactive)
    1  A    between atoms: C_1  and  C_3
    2  A    between atoms: C_10  and  C_13
                            x       y       z     vdW  Elec       q    Type
                         _______ _______ _______ _____ _____    ______ ____

>  <TORSDO>
F 2

$$$$
