=
 OpenBabel10272401563D

 28 31  0  0  1  0  0  0  0  0999 V2000
  190.1900  176.3410  144.5840 C   0  0  0  0  0  0  0  0  0  0  0  0
  185.5590  177.9600  142.7830 C   0  0  0  0  0  3  0  0  0  0  0  0
  187.9640  178.2610  148.4040 O   0  0  0  0  0  0  0  0  0  0  0  0
  184.3800  178.6280  144.8000 C   0  0  0  0  0  0  0  0  0  0  0  0
  186.8460  178.0250  144.9530 C   0  0  2  0  0  3  0  0  0  0  0  0
  183.2280  178.5950  142.6660 C   0  0  0  0  0  0  0  0  0  0  0  0
  185.5580  178.1560  144.1730 C   0  0  0  0  0  0  0  0  0  0  0  0
  185.6880  179.0340  146.9150 C   0  0  0  0  0  2  0  0  0  0  0  0
  183.2200  178.8230  144.0430 C   0  0  0  0  0  3  0  0  0  0  0  0
  189.1090  177.3140  146.5440 C   0  0  0  0  0  0  0  0  0  0  0  0
  187.7100  176.8550  144.4860 C   0  0  0  0  0  2  0  0  0  0  0  0
  184.3090  178.8470  146.2870 C   0  0  0  0  0  2  0  0  0  0  0  0
  191.4630  176.7310  146.6120 C   0  0  0  0  0  3  0  0  0  0  0  0
  187.9080  177.8750  147.2040 C   0  0  0  0  0  0  0  0  0  0  0  0
  190.3270  177.2530  147.2330 C   0  0  0  0  0  3  0  0  0  0  0  0
  182.0450  178.8010  141.9030 N   0  0  0  0  0  1  0  0  0  0  0  0
  184.3990  178.1690  142.0340 C   0  0  0  0  0  3  0  0  0  0  0  0
  186.5980  177.9000  146.4620 C   0  0  2  0  0  3  0  0  0  0  0  0
  191.3930  176.2740  145.2970 C   0  0  0  0  0  3  0  0  0  0  0  0
  189.0340  176.8540  145.2090 C   0  0  0  0  0  0  0  0  0  0  0  0
  190.1590  175.8280  143.2060 C   0  0  0  0  0  0  0  0  0  0  0  0
  189.7950  176.6560  142.0910 N   0  0  0  0  0  2  0  0  0  0  0  0
  190.4680  174.6260  142.9980 O   0  0  0  0  0  0  0  0  0  0  0  0
  190.5390  178.9380  142.6640 C   0  0  0  0  0  1  0  0  0  0  0  0
  189.4100  178.0650  142.1360 C   0  0  1  0  0  3  0  0  0  0  0  0
  188.8510  178.5350  140.8260 C   0  0  0  0  0  0  0  0  0  0  0  0
  189.5650  178.3030  139.6580 O   0  0  0  0  0  0  0  0  0  0  0  0
  187.7500  179.1460  140.7690 O   0  0  0  0  0  1  0  0  0  0  0  0
  1 20  2  0  0  0  0
  1 19  1  0  0  0  0
  2  7  1  0  0  0  0
  4 12  1  0  0  0  0
  5 11  1  6  0  0  0
  5 18  1  0  0  0  0
  6  9  2  0  0  0  0
  7  4  2  0  0  0  0
  7  5  1  0  0  0  0
  9  4  1  0  0  0  0
 10 14  1  0  0  0  0
 10 15  2  0  0  0  0
 11 20  1  0  0  0  0
 12  8  1  0  0  0  0
 13 15  1  0  0  0  0
 14  3  2  0  0  0  0
 16  6  1  0  0  0  0
 17  6  1  0  0  0  0
 17  2  2  0  0  0  0
 18  8  1  1  0  0  0
 18 14  1  0  0  0  0
 19 13  2  0  0  0  0
 20 10  1  0  0  0  0
 21  1  1  0  0  0  0
 22 25  1  0  0  0  0
 22 21  1  0  0  0  0
 23 21  2  0  0  0  0
 25 24  1  6  0  0  0
 26 25  1  0  0  0  0
 27 26  2  0  0  0  0
 28 26  1  0  0  0  0
M  END
>  <MODEL>
1

>  <REMARK>
 VINA RESULT:     -10.4      0.000      0.000
  Name = 
  3 active torsions:
  status: ('A' for Active; 'I' for Inactive)
    1  A    between atoms: C_1  and  C_2
    2  A    between atoms: N_3  and  CA_11
    3  A    between atoms: C_6  and  CA_11
                            x       y       z     vdW  Elec       q    Type
                         _______ _______ _______ _____ _____    ______ ____

>  <TORSDO>
F 3

$$$$
=
 OpenBabel10272401563D

 28 31  0  0  1  0  0  0  0  0999 V2000
  183.4350  178.7500  141.5280 C   0  0  0  0  0  0  0  0  0  0  0  0
  188.2840  177.0250  142.4330 C   0  0  0  0  0  3  0  0  0  0  0  0
  183.8780  178.7270  146.3280 O   0  0  0  0  0  0  0  0  0  0  0  0
  188.5450  177.3280  144.8300 C   0  0  0  0  0  0  0  0  0  0  0  0
  186.2570  177.6930  143.7810 C   0  0  2  0  0  3  0  0  0  0  0  0
  190.4310  176.6320  143.4750 C   0  0  0  0  0  0  0  0  0  0  0  0
  187.7350  177.3940  143.6710 C   0  0  0  0  0  0  0  0  0  0  0  0
  186.4970  177.6610  146.2600 C   0  0  0  0  0  2  0  0  0  0  0  0
  189.8910  176.9680  144.7180 C   0  0  0  0  0  3  0  0  0  0  0  0
  183.6070  178.7430  143.9630 C   0  0  0  0  0  0  0  0  0  0  0  0
  185.7200  178.4910  142.5930 C   0  0  0  0  0  2  0  0  0  0  0  0
  188.0200  177.7220  146.1850 C   0  0  0  0  0  2  0  0  0  0  0  0
  181.4540  179.0670  142.8920 C   0  0  0  0  0  3  0  0  0  0  0  0
  184.4190  178.6120  145.1940 C   0  0  0  0  0  0  0  0  0  0  0  0
  182.2240  178.9490  144.0500 C   0  0  0  0  0  3  0  0  0  0  0  0
  191.8000  176.2610  143.3710 N   0  0  0  0  0  1  0  0  0  0  0  0
  189.6270  176.6540  142.3340 C   0  0  0  0  0  3  0  0  0  0  0  0
  185.9090  178.4280  145.0820 C   0  0  2  0  0  3  0  0  0  0  0  0
  182.0580  178.9730  141.6390 C   0  0  0  0  0  3  0  0  0  0  0  0
  184.2230  178.6440  142.6930 C   0  0  0  0  0  0  0  0  0  0  0  0
  184.0300  178.6780  140.1850 C   0  0  0  0  0  0  0  0  0  0  0  0
  183.6580  177.6660  139.2390 N   0  0  0  0  0  2  0  0  0  0  0  0
  184.8890  179.5370  139.8540 O   0  0  0  0  0  0  0  0  0  0  0  0
  181.2570  177.1170  139.3940 C   0  0  0  0  0  1  0  0  0  0  0  0
  182.6850  176.5930  139.4410 C   0  0  1  0  0  3  0  0  0  0  0  0
  182.9290  175.4340  138.5210 C   0  0  0  0  0  0  0  0  0  0  0  0
  181.8620  174.6340  138.1340 O   0  0  0  0  0  1  0  0  0  0  0  0
  184.0870  175.1690  138.1010 O   0  0  0  0  0  0  0  0  0  0  0  0
  1 19  2  0  0  0  0
  1 20  1  0  0  0  0
  2  7  1  0  0  0  0
  4 12  1  0  0  0  0
  5 11  1  6  0  0  0
  5 18  1  0  0  0  0
  6  9  2  0  0  0  0
  7  5  1  0  0  0  0
  7  4  2  0  0  0  0
  9  4  1  0  0  0  0
 10 15  1  0  0  0  0
 10 14  1  0  0  0  0
 11 20  1  0  0  0  0
 12  8  1  0  0  0  0
 13 15  2  0  0  0  0
 14  3  2  0  0  0  0
 16  6  1  0  0  0  0
 17  2  2  0  0  0  0
 17  6  1  0  0  0  0
 18 14  1  0  0  0  0
 18  8  1  1  0  0  0
 19 13  1  0  0  0  0
 20 10  2  0  0  0  0
 21  1  1  0  0  0  0
 22 25  1  0  0  0  0
 22 21  1  0  0  0  0
 23 21  2  0  0  0  0
 25 24  1  6  0  0  0
 26 25  1  0  0  0  0
 27 26  1  0  0  0  0
 28 26  2  0  0  0  0
M  END
>  <MODEL>
2

>  <REMARK>
 VINA RESULT:     -10.2      2.803      6.717
  Name = 
  3 active torsions:
  status: ('A' for Active; 'I' for Inactive)
    1  A    between atoms: C_1  and  C_2
    2  A    between atoms: N_3  and  CA_11
    3  A    between atoms: C_6  and  CA_11
                            x       y       z     vdW  Elec       q    Type
                         _______ _______ _______ _____ _____    ______ ____

>  <TORSDO>
F 3

$$$$
=
 OpenBabel10272401563D

 28 31  0  0  1  0  0  0  0  0999 V2000
  190.1050  177.7530  139.6010 C   0  0  0  0  0  0  0  0  0  0  0  0
  185.4740  178.8610  141.7530 C   0  0  0  0  0  3  0  0  0  0  0  0
  190.6250  176.7290  144.2830 O   0  0  0  0  0  0  0  0  0  0  0  0
  185.7060  178.0390  144.0290 C   0  0  0  0  0  0  0  0  0  0  0  0
  187.7510  178.0860  142.5170 C   0  0  2  0  0  3  0  0  0  0  0  0
  183.5640  178.8550  143.2370 C   0  0  0  0  0  0  0  0  0  0  0  0
  186.2710  178.2840  142.7540 C   0  0  0  0  0  0  0  0  0  0  0  0
  188.0080  177.5750  144.9420 C   0  0  0  0  0  2  0  0  0  0  0  0
  184.3520  178.3080  144.2520 C   0  0  0  0  0  3  0  0  0  0  0  0
  190.4210  177.2330  141.9660 C   0  0  0  0  0  0  0  0  0  0  0  0
  188.0700  177.6010  141.1030 C   0  0  0  0  0  2  0  0  0  0  0  0
  186.5030  177.4110  145.1400 C   0  0  0  0  0  2  0  0  0  0  0  0
  192.3280  177.3130  140.4680 C   0  0  0  0  0  3  0  0  0  0  0  0
  189.8650  177.0380  143.3240 C   0  0  0  0  0  0  0  0  0  0  0  0
  191.8000  177.1230  141.7460 C   0  0  0  0  0  3  0  0  0  0  0  0
  182.1890  179.1300  143.4740 N   0  0  0  0  0  1  0  0  0  0  0  0
  184.1260  179.1370  141.9900 C   0  0  0  0  0  3  0  0  0  0  0  0
  188.3770  177.1230  143.5350 C   0  0  2  0  0  3  0  0  0  0  0  0
  191.4840  177.6220  139.4020 C   0  0  0  0  0  3  0  0  0  0  0  0
  189.5620  177.5490  140.8870 C   0  0  0  0  0  0  0  0  0  0  0  0
  189.2530  178.0600  138.4430 C   0  0  0  0  0  0  0  0  0  0  0  0
  188.7380  177.0330  137.5820 N   0  0  0  0  0  2  0  0  0  0  0  0
  188.9620  179.2610  138.2030 O   0  0  0  0  0  0  0  0  0  0  0  0
  187.8210  174.7950  137.0950 C   0  0  0  0  0  1  0  0  0  0  0  0
  188.9650  175.5940  137.7010 C   0  0  1  0  0  3  0  0  0  0  0  0
  190.3150  175.1960  137.1840 C   0  0  0  0  0  0  0  0  0  0  0  0
  190.8360  175.8410  136.0690 O   0  0  0  0  0  0  0  0  0  0  0  0
  190.9800  174.2790  137.7370 O   0  0  0  0  0  1  0  0  0  0  0  0
  1 20  1  0  0  0  0
  2 17  2  0  0  0  0
  2  7  1  0  0  0  0
  4  9  1  0  0  0  0
  4 12  1  0  0  0  0
  5 11  1  6  0  0  0
  5  7  1  0  0  0  0
  5 18  1  0  0  0  0
  6 16  1  0  0  0  0
  6  9  2  0  0  0  0
  7  4  2  0  0  0  0
  8 12  1  0  0  0  0
 10 14  1  0  0  0  0
 13 15  2  0  0  0  0
 14 18  1  0  0  0  0
 14  3  2  0  0  0  0
 15 10  1  0  0  0  0
 17  6  1  0  0  0  0
 18  8  1  1  0  0  0
 19  1  2  0  0  0  0
 19 13  1  0  0  0  0
 20 11  1  0  0  0  0
 20 10  2  0  0  0  0
 21  1  1  0  0  0  0
 22 25  1  0  0  0  0
 22 21  1  0  0  0  0
 23 21  2  0  0  0  0
 25 24  1  6  0  0  0
 26 25  1  0  0  0  0
 26 28  1  0  0  0  0
 27 26  2  0  0  0  0
M  END
>  <MODEL>
3

>  <REMARK>
 VINA RESULT:      -9.2      2.688      4.453
  Name = 
  3 active torsions:
  status: ('A' for Active; 'I' for Inactive)
    1  A    between atoms: C_1  and  C_2
    2  A    between atoms: N_3  and  CA_11
    3  A    between atoms: C_6  and  CA_11
                            x       y       z     vdW  Elec       q    Type
                         _______ _______ _______ _____ _____    ______ ____

>  <TORSDO>
F 3

$$$$
=
 OpenBabel10272401563D

 28 31  0  0  1  0  0  0  0  0999 V2000
  186.8860  178.4140  140.7860 C   0  0  0  0  0  0  0  0  0  0  0  0
  190.1220  176.8750  144.5890 C   0  0  0  0  0  3  0  0  0  0  0  0
  184.2650  178.6390  144.8250 O   0  0  0  0  0  0  0  0  0  0  0  0
  188.8470  177.3030  146.6130 C   0  0  0  0  0  0  0  0  0  0  0  0
  187.7010  177.5500  144.3560 C   0  0  2  0  0  3  0  0  0  0  0  0
  191.1620  176.5960  146.7550 C   0  0  0  0  0  0  0  0  0  0  0  0
  188.9280  177.2890  145.2000 C   0  0  0  0  0  0  0  0  0  0  0  0
  186.3560  177.6470  146.4510 C   0  0  0  0  0  2  0  0  0  0  0  0
  189.9710  176.9770  147.3780 C   0  0  0  0  0  3  0  0  0  0  0  0
  185.5150  178.5310  142.8020 C   0  0  0  0  0  0  0  0  0  0  0  0
  188.0200  178.2730  143.0470 C   0  0  0  0  0  2  0  0  0  0  0  0
  187.6000  177.7480  147.3290 C   0  0  0  0  0  2  0  0  0  0  0  0
  184.4880  178.7400  140.6140 C   0  0  0  0  0  3  0  0  0  0  0  0
  185.3910  178.4840  144.2770 C   0  0  0  0  0  0  0  0  0  0  0  0
  184.3760  178.7010  142.0040 C   0  0  0  0  0  3  0  0  0  0  0  0
  192.2990  176.2600  147.5410 N   0  0  0  0  0  1  0  0  0  0  0  0
  191.2360  176.5390  145.3620 C   0  0  0  0  0  3  0  0  0  0  0  0
  186.6300  178.3380  145.1200 C   0  0  2  0  0  3  0  0  0  0  0  0
  185.7370  178.6020  140.0090 C   0  0  0  0  0  3  0  0  0  0  0  0
  186.7830  178.3870  142.1930 C   0  0  0  0  0  0  0  0  0  0  0  0
  188.1840  178.2930  140.1040 C   0  0  0  0  0  0  0  0  0  0  0  0
  188.2850  178.0150  138.7000 N   0  0  0  0  0  2  0  0  0  0  0  0
  189.2380  178.4440  140.7750 O   0  0  0  0  0  0  0  0  0  0  0  0
  187.2470  178.7840  136.5980 C   0  0  0  0  0  1  0  0  0  0  0  0
  187.1790  177.8110  137.7660 C   0  0  1  0  0  3  0  0  0  0  0  0
  187.0580  176.3770  137.3450 C   0  0  0  0  0  0  0  0  0  0  0  0
  185.8170  175.8780  136.9740 O   0  0  0  0  0  0  0  0  0  0  0  0
  188.0610  175.6150  137.3340 O   0  0  0  0  0  1  0  0  0  0  0  0
  1 20  1  0  0  0  0
  2  7  2  0  0  0  0
  2 17  1  0  0  0  0
  4 12  1  0  0  0  0
  4  9  2  0  0  0  0
  5 11  1  6  0  0  0
  5 18  1  0  0  0  0
  5  7  1  0  0  0  0
  6  9  1  0  0  0  0
  6 16  1  0  0  0  0
  7  4  1  0  0  0  0
  8 12  1  0  0  0  0
 10 14  1  0  0  0  0
 13 15  2  0  0  0  0
 14  3  2  0  0  0  0
 14 18  1  0  0  0  0
 15 10  1  0  0  0  0
 17  6  2  0  0  0  0
 18  8  1  1  0  0  0
 19 13  1  0  0  0  0
 19  1  2  0  0  0  0
 20 10  2  0  0  0  0
 20 11  1  0  0  0  0
 21 23  2  0  0  0  0
 21  1  1  0  0  0  0
 22 21  1  0  0  0  0
 25 24  1  6  0  0  0
 25 22  1  0  0  0  0
 26 25  1  0  0  0  0
 27 26  2  0  0  0  0
 28 26  1  0  0  0  0
M  END
>  <MODEL>
4

>  <REMARK>
 VINA RESULT:      -9.2      2.645      5.883
  Name = 
  3 active torsions:
  status: ('A' for Active; 'I' for Inactive)
    1  A    between atoms: C_1  and  C_2
    2  A    between atoms: N_3  and  CA_11
    3  A    between atoms: C_6  and  CA_11
                            x       y       z     vdW  Elec       q    Type
                         _______ _______ _______ _____ _____    ______ ____

>  <TORSDO>
F 3

$$$$
=
 OpenBabel10272401563D

 28 31  0  0  1  0  0  0  0  0999 V2000
  186.8130  178.3600  139.2530 C   0  0  0  0  0  0  0  0  0  0  0  0
  189.9240  177.0790  143.2510 C   0  0  0  0  0  3  0  0  0  0  0  0
  183.9970  178.6080  143.1570 O   0  0  0  0  0  0  0  0  0  0  0  0
  188.5380  177.5200  145.1990 C   0  0  0  0  0  0  0  0  0  0  0  0
  187.4920  177.6460  142.8840 C   0  0  2  0  0  3  0  0  0  0  0  0
  190.8700  176.9130  145.4710 C   0  0  0  0  0  0  0  0  0  0  0  0
  188.6860  177.4630  143.7920 C   0  0  0  0  0  0  0  0  0  0  0  0
  186.0460  177.7560  144.9100 C   0  0  0  0  0  2  0  0  0  0  0  0
  189.6370  177.2650  146.0250 C   0  0  0  0  0  3  0  0  0  0  0  0
  185.3440  178.4860  141.1990 C   0  0  0  0  0  0  0  0  0  0  0  0
  187.8440  178.3390  141.5680 C   0  0  0  0  0  2  0  0  0  0  0  0
  187.2420  177.9370  145.8410 C   0  0  0  0  0  2  0  0  0  0  0  0
  184.4150  178.5810  138.9590 C   0  0  0  0  0  3  0  0  0  0  0  0
  185.1530  178.4820  142.6670 C   0  0  0  0  0  0  0  0  0  0  0  0
  184.2380  178.5830  140.3440 C   0  0  0  0  0  3  0  0  0  0  0  0
  191.9820  176.6500  146.3190 N   0  0  0  0  0  1  0  0  0  0  0  0
  191.0120  176.8140  144.0860 C   0  0  0  0  0  3  0  0  0  0  0  0
  186.3550  178.4130  143.5710 C   0  0  2  0  0  3  0  0  0  0  0  0
  185.6950  178.4750  138.4180 C   0  0  0  0  0  3  0  0  0  0  0  0
  186.6450  178.3750  140.6530 C   0  0  0  0  0  0  0  0  0  0  0  0
  188.1450  178.2700  138.6360 C   0  0  0  0  0  0  0  0  0  0  0  0
  188.5190  177.1790  137.7810 N   0  0  0  0  0  2  0  0  0  0  0  0
  188.9820  179.1830  138.8610 O   0  0  0  0  0  0  0  0  0  0  0  0
  186.8510  176.3340  136.1710 C   0  0  0  0  0  1  0  0  0  0  0  0
  187.6880  176.0360  137.4070 C   0  0  1  0  0  3  0  0  0  0  0  0
  188.4890  174.7730  137.2990 C   0  0  0  0  0  0  0  0  0  0  0  0
  189.8110  174.7660  137.7210 O   0  0  0  0  0  1  0  0  0  0  0  0
  187.9840  173.7210  136.8220 O   0  0  0  0  0  0  0  0  0  0  0  0
  1 20  1  0  0  0  0
  2  7  2  0  0  0  0
  2 17  1  0  0  0  0
  4 12  1  0  0  0  0
  4  9  2  0  0  0  0
  5 11  1  6  0  0  0
  5 18  1  0  0  0  0
  5  7  1  0  0  0  0
  6  9  1  0  0  0  0
  6 16  1  0  0  0  0
  7  4  1  0  0  0  0
  8 12  1  0  0  0  0
 10 14  1  0  0  0  0
 13 15  2  0  0  0  0
 14  3  2  0  0  0  0
 14 18  1  0  0  0  0
 15 10  1  0  0  0  0
 17  6  2  0  0  0  0
 18  8  1  1  0  0  0
 19 13  1  0  0  0  0
 19  1  2  0  0  0  0
 20 10  2  0  0  0  0
 20 11  1  0  0  0  0
 21 23  2  0  0  0  0
 21  1  1  0  0  0  0
 22 21  1  0  0  0  0
 25 24  1  6  0  0  0
 25 22  1  0  0  0  0
 26 25  1  0  0  0  0
 26 27  1  0  0  0  0
 28 26  2  0  0  0  0
M  END
>  <MODEL>
5

>  <REMARK>
 VINA RESULT:      -9.0      2.988      6.327
  Name = 
  3 active torsions:
  status: ('A' for Active; 'I' for Inactive)
    1  A    between atoms: C_1  and  C_2
    2  A    between atoms: N_3  and  CA_11
    3  A    between atoms: C_6  and  CA_11
                            x       y       z     vdW  Elec       q    Type
                         _______ _______ _______ _____ _____    ______ ____

>  <TORSDO>
F 3

$$$$
=
 OpenBabel10272401563D

 28 31  0  0  1  0  0  0  0  0999 V2000
  183.7370  178.9380  141.0570 C   0  0  0  0  0  0  0  0  0  0  0  0
  188.7780  177.6940  140.4690 C   0  0  0  0  0  3  0  0  0  0  0  0
  185.3730  178.2010  145.5310 O   0  0  0  0  0  0  0  0  0  0  0  0
  189.6080  177.6400  142.7530 C   0  0  0  0  0  0  0  0  0  0  0  0
  187.1090  177.8850  142.3530 C   0  0  2  0  0  3  0  0  0  0  0  0
  191.1420  177.4040  140.8890 C   0  0  0  0  0  0  0  0  0  0  0  0
  188.5300  177.7910  141.8480 C   0  0  0  0  0  0  0  0  0  0  0  0
  187.9660  177.4870  144.6580 C   0  0  0  0  0  2  0  0  0  0  0  0
  190.9070  177.4690  142.2640 C   0  0  0  0  0  3  0  0  0  0  0  0
  184.5160  178.5630  143.3400 C   0  0  0  0  0  0  0  0  0  0  0  0
  186.2290  178.7920  141.4920 C   0  0  0  0  0  2  0  0  0  0  0  0
  189.4120  177.7450  144.2410 C   0  0  0  0  0  2  0  0  0  0  0  0
  182.1440  178.7880  142.8810 C   0  0  0  0  0  3  0  0  0  0  0  0
  185.6190  178.3360  144.3010 C   0  0  0  0  0  0  0  0  0  0  0  0
  183.1870  178.5820  143.7850 C   0  0  0  0  0  3  0  0  0  0  0  0
  192.4660  177.2240  140.4010 N   0  0  0  0  0  1  0  0  0  0  0  0
  190.0780  177.5110  139.9920 C   0  0  0  0  0  3  0  0  0  0  0  0
  187.0430  178.3550  143.8120 C   0  0  2  0  0  3  0  0  0  0  0  0
  182.4180  178.9700  141.5260 C   0  0  0  0  0  3  0  0  0  0  0  0
  184.7980  178.7430  141.9660 C   0  0  0  0  0  0  0  0  0  0  0  0
  183.9790  179.1550  139.6230 C   0  0  0  0  0  0  0  0  0  0  0  0
  183.7030  178.1440  138.6410 N   0  0  0  0  0  2  0  0  0  0  0  0
  184.4360  180.2650  139.2450 O   0  0  0  0  0  0  0  0  0  0  0  0
  181.6520  176.8090  138.9560 C   0  0  0  0  0  1  0  0  0  0  0  0
  183.1730  176.8050  138.8890 C   0  0  1  0  0  3  0  0  0  0  0  0
  183.7280  175.7960  137.9280 C   0  0  0  0  0  0  0  0  0  0  0  0
  184.9510  176.0380  137.3170 O   0  0  0  0  0  0  0  0  0  0  0  0
  183.0980  174.7390  137.6570 O   0  0  0  0  0  1  0  0  0  0  0  0
  1 19  2  0  0  0  0
  1 20  1  0  0  0  0
  2  7  1  0  0  0  0
  4 12  1  0  0  0  0
  5 11  1  6  0  0  0
  5 18  1  0  0  0  0
  6  9  2  0  0  0  0
  7  5  1  0  0  0  0
  7  4  2  0  0  0  0
  9  4  1  0  0  0  0
 10 15  1  0  0  0  0
 10 14  1  0  0  0  0
 11 20  1  0  0  0  0
 12  8  1  0  0  0  0
 13 15  2  0  0  0  0
 14  3  2  0  0  0  0
 16  6  1  0  0  0  0
 17  2  2  0  0  0  0
 17  6  1  0  0  0  0
 18 14  1  0  0  0  0
 18  8  1  1  0  0  0
 19 13  1  0  0  0  0
 20 10  2  0  0  0  0
 21  1  1  0  0  0  0
 22 25  1  0  0  0  0
 22 21  1  0  0  0  0
 23 21  2  0  0  0  0
 25 24  1  6  0  0  0
 26 25  1  0  0  0  0
 27 26  2  0  0  0  0
 28 26  1  0  0  0  0
M  END
>  <MODEL>
6

>  <REMARK>
 VINA RESULT:      -9.0      2.841      6.846
  Name = 
  3 active torsions:
  status: ('A' for Active; 'I' for Inactive)
    1  A    between atoms: C_1  and  C_2
    2  A    between atoms: N_3  and  CA_11
    3  A    between atoms: C_6  and  CA_11
                            x       y       z     vdW  Elec       q    Type
                         _______ _______ _______ _____ _____    ______ ____

>  <TORSDO>
F 3

$$$$
=
 OpenBabel10272401563D

 28 31  0  0  1  0  0  0  0  0999 V2000
  186.0470  178.4890  139.6880 C   0  0  0  0  0  0  0  0  0  0  0  0
  188.5700  177.2830  144.1020 C   0  0  0  0  0  3  0  0  0  0  0  0
  182.8120  179.1550  143.1990 O   0  0  0  0  0  0  0  0  0  0  0  0
  186.9960  177.9300  145.8380 C   0  0  0  0  0  0  0  0  0  0  0  0
  186.2420  177.9700  143.4090 C   0  0  2  0  0  3  0  0  0  0  0  0
  189.2340  177.2030  146.4260 C   0  0  0  0  0  0  0  0  0  0  0  0
  187.3060  177.7740  144.4650 C   0  0  0  0  0  0  0  0  0  0  0  0
  184.5780  178.2950  145.2340 C   0  0  0  0  0  2  0  0  0  0  0  0
  187.9710  177.6620  146.8050 C   0  0  0  0  0  3  0  0  0  0  0  0
  184.3700  178.8280  141.4300 C   0  0  0  0  0  0  0  0  0  0  0  0
  186.7930  178.5540  142.1090 C   0  0  0  0  0  2  0  0  0  0  0  0
  185.6650  178.4630  146.2920 C   0  0  0  0  0  2  0  0  0  0  0  0
  183.7200  178.8350  139.0920 C   0  0  0  0  0  3  0  0  0  0  0  0
  184.0060  178.9280  142.8610 C   0  0  0  0  0  0  0  0  0  0  0  0
  183.3820  178.9360  140.4420 C   0  0  0  0  0  3  0  0  0  0  0  0
  190.2170  176.9280  147.4170 N   0  0  0  0  0  1  0  0  0  0  0  0
  189.5320  177.0070  145.0760 C   0  0  0  0  0  3  0  0  0  0  0  0
  185.0860  178.8460  143.9070 C   0  0  2  0  0  3  0  0  0  0  0  0
  185.0460  178.6180  138.7180 C   0  0  0  0  0  3  0  0  0  0  0  0
  185.7160  178.6040  141.0540 C   0  0  0  0  0  0  0  0  0  0  0  0
  187.4330  178.2810  139.2440 C   0  0  0  0  0  0  0  0  0  0  0  0
  187.7590  177.4450  138.1240 N   0  0  0  0  0  2  0  0  0  0  0  0
  188.3630  178.8600  139.8650 O   0  0  0  0  0  0  0  0  0  0  0  0
  186.6410  177.3530  135.9260 C   0  0  0  0  0  1  0  0  0  0  0  0
  186.8210  176.6970  137.2880 C   0  0  1  0  0  3  0  0  0  0  0  0
  187.1760  175.2420  137.2110 C   0  0  0  0  0  0  0  0  0  0  0  0
  188.5090  174.8710  137.0990 O   0  0  0  0  0  0  0  0  0  0  0  0
  186.2840  174.3520  137.2360 O   0  0  0  0  0  1  0  0  0  0  0  0
  1 20  1  0  0  0  0
  2  7  2  0  0  0  0
  2 17  1  0  0  0  0
  4 12  1  0  0  0  0
  4  9  2  0  0  0  0
  5 11  1  6  0  0  0
  5 18  1  0  0  0  0
  5  7  1  0  0  0  0
  6  9  1  0  0  0  0
  6 16  1  0  0  0  0
  7  4  1  0  0  0  0
  8 12  1  0  0  0  0
 10 14  1  0  0  0  0
 13 15  2  0  0  0  0
 14  3  2  0  0  0  0
 14 18  1  0  0  0  0
 15 10  1  0  0  0  0
 17  6  2  0  0  0  0
 18  8  1  1  0  0  0
 19 13  1  0  0  0  0
 19  1  2  0  0  0  0
 20 10  2  0  0  0  0
 20 11  1  0  0  0  0
 21  1  1  0  0  0  0
 21 23  2  0  0  0  0
 22 21  1  0  0  0  0
 25 24  1  6  0  0  0
 25 22  1  0  0  0  0
 26 28  1  0  0  0  0
 26 25  1  0  0  0  0
 27 26  2  0  0  0  0
M  END
>  <MODEL>
7

>  <REMARK>
 VINA RESULT:      -9.0      3.046      6.148
  Name = 
  3 active torsions:
  status: ('A' for Active; 'I' for Inactive)
    1  A    between atoms: C_1  and  C_2
    2  A    between atoms: N_3  and  CA_11
    3  A    between atoms: C_6  and  CA_11
                            x       y       z     vdW  Elec       q    Type
                         _______ _______ _______ _____ _____    ______ ____

>  <TORSDO>
F 3

$$$$
=
 OpenBabel10272401563D

 28 31  0  0  1  0  0  0  0  0999 V2000
  189.1120  177.4490  138.9760 C   0  0  0  0  0  0  0  0  0  0  0  0
  185.9060  178.5270  142.9580 C   0  0  0  0  0  3  0  0  0  0  0  0
  191.7380  176.6650  142.9420 O   0  0  0  0  0  0  0  0  0  0  0  0
  187.1790  177.8220  144.9050 C   0  0  0  0  0  0  0  0  0  0  0  0
  188.3170  177.8550  142.6300 C   0  0  2  0  0  3  0  0  0  0  0  0
  184.8750  178.5380  145.1460 C   0  0  0  0  0  0  0  0  0  0  0  0
  187.0960  178.0210  143.5060 C   0  0  0  0  0  0  0  0  0  0  0  0
  189.6650  177.4670  144.6900 C   0  0  0  0  0  2  0  0  0  0  0  0
  186.0610  178.0630  145.7090 C   0  0  0  0  0  3  0  0  0  0  0  0
  190.4860  177.0510  140.9550 C   0  0  0  0  0  0  0  0  0  0  0  0
  187.9840  177.3120  141.2410 C   0  0  0  0  0  2  0  0  0  0  0  0
  188.4210  177.2710  145.5530 C   0  0  0  0  0  2  0  0  0  0  0  0
  191.5050  177.1140  138.7530 C   0  0  0  0  0  3  0  0  0  0  0  0
  190.6130  176.9060  142.4220 C   0  0  0  0  0  0  0  0  0  0  0  0
  191.6210  176.9700  140.1370 C   0  0  0  0  0  3  0  0  0  0  0  0
  183.7440  178.7860  145.9730 N   0  0  0  0  0  1  0  0  0  0  0  0
  184.7990  178.7760  143.7720 C   0  0  0  0  0  3  0  0  0  0  0  0
  189.3780  176.9590  143.2820 C   0  0  2  0  0  3  0  0  0  0  0  0
  190.2570  177.3470  138.1770 C   0  0  0  0  0  3  0  0  0  0  0  0
  189.2180  177.2910  140.3730 C   0  0  0  0  0  0  0  0  0  0  0  0
  187.8150  177.6750  138.3200 C   0  0  0  0  0  0  0  0  0  0  0  0
  187.2000  176.6850  137.4840 N   0  0  0  0  0  2  0  0  0  0  0  0
  187.2240  178.7720  138.5050 O   0  0  0  0  0  0  0  0  0  0  0  0
  186.6840  174.2760  137.3500 C   0  0  0  0  0  1  0  0  0  0  0  0
  187.7310  175.3630  137.1560 C   0  0  1  0  0  3  0  0  0  0  0  0
  188.3770  175.3390  135.8030 C   0  0  0  0  0  0  0  0  0  0  0  0
  188.5540  176.5290  135.1100 O   0  0  0  0  0  0  0  0  0  0  0  0
  188.7530  174.2560  135.2800 O   0  0  0  0  0  1  0  0  0  0  0  0
  1 20  1  0  0  0  0
  2  7  2  0  0  0  0
  2 17  1  0  0  0  0
  4 12  1  0  0  0  0
  4  9  2  0  0  0  0
  5 11  1  6  0  0  0
  5 18  1  0  0  0  0
  5  7  1  0  0  0  0
  6  9  1  0  0  0  0
  6 16  1  0  0  0  0
  7  4  1  0  0  0  0
  8 12  1  0  0  0  0
 10 14  1  0  0  0  0
 13 15  2  0  0  0  0
 14  3  2  0  0  0  0
 14 18  1  0  0  0  0
 15 10  1  0  0  0  0
 17  6  2  0  0  0  0
 18  8  1  1  0  0  0
 19 13  1  0  0  0  0
 19  1  2  0  0  0  0
 20 10  2  0  0  0  0
 20 11  1  0  0  0  0
 21 23  2  0  0  0  0
 21  1  1  0  0  0  0
 22 21  1  0  0  0  0
 25 24  1  6  0  0  0
 25 22  1  0  0  0  0
 26 25  1  0  0  0  0
 27 26  2  0  0  0  0
 28 26  1  0  0  0  0
M  END
>  <MODEL>
8

>  <REMARK>
 VINA RESULT:      -8.9      3.173      5.328
  Name = 
  3 active torsions:
  status: ('A' for Active; 'I' for Inactive)
    1  A    between atoms: C_1  and  C_2
    2  A    between atoms: N_3  and  CA_11
    3  A    between atoms: C_6  and  CA_11
                            x       y       z     vdW  Elec       q    Type
                         _______ _______ _______ _____ _____    ______ ____

>  <TORSDO>
F 3

$$$$
=
 OpenBabel10272401563D

 28 31  0  0  1  0  0  0  0  0999 V2000
  188.7160  176.8670  144.1440 C   0  0  0  0  0  0  0  0  0  0  0  0
  184.4970  177.9080  141.2430 C   0  0  0  0  0  3  0  0  0  0  0  0
  185.6190  178.9980  147.1610 O   0  0  0  0  0  0  0  0  0  0  0  0
  182.8770  178.6910  142.8770 C   0  0  0  0  0  0  0  0  0  0  0  0
  185.2820  178.3080  143.6080 C   0  0  2  0  0  3  0  0  0  0  0  0
  182.2130  178.3390  140.5710 C   0  0  0  0  0  0  0  0  0  0  0  0
  184.1860  178.2510  142.5690 C   0  0  0  0  0  0  0  0  0  0  0  0
  183.6760  179.4230  145.1520 C   0  0  0  0  0  2  0  0  0  0  0  0
  181.8970  178.7110  141.8790 C   0  0  0  0  0  3  0  0  0  0  0  0
  187.1870  177.9540  145.7070 C   0  0  0  0  0  0  0  0  0  0  0  0
  186.2910  177.1670  143.4740 C   0  0  0  0  0  2  0  0  0  0  0  0
  182.4760  179.0610  144.2800 C   0  0  0  0  0  2  0  0  0  0  0  0
  189.5010  177.5720  146.3290 C   0  0  0  0  0  3  0  0  0  0  0  0
  185.8430  178.4830  146.0310 C   0  0  0  0  0  0  0  0  0  0  0  0
  188.2310  178.0640  146.6350 C   0  0  0  0  0  3  0  0  0  0  0  0
  181.2120  178.3670  139.5610 N   0  0  0  0  0  1  0  0  0  0  0  0
  183.5140  177.9430  140.2510 C   0  0  0  0  0  3  0  0  0  0  0  0
  184.7240  178.3240  145.0370 C   0  0  2  0  0  3  0  0  0  0  0  0
  189.7400  176.9720  145.0930 C   0  0  0  0  0  3  0  0  0  0  0  0
  187.4260  177.3490  144.4500 C   0  0  0  0  0  0  0  0  0  0  0  0
  189.0100  176.2090  142.8620 C   0  0  0  0  0  0  0  0  0  0  0  0
  188.9150  176.9030  141.6090 N   0  0  0  0  0  2  0  0  0  0  0  0
  189.3630  175.0010  142.8660 O   0  0  0  0  0  0  0  0  0  0  0  0
  189.5000  179.2530  142.0800 C   0  0  0  0  0  1  0  0  0  0  0  0
  188.5250  178.2970  141.4080 C   0  0  1  0  0  3  0  0  0  0  0  0
  188.2820  178.6070  139.9600 C   0  0  0  0  0  0  0  0  0  0  0  0
  187.0090  178.4420  139.4320 O   0  0  0  0  0  1  0  0  0  0  0  0
  189.2160  179.0050  139.2140 O   0  0  0  0  0  0  0  0  0  0  0  0
  1 20  2  0  0  0  0
  1 19  1  0  0  0  0
  2  7  1  0  0  0  0
  4 12  1  0  0  0  0
  5 11  1  1  0  0  0
  5 18  1  0  0  0  0
  6  9  2  0  0  0  0
  7  4  2  0  0  0  0
  7  5  1  0  0  0  0
  9  4  1  0  0  0  0
 10 14  1  0  0  0  0
 10 15  2  0  0  0  0
 11 20  1  0  0  0  0
 12  8  1  0  0  0  0
 13 15  1  0  0  0  0
 14  3  2  0  0  0  0
 16  6  1  0  0  0  0
 17  6  1  0  0  0  0
 17  2  2  0  0  0  0
 18  8  1  6  0  0  0
 18 14  1  0  0  0  0
 19 13  2  0  0  0  0
 20 10  1  0  0  0  0
 21 23  2  0  0  0  0
 21  1  1  0  0  0  0
 22 21  1  0  0  0  0
 25 22  1  0  0  0  0
 25 24  1  6  0  0  0
 26 25  1  0  0  0  0
 27 26  1  0  0  0  0
 28 26  2  0  0  0  0
M  END
>  <MODEL>
9

>  <REMARK>
 VINA RESULT:      -8.9      1.289      2.080
  Name = 
  3 active torsions:
  status: ('A' for Active; 'I' for Inactive)
    1  A    between atoms: C_1  and  C_2
    2  A    between atoms: N_3  and  CA_11
    3  A    between atoms: C_6  and  CA_11
                            x       y       z     vdW  Elec       q    Type
                         _______ _______ _______ _____ _____    ______ ____

>  <TORSDO>
F 3

$$$$
