=
 OpenBabel10272400023D

 34 39  0  0  1  0  0  0  0  0999 V2000
  188.3400  177.2500  145.2890 C   0  0  0  0  0  0  0  0  0  0  0  0
  190.1650  176.8680  143.5760 C   0  0  2  0  0  3  0  0  0  0  0  0
  187.8220  177.7590  142.9490 C   0  0  0  0  0  0  0  0  0  0  0  0
  187.2360  178.4480  140.7170 N   0  0  1  0  0  0  0  0  0  0  0  0
  190.6870  177.3630  146.0220 C   0  0  0  0  0  2  0  0  0  0  0  0
  191.1250  176.6480  144.7550 C   0  0  0  0  0  2  0  0  0  0  0  0
  189.4260  177.7330  141.0320 N   0  0  0  0  0  0  0  0  0  0  0  0
  188.7500  177.3090  143.9380 C   0  0  0  0  0  0  0  0  0  0  0  0
  187.8910  178.3950  139.5160 O   0  0  0  0  0  0  0  0  0  0  0  0
  189.2940  176.8850  146.3810 C   0  0  0  0  0  2  0  0  0  0  0  0
  186.4630  178.0140  143.3250 C   0  0  0  0  0  0  0  0  0  0  0  0
  187.0250  177.5250  145.6410 C   0  0  0  0  0  3  0  0  0  0  0  0
  190.1070  175.6840  142.8380 O   0  0  0  0  0  1  0  0  0  0  0  0
  185.8050  178.3620  140.9220 C   0  0  0  0  0  2  0  0  0  0  0  0
  185.5040  178.3460  142.4040 C   0  0  1  0  0  3  0  0  0  0  0  0
  189.2000  177.9900  139.7790 C   0  0  0  0  0  0  0  0  0  0  0  0
  188.1700  177.9850  141.6640 C   0  0  2  0  0  3  0  0  0  0  0  0
  186.1010  177.8840  144.6720 C   0  0  0  0  0  3  0  0  0  0  0  0
  181.7590  178.8050  142.1800 C   0  0  0  0  0  0  0  0  0  0  0  0
  181.4380  179.0760  143.5130 C   0  0  0  0  0  3  0  0  0  0  0  0
  184.1000  178.5980  142.7850 C   0  0  0  0  0  0  0  0  0  0  0  0
  182.4410  179.1050  144.4830 C   0  0  0  0  0  3  0  0  0  0  0  0
  183.0870  178.5660  141.8160 C   0  0  0  0  0  3  0  0  0  0  0  0
  183.7730  178.8670  144.1200 C   0  0  0  0  0  3  0  0  0  0  0  0
  180.4990  178.7650  140.9670 Cl  0  0  0  0  0  0  0  0  0  0  0  0
  190.7840  176.7040  138.5620 C   0  0  0  0  0  3  0  0  0  0  0  0
  190.2020  177.8370  138.7750 N   0  0  0  0  0  0  0  0  0  0  0  0
  193.6320  177.0050  139.1610 N   0  0  0  0  0  1  0  0  0  0  0  0
  191.8480  176.6110  137.5230 C   0  0  1  0  0  3  0  0  0  0  0  0
  193.1630  176.0960  138.1300 C   0  0  1  0  0  3  0  0  0  0  0  0
  193.7690  175.0030  136.1000 C   0  0  0  0  0  2  0  0  0  0  0  0
  192.5150  175.5000  135.3830 C   0  0  0  0  0  2  0  0  0  0  0  0
  191.3920  175.6780  136.4010 C   0  0  0  0  0  2  0  0  0  0  0  0
  194.1960  175.9790  137.1000 N   0  0  0  0  0  2  0  0  0  0  0  0
  1 12  1  0  0  0  0
  1 10  1  0  0  0  0
  2 13  1  1  0  0  0
  2  8  1  0  0  0  0
  2  6  1  0  0  0  0
  3 11  2  0  0  0  0
  3  8  1  0  0  0  0
  4 14  1  6  0  0  0
  4 17  1  0  0  0  0
  5 10  1  0  0  0  0
  6  5  1  0  0  0  0
  8  1  2  0  0  0  0
  9 16  1  0  0  0  0
  9  4  1  0  0  0  0
 11 18  1  0  0  0  0
 14 15  1  0  0  0  0
 15 21  1  6  0  0  0
 15 11  1  0  0  0  0
 16  7  2  0  0  0  0
 17  7  1  6  0  0  0
 17  3  1  0  0  0  0
 18 12  2  0  0  0  0
 19 20  1  0  0  0  0
 20 22  2  0  0  0  0
 21 24  2  0  0  0  0
 23 19  2  0  0  0  0
 23 21  1  0  0  0  0
 24 22  1  0  0  0  0
 25 19  1  0  0  0  0
 26 27  2  0  0  0  0
 27 16  1  0  0  0  0
 29 30  1  0  0  0  0
 29 26  1  1  0  0  0
 30 28  1  1  0  0  0
 31 34  1  0  0  0  0
 32 31  1  0  0  0  0
 32 33  1  0  0  0  0
 33 29  1  0  0  0  0
 34 30  1  0  0  0  0
M  END
>  <MODEL>
1

>  <REMARK>
 VINA RESULT:     -11.9      0.000      0.000
  Name = 
  3 active torsions:
  status: ('A' for Active; 'I' for Inactive)
    1  A    between atoms: C_3  and  C_13
    2  A    between atoms: C_12  and  C_28
    3  A    between atoms: N_17  and  C_29
                            x       y       z     vdW  Elec       q    Type
                         _______ _______ _______ _____ _____    ______ ____

>  <TORSDO>
F 3

$$$$
=
 OpenBabel10272400023D

 34 39  0  0  1  0  0  0  0  0999 V2000
  189.1640  177.0200  145.7060 C   0  0  0  0  0  0  0  0  0  0  0  0
  190.9090  176.3490  143.9980 C   0  0  2  0  0  3  0  0  0  0  0  0
  188.6240  177.3600  143.3400 C   0  0  0  0  0  0  0  0  0  0  0  0
  188.0320  177.8920  141.0680 N   0  0  1  0  0  0  0  0  0  0  0  0
  191.5320  177.0150  146.3790 C   0  0  0  0  0  2  0  0  0  0  0  0
  191.8810  176.1600  145.1730 C   0  0  0  0  0  2  0  0  0  0  0  0
  190.1700  177.0410  141.4020 N   0  0  0  0  0  0  0  0  0  0  0  0
  189.5420  176.9280  144.3480 C   0  0  0  0  0  0  0  0  0  0  0  0
  188.6490  177.6830  139.8640 O   0  0  0  0  0  0  0  0  0  0  0  0
  190.1170  176.6800  146.8080 C   0  0  0  0  0  2  0  0  0  0  0  0
  187.2980  177.7500  143.7190 C   0  0  0  0  0  0  0  0  0  0  0  0
  187.8840  177.4260  146.0580 C   0  0  0  0  0  3  0  0  0  0  0  0
  190.7430  175.1120  143.3710 O   0  0  0  0  0  1  0  0  0  0  0  0
  186.6040  177.9350  141.3090 C   0  0  0  0  0  2  0  0  0  0  0  0
  186.3430  178.0730  142.7910 C   0  0  1  0  0  3  0  0  0  0  0  0
  189.9300  177.2030  140.1350 C   0  0  0  0  0  0  0  0  0  0  0  0
  188.9540  177.4440  142.0340 C   0  0  2  0  0  3  0  0  0  0  0  0
  186.9640  177.7680  145.0790 C   0  0  0  0  0  3  0  0  0  0  0  0
  182.6540  178.8690  142.5840 C   0  0  0  0  0  0  0  0  0  0  0  0
  182.3740  179.2100  143.9110 C   0  0  0  0  0  3  0  0  0  0  0  0
  184.9720  178.4650  143.1760 C   0  0  0  0  0  0  0  0  0  0  0  0
  183.3870  179.1740  144.8710 C   0  0  0  0  0  3  0  0  0  0  0  0
  183.9500  178.4980  142.2170 C   0  0  0  0  0  3  0  0  0  0  0  0
  184.6860  178.8030  144.5050 C   0  0  0  0  0  3  0  0  0  0  0  0
  181.3820  178.9100  141.3830 Cl  0  0  0  0  0  0  0  0  0  0  0  0
  190.8000  175.8120  138.4170 C   0  0  0  0  0  3  0  0  0  0  0  0
  190.8910  176.8860  139.1300 N   0  0  0  0  0  0  0  0  0  0  0  0
  190.2150  174.6090  135.8150 N   0  0  0  0  0  1  0  0  0  0  0  0
  191.8510  175.5150  137.4040 C   0  0  1  0  0  3  0  0  0  0  0  0
  191.2760  175.5880  135.9800 C   0  0  1  0  0  3  0  0  0  0  0  0
  193.3520  176.3530  135.0910 C   0  0  0  0  0  2  0  0  0  0  0  0
  194.0380  176.2730  136.4530 C   0  0  0  0  0  2  0  0  0  0  0  0
  193.0040  176.5090  137.5510 C   0  0  0  0  0  2  0  0  0  0  0  0
  192.3190  175.3240  134.9880 N   0  0  0  0  0  2  0  0  0  0  0  0
  1 12  1  0  0  0  0
  1 10  1  0  0  0  0
  2 13  1  1  0  0  0
  2  8  1  0  0  0  0
  2  6  1  0  0  0  0
  3 11  2  0  0  0  0
  3  8  1  0  0  0  0
  4 14  1  6  0  0  0
  4 17  1  0  0  0  0
  5 10  1  0  0  0  0
  6  5  1  0  0  0  0
  8  1  2  0  0  0  0
  9 16  1  0  0  0  0
  9  4  1  0  0  0  0
 11 18  1  0  0  0  0
 14 15  1  0  0  0  0
 15 21  1  1  0  0  0
 15 11  1  0  0  0  0
 16  7  2  0  0  0  0
 17  7  1  6  0  0  0
 17  3  1  0  0  0  0
 18 12  2  0  0  0  0
 19 20  1  0  0  0  0
 20 22  2  0  0  0  0
 21 24  2  0  0  0  0
 23 19  2  0  0  0  0
 23 21  1  0  0  0  0
 24 22  1  0  0  0  0
 25 19  1  0  0  0  0
 26 27  2  0  0  0  0
 27 16  1  0  0  0  0
 29 33  1  0  0  0  0
 29 26  1  1  0  0  0
 30 28  1  1  0  0  0
 30 29  1  0  0  0  0
 31 32  1  0  0  0  0
 32 33  1  0  0  0  0
 34 31  1  0  0  0  0
 34 30  1  0  0  0  0
M  END
>  <MODEL>
2

>  <REMARK>
 VINA RESULT:     -11.0      1.282      1.587
  Name = 
  3 active torsions:
  status: ('A' for Active; 'I' for Inactive)
    1  A    between atoms: C_3  and  C_13
    2  A    between atoms: C_12  and  C_28
    3  A    between atoms: N_17  and  C_29
                            x       y       z     vdW  Elec       q    Type
                         _______ _______ _______ _____ _____    ______ ____

>  <TORSDO>
F 3

$$$$
=
 OpenBabel10272400023D

 34 39  0  0  1  0  0  0  0  0999 V2000
  186.5470  177.8170  145.0060 C   0  0  0  0  0  0  0  0  0  0  0  0
  188.6940  177.4160  143.7240 C   0  0  2  0  0  3  0  0  0  0  0  0
  186.5030  178.1680  142.5820 C   0  0  0  0  0  0  0  0  0  0  0  0
  186.3620  178.7010  140.2380 N   0  0  1  0  0  0  0  0  0  0  0  0
  188.6910  178.0730  146.1890 C   0  0  0  0  0  2  0  0  0  0  0  0
  189.4010  177.3060  145.0850 C   0  0  0  0  0  2  0  0  0  0  0  0
  188.4630  178.1010  141.0330 N   0  0  0  0  0  0  0  0  0  0  0  0
  187.2230  177.8160  143.7650 C   0  0  0  0  0  0  0  0  0  0  0  0
  187.2500  178.6070  139.2000 O   0  0  0  0  0  0  0  0  0  0  0  0
  187.2690  177.5560  146.2900 C   0  0  0  0  0  2  0  0  0  0  0  0
  185.0870  178.3830  142.6580 C   0  0  0  0  0  0  0  0  0  0  0  0
  185.1810  178.0540  145.0680 C   0  0  0  0  0  3  0  0  0  0  0  0
  188.8250  176.1910  143.0690 O   0  0  0  0  0  1  0  0  0  0  0  0
  184.9230  178.5640  140.1550 C   0  0  0  0  0  2  0  0  0  0  0  0
  184.3270  178.6210  141.5440 C   0  0  1  0  0  3  0  0  0  0  0  0
  188.4900  178.2760  139.7460 C   0  0  0  0  0  0  0  0  0  0  0  0
  187.0980  178.3350  141.3810 C   0  0  2  0  0  3  0  0  0  0  0  0
  184.4630  178.3160  143.9110 C   0  0  0  0  0  3  0  0  0  0  0  0
  180.8150  178.9240  142.9070 C   0  0  0  0  0  0  0  0  0  0  0  0
  180.0990  179.2340  141.7470 C   0  0  0  0  0  3  0  0  0  0  0  0
  182.8680  178.8320  141.6160 C   0  0  0  0  0  0  0  0  0  0  0  0
  180.7620  179.3480  140.5240 C   0  0  0  0  0  3  0  0  0  0  0  0
  182.1960  178.7240  142.8420 C   0  0  0  0  0  3  0  0  0  0  0  0
  182.1460  179.1460  140.4570 C   0  0  0  0  0  3  0  0  0  0  0  0
  179.9820  178.7870  144.4390 Cl  0  0  0  0  0  0  0  0  0  0  0  0
  190.2090  176.9470  138.7860 C   0  0  0  0  0  3  0  0  0  0  0  0
  189.6800  178.1100  138.9770 N   0  0  0  0  0  0  0  0  0  0  0  0
  192.8560  177.3750  139.9550 N   0  0  0  0  0  1  0  0  0  0  0  0
  191.4710  176.8370  138.0020 C   0  0  1  0  0  3  0  0  0  0  0  0
  192.6390  176.3990  138.9020 C   0  0  1  0  0  3  0  0  0  0  0  0
  193.6870  175.2240  137.1110 C   0  0  0  0  0  2  0  0  0  0  0  0
  192.6040  175.6410  136.1190 C   0  0  0  0  0  2  0  0  0  0  0  0
  191.2860  175.8330  136.8640 C   0  0  0  0  0  2  0  0  0  0  0  0
  193.8690  176.2650  138.1210 N   0  0  0  0  0  2  0  0  0  0  0  0
  1 12  1  0  0  0  0
  1 10  1  0  0  0  0
  2 13  1  1  0  0  0
  2  8  1  0  0  0  0
  2  6  1  0  0  0  0
  3 11  2  0  0  0  0
  3  8  1  0  0  0  0
  4 14  1  6  0  0  0
  4 17  1  0  0  0  0
  5 10  1  0  0  0  0
  6  5  1  0  0  0  0
  8  1  2  0  0  0  0
  9 16  1  0  0  0  0
  9  4  1  0  0  0  0
 11 18  1  0  0  0  0
 14 15  1  0  0  0  0
 15 21  1  6  0  0  0
 15 11  1  0  0  0  0
 16  7  2  0  0  0  0
 17  7  1  6  0  0  0
 17  3  1  0  0  0  0
 18 12  2  0  0  0  0
 19 25  1  0  0  0  0
 20 19  2  0  0  0  0
 21 23  2  0  0  0  0
 22 20  1  0  0  0  0
 23 19  1  0  0  0  0
 24 22  2  0  0  0  0
 24 21  1  0  0  0  0
 26 27  2  0  0  0  0
 27 16  1  0  0  0  0
 29 26  1  1  0  0  0
 29 30  1  0  0  0  0
 30 28  1  1  0  0  0
 31 34  1  0  0  0  0
 32 33  1  0  0  0  0
 32 31  1  0  0  0  0
 33 29  1  0  0  0  0
 34 30  1  0  0  0  0
M  END
>  <MODEL>
3

>  <REMARK>
 VINA RESULT:     -10.7      1.183      1.785
  Name = 
  3 active torsions:
  status: ('A' for Active; 'I' for Inactive)
    1  A    between atoms: C_3  and  C_13
    2  A    between atoms: C_12  and  C_28
    3  A    between atoms: N_17  and  C_29
                            x       y       z     vdW  Elec       q    Type
                         _______ _______ _______ _____ _____    ______ ____

>  <TORSDO>
F 3

$$$$
=
 OpenBabel10272400023D

 34 39  0  0  1  0  0  0  0  0999 V2000
  186.2190  178.4210  140.2360 C   0  0  0  0  0  0  0  0  0  0  0  0
  188.0520  178.3030  138.4930 C   0  0  2  0  0  3  0  0  0  0  0  0
  188.4790  177.8620  141.0020 C   0  0  0  0  0  0  0  0  0  0  0  0
  190.6120  177.1500  141.8640 N   0  0  1  0  0  0  0  0  0  0  0  0
  185.6040  177.8870  137.9130 C   0  0  0  0  0  2  0  0  0  0  0  0
  186.9470  178.4070  137.4300 C   0  0  0  0  0  2  0  0  0  0  0  0
  190.4730  177.4270  139.5590 N   0  0  0  0  0  0  0  0  0  0  0  0
  187.5800  178.1840  139.9380 C   0  0  0  0  0  0  0  0  0  0  0  0
  191.8460  176.9840  141.2930 O   0  0  0  0  0  0  0  0  0  0  0  0
  185.2130  178.6620  139.1570 C   0  0  0  0  0  2  0  0  0  0  0  0
  188.0130  177.9160  142.3560 C   0  0  0  0  0  0  0  0  0  0  0  0
  185.7770  178.4430  141.5520 C   0  0  0  0  0  3  0  0  0  0  0  0
  188.8820  179.4190  138.3650 O   0  0  0  0  0  1  0  0  0  0  0  0
  190.3400  177.5380  143.2320 C   0  0  0  0  0  2  0  0  0  0  0  0
  188.8510  177.7200  143.4220 C   0  0  1  0  0  3  0  0  0  0  0  0
  191.6870  177.1330  139.9160 C   0  0  0  0  0  0  0  0  0  0  0  0
  189.7570  177.4800  140.7940 C   0  0  2  0  0  3  0  0  0  0  0  0
  186.6630  178.2110  142.5930 C   0  0  0  0  0  3  0  0  0  0  0  0
  186.5720  178.0230  146.4210 C   0  0  0  0  0  0  0  0  0  0  0  0
  187.4870  177.9100  147.4720 C   0  0  0  0  0  3  0  0  0  0  0  0
  188.3780  177.7850  144.8190 C   0  0  0  0  0  0  0  0  0  0  0  0
  188.8440  177.7300  147.2000 C   0  0  0  0  0  3  0  0  0  0  0  0
  187.0150  177.9610  145.0980 C   0  0  0  0  0  3  0  0  0  0  0  0
  189.2910  177.6680  145.8750 C   0  0  0  0  0  3  0  0  0  0  0  0
  184.8700  178.2430  146.7640 Cl  0  0  0  0  0  0  0  0  0  0  0  0
  192.7430  176.0980  138.0570 C   0  0  0  0  0  3  0  0  0  0  0  0
  192.7510  177.0080  138.9740 N   0  0  0  0  0  0  0  0  0  0  0  0
  195.2840  174.8450  138.7890 N   0  0  0  0  0  1  0  0  0  0  0  0
  193.8970  175.9920  137.1210 C   0  0  1  0  0  3  0  0  0  0  0  0
  194.7510  174.7540  137.4410 C   0  0  1  0  0  3  0  0  0  0  0  0
  195.3390  174.4640  135.1480 C   0  0  0  0  0  2  0  0  0  0  0  0
  194.5580  175.7070  134.7240 C   0  0  0  0  0  2  0  0  0  0  0  0
  193.3870  175.9150  135.6810 C   0  0  0  0  0  2  0  0  0  0  0  0
  195.8660  174.6400  136.5000 N   0  0  0  0  0  2  0  0  0  0  0  0
  1 12  1  0  0  0  0
  2 13  1  1  0  0  0
  2  8  1  0  0  0  0
  3 11  2  0  0  0  0
  4 14  1  1  0  0  0
  5 10  1  0  0  0  0
  6  5  1  0  0  0  0
  6  2  1  0  0  0  0
  7 16  2  0  0  0  0
  8  1  2  0  0  0  0
  8  3  1  0  0  0  0
  9  4  1  0  0  0  0
 10  1  1  0  0  0  0
 11 18  1  0  0  0  0
 11 15  1  0  0  0  0
 12 18  2  0  0  0  0
 14 15  1  0  0  0  0
 15 21  1  1  0  0  0
 16  9  1  0  0  0  0
 17  7  1  1  0  0  0
 17  3  1  0  0  0  0
 17  4  1  0  0  0  0
 19 25  1  0  0  0  0
 19 20  1  0  0  0  0
 21 23  1  0  0  0  0
 21 24  2  0  0  0  0
 22 20  2  0  0  0  0
 23 19  2  0  0  0  0
 24 22  1  0  0  0  0
 26 27  2  0  0  0  0
 27 16  1  0  0  0  0
 29 30  1  0  0  0  0
 29 26  1  1  0  0  0
 30 28  1  1  0  0  0
 31 34  1  0  0  0  0
 32 31  1  0  0  0  0
 32 33  1  0  0  0  0
 33 29  1  0  0  0  0
 34 30  1  0  0  0  0
M  END
>  <MODEL>
4

>  <REMARK>
 VINA RESULT:     -10.5      2.382      4.866
  Name = 
  3 active torsions:
  status: ('A' for Active; 'I' for Inactive)
    1  A    between atoms: C_3  and  C_13
    2  A    between atoms: C_12  and  C_28
    3  A    between atoms: N_17  and  C_29
                            x       y       z     vdW  Elec       q    Type
                         _______ _______ _______ _____ _____    ______ ____

>  <TORSDO>
F 3

$$$$
=
 OpenBabel10272400023D

 34 39  0  0  1  0  0  0  0  0999 V2000
  184.1790  178.5750  143.1680 C   0  0  0  0  0  0  0  0  0  0  0  0
  184.8330  178.6290  140.7230 C   0  0  2  0  0  3  0  0  0  0  0  0
  186.5060  178.0540  142.6060 C   0  0  0  0  0  0  0  0  0  0  0  0
  188.7750  177.3700  142.1800 N   0  0  1  0  0  0  0  0  0  0  0  0
  182.4420  178.1600  141.4740 C   0  0  0  0  0  2  0  0  0  0  0  0
  183.3360  178.7560  140.4000 C   0  0  0  0  0  2  0  0  0  0  0  0
  187.4550  177.7790  140.3100 N   0  0  0  0  0  0  0  0  0  0  0  0
  185.1850  178.4060  142.1900 C   0  0  0  0  0  0  0  0  0  0  0  0
  189.5310  177.2830  141.0410 O   0  0  0  0  0  0  0  0  0  0  0  0
  182.7570  178.8440  142.7900 C   0  0  0  0  0  2  0  0  0  0  0  0
  186.8140  178.0100  144.0050 C   0  0  0  0  0  0  0  0  0  0  0  0
  184.4880  178.5030  144.5200 C   0  0  0  0  0  3  0  0  0  0  0  0
  185.4750  179.7790  140.2610 O   0  0  0  0  0  1  0  0  0  0  0  0
  189.2570  177.6660  143.5140 C   0  0  0  0  0  2  0  0  0  0  0  0
  188.0850  177.7810  144.4620 C   0  0  1  0  0  3  0  0  0  0  0  0
  188.6770  177.5090  139.9620 C   0  0  0  0  0  0  0  0  0  0  0  0
  187.4880  177.7320  141.7370 C   0  0  2  0  0  3  0  0  0  0  0  0
  185.7860  178.2410  144.9290 C   0  0  0  0  0  3  0  0  0  0  0  0
  190.0030  177.3670  147.6930 C   0  0  0  0  0  0  0  0  0  0  0  0
  189.0200  177.6800  148.6350 C   0  0  0  0  0  3  0  0  0  0  0  0
  188.4100  177.7460  145.9020 C   0  0  0  0  0  0  0  0  0  0  0  0
  187.7350  178.0310  148.2160 C   0  0  0  0  0  3  0  0  0  0  0  0
  189.7000  177.3990  146.3300 C   0  0  0  0  0  3  0  0  0  0  0  0
  187.4280  178.0630  146.8500 C   0  0  0  0  0  3  0  0  0  0  0  0
  191.6140  176.9330  148.2200 Cl  0  0  0  0  0  0  0  0  0  0  0  0
  189.9700  176.6290  138.1730 C   0  0  0  0  0  3  0  0  0  0  0  0
  189.0940  177.4780  138.5980 N   0  0  0  0  0  0  0  0  0  0  0  0
  192.7700  176.5330  137.3330 N   0  0  0  0  0  1  0  0  0  0  0  0
  190.3920  176.6660  136.7450 C   0  0  1  0  0  3  0  0  0  0  0  0
  191.7190  175.9140  136.5460 C   0  0  1  0  0  3  0  0  0  0  0  0
  191.0990  175.2330  134.3470 C   0  0  0  0  0  2  0  0  0  0  0  0
  189.7720  175.9850  134.4180 C   0  0  0  0  0  2  0  0  0  0  0  0
  189.3040  176.0420  135.8700 C   0  0  0  0  0  2  0  0  0  0  0  0
  192.1130  175.9280  135.1370 N   0  0  0  0  0  2  0  0  0  0  0  0
  1 12  1  0  0  0  0
  2 13  1  1  0  0  0
  2  8  1  0  0  0  0
  3 11  2  0  0  0  0
  4 14  1  1  0  0  0
  5 10  1  0  0  0  0
  6  2  1  0  0  0  0
  6  5  1  0  0  0  0
  8  3  1  0  0  0  0
  8  1  2  0  0  0  0
  9  4  1  0  0  0  0
 10  1  1  0  0  0  0
 11 15  1  0  0  0  0
 11 18  1  0  0  0  0
 12 18  2  0  0  0  0
 14 15  1  0  0  0  0
 15 21  1  1  0  0  0
 16  7  2  0  0  0  0
 16  9  1  0  0  0  0
 17  7  1  6  0  0  0
 17  4  1  0  0  0  0
 17  3  1  0  0  0  0
 19 25  1  0  0  0  0
 19 20  1  0  0  0  0
 21 23  1  0  0  0  0
 21 24  2  0  0  0  0
 22 20  2  0  0  0  0
 23 19  2  0  0  0  0
 24 22  1  0  0  0  0
 26 27  2  0  0  0  0
 27 16  1  0  0  0  0
 29 26  1  1  0  0  0
 30 29  1  0  0  0  0
 30 28  1  1  0  0  0
 31 32  1  0  0  0  0
 31 34  1  0  0  0  0
 32 33  1  0  0  0  0
 33 29  1  0  0  0  0
 34 30  1  0  0  0  0
M  END
>  <MODEL>
5

>  <REMARK>
 VINA RESULT:     -10.3      2.736      5.389
  Name = 
  3 active torsions:
  status: ('A' for Active; 'I' for Inactive)
    1  A    between atoms: C_3  and  C_13
    2  A    between atoms: C_12  and  C_28
    3  A    between atoms: N_17  and  C_29
                            x       y       z     vdW  Elec       q    Type
                         _______ _______ _______ _____ _____    ______ ____

>  <TORSDO>
F 3

$$$$
=
 OpenBabel10272400023D

 34 39  0  0  1  0  0  0  0  0999 V2000
  184.8520  178.6850  144.4290 C   0  0  0  0  0  0  0  0  0  0  0  0
  184.9700  178.7320  141.8990 C   0  0  2  0  0  3  0  0  0  0  0  0
  186.9630  178.0160  143.3790 C   0  0  0  0  0  0  0  0  0  0  0  0
  189.0350  177.1870  142.4750 N   0  0  1  0  0  0  0  0  0  0  0  0
  182.7680  178.4140  143.1460 C   0  0  0  0  0  2  0  0  0  0  0  0
  183.4510  178.9650  141.9060 C   0  0  0  0  0  2  0  0  0  0  0  0
  187.3770  177.7130  140.9320 N   0  0  0  0  0  0  0  0  0  0  0  0
  185.6110  178.4630  143.2570 C   0  0  0  0  0  0  0  0  0  0  0  0
  189.5210  177.0670  141.2000 O   0  0  0  0  0  0  0  0  0  0  0  0
  183.4050  179.0550  144.3650 C   0  0  0  0  0  2  0  0  0  0  0  0
  187.5600  177.9300  144.6790 C   0  0  0  0  0  0  0  0  0  0  0  0
  185.4380  178.5710  145.6820 C   0  0  0  0  0  3  0  0  0  0  0  0
  185.5760  179.8430  141.3110 O   0  0  0  0  0  1  0  0  0  0  0  0
  189.8100  177.4280  143.6740 C   0  0  0  0  0  2  0  0  0  0  0  0
  188.8800  177.6080  144.8520 C   0  0  1  0  0  3  0  0  0  0  0  0
  188.4740  177.3660  140.3300 C   0  0  0  0  0  0  0  0  0  0  0  0
  187.7110  177.6420  142.3190 C   0  0  2  0  0  3  0  0  0  0  0  0
  186.7730  178.2160  145.8020 C   0  0  0  0  0  3  0  0  0  0  0  0
  191.2640  176.7160  147.6460 C   0  0  0  0  0  0  0  0  0  0  0  0
  190.6790  177.3810  148.7270 C   0  0  0  0  0  3  0  0  0  0  0  0
  189.5030  177.5290  146.1890 C   0  0  0  0  0  0  0  0  0  0  0  0
  189.5110  178.1240  148.5420 C   0  0  0  0  0  3  0  0  0  0  0  0
  190.6780  176.7890  146.3800 C   0  0  0  0  0  3  0  0  0  0  0  0
  188.9220  178.1970  147.2740 C   0  0  0  0  0  3  0  0  0  0  0  0
  192.7300  175.7900  147.8790 Cl  0  0  0  0  0  0  0  0  0  0  0  0
  189.6800  177.6530  138.3030 C   0  0  0  0  0  3  0  0  0  0  0  0
  188.5850  177.3290  138.9080 N   0  0  0  0  0  0  0  0  0  0  0  0
  191.7100  176.1800  136.7970 N   0  0  0  0  0  1  0  0  0  0  0  0
  189.7290  177.6280  136.8150 C   0  0  1  0  0  3  0  0  0  0  0  0
  190.3490  176.3150  136.3090 C   0  0  1  0  0  3  0  0  0  0  0  0
  188.9950  176.3350  134.3460 C   0  0  0  0  0  2  0  0  0  0  0  0
  188.3460  177.6640  134.7290 C   0  0  0  0  0  2  0  0  0  0  0  0
  188.3170  177.7880  136.2500 C   0  0  0  0  0  2  0  0  0  0  0  0
  190.3670  176.2840  134.8460 N   0  0  0  0  0  2  0  0  0  0  0  0
  1 12  1  0  0  0  0
  2 13  1  1  0  0  0
  2  6  1  0  0  0  0
  2  8  1  0  0  0  0
  3 11  2  0  0  0  0
  4 14  1  1  0  0  0
  5 10  1  0  0  0  0
  6  5  1  0  0  0  0
  8  3  1  0  0  0  0
  8  1  2  0  0  0  0
  9  4  1  0  0  0  0
 10  1  1  0  0  0  0
 11 15  1  0  0  0  0
 11 18  1  0  0  0  0
 12 18  2  0  0  0  0
 14 15  1  0  0  0  0
 15 21  1  1  0  0  0
 16  7  2  0  0  0  0
 16  9  1  0  0  0  0
 17  7  1  6  0  0  0
 17  4  1  0  0  0  0
 17  3  1  0  0  0  0
 19 25  1  0  0  0  0
 19 20  1  0  0  0  0
 21 23  1  0  0  0  0
 21 24  2  0  0  0  0
 22 20  2  0  0  0  0
 23 19  2  0  0  0  0
 24 22  1  0  0  0  0
 26 27  2  0  0  0  0
 27 16  1  0  0  0  0
 29 26  1  1  0  0  0
 30 28  1  1  0  0  0
 30 29  1  0  0  0  0
 31 32  1  0  0  0  0
 31 34  1  0  0  0  0
 32 33  1  0  0  0  0
 33 29  1  0  0  0  0
 34 30  1  0  0  0  0
M  END
>  <MODEL>
6

>  <REMARK>
 VINA RESULT:     -10.1      3.127      5.820
  Name = 
  3 active torsions:
  status: ('A' for Active; 'I' for Inactive)
    1  A    between atoms: C_3  and  C_13
    2  A    between atoms: C_12  and  C_28
    3  A    between atoms: N_17  and  C_29
                            x       y       z     vdW  Elec       q    Type
                         _______ _______ _______ _____ _____    ______ ____

>  <TORSDO>
F 3

$$$$
=
 OpenBabel10272400023D

 34 39  0  0  1  0  0  0  0  0999 V2000
  189.1700  176.9630  145.6790 C   0  0  0  0  0  0  0  0  0  0  0  0
  191.3050  176.4690  144.4110 C   0  0  2  0  0  3  0  0  0  0  0  0
  189.1870  177.4080  143.2700 C   0  0  0  0  0  0  0  0  0  0  0  0
  189.1180  178.0380  140.9460 N   0  0  1  0  0  0  0  0  0  0  0  0
  191.3080  177.0300  146.8980 C   0  0  0  0  0  2  0  0  0  0  0  0
  191.9820  176.2600  145.7750 C   0  0  0  0  0  2  0  0  0  0  0  0
  191.1630  177.2690  141.7450 N   0  0  0  0  0  0  0  0  0  0  0  0
  189.8630  176.9640  144.4480 C   0  0  0  0  0  0  0  0  0  0  0  0
  190.0140  177.9250  139.9170 O   0  0  0  0  0  0  0  0  0  0  0  0
  189.8530  176.6060  146.9610 C   0  0  0  0  0  2  0  0  0  0  0  0
  187.7880  177.7150  143.3360 C   0  0  0  0  0  0  0  0  0  0  0  0
  187.8220  177.2880  145.7320 C   0  0  0  0  0  3  0  0  0  0  0  0
  191.3650  175.2630  143.7090 O   0  0  0  0  0  1  0  0  0  0  0  0
  187.6740  178.0020  140.8400 C   0  0  0  0  0  2  0  0  0  0  0  0
  187.0630  178.0450  142.2220 C   0  0  1  0  0  3  0  0  0  0  0  0
  191.2200  177.4910  140.4660 C   0  0  0  0  0  0  0  0  0  0  0  0
  189.8100  177.5800  142.0850 C   0  0  2  0  0  3  0  0  0  0  0  0
  187.1410  177.6420  144.5770 C   0  0  0  0  0  3  0  0  0  0  0  0
  183.6130  178.7890  143.5760 C   0  0  0  0  0  0  0  0  0  0  0  0
  182.8810  178.9310  142.3950 C   0  0  0  0  0  3  0  0  0  0  0  0
  185.6190  178.3510  142.2840 C   0  0  0  0  0  0  0  0  0  0  0  0
  183.5140  178.7880  141.1580 C   0  0  0  0  0  3  0  0  0  0  0  0
  184.9790  178.5000  143.5220 C   0  0  0  0  0  3  0  0  0  0  0  0
  184.8820  178.4970  141.1010 C   0  0  0  0  0  3  0  0  0  0  0  0
  182.8190  178.9740  145.1250 Cl  0  0  0  0  0  0  0  0  0  0  0  0
  192.4150  176.5300  138.6520 C   0  0  0  0  0  3  0  0  0  0  0  0
  192.4090  177.2750  139.7070 N   0  0  0  0  0  0  0  0  0  0  0  0
  194.8990  175.7230  139.9710 N   0  0  0  0  0  1  0  0  0  0  0  0
  193.6930  176.3130  137.9170 C   0  0  1  0  0  3  0  0  0  0  0  0
  194.5660  175.2690  138.6330 C   0  0  1  0  0  3  0  0  0  0  0  0
  195.4840  174.5020  136.5700 C   0  0  0  0  0  2  0  0  0  0  0  0
  194.6980  175.5330  135.7620 C   0  0  0  0  0  2  0  0  0  0  0  0
  193.3950  175.8520  136.4900 C   0  0  0  0  0  2  0  0  0  0  0  0
  195.8060  175.0390  137.8900 N   0  0  0  0  0  2  0  0  0  0  0  0
  1 12  1  0  0  0  0
  1 10  1  0  0  0  0
  2 13  1  1  0  0  0
  2  8  1  0  0  0  0
  2  6  1  0  0  0  0
  3 11  2  0  0  0  0
  3  8  1  0  0  0  0
  4 14  1  6  0  0  0
  4 17  1  0  0  0  0
  5 10  1  0  0  0  0
  6  5  1  0  0  0  0
  8  1  2  0  0  0  0
  9 16  1  0  0  0  0
  9  4  1  0  0  0  0
 11 18  1  0  0  0  0
 14 15  1  0  0  0  0
 15 21  1  6  0  0  0
 15 11  1  0  0  0  0
 16  7  2  0  0  0  0
 17  7  1  6  0  0  0
 17  3  1  0  0  0  0
 18 12  2  0  0  0  0
 19 25  1  0  0  0  0
 20 19  2  0  0  0  0
 21 23  2  0  0  0  0
 22 20  1  0  0  0  0
 23 19  1  0  0  0  0
 24 22  2  0  0  0  0
 24 21  1  0  0  0  0
 26 27  2  0  0  0  0
 27 16  1  0  0  0  0
 29 30  1  0  0  0  0
 29 26  1  1  0  0  0
 30 28  1  1  0  0  0
 31 34  1  0  0  0  0
 32 33  1  0  0  0  0
 32 31  1  0  0  0  0
 33 29  1  0  0  0  0
 34 30  1  0  0  0  0
M  END
>  <MODEL>
7

>  <REMARK>
 VINA RESULT:     -10.1      1.528      2.046
  Name = 
  3 active torsions:
  status: ('A' for Active; 'I' for Inactive)
    1  A    between atoms: C_3  and  C_13
    2  A    between atoms: C_12  and  C_28
    3  A    between atoms: N_17  and  C_29
                            x       y       z     vdW  Elec       q    Type
                         _______ _______ _______ _____ _____    ______ ____

>  <TORSDO>
F 3

$$$$
=
 OpenBabel10272400023D

 34 39  0  0  1  0  0  0  0  0999 V2000
  184.6850  178.7030  143.9500 C   0  0  0  0  0  0  0  0  0  0  0  0
  184.9980  178.6860  141.4370 C   0  0  2  0  0  3  0  0  0  0  0  0
  186.8750  178.0250  143.0840 C   0  0  0  0  0  0  0  0  0  0  0  0
  189.0160  177.1880  142.3660 N   0  0  1  0  0  0  0  0  0  0  0  0
  182.7090  178.3840  142.5180 C   0  0  0  0  0  2  0  0  0  0  0  0
  183.4820  178.9080  141.3200 C   0  0  0  0  0  2  0  0  0  0  0  0
  187.4790  177.6620  140.6860 N   0  0  0  0  0  0  0  0  0  0  0  0
  185.5340  178.4580  142.8470 C   0  0  0  0  0  0  0  0  0  0  0  0
  189.6000  177.0400  141.1370 O   0  0  0  0  0  0  0  0  0  0  0  0
  183.2450  179.0600  143.7640 C   0  0  0  0  0  2  0  0  0  0  0  0
  187.3700  177.9760  144.4290 C   0  0  0  0  0  0  0  0  0  0  0  0
  185.1720  178.6260  145.2480 C   0  0  0  0  0  3  0  0  0  0  0  0
  185.6420  179.7870  140.8690 O   0  0  0  0  0  1  0  0  0  0  0  0
  189.6940  177.4670  143.6150 C   0  0  0  0  0  2  0  0  0  0  0  0
  188.6740  177.6690  144.7120 C   0  0  1  0  0  3  0  0  0  0  0  0
  188.6220  177.3080  140.1800 C   0  0  0  0  0  0  0  0  0  0  0  0
  187.7060  177.6290  142.0970 C   0  0  2  0  0  3  0  0  0  0  0  0
  186.4960  178.2850  145.4800 C   0  0  0  0  0  3  0  0  0  0  0  0
  190.8710  176.9160  147.6950 C   0  0  0  0  0  0  0  0  0  0  0  0
  190.1680  177.5550  148.7190 C   0  0  0  0  0  3  0  0  0  0  0  0
  189.1920  177.6290  146.0950 C   0  0  0  0  0  0  0  0  0  0  0  0
  188.9810  178.2340  148.4360 C   0  0  0  0  0  3  0  0  0  0  0  0
  190.3850  176.9530  146.3850 C   0  0  0  0  0  3  0  0  0  0  0  0
  188.4920  178.2710  147.1250 C   0  0  0  0  0  3  0  0  0  0  0  0
  192.3600  176.0700  148.0520 Cl  0  0  0  0  0  0  0  0  0  0  0  0
  188.1890  176.4120  138.0230 C   0  0  0  0  0  3  0  0  0  0  0  0
  188.8440  177.2360  138.7720 N   0  0  0  0  0  0  0  0  0  0  0  0
  187.1030  178.3280  136.0980 N   0  0  0  0  0  1  0  0  0  0  0  0
  188.4860  176.3560  136.5640 C   0  0  1  0  0  3  0  0  0  0  0  0
  188.4290  177.7600  135.9390 C   0  0  1  0  0  3  0  0  0  0  0  0
  190.1160  177.2090  134.3460 C   0  0  0  0  0  2  0  0  0  0  0  0
  190.2220  175.7730  134.8580 C   0  0  0  0  0  2  0  0  0  0  0  0
  189.8690  175.7430  136.3420 C   0  0  0  0  0  2  0  0  0  0  0  0
  188.7500  177.7020  134.5120 N   0  0  0  0  0  2  0  0  0  0  0  0
  1 12  1  0  0  0  0
  2 13  1  1  0  0  0
  2  8  1  0  0  0  0
  3 11  2  0  0  0  0
  4 14  1  1  0  0  0
  5 10  1  0  0  0  0
  6  2  1  0  0  0  0
  6  5  1  0  0  0  0
  8  3  1  0  0  0  0
  8  1  2  0  0  0  0
  9  4  1  0  0  0  0
 10  1  1  0  0  0  0
 11 15  1  0  0  0  0
 11 18  1  0  0  0  0
 12 18  2  0  0  0  0
 14 15  1  0  0  0  0
 15 21  1  1  0  0  0
 16  7  2  0  0  0  0
 16  9  1  0  0  0  0
 17  7  1  6  0  0  0
 17  4  1  0  0  0  0
 17  3  1  0  0  0  0
 19 25  1  0  0  0  0
 19 20  1  0  0  0  0
 21 23  1  0  0  0  0
 21 24  2  0  0  0  0
 22 20  2  0  0  0  0
 23 19  2  0  0  0  0
 24 22  1  0  0  0  0
 26 27  2  0  0  0  0
 27 16  1  0  0  0  0
 29 26  1  1  0  0  0
 30 28  1  6  0  0  0
 30 29  1  0  0  0  0
 31 34  1  0  0  0  0
 31 32  1  0  0  0  0
 32 33  1  0  0  0  0
 33 29  1  0  0  0  0
 34 30  1  0  0  0  0
M  END
>  <MODEL>
8

>  <REMARK>
 VINA RESULT:     -10.1      3.168      5.876
  Name = 
  3 active torsions:
  status: ('A' for Active; 'I' for Inactive)
    1  A    between atoms: C_3  and  C_13
    2  A    between atoms: C_12  and  C_28
    3  A    between atoms: N_17  and  C_29
                            x       y       z     vdW  Elec       q    Type
                         _______ _______ _______ _____ _____    ______ ____

>  <TORSDO>
F 3

$$$$
=
 OpenBabel10272400023D

 34 39  0  0  1  0  0  0  0  0999 V2000
  185.7800  178.6200  140.1570 C   0  0  0  0  0  0  0  0  0  0  0  0
  187.5320  178.1890  138.3800 C   0  0  2  0  0  3  0  0  0  0  0  0
  187.9520  177.7550  140.8920 C   0  0  0  0  0  0  0  0  0  0  0  0
  189.9770  176.7580  141.7300 N   0  0  1  0  0  0  0  0  0  0  0  0
  185.0360  178.1240  137.8640 C   0  0  0  0  0  2  0  0  0  0  0  0
  186.4290  178.4280  137.3380 C   0  0  0  0  0  2  0  0  0  0  0  0
  189.8240  176.9940  139.4210 N   0  0  0  0  0  0  0  0  0  0  0  0
  187.0840  178.1780  139.8380 C   0  0  0  0  0  0  0  0  0  0  0  0
  191.1590  176.3980  141.1390 O   0  0  0  0  0  0  0  0  0  0  0  0
  184.7940  178.9800  139.0920 C   0  0  0  0  0  2  0  0  0  0  0  0
  187.5320  177.9110  142.2540 C   0  0  0  0  0  0  0  0  0  0  0  0
  185.3790  178.7410  141.4810 C   0  0  0  0  0  3  0  0  0  0  0  0
  188.5130  179.1670  138.2040 O   0  0  0  0  0  1  0  0  0  0  0  0
  189.7990  177.2170  143.0920 C   0  0  0  0  0  2  0  0  0  0  0  0
  188.3580  177.6210  143.3070 C   0  0  1  0  0  3  0  0  0  0  0  0
  190.9900  176.5340  139.7620 C   0  0  0  0  0  0  0  0  0  0  0  0
  189.1540  177.1830  140.6690 C   0  0  2  0  0  3  0  0  0  0  0  0
  186.2470  178.4080  142.5090 C   0  0  0  0  0  3  0  0  0  0  0  0
  188.4820  177.9890  147.0670 C   0  0  0  0  0  0  0  0  0  0  0  0
  187.1240  178.1140  147.3730 C   0  0  0  0  0  3  0  0  0  0  0  0
  187.9340  177.7910  144.7110 C   0  0  0  0  0  0  0  0  0  0  0  0
  186.1710  178.0830  146.3530 C   0  0  0  0  0  3  0  0  0  0  0  0
  188.8870  177.8280  145.7390 C   0  0  0  0  0  3  0  0  0  0  0  0
  186.5740  177.9210  145.0220 C   0  0  0  0  0  3  0  0  0  0  0  0
  189.6750  178.0330  148.3460 Cl  0  0  0  0  0  0  0  0  0  0  0  0
  191.8360  175.3070  137.9120 C   0  0  0  0  0  3  0  0  0  0  0  0
  192.0010  176.2290  138.8020 N   0  0  0  0  0  0  0  0  0  0  0  0
  191.6980  175.9560  135.0630 N   0  0  0  0  0  1  0  0  0  0  0  0
  192.9390  175.0080  136.9560 C   0  0  1  0  0  3  0  0  0  0  0  0
  192.9490  176.0210  135.7980 C   0  0  1  0  0  3  0  0  0  0  0  0
  195.3210  175.8830  135.5890 C   0  0  0  0  0  2  0  0  0  0  0  0
  195.4220  174.8360  136.6970 C   0  0  0  0  0  2  0  0  0  0  0  0
  194.2810  175.0430  137.6880 C   0  0  0  0  0  2  0  0  0  0  0  0
  194.0520  175.7400  134.8780 N   0  0  0  0  0  2  0  0  0  0  0  0
  1 12  1  0  0  0  0
  2 13  1  1  0  0  0
  2  8  1  0  0  0  0
  3 11  2  0  0  0  0
  4 14  1  1  0  0  0
  5 10  1  0  0  0  0
  6  5  1  0  0  0  0
  6  2  1  0  0  0  0
  7 16  2  0  0  0  0
  8  1  2  0  0  0  0
  8  3  1  0  0  0  0
  9  4  1  0  0  0  0
 10  1  1  0  0  0  0
 11 18  1  0  0  0  0
 11 15  1  0  0  0  0
 12 18  2  0  0  0  0
 14 15  1  0  0  0  0
 15 21  1  1  0  0  0
 16  9  1  0  0  0  0
 17  7  1  1  0  0  0
 17  3  1  0  0  0  0
 17  4  1  0  0  0  0
 19 20  1  0  0  0  0
 19 25  1  0  0  0  0
 21 24  2  0  0  0  0
 21 23  1  0  0  0  0
 22 20  2  0  0  0  0
 23 19  2  0  0  0  0
 24 22  1  0  0  0  0
 26 27  2  0  0  0  0
 27 16  1  0  0  0  0
 29 33  1  0  0  0  0
 29 26  1  1  0  0  0
 30 28  1  6  0  0  0
 30 29  1  0  0  0  0
 31 32  1  0  0  0  0
 32 33  1  0  0  0  0
 34 31  1  0  0  0  0
 34 30  1  0  0  0  0
M  END
>  <MODEL>
9

>  <REMARK>
 VINA RESULT:      -9.7      2.792      5.179
  Name = 
  3 active torsions:
  status: ('A' for Active; 'I' for Inactive)
    1  A    between atoms: C_3  and  C_13
    2  A    between atoms: C_12  and  C_28
    3  A    between atoms: N_17  and  C_29
                            x       y       z     vdW  Elec       q    Type
                         _______ _______ _______ _____ _____    ______ ____

>  <TORSDO>
F 3

$$$$
