=
 OpenBabel10272413313D

 32 35  0  0  1  0  0  0  0  0999 V2000
  188.1740  176.2570  143.1520 C   0  0  0  0  0  2  0  0  0  0  0  0
  184.6150  179.1690  140.3380 C   0  0  0  0  0  1  0  0  0  0  0  0
  184.3360  178.7650  142.8660 C   0  0  0  0  0  3  0  0  0  0  0  0
  190.5290  176.7430  140.3080 N   0  0  0  0  0  0  0  0  0  0  0  0
  188.3490  177.7290  140.3740 C   0  0  0  0  0  0  0  0  0  0  0  0
  189.5640  177.8380  138.2690 C   0  0  0  0  0  0  0  0  0  0  0  0
  185.1450  178.8840  141.6620 N   0  0  0  0  0  0  0  0  0  0  0  0
  187.3630  178.1710  141.0920 C   0  0  0  0  0  0  0  0  0  0  0  0
  186.4730  178.5290  141.9730 C   0  0  0  0  0  0  0  0  0  0  0  0
  187.8210  177.5440  143.8940 C   0  0  1  0  0  3  0  0  0  0  0  0
  191.3550  176.1090  138.1040 C   0  0  0  0  0  1  0  0  0  0  0  0
  188.4470  178.0910  138.9630 C   0  0  0  0  0  3  0  0  0  0  0  0
  190.7780  177.2330  138.9450 C   0  0  2  0  0  3  0  0  0  0  0  0
  185.3030  178.2860  143.9710 C   0  0  0  0  0  3  0  0  0  0  0  0
  186.6050  178.1420  143.3250 N   0  0  0  0  0  0  0  0  0  0  0  0
  189.4520  176.9670  141.0000 C   0  0  0  0  0  0  0  0  0  0  0  0
  189.3760  176.4240  142.3350 N   0  0  0  0  0  2  0  0  0  0  0  0
  189.6590  178.1790  136.9130 O   0  0  0  0  0  0  0  0  0  0  0  0
  188.6850  177.8210  135.9380 C   0  0  0  0  0  2  0  0  0  0  0  0
  187.5900  175.5650  136.1700 C   0  0  0  0  0  0  0  0  0  0  0  0
  188.6820  176.3780  135.7420 N   0  0  0  0  0  2  0  0  0  0  0  0
  186.5920  176.0790  136.7430 O   0  0  0  0  0  0  0  0  0  0  0  0
  187.6240  174.0990  135.9300 C   0  0  0  0  0  1  0  0  0  0  0  0
  187.6730  177.2530  145.3820 C   0  0  0  0  0  2  0  0  0  0  0  0
  190.1270  177.6020  145.5160 C   0  0  1  0  0  3  0  0  0  0  0  0
  188.9510  177.2070  147.4880 C   0  0  1  0  0  3  0  0  0  0  0  0
  190.2240  176.5040  147.4270 N   0  0  0  0  0  2  0  0  0  0  0  0
  191.0060  177.1440  146.5100 O   0  0  0  0  0  0  0  0  0  0  0  0
  188.9890  178.2350  148.6030 C   0  0  0  0  0  1  0  0  0  0  0  0
  188.8010  177.8990  146.1710 C   0  0  2  0  0  3  0  0  0  0  0  0
  191.5620  178.7210  143.8290 C   0  0  0  0  0  2  0  0  0  0  0  0
  190.6850  178.8150  144.8320 C   0  0  0  0  0  3  0  0  0  0  0  0
  1 10  1  0  0  0  0
  2  7  1  0  0  0  0
  3 14  2  0  0  0  0
  4 16  2  0  0  0  0
  5 16  1  0  0  0  0
  5  8  2  0  0  0  0
  6 13  1  0  0  0  0
  6 12  2  0  0  0  0
  7  9  1  0  0  0  0
  7  3  1  0  0  0  0
  8  9  2  0  0  0  0
  9 15  1  0  0  0  0
 10 24  1  1  0  0  0
 12  5  1  0  0  0  0
 13 11  1  6  0  0  0
 13  4  1  0  0  0  0
 15 10  1  0  0  0  0
 15 14  1  0  0  0  0
 16 17  1  0  0  0  0
 17  1  1  0  0  0  0
 18  6  1  0  0  0  0
 19 18  1  0  0  0  0
 20 22  2  0  0  0  0
 21 19  1  0  0  0  0
 21 20  1  0  0  0  0
 23 20  1  0  0  0  0
 25 32  1  1  0  0  0
 25 30  1  0  0  0  0
 25 28  1  0  0  0  0
 26 29  1  1  0  0  0
 27 26  1  0  0  0  0
 28 27  1  0  0  0  0
 30 24  1  6  0  0  0
 30 26  1  0  0  0  0
 31 32  2  0  0  0  0
M  END
>  <MODEL>
1

>  <REMARK>
 VINA RESULT:      -8.7      0.000      0.000
  Name = 
  6 active torsions:
  status: ('A' for Active; 'I' for Inactive)
    1  A    between atoms: O_2  and  C_12
    2  A    between atoms: O_2  and  C_24
    3  A    between atoms: C_7  and  C_29
    4  A    between atoms: N_10  and  C_24
    5  A    between atoms: C_16  and  C_27
    6  A    between atoms: C_27  and  C_32
                            x       y       z     vdW  Elec       q    Type
                         _______ _______ _______ _____ _____    ______ ____

>  <TORSDO>
F 6

$$$$
=
 OpenBabel10272413313D

 32 35  0  0  1  0  0  0  0  0999 V2000
  185.6020  179.0930  141.0690 C   0  0  0  0  0  2  0  0  0  0  0  0
  185.9000  178.5420  146.4240 C   0  0  0  0  0  1  0  0  0  0  0  0
  183.6690  179.0390  145.2360 C   0  0  0  0  0  3  0  0  0  0  0  0
  188.9210  177.4110  140.9060 N   0  0  0  0  0  0  0  0  0  0  0  0
  187.7350  177.7510  142.9570 C   0  0  0  0  0  0  0  0  0  0  0  0
  190.0450  177.0010  143.1090 C   0  0  0  0  0  0  0  0  0  0  0  0
  185.0210  178.5010  145.2660 N   0  0  0  0  0  0  0  0  0  0  0  0
  186.5950  177.9100  143.5550 C   0  0  0  0  0  0  0  0  0  0  0  0
  185.3720  178.0880  143.9650 C   0  0  0  0  0  0  0  0  0  0  0  0
  184.4760  178.1990  141.5850 C   0  0  1  0  0  3  0  0  0  0  0  0
  191.3530  177.4970  141.0430 C   0  0  0  0  0  1  0  0  0  0  0  0
  188.9220  177.3890  143.7270 C   0  0  0  0  0  3  0  0  0  0  0  0
  190.0930  176.8610  141.6010 C   0  0  2  0  0  3  0  0  0  0  0  0
  183.2090  178.9270  143.7670 C   0  0  0  0  0  3  0  0  0  0  0  0
  184.3360  178.3460  143.0410 N   0  0  0  0  0  0  0  0  0  0  0  0
  187.8230  177.8030  141.4800 C   0  0  0  0  0  0  0  0  0  0  0  0
  186.7590  178.3050  140.6450 N   0  0  0  0  0  2  0  0  0  0  0  0
  191.1880  176.6590  143.8460 O   0  0  0  0  0  0  0  0  0  0  0  0
  191.4850  177.1880  145.1340 C   0  0  0  0  0  2  0  0  0  0  0  0
  192.0310  176.2860  147.4210 C   0  0  0  0  0  0  0  0  0  0  0  0
  191.9840  176.1320  146.0040 N   0  0  0  0  0  2  0  0  0  0  0  0
  191.6450  177.3560  147.9640 O   0  0  0  0  0  0  0  0  0  0  0  0
  192.5300  175.1710  148.2680 C   0  0  0  0  0  1  0  0  0  0  0  0
  183.1840  178.5270  140.8480 C   0  0  0  0  0  2  0  0  0  0  0  0
  183.1750  178.1940  138.3890 C   0  0  1  0  0  3  0  0  0  0  0  0
  181.4800  177.2120  139.6500 C   0  0  1  0  0  3  0  0  0  0  0  0
  181.0050  177.7970  138.4050 N   0  0  0  0  0  2  0  0  0  0  0  0
  182.0740  177.9080  137.5660 O   0  0  0  0  0  0  0  0  0  0  0  0
  181.2920  175.7070  139.6100 C   0  0  0  0  0  1  0  0  0  0  0  0
  182.9390  177.5340  139.7240 C   0  0  2  0  0  3  0  0  0  0  0  0
  184.5930  176.4650  137.3120 C   0  0  0  0  0  2  0  0  0  0  0  0
  184.4490  177.7160  137.7580 C   0  0  0  0  0  3  0  0  0  0  0  0
  1 10  1  0  0  0  0
  3  7  1  0  0  0  0
  4 16  2  0  0  0  0
  4 13  1  0  0  0  0
  5  8  2  0  0  0  0
  5 12  1  0  0  0  0
  6 12  2  0  0  0  0
  6 18  1  0  0  0  0
  7  2  1  0  0  0  0
  8  9  2  0  0  0  0
  9  7  1  0  0  0  0
 10 24  1  6  0  0  0
 10 15  1  0  0  0  0
 13 11  1  6  0  0  0
 13  6  1  0  0  0  0
 14  3  2  0  0  0  0
 15 14  1  0  0  0  0
 15  9  1  0  0  0  0
 16  5  1  0  0  0  0
 17  1  1  0  0  0  0
 17 16  1  0  0  0  0
 18 19  1  0  0  0  0
 19 21  1  0  0  0  0
 20 22  2  0  0  0  0
 20 23  1  0  0  0  0
 21 20  1  0  0  0  0
 25 32  1  6  0  0  0
 25 30  1  0  0  0  0
 26 29  1  6  0  0  0
 26 30  1  0  0  0  0
 27 26  1  0  0  0  0
 28 25  1  0  0  0  0
 28 27  1  0  0  0  0
 30 24  1  1  0  0  0
 31 32  2  0  0  0  0
M  END
>  <MODEL>
2

>  <REMARK>
 VINA RESULT:      -8.3      2.879      7.797
  Name = 
  6 active torsions:
  status: ('A' for Active; 'I' for Inactive)
    1  A    between atoms: O_2  and  C_12
    2  A    between atoms: O_2  and  C_24
    3  A    between atoms: C_7  and  C_29
    4  A    between atoms: N_10  and  C_24
    5  A    between atoms: C_16  and  C_27
    6  A    between atoms: C_27  and  C_32
                            x       y       z     vdW  Elec       q    Type
                         _______ _______ _______ _____ _____    ______ ____

>  <TORSDO>
F 6

$$$$
=
 OpenBabel10272413313D

 32 35  0  0  1  0  0  0  0  0999 V2000
  184.4600  178.1200  141.2090 C   0  0  0  0  0  2  0  0  0  0  0  0
  189.6910  176.8150  141.1390 C   0  0  0  0  0  1  0  0  0  0  0  0
  188.4110  177.3950  138.9810 C   0  0  0  0  0  3  0  0  0  0  0  0
  184.8600  178.7260  144.8630 N   0  0  0  0  0  0  0  0  0  0  0  0
  186.6830  178.1060  143.4410 C   0  0  0  0  0  0  0  0  0  0  0  0
  187.0700  178.0630  145.8420 C   0  0  0  0  0  0  0  0  0  0  0  0
  188.6160  177.4780  140.4190 N   0  0  0  0  0  0  0  0  0  0  0  0
  187.1960  178.1030  142.2490 C   0  0  0  0  0  0  0  0  0  0  0  0
  187.5260  178.1660  140.9920 C   0  0  0  0  0  0  0  0  0  0  0  0
  185.2480  179.0890  140.3290 C   0  0  1  0  0  3  0  0  0  0  0  0
  184.9540  177.8980  147.1540 C   0  0  0  0  0  1  0  0  0  0  0  0
  187.5260  177.8420  144.6030 C   0  0  0  0  0  3  0  0  0  0  0  0
  185.6950  178.6590  146.0700 C   0  0  2  0  0  3  0  0  0  0  0  0
  187.0650  178.1010  138.7100 C   0  0  0  0  0  3  0  0  0  0  0  0
  186.5710  178.5300  140.0170 N   0  0  0  0  0  0  0  0  0  0  0  0
  185.2730  178.5070  143.6500 C   0  0  0  0  0  0  0  0  0  0  0  0
  184.3210  178.6310  142.5740 N   0  0  0  0  0  2  0  0  0  0  0  0
  187.8760  177.8040  146.9600 O   0  0  0  0  0  0  0  0  0  0  0  0
  189.2610  178.1250  147.0280 C   0  0  0  0  0  2  0  0  0  0  0  0
  191.2830  176.6260  146.9480 C   0  0  0  0  0  0  0  0  0  0  0  0
  190.0180  176.9770  147.5060 N   0  0  0  0  0  2  0  0  0  0  0  0
  191.7820  177.3040  146.0100 O   0  0  0  0  0  0  0  0  0  0  0  0
  192.0270  175.4570  147.4850 C   0  0  0  0  0  1  0  0  0  0  0  0
  184.4480  179.4040  139.0720 C   0  0  0  0  0  2  0  0  0  0  0  0
  183.0210  177.7970  137.8280 C   0  0  1  0  0  3  0  0  0  0  0  0
  182.0000  179.6070  138.8820 C   0  0  1  0  0  3  0  0  0  0  0  0
  181.4540  179.3260  137.5620 N   0  0  0  0  0  2  0  0  0  0  0  0
  181.7630  178.0350  137.2530 O   0  0  0  0  0  0  0  0  0  0  0  0
  180.9380  179.3590  139.9370 C   0  0  0  0  0  1  0  0  0  0  0  0
  183.1300  178.6460  139.0700 C   0  0  2  0  0  3  0  0  0  0  0  0
  182.5310  175.7440  139.1320 C   0  0  0  0  0  2  0  0  0  0  0  0
  183.1970  176.3410  138.1410 C   0  0  0  0  0  3  0  0  0  0  0  0
  1 17  1  0  0  0  0
  3  7  1  0  0  0  0
  4 13  1  0  0  0  0
  5 16  1  0  0  0  0
  5 12  1  0  0  0  0
  6 13  1  0  0  0  0
  6 18  1  0  0  0  0
  7  9  1  0  0  0  0
  7  2  1  0  0  0  0
  8  5  2  0  0  0  0
  9  8  2  0  0  0  0
 10 24  1  6  0  0  0
 10  1  1  0  0  0  0
 12  6  2  0  0  0  0
 13 11  1  1  0  0  0
 14  3  2  0  0  0  0
 14 15  1  0  0  0  0
 15 10  1  0  0  0  0
 15  9  1  0  0  0  0
 16  4  2  0  0  0  0
 17 16  1  0  0  0  0
 18 19  1  0  0  0  0
 19 21  1  0  0  0  0
 20 23  1  0  0  0  0
 20 21  1  0  0  0  0
 22 20  2  0  0  0  0
 25 32  1  1  0  0  0
 25 30  1  0  0  0  0
 26 30  1  0  0  0  0
 26 29  1  1  0  0  0
 27 26  1  0  0  0  0
 28 27  1  0  0  0  0
 28 25  1  0  0  0  0
 30 24  1  6  0  0  0
 32 31  2  0  0  0  0
M  END
>  <MODEL>
3

>  <REMARK>
 VINA RESULT:      -8.1      2.698      8.760
  Name = 
  6 active torsions:
  status: ('A' for Active; 'I' for Inactive)
    1  A    between atoms: O_2  and  C_12
    2  A    between atoms: O_2  and  C_24
    3  A    between atoms: C_7  and  C_29
    4  A    between atoms: N_10  and  C_24
    5  A    between atoms: C_16  and  C_27
    6  A    between atoms: C_27  and  C_32
                            x       y       z     vdW  Elec       q    Type
                         _______ _______ _______ _____ _____    ______ ____

>  <TORSDO>
F 6

$$$$
=
 OpenBabel10272413313D

 32 35  0  0  1  0  0  0  0  0999 V2000
  185.2250  179.2360  140.7730 C   0  0  0  0  0  2  0  0  0  0  0  0
  185.7150  178.6490  146.1100 C   0  0  0  0  0  1  0  0  0  0  0  0
  183.4370  179.1190  145.0040 C   0  0  0  0  0  3  0  0  0  0  0  0
  188.5630  177.6090  140.4830 N   0  0  0  0  0  0  0  0  0  0  0  0
  187.4430  177.9140  142.5770 C   0  0  0  0  0  0  0  0  0  0  0  0
  189.7680  177.2010  142.6440 C   0  0  0  0  0  0  0  0  0  0  0  0
  184.7980  178.6020  144.9830 N   0  0  0  0  0  0  0  0  0  0  0  0
  186.3210  178.0500  143.2140 C   0  0  0  0  0  0  0  0  0  0  0  0
  185.1100  178.2050  143.6670 C   0  0  0  0  0  0  0  0  0  0  0  0
  184.1320  178.3190  141.3200 C   0  0  1  0  0  3  0  0  0  0  0  0
  190.9960  177.7340  140.5380 C   0  0  0  0  0  1  0  0  0  0  0  0
  188.6610  177.5660  143.3020 C   0  0  0  0  0  3  0  0  0  0  0  0
  189.7670  177.0730  141.1330 C   0  0  2  0  0  3  0  0  0  0  0  0
  182.9280  179.0100  143.5500 C   0  0  0  0  0  3  0  0  0  0  0  0
  184.0390  178.4530  142.7810 N   0  0  0  0  0  0  0  0  0  0  0  0
  187.4790  177.9790  141.0980 C   0  0  0  0  0  0  0  0  0  0  0  0
  186.3790  178.4690  140.3040 N   0  0  0  0  0  2  0  0  0  0  0  0
  190.9410  176.8720  143.3380 O   0  0  0  0  0  0  0  0  0  0  0  0
  191.3680  177.5330  144.5250 C   0  0  0  0  0  2  0  0  0  0  0  0
  191.4870  176.4490  146.7940 C   0  0  0  0  0  0  0  0  0  0  0  0
  191.9490  176.5710  145.4500 N   0  0  0  0  0  2  0  0  0  0  0  0
  190.5600  177.1860  147.2250 O   0  0  0  0  0  0  0  0  0  0  0  0
  192.0990  175.4370  147.6950 C   0  0  0  0  0  1  0  0  0  0  0  0
  182.8100  178.6320  140.6310 C   0  0  0  0  0  2  0  0  0  0  0  0
  181.6520  178.8950  138.4510 C   0  0  1  0  0  3  0  0  0  0  0  0
  183.1910  177.1630  138.6910 C   0  0  1  0  0  3  0  0  0  0  0  0
  181.9930  176.7710  137.9620 N   0  0  0  0  0  2  0  0  0  0  0  0
  181.4110  177.9070  137.4830 O   0  0  0  0  0  0  0  0  0  0  0  0
  184.3940  177.0950  137.7680 C   0  0  0  0  0  1  0  0  0  0  0  0
  182.9660  178.5770  139.1190 C   0  0  2  0  0  3  0  0  0  0  0  0
  181.4770  181.3680  138.5430 C   0  0  0  0  0  2  0  0  0  0  0  0
  181.6690  180.2590  137.8260 C   0  0  0  0  0  3  0  0  0  0  0  0
  1 10  1  0  0  0  0
  4 16  2  0  0  0  0
  4 13  1  0  0  0  0
  5  8  2  0  0  0  0
  5 12  1  0  0  0  0
  6 12  2  0  0  0  0
  6 18  1  0  0  0  0
  7  3  1  0  0  0  0
  7  2  1  0  0  0  0
  8  9  2  0  0  0  0
  9  7  1  0  0  0  0
 10 24  1  6  0  0  0
 10 15  1  0  0  0  0
 13 11  1  6  0  0  0
 13  6  1  0  0  0  0
 14  3  2  0  0  0  0
 15 14  1  0  0  0  0
 15  9  1  0  0  0  0
 16  5  1  0  0  0  0
 17  1  1  0  0  0  0
 17 16  1  0  0  0  0
 18 19  1  0  0  0  0
 19 21  1  0  0  0  0
 20 22  2  0  0  0  0
 20 23  1  0  0  0  0
 21 20  1  0  0  0  0
 25 32  1  6  0  0  0
 25 30  1  0  0  0  0
 26 29  1  6  0  0  0
 26 30  1  0  0  0  0
 27 26  1  0  0  0  0
 28 27  1  0  0  0  0
 28 25  1  0  0  0  0
 30 24  1  1  0  0  0
 32 31  2  0  0  0  0
M  END
>  <MODEL>
4

>  <REMARK>
 VINA RESULT:      -8.0      2.848      7.823
  Name = 
  6 active torsions:
  status: ('A' for Active; 'I' for Inactive)
    1  A    between atoms: O_2  and  C_12
    2  A    between atoms: O_2  and  C_24
    3  A    between atoms: C_7  and  C_29
    4  A    between atoms: N_10  and  C_24
    5  A    between atoms: C_16  and  C_27
    6  A    between atoms: C_27  and  C_32
                            x       y       z     vdW  Elec       q    Type
                         _______ _______ _______ _____ _____    ______ ____

>  <TORSDO>
F 6

$$$$
=
 OpenBabel10272413313D

 32 35  0  0  1  0  0  0  0  0999 V2000
  185.5740  179.7250  142.3310 C   0  0  0  0  0  2  0  0  0  0  0  0
  189.1700  176.9540  145.2380 C   0  0  0  0  0  1  0  0  0  0  0  0
  186.9520  177.7770  146.2560 C   0  0  0  0  0  3  0  0  0  0  0  0
  187.3490  178.4770  139.3030 N   0  0  0  0  0  0  0  0  0  0  0  0
  187.9610  177.8350  141.5260 C   0  0  0  0  0  0  0  0  0  0  0  0
  189.4830  177.2320  139.7270 C   0  0  0  0  0  0  0  0  0  0  0  0
  187.7780  177.3600  145.1320 N   0  0  0  0  0  0  0  0  0  0  0  0
  187.5960  177.6530  142.7580 C   0  0  0  0  0  0  0  0  0  0  0  0
  187.0550  177.5660  143.9390 C   0  0  0  0  0  0  0  0  0  0  0  0
  184.8850  178.6300  143.1430 C   0  0  1  0  0  3  0  0  0  0  0  0
  189.1710  178.6420  137.6920 C   0  0  0  0  0  1  0  0  0  0  0  0
  189.2050  177.2500  141.0370 C   0  0  0  0  0  3  0  0  0  0  0  0
  188.4840  177.7540  138.7140 C   0  0  2  0  0  3  0  0  0  0  0  0
  185.6290  178.2770  145.6370 C   0  0  0  0  0  3  0  0  0  0  0  0
  185.7860  178.1320  144.1910 N   0  0  0  0  0  0  0  0  0  0  0  0
  187.0610  178.5190  140.5700 C   0  0  0  0  0  0  0  0  0  0  0  0
  185.8970  179.2650  140.9800 N   0  0  0  0  0  2  0  0  0  0  0  0
  190.6800  176.6770  139.2550 O   0  0  0  0  0  0  0  0  0  0  0  0
  190.7640  175.8390  138.1060 C   0  0  0  0  0  2  0  0  0  0  0  0
  193.2560  175.5500  137.8840 C   0  0  0  0  0  0  0  0  0  0  0  0
  191.9650  175.0180  138.1740 N   0  0  0  0  0  2  0  0  0  0  0  0
  193.3930  176.7570  137.5490 O   0  0  0  0  0  0  0  0  0  0  0  0
  194.4540  174.6770  137.9880 C   0  0  0  0  0  1  0  0  0  0  0  0
  183.5780  179.1650  143.7170 C   0  0  0  0  0  2  0  0  0  0  0  0
  182.3800  178.8880  141.5610 C   0  0  1  0  0  3  0  0  0  0  0  0
  181.1250  179.1690  143.5030 C   0  0  1  0  0  3  0  0  0  0  0  0
  180.6010  179.9130  142.3660 N   0  0  0  0  0  2  0  0  0  0  0  0
  181.0910  179.3350  141.2330 O   0  0  0  0  0  0  0  0  0  0  0  0
  180.1290  178.1000  143.9140 C   0  0  0  0  0  1  0  0  0  0  0  0
  182.3860  178.5240  143.0240 C   0  0  2  0  0  3  0  0  0  0  0  0
  181.8830  177.0550  139.9630 C   0  0  0  0  0  2  0  0  0  0  0  0
  182.7730  177.7210  140.7030 C   0  0  0  0  0  3  0  0  0  0  0  0
  1 10  1  0  0  0  0
  4 16  2  0  0  0  0
  5  8  2  0  0  0  0
  6 12  2  0  0  0  0
  7  2  1  0  0  0  0
  7  3  1  0  0  0  0
  8  9  2  0  0  0  0
  9 15  1  0  0  0  0
  9  7  1  0  0  0  0
 10 24  1  1  0  0  0
 10 15  1  0  0  0  0
 12  5  1  0  0  0  0
 13 11  1  6  0  0  0
 13  4  1  0  0  0  0
 13  6  1  0  0  0  0
 14  3  2  0  0  0  0
 15 14  1  0  0  0  0
 16 17  1  0  0  0  0
 16  5  1  0  0  0  0
 17  1  1  0  0  0  0
 18  6  1  0  0  0  0
 19 21  1  0  0  0  0
 19 18  1  0  0  0  0
 20 23  1  0  0  0  0
 20 21  1  0  0  0  0
 22 20  2  0  0  0  0
 25 32  1  6  0  0  0
 25 30  1  0  0  0  0
 26 29  1  6  0  0  0
 27 26  1  0  0  0  0
 28 25  1  0  0  0  0
 28 27  1  0  0  0  0
 30 26  1  0  0  0  0
 30 24  1  1  0  0  0
 31 32  2  0  0  0  0
M  END
>  <MODEL>
5

>  <REMARK>
 VINA RESULT:      -8.0      2.666      6.031
  Name = 
  6 active torsions:
  status: ('A' for Active; 'I' for Inactive)
    1  A    between atoms: O_2  and  C_12
    2  A    between atoms: O_2  and  C_24
    3  A    between atoms: C_7  and  C_29
    4  A    between atoms: N_10  and  C_24
    5  A    between atoms: C_16  and  C_27
    6  A    between atoms: C_27  and  C_32
                            x       y       z     vdW  Elec       q    Type
                         _______ _______ _______ _____ _____    ______ ____

>  <TORSDO>
F 6

$$$$
=
 OpenBabel10272413313D

 32 35  0  0  1  0  0  0  0  0999 V2000
  187.0620  177.9820  139.0280 C   0  0  0  0  0  2  0  0  0  0  0  0
  190.5360  176.3080  142.7950 C   0  0  0  0  0  1  0  0  0  0  0  0
  191.2260  176.5390  140.3250 C   0  0  0  0  0  3  0  0  0  0  0  0
  184.9580  179.2730  141.8180 N   0  0  0  0  0  0  0  0  0  0  0  0
  187.0940  178.2500  142.1660 C   0  0  0  0  0  0  0  0  0  0  0  0
  185.7150  178.6580  144.1280 C   0  0  0  0  0  0  0  0  0  0  0  0
  190.4010  176.8920  141.4700 N   0  0  0  0  0  0  0  0  0  0  0  0
  188.2700  177.9710  141.6940 C   0  0  0  0  0  0  0  0  0  0  0  0
  189.3750  177.7580  141.0390 C   0  0  0  0  0  0  0  0  0  0  0  0
  188.4050  178.6950  138.8810 C   0  0  1  0  0  3  0  0  0  0  0  0
  183.2970  178.9130  143.5650 C   0  0  0  0  0  1  0  0  0  0  0  0
  186.8410  178.1610  143.6010 C   0  0  0  0  0  3  0  0  0  0  0  0
  184.7070  179.3860  143.2610 C   0  0  2  0  0  3  0  0  0  0  0  0
  190.6000  177.2740  139.1190 C   0  0  0  0  0  3  0  0  0  0  0  0
  189.4410  177.9900  139.6480 N   0  0  0  0  0  0  0  0  0  0  0  0
  186.0370  178.7870  141.2800 C   0  0  0  0  0  0  0  0  0  0  0  0
  186.1280  178.7630  139.8400 N   0  0  0  0  0  2  0  0  0  0  0  0
  185.4660  178.5680  145.5040 O   0  0  0  0  0  0  0  0  0  0  0  0
  185.9880  177.5370  146.3360 C   0  0  0  0  0  2  0  0  0  0  0  0
  188.1980  177.7790  147.5190 C   0  0  0  0  0  0  0  0  0  0  0  0
  186.8170  178.1130  147.3850 N   0  0  0  0  0  2  0  0  0  0  0  0
  188.7400  176.9590  146.7290 O   0  0  0  0  0  0  0  0  0  0  0  0
  189.0080  178.4090  148.5930 C   0  0  0  0  0  1  0  0  0  0  0  0
  188.7630  178.8110  137.4050 C   0  0  0  0  0  2  0  0  0  0  0  0
  189.1710  177.1130  135.6400 C   0  0  1  0  0  3  0  0  0  0  0  0
  187.1050  178.1900  135.6920 C   0  0  1  0  0  3  0  0  0  0  0  0
  187.6340  178.0240  134.3460 N   0  0  0  0  0  2  0  0  0  0  0  0
  188.5530  177.0170  134.3840 O   0  0  0  0  0  0  0  0  0  0  0  0
  185.8370  177.3710  135.8450 C   0  0  0  0  0  1  0  0  0  0  0  0
  188.1580  177.6620  136.6130 C   0  0  2  0  0  3  0  0  0  0  0  0
  188.8940  174.8560  136.6330 C   0  0  0  0  0  2  0  0  0  0  0  0
  189.6890  175.7760  136.0820 C   0  0  0  0  0  3  0  0  0  0  0  0
  1 17  1  0  0  0  0
  3  7  1  0  0  0  0
  4 13  1  0  0  0  0
  5 12  1  0  0  0  0
  6 18  1  0  0  0  0
  7  2  1  0  0  0  0
  8  5  2  0  0  0  0
  9  7  1  0  0  0  0
  9  8  2  0  0  0  0
 10 24  1  6  0  0  0
 10  1  1  0  0  0  0
 10 15  1  0  0  0  0
 12  6  2  0  0  0  0
 13 11  1  6  0  0  0
 13  6  1  0  0  0  0
 14 15  1  0  0  0  0
 14  3  2  0  0  0  0
 15  9  1  0  0  0  0
 16  4  2  0  0  0  0
 16  5  1  0  0  0  0
 17 16  1  0  0  0  0
 18 19  1  0  0  0  0
 19 21  1  0  0  0  0
 20 23  1  0  0  0  0
 21 20  1  0  0  0  0
 22 20  2  0  0  0  0
 25 32  1  1  0  0  0
 25 30  1  0  0  0  0
 26 29  1  6  0  0  0
 26 30  1  0  0  0  0
 27 28  1  0  0  0  0
 27 26  1  0  0  0  0
 28 25  1  0  0  0  0
 30 24  1  6  0  0  0
 32 31  2  0  0  0  0
M  END
>  <MODEL>
6

>  <REMARK>
 VINA RESULT:      -7.6      1.925      8.713
  Name = 
  6 active torsions:
  status: ('A' for Active; 'I' for Inactive)
    1  A    between atoms: O_2  and  C_12
    2  A    between atoms: O_2  and  C_24
    3  A    between atoms: C_7  and  C_29
    4  A    between atoms: N_10  and  C_24
    5  A    between atoms: C_16  and  C_27
    6  A    between atoms: C_27  and  C_32
                            x       y       z     vdW  Elec       q    Type
                         _______ _______ _______ _____ _____    ______ ____

>  <TORSDO>
F 6

$$$$
=
 OpenBabel10272413313D

 32 35  0  0  1  0  0  0  0  0999 V2000
  190.2720  178.0030  139.0940 C   0  0  0  0  0  2  0  0  0  0  0  0
  185.2020  178.8830  140.7020 C   0  0  0  0  0  1  0  0  0  0  0  0
  185.8410  178.8300  138.2080 C   0  0  0  0  0  3  0  0  0  0  0  0
  190.9220  176.6780  142.5140 N   0  0  0  0  0  0  0  0  0  0  0  0
  188.7610  177.4140  141.7930 C   0  0  0  0  0  0  0  0  0  0  0  0
  189.0580  176.9650  144.1660 C   0  0  0  0  0  0  0  0  0  0  0  0
  186.0480  178.4560  139.5990 N   0  0  0  0  0  0  0  0  0  0  0  0
  187.9360  177.6060  140.8110 C   0  0  0  0  0  0  0  0  0  0  0  0
  187.2690  177.7600  139.7030 C   0  0  0  0  0  0  0  0  0  0  0  0
  189.2920  177.1630  138.2780 C   0  0  1  0  0  3  0  0  0  0  0  0
  191.4520  177.0410  144.8650 C   0  0  0  0  0  1  0  0  0  0  0  0
  188.2700  177.3840  143.1680 C   0  0  0  0  0  3  0  0  0  0  0  0
  190.4550  176.4470  143.8880 C   0  0  2  0  0  3  0  0  0  0  0  0
  187.0740  178.2970  137.4460 C   0  0  0  0  0  3  0  0  0  0  0  0
  187.9220  177.6650  138.4540 N   0  0  0  0  0  0  0  0  0  0  0  0
  190.1810  177.0920  141.5290 C   0  0  0  0  0  0  0  0  0  0  0  0
  190.7980  177.2530  140.2350 N   0  0  0  0  0  2  0  0  0  0  0  0
  188.5910  176.9410  145.4870 O   0  0  0  0  0  0  0  0  0  0  0  0
  187.8250  177.9890  146.0740 C   0  0  0  0  0  2  0  0  0  0  0  0
  185.4350  178.7830  146.0880 C   0  0  0  0  0  0  0  0  0  0  0  0
  186.4800  177.9970  145.5160 N   0  0  0  0  0  2  0  0  0  0  0  0
  185.6480  179.4910  147.1080 O   0  0  0  0  0  0  0  0  0  0  0  0
  184.0840  178.7740  145.4690 C   0  0  0  0  0  1  0  0  0  0  0  0
  189.7170  177.1590  136.8140 C   0  0  0  0  0  2  0  0  0  0  0  0
  189.3250  174.7410  137.2180 C   0  0  1  0  0  3  0  0  0  0  0  0
  191.4730  175.4400  136.6520 C   0  0  1  0  0  3  0  0  0  0  0  0
  191.4540  174.4310  137.7000 N   0  0  0  0  0  2  0  0  0  0  0  0
  190.2610  173.7770  137.6230 O   0  0  0  0  0  0  0  0  0  0  0  0
  192.1430  174.8750  135.4130 C   0  0  0  0  0  1  0  0  0  0  0  0
  190.0410  175.7470  136.3530 C   0  0  2  0  0  3  0  0  0  0  0  0
  186.9230  174.5140  136.6390 C   0  0  0  0  0  2  0  0  0  0  0  0
  188.1830  174.1000  136.4860 C   0  0  0  0  0  3  0  0  0  0  0  0
  1 17  1  0  0  0  0
  3  7  1  0  0  0  0
  4 13  1  0  0  0  0
  5 12  1  0  0  0  0
  6 18  1  0  0  0  0
  7  9  1  0  0  0  0
  7  2  1  0  0  0  0
  8  5  2  0  0  0  0
  9  8  2  0  0  0  0
 10 24  1  6  0  0  0
 10 15  1  0  0  0  0
 10  1  1  0  0  0  0
 12  6  2  0  0  0  0
 13  6  1  0  0  0  0
 13 11  1  1  0  0  0
 14  3  2  0  0  0  0
 14 15  1  0  0  0  0
 15  9  1  0  0  0  0
 16  5  1  0  0  0  0
 16  4  2  0  0  0  0
 17 16  1  0  0  0  0
 18 19  1  0  0  0  0
 20 22  2  0  0  0  0
 21 19  1  0  0  0  0
 21 20  1  0  0  0  0
 23 20  1  0  0  0  0
 25 32  1  6  0  0  0
 25 28  1  0  0  0  0
 26 29  1  6  0  0  0
 26 27  1  0  0  0  0
 28 27  1  0  0  0  0
 30 26  1  0  0  0  0
 30 24  1  1  0  0  0
 30 25  1  0  0  0  0
 32 31  2  0  0  0  0
M  END
>  <MODEL>
7

>  <REMARK>
 VINA RESULT:      -7.4      2.220      7.723
  Name = 
  6 active torsions:
  status: ('A' for Active; 'I' for Inactive)
    1  A    between atoms: O_2  and  C_12
    2  A    between atoms: O_2  and  C_24
    3  A    between atoms: C_7  and  C_29
    4  A    between atoms: N_10  and  C_24
    5  A    between atoms: C_16  and  C_27
    6  A    between atoms: C_27  and  C_32
                            x       y       z     vdW  Elec       q    Type
                         _______ _______ _______ _____ _____    ______ ____

>  <TORSDO>
F 6

$$$$
=
 OpenBabel10272413313D

 32 35  0  0  1  0  0  0  0  0999 V2000
  187.9470  177.8950  143.7050 C   0  0  0  0  0  2  0  0  0  0  0  0
  188.9610  178.7820  138.4840 C   0  0  0  0  0  1  0  0  0  0  0  0
  190.7360  177.7770  140.0570 C   0  0  0  0  0  3  0  0  0  0  0  0
  184.3320  178.1810  142.8510 N   0  0  0  0  0  0  0  0  0  0  0  0
  186.0690  178.3050  141.2090 C   0  0  0  0  0  0  0  0  0  0  0  0
  183.8200  178.9110  140.5080 C   0  0  0  0  0  0  0  0  0  0  0  0
  189.3580  178.0370  139.6680 N   0  0  0  0  0  0  0  0  0  0  0  0
  187.2750  177.9800  140.8570 C   0  0  0  0  0  0  0  0  0  0  0  0
  188.5060  177.5870  140.6980 C   0  0  0  0  0  0  0  0  0  0  0  0
  188.6400  176.6880  143.0750 C   0  0  1  0  0  3  0  0  0  0  0  0
  182.3530  179.5390  142.4270 C   0  0  0  0  0  1  0  0  0  0  0  0
  185.1200  178.7890  140.2120 C   0  0  0  0  0  3  0  0  0  0  0  0
  183.2890  178.4860  141.8630 C   0  0  2  0  0  3  0  0  0  0  0  0
  190.6590  177.1200  141.4520 C   0  0  0  0  0  3  0  0  0  0  0  0
  189.2370  177.0610  141.7850 N   0  0  0  0  0  0  0  0  0  0  0  0
  185.6010  178.0660  142.5930 C   0  0  0  0  0  0  0  0  0  0  0  0
  186.4910  177.7460  143.6820 N   0  0  0  0  0  2  0  0  0  0  0  0
  182.9070  179.3820  139.5540 O   0  0  0  0  0  0  0  0  0  0  0  0
  181.9420  178.5570  138.9090 C   0  0  0  0  0  2  0  0  0  0  0  0
  182.8140  176.2380  138.4590 C   0  0  0  0  0  0  0  0  0  0  0  0
  182.6080  177.5890  138.0500 N   0  0  0  0  0  2  0  0  0  0  0  0
  182.4280  175.8440  139.5930 O   0  0  0  0  0  0  0  0  0  0  0  0
  183.4800  175.2810  137.5380 C   0  0  0  0  0  1  0  0  0  0  0  0
  189.6740  176.1290  144.0450 C   0  0  0  0  0  2  0  0  0  0  0  0
  191.5630  177.3440  145.1000 C   0  0  1  0  0  3  0  0  0  0  0  0
  189.7950  176.6520  146.4490 C   0  0  1  0  0  3  0  0  0  0  0  0
  191.0990  176.4530  147.0640 N   0  0  0  0  0  2  0  0  0  0  0  0
  191.9820  177.2830  146.4390 O   0  0  0  0  0  0  0  0  0  0  0  0
  189.0090  177.6800  147.2420 C   0  0  0  0  0  1  0  0  0  0  0  0
  190.0650  177.1760  145.0750 C   0  0  2  0  0  3  0  0  0  0  0  0
  191.0940  179.5640  144.0960 C   0  0  0  0  0  2  0  0  0  0  0  0
  191.9820  178.6400  144.4710 C   0  0  0  0  0  3  0  0  0  0  0  0
  2  7  1  0  0  0  0
  3 14  2  0  0  0  0
  5 16  1  0  0  0  0
  6 13  1  0  0  0  0
  7  3  1  0  0  0  0
  7  9  1  0  0  0  0
  8  5  2  0  0  0  0
  9  8  2  0  0  0  0
  9 15  1  0  0  0  0
 10  1  1  0  0  0  0
 10 24  1  1  0  0  0
 12  6  2  0  0  0  0
 12  5  1  0  0  0  0
 13 11  1  1  0  0  0
 13  4  1  0  0  0  0
 14 15  1  0  0  0  0
 15 10  1  0  0  0  0
 16  4  2  0  0  0  0
 16 17  1  0  0  0  0
 17  1  1  0  0  0  0
 18  6  1  0  0  0  0
 19 18  1  0  0  0  0
 20 22  2  0  0  0  0
 21 20  1  0  0  0  0
 21 19  1  0  0  0  0
 23 20  1  0  0  0  0
 25 32  1  1  0  0  0
 25 28  1  0  0  0  0
 26 27  1  0  0  0  0
 26 29  1  1  0  0  0
 28 27  1  0  0  0  0
 30 24  1  6  0  0  0
 30 25  1  0  0  0  0
 30 26  1  0  0  0  0
 31 32  2  0  0  0  0
M  END
>  <MODEL>
8

>  <REMARK>
 VINA RESULT:      -7.3      2.378      4.732
  Name = 
  6 active torsions:
  status: ('A' for Active; 'I' for Inactive)
    1  A    between atoms: O_2  and  C_12
    2  A    between atoms: O_2  and  C_24
    3  A    between atoms: C_7  and  C_29
    4  A    between atoms: N_10  and  C_24
    5  A    between atoms: C_16  and  C_27
    6  A    between atoms: C_27  and  C_32
                            x       y       z     vdW  Elec       q    Type
                         _______ _______ _______ _____ _____    ______ ____

>  <TORSDO>
F 6

$$$$
=
 OpenBabel10272413313D

 32 35  0  0  1  0  0  0  0  0999 V2000
  187.6000  176.8830  143.3490 C   0  0  0  0  0  2  0  0  0  0  0  0
  182.9110  179.0840  144.8470 C   0  0  0  0  0  1  0  0  0  0  0  0
  184.7040  178.4140  146.5700 C   0  0  0  0  0  3  0  0  0  0  0  0
  186.8810  178.1560  139.9230 N   0  0  0  0  0  0  0  0  0  0  0  0
  185.4510  178.5820  141.7950 C   0  0  0  0  0  0  0  0  0  0  0  0
  184.6060  179.1550  139.5870 C   0  0  0  0  0  0  0  0  0  0  0  0
  184.2880  178.8240  145.2370 N   0  0  0  0  0  0  0  0  0  0  0  0
  185.3320  178.7130  143.0800 C   0  0  0  0  0  0  0  0  0  0  0  0
  185.4050  178.7720  144.3780 C   0  0  0  0  0  0  0  0  0  0  0  0
  187.8250  177.9820  144.3860 C   0  0  1  0  0  3  0  0  0  0  0  0
  185.7800  177.9250  137.7600 C   0  0  0  0  0  1  0  0  0  0  0  0
  184.4020  179.0740  140.9070 C   0  0  0  0  0  3  0  0  0  0  0  0
  185.9520  178.8030  138.9860 C   0  0  2  0  0  3  0  0  0  0  0  0
  186.2100  178.0890  146.4540 C   0  0  0  0  0  3  0  0  0  0  0  0
  186.5590  178.3170  145.0540 N   0  0  0  0  0  0  0  0  0  0  0  0
  186.7030  178.0560  141.2070 C   0  0  0  0  0  0  0  0  0  0  0  0
  187.7250  177.4010  141.9860 N   0  0  0  0  0  2  0  0  0  0  0  0
  183.5980  179.6210  138.7320 O   0  0  0  0  0  0  0  0  0  0  0  0
  182.2110  179.3710  138.9350 C   0  0  0  0  0  2  0  0  0  0  0  0
  181.3230  177.1820  139.8080 C   0  0  0  0  0  0  0  0  0  0  0  0
  181.9300  177.9520  138.7720 N   0  0  0  0  0  2  0  0  0  0  0  0
  181.0170  177.7150  140.9090 O   0  0  0  0  0  0  0  0  0  0  0  0
  181.0380  175.7410  139.5860 C   0  0  0  0  0  1  0  0  0  0  0  0
  188.8950  177.5400  145.3750 C   0  0  0  0  0  2  0  0  0  0  0  0
  191.3600  177.3640  145.6110 C   0  0  1  0  0  3  0  0  0  0  0  0
  190.4940  178.3290  143.6750 C   0  0  1  0  0  3  0  0  0  0  0  0
  191.6590  179.0290  144.1950 N   0  0  0  0  0  2  0  0  0  0  0  0
  192.3390  178.1620  144.9980 O   0  0  0  0  0  0  0  0  0  0  0  0
  190.8240  177.7240  142.3240 C   0  0  0  0  0  1  0  0  0  0  0  0
  190.2000  177.2390  144.6560 C   0  0  2  0  0  3  0  0  0  0  0  0
  192.3570  175.7470  147.2070 C   0  0  0  0  0  2  0  0  0  0  0  0
  191.9200  176.0210  145.9760 C   0  0  0  0  0  3  0  0  0  0  0  0
  1 10  1  0  0  0  0
  2  7  1  0  0  0  0
  4 16  2  0  0  0  0
  5  8  2  0  0  0  0
  6 12  2  0  0  0  0
  7  3  1  0  0  0  0
  8  9  2  0  0  0  0
  9 15  1  0  0  0  0
  9  7  1  0  0  0  0
 10 15  1  0  0  0  0
 10 24  1  1  0  0  0
 12  5  1  0  0  0  0
 13 11  1  6  0  0  0
 13  6  1  0  0  0  0
 13  4  1  0  0  0  0
 14  3  2  0  0  0  0
 15 14  1  0  0  0  0
 16  5  1  0  0  0  0
 16 17  1  0  0  0  0
 17  1  1  0  0  0  0
 18 19  1  0  0  0  0
 18  6  1  0  0  0  0
 20 22  2  0  0  0  0
 21 19  1  0  0  0  0
 21 20  1  0  0  0  0
 23 20  1  0  0  0  0
 25 32  1  6  0  0  0
 26 29  1  6  0  0  0
 26 27  1  0  0  0  0
 26 30  1  0  0  0  0
 27 28  1  0  0  0  0
 28 25  1  0  0  0  0
 30 24  1  1  0  0  0
 30 25  1  0  0  0  0
 32 31  2  0  0  0  0
M  END
>  <MODEL>
9

>  <REMARK>
 VINA RESULT:      -7.3      2.914      4.572
  Name = 
  6 active torsions:
  status: ('A' for Active; 'I' for Inactive)
    1  A    between atoms: O_2  and  C_12
    2  A    between atoms: O_2  and  C_24
    3  A    between atoms: C_7  and  C_29
    4  A    between atoms: N_10  and  C_24
    5  A    between atoms: C_16  and  C_27
    6  A    between atoms: C_27  and  C_32
                            x       y       z     vdW  Elec       q    Type
                         _______ _______ _______ _____ _____    ______ ____

>  <TORSDO>
F 6

$$$$
