=
 OpenBabel10272400493D

 25 28  0  0  1  0  0  0  0  0999 V2000
  187.5910  177.7820  145.8640 C   0  0  0  0  0  0  0  0  0  0  0  0
  186.6140  177.8510  144.8550 C   0  0  0  0  0  0  0  0  0  0  0  0
  185.9910  178.6190  147.4840 C   0  0  0  0  0  3  0  0  0  0  0  0
  188.9280  177.3530  145.7650 C   0  0  0  0  0  0  0  0  0  0  0  0
  186.4740  178.3060  141.1370 N   0  0  0  0  0  2  0  0  0  0  0  0
  191.6080  176.5870  145.9620 C   0  0  0  0  0  3  0  0  0  0  0  0
  185.0520  178.6760  146.4990 N   0  0  0  0  0  0  0  0  0  0  0  0
  189.6050  177.4220  146.9820 C   0  0  0  0  0  0  0  0  0  0  0  0
  190.9400  177.0460  147.1070 C   0  0  0  0  0  3  0  0  0  0  0  0
  184.2510  178.3470  144.1510 C   0  0  1  0  0  3  0  0  0  0  0  0
  183.2190  179.4290  144.4200 C   0  0  0  0  0  1  0  0  0  0  0  0
  186.8690  177.3810  143.4490 C   0  0  0  0  0  2  0  0  0  0  0  0
  190.9390  176.5130  144.7280 C   0  0  0  0  0  3  0  0  0  0  0  0
  187.2670  178.1730  147.1590 C   0  0  0  0  0  0  0  0  0  0  0  0
  188.5880  178.0030  148.1930 S   0  0  0  0  0  0  0  0  0  0  0  0
  184.8210  178.5490  142.8180 N   0  0  0  0  0  0  0  0  0  0  0  0
  189.5930  176.8970  144.6220 C   0  0  0  0  0  3  0  0  0  0  0  0
  185.9960  178.1090  142.4670 C   0  0  0  0  0  0  0  0  0  0  0  0
  185.3300  178.3240  145.2060 C   0  0  0  0  0  0  0  0  0  0  0  0
  185.6950  179.0000  140.1230 C   0  0  0  0  0  2  0  0  0  0  0  0
  185.9920  178.4030  138.7640 C   0  0  0  0  0  2  0  0  0  0  0  0
  187.4390  177.9540  138.7170 C   0  0  0  0  0  2  0  0  0  0  0  0
  188.2350  178.9300  137.9920 N   0  0  0  0  0  0  0  0  0  0  0  0
  189.3790  178.2160  137.4550 C   0  0  0  0  0  1  0  0  0  0  0  0
  187.4970  179.3310  136.9310 O   0  0  0  0  0  1  0  0  0  0  0  0
  1 14  2  0  0  0  0
  2 19  2  0  0  0  0
  2  1  1  0  0  0  0
  4  1  1  0  0  0  0
  4  8  1  0  0  0  0
  5 18  1  0  0  0  0
  6  9  1  0  0  0  0
  7  3  2  0  0  0  0
  8  9  2  0  0  0  0
  8 15  1  0  0  0  0
 10 11  1  1  0  0  0
 10 19  1  0  0  0  0
 12  2  1  0  0  0  0
 13  6  2  0  0  0  0
 14  3  1  0  0  0  0
 14 15  1  0  0  0  0
 16 10  1  0  0  0  0
 17 13  1  0  0  0  0
 17  4  2  0  0  0  0
 18 16  2  0  0  0  0
 18 12  1  0  0  0  0
 19  7  1  0  0  0  0
 20  5  1  0  0  0  0
 21 20  1  0  0  0  0
 22 21  1  0  0  0  0
 23 22  1  0  0  0  0
 24 23  1  0  0  0  0
 25 23  1  0  0  0  0
M  END
>  <MODEL>
1

>  <REMARK>
 VINA RESULT:      -9.0      0.000      0.000
  Name = 
  4 active torsions:
  status: ('A' for Active; 'I' for Inactive)
    1  A    between atoms: N_2  and  C_25
    2  A    between atoms: N_6  and  C_15
    3  A    between atoms: C_15  and  C_21
    4  A    between atoms: C_21  and  C_25
                            x       y       z     vdW  Elec       q    Type
                         _______ _______ _______ _____ _____    ______ ____

>  <TORSDO>
F 4

$$$$
=
 OpenBabel10272400493D

 25 28  0  0  1  0  0  0  0  0999 V2000
  188.1630  177.6000  145.8920 C   0  0  0  0  0  0  0  0  0  0  0  0
  187.5020  177.6010  144.6500 C   0  0  0  0  0  0  0  0  0  0  0  0
  186.1870  178.5210  146.9550 C   0  0  0  0  0  3  0  0  0  0  0  0
  189.4710  177.1760  146.1910 C   0  0  0  0  0  0  0  0  0  0  0  0
  188.3970  177.8300  141.0170 N   0  0  0  0  0  2  0  0  0  0  0  0
  191.9860  176.4420  147.1650 C   0  0  0  0  0  3  0  0  0  0  0  0
  185.5560  178.5120  145.7480 N   0  0  0  0  0  0  0  0  0  0  0  0
  189.7880  177.3220  147.5410 C   0  0  0  0  0  0  0  0  0  0  0  0
  191.0320  176.9640  148.0510 C   0  0  0  0  0  3  0  0  0  0  0  0
  185.4290  178.0370  143.2940 C   0  0  1  0  0  3  0  0  0  0  0  0
  184.3740  179.1250  143.2030 C   0  0  0  0  0  1  0  0  0  0  0  0
  188.1300  177.0480  143.4000 C   0  0  0  0  0  2  0  0  0  0  0  0
  191.6820  176.2890  145.8010 C   0  0  0  0  0  3  0  0  0  0  0  0
  187.4980  178.0660  147.0220 C   0  0  0  0  0  0  0  0  0  0  0  0
  188.4810  177.9680  148.3870 S   0  0  0  0  0  0  0  0  0  0  0  0
  186.3470  178.1620  142.1600 N   0  0  0  0  0  0  0  0  0  0  0  0
  190.4210  176.6560  145.3050 C   0  0  0  0  0  3  0  0  0  0  0  0
  187.5690  177.7100  142.1730 C   0  0  0  0  0  0  0  0  0  0  0  0
  186.1760  178.0840  144.6050 C   0  0  0  0  0  0  0  0  0  0  0  0
  187.9340  178.4560  139.7890 C   0  0  0  0  0  2  0  0  0  0  0  0
  189.0620  178.4800  138.7800 C   0  0  0  0  0  2  0  0  0  0  0  0
  190.0780  177.4120  139.1350 C   0  0  0  0  0  2  0  0  0  0  0  0
  189.8780  176.2420  138.2970 N   0  0  0  0  0  0  0  0  0  0  0  0
  190.0660  176.6770  136.9250 C   0  0  0  0  0  1  0  0  0  0  0  0
  190.8880  175.3830  138.5710 O   0  0  0  0  0  1  0  0  0  0  0  0
  1  4  1  0  0  0  0
  1 14  2  0  0  0  0
  2  1  1  0  0  0  0
  3 14  1  0  0  0  0
  4  8  1  0  0  0  0
  5 18  1  0  0  0  0
  6  9  1  0  0  0  0
  7  3  2  0  0  0  0
  8  9  2  0  0  0  0
  8 15  1  0  0  0  0
 10 11  1  1  0  0  0
 10 19  1  0  0  0  0
 12  2  1  0  0  0  0
 13  6  2  0  0  0  0
 14 15  1  0  0  0  0
 16 18  2  0  0  0  0
 16 10  1  0  0  0  0
 17 13  1  0  0  0  0
 17  4  2  0  0  0  0
 18 12  1  0  0  0  0
 19  2  2  0  0  0  0
 19  7  1  0  0  0  0
 20  5  1  0  0  0  0
 21 22  1  0  0  0  0
 21 20  1  0  0  0  0
 23 25  1  0  0  0  0
 23 22  1  0  0  0  0
 24 23  1  0  0  0  0
M  END
>  <MODEL>
2

>  <REMARK>
 VINA RESULT:      -8.9      1.692      1.915
  Name = 
  4 active torsions:
  status: ('A' for Active; 'I' for Inactive)
    1  A    between atoms: N_2  and  C_25
    2  A    between atoms: N_6  and  C_15
    3  A    between atoms: C_15  and  C_21
    4  A    between atoms: C_21  and  C_25
                            x       y       z     vdW  Elec       q    Type
                         _______ _______ _______ _____ _____    ______ ____

>  <TORSDO>
F 4

$$$$
=
 OpenBabel10272400493D

 25 28  0  0  1  0  0  0  0  0999 V2000
  186.3530  178.1820  144.4360 C   0  0  0  0  0  0  0  0  0  0  0  0
  186.3940  178.1000  143.0330 C   0  0  0  0  0  0  0  0  0  0  0  0
  184.0810  179.0250  144.3310 C   0  0  0  0  0  3  0  0  0  0  0  0
  187.3550  177.8460  145.3660 C   0  0  0  0  0  0  0  0  0  0  0  0
  188.9610  178.2490  140.3050 N   0  0  0  0  0  2  0  0  0  0  0  0
  189.0810  177.2960  147.4940 C   0  0  0  0  0  3  0  0  0  0  0  0
  184.1310  178.9350  142.9730 N   0  0  0  0  0  0  0  0  0  0  0  0
  186.9580  178.0600  146.6850 C   0  0  0  0  0  0  0  0  0  0  0  0
  187.7980  177.7940  147.7620 C   0  0  0  0  0  3  0  0  0  0  0  0
  185.2500  178.3650  140.8080 C   0  0  1  0  0  3  0  0  0  0  0  0
  184.3430  179.3870  140.1440 C   0  0  0  0  0  1  0  0  0  0  0  0
  187.5750  177.5400  142.2890 C   0  0  0  0  0  2  0  0  0  0  0  0
  189.4970  177.0770  146.1680 C   0  0  0  0  0  3  0  0  0  0  0  0
  185.2020  178.6500  145.0620 C   0  0  0  0  0  0  0  0  0  0  0  0
  185.3830  178.6590  146.7380 S   0  0  0  0  0  0  0  0  0  0  0  0
  186.6040  178.5020  140.2680 N   0  0  0  0  0  0  0  0  0  0  0  0
  188.6350  177.3510  145.0950 C   0  0  0  0  0  3  0  0  0  0  0  0
  187.6730  178.1230  140.9080 C   0  0  0  0  0  0  0  0  0  0  0  0
  185.2480  178.5040  142.3110 C   0  0  0  0  0  0  0  0  0  0  0  0
  189.1460  178.8020  138.9720 C   0  0  0  0  0  2  0  0  0  0  0  0
  189.6580  177.7200  138.0450 C   0  0  0  0  0  2  0  0  0  0  0  0
  190.6690  176.8640  138.7810 C   0  0  0  0  0  2  0  0  0  0  0  0
  190.4200  175.4590  138.5050 N   0  0  0  0  0  0  0  0  0  0  0  0
  189.5730  175.4120  137.3270 C   0  0  0  0  0  1  0  0  0  0  0  0
  191.6060  174.9110  138.1490 O   0  0  0  0  0  1  0  0  0  0  0  0
  1 14  2  0  0  0  0
  1  4  1  0  0  0  0
  2  1  1  0  0  0  0
  3 14  1  0  0  0  0
  4  8  1  0  0  0  0
  5 18  1  0  0  0  0
  6  9  1  0  0  0  0
  7  3  2  0  0  0  0
  8 15  1  0  0  0  0
  8  9  2  0  0  0  0
 10 11  1  6  0  0  0
 10 19  1  0  0  0  0
 12  2  1  0  0  0  0
 13  6  2  0  0  0  0
 14 15  1  0  0  0  0
 16 10  1  0  0  0  0
 16 18  2  0  0  0  0
 17  4  2  0  0  0  0
 17 13  1  0  0  0  0
 18 12  1  0  0  0  0
 19  7  1  0  0  0  0
 19  2  2  0  0  0  0
 20  5  1  0  0  0  0
 21 22  1  0  0  0  0
 21 20  1  0  0  0  0
 23 22  1  0  0  0  0
 24 23  1  0  0  0  0
 25 23  1  0  0  0  0
M  END
>  <MODEL>
3

>  <REMARK>
 VINA RESULT:      -8.8      2.071      3.214
  Name = 
  4 active torsions:
  status: ('A' for Active; 'I' for Inactive)
    1  A    between atoms: N_2  and  C_25
    2  A    between atoms: N_6  and  C_15
    3  A    between atoms: C_15  and  C_21
    4  A    between atoms: C_21  and  C_25
                            x       y       z     vdW  Elec       q    Type
                         _______ _______ _______ _____ _____    ______ ____

>  <TORSDO>
F 4

$$$$
=
 OpenBabel10272400493D

 25 28  0  0  1  0  0  0  0  0999 V2000
  187.2920  177.8820  145.6420 C   0  0  0  0  0  0  0  0  0  0  0  0
  186.2840  177.9740  144.6660 C   0  0  0  0  0  0  0  0  0  0  0  0
  185.7300  178.6320  147.3400 C   0  0  0  0  0  3  0  0  0  0  0  0
  188.6310  177.4770  145.4870 C   0  0  0  0  0  0  0  0  0  0  0  0
  186.0250  178.5680  140.9740 N   0  0  0  0  0  2  0  0  0  0  0  0
  191.3260  176.7440  145.5750 C   0  0  0  0  0  3  0  0  0  0  0  0
  184.7610  178.7120  146.3870 N   0  0  0  0  0  0  0  0  0  0  0  0
  189.3440  177.5090  146.6850 C   0  0  0  0  0  0  0  0  0  0  0  0
  190.6860  177.1500  146.7560 C   0  0  0  0  0  3  0  0  0  0  0  0
  183.8930  178.4620  144.0520 C   0  0  1  0  0  3  0  0  0  0  0  0
  182.8550  179.5170  144.3940 C   0  0  0  0  0  1  0  0  0  0  0  0
  186.5020  177.5610  143.2360 C   0  0  0  0  0  2  0  0  0  0  0  0
  190.6210  176.7070  144.3590 C   0  0  0  0  0  3  0  0  0  0  0  0
  187.0010  178.2190  146.9610 C   0  0  0  0  0  0  0  0  0  0  0  0
  188.3550  178.0290  147.9470 S   0  0  0  0  0  0  0  0  0  0  0  0
  184.4200  178.7220  142.7110 N   0  0  0  0  0  0  0  0  0  0  0  0
  189.2670  177.0740  144.3090 C   0  0  0  0  0  3  0  0  0  0  0  0
  185.5900  178.3130  142.3090 C   0  0  0  0  0  0  0  0  0  0  0  0
  185.0040  178.4140  145.0730 C   0  0  0  0  0  0  0  0  0  0  0  0
  185.2060  179.2880  140.0110 C   0  0  0  0  0  2  0  0  0  0  0  0
  184.8830  178.3780  138.8450 C   0  0  0  0  0  2  0  0  0  0  0  0
  183.3870  178.1380  138.7940 C   0  0  0  0  0  2  0  0  0  0  0  0
  182.9920  177.2560  139.8800 N   0  0  0  0  0  0  0  0  0  0  0  0
  181.7000  177.7260  140.3460 C   0  0  0  0  0  1  0  0  0  0  0  0
  182.7860  176.0320  139.3390 O   0  0  0  0  0  1  0  0  0  0  0  0
  1 14  2  0  0  0  0
  2 19  2  0  0  0  0
  2  1  1  0  0  0  0
  4  1  1  0  0  0  0
  4  8  1  0  0  0  0
  5 18  1  0  0  0  0
  6  9  1  0  0  0  0
  7  3  2  0  0  0  0
  8  9  2  0  0  0  0
  8 15  1  0  0  0  0
 10 11  1  1  0  0  0
 10 19  1  0  0  0  0
 12  2  1  0  0  0  0
 13  6  2  0  0  0  0
 14  3  1  0  0  0  0
 14 15  1  0  0  0  0
 16 10  1  0  0  0  0
 17 13  1  0  0  0  0
 17  4  2  0  0  0  0
 18 16  2  0  0  0  0
 18 12  1  0  0  0  0
 19  7  1  0  0  0  0
 20  5  1  0  0  0  0
 21 20  1  0  0  0  0
 22 21  1  0  0  0  0
 22 23  1  0  0  0  0
 23 24  1  0  0  0  0
 25 23  1  0  0  0  0
M  END
>  <MODEL>
4

>  <REMARK>
 VINA RESULT:      -8.5      1.862      2.544
  Name = 
  4 active torsions:
  status: ('A' for Active; 'I' for Inactive)
    1  A    between atoms: N_2  and  C_25
    2  A    between atoms: N_6  and  C_15
    3  A    between atoms: C_15  and  C_21
    4  A    between atoms: C_21  and  C_25
                            x       y       z     vdW  Elec       q    Type
                         _______ _______ _______ _____ _____    ______ ____

>  <TORSDO>
F 4

$$$$
=
 OpenBabel10272400493D

 25 28  0  0  1  0  0  0  0  0999 V2000
  189.4220  177.4360  143.3680 C   0  0  0  0  0  0  0  0  0  0  0  0
  188.2560  177.4770  144.1520 C   0  0  0  0  0  0  0  0  0  0  0  0
  190.7830  177.4010  145.3760 C   0  0  0  0  0  3  0  0  0  0  0  0
  189.5390  177.4200  141.9650 C   0  0  0  0  0  0  0  0  0  0  0  0
  184.7410  178.7470  143.8560 N   0  0  0  0  0  2  0  0  0  0  0  0
  190.1680  177.3820  139.2430 C   0  0  0  0  0  3  0  0  0  0  0  0
  189.6450  177.4340  146.1240 N   0  0  0  0  0  0  0  0  0  0  0  0
  190.8640  177.3780  141.5370 C   0  0  0  0  0  0  0  0  0  0  0  0
  191.2050  177.3580  140.1870 C   0  0  0  0  0  3  0  0  0  0  0  0
  187.1600  177.4690  146.4160 C   0  0  1  0  0  3  0  0  0  0  0  0
  187.3920  178.1370  147.7610 C   0  0  0  0  0  1  0  0  0  0  0  0
  186.8770  177.4400  143.5530 C   0  0  0  0  0  2  0  0  0  0  0  0
  188.8250  177.4250  139.6590 C   0  0  0  0  0  3  0  0  0  0  0  0
  190.6660  177.4060  143.9910 C   0  0  0  0  0  0  0  0  0  0  0  0
  191.9120  177.3580  142.8570 S   0  0  0  0  0  0  0  0  0  0  0  0
  186.0410  178.1280  145.7400 N   0  0  0  0  0  0  0  0  0  0  0  0
  188.5030  177.4450  141.0260 C   0  0  0  0  0  3  0  0  0  0  0  0
  185.8780  178.1180  144.4470 C   0  0  0  0  0  0  0  0  0  0  0  0
  188.4010  177.4880  145.5570 C   0  0  0  0  0  0  0  0  0  0  0  0
  183.7270  179.4250  144.6480 C   0  0  0  0  0  2  0  0  0  0  0  0
  182.3700  178.8250  144.3480 C   0  0  0  0  0  2  0  0  0  0  0  0
  182.0380  179.0380  142.8840 C   0  0  0  0  0  2  0  0  0  0  0  0
  180.5990  179.1430  142.7150 N   0  0  0  0  0  0  0  0  0  0  0  0
  179.9970  178.4400  143.8340 C   0  0  0  0  0  1  0  0  0  0  0  0
  180.2780  180.4500  142.8630 O   0  0  0  0  0  1  0  0  0  0  0  0
  1 14  1  0  0  0  0
  1  2  2  0  0  0  0
  2 19  1  0  0  0  0
  3  7  1  0  0  0  0
  4  1  1  0  0  0  0
  5 18  1  0  0  0  0
  5 20  1  0  0  0  0
  6 13  2  0  0  0  0
  6  9  1  0  0  0  0
  8  4  1  0  0  0  0
  8 15  1  0  0  0  0
  9  8  2  0  0  0  0
 10 11  1  1  0  0  0
 12  2  1  0  0  0  0
 12 18  1  0  0  0  0
 13 17  1  0  0  0  0
 14  3  2  0  0  0  0
 15 14  1  0  0  0  0
 16 10  1  0  0  0  0
 17  4  2  0  0  0  0
 18 16  2  0  0  0  0
 19  7  2  0  0  0  0
 19 10  1  0  0  0  0
 21 20  1  0  0  0  0
 22 21  1  0  0  0  0
 23 25  1  0  0  0  0
 23 22  1  0  0  0  0
 23 24  1  0  0  0  0
M  END
>  <MODEL>
5

>  <REMARK>
 VINA RESULT:      -8.4      3.115      5.687
  Name = 
  4 active torsions:
  status: ('A' for Active; 'I' for Inactive)
    1  A    between atoms: N_2  and  C_25
    2  A    between atoms: N_6  and  C_15
    3  A    between atoms: C_15  and  C_21
    4  A    between atoms: C_21  and  C_25
                            x       y       z     vdW  Elec       q    Type
                         _______ _______ _______ _____ _____    ______ ____

>  <TORSDO>
F 4

$$$$
=
 OpenBabel10272400493D

 25 28  0  0  1  0  0  0  0  0999 V2000
  187.0170  178.0820  144.7510 C   0  0  0  0  0  0  0  0  0  0  0  0
  188.2190  177.9570  144.0320 C   0  0  0  0  0  0  0  0  0  0  0  0
  188.1680  177.4680  146.7970 C   0  0  0  0  0  3  0  0  0  0  0  0
  185.7420  178.4440  144.2780 C   0  0  0  0  0  0  0  0  0  0  0  0
  189.3020  177.1580  140.5330 N   0  0  0  0  0  2  0  0  0  0  0  0
  183.0880  179.1160  143.7190 C   0  0  0  0  0  3  0  0  0  0  0  0
  189.3260  177.3560  146.0890 N   0  0  0  0  0  0  0  0  0  0  0  0
  184.7800  178.4640  145.2870 C   0  0  0  0  0  0  0  0  0  0  0  0
  183.4520  178.7950  145.0350 C   0  0  0  0  0  3  0  0  0  0  0  0
  190.6910  177.4930  143.9960 C   0  0  1  0  0  3  0  0  0  0  0  0
  191.6370  176.4840  144.6230 C   0  0  0  0  0  1  0  0  0  0  0  0
  188.3210  178.2820  142.5660 C   0  0  0  0  0  2  0  0  0  0  0  0
  184.0470  179.1000  142.6910 C   0  0  0  0  0  3  0  0  0  0  0  0
  187.0090  177.8280  146.1200 C   0  0  0  0  0  0  0  0  0  0  0  0
  185.4670  178.0420  146.7670 S   0  0  0  0  0  0  0  0  0  0  0  0
  190.4800  177.1430  142.5900 N   0  0  0  0  0  0  0  0  0  0  0  0
  185.3820  178.7630  142.9650 C   0  0  0  0  0  3  0  0  0  0  0  0
  189.4250  177.5000  141.9130 C   0  0  0  0  0  0  0  0  0  0  0  0
  189.3800  177.5720  144.7390 C   0  0  0  0  0  0  0  0  0  0  0  0
  190.3230  176.4040  139.8230 C   0  0  0  0  0  2  0  0  0  0  0  0
  190.2010  176.6670  138.3370 C   0  0  0  0  0  2  0  0  0  0  0  0
  188.8180  177.2070  138.0330 C   0  0  0  0  0  2  0  0  0  0  0  0
  188.9210  178.3660  137.1630 N   0  0  0  0  0  0  0  0  0  0  0  0
  187.6680  178.4520  136.4350 C   0  0  0  0  0  1  0  0  0  0  0  0
  188.9760  179.4570  137.9640 O   0  0  0  0  0  1  0  0  0  0  0  0
  1 14  2  0  0  0  0
  2 19  2  0  0  0  0
  2  1  1  0  0  0  0
  4  1  1  0  0  0  0
  4  8  1  0  0  0  0
  5 18  1  0  0  0  0
  6  9  1  0  0  0  0
  7  3  2  0  0  0  0
  8 15  1  0  0  0  0
  9  8  2  0  0  0  0
 10 11  1  1  0  0  0
 10 19  1  0  0  0  0
 12  2  1  0  0  0  0
 13 17  1  0  0  0  0
 13  6  2  0  0  0  0
 14 15  1  0  0  0  0
 14  3  1  0  0  0  0
 16 10  1  0  0  0  0
 17  4  2  0  0  0  0
 18 12  1  0  0  0  0
 18 16  2  0  0  0  0
 19  7  1  0  0  0  0
 20  5  1  0  0  0  0
 21 20  1  0  0  0  0
 22 21  1  0  0  0  0
 23 25  1  0  0  0  0
 23 22  1  0  0  0  0
 24 23  1  0  0  0  0
M  END
>  <MODEL>
6

>  <REMARK>
 VINA RESULT:      -8.3      2.182      4.796
  Name = 
  4 active torsions:
  status: ('A' for Active; 'I' for Inactive)
    1  A    between atoms: N_2  and  C_25
    2  A    between atoms: N_6  and  C_15
    3  A    between atoms: C_15  and  C_21
    4  A    between atoms: C_21  and  C_25
                            x       y       z     vdW  Elec       q    Type
                         _______ _______ _______ _____ _____    ______ ____

>  <TORSDO>
F 4

$$$$
=
 OpenBabel10272400493D

 25 28  0  0  1  0  0  0  0  0999 V2000
  187.2870  177.9110  144.2800 C   0  0  0  0  0  0  0  0  0  0  0  0
  188.3340  177.7660  143.3520 C   0  0  0  0  0  0  0  0  0  0  0  0
  188.7700  177.2270  146.0740 C   0  0  0  0  0  3  0  0  0  0  0  0
  185.9600  178.3180  144.0520 C   0  0  0  0  0  0  0  0  0  0  0  0
  188.7390  177.0040  139.7040 N   0  0  0  0  0  2  0  0  0  0  0  0
  183.2700  179.0740  143.9940 C   0  0  0  0  0  3  0  0  0  0  0  0
  189.7770  177.0960  145.1660 N   0  0  0  0  0  0  0  0  0  0  0  0
  185.1980  178.3450  145.2190 C   0  0  0  0  0  0  0  0  0  0  0  0
  183.8570  178.7180  145.2170 C   0  0  0  0  0  3  0  0  0  0  0  0
  190.7430  177.2340  142.8610 C   0  0  1  0  0  3  0  0  0  0  0  0
  191.7560  176.1870  143.2920 C   0  0  0  0  0  1  0  0  0  0  0  0
  188.1780  178.1150  141.8970 C   0  0  0  0  0  2  0  0  0  0  0  0
  184.0250  179.0500  142.8080 C   0  0  0  0  0  3  0  0  0  0  0  0
  187.5200  177.6320  145.6240 C   0  0  0  0  0  0  0  0  0  0  0  0
  186.1290  177.8760  146.5430 S   0  0  0  0  0  0  0  0  0  0  0  0
  190.2690  176.9170  141.5120 N   0  0  0  0  0  0  0  0  0  0  0  0
  185.3770  178.6710  142.8310 C   0  0  0  0  0  3  0  0  0  0  0  0
  189.1210  177.3150  141.0430 C   0  0  0  0  0  0  0  0  0  0  0  0
  189.5910  177.3360  143.8310 C   0  0  0  0  0  0  0  0  0  0  0  0
  189.5900  176.2340  138.8100 C   0  0  0  0  0  2  0  0  0  0  0  0
  190.5280  177.1710  138.0790 C   0  0  0  0  0  2  0  0  0  0  0  0
  191.4810  176.3610  137.2210 C   0  0  0  0  0  2  0  0  0  0  0  0
  192.5960  175.8970  138.0280 N   0  0  0  0  0  0  0  0  0  0  0  0
  193.0040  174.6170  137.4760 C   0  0  0  0  0  1  0  0  0  0  0  0
  193.6220  176.7540  137.8120 O   0  0  0  0  0  1  0  0  0  0  0  0
  1 14  2  0  0  0  0
  2 19  2  0  0  0  0
  2  1  1  0  0  0  0
  4  1  1  0  0  0  0
  4  8  1  0  0  0  0
  5 18  1  0  0  0  0
  6  9  1  0  0  0  0
  7  3  2  0  0  0  0
  8 15  1  0  0  0  0
  9  8  2  0  0  0  0
 10 11  1  1  0  0  0
 10 19  1  0  0  0  0
 12  2  1  0  0  0  0
 13 17  1  0  0  0  0
 13  6  2  0  0  0  0
 14  3  1  0  0  0  0
 14 15  1  0  0  0  0
 16 10  1  0  0  0  0
 17  4  2  0  0  0  0
 18 16  2  0  0  0  0
 18 12  1  0  0  0  0
 19  7  1  0  0  0  0
 20  5  1  0  0  0  0
 21 20  1  0  0  0  0
 22 23  1  0  0  0  0
 22 21  1  0  0  0  0
 24 23  1  0  0  0  0
 25 23  1  0  0  0  0
M  END
>  <MODEL>
7

>  <REMARK>
 VINA RESULT:      -8.0      2.864      5.254
  Name = 
  4 active torsions:
  status: ('A' for Active; 'I' for Inactive)
    1  A    between atoms: N_2  and  C_25
    2  A    between atoms: N_6  and  C_15
    3  A    between atoms: C_15  and  C_21
    4  A    between atoms: C_21  and  C_25
                            x       y       z     vdW  Elec       q    Type
                         _______ _______ _______ _____ _____    ______ ____

>  <TORSDO>
F 4

$$$$
=
 OpenBabel10272400493D

 25 28  0  0  1  0  0  0  0  0999 V2000
  184.6680  178.4680  143.7000 C   0  0  0  0  0  0  0  0  0  0  0  0
  186.0110  178.2200  144.0340 C   0  0  0  0  0  0  0  0  0  0  0  0
  184.1200  178.7180  146.0500 C   0  0  0  0  0  3  0  0  0  0  0  0
  184.0730  178.5160  142.4260 C   0  0  0  0  0  0  0  0  0  0  0  0
  188.9410  176.3670  142.6080 N   0  0  0  0  0  2  0  0  0  0  0  0
  182.5470  178.6870  140.0910 C   0  0  0  0  0  3  0  0  0  0  0  0
  185.4260  178.4830  146.3600 N   0  0  0  0  0  0  0  0  0  0  0  0
  182.7070  178.7890  142.4800 C   0  0  0  0  0  0  0  0  0  0  0  0
  181.9250  178.8800  141.3320 C   0  0  0  0  0  3  0  0  0  0  0  0
  187.8150  178.0180  145.7760 C   0  0  1  0  0  3  0  0  0  0  0  0
  187.9610  177.3890  147.1510 C   0  0  0  0  0  1  0  0  0  0  0  0
  187.0800  178.0240  142.9940 C   0  0  0  0  0  2  0  0  0  0  0  0
  183.9240  178.4090  140.0190 C   0  0  0  0  0  3  0  0  0  0  0  0
  183.7430  178.7050  144.7130 C   0  0  0  0  0  0  0  0  0  0  0  0
  182.2050  178.9770  144.0780 S   0  0  0  0  0  0  0  0  0  0  0  0
  188.5030  177.1830  144.7900 N   0  0  0  0  0  0  0  0  0  0  0  0
  184.6960  178.3220  141.1890 C   0  0  0  0  0  3  0  0  0  0  0  0
  188.2030  177.1770  143.5220 C   0  0  0  0  0  0  0  0  0  0  0  0
  186.3670  178.2210  145.4010 C   0  0  0  0  0  0  0  0  0  0  0  0
  190.0420  175.5180  143.0340 C   0  0  0  0  0  2  0  0  0  0  0  0
  191.2450  176.3780  143.3570 C   0  0  0  0  0  2  0  0  0  0  0  0
  191.9790  175.7900  144.5460 C   0  0  0  0  0  2  0  0  0  0  0  0
  191.4670  176.3680  145.7770 N   0  0  0  0  0  0  0  0  0  0  0  0
  192.2380  175.7870  146.8610 C   0  0  0  0  0  1  0  0  0  0  0  0
  191.7700  177.6870  145.7500 O   0  0  0  0  0  1  0  0  0  0  0  0
  1  2  2  0  0  0  0
  1 14  1  0  0  0  0
  2 19  1  0  0  0  0
  3  7  1  0  0  0  0
  4  8  1  0  0  0  0
  4  1  1  0  0  0  0
  5 20  1  0  0  0  0
  5 18  1  0  0  0  0
  6  9  1  0  0  0  0
  8 15  1  0  0  0  0
  9  8  2  0  0  0  0
 10 11  1  1  0  0  0
 12 18  1  0  0  0  0
 12  2  1  0  0  0  0
 13  6  2  0  0  0  0
 13 17  1  0  0  0  0
 14  3  2  0  0  0  0
 15 14  1  0  0  0  0
 16 10  1  0  0  0  0
 17  4  2  0  0  0  0
 18 16  2  0  0  0  0
 19 10  1  0  0  0  0
 19  7  2  0  0  0  0
 20 21  1  0  0  0  0
 21 22  1  0  0  0  0
 22 23  1  0  0  0  0
 23 24  1  0  0  0  0
 25 23  1  0  0  0  0
M  END
>  <MODEL>
8

>  <REMARK>
 VINA RESULT:      -8.0      3.431      6.559
  Name = 
  4 active torsions:
  status: ('A' for Active; 'I' for Inactive)
    1  A    between atoms: N_2  and  C_25
    2  A    between atoms: N_6  and  C_15
    3  A    between atoms: C_15  and  C_21
    4  A    between atoms: C_21  and  C_25
                            x       y       z     vdW  Elec       q    Type
                         _______ _______ _______ _____ _____    ______ ____

>  <TORSDO>
F 4

$$$$
=
 OpenBabel10272400493D

 25 28  0  0  1  0  0  0  0  0999 V2000
  183.3900  178.6440  142.0260 C   0  0  0  0  0  0  0  0  0  0  0  0
  184.5340  178.5950  142.8420 C   0  0  0  0  0  0  0  0  0  0  0  0
  181.9970  178.9750  143.9840 C   0  0  0  0  0  3  0  0  0  0  0  0
  183.3030  178.5310  140.6260 C   0  0  0  0  0  0  0  0  0  0  0  0
  187.9480  177.0470  142.7660 N   0  0  0  0  0  2  0  0  0  0  0  0
  182.7330  178.3500  137.8960 C   0  0  0  0  0  3  0  0  0  0  0  0
  183.1130  178.9320  144.7630 N   0  0  0  0  0  0  0  0  0  0  0  0
  181.9930  178.6290  140.1590 C   0  0  0  0  0  0  0  0  0  0  0  0
  181.6830  178.5420  138.8050 C   0  0  0  0  0  3  0  0  0  0  0  0
  185.5820  178.7420  145.1240 C   0  0  1  0  0  3  0  0  0  0  0  0
  185.2730  178.2280  146.5200 C   0  0  0  0  0  1  0  0  0  0  0  0
  185.9240  178.4710  142.2800 C   0  0  0  0  0  2  0  0  0  0  0  0
  184.0600  178.2480  138.3520 C   0  0  0  0  0  3  0  0  0  0  0  0
  182.1400  178.8260  142.6100 C   0  0  0  0  0  0  0  0  0  0  0  0
  180.9240  178.8540  141.4430 S   0  0  0  0  0  0  0  0  0  0  0  0
  186.6620  177.9400  144.5450 N   0  0  0  0  0  0  0  0  0  0  0  0
  184.3520  178.3390  139.7220 C   0  0  0  0  0  3  0  0  0  0  0  0
  186.8510  177.8120  143.2620 C   0  0  0  0  0  0  0  0  0  0  0  0
  184.3610  178.7310  144.2380 C   0  0  0  0  0  0  0  0  0  0  0  0
  188.8920  176.3770  143.6460 C   0  0  0  0  0  2  0  0  0  0  0  0
  190.1900  177.1540  143.6770 C   0  0  0  0  0  2  0  0  0  0  0  0
  190.2790  177.9350  144.9730 C   0  0  0  0  0  2  0  0  0  0  0  0
  189.8580  177.0990  146.0830 N   0  0  0  0  0  0  0  0  0  0  0  0
  191.0600  176.7360  146.8100 C   0  0  0  0  0  1  0  0  0  0  0  0
  189.1260  177.8810  146.9110 O   0  0  0  0  0  1  0  0  0  0  0  0
  1 14  1  0  0  0  0
  1  2  2  0  0  0  0
  2 19  1  0  0  0  0
  3  7  1  0  0  0  0
  4  1  1  0  0  0  0
  5 18  1  0  0  0  0
  5 20  1  0  0  0  0
  6 13  2  0  0  0  0
  6  9  1  0  0  0  0
  8  4  1  0  0  0  0
  8 15  1  0  0  0  0
  9  8  2  0  0  0  0
 10 11  1  1  0  0  0
 12  2  1  0  0  0  0
 12 18  1  0  0  0  0
 13 17  1  0  0  0  0
 14  3  2  0  0  0  0
 15 14  1  0  0  0  0
 16 10  1  0  0  0  0
 17  4  2  0  0  0  0
 18 16  2  0  0  0  0
 19  7  2  0  0  0  0
 19 10  1  0  0  0  0
 20 21  1  0  0  0  0
 21 22  1  0  0  0  0
 22 23  1  0  0  0  0
 23 24  1  0  0  0  0
 23 25  1  0  0  0  0
M  END
>  <MODEL>
9

>  <REMARK>
 VINA RESULT:      -7.8      3.645      7.113
  Name = 
  4 active torsions:
  status: ('A' for Active; 'I' for Inactive)
    1  A    between atoms: N_2  and  C_25
    2  A    between atoms: N_6  and  C_15
    3  A    between atoms: C_15  and  C_21
    4  A    between atoms: C_21  and  C_25
                            x       y       z     vdW  Elec       q    Type
                         _______ _______ _______ _____ _____    ______ ____

>  <TORSDO>
F 4

$$$$
