=
 OpenBabel10272415153D

 34 37  0  0  1  0  0  0  0  0999 V2000
  187.2880  178.3300  140.2420 C   0  0  1  0  0  3  0  0  0  0  0  0
  183.6180  178.3690  140.7180 C   0  0  0  0  0  3  0  0  0  0  0  0
  184.8850  178.1890  138.7660 N   0  0  0  0  0  0  0  0  0  0  0  0
  188.6370  178.3710  137.8050 S   0  0  0  0  0  0  0  0  0  0  0  0
  187.4700  180.1240  136.2200 O   0  0  0  0  0  0  0  0  0  0  0  0
  187.4420  178.9740  136.6250 C   0  0  0  0  0  0  0  0  0  0  0  0
  185.9780  177.9020  138.1370 C   0  0  0  0  0  0  0  0  0  0  0  0
  187.2800  177.7180  138.8600 C   0  0  2  0  0  3  0  0  0  0  0  0
  186.0340  177.9310  136.3580 S   0  0  0  0  0  0  0  0  0  0  0  0
  183.1560  178.5250  142.0980 C   0  0  0  0  0  2  0  0  0  0  0  0
  183.8350  178.7990  143.2060 C   0  0  0  0  0  0  0  0  0  0  0  0
  185.2810  179.0340  143.2790 C   0  0  0  0  0  3  0  0  0  0  0  0
  184.8390  178.3530  140.1860 C   0  0  0  0  0  0  0  0  0  0  0  0
  186.2140  178.9160  142.3440 C   0  0  0  0  0  3  0  0  0  0  0  0
  186.1260  178.5220  140.9250 C   0  0  0  0  0  0  0  0  0  0  0  0
  183.0800  178.9000  144.4130 N   0  0  0  0  0  2  0  0  0  0  0  0
  183.6740  179.1680  145.6010 O   0  0  0  0  0  1  0  0  0  0  0  0
  188.5770  178.4980  140.8570 N   0  0  0  0  0  2  0  0  0  0  0  0
  189.5810  177.4470  140.9800 C   0  0  0  0  0  2  0  0  0  0  0  0
  189.8510  178.4860  144.5300 C   0  0  0  0  0  2  0  0  0  0  0  0
  188.3330  176.5350  143.9510 C   0  0  0  0  0  2  0  0  0  0  0  0
  188.6910  177.5940  145.0060 C   0  0  1  0  0  3  0  0  0  0  0  0
  191.6590  177.2270  142.3280 C   0  0  0  0  0  1  0  0  0  0  0  0
  189.5550  176.1490  143.1210 C   0  0  0  0  0  2  0  0  0  0  0  0
  190.1470  177.3760  142.3960 C   0  0  2  0  0  0  0  0  0  0  0  0
  189.8200  178.6430  143.0760 N   0  0  0  0  0  2  0  0  0  0  0  0
  189.0170  176.9580  146.3690 C   0  0  1  0  0  3  0  0  0  0  0  0
  190.4230  177.3510  146.8560 C   0  0  1  0  0  3  0  0  0  0  0  0
  190.4360  177.9170  148.2710 C   0  0  0  0  0  1  0  0  0  0  0  0
  191.4020  176.2310  146.7000 C   0  0  0  0  0  0  0  0  0  0  0  0
  191.7020  175.4280  147.7920 O   0  0  0  0  0  1  0  0  0  0  0  0
  191.9790  176.0260  145.5980 O   0  0  0  0  0  0  0  0  0  0  0  0
  186.8150  178.0560  146.7790 C   0  0  0  0  0  1  0  0  0  0  0  0
  187.9540  177.2870  147.4190 C   0  0  0  0  0  2  0  0  0  0  0  0
  1 18  1  1  0  0  0
  1 15  1  0  0  0  0
  2 10  1  0  0  0  0
  3 13  1  0  0  0  0
  5  6  2  0  0  0  0
  6  4  1  0  0  0  0
  7  3  2  0  0  0  0
  7  8  1  0  0  0  0
  8  4  1  6  0  0  0
  8  1  1  0  0  0  0
  9  6  1  0  0  0  0
  9  7  1  0  0  0  0
 10 11  1  0  0  0  0
 11 12  2  0  0  0  0
 11 16  1  0  0  0  0
 13  2  2  0  0  0  0
 13 15  1  0  0  0  0
 14 12  1  0  0  0  0
 15 14  2  0  0  0  0
 16 17  1  0  0  0  0
 18 19  1  0  0  0  0
 19 25  1  0  0  0  0
 20 22  1  0  0  0  0
 21 22  1  0  0  0  0
 22 27  1  1  0  0  0
 24 21  1  0  0  0  0
 25 23  1  6  0  0  0
 25 26  1  0  0  0  0
 25 24  1  0  0  0  0
 26 20  1  0  0  0  0
 27 28  1  0  0  0  0
 27 34  1  1  0  0  0
 28 29  1  1  0  0  0
 30 28  1  0  0  0  0
 30 31  1  0  0  0  0
 32 30  2  0  0  0  0
 33 34  1  0  0  0  0
M  END
>  <MODEL>
1

>  <REMARK>
 VINA RESULT:      -8.2      0.000      0.000
  Name = 
  8 active torsions:
  status: ('A' for Active; 'I' for Inactive)
    1  A    between atoms: C_1  and  N_9
    2  A    between atoms: N_3  and  C_25
    3  A    between atoms: C_7  and  C_11
    4  A    between atoms: C_7  and  C_14
    5  A    between atoms: C_8  and  N_9
    6  A    between atoms: C_8  and  C_30
    7  A    between atoms: C_14  and  C_16
    8  A    between atoms: C_14  and  C_29
                            x       y       z     vdW  Elec       q    Type
                         _______ _______ _______ _____ _____    ______ ____

>  <TORSDO>
F 8

$$$$
=
 OpenBabel10272415153D

 34 37  0  0  1  0  0  0  0  0999 V2000
  187.2910  178.2480  140.2890 C   0  0  1  0  0  3  0  0  0  0  0  0
  183.6160  178.4460  140.6810 C   0  0  0  0  0  3  0  0  0  0  0  0
  184.9170  178.1760  138.7620 N   0  0  0  0  0  0  0  0  0  0  0  0
  188.6930  178.1860  137.8830 S   0  0  0  0  0  0  0  0  0  0  0  0
  187.6340  179.9550  136.2400 O   0  0  0  0  0  0  0  0  0  0  0  0
  187.5500  178.8150  136.6650 C   0  0  0  0  0  0  0  0  0  0  0  0
  186.0100  177.8330  138.1630 C   0  0  0  0  0  0  0  0  0  0  0  0
  187.2880  177.6100  138.9190 C   0  0  2  0  0  3  0  0  0  0  0  0
  186.1070  177.8250  136.3860 S   0  0  0  0  0  0  0  0  0  0  0  0
  183.1310  178.6480  142.0480 C   0  0  0  0  0  2  0  0  0  0  0  0
  183.7960  178.9140  143.1650 C   0  0  0  0  0  0  0  0  0  0  0  0
  185.2490  179.0920  143.2660 C   0  0  0  0  0  3  0  0  0  0  0  0
  184.8470  178.3700  140.1770 C   0  0  0  0  0  0  0  0  0  0  0  0
  186.1970  178.9180  142.3540 C   0  0  0  0  0  3  0  0  0  0  0  0
  186.1230  178.5000  140.9420 C   0  0  0  0  0  0  0  0  0  0  0  0
  183.0200  179.0690  144.3530 N   0  0  0  0  0  2  0  0  0  0  0  0
  183.5970  179.1040  145.5780 O   0  0  0  0  0  1  0  0  0  0  0  0
  188.5720  178.3750  140.9300 N   0  0  0  0  0  2  0  0  0  0  0  0
  189.4890  177.2680  141.1790 C   0  0  0  0  0  2  0  0  0  0  0  0
  190.0290  178.8020  144.5120 C   0  0  0  0  0  2  0  0  0  0  0  0
  188.4630  176.8110  144.3330 C   0  0  0  0  0  2  0  0  0  0  0  0
  188.9040  178.0060  145.1960 C   0  0  1  0  0  3  0  0  0  0  0  0
  191.6610  177.2110  142.3880 C   0  0  0  0  0  1  0  0  0  0  0  0
  189.6170  176.2920  143.4810 C   0  0  0  0  0  2  0  0  0  0  0  0
  190.1590  177.3920  142.5450 C   0  0  2  0  0  0  0  0  0  0  0  0
  189.8900  178.7480  143.0560 N   0  0  0  0  0  2  0  0  0  0  0  0
  189.3290  177.5660  146.6090 C   0  0  1  0  0  3  0  0  0  0  0  0
  188.1190  177.4540  147.5540 C   0  0  1  0  0  3  0  0  0  0  0  0
  188.3840  178.0230  148.9420 C   0  0  0  0  0  1  0  0  0  0  0  0
  186.8810  178.0330  146.9470 C   0  0  0  0  0  0  0  0  0  0  0  0
  186.0650  177.2310  146.1600 O   0  0  0  0  0  0  0  0  0  0  0  0
  186.5860  179.2470  147.1160 O   0  0  0  0  0  1  0  0  0  0  0  0
  191.5710  176.5390  146.9820 C   0  0  0  0  0  1  0  0  0  0  0  0
  190.1340  176.2660  146.5810 C   0  0  0  0  0  2  0  0  0  0  0  0
  1 18  1  1  0  0  0
  1 15  1  0  0  0  0
  2 10  1  0  0  0  0
  3 13  1  0  0  0  0
  5  6  2  0  0  0  0
  6  4  1  0  0  0  0
  7  3  2  0  0  0  0
  7  8  1  0  0  0  0
  8  4  1  6  0  0  0
  8  1  1  0  0  0  0
  9  6  1  0  0  0  0
  9  7  1  0  0  0  0
 10 11  1  0  0  0  0
 11 12  2  0  0  0  0
 11 16  1  0  0  0  0
 13  2  2  0  0  0  0
 13 15  1  0  0  0  0
 14 12  1  0  0  0  0
 15 14  2  0  0  0  0
 16 17  1  0  0  0  0
 18 19  1  0  0  0  0
 19 25  1  0  0  0  0
 20 22  1  0  0  0  0
 21 22  1  0  0  0  0
 22 27  1  1  0  0  0
 24 21  1  0  0  0  0
 25 23  1  6  0  0  0
 25 26  1  0  0  0  0
 25 24  1  0  0  0  0
 26 20  1  0  0  0  0
 27 34  1  6  0  0  0
 27 28  1  0  0  0  0
 28 29  1  1  0  0  0
 30 32  1  0  0  0  0
 30 28  1  0  0  0  0
 31 30  2  0  0  0  0
 34 33  1  0  0  0  0
M  END
>  <MODEL>
2

>  <REMARK>
 VINA RESULT:      -7.4      1.552      2.078
  Name = 
  8 active torsions:
  status: ('A' for Active; 'I' for Inactive)
    1  A    between atoms: C_1  and  N_9
    2  A    between atoms: N_3  and  C_25
    3  A    between atoms: C_7  and  C_11
    4  A    between atoms: C_7  and  C_14
    5  A    between atoms: C_8  and  N_9
    6  A    between atoms: C_8  and  C_30
    7  A    between atoms: C_14  and  C_16
    8  A    between atoms: C_14  and  C_29
                            x       y       z     vdW  Elec       q    Type
                         _______ _______ _______ _____ _____    ______ ____

>  <TORSDO>
F 8

$$$$
=
 OpenBabel10272415153D

 34 37  0  0  1  0  0  0  0  0999 V2000
  187.6630  177.4580  143.6640 C   0  0  1  0  0  3  0  0  0  0  0  0
  188.7880  177.3100  147.1860 C   0  0  0  0  0  3  0  0  0  0  0  0
  186.7330  177.9490  146.2840 N   0  0  0  0  0  0  0  0  0  0  0  0
  185.2470  178.4970  142.7450 S   0  0  0  0  0  0  0  0  0  0  0  0
  184.7580  180.7540  144.0170 O   0  0  0  0  0  0  0  0  0  0  0  0
  184.6590  179.5400  144.0690 C   0  0  0  0  0  0  0  0  0  0  0  0
  185.8490  177.9440  145.3400 C   0  0  0  0  0  0  0  0  0  0  0  0
  186.1790  177.4720  143.9530 C   0  0  2  0  0  3  0  0  0  0  0  0
  184.2590  178.7060  145.5810 S   0  0  0  0  0  0  0  0  0  0  0  0
  190.1730  176.8830  147.3950 C   0  0  0  0  0  2  0  0  0  0  0  0
  191.1480  176.6710  146.5200 C   0  0  0  0  0  0  0  0  0  0  0  0
  191.0400  176.8490  145.0680 C   0  0  0  0  0  3  0  0  0  0  0  0
  188.0790  177.5110  146.0770 C   0  0  0  0  0  0  0  0  0  0  0  0
  189.9810  177.1260  144.3180 C   0  0  0  0  0  3  0  0  0  0  0  0
  188.5680  177.3540  144.6750 C   0  0  0  0  0  0  0  0  0  0  0  0
  192.4100  176.2670  147.0500 N   0  0  0  0  0  2  0  0  0  0  0  0
  192.7200  176.4450  148.3570 O   0  0  0  0  0  1  0  0  0  0  0  0
  188.0410  177.3510  142.2800 N   0  0  0  0  0  2  0  0  0  0  0  0
  188.2160  178.4850  141.3790 C   0  0  0  0  0  2  0  0  0  0  0  0
  189.6780  178.4900  137.9700 C   0  0  0  0  0  2  0  0  0  0  0  0
  190.4750  176.7400  139.6280 C   0  0  0  0  0  2  0  0  0  0  0  0
  190.7780  177.4680  138.3080 C   0  0  1  0  0  3  0  0  0  0  0  0
  186.9240  177.9510  139.3230 C   0  0  0  0  0  1  0  0  0  0  0  0
  188.9720  176.6370  139.8680 C   0  0  0  0  0  2  0  0  0  0  0  0
  188.3190  178.0340  139.9240 C   0  0  2  0  0  0  0  0  0  0  0  0
  189.0980  179.0490  139.1910 N   0  0  0  0  0  2  0  0  0  0  0  0
  190.9830  176.4830  137.1440 C   0  0  1  0  0  3  0  0  0  0  0  0
  191.5440  175.1360  137.6340 C   0  0  1  0  0  3  0  0  0  0  0  0
  190.8890  173.9310  136.9700 C   0  0  0  0  0  1  0  0  0  0  0  0
  193.0360  175.0820  137.5290 C   0  0  0  0  0  0  0  0  0  0  0  0
  193.7480  176.2510  137.3020 O   0  0  0  0  0  0  0  0  0  0  0  0
  193.6490  173.9840  137.6150 O   0  0  0  0  0  1  0  0  0  0  0  0
  189.9090  176.7730  134.9110 C   0  0  0  0  0  1  0  0  0  0  0  0
  189.7010  176.2870  136.3320 C   0  0  0  0  0  2  0  0  0  0  0  0
  1 18  1  6  0  0  0
  1  8  1  0  0  0  0
  1 15  1  0  0  0  0
  2 10  1  0  0  0  0
  4  6  1  0  0  0  0
  5  6  2  0  0  0  0
  6  9  1  0  0  0  0
  7  9  1  0  0  0  0
  7  3  2  0  0  0  0
  8  4  1  6  0  0  0
  8  7  1  0  0  0  0
 11 16  1  0  0  0  0
 11 10  1  0  0  0  0
 12 11  2  0  0  0  0
 13  3  1  0  0  0  0
 13  2  2  0  0  0  0
 14 15  2  0  0  0  0
 14 12  1  0  0  0  0
 15 13  1  0  0  0  0
 16 17  1  0  0  0  0
 19 18  1  0  0  0  0
 20 22  1  0  0  0  0
 20 26  1  0  0  0  0
 21 24  1  0  0  0  0
 22 27  1  6  0  0  0
 22 21  1  0  0  0  0
 24 25  1  0  0  0  0
 25 23  1  6  0  0  0
 25 19  1  0  0  0  0
 26 25  1  0  0  0  0
 27 34  1  1  0  0  0
 27 28  1  0  0  0  0
 28 29  1  6  0  0  0
 30 32  1  0  0  0  0
 30 28  1  0  0  0  0
 31 30  2  0  0  0  0
 33 34  1  0  0  0  0
M  END
>  <MODEL>
3

>  <REMARK>
 VINA RESULT:      -7.2      3.716      7.713
  Name = 
  8 active torsions:
  status: ('A' for Active; 'I' for Inactive)
    1  A    between atoms: C_1  and  N_9
    2  A    between atoms: N_3  and  C_25
    3  A    between atoms: C_7  and  C_11
    4  A    between atoms: C_7  and  C_14
    5  A    between atoms: C_8  and  N_9
    6  A    between atoms: C_8  and  C_30
    7  A    between atoms: C_14  and  C_16
    8  A    between atoms: C_14  and  C_29
                            x       y       z     vdW  Elec       q    Type
                         _______ _______ _______ _____ _____    ______ ____

>  <TORSDO>
F 8

$$$$
=
 OpenBabel10272415153D

 34 37  0  0  1  0  0  0  0  0999 V2000
  189.8350  177.5070  138.2690 C   0  0  1  0  0  3  0  0  0  0  0  0
  191.7960  176.0660  135.4810 C   0  0  0  0  0  3  0  0  0  0  0  0
  189.5700  176.7630  135.5580 N   0  0  0  0  0  0  0  0  0  0  0  0
  187.1020  178.0430  138.2610 S   0  0  0  0  0  0  0  0  0  0  0  0
  185.8450  176.0190  137.1320 O   0  0  0  0  0  0  0  0  0  0  0  0
  186.4420  177.0620  136.9240 C   0  0  0  0  0  0  0  0  0  0  0  0
  188.6090  177.4590  136.0720 C   0  0  0  0  0  0  0  0  0  0  0  0
  188.7360  178.1050  137.4220 C   0  0  2  0  0  3  0  0  0  0  0  0
  187.0050  177.4990  135.3010 S   0  0  0  0  0  0  0  0  0  0  0  0
  193.1810  175.7110  135.7930 C   0  0  0  0  0  3  0  0  0  0  0  0
  193.8210  175.6870  136.9560 C   0  0  0  0  0  0  0  0  0  0  0  0
  193.2300  176.0170  138.2570 C   0  0  0  0  0  3  0  0  0  0  0  0
  190.8140  176.5570  136.2340 C   0  0  1  0  0  3  0  0  0  0  0  0
  192.0320  176.5040  138.5520 C   0  0  0  0  0  3  0  0  0  0  0  0
  190.8920  176.8710  137.6920 C   0  0  0  0  0  0  0  0  0  0  0  0
  195.1880  175.2760  136.9280 N   0  0  0  0  0  2  0  0  0  0  0  0
  195.8490  174.9340  138.0600 O   0  0  0  0  0  1  0  0  0  0  0  0
  189.8030  177.8250  139.6720 N   0  0  0  0  0  2  0  0  0  0  0  0
  188.9480  177.1640  140.6520 C   0  0  0  0  0  2  0  0  0  0  0  0
  189.3940  178.4340  144.1080 C   0  0  0  0  0  2  0  0  0  0  0  0
  187.8250  176.4740  143.7310 C   0  0  0  0  0  2  0  0  0  0  0  0
  188.2450  177.5960  144.6950 C   0  0  1  0  0  3  0  0  0  0  0  0
  191.0820  177.0000  141.9170 C   0  0  0  0  0  1  0  0  0  0  0  0
  189.0020  176.0140  142.8750 C   0  0  0  0  0  2  0  0  0  0  0  0
  189.5770  177.1790  142.0430 C   0  0  2  0  0  0  0  0  0  0  0  0
  189.2980  178.4940  142.6490 N   0  0  0  0  0  2  0  0  0  0  0  0
  188.6250  177.0460  146.0820 C   0  0  1  0  0  3  0  0  0  0  0  0
  189.9690  177.6180  146.5680 C   0  0  1  0  0  3  0  0  0  0  0  0
  189.8790  178.2900  147.9330 C   0  0  0  0  0  1  0  0  0  0  0  0
  191.0590  176.5940  146.5270 C   0  0  0  0  0  0  0  0  0  0  0  0
  191.7130  176.3410  145.3290 O   0  0  0  0  0  0  0  0  0  0  0  0
  191.3690  175.9390  147.5580 O   0  0  0  0  0  1  0  0  0  0  0  0
  186.4220  178.1380  146.5030 C   0  0  0  0  0  1  0  0  0  0  0  0
  187.5170  177.2820  147.1100 C   0  0  0  0  0  2  0  0  0  0  0  0
  1 18  1  6  0  0  0
  2 10  2  0  0  0  0
  3  7  2  0  0  0  0
  3 13  1  0  0  0  0
  6  5  2  0  0  0  0
  6  4  1  0  0  0  0
  8  7  1  6  0  0  0
  8  4  1  0  0  0  0
  8  1  1  0  0  0  0
  9  7  1  0  0  0  0
  9  6  1  0  0  0  0
 10 11  1  0  0  0  0
 11 12  2  0  0  0  0
 12 14  1  0  0  0  0
 13  2  1  1  0  0  0
 13 15  1  0  0  0  0
 15  1  1  0  0  0  0
 15 14  2  0  0  0  0
 16 11  1  0  0  0  0
 16 17  1  0  0  0  0
 18 19  1  0  0  0  0
 19 25  1  0  0  0  0
 20 22  1  0  0  0  0
 21 22  1  0  0  0  0
 22 27  1  1  0  0  0
 24 21  1  0  0  0  0
 25 23  1  6  0  0  0
 25 26  1  0  0  0  0
 25 24  1  0  0  0  0
 26 20  1  0  0  0  0
 27 28  1  0  0  0  0
 27 34  1  1  0  0  0
 28 29  1  1  0  0  0
 30 28  1  0  0  0  0
 30 32  1  0  0  0  0
 31 30  2  0  0  0  0
 33 34  1  0  0  0  0
M  END
>  <MODEL>
4

>  <REMARK>
 VINA RESULT:      -7.2      3.416      5.911
  Name = 
  8 active torsions:
  status: ('A' for Active; 'I' for Inactive)
    1  A    between atoms: C_1  and  N_9
    2  A    between atoms: N_3  and  C_25
    3  A    between atoms: C_7  and  C_11
    4  A    between atoms: C_7  and  C_14
    5  A    between atoms: C_8  and  N_9
    6  A    between atoms: C_8  and  C_30
    7  A    between atoms: C_14  and  C_16
    8  A    between atoms: C_14  and  C_29
                            x       y       z     vdW  Elec       q    Type
                         _______ _______ _______ _____ _____    ______ ____

>  <TORSDO>
F 8

$$$$
=
 OpenBabel10272415153D

 34 37  0  0  1  0  0  0  0  0999 V2000
  190.4490  176.3060  138.9330 C   0  0  1  0  0  3  0  0  0  0  0  0
  188.0050  177.5560  136.4500 C   0  0  0  0  0  3  0  0  0  0  0  0
  190.0960  176.5650  136.1430 N   0  0  0  0  0  0  0  0  0  0  0  0
  193.0220  175.3850  138.3970 S   0  0  0  0  0  0  0  0  0  0  0  0
  194.1530  177.0010  136.6480 O   0  0  0  0  0  0  0  0  0  0  0  0
  193.4200  176.0360  136.7830 C   0  0  0  0  0  0  0  0  0  0  0  0
  191.0800  175.8280  136.5440 C   0  0  0  0  0  0  0  0  0  0  0  0
  191.2320  175.4280  137.9830 C   0  0  2  0  0  3  0  0  0  0  0  0
  192.4240  175.4330  135.4460 S   0  0  0  0  0  0  0  0  0  0  0  0
  186.7870  178.1530  137.0000 C   0  0  0  0  0  3  0  0  0  0  0  0
  186.4670  178.4530  138.2530 C   0  0  0  0  0  0  0  0  0  0  0  0
  187.3300  178.2520  139.4210 C   0  0  0  0  0  3  0  0  0  0  0  0
  189.0900  177.0530  137.0350 C   0  0  1  0  0  3  0  0  0  0  0  0
  188.5080  177.6490  139.5190 C   0  0  0  0  0  3  0  0  0  0  0  0
  189.3510  176.9890  138.5040 C   0  0  0  0  0  0  0  0  0  0  0  0
  185.1860  179.0480  138.4630 N   0  0  0  0  0  2  0  0  0  0  0  0
  184.8230  179.5390  139.6720 O   0  0  0  0  0  1  0  0  0  0  0  0
  190.8010  176.2130  140.3240 N   0  0  0  0  0  2  0  0  0  0  0  0
  191.2250  177.3390  141.1490 C   0  0  0  0  0  2  0  0  0  0  0  0
  189.7700  178.3760  144.4000 C   0  0  0  0  0  2  0  0  0  0  0  0
  188.3140  177.0670  142.7820 C   0  0  0  0  0  2  0  0  0  0  0  0
  188.3330  177.9770  144.0210 C   0  0  1  0  0  3  0  0  0  0  0  0
  191.9860  176.4570  143.3460 C   0  0  0  0  0  1  0  0  0  0  0  0
  189.5910  176.2350  142.6910 C   0  0  0  0  0  2  0  0  0  0  0  0
  190.8400  177.1370  142.6130 C   0  0  2  0  0  0  0  0  0  0  0  0
  190.6120  178.4670  143.2060 N   0  0  0  0  0  2  0  0  0  0  0  0
  187.6150  177.3290  145.2190 C   0  0  1  0  0  3  0  0  0  0  0  0
  188.1410  177.8760  146.5580 C   0  0  1  0  0  3  0  0  0  0  0  0
  187.0740  178.5880  147.3800 C   0  0  0  0  0  1  0  0  0  0  0  0
  188.8410  176.8210  147.3550 C   0  0  0  0  0  0  0  0  0  0  0  0
  190.1750  176.5400  147.0950 O   0  0  0  0  0  0  0  0  0  0  0  0
  188.2250  176.1650  148.2380 O   0  0  0  0  0  1  0  0  0  0  0  0
  185.7400  178.3990  143.9680 C   0  0  0  0  0  1  0  0  0  0  0  0
  186.0950  177.4770  145.1180 C   0  0  0  0  0  2  0  0  0  0  0  0
  1 18  1  1  0  0  0
  2 10  2  0  0  0  0
  3  7  2  0  0  0  0
  3 13  1  0  0  0  0
  5  6  2  0  0  0  0
  6  4  1  0  0  0  0
  8  7  1  6  0  0  0
  8  4  1  0  0  0  0
  8  1  1  0  0  0  0
  9  7  1  0  0  0  0
  9  6  1  0  0  0  0
 10 11  1  0  0  0  0
 11 16  1  0  0  0  0
 11 12  2  0  0  0  0
 12 14  1  0  0  0  0
 13  2  1  6  0  0  0
 13 15  1  0  0  0  0
 15  1  1  0  0  0  0
 15 14  2  0  0  0  0
 16 17  1  0  0  0  0
 18 19  1  0  0  0  0
 19 25  1  0  0  0  0
 21 22  1  0  0  0  0
 22 20  1  0  0  0  0
 22 27  1  1  0  0  0
 24 21  1  0  0  0  0
 25 24  1  0  0  0  0
 25 26  1  0  0  0  0
 25 23  1  1  0  0  0
 26 20  1  0  0  0  0
 27 34  1  6  0  0  0
 27 28  1  0  0  0  0
 28 30  1  0  0  0  0
 28 29  1  1  0  0  0
 30 32  1  0  0  0  0
 31 30  2  0  0  0  0
 33 34  1  0  0  0  0
M  END
>  <MODEL>
5

>  <REMARK>
 VINA RESULT:      -7.1      2.979      4.345
  Name = 
  8 active torsions:
  status: ('A' for Active; 'I' for Inactive)
    1  A    between atoms: C_1  and  N_9
    2  A    between atoms: N_3  and  C_25
    3  A    between atoms: C_7  and  C_11
    4  A    between atoms: C_7  and  C_14
    5  A    between atoms: C_8  and  N_9
    6  A    between atoms: C_8  and  C_30
    7  A    between atoms: C_14  and  C_16
    8  A    between atoms: C_14  and  C_29
                            x       y       z     vdW  Elec       q    Type
                         _______ _______ _______ _____ _____    ______ ____

>  <TORSDO>
F 8

$$$$
=
 OpenBabel10272415153D

 34 37  0  0  1  0  0  0  0  0999 V2000
  188.4820  177.7040  142.8230 C   0  0  1  0  0  3  0  0  0  0  0  0
  186.8450  178.3860  146.0700 C   0  0  0  0  0  3  0  0  0  0  0  0
  189.0330  177.7310  145.5920 N   0  0  0  0  0  0  0  0  0  0  0  0
  191.0430  176.6730  142.4490 S   0  0  0  0  0  0  0  0  0  0  0  0
  191.4220  174.7050  144.1620 O   0  0  0  0  0  0  0  0  0  0  0  0
  191.4680  175.9140  144.0080 C   0  0  0  0  0  0  0  0  0  0  0  0
  190.0450  177.6280  144.7930 C   0  0  0  0  0  0  0  0  0  0  0  0
  189.9060  177.8320  143.3120 C   0  0  2  0  0  3  0  0  0  0  0  0
  191.6100  177.0200  145.3850 S   0  0  0  0  0  0  0  0  0  0  0  0
  185.4300  178.7560  146.0050 C   0  0  0  0  0  2  0  0  0  0  0  0
  184.5870  178.7530  144.9800 C   0  0  0  0  0  0  0  0  0  0  0  0
  184.9150  178.3340  143.6130 C   0  0  0  0  0  3  0  0  0  0  0  0
  187.7170  178.0420  145.1250 C   0  0  0  0  0  0  0  0  0  0  0  0
  186.0820  177.9990  143.0790 C   0  0  0  0  0  3  0  0  0  0  0  0
  187.4340  177.9240  143.6640 C   0  0  0  0  0  0  0  0  0  0  0  0
  183.2470  179.1630  145.2490 N   0  0  0  0  0  2  0  0  0  0  0  0
  182.2150  178.7790  144.4600 O   0  0  0  0  0  1  0  0  0  0  0  0
  188.3080  177.5460  141.4040 N   0  0  0  0  0  2  0  0  0  0  0  0
  188.4030  178.6290  140.4300 C   0  0  0  0  0  2  0  0  0  0  0  0
  189.3350  178.3870  136.8480 C   0  0  0  0  0  2  0  0  0  0  0  0
  190.2530  176.6520  138.4600 C   0  0  0  0  0  2  0  0  0  0  0  0
  190.4020  177.3020  137.0740 C   0  0  1  0  0  3  0  0  0  0  0  0
  186.7850  178.1080  138.6160 C   0  0  0  0  0  1  0  0  0  0  0  0
  188.7990  176.6700  138.9220 C   0  0  0  0  0  2  0  0  0  0  0  0
  188.2560  178.1120  139.0020 C   0  0  2  0  0  0  0  0  0  0  0  0
  188.9830  179.0360  138.1120 N   0  0  0  0  0  2  0  0  0  0  0  0
  190.3640  176.2570  135.9440 C   0  0  1  0  0  3  0  0  0  0  0  0
  191.3810  175.1270  136.1840 C   0  0  1  0  0  3  0  0  0  0  0  0
  190.8780  173.7590  135.7370 C   0  0  0  0  0  1  0  0  0  0  0  0
  192.7180  175.4440  135.5940 C   0  0  0  0  0  0  0  0  0  0  0  0
  192.7890  176.1050  134.3760 O   0  0  0  0  0  0  0  0  0  0  0  0
  193.7800  175.0910  136.1750 O   0  0  0  0  0  1  0  0  0  0  0  0
  188.4560  176.0710  134.3470 C   0  0  0  0  0  1  0  0  0  0  0  0
  188.9550  175.7010  135.7310 C   0  0  0  0  0  2  0  0  0  0  0  0
  1 18  1  6  0  0  0
  1  8  1  0  0  0  0
  1 15  1  0  0  0  0
  4  6  1  0  0  0  0
  6  5  2  0  0  0  0
  6  9  1  0  0  0  0
  7  9  1  0  0  0  0
  7  3  2  0  0  0  0
  8  4  1  6  0  0  0
  8  7  1  0  0  0  0
 10  2  1  0  0  0  0
 11 16  1  0  0  0  0
 11 10  1  0  0  0  0
 12 11  2  0  0  0  0
 13  3  1  0  0  0  0
 13  2  2  0  0  0  0
 14 12  1  0  0  0  0
 14 15  2  0  0  0  0
 15 13  1  0  0  0  0
 17 16  1  0  0  0  0
 19 18  1  0  0  0  0
 20 22  1  0  0  0  0
 20 26  1  0  0  0  0
 21 24  1  0  0  0  0
 22 27  1  6  0  0  0
 22 21  1  0  0  0  0
 24 25  1  0  0  0  0
 25 23  1  6  0  0  0
 25 19  1  0  0  0  0
 26 25  1  0  0  0  0
 27 34  1  1  0  0  0
 27 28  1  0  0  0  0
 28 29  1  6  0  0  0
 30 32  1  0  0  0  0
 30 28  1  0  0  0  0
 31 30  2  0  0  0  0
 33 34  1  0  0  0  0
M  END
>  <MODEL>
6

>  <REMARK>
 VINA RESULT:      -7.0      3.613      7.616
  Name = 
  8 active torsions:
  status: ('A' for Active; 'I' for Inactive)
    1  A    between atoms: C_1  and  N_9
    2  A    between atoms: N_3  and  C_25
    3  A    between atoms: C_7  and  C_11
    4  A    between atoms: C_7  and  C_14
    5  A    between atoms: C_8  and  N_9
    6  A    between atoms: C_8  and  C_30
    7  A    between atoms: C_14  and  C_16
    8  A    between atoms: C_14  and  C_29
                            x       y       z     vdW  Elec       q    Type
                         _______ _______ _______ _____ _____    ______ ____

>  <TORSDO>
F 8

$$$$
=
 OpenBabel10272415153D

 34 37  0  0  1  0  0  0  0  0999 V2000
  187.7530  177.4170  143.6050 C   0  0  1  0  0  3  0  0  0  0  0  0
  188.8380  177.2770  147.1400 C   0  0  0  0  0  3  0  0  0  0  0  0
  186.7910  177.9090  146.2130 N   0  0  0  0  0  0  0  0  0  0  0  0
  185.3460  178.4490  142.6560 S   0  0  0  0  0  0  0  0  0  0  0  0
  184.8360  180.7060  143.9190 O   0  0  0  0  0  0  0  0  0  0  0  0
  184.7400  179.4920  143.9720 C   0  0  0  0  0  0  0  0  0  0  0  0
  185.9190  177.9010  145.2590 C   0  0  0  0  0  0  0  0  0  0  0  0
  186.2660  177.4280  143.8760 C   0  0  2  0  0  3  0  0  0  0  0  0
  184.3240  178.6590  145.4800 S   0  0  0  0  0  0  0  0  0  0  0  0
  190.2210  176.8540  147.3660 C   0  0  0  0  0  2  0  0  0  0  0  0
  191.2070  176.6430  146.5030 C   0  0  0  0  0  0  0  0  0  0  0  0
  191.1150  176.8190  145.0500 C   0  0  0  0  0  3  0  0  0  0  0  0
  188.1400  177.4740  146.0230 C   0  0  0  0  0  0  0  0  0  0  0  0
  190.0640  177.0910  144.2870 C   0  0  0  0  0  3  0  0  0  0  0  0
  188.6470  177.3170  144.6270 C   0  0  0  0  0  0  0  0  0  0  0  0
  192.4630  176.2420  147.0490 N   0  0  0  0  0  2  0  0  0  0  0  0
  192.7420  176.3850  148.3670 O   0  0  0  0  0  1  0  0  0  0  0  0
  188.1480  177.3090  142.2260 N   0  0  0  0  0  2  0  0  0  0  0  0
  188.4100  178.4450  141.3470 C   0  0  0  0  0  2  0  0  0  0  0  0
  189.5280  178.4220  137.8110 C   0  0  0  0  0  2  0  0  0  0  0  0
  190.2600  176.5200  139.3260 C   0  0  0  0  0  2  0  0  0  0  0  0
  190.5220  177.2640  138.0060 C   0  0  1  0  0  3  0  0  0  0  0  0
  186.8710  178.1580  139.4150 C   0  0  0  0  0  1  0  0  0  0  0  0
  188.7850  176.5870  139.7120 C   0  0  0  0  0  2  0  0  0  0  0  0
  188.3160  178.0470  139.8760 C   0  0  2  0  0  0  0  0  0  0  0  0
  189.1400  178.9930  139.1010 N   0  0  0  0  0  2  0  0  0  0  0  0
  190.4920  176.3120  136.7960 C   0  0  1  0  0  3  0  0  0  0  0  0
  189.3770  176.6910  135.8050 C   0  0  1  0  0  3  0  0  0  0  0  0
  189.8970  177.0220  134.4110 C   0  0  0  0  0  1  0  0  0  0  0  0
  188.2950  175.6590  135.7610 C   0  0  0  0  0  0  0  0  0  0  0  0
  187.4790  175.5710  134.6410 O   0  0  0  0  0  0  0  0  0  0  0  0
  188.0960  174.8900  136.7390 O   0  0  0  0  0  1  0  0  0  0  0  0
  192.9640  176.2780  137.1290 C   0  0  0  0  0  1  0  0  0  0  0  0
  191.8520  176.2350  136.0990 C   0  0  0  0  0  2  0  0  0  0  0  0
  1 18  1  6  0  0  0
  1  8  1  0  0  0  0
  1 15  1  0  0  0  0
  2 10  1  0  0  0  0
  4  6  1  0  0  0  0
  5  6  2  0  0  0  0
  6  9  1  0  0  0  0
  7  9  1  0  0  0  0
  7  3  2  0  0  0  0
  8  4  1  6  0  0  0
  8  7  1  0  0  0  0
 11 16  1  0  0  0  0
 11 10  1  0  0  0  0
 12 11  2  0  0  0  0
 13  3  1  0  0  0  0
 13  2  2  0  0  0  0
 14 15  2  0  0  0  0
 14 12  1  0  0  0  0
 15 13  1  0  0  0  0
 16 17  1  0  0  0  0
 19 18  1  0  0  0  0
 20 22  1  0  0  0  0
 20 26  1  0  0  0  0
 21 24  1  0  0  0  0
 22 27  1  6  0  0  0
 22 21  1  0  0  0  0
 24 25  1  0  0  0  0
 25 23  1  6  0  0  0
 25 19  1  0  0  0  0
 26 25  1  0  0  0  0
 27 34  1  6  0  0  0
 28 29  1  6  0  0  0
 28 27  1  0  0  0  0
 30 28  1  0  0  0  0
 30 32  1  0  0  0  0
 31 30  2  0  0  0  0
 34 33  1  0  0  0  0
M  END
>  <MODEL>
7

>  <REMARK>
 VINA RESULT:      -7.0      3.337      8.141
  Name = 
  8 active torsions:
  status: ('A' for Active; 'I' for Inactive)
    1  A    between atoms: C_1  and  N_9
    2  A    between atoms: N_3  and  C_25
    3  A    between atoms: C_7  and  C_11
    4  A    between atoms: C_7  and  C_14
    5  A    between atoms: C_8  and  N_9
    6  A    between atoms: C_8  and  C_30
    7  A    between atoms: C_14  and  C_16
    8  A    between atoms: C_14  and  C_29
                            x       y       z     vdW  Elec       q    Type
                         _______ _______ _______ _____ _____    ______ ____

>  <TORSDO>
F 8

$$$$
=
 OpenBabel10272415153D

 34 37  0  0  1  0  0  0  0  0999 V2000
  189.8390  177.3900  138.0520 C   0  0  1  0  0  3  0  0  0  0  0  0
  191.6100  175.9630  135.1330 C   0  0  0  0  0  3  0  0  0  0  0  0
  189.4170  176.7350  135.3370 N   0  0  0  0  0  0  0  0  0  0  0  0
  187.1290  178.0220  138.1910 S   0  0  0  0  0  0  0  0  0  0  0  0
  185.7470  176.0770  137.0710 O   0  0  0  0  0  0  0  0  0  0  0  0
  186.3710  177.1030  136.8620 C   0  0  0  0  0  0  0  0  0  0  0  0
  188.5080  177.4490  135.9170 C   0  0  0  0  0  0  0  0  0  0  0  0
  188.7230  178.0510  137.2750 C   0  0  2  0  0  3  0  0  0  0  0  0
  186.8710  177.5680  135.2260 S   0  0  0  0  0  0  0  0  0  0  0  0
  192.9950  175.5510  135.3670 C   0  0  0  0  0  3  0  0  0  0  0  0
  193.6890  175.4720  136.4960 C   0  0  0  0  0  0  0  0  0  0  0  0
  193.1730  175.7840  137.8330 C   0  0  0  0  0  3  0  0  0  0  0  0
  190.6840  176.4670  135.9460 C   0  0  1  0  0  3  0  0  0  0  0  0
  192.0090  176.3040  138.2000 C   0  0  0  0  0  3  0  0  0  0  0  0
  190.8420  176.7350  137.4060 C   0  0  0  0  0  0  0  0  0  0  0  0
  195.0370  175.0150  136.3900 N   0  0  0  0  0  2  0  0  0  0  0  0
  196.0720  175.8800  136.2680 O   0  0  0  0  0  1  0  0  0  0  0  0
  189.8850  177.6690  139.4620 N   0  0  0  0  0  2  0  0  0  0  0  0
  189.6020  176.6930  140.5100 C   0  0  0  0  0  2  0  0  0  0  0  0
  189.4900  178.6960  143.6300 C   0  0  0  0  0  2  0  0  0  0  0  0
  188.5490  176.3370  143.6690 C   0  0  0  0  0  2  0  0  0  0  0  0
  188.5890  177.7000  144.3800 C   0  0  1  0  0  3  0  0  0  0  0  0
  191.6260  177.3930  141.7730 C   0  0  0  0  0  1  0  0  0  0  0  0
  189.8520  176.0680  142.9210 C   0  0  0  0  0  2  0  0  0  0  0  0
  190.1260  177.1600  141.8650 C   0  0  2  0  0  0  0  0  0  0  0  0
  189.4610  178.4350  142.1900 N   0  0  0  0  0  2  0  0  0  0  0  0
  189.0300  177.5660  145.8490 C   0  0  1  0  0  3  0  0  0  0  0  0
  187.8300  177.3210  146.7810 C   0  0  1  0  0  3  0  0  0  0  0  0
  188.1500  177.5590  148.2520 C   0  0  0  0  0  1  0  0  0  0  0  0
  186.6210  178.0890  146.3470 C   0  0  0  0  0  0  0  0  0  0  0  0
  186.3410  179.3140  146.9370 O   0  0  0  0  0  1  0  0  0  0  0  0
  185.8400  177.6230  145.4750 O   0  0  0  0  0  0  0  0  0  0  0  0
  191.4740  177.1230  146.0800 C   0  0  0  0  0  1  0  0  0  0  0  0
  190.0990  176.4860  146.0250 C   0  0  0  0  0  2  0  0  0  0  0  0
  1 18  1  6  0  0  0
  2 10  2  0  0  0  0
  3  7  2  0  0  0  0
  3 13  1  0  0  0  0
  6  5  2  0  0  0  0
  6  4  1  0  0  0  0
  8  7  1  6  0  0  0
  8  1  1  0  0  0  0
  8  4  1  0  0  0  0
  9  7  1  0  0  0  0
  9  6  1  0  0  0  0
 10 11  1  0  0  0  0
 11 12  2  0  0  0  0
 12 14  1  0  0  0  0
 13  2  1  1  0  0  0
 13 15  1  0  0  0  0
 15  1  1  0  0  0  0
 15 14  2  0  0  0  0
 16 11  1  0  0  0  0
 17 16  1  0  0  0  0
 18 19  1  0  0  0  0
 19 25  1  0  0  0  0
 20 22  1  0  0  0  0
 21 22  1  0  0  0  0
 22 27  1  1  0  0  0
 24 21  1  0  0  0  0
 25 23  1  6  0  0  0
 25 26  1  0  0  0  0
 25 24  1  0  0  0  0
 26 20  1  0  0  0  0
 27 34  1  6  0  0  0
 27 28  1  0  0  0  0
 28 29  1  1  0  0  0
 30 28  1  0  0  0  0
 30 31  1  0  0  0  0
 32 30  2  0  0  0  0
 34 33  1  0  0  0  0
M  END
>  <MODEL>
8

>  <REMARK>
 VINA RESULT:      -6.7      3.662      6.388
  Name = 
  8 active torsions:
  status: ('A' for Active; 'I' for Inactive)
    1  A    between atoms: C_1  and  N_9
    2  A    between atoms: N_3  and  C_25
    3  A    between atoms: C_7  and  C_11
    4  A    between atoms: C_7  and  C_14
    5  A    between atoms: C_8  and  N_9
    6  A    between atoms: C_8  and  C_30
    7  A    between atoms: C_14  and  C_16
    8  A    between atoms: C_14  and  C_29
                            x       y       z     vdW  Elec       q    Type
                         _______ _______ _______ _____ _____    ______ ____

>  <TORSDO>
F 8

$$$$
=
 OpenBabel10272415153D

 34 37  0  0  1  0  0  0  0  0999 V2000
  188.0290  177.6150  143.8640 C   0  0  1  0  0  3  0  0  0  0  0  0
  188.6790  177.3090  147.4950 C   0  0  0  0  0  3  0  0  0  0  0  0
  186.7170  177.8510  146.3530 N   0  0  0  0  0  0  0  0  0  0  0  0
  185.6800  178.5290  142.6790 S   0  0  0  0  0  0  0  0  0  0  0  0
  184.8350  180.6480  144.0000 O   0  0  0  0  0  0  0  0  0  0  0  0
  184.8330  179.4300  143.9660 C   0  0  0  0  0  0  0  0  0  0  0  0
  185.9720  177.8440  145.2960 C   0  0  0  0  0  0  0  0  0  0  0  0
  186.5250  177.4960  143.9440 C   0  0  2  0  0  3  0  0  0  0  0  0
  184.3050  178.4640  145.3560 S   0  0  0  0  0  0  0  0  0  0  0  0
  190.0540  176.9750  147.8700 C   0  0  0  0  0  2  0  0  0  0  0  0
  191.1530  176.9000  147.1290 C   0  0  0  0  0  0  0  0  0  0  0  0
  191.2260  177.1690  145.6890 C   0  0  0  0  0  3  0  0  0  0  0  0
  188.1110  177.5320  146.3110 C   0  0  0  0  0  0  0  0  0  0  0  0
  190.2580  177.4150  144.8160 C   0  0  0  0  0  3  0  0  0  0  0  0
  188.7960  177.5110  144.9850 C   0  0  0  0  0  0  0  0  0  0  0  0
  192.3620  176.5560  147.8060 N   0  0  0  0  0  2  0  0  0  0  0  0
  193.0320  175.4130  147.5260 O   0  0  0  0  0  1  0  0  0  0  0  0
  188.5980  177.6340  142.5430 N   0  0  0  0  0  2  0  0  0  0  0  0
  189.4200  176.5690  141.9780 C   0  0  0  0  0  2  0  0  0  0  0  0
  190.5130  176.1280  138.4610 C   0  0  0  0  0  2  0  0  0  0  0  0
  188.3070  177.3040  138.9070 C   0  0  0  0  0  2  0  0  0  0  0  0
  189.1710  176.5820  137.8600 C   0  0  1  0  0  3  0  0  0  0  0  0
  191.4110  177.6930  141.0010 C   0  0  0  0  0  1  0  0  0  0  0  0
  189.1750  178.0100  139.9460 C   0  0  0  0  0  2  0  0  0  0  0  0
  190.0910  177.0090  140.6800 C   0  0  2  0  0  0  0  0  0  0  0  0
  190.3590  175.8000  139.8800 N   0  0  0  0  0  2  0  0  0  0  0  0
  189.4020  177.4500  136.6100 C   0  0  1  0  0  3  0  0  0  0  0  0
  189.1670  176.6520  135.3150 C   0  0  1  0  0  3  0  0  0  0  0  0
  190.4080  176.5500  134.4370 C   0  0  0  0  0  1  0  0  0  0  0  0
  188.5720  175.3070  135.5890 C   0  0  0  0  0  0  0  0  0  0  0  0
  189.4070  174.2130  135.7660 O   0  0  0  0  0  1  0  0  0  0  0  0
  187.3220  175.1510  135.6320 O   0  0  0  0  0  0  0  0  0  0  0  0
  187.4500  178.6330  135.6020 C   0  0  0  0  0  1  0  0  0  0  0  0
  188.5540  178.7240  136.6380 C   0  0  0  0  0  2  0  0  0  0  0  0
  1 18  1  6  0  0  0
  1  8  1  0  0  0  0
  1 15  1  0  0  0  0
  2 10  1  0  0  0  0
  4  6  1  0  0  0  0
  6  5  2  0  0  0  0
  6  9  1  0  0  0  0
  7  9  1  0  0  0  0
  7  3  2  0  0  0  0
  8  4  1  6  0  0  0
  8  7  1  0  0  0  0
 11 16  1  0  0  0  0
 11 10  1  0  0  0  0
 12 11  2  0  0  0  0
 13  3  1  0  0  0  0
 13  2  2  0  0  0  0
 14 15  2  0  0  0  0
 14 12  1  0  0  0  0
 15 13  1  0  0  0  0
 17 16  1  0  0  0  0
 19 18  1  0  0  0  0
 20 26  1  0  0  0  0
 21 24  1  0  0  0  0
 22 27  1  6  0  0  0
 22 20  1  0  0  0  0
 22 21  1  0  0  0  0
 24 25  1  0  0  0  0
 25 23  1  1  0  0  0
 25 19  1  0  0  0  0
 26 25  1  0  0  0  0
 27 34  1  1  0  0  0
 28 29  1  1  0  0  0
 28 30  1  0  0  0  0
 28 27  1  0  0  0  0
 30 32  2  0  0  0  0
 30 31  1  0  0  0  0
 33 34  1  0  0  0  0
M  END
>  <MODEL>
9

>  <REMARK>
 VINA RESULT:      -6.6      3.150      8.073
  Name = 
  8 active torsions:
  status: ('A' for Active; 'I' for Inactive)
    1  A    between atoms: C_1  and  N_9
    2  A    between atoms: N_3  and  C_25
    3  A    between atoms: C_7  and  C_11
    4  A    between atoms: C_7  and  C_14
    5  A    between atoms: C_8  and  N_9
    6  A    between atoms: C_8  and  C_30
    7  A    between atoms: C_14  and  C_16
    8  A    between atoms: C_14  and  C_29
                            x       y       z     vdW  Elec       q    Type
                         _______ _______ _______ _____ _____    ______ ____

>  <TORSDO>
F 8

$$$$
