=
 OpenBabel10272401143D

 27 31  0  0  1  0  0  0  0  0999 V2000
  186.6970  178.9210  140.5270 N   0  0  0  0  0  0  0  0  0  0  0  0
  188.6050  177.4230  140.5180 N   0  0  0  0  0  0  0  0  0  0  0  0
  187.2150  177.6460  144.0230 C   0  0  0  0  0  2  0  0  0  0  0  0
  189.8160  176.8600  140.0950 N   0  0  0  0  0  2  0  0  0  0  0  0
  184.9750  178.8030  143.7010 C   0  0  0  0  0  0  0  0  0  0  0  0
  187.8550  178.4300  139.7530 C   0  0  1  0  0  3  0  0  0  0  0  0
  189.5260  176.4100  142.3900 C   0  0  1  0  0  3  0  0  0  0  0  0
  186.4850  178.6520  141.7830 C   0  0  0  0  0  0  0  0  0  0  0  0
  188.4260  177.2390  141.8880 C   0  0  0  0  0  0  0  0  0  0  0  0
  185.7240  177.6710  144.3780 C   0  0  0  0  0  2  0  0  0  0  0  0
  190.3030  176.0810  141.1810 N   0  0  0  0  0  2  0  0  0  0  0  0
  185.3150  179.2110  142.4730 C   0  0  0  0  0  3  0  0  0  0  0  0
  187.4050  177.7860  142.5420 C   0  0  0  0  0  0  0  0  0  0  0  0
  190.8240  178.4600  143.1160 C   0  0  0  0  0  3  0  0  0  0  0  0
  191.9660  178.4790  145.2130 N   0  0  0  0  0  0  0  0  0  0  0  0
  191.5560  177.2100  145.4800 C   0  0  0  0  0  3  0  0  0  0  0  0
  190.7580  176.5240  144.5610 C   0  0  0  0  0  3  0  0  0  0  0  0
  190.3870  177.1530  143.3700 C   0  0  0  0  0  0  0  0  0  0  0  0
  191.6200  179.1120  144.0600 C   0  0  0  0  0  3  0  0  0  0  0  0
  186.4750  177.2730  135.8290 C   0  0  0  0  0  2  0  0  0  0  0  0
  187.3870  177.8660  138.4050 C   0  0  0  0  0  3  0  0  0  0  0  0
  188.1940  178.4720  137.2420 C   0  0  0  0  0  2  0  0  0  0  0  0
  187.4640  178.4310  135.8930 C   0  0  0  0  0  2  0  0  0  0  0  0
  185.3950  177.4040  136.9110 C   0  0  0  0  0  2  0  0  0  0  0  0
  185.8890  178.1010  138.1860 C   0  0  0  0  0  2  0  0  0  0  0  0
  182.5450  178.9440  144.1070 C   0  0  0  0  0  1  0  0  0  0  0  0
  183.8730  179.4000  144.3170 O   0  0  0  0  0  0  0  0  0  0  0  0
  1  8  2  0  0  0  0
  2  9  1  0  0  0  0
  3 10  1  0  0  0  0
  4  2  1  0  0  0  0
  4 11  1  0  0  0  0
  5 27  1  0  0  0  0
  5 10  1  0  0  0  0
  6 21  1  6  0  0  0
  6  2  1  0  0  0  0
  6  1  1  0  0  0  0
  7 18  1  1  0  0  0
  8 12  1  0  0  0  0
  8 13  1  0  0  0  0
  9  7  1  0  0  0  0
  9 13  2  0  0  0  0
 11  7  1  0  0  0  0
 12  5  2  0  0  0  0
 13  3  1  0  0  0  0
 14 18  2  0  0  0  0
 14 19  1  0  0  0  0
 15 16  1  0  0  0  0
 17 16  2  0  0  0  0
 18 17  1  0  0  0  0
 19 15  2  0  0  0  0
 20 23  1  0  0  0  0
 20 24  1  0  0  0  0
 22 21  1  0  0  0  0
 23 22  1  0  0  0  0
 24 25  1  0  0  0  0
 25 21  1  0  0  0  0
 26 27  1  0  0  0  0
M  END
>  <MODEL>
1

>  <REMARK>
 VINA RESULT:      -8.1      0.000      0.000
  Name = 
  3 active torsions:
  status: ('A' for Active; 'I' for Inactive)
    1  A    between atoms: C_9  and  C_15
    2  A    between atoms: C_13  and  O_22
    3  A    between atoms: C_14  and  C_17
                            x       y       z     vdW  Elec       q    Type
                         _______ _______ _______ _____ _____    ______ ____

>  <TORSDO>
F 3

$$$$
=
 OpenBabel10272401143D

 27 31  0  0  1  0  0  0  0  0999 V2000
  188.1210  176.7570  144.1030 N   0  0  0  0  0  0  0  0  0  0  0  0
  190.0890  177.2010  142.7560 N   0  0  0  0  0  0  0  0  0  0  0  0
  187.0300  178.4850  140.9500 C   0  0  0  0  0  2  0  0  0  0  0  0
  191.3910  177.0470  142.2640 N   0  0  0  0  0  2  0  0  0  0  0  0
  185.2130  178.4010  142.7250 C   0  0  0  0  0  0  0  0  0  0  0  0
  189.5590  176.4780  143.9220 C   0  0  1  0  0  3  0  0  0  0  0  0
  190.0810  178.1260  140.6300 C   0  0  1  0  0  3  0  0  0  0  0  0
  187.3810  177.3910  143.2390 C   0  0  0  0  0  0  0  0  0  0  0  0
  189.2600  177.7760  141.7930 C   0  0  0  0  0  0  0  0  0  0  0  0
  185.8560  179.2110  141.6150 C   0  0  0  0  0  2  0  0  0  0  0  0
  191.4500  177.7690  141.0400 N   0  0  0  0  0  2  0  0  0  0  0  0
  185.9500  177.5970  143.5000 C   0  0  0  0  0  3  0  0  0  0  0  0
  187.9520  177.9170  141.9870 C   0  0  0  0  0  0  0  0  0  0  0  0
  188.5620  177.6950  138.6490 C   0  0  0  0  0  3  0  0  0  0  0  0
  189.0090  175.8770  137.1660 N   0  0  0  0  0  0  0  0  0  0  0  0
  190.1030  175.5180  137.8900 C   0  0  0  0  0  3  0  0  0  0  0  0
  190.4610  176.2470  139.0270 C   0  0  0  0  0  3  0  0  0  0  0  0
  189.6870  177.3450  139.4090 C   0  0  0  0  0  0  0  0  0  0  0  0
  188.2380  176.9400  137.5190 C   0  0  0  0  0  3  0  0  0  0  0  0
  191.6700  177.0690  147.6420 C   0  0  0  0  0  2  0  0  0  0  0  0
  190.3320  176.8410  145.1960 C   0  0  0  0  0  3  0  0  0  0  0  0
  191.5240  175.8910  145.4090 C   0  0  0  0  0  2  0  0  0  0  0  0
  191.9870  175.7930  146.8700 C   0  0  0  0  0  2  0  0  0  0  0  0
  190.1590  177.3370  147.6740 C   0  0  0  0  0  2  0  0  0  0  0  0
  189.4210  176.8270  146.4280 C   0  0  0  0  0  2  0  0  0  0  0  0
  183.3650  178.8330  144.3010 C   0  0  0  0  0  1  0  0  0  0  0  0
  183.8500  178.5250  143.0030 O   0  0  0  0  0  0  0  0  0  0  0  0
  2  6  1  0  0  0  0
  3 10  1  0  0  0  0
  3 13  1  0  0  0  0
  4  2  1  0  0  0  0
  5 27  1  0  0  0  0
  5 12  2  0  0  0  0
  6  1  1  0  0  0  0
  6 21  1  1  0  0  0
  7 18  1  6  0  0  0
  7 11  1  0  0  0  0
  7  9  1  0  0  0  0
  8 12  1  0  0  0  0
  8  1  2  0  0  0  0
  9 13  2  0  0  0  0
  9  2  1  0  0  0  0
 10  5  1  0  0  0  0
 11  4  1  0  0  0  0
 13  8  1  0  0  0  0
 14 18  1  0  0  0  0
 15 19  1  0  0  0  0
 15 16  2  0  0  0  0
 16 17  1  0  0  0  0
 17 18  2  0  0  0  0
 19 14  2  0  0  0  0
 20 24  1  0  0  0  0
 21 22  1  0  0  0  0
 21 25  1  0  0  0  0
 22 23  1  0  0  0  0
 23 20  1  0  0  0  0
 25 24  1  0  0  0  0
 27 26  1  0  0  0  0
M  END
>  <MODEL>
2

>  <REMARK>
 VINA RESULT:      -7.4      1.991      6.246
  Name = 
  3 active torsions:
  status: ('A' for Active; 'I' for Inactive)
    1  A    between atoms: C_9  and  C_15
    2  A    between atoms: C_13  and  O_22
    3  A    between atoms: C_14  and  C_17
                            x       y       z     vdW  Elec       q    Type
                         _______ _______ _______ _____ _____    ______ ____

>  <TORSDO>
F 3

$$$$
=
 OpenBabel10272401143D

 27 31  0  0  1  0  0  0  0  0999 V2000
  185.9720  178.8790  141.0640 N   0  0  0  0  0  0  0  0  0  0  0  0
  183.5860  178.5820  141.3880 N   0  0  0  0  0  0  0  0  0  0  0  0
  184.4530  177.8590  137.7820 C   0  0  0  0  0  2  0  0  0  0  0  0
  182.3200  178.7480  141.9630 N   0  0  0  0  0  2  0  0  0  0  0  0
  186.9900  177.7110  137.8000 C   0  0  0  0  0  0  0  0  0  0  0  0
  184.8310  179.0990  141.9750 C   0  0  1  0  0  3  0  0  0  0  0  0
  182.0560  178.0850  139.7170 C   0  0  1  0  0  3  0  0  0  0  0  0
  185.8610  178.4690  139.8330 C   0  0  0  0  0  0  0  0  0  0  0  0
  183.4770  178.2550  140.0370 C   0  0  0  0  0  0  0  0  0  0  0  0
  185.6940  177.0920  137.3140 C   0  0  0  0  0  2  0  0  0  0  0  0
  181.3760  178.2720  141.0110 N   0  0  0  0  0  2  0  0  0  0  0  0
  187.0580  178.3050  138.9970 C   0  0  0  0  0  3  0  0  0  0  0  0
  184.5440  178.1600  139.2490 C   0  0  0  0  0  0  0  0  0  0  0  0
  181.7760  180.4790  138.9420 C   0  0  0  0  0  3  0  0  0  0  0  0
  180.6780  180.9530  136.8740 N   0  0  0  0  0  0  0  0  0  0  0  0
  180.4710  179.6270  136.6490 C   0  0  0  0  0  3  0  0  0  0  0  0
  180.9160  178.6810  137.5740 C   0  0  0  0  0  3  0  0  0  0  0  0
  181.5760  179.1080  138.7290 C   0  0  0  0  0  0  0  0  0  0  0  0
  181.3150  181.3940  137.9910 C   0  0  0  0  0  3  0  0  0  0  0  0
  185.8810  177.6370  145.8990 C   0  0  0  0  0  2  0  0  0  0  0  0
  185.1110  178.4520  143.3370 C   0  0  0  0  0  3  0  0  0  0  0  0
  184.7710  179.4160  144.4880 C   0  0  0  0  0  2  0  0  0  0  0  0
  185.5200  179.1140  145.7930 C   0  0  0  0  0  2  0  0  0  0  0  0
  186.8040  177.2070  144.7510 C   0  0  0  0  0  2  0  0  0  0  0  0
  186.5660  177.9880  143.4510 C   0  0  0  0  0  2  0  0  0  0  0  0
  189.3630  178.2660  137.4130 C   0  0  0  0  0  1  0  0  0  0  0  0
  188.1560  177.6200  137.0370 O   0  0  0  0  0  0  0  0  0  0  0  0
  1  6  1  0  0  0  0
  2  4  1  0  0  0  0
  2  6  1  0  0  0  0
  3 13  1  0  0  0  0
  5 12  2  0  0  0  0
  6 21  1  1  0  0  0
  7 18  1  6  0  0  0
  7  9  1  0  0  0  0
  7 11  1  0  0  0  0
  8  1  2  0  0  0  0
  9  2  1  0  0  0  0
 10  3  1  0  0  0  0
 10  5  1  0  0  0  0
 11  4  1  0  0  0  0
 12  8  1  0  0  0  0
 13  8  1  0  0  0  0
 13  9  2  0  0  0  0
 15 19  1  0  0  0  0
 16 15  2  0  0  0  0
 16 17  1  0  0  0  0
 17 18  2  0  0  0  0
 18 14  1  0  0  0  0
 19 14  2  0  0  0  0
 21 25  1  0  0  0  0
 21 22  1  0  0  0  0
 22 23  1  0  0  0  0
 23 20  1  0  0  0  0
 24 20  1  0  0  0  0
 25 24  1  0  0  0  0
 27 26  1  0  0  0  0
 27  5  1  0  0  0  0
M  END
>  <MODEL>
3

>  <REMARK>
 VINA RESULT:      -7.2      3.667      8.461
  Name = 
  3 active torsions:
  status: ('A' for Active; 'I' for Inactive)
    1  A    between atoms: C_9  and  C_15
    2  A    between atoms: C_13  and  O_22
    3  A    between atoms: C_14  and  C_17
                            x       y       z     vdW  Elec       q    Type
                         _______ _______ _______ _____ _____    ______ ____

>  <TORSDO>
F 3

$$$$
=
 OpenBabel10272401143D

 27 31  0  0  1  0  0  0  0  0999 V2000
  187.4770  177.0080  143.0900 N   0  0  0  0  0  0  0  0  0  0  0  0
  189.1580  177.4540  141.3980 N   0  0  0  0  0  0  0  0  0  0  0  0
  185.8260  178.7980  140.2290 C   0  0  0  0  0  2  0  0  0  0  0  0
  190.3390  177.2960  140.6630 N   0  0  0  0  0  2  0  0  0  0  0  0
  184.3810  178.7030  142.3170 C   0  0  0  0  0  0  0  0  0  0  0  0
  188.8510  176.7180  142.6320 C   0  0  1  0  0  3  0  0  0  0  0  0
  188.7540  178.4150  139.3260 C   0  0  1  0  0  3  0  0  0  0  0  0
  186.5940  177.6630  142.3930 C   0  0  0  0  0  0  0  0  0  0  0  0
  188.1680  178.0530  140.6200 C   0  0  0  0  0  0  0  0  0  0  0  0
  184.8100  179.5250  141.1170 C   0  0  0  0  0  2  0  0  0  0  0  0
  190.1730  178.0380  139.4610 N   0  0  0  0  0  2  0  0  0  0  0  0
  185.2420  177.8780  142.9260 C   0  0  0  0  0  3  0  0  0  0  0  0
  186.9220  178.2040  141.0620 C   0  0  0  0  0  0  0  0  0  0  0  0
  188.2320  176.2640  138.0960 C   0  0  0  0  0  3  0  0  0  0  0  0
  186.9410  176.3110  136.0870 N   0  0  0  0  0  0  0  0  0  0  0  0
  186.8260  177.6650  136.1590 C   0  0  0  0  0  3  0  0  0  0  0  0
  187.4180  178.3630  137.2150 C   0  0  0  0  0  3  0  0  0  0  0  0
  188.1250  177.6580  138.1920 C   0  0  0  0  0  0  0  0  0  0  0  0
  187.6250  175.6030  137.0250 C   0  0  0  0  0  3  0  0  0  0  0  0
  191.6070  177.2400  145.9150 C   0  0  0  0  0  2  0  0  0  0  0  0
  189.8570  177.0510  143.7410 C   0  0  0  0  0  3  0  0  0  0  0  0
  190.9820  176.0020  143.8010 C   0  0  0  0  0  2  0  0  0  0  0  0
  191.6760  175.9130  145.1670 C   0  0  0  0  0  2  0  0  0  0  0  0
  190.1530  177.6500  146.1840 C   0  0  0  0  0  2  0  0  0  0  0  0
  189.1720  177.1680  145.1060 C   0  0  0  0  0  2  0  0  0  0  0  0
  182.8500  178.7880  144.2500 C   0  0  0  0  0  1  0  0  0  0  0  0
  183.0990  178.8360  142.8530 O   0  0  0  0  0  0  0  0  0  0  0  0
  2  6  1  0  0  0  0
  3 13  1  0  0  0  0
  3 10  1  0  0  0  0
  4  2  1  0  0  0  0
  5 27  1  0  0  0  0
  5 12  2  0  0  0  0
  6  1  1  0  0  0  0
  6 21  1  1  0  0  0
  7 18  1  6  0  0  0
  7 11  1  0  0  0  0
  7  9  1  0  0  0  0
  8 12  1  0  0  0  0
  8  1  2  0  0  0  0
  9 13  2  0  0  0  0
  9  2  1  0  0  0  0
 10  5  1  0  0  0  0
 11  4  1  0  0  0  0
 13  8  1  0  0  0  0
 14 18  1  0  0  0  0
 15 16  2  0  0  0  0
 15 19  1  0  0  0  0
 16 17  1  0  0  0  0
 17 18  2  0  0  0  0
 19 14  2  0  0  0  0
 20 24  1  0  0  0  0
 21 22  1  0  0  0  0
 21 25  1  0  0  0  0
 22 23  1  0  0  0  0
 23 20  1  0  0  0  0
 25 24  1  0  0  0  0
 27 26  1  0  0  0  0
M  END
>  <MODEL>
4

>  <REMARK>
 VINA RESULT:      -7.1      1.634      6.172
  Name = 
  3 active torsions:
  status: ('A' for Active; 'I' for Inactive)
    1  A    between atoms: C_9  and  C_15
    2  A    between atoms: C_13  and  O_22
    3  A    between atoms: C_14  and  C_17
                            x       y       z     vdW  Elec       q    Type
                         _______ _______ _______ _____ _____    ______ ____

>  <TORSDO>
F 3

$$$$
=
 OpenBabel10272401143D

 27 31  0  0  1  0  0  0  0  0999 V2000
  187.2920  179.0030  140.9160 N   0  0  0  0  0  0  0  0  0  0  0  0
  188.8840  177.2250  141.3450 N   0  0  0  0  0  0  0  0  0  0  0  0
  186.5630  177.5580  144.3070 C   0  0  0  0  0  2  0  0  0  0  0  0
  190.0740  176.4910  141.2480 N   0  0  0  0  0  2  0  0  0  0  0  0
  184.7070  179.0620  143.4400 C   0  0  0  0  0  0  0  0  0  0  0  0
  188.5450  178.3590  140.4740 C   0  0  1  0  0  3  0  0  0  0  0  0
  189.0550  176.0240  143.3210 C   0  0  1  0  0  3  0  0  0  0  0  0
  186.6810  178.7330  142.0340 C   0  0  0  0  0  0  0  0  0  0  0  0
  188.2820  177.0300  142.5880 C   0  0  0  0  0  0  0  0  0  0  0  0
  185.0540  177.8070  144.2170 C   0  0  0  0  0  2  0  0  0  0  0  0
  190.1010  175.6130  142.3670 N   0  0  0  0  0  2  0  0  0  0  0  0
  185.4500  179.4490  142.3960 C   0  0  0  0  0  3  0  0  0  0  0  0
  187.2020  177.7110  142.9590 C   0  0  0  0  0  0  0  0  0  0  0  0
  191.0700  176.7610  144.6670 C   0  0  0  0  0  3  0  0  0  0  0  0
  190.7880  177.6480  146.8660 N   0  0  0  0  0  0  0  0  0  0  0  0
  189.4390  177.4910  146.7870 C   0  0  0  0  0  3  0  0  0  0  0  0
  188.8620  176.9580  145.6310 C   0  0  0  0  0  3  0  0  0  0  0  0
  189.6830  176.5910  144.5620 C   0  0  0  0  0  0  0  0  0  0  0  0
  191.6070  177.2970  145.8400 C   0  0  0  0  0  3  0  0  0  0  0  0
  188.1130  177.5480  136.2550 C   0  0  0  0  0  2  0  0  0  0  0  0
  188.4230  177.9170  139.0100 C   0  0  0  0  0  3  0  0  0  0  0  0
  189.3620  178.7350  138.1050 C   0  0  0  0  0  2  0  0  0  0  0  0
  188.9220  178.7830  136.6360 C   0  0  0  0  0  2  0  0  0  0  0  0
  186.8340  177.4410  137.0970 C   0  0  0  0  0  2  0  0  0  0  0  0
  186.9800  178.0260  138.5080 C   0  0  0  0  0  2  0  0  0  0  0  0
  182.2610  179.2570  143.6960 C   0  0  0  0  0  1  0  0  0  0  0  0
  183.5680  179.8060  143.7550 O   0  0  0  0  0  0  0  0  0  0  0  0
  1  8  2  0  0  0  0
  2  9  1  0  0  0  0
  4  2  1  0  0  0  0
  4 11  1  0  0  0  0
  5 27  1  0  0  0  0
  5 10  1  0  0  0  0
  6 21  1  6  0  0  0
  6  1  1  0  0  0  0
  6  2  1  0  0  0  0
  7 18  1  1  0  0  0
  8 12  1  0  0  0  0
  8 13  1  0  0  0  0
  9 13  2  0  0  0  0
  9  7  1  0  0  0  0
 10  3  1  0  0  0  0
 11  7  1  0  0  0  0
 12  5  2  0  0  0  0
 13  3  1  0  0  0  0
 14 19  1  0  0  0  0
 16 15  1  0  0  0  0
 17 16  2  0  0  0  0
 18 14  2  0  0  0  0
 18 17  1  0  0  0  0
 19 15  2  0  0  0  0
 20 23  1  0  0  0  0
 20 24  1  0  0  0  0
 22 21  1  0  0  0  0
 23 22  1  0  0  0  0
 24 25  1  0  0  0  0
 25 21  1  0  0  0  0
 26 27  1  0  0  0  0
M  END
>  <MODEL>
5

>  <REMARK>
 VINA RESULT:      -7.1      1.139      1.397
  Name = 
  3 active torsions:
  status: ('A' for Active; 'I' for Inactive)
    1  A    between atoms: C_9  and  C_15
    2  A    between atoms: C_13  and  O_22
    3  A    between atoms: C_14  and  C_17
                            x       y       z     vdW  Elec       q    Type
                         _______ _______ _______ _____ _____    ______ ____

>  <TORSDO>
F 3

$$$$
=
 OpenBabel10272401143D

 27 31  0  0  1  0  0  0  0  0999 V2000
  187.9290  177.0750  142.9720 N   0  0  0  0  0  0  0  0  0  0  0  0
  187.0650  178.0980  140.9500 N   0  0  0  0  0  0  0  0  0  0  0  0
  184.7800  178.9310  143.8410 C   0  0  0  0  0  2  0  0  0  0  0  0
  186.8420  178.2890  139.5800 N   0  0  0  0  0  2  0  0  0  0  0  0
  186.1250  178.2320  145.8820 C   0  0  0  0  0  0  0  0  0  0  0  0
  188.0270  177.1330  141.5000 C   0  0  1  0  0  3  0  0  0  0  0  0
  185.0710  179.2710  140.7860 C   0  0  1  0  0  3  0  0  0  0  0  0
  186.9890  177.6460  143.6690 C   0  0  0  0  0  0  0  0  0  0  0  0
  186.0040  178.6060  141.7000 C   0  0  0  0  0  0  0  0  0  0  0  0
  185.2480  179.2980  145.2540 C   0  0  0  0  0  2  0  0  0  0  0  0
  185.7240  179.1620  139.4690 N   0  0  0  0  0  2  0  0  0  0  0  0
  186.9640  177.5070  145.1320 C   0  0  0  0  0  3  0  0  0  0  0  0
  185.9330  178.4400  143.0170 C   0  0  0  0  0  0  0  0  0  0  0  0
  182.6370  179.1050  141.4630 C   0  0  0  0  0  3  0  0  0  0  0  0
  181.2860  177.3050  140.6630 N   0  0  0  0  0  0  0  0  0  0  0  0
  182.3370  176.7880  139.9710 C   0  0  0  0  0  3  0  0  0  0  0  0
  183.5810  177.4230  140.0060 C   0  0  0  0  0  3  0  0  0  0  0  0
  183.7330  178.5920  140.7560 C   0  0  0  0  0  0  0  0  0  0  0  0
  181.4100  178.4400  141.4010 C   0  0  0  0  0  3  0  0  0  0  0  0
  192.1260  177.6660  140.2520 C   0  0  0  0  0  2  0  0  0  0  0  0
  189.4610  177.4810  141.0810 C   0  0  0  0  0  3  0  0  0  0  0  0
  189.7790  176.9220  139.6810 C   0  0  0  0  0  2  0  0  0  0  0  0
  191.2770  176.7100  139.4220 C   0  0  0  0  0  2  0  0  0  0  0  0
  191.9020  177.4460  141.7550 C   0  0  0  0  0  2  0  0  0  0  0  0
  190.4850  176.9660  142.0980 C   0  0  0  0  0  2  0  0  0  0  0  0
  187.3150  178.0440  148.0340 C   0  0  0  0  0  1  0  0  0  0  0  0
  186.1240  178.0270  147.2620 O   0  0  0  0  0  0  0  0  0  0  0  0
  1  8  2  0  0  0  0
  2  6  1  0  0  0  0
  2  9  1  0  0  0  0
  3 10  1  0  0  0  0
  4  2  1  0  0  0  0
  5 27  1  0  0  0  0
  6 21  1  1  0  0  0
  6  1  1  0  0  0  0
  7 18  1  6  0  0  0
  7  9  1  0  0  0  0
  8 12  1  0  0  0  0
  9 13  2  0  0  0  0
 10  5  1  0  0  0  0
 11  4  1  0  0  0  0
 11  7  1  0  0  0  0
 12  5  2  0  0  0  0
 13  8  1  0  0  0  0
 13  3  1  0  0  0  0
 15 19  2  0  0  0  0
 16 17  2  0  0  0  0
 16 15  1  0  0  0  0
 17 18  1  0  0  0  0
 18 14  2  0  0  0  0
 19 14  1  0  0  0  0
 20 24  1  0  0  0  0
 21 25  1  0  0  0  0
 22 21  1  0  0  0  0
 23 22  1  0  0  0  0
 23 20  1  0  0  0  0
 24 25  1  0  0  0  0
 27 26  1  0  0  0  0
M  END
>  <MODEL>
6

>  <REMARK>
 VINA RESULT:      -6.9      2.723      5.968
  Name = 
  3 active torsions:
  status: ('A' for Active; 'I' for Inactive)
    1  A    between atoms: C_9  and  C_15
    2  A    between atoms: C_13  and  O_22
    3  A    between atoms: C_14  and  C_17
                            x       y       z     vdW  Elec       q    Type
                         _______ _______ _______ _____ _____    ______ ____

>  <TORSDO>
F 3

$$$$
=
 OpenBabel10272401143D

 27 31  0  0  1  0  0  0  0  0999 V2000
  186.6100  177.3610  144.0260 N   0  0  0  0  0  0  0  0  0  0  0  0
  188.8070  177.8030  143.0990 N   0  0  0  0  0  0  0  0  0  0  0  0
  186.1710  178.7870  140.5780 C   0  0  0  0  0  2  0  0  0  0  0  0
  190.1900  177.6790  142.9100 N   0  0  0  0  0  2  0  0  0  0  0  0
  184.0160  178.7440  141.9250 C   0  0  0  0  0  0  0  0  0  0  0  0
  188.0620  177.1440  144.1810 C   0  0  1  0  0  3  0  0  0  0  0  0
  189.2290  178.5630  140.9490 C   0  0  1  0  0  3  0  0  0  0  0  0
  186.0540  177.8890  142.9740 C   0  0  0  0  0  0  0  0  0  0  0  0
  188.1880  178.2600  141.9360 C   0  0  0  0  0  0  0  0  0  0  0  0
  184.8570  179.5000  140.9140 C   0  0  0  0  0  2  0  0  0  0  0  0
  190.4880  178.3090  141.6700 N   0  0  0  0  0  2  0  0  0  0  0  0
  184.5940  178.0400  142.9050 C   0  0  0  0  0  3  0  0  0  0  0  0
  186.8650  178.3470  141.8320 C   0  0  0  0  0  0  0  0  0  0  0  0
  188.1450  177.8610  138.7710 C   0  0  0  0  0  3  0  0  0  0  0  0
  189.0130  176.0090  137.5380 N   0  0  0  0  0  0  0  0  0  0  0  0
  189.9830  175.8070  138.4700 C   0  0  0  0  0  3  0  0  0  0  0  0
  190.0610  176.6360  139.5910 C   0  0  0  0  0  3  0  0  0  0  0  0
  189.1360  177.6730  139.7430 C   0  0  0  0  0  0  0  0  0  0  0  0
  188.1010  177.0100  137.6640 C   0  0  0  0  0  3  0  0  0  0  0  0
  189.3580  178.1090  148.1850 C   0  0  0  0  0  2  0  0  0  0  0  0
  188.5260  177.6410  145.5560 C   0  0  0  0  0  3  0  0  0  0  0  0
  189.8070  176.9130  146.0030 C   0  0  0  0  0  2  0  0  0  0  0  0
  190.0170  176.9040  147.5240 C   0  0  0  0  0  2  0  0  0  0  0  0
  187.8420  178.1120  147.9480 C   0  0  0  0  0  2  0  0  0  0  0  0
  187.4300  177.4760  146.6130 C   0  0  0  0  0  2  0  0  0  0  0  0
  181.8680  178.4840  140.7390 C   0  0  0  0  0  1  0  0  0  0  0  0
  182.6220  178.8190  141.8940 O   0  0  0  0  0  0  0  0  0  0  0  0
  1  6  1  0  0  0  0
  2  6  1  0  0  0  0
  3 10  1  0  0  0  0
  3 13  1  0  0  0  0
  4  2  1  0  0  0  0
  5 12  2  0  0  0  0
  6 21  1  1  0  0  0
  7 18  1  6  0  0  0
  7 11  1  0  0  0  0
  7  9  1  0  0  0  0
  8  1  2  0  0  0  0
  9  2  1  0  0  0  0
 10  5  1  0  0  0  0
 11  4  1  0  0  0  0
 12  8  1  0  0  0  0
 13  9  2  0  0  0  0
 13  8  1  0  0  0  0
 14 18  1  0  0  0  0
 15 19  1  0  0  0  0
 15 16  2  0  0  0  0
 16 17  1  0  0  0  0
 17 18  2  0  0  0  0
 19 14  2  0  0  0  0
 21 22  1  0  0  0  0
 21 25  1  0  0  0  0
 22 23  1  0  0  0  0
 23 20  1  0  0  0  0
 24 20  1  0  0  0  0
 25 24  1  0  0  0  0
 26 27  1  0  0  0  0
 27  5  1  0  0  0  0
M  END
>  <MODEL>
7

>  <REMARK>
 VINA RESULT:      -6.8      2.347      6.141
  Name = 
  3 active torsions:
  status: ('A' for Active; 'I' for Inactive)
    1  A    between atoms: C_9  and  C_15
    2  A    between atoms: C_13  and  O_22
    3  A    between atoms: C_14  and  C_17
                            x       y       z     vdW  Elec       q    Type
                         _______ _______ _______ _____ _____    ______ ____

>  <TORSDO>
F 3

$$$$
=
 OpenBabel10272401143D

 27 31  0  0  1  0  0  0  0  0999 V2000
  189.5380  176.2360  137.8280 N   0  0  0  0  0  0  0  0  0  0  0  0
  188.2160  177.7720  139.1620 N   0  0  0  0  0  0  0  0  0  0  0  0
  191.7170  177.5970  140.5700 C   0  0  0  0  0  2  0  0  0  0  0  0
  187.0750  178.3510  139.7330 N   0  0  0  0  0  2  0  0  0  0  0  0
  193.0260  176.3880  138.7570 C   0  0  0  0  0  0  0  0  0  0  0  0
  188.1790  176.7340  138.1210 C   0  0  1  0  0  3  0  0  0  0  0  0
  188.9390  178.8440  141.0870 C   0  0  1  0  0  3  0  0  0  0  0  0
  190.5950  176.5280  138.5300 C   0  0  0  0  0  0  0  0  0  0  0  0
  189.3340  177.9820  139.9680 C   0  0  0  0  0  0  0  0  0  0  0  0
  193.0000  177.5490  139.7330 C   0  0  0  0  0  2  0  0  0  0  0  0
  187.5270  179.1620  140.8100 N   0  0  0  0  0  2  0  0  0  0  0  0
  191.9010  175.9600  138.1720 C   0  0  0  0  0  3  0  0  0  0  0  0
  190.5120  177.4290  139.6940 C   0  0  0  0  0  0  0  0  0  0  0  0
  190.1090  178.4240  143.2930 C   0  0  0  0  0  3  0  0  0  0  0  0
  189.2330  176.8200  144.8320 N   0  0  0  0  0  0  0  0  0  0  0  0
  188.2090  176.5280  143.9870 C   0  0  0  0  0  3  0  0  0  0  0  0
  188.1050  177.1830  142.7580 C   0  0  0  0  0  3  0  0  0  0  0  0
  189.0600  178.1400  142.4080 C   0  0  0  0  0  0  0  0  0  0  0  0
  190.1770  177.7470  144.5130 C   0  0  0  0  0  3  0  0  0  0  0  0
  186.2700  177.7770  134.3920 C   0  0  0  0  0  2  0  0  0  0  0  0
  187.5210  177.2590  136.8390 C   0  0  0  0  0  3  0  0  0  0  0  0
  186.1120  176.6660  136.6570 C   0  0  0  0  0  2  0  0  0  0  0  0
  185.6250  176.6580  135.2020 C   0  0  0  0  0  2  0  0  0  0  0  0
  187.7960  177.6210  134.3470 C   0  0  0  0  0  2  0  0  0  0  0  0
  188.3800  176.9630  135.6050 C   0  0  0  0  0  2  0  0  0  0  0  0
  194.2970  174.4570  137.8940 C   0  0  0  0  0  1  0  0  0  0  0  0
  194.2320  175.7820  138.4000 O   0  0  0  0  0  0  0  0  0  0  0  0
  1  6  1  0  0  0  0
  1  8  2  0  0  0  0
  2  4  1  0  0  0  0
  2  9  1  0  0  0  0
  4 11  1  0  0  0  0
  5 10  1  0  0  0  0
  6 21  1  6  0  0  0
  6  2  1  0  0  0  0
  7 18  1  1  0  0  0
  8 13  1  0  0  0  0
  9  7  1  0  0  0  0
 10  3  1  0  0  0  0
 11  7  1  0  0  0  0
 12  8  1  0  0  0  0
 12  5  2  0  0  0  0
 13  9  2  0  0  0  0
 13  3  1  0  0  0  0
 14 19  1  0  0  0  0
 16 15  1  0  0  0  0
 17 16  2  0  0  0  0
 18 17  1  0  0  0  0
 18 14  2  0  0  0  0
 19 15  2  0  0  0  0
 20 23  1  0  0  0  0
 22 21  1  0  0  0  0
 23 22  1  0  0  0  0
 24 20  1  0  0  0  0
 24 25  1  0  0  0  0
 25 21  1  0  0  0  0
 26 27  1  0  0  0  0
 27  5  1  0  0  0  0
M  END
>  <MODEL>
8

>  <REMARK>
 VINA RESULT:      -6.6      3.551      5.568
  Name = 
  3 active torsions:
  status: ('A' for Active; 'I' for Inactive)
    1  A    between atoms: C_9  and  C_15
    2  A    between atoms: C_13  and  O_22
    3  A    between atoms: C_14  and  C_17
                            x       y       z     vdW  Elec       q    Type
                         _______ _______ _______ _____ _____    ______ ____

>  <TORSDO>
F 3

$$$$
=
 OpenBabel10272401143D

 27 31  0  0  1  0  0  0  0  0999 V2000
  187.6290  177.1370  142.6390 N   0  0  0  0  0  0  0  0  0  0  0  0
  188.2200  177.8470  144.8820 N   0  0  0  0  0  0  0  0  0  0  0  0
  191.3740  177.3390  142.8660 C   0  0  0  0  0  2  0  0  0  0  0  0
  188.0900  178.0390  146.2640 N   0  0  0  0  0  2  0  0  0  0  0  0
  190.5260  177.1280  140.4790 C   0  0  0  0  0  0  0  0  0  0  0  0
  187.1390  177.3600  144.0140 C   0  0  1  0  0  3  0  0  0  0  0  0
  190.3790  178.0350  145.7060 C   0  0  1  0  0  3  0  0  0  0  0  0
  188.8840  177.1750  142.2910 C   0  0  0  0  0  0  0  0  0  0  0  0
  189.5640  177.7710  144.5170 C   0  0  0  0  0  0  0  0  0  0  0  0
  191.5580  177.7500  141.4020 C   0  0  0  0  0  2  0  0  0  0  0  0
  189.3910  178.3380  146.7560 N   0  0  0  0  0  2  0  0  0  0  0  0
  189.2740  176.9130  140.8990 C   0  0  0  0  0  3  0  0  0  0  0  0
  189.9380  177.4770  143.2750 C   0  0  0  0  0  0  0  0  0  0  0  0
  191.5880  175.8780  145.1580 C   0  0  0  0  0  3  0  0  0  0  0  0
  192.7220  174.6650  146.8760 N   0  0  0  0  0  0  0  0  0  0  0  0
  192.3560  175.5880  147.8070 C   0  0  0  0  0  3  0  0  0  0  0  0
  191.5870  176.6930  147.4340 C   0  0  0  0  0  3  0  0  0  0  0  0
  191.2020  176.8420  146.1000 C   0  0  0  0  0  0  0  0  0  0  0  0
  192.3570  174.7870  145.5710 C   0  0  0  0  0  3  0  0  0  0  0  0
  183.5480  179.7560  144.0900 C   0  0  0  0  0  2  0  0  0  0  0  0
  185.9560  178.3370  144.0000 C   0  0  0  0  0  3  0  0  0  0  0  0
  185.1990  178.3070  145.3410 C   0  0  0  0  0  2  0  0  0  0  0  0
  183.7410  178.7750  145.2410 C   0  0  0  0  0  2  0  0  0  0  0  0
  183.8970  179.1070  142.7440 C   0  0  0  0  0  2  0  0  0  0  0  0
  184.9940  178.0380  142.8460 C   0  0  0  0  0  2  0  0  0  0  0  0
  190.0340  177.2430  138.0650 C   0  0  0  0  0  1  0  0  0  0  0  0
  190.8430  176.8260  139.1540 O   0  0  0  0  0  0  0  0  0  0  0  0
  1  6  1  0  0  0  0
  2  4  1  0  0  0  0
  3 13  1  0  0  0  0
  4 11  1  0  0  0  0
  5 12  2  0  0  0  0
  5 10  1  0  0  0  0
  6 21  1  6  0  0  0
  6  2  1  0  0  0  0
  7 18  1  1  0  0  0
  7 11  1  0  0  0  0
  8  1  2  0  0  0  0
  8 13  1  0  0  0  0
  9  2  1  0  0  0  0
  9  7  1  0  0  0  0
 10  3  1  0  0  0  0
 12  8  1  0  0  0  0
 13  9  2  0  0  0  0
 14 19  2  0  0  0  0
 14 18  1  0  0  0  0
 15 16  2  0  0  0  0
 17 16  1  0  0  0  0
 18 17  2  0  0  0  0
 19 15  1  0  0  0  0
 20 23  1  0  0  0  0
 21 22  1  0  0  0  0
 23 22  1  0  0  0  0
 24 25  1  0  0  0  0
 24 20  1  0  0  0  0
 25 21  1  0  0  0  0
 26 27  1  0  0  0  0
 27  5  1  0  0  0  0
M  END
>  <MODEL>
9

>  <REMARK>
 VINA RESULT:      -6.5      2.969      5.782
  Name = 
  3 active torsions:
  status: ('A' for Active; 'I' for Inactive)
    1  A    between atoms: C_9  and  C_15
    2  A    between atoms: C_13  and  O_22
    3  A    between atoms: C_14  and  C_17
                            x       y       z     vdW  Elec       q    Type
                         _______ _______ _______ _____ _____    ______ ____

>  <TORSDO>
F 3

$$$$
