=
 OpenBabel10272401113D

 27 31  0  0  1  0  0  0  0  0999 V2000
  186.8360  177.7590  142.3980 C   0  0  2  0  0  3  0  0  0  0  0  0
  186.6720  177.4510  143.9050 C   0  0  2  0  0  3  0  0  0  0  0  0
  188.9310  177.6650  143.4430 C   0  0  0  0  0  0  0  0  0  0  0  0
  187.7630  178.1220  148.2770 S   0  0  0  0  0  0  0  0  0  0  0  0
  190.5280  177.9540  148.7490 C   0  0  0  0  0  1  0  0  0  0  0  0
  185.6890  178.3100  144.7230 C   0  0  0  0  0  2  0  0  0  0  0  0
  189.5050  177.7280  146.4800 N   0  0  0  0  0  0  0  0  0  0  0  0
  190.4570  177.5990  141.0280 C   0  0  2  0  0  3  0  0  0  0  0  0
  190.7850  179.1210  143.6230 O   0  0  0  0  0  1  0  0  0  0  0  0
  191.1170  176.9820  139.9640 O   0  0  0  0  0  1  0  0  0  0  0  0
  188.2910  177.7380  145.8700 C   0  0  0  0  0  0  0  0  0  0  0  0
  189.3740  177.9230  147.8120 C   0  0  0  0  0  0  0  0  0  0  0  0
  187.2060  177.9670  146.7010 C   0  0  0  0  0  0  0  0  0  0  0  0
  188.2840  177.7450  142.1820 N   0  0  0  0  0  0  0  0  0  0  0  0
  188.0620  177.5860  144.4310 C   0  0  0  0  0  0  0  0  0  0  0  0
  191.0670  177.1120  142.3480 C   0  0  0  0  0  2  0  0  0  0  0  0
  185.7760  177.9800  146.2290 C   0  0  0  0  0  2  0  0  0  0  0  0
  188.3520  177.9720  139.7410 C   0  0  0  0  0  1  0  0  0  0  0  0
  188.9530  177.2910  140.9600 C   0  0  1  0  0  3  0  0  0  0  0  0
  190.4150  177.7770  143.5620 C   0  0  2  0  0  3  0  0  0  0  0  0
  186.2110  179.0920  141.9340 C   0  0  0  0  0  2  0  0  0  0  0  0
  182.5460  179.1440  139.6950 C   0  0  0  0  0  2  0  0  0  0  0  0
  185.0070  178.9460  141.0450 C   0  0  0  0  0  0  0  0  0  0  0  0
  183.8730  178.0610  141.5120 C   0  0  0  0  0  2  0  0  0  0  0  0
  182.7950  177.8510  140.4520 C   0  0  0  0  0  2  0  0  0  0  0  0
  183.8440  179.5220  138.9970 C   0  0  0  0  0  2  0  0  0  0  0  0
  184.9420  179.6170  139.9400 N   0  0  0  0  0  0  0  0  0  0  0  0
  1 21  1  1  0  0  0
  1  2  1  0  0  0  0
  2 15  1  0  0  0  0
  2  6  1  1  0  0  0
  3 20  1  0  0  0  0
  3 15  2  0  0  0  0
  6 17  1  0  0  0  0
  7 12  2  0  0  0  0
  8 10  1  6  0  0  0
  8 16  1  0  0  0  0
 11  7  1  0  0  0  0
 11 13  2  0  0  0  0
 12  4  1  0  0  0  0
 12  5  1  0  0  0  0
 13  4  1  0  0  0  0
 14  1  1  0  0  0  0
 14  3  1  0  0  0  0
 15 11  1  0  0  0  0
 16 20  1  0  0  0  0
 17 13  1  0  0  0  0
 19 18  1  6  0  0  0
 19  8  1  0  0  0  0
 19 14  1  0  0  0  0
 20  9  1  6  0  0  0
 22 25  1  0  0  0  0
 23 24  1  0  0  0  0
 23 21  1  0  0  0  0
 25 24  1  0  0  0  0
 26 22  1  0  0  0  0
 26 27  1  0  0  0  0
 27 23  2  0  0  0  0
M  END
>  <MODEL>
1

>  <REMARK>
 VINA RESULT:      -9.7      0.000      0.000
  Name = 
  2 active torsions:
  status: ('A' for Active; 'I' for Inactive)
    1  A    between atoms: C_1  and  C_15
    2  A    between atoms: C_9  and  C_15
                            x       y       z     vdW  Elec       q    Type
                         _______ _______ _______ _____ _____    ______ ____

>  <TORSDO>
F 2

$$$$
=
 OpenBabel10272401113D

 27 31  0  0  1  0  0  0  0  0999 V2000
  188.5260  177.1450  143.6100 C   0  0  2  0  0  3  0  0  0  0  0  0
  188.9920  176.7690  142.1840 C   0  0  2  0  0  3  0  0  0  0  0  0
  187.0120  177.9590  142.0180 C   0  0  0  0  0  0  0  0  0  0  0  0
  189.6650  177.7690  137.7910 S   0  0  0  0  0  0  0  0  0  0  0  0
  187.3740  178.8210  136.5490 C   0  0  0  0  0  1  0  0  0  0  0  0
  190.4420  177.0950  141.7790 C   0  0  0  0  0  2  0  0  0  0  0  0
  187.4670  178.2110  138.9700 N   0  0  0  0  0  0  0  0  0  0  0  0
  184.9500  178.6130  143.8850 C   0  0  2  0  0  3  0  0  0  0  0  0
  186.0990  180.0770  141.4980 O   0  0  0  0  0  1  0  0  0  0  0  0
  183.8040  178.3670  144.6430 O   0  0  0  0  0  1  0  0  0  0  0  0
  188.3240  177.7000  139.8920 C   0  0  0  0  0  0  0  0  0  0  0  0
  188.0640  178.3050  137.7600 C   0  0  0  0  0  0  0  0  0  0  0  0
  189.5990  177.4150  139.4310 C   0  0  0  0  0  0  0  0  0  0  0  0
  187.2180  177.7700  143.4100 N   0  0  0  0  0  0  0  0  0  0  0  0
  188.0210  177.4890  141.3100 C   0  0  0  0  0  0  0  0  0  0  0  0
  184.6220  178.4170  142.3990 C   0  0  0  0  0  2  0  0  0  0  0  0
  190.6830  176.8090  140.2810 C   0  0  0  0  0  2  0  0  0  0  0  0
  186.5180  178.0490  145.7440 C   0  0  0  0  0  1  0  0  0  0  0  0
  186.0850  177.6780  144.3350 C   0  0  1  0  0  3  0  0  0  0  0  0
  185.8280  178.7070  141.5030 C   0  0  2  0  0  3  0  0  0  0  0  0
  189.4830  178.0770  144.3830 C   0  0  0  0  0  2  0  0  0  0  0  0
  191.8320  176.7410  147.7210 C   0  0  0  0  0  2  0  0  0  0  0  0
  190.2000  177.4290  145.5350 C   0  0  0  0  0  0  0  0  0  0  0  0
  191.4760  176.6690  145.2510 C   0  0  0  0  0  2  0  0  0  0  0  0
  192.0090  175.9100  146.4630 C   0  0  0  0  0  2  0  0  0  0  0  0
  190.3400  176.9700  147.9110 C   0  0  0  0  0  2  0  0  0  0  0  0
  189.7460  177.5810  146.7370 N   0  0  0  0  0  0  0  0  0  0  0  0
  1 21  1  6  0  0  0
  2  6  1  6  0  0  0
  2  1  1  0  0  0  0
  3 14  1  0  0  0  0
  4 13  1  0  0  0  0
  5 12  1  0  0  0  0
  7 11  1  0  0  0  0
  8 19  1  0  0  0  0
  8 10  1  1  0  0  0
 11 15  1  0  0  0  0
 12  4  1  0  0  0  0
 12  7  2  0  0  0  0
 13 11  2  0  0  0  0
 13 17  1  0  0  0  0
 14  1  1  0  0  0  0
 14 19  1  0  0  0  0
 15  3  2  0  0  0  0
 15  2  1  0  0  0  0
 16  8  1  0  0  0  0
 17  6  1  0  0  0  0
 19 18  1  1  0  0  0
 20  9  1  1  0  0  0
 20  3  1  0  0  0  0
 20 16  1  0  0  0  0
 21 23  1  0  0  0  0
 22 26  1  0  0  0  0
 23 27  2  0  0  0  0
 24 23  1  0  0  0  0
 24 25  1  0  0  0  0
 25 22  1  0  0  0  0
 27 26  1  0  0  0  0
M  END
>  <MODEL>
2

>  <REMARK>
 VINA RESULT:      -9.0      3.101      7.585
  Name = 
  2 active torsions:
  status: ('A' for Active; 'I' for Inactive)
    1  A    between atoms: C_1  and  C_15
    2  A    between atoms: C_9  and  C_15
                            x       y       z     vdW  Elec       q    Type
                         _______ _______ _______ _____ _____    ______ ____

>  <TORSDO>
F 2

$$$$
=
 OpenBabel10272401113D

 27 31  0  0  1  0  0  0  0  0999 V2000
  187.7370  178.2270  143.0560 C   0  0  2  0  0  3  0  0  0  0  0  0
  188.2060  178.4950  141.6060 C   0  0  2  0  0  3  0  0  0  0  0  0
  189.8830  177.3500  142.7190 C   0  0  0  0  0  0  0  0  0  0  0  0
  190.2300  177.1880  137.7400 S   0  0  0  0  0  0  0  0  0  0  0  0
  192.7940  176.1180  138.1590 C   0  0  0  0  0  1  0  0  0  0  0  0
  187.2660  178.1040  140.4500 C   0  0  0  0  0  2  0  0  0  0  0  0
  191.3050  176.8850  140.0140 N   0  0  0  0  0  0  0  0  0  0  0  0
  190.4400  176.8770  145.4820 C   0  0  2  0  0  3  0  0  0  0  0  0
  190.8910  175.2280  142.9840 O   0  0  0  0  0  1  0  0  0  0  0  0
  190.9250  177.2030  146.7490 O   0  0  0  0  0  1  0  0  0  0  0  0
  190.0780  177.4330  140.2170 C   0  0  0  0  0  0  0  0  0  0  0  0
  191.5330  176.6950  138.6940 C   0  0  0  0  0  0  0  0  0  0  0  0
  189.3240  177.6520  139.0750 C   0  0  0  0  0  0  0  0  0  0  0  0
  188.9010  177.6250  143.7070 N   0  0  0  0  0  0  0  0  0  0  0  0
  189.4930  177.7450  141.5230 C   0  0  0  0  0  0  0  0  0  0  0  0
  191.5820  176.9820  144.4640 C   0  0  0  0  0  2  0  0  0  0  0  0
  187.9580  178.2840  139.0810 C   0  0  0  0  0  2  0  0  0  0  0  0
  188.0890  177.5200  146.0180 C   0  0  0  0  0  1  0  0  0  0  0  0
  189.2740  177.8090  145.1120 C   0  0  1  0  0  3  0  0  0  0  0  0
  191.1310  176.6020  143.0530 C   0  0  2  0  0  3  0  0  0  0  0  0
  186.4920  177.3220  143.1800 C   0  0  0  0  0  2  0  0  0  0  0  0
  182.6140  178.8580  144.2050 C   0  0  0  0  0  2  0  0  0  0  0  0
  185.2150  178.0490  143.4980 C   0  0  0  0  0  0  0  0  0  0  0  0
  184.2160  178.2660  142.3830 C   0  0  0  0  0  2  0  0  0  0  0  0
  183.0500  179.1670  142.7840 C   0  0  0  0  0  2  0  0  0  0  0  0
  183.7930  179.1550  145.1200 C   0  0  0  0  0  2  0  0  0  0  0  0
  184.9750  178.4190  144.7140 N   0  0  0  0  0  0  0  0  0  0  0  0
  1 21  1  6  0  0  0
  1 14  1  0  0  0  0
  2  6  1  6  0  0  0
  2  1  1  0  0  0  0
  3 20  1  0  0  0  0
  3 14  1  0  0  0  0
  4 12  1  0  0  0  0
  4 13  1  0  0  0  0
  5 12  1  0  0  0  0
  7 11  1  0  0  0  0
  8 10  1  1  0  0  0
 11 15  1  0  0  0  0
 12  7  2  0  0  0  0
 13 17  1  0  0  0  0
 13 11  2  0  0  0  0
 14 19  1  0  0  0  0
 15  2  1  0  0  0  0
 15  3  2  0  0  0  0
 16  8  1  0  0  0  0
 17  6  1  0  0  0  0
 19  8  1  0  0  0  0
 19 18  1  1  0  0  0
 20  9  1  1  0  0  0
 20 16  1  0  0  0  0
 21 23  1  0  0  0  0
 22 26  1  0  0  0  0
 23 27  2  0  0  0  0
 24 25  1  0  0  0  0
 24 23  1  0  0  0  0
 25 22  1  0  0  0  0
 27 26  1  0  0  0  0
M  END
>  <MODEL>
3

>  <REMARK>
 VINA RESULT:      -8.7      3.048      5.517
  Name = 
  2 active torsions:
  status: ('A' for Active; 'I' for Inactive)
    1  A    between atoms: C_1  and  C_15
    2  A    between atoms: C_9  and  C_15
                            x       y       z     vdW  Elec       q    Type
                         _______ _______ _______ _____ _____    ______ ____

>  <TORSDO>
F 2

$$$$
=
 OpenBabel10272401113D

 27 31  0  0  1  0  0  0  0  0999 V2000
  187.7570  178.4790  141.2720 C   0  0  2  0  0  3  0  0  0  0  0  0
  186.3310  178.9700  141.6190 C   0  0  2  0  0  3  0  0  0  0  0  0
  186.3840  178.4030  139.3740 C   0  0  0  0  0  0  0  0  0  0  0  0
  181.7970  178.6430  141.3320 S   0  0  0  0  0  0  0  0  0  0  0  0
  180.8800  178.4850  138.6800 C   0  0  0  0  0  1  0  0  0  0  0  0
  185.6200  178.3480  142.8360 C   0  0  0  0  0  2  0  0  0  0  0  0
  183.3000  178.5970  139.2930 N   0  0  0  0  0  0  0  0  0  0  0  0
  188.5030  177.9950  137.5000 C   0  0  2  0  0  3  0  0  0  0  0  0
  185.7680  176.7370  137.8140 O   0  0  0  0  0  1  0  0  0  0  0  0
  189.4890  178.3950  136.5980 O   0  0  0  0  0  1  0  0  0  0  0  0
  184.1030  178.6850  140.3860 C   0  0  0  0  0  0  0  0  0  0  0  0
  181.9970  178.5690  139.6570 C   0  0  0  0  0  0  0  0  0  0  0  0
  183.4520  178.6980  141.6090 C   0  0  0  0  0  0  0  0  0  0  0  0
  187.7250  178.2730  139.8230 N   0  0  0  0  0  0  0  0  0  0  0  0
  185.5680  178.7070  140.3640 C   0  0  0  0  0  0  0  0  0  0  0  0
  187.1450  178.5370  137.0350 C   0  0  0  0  0  2  0  0  0  0  0  0
  184.1550  178.8270  142.9330 C   0  0  0  0  0  2  0  0  0  0  0  0
  190.0900  177.7710  139.4130 C   0  0  0  0  0  1  0  0  0  0  0  0
  188.8510  178.4940  138.9120 C   0  0  1  0  0  3  0  0  0  0  0  0
  186.0070  178.1050  137.9610 C   0  0  2  0  0  3  0  0  0  0  0  0
  188.2030  177.2000  142.0130 C   0  0  0  0  0  2  0  0  0  0  0  0
  191.0530  177.3390  145.2220 C   0  0  0  0  0  2  0  0  0  0  0  0
  189.1190  177.4370  143.1810 C   0  0  0  0  0  0  0  0  0  0  0  0
  188.6790  176.9600  144.5470 C   0  0  0  0  0  2  0  0  0  0  0  0
  189.6050  177.4150  145.6720 C   0  0  0  0  0  2  0  0  0  0  0  0
  191.2170  178.2900  144.0470 C   0  0  0  0  0  2  0  0  0  0  0  0
  190.2750  177.9860  142.9860 N   0  0  0  0  0  0  0  0  0  0  0  0
  1  2  1  0  0  0  0
  1 21  1  1  0  0  0
  2  6  1  1  0  0  0
  3 14  1  0  0  0  0
  3 15  2  0  0  0  0
  4 13  1  0  0  0  0
  5 12  1  0  0  0  0
  6 17  1  0  0  0  0
  7 12  2  0  0  0  0
  7 11  1  0  0  0  0
  8 10  1  6  0  0  0
  8 19  1  0  0  0  0
 11 13  2  0  0  0  0
 12  4  1  0  0  0  0
 13 17  1  0  0  0  0
 14  1  1  0  0  0  0
 15 11  1  0  0  0  0
 15  2  1  0  0  0  0
 16  8  1  0  0  0  0
 16 20  1  0  0  0  0
 19 18  1  1  0  0  0
 19 14  1  0  0  0  0
 20  9  1  1  0  0  0
 20  3  1  0  0  0  0
 21 23  1  0  0  0  0
 22 25  1  0  0  0  0
 23 24  1  0  0  0  0
 24 25  1  0  0  0  0
 26 22  1  0  0  0  0
 27 23  2  0  0  0  0
 27 26  1  0  0  0  0
M  END
>  <MODEL>
4

>  <REMARK>
 VINA RESULT:      -8.2      2.962      6.752
  Name = 
  2 active torsions:
  status: ('A' for Active; 'I' for Inactive)
    1  A    between atoms: C_1  and  C_15
    2  A    between atoms: C_9  and  C_15
                            x       y       z     vdW  Elec       q    Type
                         _______ _______ _______ _____ _____    ______ ____

>  <TORSDO>
F 2

$$$$
=
 OpenBabel10272401113D

 27 31  0  0  1  0  0  0  0  0999 V2000
  188.7670  178.0570  142.6730 C   0  0  2  0  0  3  0  0  0  0  0  0
  187.5980  178.6260  141.8340 C   0  0  2  0  0  3  0  0  0  0  0  0
  189.1530  177.6980  140.3900 C   0  0  0  0  0  0  0  0  0  0  0  0
  184.6180  178.3470  138.4010 S   0  0  0  0  0  0  0  0  0  0  0  0
  185.8430  177.7750  135.9370 C   0  0  0  0  0  1  0  0  0  0  0  0
  186.1610  178.2260  142.2180 C   0  0  0  0  0  2  0  0  0  0  0  0
  187.0990  177.9380  138.0910 N   0  0  0  0  0  0  0  0  0  0  0  0
  191.8950  176.9460  140.6730 C   0  0  2  0  0  3  0  0  0  0  0  0
  189.6130  175.8120  139.0410 O   0  0  0  0  0  1  0  0  0  0  0  0
  193.2710  177.1740  140.7260 O   0  0  0  0  0  1  0  0  0  0  0  0
  186.8920  178.1870  139.4110 C   0  0  0  0  0  0  0  0  0  0  0  0
  185.9360  177.9960  137.4040 C   0  0  0  0  0  0  0  0  0  0  0  0
  185.5760  178.4130  139.7780 C   0  0  0  0  0  0  0  0  0  0  0  0
  189.7460  177.6170  141.6780 N   0  0  0  0  0  0  0  0  0  0  0  0
  187.9250  178.1770  140.4500 C   0  0  0  0  0  0  0  0  0  0  0  0
  191.3560  177.4320  139.3220 C   0  0  0  0  0  2  0  0  0  0  0  0
  185.1410  178.7440  141.1810 C   0  0  0  0  0  2  0  0  0  0  0  0
  191.6080  177.0080  143.1520 C   0  0  0  0  0  1  0  0  0  0  0  0
  191.2000  177.6630  141.8430 C   0  0  1  0  0  3  0  0  0  0  0  0
  189.8540  177.1800  139.1780 C   0  0  2  0  0  3  0  0  0  0  0  0
  188.3820  176.9080  143.6300 C   0  0  0  0  0  2  0  0  0  0  0  0
  188.0000  177.4500  147.8730 C   0  0  0  0  0  2  0  0  0  0  0  0
  188.2820  177.3010  145.0770 C   0  0  0  0  0  0  0  0  0  0  0  0
  186.9210  177.6610  145.6310 C   0  0  0  0  0  2  0  0  0  0  0  0
  186.9740  178.2130  147.0530 C   0  0  0  0  0  2  0  0  0  0  0  0
  189.3570  177.6630  147.2200 C   0  0  0  0  0  2  0  0  0  0  0  0
  189.3380  177.2700  145.8240 N   0  0  0  0  0  0  0  0  0  0  0  0
  1 21  1  6  0  0  0
  2  6  1  1  0  0  0
  2  1  1  0  0  0  0
  3 15  2  0  0  0  0
  3 14  1  0  0  0  0
  4 13  1  0  0  0  0
  5 12  1  0  0  0  0
  7 11  1  0  0  0  0
  8 10  1  6  0  0  0
  8 19  1  0  0  0  0
 11 13  2  0  0  0  0
 11 15  1  0  0  0  0
 12  7  2  0  0  0  0
 12  4  1  0  0  0  0
 13 17  1  0  0  0  0
 14 19  1  0  0  0  0
 14  1  1  0  0  0  0
 15  2  1  0  0  0  0
 16  8  1  0  0  0  0
 17  6  1  0  0  0  0
 19 18  1  1  0  0  0
 20  9  1  1  0  0  0
 20 16  1  0  0  0  0
 20  3  1  0  0  0  0
 21 23  1  0  0  0  0
 23 24  1  0  0  0  0
 23 27  2  0  0  0  0
 24 25  1  0  0  0  0
 25 22  1  0  0  0  0
 26 22  1  0  0  0  0
 27 26  1  0  0  0  0
M  END
>  <MODEL>
5

>  <REMARK>
 VINA RESULT:      -7.9      2.641      6.514
  Name = 
  2 active torsions:
  status: ('A' for Active; 'I' for Inactive)
    1  A    between atoms: C_1  and  C_15
    2  A    between atoms: C_9  and  C_15
                            x       y       z     vdW  Elec       q    Type
                         _______ _______ _______ _____ _____    ______ ____

>  <TORSDO>
F 2

$$$$
=
 OpenBabel10272401113D

 27 31  0  0  1  0  0  0  0  0999 V2000
  184.6750  178.9480  142.3320 C   0  0  2  0  0  3  0  0  0  0  0  0
  185.5540  179.1220  141.0710 C   0  0  2  0  0  3  0  0  0  0  0  0
  186.8450  178.1610  142.7370 C   0  0  0  0  0  0  0  0  0  0  0  0
  188.6870  177.6150  138.1270 S   0  0  0  0  0  0  0  0  0  0  0  0
  191.0300  176.7190  139.3920 C   0  0  0  0  0  1  0  0  0  0  0  0
  185.0190  178.5900  139.7280 C   0  0  0  0  0  2  0  0  0  0  0  0
  189.0300  177.5530  140.6370 N   0  0  0  0  0  0  0  0  0  0  0  0
  186.5500  177.9420  145.5710 C   0  0  2  0  0  3  0  0  0  0  0  0
  187.7790  176.1220  143.4870 O   0  0  0  0  0  1  0  0  0  0  0  0
  186.6200  178.3940  146.8890 O   0  0  0  0  0  1  0  0  0  0  0  0
  187.7860  178.0510  140.4110 C   0  0  0  0  0  0  0  0  0  0  0  0
  189.6520  177.2700  139.4690 C   0  0  0  0  0  0  0  0  0  0  0  0
  187.4080  178.1370  139.0810 C   0  0  0  0  0  0  0  0  0  0  0  0
  185.6020  178.4620  143.3550 N   0  0  0  0  0  0  0  0  0  0  0  0
  186.8250  178.4360  141.4470 C   0  0  0  0  0  0  0  0  0  0  0  0
  187.9440  178.0240  144.9360 C   0  0  0  0  0  2  0  0  0  0  0  0
  186.0880  178.6950  138.6190 C   0  0  0  0  0  2  0  0  0  0  0  0
  184.1310  178.5020  145.3170 C   0  0  0  0  0  1  0  0  0  0  0  0
  185.5270  178.7780  144.7840 C   0  0  1  0  0  3  0  0  0  0  0  0
  187.9510  177.5080  143.4960 C   0  0  2  0  0  3  0  0  0  0  0  0
  183.4750  177.9920  142.1620 C   0  0  0  0  0  2  0  0  0  0  0  0
  179.9860  180.4450  141.6610 C   0  0  0  0  0  2  0  0  0  0  0  0
  182.1430  178.6740  142.0100 C   0  0  0  0  0  0  0  0  0  0  0  0
  181.4730  179.2230  143.2500 C   0  0  0  0  0  2  0  0  0  0  0  0
  180.0550  179.7270  142.9970 C   0  0  0  0  0  2  0  0  0  0  0  0
  180.3400  179.4350  140.5800 C   0  0  0  0  0  2  0  0  0  0  0  0
  181.6310  178.8240  140.8320 N   0  0  0  0  0  0  0  0  0  0  0  0
  1 21  1  6  0  0  0
  1 14  1  0  0  0  0
  2  6  1  6  0  0  0
  2 15  1  0  0  0  0
  2  1  1  0  0  0  0
  3 14  1  0  0  0  0
  3 20  1  0  0  0  0
  4 13  1  0  0  0  0
  4 12  1  0  0  0  0
  5 12  1  0  0  0  0
  8 10  1  1  0  0  0
 11  7  1  0  0  0  0
 11 15  1  0  0  0  0
 12  7  2  0  0  0  0
 13 11  2  0  0  0  0
 14 19  1  0  0  0  0
 15  3  2  0  0  0  0
 16  8  1  0  0  0  0
 17 13  1  0  0  0  0
 17  6  1  0  0  0  0
 19 18  1  1  0  0  0
 19  8  1  0  0  0  0
 20  9  1  1  0  0  0
 20 16  1  0  0  0  0
 22 25  1  0  0  0  0
 23 21  1  0  0  0  0
 23 24  1  0  0  0  0
 25 24  1  0  0  0  0
 26 27  1  0  0  0  0
 26 22  1  0  0  0  0
 27 23  2  0  0  0  0
M  END
>  <MODEL>
6

>  <REMARK>
 VINA RESULT:      -7.8      3.113      5.524
  Name = 
  2 active torsions:
  status: ('A' for Active; 'I' for Inactive)
    1  A    between atoms: C_1  and  C_15
    2  A    between atoms: C_9  and  C_15
                            x       y       z     vdW  Elec       q    Type
                         _______ _______ _______ _____ _____    ______ ____

>  <TORSDO>
F 2

$$$$
=
 OpenBabel10272401113D

 27 31  0  0  1  0  0  0  0  0999 V2000
  187.5680  178.4880  142.1660 C   0  0  2  0  0  3  0  0  0  0  0  0
  187.1160  178.7880  140.7170 C   0  0  2  0  0  3  0  0  0  0  0  0
  189.2260  177.8350  140.6440 C   0  0  0  0  0  0  0  0  0  0  0  0
  186.7320  177.6590  136.3210 S   0  0  0  0  0  0  0  0  0  0  0  0
  189.1750  176.8650  135.1810 C   0  0  0  0  0  1  0  0  0  0  0  0
  185.7300  178.2900  140.2660 C   0  0  0  0  0  2  0  0  0  0  0  0
  188.9200  177.4920  137.5870 N   0  0  0  0  0  0  0  0  0  0  0  0
  191.2760  177.4510  142.5970 C   0  0  2  0  0  3  0  0  0  0  0  0
  190.3980  175.8320  140.1950 O   0  0  0  0  0  1  0  0  0  0  0  0
  192.3560  177.8380  143.3910 O   0  0  0  0  0  1  0  0  0  0  0  0
  187.9750  177.9120  138.4680 C   0  0  0  0  0  0  0  0  0  0  0  0
  188.3840  177.3130  136.3580 C   0  0  0  0  0  0  0  0  0  0  0  0
  186.6940  178.0400  137.9560 C   0  0  0  0  0  0  0  0  0  0  0  0
  188.9460  178.0170  142.0250 N   0  0  0  0  0  0  0  0  0  0  0  0
  188.1970  178.1750  139.8920 C   0  0  0  0  0  0  0  0  0  0  0  0
  191.6360  177.6630  141.1200 C   0  0  0  0  0  2  0  0  0  0  0  0
  185.5150  178.5260  138.7550 C   0  0  0  0  0  2  0  0  0  0  0  0
  189.5840  177.8520  144.3860 C   0  0  0  0  0  1  0  0  0  0  0  0
  190.0240  178.2520  142.9880 C   0  0  1  0  0  3  0  0  0  0  0  0
  190.5080  177.2240  140.1860 C   0  0  2  0  0  3  0  0  0  0  0  0
  186.6960  177.4600  142.9200 C   0  0  0  0  0  2  0  0  0  0  0  0
  184.1190  178.5470  146.1780 C   0  0  0  0  0  2  0  0  0  0  0  0
  185.8520  178.0380  144.0210 C   0  0  0  0  0  0  0  0  0  0  0  0
  184.4250  178.4260  143.7030 C   0  0  0  0  0  2  0  0  0  0  0  0
  183.7310  179.1630  144.8460 C   0  0  0  0  0  2  0  0  0  0  0  0
  185.6220  178.7130  146.3380 C   0  0  0  0  0  2  0  0  0  0  0  0
  186.3390  178.1390  145.2160 N   0  0  0  0  0  0  0  0  0  0  0  0
  1 21  1  6  0  0  0
  2  6  1  6  0  0  0
  2  1  1  0  0  0  0
  3 14  1  0  0  0  0
  4 12  1  0  0  0  0
  4 13  1  0  0  0  0
  5 12  1  0  0  0  0
  7 11  1  0  0  0  0
  8 19  1  0  0  0  0
  8 10  1  1  0  0  0
 11 15  1  0  0  0  0
 12  7  2  0  0  0  0
 13 11  2  0  0  0  0
 13 17  1  0  0  0  0
 14  1  1  0  0  0  0
 14 19  1  0  0  0  0
 15  3  2  0  0  0  0
 15  2  1  0  0  0  0
 16  8  1  0  0  0  0
 17  6  1  0  0  0  0
 19 18  1  1  0  0  0
 20  9  1  1  0  0  0
 20  3  1  0  0  0  0
 20 16  1  0  0  0  0
 21 23  1  0  0  0  0
 22 26  1  0  0  0  0
 23 27  2  0  0  0  0
 24 23  1  0  0  0  0
 24 25  1  0  0  0  0
 25 22  1  0  0  0  0
 27 26  1  0  0  0  0
M  END
>  <MODEL>
7

>  <REMARK>
 VINA RESULT:      -7.8      3.130      6.244
  Name = 
  2 active torsions:
  status: ('A' for Active; 'I' for Inactive)
    1  A    between atoms: C_1  and  C_15
    2  A    between atoms: C_9  and  C_15
                            x       y       z     vdW  Elec       q    Type
                         _______ _______ _______ _____ _____    ______ ____

>  <TORSDO>
F 2

$$$$
=
 OpenBabel10272401113D

 27 31  0  0  1  0  0  0  0  0999 V2000
  189.7280  177.7110  141.4940 C   0  0  2  0  0  3  0  0  0  0  0  0
  190.3370  177.8290  142.9120 C   0  0  2  0  0  3  0  0  0  0  0  0
  188.0430  178.1030  143.0740 C   0  0  0  0  0  0  0  0  0  0  0  0
  190.2920  176.9490  147.3810 S   0  0  0  0  0  0  0  0  0  0  0  0
  187.8430  177.6000  148.5960 C   0  0  0  0  0  1  0  0  0  0  0  0
  191.2920  176.7190  143.3920 C   0  0  0  0  0  2  0  0  0  0  0  0
  188.2710  177.8500  146.1460 N   0  0  0  0  0  0  0  0  0  0  0  0
  185.9960  178.7030  141.1720 C   0  0  2  0  0  3  0  0  0  0  0  0
  186.0330  177.0210  143.6890 O   0  0  0  0  0  1  0  0  0  0  0  0
  185.2320  179.5380  140.3570 O   0  0  0  0  0  1  0  0  0  0  0  0
  189.2560  177.6660  145.2290 C   0  0  0  0  0  0  0  0  0  0  0  0
  188.6960  177.5010  147.3820 C   0  0  0  0  0  0  0  0  0  0  0  0
  190.4440  177.1500  145.7210 C   0  0  0  0  0  0  0  0  0  0  0  0
  188.3110  178.0260  141.6820 N   0  0  0  0  0  0  0  0  0  0  0  0
  189.1340  177.9140  143.7900 C   0  0  0  0  0  0  0  0  0  0  0  0
  185.8660  179.1650  142.6290 C   0  0  0  0  0  2  0  0  0  0  0  0
  191.6670  176.9080  144.8770 C   0  0  0  0  0  2  0  0  0  0  0  0
  187.5700  178.0600  139.3450 C   0  0  0  0  0  1  0  0  0  0  0  0
  187.4630  178.7190  140.7100 C   0  0  1  0  0  3  0  0  0  0  0  0
  186.6510  178.2690  143.5880 C   0  0  2  0  0  3  0  0  0  0  0  0
  189.9140  176.3350  140.8190 C   0  0  0  0  0  2  0  0  0  0  0  0
  192.7820  175.7930  137.6680 C   0  0  0  0  0  2  0  0  0  0  0  0
  190.8540  176.3320  139.6450 C   0  0  0  0  0  0  0  0  0  0  0  0
  192.2380  176.9130  139.8320 C   0  0  0  0  0  2  0  0  0  0  0  0
  193.0300  177.0180  138.5310 C   0  0  0  0  0  2  0  0  0  0  0  0
  191.2990  175.7640  137.3310 C   0  0  0  0  0  2  0  0  0  0  0  0
  190.4840  175.7880  138.5300 N   0  0  0  0  0  0  0  0  0  0  0  0
  1 21  1  1  0  0  0
  1 14  1  0  0  0  0
  1  2  1  0  0  0  0
  2  6  1  1  0  0  0
  2 15  1  0  0  0  0
  3 20  1  0  0  0  0
  3 15  2  0  0  0  0
  4 12  1  0  0  0  0
  6 17  1  0  0  0  0
  7 12  2  0  0  0  0
  8 10  1  6  0  0  0
  8 16  1  0  0  0  0
 11 13  2  0  0  0  0
 11  7  1  0  0  0  0
 12  5  1  0  0  0  0
 13  4  1  0  0  0  0
 14  3  1  0  0  0  0
 15 11  1  0  0  0  0
 16 20  1  0  0  0  0
 17 13  1  0  0  0  0
 19 18  1  6  0  0  0
 19  8  1  0  0  0  0
 19 14  1  0  0  0  0
 20  9  1  6  0  0  0
 22 25  1  0  0  0  0
 23 24  1  0  0  0  0
 23 21  1  0  0  0  0
 25 24  1  0  0  0  0
 26 22  1  0  0  0  0
 26 27  1  0  0  0  0
 27 23  2  0  0  0  0
M  END
>  <MODEL>
8

>  <REMARK>
 VINA RESULT:      -7.8      2.623      5.310
  Name = 
  2 active torsions:
  status: ('A' for Active; 'I' for Inactive)
    1  A    between atoms: C_1  and  C_15
    2  A    between atoms: C_9  and  C_15
                            x       y       z     vdW  Elec       q    Type
                         _______ _______ _______ _____ _____    ______ ____

>  <TORSDO>
F 2

$$$$
=
 OpenBabel10272401113D

 27 31  0  0  1  0  0  0  0  0999 V2000
  184.8130  178.7920  141.1150 C   0  0  2  0  0  3  0  0  0  0  0  0
  186.2620  178.8680  140.5780 C   0  0  2  0  0  3  0  0  0  0  0  0
  186.3420  178.3260  142.8280 C   0  0  0  0  0  0  0  0  0  0  0  0
  190.5260  177.2890  140.3060 S   0  0  0  0  0  0  0  0  0  0  0  0
  191.6950  176.8670  142.8270 C   0  0  0  0  0  1  0  0  0  0  0  0
  186.6110  178.0800  139.3010 C   0  0  0  0  0  2  0  0  0  0  0  0
  189.3430  177.6520  142.5170 N   0  0  0  0  0  0  0  0  0  0  0  0
  184.4520  178.5130  144.9630 C   0  0  2  0  0  3  0  0  0  0  0  0
  186.6680  176.5450  144.3490 O   0  0  0  0  0  1  0  0  0  0  0  0
  183.7400  179.1680  145.9690 O   0  0  0  0  0  1  0  0  0  0  0  0
  188.4630  177.9660  141.5310 C   0  0  0  0  0  0  0  0  0  0  0  0
  190.5290  177.2640  141.9950 C   0  0  0  0  0  0  0  0  0  0  0  0
  188.9300  177.8040  140.2370 C   0  0  0  0  0  0  0  0  0  0  0  0
  184.9720  178.5770  142.5540 N   0  0  0  0  0  0  0  0  0  0  0  0
  187.0770  178.3960  141.7350 C   0  0  0  0  0  0  0  0  0  0  0  0
  185.9550  178.6530  145.2380 C   0  0  0  0  0  2  0  0  0  0  0  0
  188.1260  178.1320  139.0070 C   0  0  0  0  0  2  0  0  0  0  0  0
  182.6330  178.7520  143.2710 C   0  0  0  0  0  1  0  0  0  0  0  0
  184.0780  179.0980  143.5910 C   0  0  1  0  0  3  0  0  0  0  0  0
  186.8010  177.9260  144.1920 C   0  0  2  0  0  3  0  0  0  0  0  0
  183.9390  177.6930  140.4750 C   0  0  0  0  0  2  0  0  0  0  0  0
  181.4340  178.9620  137.2260 C   0  0  0  0  0  2  0  0  0  0  0  0
  182.9240  178.1920  139.4850 C   0  0  0  0  0  0  0  0  0  0  0  0
  182.9960  179.6400  139.0520 C   0  0  0  0  0  2  0  0  0  0  0  0
  181.8110  180.0720  138.1910 C   0  0  0  0  0  2  0  0  0  0  0  0
  181.0150  177.7580  138.0550 C   0  0  0  0  0  2  0  0  0  0  0  0
  182.0560  177.3710  138.9870 N   0  0  0  0  0  0  0  0  0  0  0  0
  1 21  1  6  0  0  0
  1 14  1  0  0  0  0
  2  6  1  6  0  0  0
  2  1  1  0  0  0  0
  2 15  1  0  0  0  0
  3 20  1  0  0  0  0
  4 12  1  0  0  0  0
  8 16  1  0  0  0  0
  8 10  1  1  0  0  0
 11 15  1  0  0  0  0
 11  7  1  0  0  0  0
 12  7  2  0  0  0  0
 12  5  1  0  0  0  0
 13  4  1  0  0  0  0
 13 11  2  0  0  0  0
 14  3  1  0  0  0  0
 14 19  1  0  0  0  0
 15  3  2  0  0  0  0
 17  6  1  0  0  0  0
 17 13  1  0  0  0  0
 19 18  1  6  0  0  0
 19  8  1  0  0  0  0
 20  9  1  6  0  0  0
 20 16  1  0  0  0  0
 22 26  1  0  0  0  0
 22 25  1  0  0  0  0
 23 21  1  0  0  0  0
 24 23  1  0  0  0  0
 25 24  1  0  0  0  0
 26 27  1  0  0  0  0
 27 23  2  0  0  0  0
M  END
>  <MODEL>
9

>  <REMARK>
 VINA RESULT:      -7.5      2.991      5.211
  Name = 
  2 active torsions:
  status: ('A' for Active; 'I' for Inactive)
    1  A    between atoms: C_1  and  C_15
    2  A    between atoms: C_9  and  C_15
                            x       y       z     vdW  Elec       q    Type
                         _______ _______ _______ _____ _____    ______ ____

>  <TORSDO>
F 2

$$$$
