=
 OpenBabel10272413283D

 32 36  0  0  1  0  0  0  0  0999 V2000
  191.6130  177.5870  144.0470 C   0  0  1  0  0  3  0  0  0  0  0  0
  188.5910  177.9960  139.9030 C   0  0  0  0  0  0  0  0  0  0  0  0
  191.0400  175.9670  136.2450 C   0  0  0  0  0  3  0  0  0  0  0  0
  189.9640  176.1760  135.4420 N   0  0  0  0  0  0  0  0  0  0  0  0
  189.5580  178.2440  142.1130 C   0  0  0  0  0  0  0  0  0  0  0  0
  190.8450  177.2030  140.3350 C   0  0  0  0  0  3  0  0  0  0  0  0
  191.9410  177.4600  142.5590 C   0  0  0  0  0  2  0  0  0  0  0  0
  191.0050  176.3600  137.5840 C   0  0  0  0  0  3  0  0  0  0  0  0
  189.7770  177.3820  139.4430 C   0  0  0  0  0  0  0  0  0  0  0  0
  189.8520  176.9710  138.0990 C   0  0  0  0  0  0  0  0  0  0  0  0
  187.5840  177.7880  137.7560 C   0  0  0  0  0  0  0  0  0  0  0  0
  190.6980  178.7900  144.2910 C   0  0  0  0  0  2  0  0  0  0  0  0
  190.7390  177.6120  141.6670 C   0  0  0  0  0  0  0  0  0  0  0  0
  189.3700  178.6390  143.5490 C   0  0  0  0  0  2  0  0  0  0  0  0
  188.8310  176.7650  135.9090 C   0  0  0  0  0  3  0  0  0  0  0  0
  188.7430  177.1750  137.2470 C   0  0  0  0  0  0  0  0  0  0  0  0
  188.4880  178.4140  141.2310 C   0  0  0  0  0  3  0  0  0  0  0  0
  187.5430  178.1760  139.0590 N   0  0  0  0  0  0  0  0  0  0  0  0
  191.0180  176.2900  144.5820 C   0  0  0  0  0  2  0  0  0  0  0  0
  191.7780  175.8230  145.8110 C   0  0  0  0  0  2  0  0  0  0  0  0
  191.2630  176.5120  147.0300 C   0  0  0  0  0  0  0  0  0  0  0  0
  189.7980  176.7260  147.1960 C   0  0  0  0  0  1  0  0  0  0  0  0
  192.0360  176.9180  147.8830 O   0  0  0  0  0  0  0  0  0  0  0  0
  186.3750  178.0070  136.9000 C   0  0  0  0  0  2  0  0  0  0  0  0
  184.2850  179.0120  138.7740 C   0  0  0  0  0  0  0  0  0  0  0  0
  184.3010  177.7860  138.3230 C   0  0  0  0  0  0  0  0  0  0  0  0
  184.8680  176.0200  137.2790 C   0  0  0  0  0  0  0  0  0  0  0  0
  183.7410  175.7370  138.0210 C   0  0  0  0  0  3  0  0  0  0  0  0
  183.3840  176.8620  138.6820 N   0  0  0  0  0  0  0  0  0  0  0  0
  184.2720  180.1740  139.2010 O   0  0  0  0  0  0  0  0  0  0  0  0
  185.5080  175.1550  136.5000 C   0  0  0  0  0  2  0  0  0  0  0  0
  185.2210  177.3050  137.4610 N   0  0  0  0  0  0  0  0  0  0  0  0
  1 12  1  0  0  0  0
  1 19  1  6  0  0  0
  2 17  1  0  0  0  0
  3  8  1  0  0  0  0
  4 15  1  0  0  0  0
  4  3  2  0  0  0  0
  5 14  1  0  0  0  0
  6 13  2  0  0  0  0
  7  1  1  0  0  0  0
  8 10  2  0  0  0  0
  9  2  2  0  0  0  0
  9  6  1  0  0  0  0
 10  9  1  0  0  0  0
 11 18  2  0  0  0  0
 13  5  1  0  0  0  0
 13  7  1  0  0  0  0
 14 12  1  0  0  0  0
 15 16  2  0  0  0  0
 16 11  1  0  0  0  0
 16 10  1  0  0  0  0
 17  5  2  0  0  0  0
 18  2  1  0  0  0  0
 19 20  1  0  0  0  0
 20 21  1  0  0  0  0
 21 22  1  0  0  0  0
 21 23  2  0  0  0  0
 24 32  1  0  0  0  0
 24 11  1  0  0  0  0
 25 30  2  0  0  0  0
 26 29  1  0  0  0  0
 26 25  2  0  0  0  0
 27 32  1  0  0  0  0
 27 28  1  0  0  0  0
 28 29  2  0  0  0  0
 31 27  2  0  0  0  0
 32 26  1  0  0  0  0
M  END
>  <MODEL>
1

>  <REMARK>
 VINA RESULT:      -8.5      0.000      0.000
  Name = 
  5 active torsions:
  status: ('A' for Active; 'I' for Inactive)
    1  A    between atoms: C_1  and  C_10
    2  A    between atoms: C_2  and  C_24
    3  A    between atoms: C_10  and  C_24
    4  A    between atoms: C_16  and  C_27
    5  A    between atoms: C_27  and  N_32
                            x       y       z     vdW  Elec       q    Type
                         _______ _______ _______ _____ _____    ______ ____

>  <TORSDO>
F 5

$$$$
=
 OpenBabel10272413283D

 32 36  0  0  1  0  0  0  0  0999 V2000
  191.2590  177.8610  144.4130 C   0  0  1  0  0  3  0  0  0  0  0  0
  189.4510  177.0490  139.6640 C   0  0  0  0  0  0  0  0  0  0  0  0
  193.3200  176.1630  136.8830 C   0  0  0  0  0  3  0  0  0  0  0  0
  192.4830  175.9310  135.8380 N   0  0  0  0  0  0  0  0  0  0  0  0
  189.6640  177.6550  142.0030 C   0  0  0  0  0  0  0  0  0  0  0  0
  191.6510  177.2120  140.6790 C   0  0  0  0  0  3  0  0  0  0  0  0
  191.9710  177.8770  143.0600 C   0  0  0  0  0  2  0  0  0  0  0  0
  192.8030  176.5070  138.1330 C   0  0  0  0  0  3  0  0  0  0  0  0
  190.8550  176.9550  139.5510 C   0  0  0  0  0  0  0  0  0  0  0  0
  191.4160  176.6110  138.3080 C   0  0  0  0  0  0  0  0  0  0  0  0
  189.1710  176.4640  137.3750 C   0  0  0  0  0  0  0  0  0  0  0  0
  189.9230  178.6030  144.3210 C   0  0  0  0  0  2  0  0  0  0  0  0
  191.0670  177.5430  141.9050 C   0  0  0  0  0  0  0  0  0  0  0  0
  188.9850  177.9400  143.3120 C   0  0  0  0  0  2  0  0  0  0  0  0
  191.1330  176.0230  135.9720 C   0  0  0  0  0  3  0  0  0  0  0  0
  190.5640  176.3610  137.2070 C   0  0  0  0  0  0  0  0  0  0  0  0
  188.8670  177.3890  140.8860 C   0  0  0  0  0  3  0  0  0  0  0  0
  188.6600  176.8010  138.5880 N   0  0  0  0  0  0  0  0  0  0  0  0
  191.0940  176.4330  144.9200 C   0  0  0  0  0  2  0  0  0  0  0  0
  191.9510  176.2040  146.1530 C   0  0  0  0  0  2  0  0  0  0  0  0
  191.2660  176.7410  147.3650 C   0  0  0  0  0  0  0  0  0  0  0  0
  189.7790  176.7310  147.4400 C   0  0  0  0  0  1  0  0  0  0  0  0
  191.9180  177.2060  148.2860 O   0  0  0  0  0  0  0  0  0  0  0  0
  188.2260  176.1880  136.2450 C   0  0  0  0  0  2  0  0  0  0  0  0
  185.3480  176.4430  136.9840 C   0  0  0  0  0  0  0  0  0  0  0  0
  185.9770  175.2970  136.9710 C   0  0  0  0  0  0  0  0  0  0  0  0
  187.5030  173.8280  136.7600 C   0  0  0  0  0  0  0  0  0  0  0  0
  186.3510  173.1940  137.1770 C   0  0  0  0  0  3  0  0  0  0  0  0
  185.3840  174.1320  137.3090 N   0  0  0  0  0  0  0  0  0  0  0  0
  184.7540  177.5290  136.9980 O   0  0  0  0  0  0  0  0  0  0  0  0
  188.6630  173.2270  136.5250 C   0  0  0  0  0  2  0  0  0  0  0  0
  187.2720  175.1460  136.6240 N   0  0  0  0  0  0  0  0  0  0  0  0
  1 19  1  6  0  0  0
  2 17  1  0  0  0  0
  3  8  1  0  0  0  0
  4 15  1  0  0  0  0
  4  3  2  0  0  0  0
  5 14  1  0  0  0  0
  6 13  2  0  0  0  0
  7  1  1  0  0  0  0
  8 10  2  0  0  0  0
  9  2  2  0  0  0  0
  9  6  1  0  0  0  0
 10  9  1  0  0  0  0
 11 18  2  0  0  0  0
 12  1  1  0  0  0  0
 13  5  1  0  0  0  0
 13  7  1  0  0  0  0
 14 12  1  0  0  0  0
 15 16  2  0  0  0  0
 16 11  1  0  0  0  0
 16 10  1  0  0  0  0
 17  5  2  0  0  0  0
 18  2  1  0  0  0  0
 19 20  1  0  0  0  0
 20 21  1  0  0  0  0
 21 22  1  0  0  0  0
 21 23  2  0  0  0  0
 24 32  1  0  0  0  0
 24 11  1  0  0  0  0
 25 30  2  0  0  0  0
 26 25  2  0  0  0  0
 26 29  1  0  0  0  0
 27 28  1  0  0  0  0
 28 29  2  0  0  0  0
 31 27  2  0  0  0  0
 32 27  1  0  0  0  0
 32 26  1  0  0  0  0
M  END
>  <MODEL>
2

>  <REMARK>
 VINA RESULT:      -8.2      1.629      2.152
  Name = 
  5 active torsions:
  status: ('A' for Active; 'I' for Inactive)
    1  A    between atoms: C_1  and  C_10
    2  A    between atoms: C_2  and  C_24
    3  A    between atoms: C_10  and  C_24
    4  A    between atoms: C_16  and  C_27
    5  A    between atoms: C_27  and  N_32
                            x       y       z     vdW  Elec       q    Type
                         _______ _______ _______ _____ _____    ______ ____

>  <TORSDO>
F 5

$$$$
=
 OpenBabel10272413283D

 32 36  0  0  1  0  0  0  0  0999 V2000
  191.2740  177.8470  144.3410 C   0  0  1  0  0  3  0  0  0  0  0  0
  189.2460  177.1830  139.6590 C   0  0  0  0  0  0  0  0  0  0  0  0
  192.9480  176.0730  136.7330 C   0  0  0  0  0  3  0  0  0  0  0  0
  192.0600  175.9010  135.7190 N   0  0  0  0  0  0  0  0  0  0  0  0
  189.5820  177.7580  141.9910 C   0  0  0  0  0  0  0  0  0  0  0  0
  191.4880  177.1990  140.5930 C   0  0  0  0  0  3  0  0  0  0  0  0
  191.9360  177.8270  142.9630 C   0  0  0  0  0  2  0  0  0  0  0  0
  192.5000  176.4390  138.0030 C   0  0  0  0  0  3  0  0  0  0  0  0
  190.6370  177.0010  139.4940 C   0  0  0  0  0  0  0  0  0  0  0  0
  191.1290  176.6300  138.2290 C   0  0  0  0  0  0  0  0  0  0  0  0
  188.8470  176.6320  137.3780 C   0  0  0  0  0  0  0  0  0  0  0  0
  189.9850  178.6730  144.3020 C   0  0  0  0  0  2  0  0  0  0  0  0
  190.9710  177.5590  141.8400 C   0  0  0  0  0  0  0  0  0  0  0  0
  188.9710  178.0770  143.3250 C   0  0  0  0  0  2  0  0  0  0  0  0
  190.7250  176.0770  135.9020 C   0  0  0  0  0  3  0  0  0  0  0  0
  190.2240  176.4430  137.1590 C   0  0  0  0  0  0  0  0  0  0  0  0
  188.7300  177.5510  140.9020 C   0  0  0  0  0  3  0  0  0  0  0  0
  188.4030  176.9930  138.6110 N   0  0  0  0  0  0  0  0  0  0  0  0
  191.0370  176.4280  144.8470 C   0  0  0  0  0  2  0  0  0  0  0  0
  191.9270  176.1350  146.0430 C   0  0  0  0  0  2  0  0  0  0  0  0
  191.3100  176.6710  147.2910 C   0  0  0  0  0  0  0  0  0  0  0  0
  189.8280  176.7730  147.3990 C   0  0  0  0  0  1  0  0  0  0  0  0
  192.0150  177.0450  148.2150 O   0  0  0  0  0  0  0  0  0  0  0  0
  187.8460  176.4240  136.2830 C   0  0  0  0  0  2  0  0  0  0  0  0
  187.9960  173.4720  136.6740 C   0  0  0  0  0  0  0  0  0  0  0  0
  186.9000  174.1570  136.8670 C   0  0  0  0  0  0  0  0  0  0  0  0
  185.5190  175.7710  137.0030 C   0  0  0  0  0  0  0  0  0  0  0  0
  184.8540  174.6080  137.3300 C   0  0  0  0  0  3  0  0  0  0  0  0
  185.7360  173.5850  137.2430 N   0  0  0  0  0  0  0  0  0  0  0  0
  189.0350  172.8240  136.4880 O   0  0  0  0  0  0  0  0  0  0  0  0
  184.9740  176.9810  136.9770 C   0  0  0  0  0  2  0  0  0  0  0  0
  186.8040  175.4940  136.7170 N   0  0  0  0  0  0  0  0  0  0  0  0
  1 19  1  6  0  0  0
  2 17  1  0  0  0  0
  3  8  1  0  0  0  0
  4 15  1  0  0  0  0
  4  3  2  0  0  0  0
  5 14  1  0  0  0  0
  6 13  2  0  0  0  0
  7  1  1  0  0  0  0
  8 10  2  0  0  0  0
  9  2  2  0  0  0  0
  9  6  1  0  0  0  0
 10  9  1  0  0  0  0
 11 18  2  0  0  0  0
 12  1  1  0  0  0  0
 13  5  1  0  0  0  0
 13  7  1  0  0  0  0
 14 12  1  0  0  0  0
 15 16  2  0  0  0  0
 16 11  1  0  0  0  0
 16 10  1  0  0  0  0
 17  5  2  0  0  0  0
 18  2  1  0  0  0  0
 19 20  1  0  0  0  0
 20 21  1  0  0  0  0
 21 22  1  0  0  0  0
 21 23  2  0  0  0  0
 24 32  1  0  0  0  0
 24 11  1  0  0  0  0
 25 26  2  0  0  0  0
 26 29  1  0  0  0  0
 27 28  1  0  0  0  0
 29 28  2  0  0  0  0
 30 25  2  0  0  0  0
 31 27  2  0  0  0  0
 32 26  1  0  0  0  0
 32 27  1  0  0  0  0
M  END
>  <MODEL>
3

>  <REMARK>
 VINA RESULT:      -8.1      2.127      2.639
  Name = 
  5 active torsions:
  status: ('A' for Active; 'I' for Inactive)
    1  A    between atoms: C_1  and  C_10
    2  A    between atoms: C_2  and  C_24
    3  A    between atoms: C_10  and  C_24
    4  A    between atoms: C_16  and  C_27
    5  A    between atoms: C_27  and  N_32
                            x       y       z     vdW  Elec       q    Type
                         _______ _______ _______ _____ _____    ______ ____

>  <TORSDO>
F 5

$$$$
=
 OpenBabel10272413283D

 32 36  0  0  1  0  0  0  0  0999 V2000
  191.6060  177.6280  144.0540 C   0  0  1  0  0  3  0  0  0  0  0  0
  188.3760  177.9990  140.0660 C   0  0  0  0  0  0  0  0  0  0  0  0
  190.1540  175.0930  136.6190 C   0  0  0  0  0  3  0  0  0  0  0  0
  189.0670  175.3790  135.8540 N   0  0  0  0  0  0  0  0  0  0  0  0
  189.5430  178.3690  142.1600 C   0  0  0  0  0  0  0  0  0  0  0  0
  190.4930  176.8860  140.4870 C   0  0  0  0  0  3  0  0  0  0  0  0
  191.7900  177.2450  142.5860 C   0  0  0  0  0  2  0  0  0  0  0  0
  190.2910  175.6630  137.8850 C   0  0  0  0  0  3  0  0  0  0  0  0
  189.4020  177.1290  139.6380 C   0  0  0  0  0  0  0  0  0  0  0  0
  189.3010  176.5320  138.3670 C   0  0  0  0  0  0  0  0  0  0  0  0
  187.1810  177.6830  138.0330 C   0  0  0  0  0  0  0  0  0  0  0  0
  190.9270  178.9960  144.1680 C   0  0  0  0  0  2  0  0  0  0  0  0
  190.5630  177.4850  141.7480 C   0  0  0  0  0  0  0  0  0  0  0  0
  189.5380  178.9820  143.5300 C   0  0  0  0  0  2  0  0  0  0  0  0
  188.0890  176.2160  136.2900 C   0  0  0  0  0  3  0  0  0  0  0  0
  188.1770  176.8130  137.5560 C   0  0  0  0  0  0  0  0  0  0  0  0
  188.4500  178.6050  141.3220 C   0  0  0  0  0  3  0  0  0  0  0  0
  187.3090  178.2450  139.2640 N   0  0  0  0  0  0  0  0  0  0  0  0
  190.8480  176.5410  144.8060 C   0  0  0  0  0  2  0  0  0  0  0  0
  190.8440  176.8290  146.2970 C   0  0  0  0  0  2  0  0  0  0  0  0
  189.4670  177.1760  146.7540 C   0  0  0  0  0  0  0  0  0  0  0  0
  189.2710  177.8540  148.0650 C   0  0  0  0  0  1  0  0  0  0  0  0
  188.4990  176.8890  146.0670 O   0  0  0  0  0  0  0  0  0  0  0  0
  185.9610  177.9940  137.2200 C   0  0  0  0  0  2  0  0  0  0  0  0
  184.6590  175.3160  137.0770 C   0  0  0  0  0  0  0  0  0  0  0  0
  184.1860  176.2950  137.8010 C   0  0  0  0  0  0  0  0  0  0  0  0
  183.9490  178.1970  138.7270 C   0  0  0  0  0  0  0  0  0  0  0  0
  182.9010  177.3920  139.1230 C   0  0  0  0  0  3  0  0  0  0  0  0
  183.0560  176.1850  138.5320 N   0  0  0  0  0  0  0  0  0  0  0  0
  185.1080  174.3890  136.3880 O   0  0  0  0  0  0  0  0  0  0  0  0
  184.1310  179.4560  139.1050 C   0  0  0  0  0  2  0  0  0  0  0  0
  184.7610  177.5110  137.9020 N   0  0  0  0  0  0  0  0  0  0  0  0
  1 12  1  0  0  0  0
  1 19  1  1  0  0  0
  2 17  1  0  0  0  0
  3  8  1  0  0  0  0
  4 15  1  0  0  0  0
  4  3  2  0  0  0  0
  5 14  1  0  0  0  0
  6 13  2  0  0  0  0
  7  1  1  0  0  0  0
  8 10  2  0  0  0  0
  9  2  2  0  0  0  0
  9  6  1  0  0  0  0
 10  9  1  0  0  0  0
 11 18  2  0  0  0  0
 13  5  1  0  0  0  0
 13  7  1  0  0  0  0
 14 12  1  0  0  0  0
 15 16  2  0  0  0  0
 16 11  1  0  0  0  0
 16 10  1  0  0  0  0
 17  5  2  0  0  0  0
 18  2  1  0  0  0  0
 19 20  1  0  0  0  0
 20 21  1  0  0  0  0
 21 22  1  0  0  0  0
 23 21  2  0  0  0  0
 24 32  1  0  0  0  0
 24 11  1  0  0  0  0
 25 26  2  0  0  0  0
 26 32  1  0  0  0  0
 26 29  1  0  0  0  0
 27 31  2  0  0  0  0
 27 28  1  0  0  0  0
 29 28  2  0  0  0  0
 30 25  2  0  0  0  0
 32 27  1  0  0  0  0
M  END
>  <MODEL>
4

>  <REMARK>
 VINA RESULT:      -7.9      1.536      2.047
  Name = 
  5 active torsions:
  status: ('A' for Active; 'I' for Inactive)
    1  A    between atoms: C_1  and  C_10
    2  A    between atoms: C_2  and  C_24
    3  A    between atoms: C_10  and  C_24
    4  A    between atoms: C_16  and  C_27
    5  A    between atoms: C_27  and  N_32
                            x       y       z     vdW  Elec       q    Type
                         _______ _______ _______ _____ _____    ______ ____

>  <TORSDO>
F 5

$$$$
=
 OpenBabel10272413283D

 32 36  0  0  1  0  0  0  0  0999 V2000
  182.8320  178.3140  140.3720 C   0  0  1  0  0  3  0  0  0  0  0  0
  187.3760  178.4200  142.7850 C   0  0  0  0  0  0  0  0  0  0  0  0
  186.4280  177.6630  147.4770 C   0  0  0  0  0  3  0  0  0  0  0  0
  187.7650  177.6710  147.7220 N   0  0  0  0  0  0  0  0  0  0  0  0
  185.6090  178.6270  141.1360 C   0  0  0  0  0  0  0  0  0  0  0  0
  185.0530  178.2340  143.4670 C   0  0  0  0  0  3  0  0  0  0  0  0
  183.1690  178.4840  141.8540 C   0  0  0  0  0  2  0  0  0  0  0  0
  185.9510  177.8460  146.1790 C   0  0  0  0  0  3  0  0  0  0  0  0
  186.4160  178.2270  143.8020 C   0  0  0  0  0  0  0  0  0  0  0  0
  186.8570  178.0380  145.1250 C   0  0  0  0  0  0  0  0  0  0  0  0
  189.1580  178.2310  144.3510 C   0  0  0  0  0  0  0  0  0  0  0  0
  183.7640  179.1710  139.5110 C   0  0  0  0  0  2  0  0  0  0  0  0
  184.6440  178.4150  142.1430 C   0  0  0  0  0  0  0  0  0  0  0  0
  185.2250  178.7580  139.6900 C   0  0  0  0  0  2  0  0  0  0  0  0
  188.6700  177.8540  146.7250 C   0  0  0  0  0  3  0  0  0  0  0  0
  188.2430  178.0390  145.4020 C   0  0  0  0  0  0  0  0  0  0  0  0
  186.9680  178.6100  141.4630 C   0  0  0  0  0  3  0  0  0  0  0  0
  188.7010  178.4130  143.0840 N   0  0  0  0  0  0  0  0  0  0  0  0
  182.8680  176.8420  139.9760 C   0  0  0  0  0  2  0  0  0  0  0  0
  182.4450  176.6710  138.5270 C   0  0  0  0  0  2  0  0  0  0  0  0
  183.4770  175.9000  137.7750 C   0  0  0  0  0  0  0  0  0  0  0  0
  184.3360  176.5920  136.7740 C   0  0  0  0  0  1  0  0  0  0  0  0
  183.6070  174.7000  137.9600 O   0  0  0  0  0  0  0  0  0  0  0  0
  190.6370  178.2180  144.5900 C   0  0  0  0  0  2  0  0  0  0  0  0
  191.8200  176.5260  146.7400 C   0  0  0  0  0  0  0  0  0  0  0  0
  191.6990  176.1180  145.5040 C   0  0  0  0  0  0  0  0  0  0  0  0
  191.2390  176.0630  143.4270 C   0  0  0  0  0  0  0  0  0  0  0  0
  191.8260  174.8630  143.7690 C   0  0  0  0  0  3  0  0  0  0  0  0
  192.1160  174.9030  145.0900 N   0  0  0  0  0  0  0  0  0  0  0  0
  191.9370  176.9130  147.9100 O   0  0  0  0  0  0  0  0  0  0  0  0
  190.8190  176.3900  142.2100 C   0  0  0  0  0  2  0  0  0  0  0  0
  191.1520  176.8520  144.5130 N   0  0  0  0  0  0  0  0  0  0  0  0
  1 19  1  6  0  0  0
  1  7  1  0  0  0  0
  2 18  2  0  0  0  0
  2  9  1  0  0  0  0
  3  4  1  0  0  0  0
  5 17  2  0  0  0  0
  5 13  1  0  0  0  0
  6  9  1  0  0  0  0
  7 13  1  0  0  0  0
  8  3  2  0  0  0  0
  9 10  2  0  0  0  0
 10 16  1  0  0  0  0
 10  8  1  0  0  0  0
 11 24  1  0  0  0  0
 11 16  2  0  0  0  0
 12 14  1  0  0  0  0
 12  1  1  0  0  0  0
 13  6  2  0  0  0  0
 14  5  1  0  0  0  0
 15  4  2  0  0  0  0
 16 15  1  0  0  0  0
 17  2  1  0  0  0  0
 18 11  1  0  0  0  0
 20 19  1  0  0  0  0
 21 23  2  0  0  0  0
 21 20  1  0  0  0  0
 22 21  1  0  0  0  0
 25 30  2  0  0  0  0
 26 25  2  0  0  0  0
 27 28  1  0  0  0  0
 27 32  1  0  0  0  0
 28 29  2  0  0  0  0
 29 26  1  0  0  0  0
 31 27  2  0  0  0  0
 32 24  1  0  0  0  0
 32 26  1  0  0  0  0
M  END
>  <MODEL>
5

>  <REMARK>
 VINA RESULT:      -7.6      3.491      9.231
  Name = 
  5 active torsions:
  status: ('A' for Active; 'I' for Inactive)
    1  A    between atoms: C_1  and  C_10
    2  A    between atoms: C_2  and  C_24
    3  A    between atoms: C_10  and  C_24
    4  A    between atoms: C_16  and  C_27
    5  A    between atoms: C_27  and  N_32
                            x       y       z     vdW  Elec       q    Type
                         _______ _______ _______ _____ _____    ______ ____

>  <TORSDO>
F 5

$$$$
=
 OpenBabel10272413283D

 32 36  0  0  1  0  0  0  0  0999 V2000
  189.8100  176.6380  144.2940 C   0  0  1  0  0  3  0  0  0  0  0  0
  186.1500  178.4000  141.1350 C   0  0  0  0  0  0  0  0  0  0  0  0
  182.1320  178.7940  143.8160 C   0  0  0  0  0  3  0  0  0  0  0  0
  181.4970  179.3260  142.7390 N   0  0  0  0  0  0  0  0  0  0  0  0
  188.2060  177.4750  142.0320 C   0  0  0  0  0  0  0  0  0  0  0  0
  186.2370  177.6530  143.4440 C   0  0  0  0  0  3  0  0  0  0  0  0
  188.2880  176.6430  144.4380 C   0  0  0  0  0  2  0  0  0  0  0  0
  183.4710  178.4130  143.7240 C   0  0  0  0  0  3  0  0  0  0  0  0
  185.5110  178.2100  142.3800 C   0  0  0  0  0  0  0  0  0  0  0  0
  184.1610  178.5820  142.5140 C   0  0  0  0  0  0  0  0  0  0  0  0
  184.1660  179.3120  140.1910 C   0  0  0  0  0  0  0  0  0  0  0  0
  190.2110  176.2110  142.8800 C   0  0  0  0  0  2  0  0  0  0  0  0
  187.5810  177.3000  143.2850 C   0  0  0  0  0  0  0  0  0  0  0  0
  189.6630  177.1770  141.8300 C   0  0  0  0  0  2  0  0  0  0  0  0
  182.1340  179.5030  141.5520 C   0  0  0  0  0  3  0  0  0  0  0  0
  183.4810  179.1400  141.4070 C   0  0  0  0  0  0  0  0  0  0  0  0
  187.4900  178.0390  140.9720 C   0  0  0  0  0  3  0  0  0  0  0  0
  185.4690  178.9400  140.0920 N   0  0  0  0  0  0  0  0  0  0  0  0
  190.3920  177.9940  144.6760 C   0  0  0  0  0  2  0  0  0  0  0  0
  191.5920  177.8200  145.5920 C   0  0  0  0  0  2  0  0  0  0  0  0
  191.2230  176.9850  146.7720 C   0  0  0  0  0  0  0  0  0  0  0  0
  192.0360  175.7840  147.1130 C   0  0  0  0  0  1  0  0  0  0  0  0
  190.2480  177.2700  147.4490 O   0  0  0  0  0  0  0  0  0  0  0  0
  183.4960  179.9190  138.9960 C   0  0  0  0  0  2  0  0  0  0  0  0
  184.5370  177.6330  137.3890 C   0  0  0  0  0  0  0  0  0  0  0  0
  183.2610  177.8830  137.5210 C   0  0  0  0  0  0  0  0  0  0  0  0
  181.4250  178.7890  138.1040 C   0  0  0  0  0  0  0  0  0  0  0  0
  181.1340  177.7130  137.2930 C   0  0  0  0  0  3  0  0  0  0  0  0
  182.3040  177.1400  136.9250 N   0  0  0  0  0  2  0  0  0  0  0  0
  185.7460  177.3980  137.2640 O   0  0  0  0  0  0  0  0  0  0  0  0
  180.5260  179.5950  138.6560 C   0  0  0  0  0  1  0  0  0  0  0  0
  182.7580  178.8970  138.2540 N   0  0  0  0  0  0  0  0  0  0  0  0
  1  7  1  0  0  0  0
  1 19  1  6  0  0  0
  2  9  1  0  0  0  0
  4  3  2  0  0  0  0
  5 13  2  0  0  0  0
  8  3  1  0  0  0  0
  9 10  1  0  0  0  0
  9  6  2  0  0  0  0
 10  8  2  0  0  0  0
 11 16  1  0  0  0  0
 12  1  1  0  0  0  0
 13  6  1  0  0  0  0
 13  7  1  0  0  0  0
 14  5  1  0  0  0  0
 14 12  1  0  0  0  0
 15  4  1  0  0  0  0
 16 15  2  0  0  0  0
 16 10  1  0  0  0  0
 17  2  2  0  0  0  0
 17  5  1  0  0  0  0
 18 11  2  0  0  0  0
 18  2  1  0  0  0  0
 19 20  1  0  0  0  0
 20 21  1  0  0  0  0
 21 22  1  0  0  0  0
 21 23  2  0  0  0  0
 24 11  1  0  0  0  0
 25 26  2  0  0  0  0
 26 32  1  0  0  0  0
 27 32  1  0  0  0  0
 27 31  1  0  0  0  0
 28 27  2  0  0  0  0
 29 28  1  0  0  0  0
 29 26  1  0  0  0  0
 30 25  2  0  0  0  0
 32 24  1  0  0  0  0
M  END
>  <MODEL>
6

>  <REMARK>
 VINA RESULT:      -7.1      2.823      5.175
  Name = 
  5 active torsions:
  status: ('A' for Active; 'I' for Inactive)
    1  A    between atoms: C_1  and  C_10
    2  A    between atoms: C_2  and  C_24
    3  A    between atoms: C_10  and  C_24
    4  A    between atoms: C_16  and  C_27
    5  A    between atoms: C_27  and  N_32
                            x       y       z     vdW  Elec       q    Type
                         _______ _______ _______ _____ _____    ______ ____

>  <TORSDO>
F 5

$$$$
=
 OpenBabel10272413283D

 32 36  0  0  1  0  0  0  0  0999 V2000
  184.9190  179.4240  144.1100 C   0  0  1  0  0  3  0  0  0  0  0  0
  183.4850  177.7400  139.4640 C   0  0  0  0  0  0  0  0  0  0  0  0
  187.3770  178.1830  136.6100 C   0  0  0  0  0  3  0  0  0  0  0  0
  186.6730  177.6020  135.6040 N   0  0  0  0  0  0  0  0  0  0  0  0
  183.4850  178.5120  141.7640 C   0  0  0  0  0  0  0  0  0  0  0  0
  185.4810  178.7560  140.4010 C   0  0  0  0  0  3  0  0  0  0  0  0
  185.5610  179.6250  142.7370 C   0  0  0  0  0  2  0  0  0  0  0  0
  186.7840  178.3830  137.8580 C   0  0  0  0  0  3  0  0  0  0  0  0
  184.8230  178.1630  139.3130 C   0  0  0  0  0  0  0  0  0  0  0  0
  185.4580  177.9790  138.0700 C   0  0  0  0  0  0  0  0  0  0  0  0
  183.4150  176.9660  137.2150 C   0  0  0  0  0  0  0  0  0  0  0  0
  183.4030  179.6170  144.0250 C   0  0  0  0  0  2  0  0  0  0  0  0
  184.8300  178.9180  141.6270 C   0  0  0  0  0  0  0  0  0  0  0  0
  182.7640  178.6010  143.0780 C   0  0  0  0  0  2  0  0  0  0  0  0
  185.3860  177.1990  135.7750 C   0  0  0  0  0  3  0  0  0  0  0  0
  184.7450  177.3730  137.0100 C   0  0  0  0  0  0  0  0  0  0  0  0
  182.8300  177.9100  140.6860 C   0  0  0  0  0  3  0  0  0  0  0  0
  182.8290  177.1600  138.4260 N   0  0  0  0  0  0  0  0  0  0  0  0
  185.2980  178.0660  144.6900 C   0  0  0  0  0  2  0  0  0  0  0  0
  186.1460  178.2380  145.9380 C   0  0  0  0  0  2  0  0  0  0  0  0
  187.4820  177.6020  145.7480 C   0  0  0  0  0  0  0  0  0  0  0  0
  187.9070  177.1640  144.3890 C   0  0  0  0  0  1  0  0  0  0  0  0
  188.2200  177.4210  146.7030 O   0  0  0  0  0  0  0  0  0  0  0  0
  182.6250  176.3000  136.1300 C   0  0  0  0  0  2  0  0  0  0  0  0
  184.1720  173.7520  136.0780 C   0  0  0  0  0  0  0  0  0  0  0  0
  182.9360  173.8210  136.4970 C   0  0  0  0  0  0  0  0  0  0  0  0
  181.0160  174.5750  137.0230 C   0  0  0  0  0  0  0  0  0  0  0  0
  181.0240  173.2170  137.2600 C   0  0  0  0  0  3  0  0  0  0  0  0
  182.2460  172.7420  136.9230 N   0  0  0  0  0  0  0  0  0  0  0  0
  185.3430  173.6870  135.6800 O   0  0  0  0  0  0  0  0  0  0  0  0
  179.9830  175.3820  137.2350 C   0  0  0  0  0  2  0  0  0  0  0  0
  182.2150  174.9600  136.5500 N   0  0  0  0  0  0  0  0  0  0  0  0
  1 19  1  6  0  0  0
  2 17  1  0  0  0  0
  3  8  1  0  0  0  0
  4 15  1  0  0  0  0
  4  3  2  0  0  0  0
  5 14  1  0  0  0  0
  6 13  2  0  0  0  0
  7  1  1  0  0  0  0
  8 10  2  0  0  0  0
  9  2  2  0  0  0  0
  9  6  1  0  0  0  0
 10  9  1  0  0  0  0
 11 18  2  0  0  0  0
 12  1  1  0  0  0  0
 13  5  1  0  0  0  0
 13  7  1  0  0  0  0
 14 12  1  0  0  0  0
 15 16  2  0  0  0  0
 16 11  1  0  0  0  0
 16 10  1  0  0  0  0
 17  5  2  0  0  0  0
 18  2  1  0  0  0  0
 19 20  1  0  0  0  0
 21 20  1  0  0  0  0
 21 23  2  0  0  0  0
 22 21  1  0  0  0  0
 24 32  1  0  0  0  0
 24 11  1  0  0  0  0
 25 26  2  0  0  0  0
 26 32  1  0  0  0  0
 26 29  1  0  0  0  0
 27 31  2  0  0  0  0
 27 28  1  0  0  0  0
 29 28  2  0  0  0  0
 30 25  2  0  0  0  0
 32 27  1  0  0  0  0
M  END
>  <MODEL>
7

>  <REMARK>
 VINA RESULT:      -7.0      3.321      5.217
  Name = 
  5 active torsions:
  status: ('A' for Active; 'I' for Inactive)
    1  A    between atoms: C_1  and  C_10
    2  A    between atoms: C_2  and  C_24
    3  A    between atoms: C_10  and  C_24
    4  A    between atoms: C_16  and  C_27
    5  A    between atoms: C_27  and  N_32
                            x       y       z     vdW  Elec       q    Type
                         _______ _______ _______ _____ _____    ______ ____

>  <TORSDO>
F 5

$$$$
=
 OpenBabel10272413283D

 32 36  0  0  1  0  0  0  0  0999 V2000
  189.3290  177.7790  138.1320 C   0  0  1  0  0  3  0  0  0  0  0  0
  188.8970  177.0390  143.2060 C   0  0  0  0  0  0  0  0  0  0  0  0
  184.6610  179.0100  144.4980 C   0  0  0  0  0  3  0  0  0  0  0  0
  184.8680  178.5600  145.7640 N   0  0  0  0  0  0  0  0  0  0  0  0
  189.7450  177.1940  140.9390 C   0  0  0  0  0  0  0  0  0  0  0  0
  187.6060  178.1960  141.5050 C   0  0  0  0  0  3  0  0  0  0  0  0
  188.4190  178.4500  139.1620 C   0  0  0  0  0  2  0  0  0  0  0  0
  185.6040  178.7580  143.5010 C   0  0  0  0  0  3  0  0  0  0  0  0
  187.7440  177.7650  142.8340 C   0  0  0  0  0  0  0  0  0  0  0  0
  186.7680  178.0380  143.8100 C   0  0  0  0  0  0  0  0  0  0  0  0
  188.1250  176.8550  145.4500 C   0  0  0  0  0  0  0  0  0  0  0  0
  190.7540  177.6560  138.6790 C   0  0  0  0  0  2  0  0  0  0  0  0
  188.5870  177.9020  140.5540 C   0  0  0  0  0  0  0  0  0  0  0  0
  190.7930  176.7950  139.9420 C   0  0  0  0  0  2  0  0  0  0  0  0
  185.9830  177.8590  146.0980 C   0  0  0  0  0  3  0  0  0  0  0  0
  186.9600  177.5780  145.1330 C   0  0  0  0  0  0  0  0  0  0  0  0
  189.8820  176.7540  142.2590 C   0  0  0  0  0  3  0  0  0  0  0  0
  189.0500  176.6090  144.4850 N   0  0  0  0  0  0  0  0  0  0  0  0
  188.7560  176.4340  137.7010 C   0  0  0  0  0  2  0  0  0  0  0  0
  189.6820  175.7560  136.7050 C   0  0  0  0  0  2  0  0  0  0  0  0
  189.9770  174.3600  137.1410 C   0  0  0  0  0  0  0  0  0  0  0  0
  188.9660  173.2880  136.9240 C   0  0  0  0  0  1  0  0  0  0  0  0
  191.0330  174.0970  137.6920 O   0  0  0  0  0  0  0  0  0  0  0  0
  188.3650  176.3260  146.8310 C   0  0  0  0  0  2  0  0  0  0  0  0
  191.3430  176.3260  146.6950 C   0  0  0  0  0  0  0  0  0  0  0  0
  190.6700  177.1360  147.4680 C   0  0  0  0  0  0  0  0  0  0  0  0
  189.0630  178.1290  148.4510 C   0  0  0  0  0  0  0  0  0  0  0  0
  190.2470  178.6640  148.9140 C   0  0  0  0  0  3  0  0  0  0  0  0
  191.2650  178.0300  148.2870 N   0  0  0  0  0  0  0  0  0  0  0  0
  191.9800  175.5570  145.9630 O   0  0  0  0  0  0  0  0  0  0  0  0
  187.8510  178.5020  148.8420 C   0  0  0  0  0  2  0  0  0  0  0  0
  189.3230  177.1740  147.5390 N   0  0  0  0  0  0  0  0  0  0  0  0
  1 19  1  1  0  0  0
  1 12  1  0  0  0  0
  1  7  1  0  0  0  0
  2 18  1  0  0  0  0
  3  4  1  0  0  0  0
  4 15  2  0  0  0  0
  5 17  1  0  0  0  0
  6  9  2  0  0  0  0
  7 13  1  0  0  0  0
  8 10  1  0  0  0  0
  8  3  2  0  0  0  0
  9  2  1  0  0  0  0
  9 10  1  0  0  0  0
 10 16  2  0  0  0  0
 11 24  1  0  0  0  0
 12 14  1  0  0  0  0
 13  5  2  0  0  0  0
 13  6  1  0  0  0  0
 14  5  1  0  0  0  0
 16 11  1  0  0  0  0
 16 15  1  0  0  0  0
 17  2  2  0  0  0  0
 18 11  2  0  0  0  0
 20 21  1  0  0  0  0
 20 19  1  0  0  0  0
 21 23  2  0  0  0  0
 22 21  1  0  0  0  0
 24 32  1  0  0  0  0
 25 26  2  0  0  0  0
 26 32  1  0  0  0  0
 26 29  1  0  0  0  0
 27 31  2  0  0  0  0
 27 28  1  0  0  0  0
 29 28  2  0  0  0  0
 30 25  2  0  0  0  0
 32 27  1  0  0  0  0
M  END
>  <MODEL>
8

>  <REMARK>
 VINA RESULT:      -6.7      3.900      8.882
  Name = 
  5 active torsions:
  status: ('A' for Active; 'I' for Inactive)
    1  A    between atoms: C_1  and  C_10
    2  A    between atoms: C_2  and  C_24
    3  A    between atoms: C_10  and  C_24
    4  A    between atoms: C_16  and  C_27
    5  A    between atoms: C_27  and  N_32
                            x       y       z     vdW  Elec       q    Type
                         _______ _______ _______ _____ _____    ______ ____

>  <TORSDO>
F 5

$$$$
=
 OpenBabel10272413283D

 32 36  0  0  1  0  0  0  0  0999 V2000
  184.4570  176.1990  134.4780 C   0  0  1  0  0  3  0  0  0  0  0  0
  185.1210  178.3320  139.1130 C   0  0  0  0  0  0  0  0  0  0  0  0
  180.8210  178.0910  141.3360 C   0  0  0  0  0  3  0  0  0  0  0  0
  181.3960  178.6180  142.4490 N   0  0  0  0  0  0  0  0  0  0  0  0
  185.4210  177.6110  136.8170 C   0  0  0  0  0  0  0  0  0  0  0  0
  183.2360  177.4450  137.8660 C   0  0  0  0  0  3  0  0  0  0  0  0
  183.4360  176.7260  135.4870 C   0  0  0  0  0  2  0  0  0  0  0  0
  181.5840  177.8690  140.1890 C   0  0  0  0  0  3  0  0  0  0  0  0
  183.7540  177.9830  139.0540 C   0  0  0  0  0  0  0  0  0  0  0  0
  182.9490  178.1910  140.1900 C   0  0  0  0  0  0  0  0  0  0  0  0
  184.8950  179.0620  141.3670 C   0  0  0  0  0  0  0  0  0  0  0  0
  185.6290  177.1750  134.3460 C   0  0  0  0  0  2  0  0  0  0  0  0
  184.0600  177.2400  136.7550 C   0  0  0  0  0  0  0  0  0  0  0  0
  186.3610  177.3490  135.6770 C   0  0  0  0  0  2  0  0  0  0  0  0
  182.7150  178.9420  142.4840 C   0  0  0  0  0  3  0  0  0  0  0  0
  183.5270  178.7360  141.3590 C   0  0  0  0  0  0  0  0  0  0  0  0
  185.9430  178.1380  138.0010 C   0  0  0  0  0  3  0  0  0  0  0  0
  185.6450  178.8520  140.2530 N   0  0  0  0  0  0  0  0  0  0  0  0
  184.9120  174.7940  134.8550 C   0  0  0  0  0  2  0  0  0  0  0  0
  183.7180  173.9280  135.2180 C   0  0  0  0  0  2  0  0  0  0  0  0
  184.0200  173.1140  136.4310 C   0  0  0  0  0  0  0  0  0  0  0  0
  184.7600  173.7270  137.5690 C   0  0  0  0  0  1  0  0  0  0  0  0
  183.6800  171.9430  136.4880 O   0  0  0  0  0  0  0  0  0  0  0  0
  185.5590  179.6210  142.5890 C   0  0  0  0  0  2  0  0  0  0  0  0
  184.7390  178.5900  145.2640 C   0  0  0  0  0  0  0  0  0  0  0  0
  185.7610  178.1120  144.6040 C   0  0  0  0  0  0  0  0  0  0  0  0
  187.2270  177.7980  143.0930 C   0  0  0  0  0  0  0  0  0  0  0  0
  187.4800  176.9210  144.1260 C   0  0  0  0  0  3  0  0  0  0  0  0
  186.5450  177.1240  145.0840 N   0  0  0  0  0  0  0  0  0  0  0  0
  183.7710  179.0440  145.8890 O   0  0  0  0  0  0  0  0  0  0  0  0
  187.9400  177.8900  141.9770 C   0  0  0  0  0  2  0  0  0  0  0  0
  186.1460  178.5440  143.3850 N   0  0  0  0  0  0  0  0  0  0  0  0
  1 19  1  1  0  0  0
  1  7  1  0  0  0  0
  2 18  1  0  0  0  0
  3  4  1  0  0  0  0
  4 15  2  0  0  0  0
  5 17  1  0  0  0  0
  6  9  2  0  0  0  0
  7 13  1  0  0  0  0
  8 10  1  0  0  0  0
  8  3  2  0  0  0  0
  9  2  1  0  0  0  0
  9 10  1  0  0  0  0
 10 16  2  0  0  0  0
 11 24  1  0  0  0  0
 12  1  1  0  0  0  0
 12 14  1  0  0  0  0
 13  5  2  0  0  0  0
 13  6  1  0  0  0  0
 14  5  1  0  0  0  0
 16 11  1  0  0  0  0
 16 15  1  0  0  0  0
 17  2  2  0  0  0  0
 18 11  2  0  0  0  0
 19 20  1  0  0  0  0
 20 21  1  0  0  0  0
 21 23  2  0  0  0  0
 21 22  1  0  0  0  0
 24 32  1  0  0  0  0
 25 30  2  0  0  0  0
 26 29  1  0  0  0  0
 26 25  2  0  0  0  0
 27 32  1  0  0  0  0
 27 28  1  0  0  0  0
 28 29  2  0  0  0  0
 31 27  2  0  0  0  0
 32 26  1  0  0  0  0
M  END
>  <MODEL>
9

>  <REMARK>
 VINA RESULT:      -6.7      3.794      8.878
  Name = 
  5 active torsions:
  status: ('A' for Active; 'I' for Inactive)
    1  A    between atoms: C_1  and  C_10
    2  A    between atoms: C_2  and  C_24
    3  A    between atoms: C_10  and  C_24
    4  A    between atoms: C_16  and  C_27
    5  A    between atoms: C_27  and  N_32
                            x       y       z     vdW  Elec       q    Type
                         _______ _______ _______ _____ _____    ______ ____

>  <TORSDO>
F 5

$$$$
