=
 OpenBabel10272401153D

 27 30  0  0  1  0  0  0  0  0999 V2000
  189.8450  177.1420  140.1950 C   0  0  2  0  0  3  0  0  0  0  0  0
  190.4540  176.2970  141.1410 O   0  0  0  0  0  0  0  0  0  0  0  0
  188.4340  176.7120  141.9400 C   0  0  1  0  0  3  0  0  0  0  0  0
  186.5340  178.7560  141.1300 C   0  0  0  0  0  0  0  0  0  0  0  0
  185.4490  179.4980  140.6800 O   0  0  0  0  0  1  0  0  0  0  0  0
  188.4980  177.3170  140.6420 N   0  0  0  0  0  0  0  0  0  0  0  0
  189.7670  176.4210  142.2840 O   0  0  0  0  0  0  0  0  0  0  0  0
  186.6200  178.4110  142.4180 C   0  0  0  0  0  3  0  0  0  0  0  0
  187.6660  178.8110  139.0420 O   0  0  0  0  0  0  0  0  0  0  0  0
  187.5810  178.3210  140.2000 C   0  0  0  0  0  0  0  0  0  0  0  0
  187.8240  177.6870  142.9670 C   0  0  1  0  0  3  0  0  0  0  0  0
  187.4300  176.9590  144.2440 C   0  0  0  0  0  2  0  0  0  0  0  0
  189.2240  176.8760  147.5550 C   0  0  0  0  0  2  0  0  0  0  0  0
  188.4960  177.9850  148.2630 C   0  0  0  0  0  3  0  0  0  0  0  0
  187.3310  178.4210  147.7750 C   0  0  0  0  0  3  0  0  0  0  0  0
  187.9110  177.7060  145.4790 C   0  0  1  0  0  3  0  0  0  0  0  0
  186.7900  177.8060  146.5200 C   0  0  0  0  0  2  0  0  0  0  0  0
  189.1970  177.0480  146.0220 C   0  0  1  0  0  3  0  0  0  0  0  0
  191.5860  176.9260  145.3110 C   0  0  0  0  0  1  0  0  0  0  0  0
  190.4030  177.8450  145.5500 C   0  0  0  0  0  2  0  0  0  0  0  0
  189.8900  176.5070  138.8020 C   0  0  0  0  0  2  0  0  0  0  0  0
  193.8000  175.1090  137.7060 C   0  0  0  0  0  3  0  0  0  0  0  0
  191.2530  176.0130  138.4320 C   0  0  0  0  0  0  0  0  0  0  0  0
  191.4030  174.7760  137.7960 C   0  0  0  0  0  3  0  0  0  0  0  0
  192.6760  174.3230  137.4340 C   0  0  0  0  0  3  0  0  0  0  0  0
  193.6510  176.3460  138.3400 C   0  0  0  0  0  3  0  0  0  0  0  0
  192.3800  176.7980  138.7020 C   0  0  0  0  0  3  0  0  0  0  0  0
  1 21  1  6  0  0  0
  1  6  1  0  0  0  0
  1  2  1  0  0  0  0
  2  7  1  0  0  0  0
  3  7  1  1  0  0  0
  3 11  1  0  0  0  0
  4  8  2  0  0  0  0
  5  4  1  0  0  0  0
  6  3  1  0  0  0  0
  8 11  1  0  0  0  0
  9 10  2  0  0  0  0
 10  6  1  0  0  0  0
 10  4  1  0  0  0  0
 11 12  1  1  0  0  0
 13 14  1  0  0  0  0
 15 14  2  0  0  0  0
 16 12  1  6  0  0  0
 16 18  1  0  0  0  0
 16 17  1  0  0  0  0
 17 15  1  0  0  0  0
 18 20  1  1  0  0  0
 18 13  1  0  0  0  0
 19 20  1  0  0  0  0
 22 26  1  0  0  0  0
 23 27  1  0  0  0  0
 23 21  1  0  0  0  0
 24 23  2  0  0  0  0
 25 22  2  0  0  0  0
 25 24  1  0  0  0  0
 26 27  2  0  0  0  0
M  END
>  <MODEL>
1

>  <REMARK>
 VINA RESULT:      -9.0      0.000      0.000
  Name = 
  5 active torsions:
  status: ('A' for Active; 'I' for Inactive)
    1  A    between atoms: C_1  and  C_15
    2  A    between atoms: C_9  and  C_15
    3  A    between atoms: C_12  and  C_14
    4  A    between atoms: C_12  and  C_26
    5  A    between atoms: C_17  and  C_21
                            x       y       z     vdW  Elec       q    Type
                         _______ _______ _______ _____ _____    ______ ____

>  <TORSDO>
F 5

$$$$
=
 OpenBabel10272401153D

 27 30  0  0  1  0  0  0  0  0999 V2000
  187.9630  178.6470  140.5750 C   0  0  2  0  0  3  0  0  0  0  0  0
  189.0380  178.0260  141.2380 O   0  0  0  0  0  0  0  0  0  0  0  0
  187.2540  177.5780  142.4660 C   0  0  1  0  0  3  0  0  0  0  0  0
  184.6200  178.8020  142.3750 C   0  0  0  0  0  0  0  0  0  0  0  0
  183.2700  179.1080  142.2660 O   0  0  0  0  0  1  0  0  0  0  0  0
  186.7900  178.2610  141.2940 N   0  0  0  0  0  0  0  0  0  0  0  0
  188.6450  177.7900  142.4950 O   0  0  0  0  0  0  0  0  0  0  0  0
  185.1260  178.4170  143.5490 C   0  0  0  0  0  3  0  0  0  0  0  0
  185.1280  179.4460  140.1450 O   0  0  0  0  0  0  0  0  0  0  0  0
  185.5000  178.8720  141.2030 C   0  0  0  0  0  0  0  0  0  0  0  0
  186.6030  178.1640  143.7330 C   0  0  1  0  0  3  0  0  0  0  0  0
  186.8060  177.2440  144.9280 C   0  0  0  0  0  2  0  0  0  0  0  0
  189.5460  176.8220  147.4800 C   0  0  0  0  0  2  0  0  0  0  0  0
  189.1890  177.9410  148.4180 C   0  0  0  0  0  3  0  0  0  0  0  0
  187.9760  178.4970  148.3460 C   0  0  0  0  0  3  0  0  0  0  0  0
  187.7240  177.8760  145.9640 C   0  0  1  0  0  3  0  0  0  0  0  0
  187.0070  178.0010  147.3140 C   0  0  0  0  0  2  0  0  0  0  0  0
  189.0480  177.0870  146.0430 C   0  0  1  0  0  3  0  0  0  0  0  0
  191.4440  177.1000  145.3450 C   0  0  0  0  0  1  0  0  0  0  0  0
  190.1100  177.8130  145.2320 C   0  0  0  0  0  2  0  0  0  0  0  0
  187.8970  178.1870  139.1150 C   0  0  0  0  0  2  0  0  0  0  0  0
  191.1360  175.5920  138.0110 C   0  0  0  0  0  3  0  0  0  0  0  0
  189.0230  177.2740  138.7410 C   0  0  0  0  0  0  0  0  0  0  0  0
  188.7810  176.1510  137.9430 C   0  0  0  0  0  3  0  0  0  0  0  0
  189.8370  175.3090  137.5790 C   0  0  0  0  0  3  0  0  0  0  0  0
  191.3800  176.7150  138.8070 C   0  0  0  0  0  3  0  0  0  0  0  0
  190.3250  177.5560  139.1710 C   0  0  0  0  0  3  0  0  0  0  0  0
  1 21  1  6  0  0  0
  1  2  1  0  0  0  0
  1  6  1  0  0  0  0
  2  7  1  0  0  0  0
  3  7  1  1  0  0  0
  3 11  1  0  0  0  0
  4  8  2  0  0  0  0
  5  4  1  0  0  0  0
  6  3  1  0  0  0  0
  8 11  1  0  0  0  0
  9 10  2  0  0  0  0
 10  6  1  0  0  0  0
 10  4  1  0  0  0  0
 11 12  1  1  0  0  0
 13 14  1  0  0  0  0
 15 14  2  0  0  0  0
 16 12  1  6  0  0  0
 16 18  1  0  0  0  0
 16 17  1  0  0  0  0
 17 15  1  0  0  0  0
 18 20  1  6  0  0  0
 18 13  1  0  0  0  0
 20 19  1  0  0  0  0
 22 26  1  0  0  0  0
 23 21  1  0  0  0  0
 23 27  1  0  0  0  0
 24 23  2  0  0  0  0
 25 24  1  0  0  0  0
 25 22  2  0  0  0  0
 26 27  2  0  0  0  0
M  END
>  <MODEL>
2

>  <REMARK>
 VINA RESULT:      -8.6      1.378      1.980
  Name = 
  5 active torsions:
  status: ('A' for Active; 'I' for Inactive)
    1  A    between atoms: C_1  and  C_15
    2  A    between atoms: C_9  and  C_15
    3  A    between atoms: C_12  and  C_14
    4  A    between atoms: C_12  and  C_26
    5  A    between atoms: C_17  and  C_21
                            x       y       z     vdW  Elec       q    Type
                         _______ _______ _______ _____ _____    ______ ____

>  <TORSDO>
F 5

$$$$
=
 OpenBabel10272401153D

 27 30  0  0  1  0  0  0  0  0999 V2000
  185.1040  179.2090  141.8600 C   0  0  2  0  0  3  0  0  0  0  0  0
  186.0870  178.6280  141.0380 O   0  0  0  0  0  0  0  0  0  0  0  0
  186.3570  177.6950  143.0250 C   0  0  1  0  0  3  0  0  0  0  0  0
  185.2810  178.5250  145.5940 C   0  0  0  0  0  0  0  0  0  0  0  0
  184.6350  178.6510  146.8170 O   0  0  0  0  0  1  0  0  0  0  0  0
  185.1910  178.5250  143.1120 N   0  0  0  0  0  0  0  0  0  0  0  0
  187.0120  178.0930  141.8450 O   0  0  0  0  0  0  0  0  0  0  0  0
  186.5030  177.9890  145.5350 C   0  0  0  0  0  3  0  0  0  0  0  0
  183.5870  179.6660  144.3800 O   0  0  0  0  0  0  0  0  0  0  0  0
  184.6240  178.9520  144.3540 C   0  0  0  0  0  0  0  0  0  0  0  0
  187.2770  177.9180  144.2410 C   0  0  1  0  0  3  0  0  0  0  0  0
  188.3220  176.8160  144.3450 C   0  0  0  0  0  2  0  0  0  0  0  0
  191.7560  176.0770  145.7060 C   0  0  0  0  0  2  0  0  0  0  0  0
  191.6620  176.7900  147.0260 C   0  0  0  0  0  3  0  0  0  0  0  0
  190.4620  177.1440  147.4960 C   0  0  0  0  0  3  0  0  0  0  0  0
  189.4890  177.2410  145.2230 C   0  0  1  0  0  3  0  0  0  0  0  0
  189.2410  176.8390  146.6820 C   0  0  0  0  0  2  0  0  0  0  0  0
  190.8090  176.6820  144.6490 C   0  0  1  0  0  3  0  0  0  0  0  0
  190.9110  179.1310  144.1800 C   0  0  0  0  0  1  0  0  0  0  0  0
  191.5120  177.7760  143.8600 C   0  0  0  0  0  2  0  0  0  0  0  0
  183.7160  179.0450  141.2320 C   0  0  0  0  0  2  0  0  0  0  0  0
  183.7110  176.5340  137.7480 C   0  0  0  0  0  3  0  0  0  0  0  0
  183.7260  178.1630  140.0230 C   0  0  0  0  0  0  0  0  0  0  0  0
  183.0780  176.9240  140.0530 C   0  0  0  0  0  3  0  0  0  0  0  0
  183.0710  176.1090  138.9160 C   0  0  0  0  0  3  0  0  0  0  0  0
  184.3580  177.7730  137.7160 C   0  0  0  0  0  3  0  0  0  0  0  0
  184.3640  178.5870  138.8520 C   0  0  0  0  0  3  0  0  0  0  0  0
  1 21  1  6  0  0  0
  1  6  1  0  0  0  0
  2  7  1  0  0  0  0
  2  1  1  0  0  0  0
  3  7  1  6  0  0  0
  3  6  1  0  0  0  0
  3 11  1  0  0  0  0
  4  5  1  0  0  0  0
  6 10  1  0  0  0  0
  8  4  2  0  0  0  0
 10  9  2  0  0  0  0
 10  4  1  0  0  0  0
 11 12  1  1  0  0  0
 11  8  1  0  0  0  0
 13 14  1  0  0  0  0
 14 15  2  0  0  0  0
 16 12  1  6  0  0  0
 16 17  1  0  0  0  0
 17 15  1  0  0  0  0
 18 20  1  1  0  0  0
 18 16  1  0  0  0  0
 18 13  1  0  0  0  0
 20 19  1  0  0  0  0
 22 25  1  0  0  0  0
 23 24  1  0  0  0  0
 23 21  1  0  0  0  0
 25 24  2  0  0  0  0
 26 22  2  0  0  0  0
 26 27  1  0  0  0  0
 27 23  2  0  0  0  0
M  END
>  <MODEL>
3

>  <REMARK>
 VINA RESULT:      -8.5      3.783      5.598
  Name = 
  5 active torsions:
  status: ('A' for Active; 'I' for Inactive)
    1  A    between atoms: C_1  and  C_15
    2  A    between atoms: C_9  and  C_15
    3  A    between atoms: C_12  and  C_14
    4  A    between atoms: C_12  and  C_26
    5  A    between atoms: C_17  and  C_21
                            x       y       z     vdW  Elec       q    Type
                         _______ _______ _______ _____ _____    ______ ____

>  <TORSDO>
F 5

$$$$
=
 OpenBabel10272401153D

 27 30  0  0  1  0  0  0  0  0999 V2000
  188.1130  177.7260  139.4250 C   0  0  2  0  0  3  0  0  0  0  0  0
  187.1460  178.2050  140.3280 O   0  0  0  0  0  0  0  0  0  0  0  0
  189.0890  178.4930  141.3430 C   0  0  1  0  0  3  0  0  0  0  0  0
  191.6830  177.3640  140.6770 C   0  0  0  0  0  0  0  0  0  0  0  0
  193.0030  177.1120  140.3280 O   0  0  0  0  0  1  0  0  0  0  0  0
  189.3790  178.0190  140.0210 N   0  0  0  0  0  0  0  0  0  0  0  0
  187.7180  178.2450  141.5370 O   0  0  0  0  0  0  0  0  0  0  0  0
  191.3540  177.5430  141.9590 C   0  0  0  0  0  3  0  0  0  0  0  0
  190.8570  177.0750  138.4690 O   0  0  0  0  0  0  0  0  0  0  0  0
  190.6420  177.4620  139.6480 C   0  0  0  0  0  0  0  0  0  0  0  0
  189.9190  177.7270  142.3920 C   0  0  1  0  0  3  0  0  0  0  0  0
  189.8910  178.4380  143.7370 C   0  0  0  0  0  2  0  0  0  0  0  0
  187.9620  177.9590  146.9380 C   0  0  0  0  0  2  0  0  0  0  0  0
  188.7560  176.8350  147.5440 C   0  0  0  0  0  3  0  0  0  0  0  0
  189.9750  176.5610  147.0680 C   0  0  0  0  0  3  0  0  0  0  0  0
  189.4280  177.5050  144.8470 C   0  0  1  0  0  3  0  0  0  0  0  0
  190.5100  177.3710  145.9250 C   0  0  0  0  0  2  0  0  0  0  0  0
  188.0670  177.9810  145.3980 C   0  0  1  0  0  3  0  0  0  0  0  0
  185.7670  178.0270  144.4310 C   0  0  0  0  0  1  0  0  0  0  0  0
  186.9570  177.1510  144.7720 C   0  0  0  0  0  2  0  0  0  0  0  0
  187.9660  178.4160  138.0660 C   0  0  0  0  0  2  0  0  0  0  0  0
  186.5330  175.7670  135.0040 C   0  0  0  0  0  3  0  0  0  0  0  0
  187.4800  177.4910  136.9940 C   0  0  0  0  0  0  0  0  0  0  0  0
  187.4990  176.1070  137.1980 C   0  0  0  0  0  3  0  0  0  0  0  0
  187.0270  175.2450  136.2030 C   0  0  0  0  0  3  0  0  0  0  0  0
  186.5130  177.1500  134.7990 C   0  0  0  0  0  3  0  0  0  0  0  0
  186.9850  178.0110  135.7920 C   0  0  0  0  0  3  0  0  0  0  0  0
  1 21  1  6  0  0  0
  1  6  1  0  0  0  0
  1  2  1  0  0  0  0
  2  7  1  0  0  0  0
  3  7  1  1  0  0  0
  3 11  1  0  0  0  0
  4  8  2  0  0  0  0
  5  4  1  0  0  0  0
  6  3  1  0  0  0  0
  8 11  1  0  0  0  0
  9 10  2  0  0  0  0
 10  6  1  0  0  0  0
 10  4  1  0  0  0  0
 11 12  1  1  0  0  0
 13 14  1  0  0  0  0
 15 14  2  0  0  0  0
 16 12  1  6  0  0  0
 16 18  1  0  0  0  0
 16 17  1  0  0  0  0
 17 15  1  0  0  0  0
 18 20  1  6  0  0  0
 18 13  1  0  0  0  0
 19 20  1  0  0  0  0
 22 25  1  0  0  0  0
 23 24  1  0  0  0  0
 23 21  1  0  0  0  0
 25 24  2  0  0  0  0
 26 22  2  0  0  0  0
 26 27  1  0  0  0  0
 27 23  2  0  0  0  0
M  END
>  <MODEL>
4

>  <REMARK>
 VINA RESULT:      -8.1      2.518      4.351
  Name = 
  5 active torsions:
  status: ('A' for Active; 'I' for Inactive)
    1  A    between atoms: C_1  and  C_15
    2  A    between atoms: C_9  and  C_15
    3  A    between atoms: C_12  and  C_14
    4  A    between atoms: C_12  and  C_26
    5  A    between atoms: C_17  and  C_21
                            x       y       z     vdW  Elec       q    Type
                         _______ _______ _______ _____ _____    ______ ____

>  <TORSDO>
F 5

$$$$
=
 OpenBabel10272401153D

 27 30  0  0  1  0  0  0  0  0999 V2000
  188.3590  177.7630  141.9990 C   0  0  2  0  0  3  0  0  0  0  0  0
  187.1350  178.3620  141.6500 O   0  0  0  0  0  0  0  0  0  0  0  0
  188.0820  177.8020  139.7320 C   0  0  1  0  0  3  0  0  0  0  0  0
  190.8350  177.0280  139.2110 C   0  0  0  0  0  0  0  0  0  0  0  0
  192.0250  176.4010  138.8680 O   0  0  0  0  0  1  0  0  0  0  0  0
  188.9220  177.2880  140.7740 N   0  0  0  0  0  0  0  0  0  0  0  0
  187.2220  178.7190  140.3620 O   0  0  0  0  0  0  0  0  0  0  0  0
  190.1700  177.7450  138.3020 C   0  0  0  0  0  3  0  0  0  0  0  0
  190.9730  176.4270  141.5060 O   0  0  0  0  0  0  0  0  0  0  0  0
  190.2790  176.8900  140.5620 C   0  0  0  0  0  0  0  0  0  0  0  0
  188.9230  178.5180  138.6560 C   0  0  1  0  0  3  0  0  0  0  0  0
  188.1070  178.7560  137.3940 C   0  0  0  0  0  2  0  0  0  0  0  0
  186.1950  176.7500  134.8420 C   0  0  0  0  0  2  0  0  0  0  0  0
  185.0870  176.2260  135.7130 C   0  0  0  0  0  3  0  0  0  0  0  0
  184.8620  176.7950  136.9010 C   0  0  0  0  0  3  0  0  0  0  0  0
  187.2040  177.5710  137.0860 C   0  0  1  0  0  3  0  0  0  0  0  0
  185.7360  177.9300  137.3440 C   0  0  0  0  0  2  0  0  0  0  0  0
  187.4700  177.0680  135.6510 C   0  0  1  0  0  3  0  0  0  0  0  0
  188.1490  175.0720  136.9870 C   0  0  0  0  0  1  0  0  0  0  0  0
  188.3860  175.8550  135.7090 C   0  0  0  0  0  2  0  0  0  0  0  0
  188.1300  176.6150  142.9880 C   0  0  0  0  0  2  0  0  0  0  0  0
  187.6300  177.9320  147.0450 C   0  0  0  0  0  3  0  0  0  0  0  0
  187.9560  177.0870  144.3970 C   0  0  0  0  0  0  0  0  0  0  0  0
  186.6730  177.3220  144.9050 C   0  0  0  0  0  3  0  0  0  0  0  0
  186.5110  177.7460  146.2290 C   0  0  0  0  0  3  0  0  0  0  0  0
  188.9120  177.6960  146.5390 C   0  0  0  0  0  3  0  0  0  0  0  0
  189.0750  177.2730  145.2170 C   0  0  0  0  0  3  0  0  0  0  0  0
  1 21  1  1  0  0  0
  2  1  1  0  0  0  0
  3  7  1  1  0  0  0
  3  6  1  0  0  0  0
  4 10  1  0  0  0  0
  5  4  1  0  0  0  0
  6  1  1  0  0  0  0
  7  2  1  0  0  0  0
  8 11  1  0  0  0  0
  8  4  2  0  0  0  0
 10  6  1  0  0  0  0
 10  9  2  0  0  0  0
 11 12  1  6  0  0  0
 11  3  1  0  0  0  0
 13 18  1  0  0  0  0
 13 14  1  0  0  0  0
 14 15  2  0  0  0  0
 15 17  1  0  0  0  0
 16 17  1  0  0  0  0
 16 12  1  6  0  0  0
 18 20  1  1  0  0  0
 18 16  1  0  0  0  0
 20 19  1  0  0  0  0
 21 23  1  0  0  0  0
 23 24  2  0  0  0  0
 23 27  1  0  0  0  0
 24 25  1  0  0  0  0
 25 22  2  0  0  0  0
 26 22  1  0  0  0  0
 27 26  2  0  0  0  0
M  END
>  <MODEL>
5

>  <REMARK>
 VINA RESULT:      -8.1      2.568      8.021
  Name = 
  5 active torsions:
  status: ('A' for Active; 'I' for Inactive)
    1  A    between atoms: C_1  and  C_15
    2  A    between atoms: C_9  and  C_15
    3  A    between atoms: C_12  and  C_14
    4  A    between atoms: C_12  and  C_26
    5  A    between atoms: C_17  and  C_21
                            x       y       z     vdW  Elec       q    Type
                         _______ _______ _______ _____ _____    ______ ____

>  <TORSDO>
F 5

$$$$
=
 OpenBabel10272401153D

 27 30  0  0  1  0  0  0  0  0999 V2000
  190.0040  177.1460  138.1790 C   0  0  2  0  0  3  0  0  0  0  0  0
  190.9540  176.2590  138.7180 O   0  0  0  0  0  0  0  0  0  0  0  0
  189.3930  176.4600  140.2700 C   0  0  1  0  0  3  0  0  0  0  0  0
  187.2740  178.4380  140.4850 C   0  0  0  0  0  0  0  0  0  0  0  0
  186.0810  179.1430  140.5700 O   0  0  0  0  0  1  0  0  0  0  0  0
  188.9320  177.1870  139.1230 N   0  0  0  0  0  0  0  0  0  0  0  0
  190.7620  176.2290  140.0420 O   0  0  0  0  0  0  0  0  0  0  0  0
  187.8610  177.9800  141.5940 C   0  0  0  0  0  3  0  0  0  0  0  0
  187.5060  178.7650  138.1430 O   0  0  0  0  0  0  0  0  0  0  0  0
  187.8900  178.1640  139.1820 C   0  0  0  0  0  0  0  0  0  0  0  0
  189.2030  177.2900  141.5550 C   0  0  1  0  0  3  0  0  0  0  0  0
  189.3530  176.4210  142.7950 C   0  0  0  0  0  2  0  0  0  0  0  0
  190.5520  176.8320  146.3430 C   0  0  0  0  0  2  0  0  0  0  0  0
  189.4320  177.6740  146.8900 C   0  0  0  0  0  3  0  0  0  0  0  0
  188.2820  177.7560  146.2140 C   0  0  0  0  0  3  0  0  0  0  0  0
  189.3970  177.2640  144.0600 C   0  0  1  0  0  3  0  0  0  0  0  0
  188.1460  177.0210  144.9140 C   0  0  0  0  0  2  0  0  0  0  0  0
  190.7170  177.0040  144.8180 C   0  0  1  0  0  3  0  0  0  0  0  0
  190.9620  179.3550  144.0160 C   0  0  0  0  0  1  0  0  0  0  0  0
  191.6990  178.1230  144.5070 C   0  0  0  0  0  2  0  0  0  0  0  0
  189.5230  176.6490  136.8120 C   0  0  0  0  0  2  0  0  0  0  0  0
  187.3640  172.9410  137.0110 C   0  0  0  0  0  3  0  0  0  0  0  0
  188.7700  175.3580  136.8960 C   0  0  0  0  0  0  0  0  0  0  0  0
  187.3710  175.3610  136.9270 C   0  0  0  0  0  3  0  0  0  0  0  0
  186.6680  174.1530  136.9850 C   0  0  0  0  0  3  0  0  0  0  0  0
  188.7620  172.9360  136.9780 C   0  0  0  0  0  3  0  0  0  0  0  0
  189.4640  174.1430  136.9200 C   0  0  0  0  0  3  0  0  0  0  0  0
  1 21  1  6  0  0  0
  1  2  1  0  0  0  0
  1  6  1  0  0  0  0
  2  7  1  0  0  0  0
  3  7  1  6  0  0  0
  3 11  1  0  0  0  0
  4  5  1  0  0  0  0
  4  8  2  0  0  0  0
  6 10  1  0  0  0  0
  6  3  1  0  0  0  0
  9 10  2  0  0  0  0
 10  4  1  0  0  0  0
 11  8  1  0  0  0  0
 11 12  1  1  0  0  0
 13 14  1  0  0  0  0
 15 14  2  0  0  0  0
 16 12  1  6  0  0  0
 16 18  1  0  0  0  0
 16 17  1  0  0  0  0
 17 15  1  0  0  0  0
 18 20  1  1  0  0  0
 18 13  1  0  0  0  0
 19 20  1  0  0  0  0
 21 23  1  0  0  0  0
 23 27  2  0  0  0  0
 23 24  1  0  0  0  0
 24 25  2  0  0  0  0
 25 22  1  0  0  0  0
 26 22  2  0  0  0  0
 27 26  1  0  0  0  0
M  END
>  <MODEL>
6

>  <REMARK>
 VINA RESULT:      -8.0      2.034      2.994
  Name = 
  5 active torsions:
  status: ('A' for Active; 'I' for Inactive)
    1  A    between atoms: C_1  and  C_15
    2  A    between atoms: C_9  and  C_15
    3  A    between atoms: C_12  and  C_14
    4  A    between atoms: C_12  and  C_26
    5  A    between atoms: C_17  and  C_21
                            x       y       z     vdW  Elec       q    Type
                         _______ _______ _______ _____ _____    ______ ____

>  <TORSDO>
F 5

$$$$
=
 OpenBabel10272401153D

 27 30  0  0  1  0  0  0  0  0999 V2000
  188.4300  177.7420  142.6230 C   0  0  2  0  0  3  0  0  0  0  0  0
  187.1880  178.1160  142.0780 O   0  0  0  0  0  0  0  0  0  0  0  0
  188.4670  177.6280  140.3420 C   0  0  1  0  0  3  0  0  0  0  0  0
  191.3520  177.2900  140.2360 C   0  0  0  0  0  0  0  0  0  0  0  0
  192.6620  176.8510  140.0930 O   0  0  0  0  0  1  0  0  0  0  0  0
  189.2240  177.3080  141.5170 N   0  0  0  0  0  0  0  0  0  0  0  0
  187.3960  178.4210  140.7910 O   0  0  0  0  0  0  0  0  0  0  0  0
  190.7170  177.8460  139.2010 C   0  0  0  0  0  3  0  0  0  0  0  0
  191.2630  176.8300  142.5650 O   0  0  0  0  0  0  0  0  0  0  0  0
  190.6430  177.1280  141.5100 C   0  0  0  0  0  0  0  0  0  0  0  0
  189.3270  178.4200  139.3370 C   0  0  1  0  0  3  0  0  0  0  0  0
  188.6670  178.4610  137.9660 C   0  0  0  0  0  2  0  0  0  0  0  0
  187.5820  175.7600  135.5760 C   0  0  0  0  0  2  0  0  0  0  0  0
  186.2150  175.4670  136.1320 C   0  0  0  0  0  3  0  0  0  0  0  0
  185.6470  176.3390  136.9700 C   0  0  0  0  0  3  0  0  0  0  0  0
  187.8420  177.2100  137.7110 C   0  0  1  0  0  3  0  0  0  0  0  0
  186.3980  177.5800  137.3500 C   0  0  0  0  0  2  0  0  0  0  0  0
  188.5340  176.3320  136.6470 C   0  0  1  0  0  3  0  0  0  0  0  0
  190.7030  175.1040  136.7820 C   0  0  0  0  0  1  0  0  0  0  0  0
  189.2970  175.2140  137.3410 C   0  0  0  0  0  2  0  0  0  0  0  0
  188.2480  176.6210  143.6510 C   0  0  0  0  0  2  0  0  0  0  0  0
  187.6730  178.1310  147.6300 C   0  0  0  0  0  3  0  0  0  0  0  0
  188.0450  177.1340  145.0420 C   0  0  0  0  0  0  0  0  0  0  0  0
  189.1200  177.1800  145.9370 C   0  0  0  0  0  3  0  0  0  0  0  0
  188.9330  177.6770  147.2310 C   0  0  0  0  0  3  0  0  0  0  0  0
  186.5990  178.0870  146.7360 C   0  0  0  0  0  3  0  0  0  0  0  0
  186.7850  177.5900  145.4430 C   0  0  0  0  0  3  0  0  0  0  0  0
  1 21  1  1  0  0  0
  2  1  1  0  0  0  0
  3  7  1  1  0  0  0
  3  6  1  0  0  0  0
  4 10  1  0  0  0  0
  5  4  1  0  0  0  0
  6  1  1  0  0  0  0
  7  2  1  0  0  0  0
  8 11  1  0  0  0  0
  8  4  2  0  0  0  0
 10  6  1  0  0  0  0
 10  9  2  0  0  0  0
 11 12  1  6  0  0  0
 11  3  1  0  0  0  0
 13 14  1  0  0  0  0
 13 18  1  0  0  0  0
 14 15  2  0  0  0  0
 15 17  1  0  0  0  0
 16 12  1  6  0  0  0
 17 16  1  0  0  0  0
 18 20  1  1  0  0  0
 18 16  1  0  0  0  0
 19 20  1  0  0  0  0
 21 23  1  0  0  0  0
 23 27  2  0  0  0  0
 23 24  1  0  0  0  0
 24 25  2  0  0  0  0
 25 22  1  0  0  0  0
 26 22  2  0  0  0  0
 27 26  1  0  0  0  0
M  END
>  <MODEL>
7

>  <REMARK>
 VINA RESULT:      -8.0      2.161      7.925
  Name = 
  5 active torsions:
  status: ('A' for Active; 'I' for Inactive)
    1  A    between atoms: C_1  and  C_15
    2  A    between atoms: C_9  and  C_15
    3  A    between atoms: C_12  and  C_14
    4  A    between atoms: C_12  and  C_26
    5  A    between atoms: C_17  and  C_21
                            x       y       z     vdW  Elec       q    Type
                         _______ _______ _______ _____ _____    ______ ____

>  <TORSDO>
F 5

$$$$
=
 OpenBabel10272401153D

 27 30  0  0  1  0  0  0  0  0999 V2000
  190.0160  177.4460  142.3270 C   0  0  2  0  0  3  0  0  0  0  0  0
  191.3000  177.0680  141.8930 O   0  0  0  0  0  0  0  0  0  0  0  0
  190.2460  177.7590  140.0750 C   0  0  1  0  0  3  0  0  0  0  0  0
  187.4050  178.2270  139.6770 C   0  0  0  0  0  0  0  0  0  0  0  0
  186.1360  178.7320  139.4290 O   0  0  0  0  0  1  0  0  0  0  0  0
  189.3690  178.0080  141.1820 N   0  0  0  0  0  0  0  0  0  0  0  0
  191.2320  176.8850  140.5680 O   0  0  0  0  0  0  0  0  0  0  0  0
  188.1380  177.7360  138.6740 C   0  0  0  0  0  3  0  0  0  0  0  0
  187.2390  178.4800  142.0340 O   0  0  0  0  0  0  0  0  0  0  0  0
  187.9670  178.2480  141.0320 C   0  0  0  0  0  0  0  0  0  0  0  0
  189.4830  177.0940  138.9130 C   0  0  1  0  0  3  0  0  0  0  0  0
  190.2950  177.1430  137.6270 C   0  0  0  0  0  2  0  0  0  0  0  0
  191.5300  174.7250  135.0160 C   0  0  0  0  0  2  0  0  0  0  0  0
  191.2250  173.4270  135.7110 C   0  0  0  0  0  3  0  0  0  0  0  0
  190.3880  173.4220  136.7540 C   0  0  0  0  0  3  0  0  0  0  0  0
  190.8910  175.7830  137.2960 C   0  0  1  0  0  3  0  0  0  0  0  0
  189.7910  174.7170  137.2160 C   0  0  0  0  0  2  0  0  0  0  0  0
  191.7450  175.8820  136.0130 C   0  0  1  0  0  3  0  0  0  0  0  0
  193.4230  175.5330  137.8270 C   0  0  0  0  0  1  0  0  0  0  0  0
  193.2120  175.9960  136.3980 C   0  0  0  0  0  2  0  0  0  0  0  0
  190.1140  178.4660  143.4650 C   0  0  0  0  0  2  0  0  0  0  0  0
  189.2330  176.8040  147.3260 C   0  0  0  0  0  3  0  0  0  0  0  0
  189.8060  177.8740  144.8050 C   0  0  0  0  0  0  0  0  0  0  0  0
  190.8330  177.3370  145.5880 C   0  0  0  0  0  3  0  0  0  0  0  0
  190.5470  176.8010  146.8480 C   0  0  0  0  0  3  0  0  0  0  0  0
  188.2060  177.3420  146.5450 C   0  0  0  0  0  3  0  0  0  0  0  0
  188.4920  177.8770  145.2860 C   0  0  0  0  0  3  0  0  0  0  0  0
  1 21  1  1  0  0  0
  2  1  1  0  0  0  0
  3  7  1  1  0  0  0
  3  6  1  0  0  0  0
  4 10  1  0  0  0  0
  5  4  1  0  0  0  0
  6  1  1  0  0  0  0
  7  2  1  0  0  0  0
  8 11  1  0  0  0  0
  8  4  2  0  0  0  0
 10  6  1  0  0  0  0
 10  9  2  0  0  0  0
 11 12  1  6  0  0  0
 11  3  1  0  0  0  0
 13 14  1  0  0  0  0
 13 18  1  0  0  0  0
 14 15  2  0  0  0  0
 15 17  1  0  0  0  0
 16 12  1  6  0  0  0
 17 16  1  0  0  0  0
 18 20  1  1  0  0  0
 18 16  1  0  0  0  0
 20 19  1  0  0  0  0
 21 23  1  0  0  0  0
 23 27  2  0  0  0  0
 23 24  1  0  0  0  0
 24 25  2  0  0  0  0
 25 22  1  0  0  0  0
 26 22  2  0  0  0  0
 27 26  1  0  0  0  0
M  END
>  <MODEL>
8

>  <REMARK>
 VINA RESULT:      -7.9      1.529      7.688
  Name = 
  5 active torsions:
  status: ('A' for Active; 'I' for Inactive)
    1  A    between atoms: C_1  and  C_15
    2  A    between atoms: C_9  and  C_15
    3  A    between atoms: C_12  and  C_14
    4  A    between atoms: C_12  and  C_26
    5  A    between atoms: C_17  and  C_21
                            x       y       z     vdW  Elec       q    Type
                         _______ _______ _______ _____ _____    ______ ____

>  <TORSDO>
F 5

$$$$
=
 OpenBabel10272401153D

 27 30  0  0  1  0  0  0  0  0999 V2000
  186.7370  177.4120  144.7950 C   0  0  2  0  0  3  0  0  0  0  0  0
  187.6320  177.1770  143.7350 O   0  0  0  0  0  0  0  0  0  0  0  0
  185.9960  178.3840  142.8640 C   0  0  1  0  0  3  0  0  0  0  0  0
  183.3680  178.9600  143.9620 C   0  0  0  0  0  0  0  0  0  0  0  0
  182.2040  179.5210  144.4710 O   0  0  0  0  0  1  0  0  0  0  0  0
  185.7400  178.2930  144.2720 N   0  0  0  0  0  0  0  0  0  0  0  0
  186.9640  177.3990  142.5960 O   0  0  0  0  0  0  0  0  0  0  0  0
  183.5070  178.7890  142.6450 C   0  0  0  0  0  3  0  0  0  0  0  0
  184.2920  178.4960  146.1010 O   0  0  0  0  0  0  0  0  0  0  0  0
  184.4650  178.5720  144.8560 C   0  0  0  0  0  0  0  0  0  0  0  0
  184.7150  178.1000  142.0570 C   0  0  1  0  0  3  0  0  0  0  0  0
  184.8770  178.5290  140.6050 C   0  0  0  0  0  2  0  0  0  0  0  0
  182.8570  177.6970  137.5360 C   0  0  0  0  0  2  0  0  0  0  0  0
  181.8430  178.8060  137.5950 C   0  0  0  0  0  3  0  0  0  0  0  0
  182.0750  179.8670  138.3750 C   0  0  0  0  0  3  0  0  0  0  0  0
  183.5370  178.5630  139.8850 C   0  0  1  0  0  3  0  0  0  0  0  0
  183.3330  179.9130  139.1880 C   0  0  0  0  0  2  0  0  0  0  0  0
  183.4250  177.3550  138.9300 C   0  0  1  0  0  3  0  0  0  0  0  0
  181.3870  176.8680  140.2850 C   0  0  0  0  0  1  0  0  0  0  0  0
  182.5970  176.2670  139.5960 C   0  0  0  0  0  2  0  0  0  0  0  0
  187.4690  178.0440  145.9830 C   0  0  0  0  0  2  0  0  0  0  0  0
  191.6060  176.9160  146.2300 C   0  0  0  0  0  3  0  0  0  0  0  0
  188.9080  177.6390  146.0610 C   0  0  0  0  0  0  0  0  0  0  0  0
  189.8040  178.0360  145.0620 C   0  0  0  0  0  3  0  0  0  0  0  0
  191.1520  177.6730  145.1460 C   0  0  0  0  0  3  0  0  0  0  0  0
  190.7110  176.5210  147.2300 C   0  0  0  0  0  3  0  0  0  0  0  0
  189.3650  176.8820  147.1460 C   0  0  0  0  0  3  0  0  0  0  0  0
  1 21  1  1  0  0  0
  2  1  1  0  0  0  0
  3  7  1  6  0  0  0
  3  6  1  0  0  0  0
  4  5  1  0  0  0  0
  4 10  1  0  0  0  0
  6  1  1  0  0  0  0
  6 10  1  0  0  0  0
  7  2  1  0  0  0  0
  8  4  2  0  0  0  0
 10  9  2  0  0  0  0
 11 12  1  6  0  0  0
 11  8  1  0  0  0  0
 11  3  1  0  0  0  0
 13 14  1  0  0  0  0
 13 18  1  0  0  0  0
 14 15  2  0  0  0  0
 15 17  1  0  0  0  0
 16 12  1  6  0  0  0
 17 16  1  0  0  0  0
 18 20  1  1  0  0  0
 18 16  1  0  0  0  0
 20 19  1  0  0  0  0
 21 23  1  0  0  0  0
 22 26  1  0  0  0  0
 23 27  1  0  0  0  0
 24 25  1  0  0  0  0
 24 23  2  0  0  0  0
 25 22  2  0  0  0  0
 27 26  2  0  0  0  0
M  END
>  <MODEL>
9

>  <REMARK>
 VINA RESULT:      -7.9      4.354      7.772
  Name = 
  5 active torsions:
  status: ('A' for Active; 'I' for Inactive)
    1  A    between atoms: C_1  and  C_15
    2  A    between atoms: C_9  and  C_15
    3  A    between atoms: C_12  and  C_14
    4  A    between atoms: C_12  and  C_26
    5  A    between atoms: C_17  and  C_21
                            x       y       z     vdW  Elec       q    Type
                         _______ _______ _______ _____ _____    ______ ____

>  <TORSDO>
F 5

$$$$
