=
 OpenBabel10262423473D

 34 38  0  0  1  0  0  0  0  0999 V2000
  191.1250  176.2760  137.0680 C   0  0  2  0  0  3  0  0  0  0  0  0
  192.9690  176.6970  138.7710 C   0  0  0  0  0  0  0  0  0  0  0  0
  190.6420  177.1310  139.4940 C   0  0  0  0  0  0  0  0  0  0  0  0
  190.6190  178.3220  143.1290 C   0  0  0  0  0  1  0  0  0  0  0  0
  193.8670  176.2310  137.7980 O   0  0  0  0  0  1  0  0  0  0  0  0
  192.5350  177.6630  140.9980 C   0  0  0  0  0  3  0  0  0  0  0  0
  191.5960  176.6050  138.5200 C   0  0  0  0  0  0  0  0  0  0  0  0
  190.1140  177.5840  141.8970 C   0  0  1  0  0  0  0  0  0  0  0  0
  189.2550  177.1650  139.2270 N   0  0  0  0  0  0  0  0  0  0  0  0
  189.5710  176.5280  136.8520 C   0  0  0  0  0  2  0  0  0  0  0  0
  193.4360  177.2950  139.9630 C   0  0  0  0  0  3  0  0  0  0  0  0
  188.9510  178.4320  141.3530 C   0  0  0  0  0  2  0  0  0  0  0  0
  188.2500  177.6160  140.2760 C   0  0  1  0  0  3  0  0  0  0  0  0
  191.1740  177.5560  140.8120 C   0  0  0  0  0  0  0  0  0  0  0  0
  188.7470  176.3220  138.1380 C   0  0  0  0  0  2  0  0  0  0  0  0
  184.6370  179.0020  139.9700 C   0  0  0  0  0  0  0  0  0  0  0  0
  184.4430  178.7760  138.4710 C   0  0  0  0  0  2  0  0  0  0  0  0
  187.0450  178.3310  139.7280 C   0  0  2  0  0  3  0  0  0  0  0  0
  185.6520  178.4530  137.6160 C   0  0  0  0  0  2  0  0  0  0  0  0
  185.9120  178.7890  140.7000 C   0  0  0  0  0  2  0  0  0  0  0  0
  186.6180  177.6080  138.4300 C   0  0  0  0  0  2  0  0  0  0  0  0
  183.5640  179.1280  140.7220 N   0  0  0  0  0  2  0  0  0  0  0  0
  191.5200  175.2210  135.2880 C   0  0  0  0  0  1  0  0  0  0  0  0
  191.5320  175.0100  136.6630 O   0  0  0  0  0  0  0  0  0  0  0  0
  189.6000  176.1530  142.3090 C   0  0  0  0  0  2  0  0  0  0  0  0
  189.1290  176.1900  143.7170 C   0  0  0  0  0  2  0  0  0  0  0  0
  187.7190  176.3270  143.6930 O   0  0  0  0  0  0  0  0  0  0  0  0
  184.8580  178.4130  144.8480 C   0  0  0  0  0  3  0  0  0  0  0  0
  187.1570  177.3000  144.4950 C   0  0  0  0  0  0  0  0  0  0  0  0
  186.1170  178.3150  144.0000 C   0  0  0  0  0  3  0  0  0  0  0  0
  185.9820  178.7920  147.0960 C   0  0  0  0  0  3  0  0  0  0  0  0
  187.2210  178.2140  146.9000 C   0  0  0  0  0  3  0  0  0  0  0  0
  187.6290  177.2880  145.8180 C   0  0  0  0  0  3  0  0  0  0  0  0
  184.8000  178.6140  146.2270 C   0  0  0  0  0  2  0  0  0  0  0  0
  1 24  1  1  0  0  0
  1  7  1  0  0  0  0
  2 11  1  0  0  0  0
  3 14  2  0  0  0  0
  5  2  1  0  0  0  0
  7  2  2  0  0  0  0
  7  3  1  0  0  0  0
  8 25  1  0  0  0  0
  8  4  1  1  0  0  0
  9  3  1  0  0  0  0
  9 13  1  0  0  0  0
 10  1  1  0  0  0  0
 10 15  1  0  0  0  0
 11  6  2  0  0  0  0
 12  8  1  0  0  0  0
 13 12  1  1  0  0  0
 14  6  1  0  0  0  0
 14  8  1  0  0  0  0
 15  9  1  0  0  0  0
 16 20  1  0  0  0  0
 16 22  2  0  0  0  0
 17 16  1  0  0  0  0
 18 21  1  6  0  0  0
 18 13  1  0  0  0  0
 18 20  1  0  0  0  0
 19 21  1  0  0  0  0
 19 17  1  0  0  0  0
 23 24  1  0  0  0  0
 25 26  1  0  0  0  0
 27 26  1  0  0  0  0
 27 29  1  0  0  0  0
 28 34  1  0  0  0  0
 29 33  2  0  0  0  0
 30 29  1  0  0  0  0
 30 28  2  0  0  0  0
 32 31  2  0  0  0  0
 33 32  1  0  0  0  0
 34 31  1  0  0  0  0
M  END
>  <MODEL>
1

>  <REMARK>
 VINA RESULT:      -8.2      0.000      0.000
  Name = 
  6 active torsions:
  status: ('A' for Active; 'I' for Inactive)
    1  A    between atoms: C_1  and  O_19
    2  A    between atoms: O_3  and  C_13
    3  A    between atoms: O_3  and  C_17
    4  A    between atoms: C_12  and  C_28
    5  A    between atoms: C_17  and  C_29
    6  A    between atoms: C_18  and  C_29
                            x       y       z     vdW  Elec       q    Type
                         _______ _______ _______ _____ _____    ______ ____

>  <TORSDO>
F 6

$$$$
=
 OpenBabel10262423473D

 34 38  0  0  1  0  0  0  0  0999 V2000
  187.4880  173.2230  135.4030 C   0  0  2  0  0  3  0  0  0  0  0  0
  189.6360  174.5260  134.9920 C   0  0  0  0  0  0  0  0  0  0  0  0
  187.8590  175.6580  136.2900 C   0  0  0  0  0  0  0  0  0  0  0  0
  189.0300  179.1530  137.3120 C   0  0  0  0  0  1  0  0  0  0  0  0
  190.1180  173.3760  134.3460 O   0  0  0  0  0  1  0  0  0  0  0  0
  189.9250  176.8760  135.6780 C   0  0  0  0  0  3  0  0  0  0  0  0
  188.4070  174.4600  135.6560 C   0  0  0  0  0  0  0  0  0  0  0  0
  188.3140  177.8180  137.4660 C   0  0  1  0  0  0  0  0  0  0  0  0
  186.5690  175.6640  136.8690 N   0  0  0  0  0  0  0  0  0  0  0  0
  186.0090  173.4320  135.9450 C   0  0  0  0  0  2  0  0  0  0  0  0
  190.3500  175.7440  134.9330 C   0  0  0  0  0  3  0  0  0  0  0  0
  186.8240  178.1180  137.2300 C   0  0  0  0  0  2  0  0  0  0  0  0
  186.0360  176.8750  137.6180 C   0  0  1  0  0  3  0  0  0  0  0  0
  188.7380  176.8490  136.3800 C   0  0  0  0  0  0  0  0  0  0  0  0
  185.9470  174.3690  137.1670 C   0  0  0  0  0  2  0  0  0  0  0  0
  182.5750  177.7350  136.0850 C   0  0  0  0  0  0  0  0  0  0  0  0
  181.9760  178.4570  137.2920 C   0  0  0  0  0  2  0  0  0  0  0  0
  184.5530  177.0900  137.4930 C   0  0  2  0  0  3  0  0  0  0  0  0
  182.6660  178.3370  138.6350 C   0  0  0  0  0  2  0  0  0  0  0  0
  183.8800  177.0270  136.0850 C   0  0  0  0  0  2  0  0  0  0  0  0
  184.1690  178.2730  138.4110 C   0  0  0  0  0  2  0  0  0  0  0  0
  182.0560  177.9720  134.8990 N   0  0  0  0  0  2  0  0  0  0  0  0
  187.0510  171.1640  135.4930 C   0  0  0  0  0  1  0  0  0  0  0  0
  188.0700  172.0420  135.8490 O   0  0  0  0  0  0  0  0  0  0  0  0
  188.5340  177.2620  138.9230 C   0  0  0  0  0  2  0  0  0  0  0  0
  188.4280  178.3820  139.8940 C   0  0  0  0  0  2  0  0  0  0  0  0
  188.7610  177.8730  141.1730 O   0  0  0  0  0  0  0  0  0  0  0  0
  187.4460  177.2820  144.6070 C   0  0  0  0  0  3  0  0  0  0  0  0
  187.7340  177.6970  142.0790 C   0  0  0  0  0  0  0  0  0  0  0  0
  187.7870  176.6990  143.2440 C   0  0  0  0  0  3  0  0  0  0  0  0
  185.2190  178.3380  143.9850 C   0  0  0  0  0  3  0  0  0  0  0  0
  185.3650  178.5410  142.6270 C   0  0  0  0  0  3  0  0  0  0  0  0
  186.6170  178.5140  141.8360 C   0  0  0  0  0  3  0  0  0  0  0  0
  186.3080  178.0190  144.9330 C   0  0  0  0  0  2  0  0  0  0  0  0
  1  7  1  0  0  0  0
  1 24  1  1  0  0  0
  1 10  1  0  0  0  0
  2  7  1  0  0  0  0
  3 14  1  0  0  0  0
  3  9  1  0  0  0  0
  5  2  1  0  0  0  0
  6 14  2  0  0  0  0
  7  3  2  0  0  0  0
  8  4  1  6  0  0  0
  8 25  1  0  0  0  0
  9 15  1  0  0  0  0
  9 13  1  0  0  0  0
 10 15  1  0  0  0  0
 11  2  2  0  0  0  0
 11  6  1  0  0  0  0
 12  8  1  0  0  0  0
 13 12  1  6  0  0  0
 14  8  1  0  0  0  0
 16 20  1  0  0  0  0
 16 17  1  0  0  0  0
 17 19  1  0  0  0  0
 18 20  1  6  0  0  0
 18 13  1  0  0  0  0
 18 21  1  0  0  0  0
 21 19  1  0  0  0  0
 22 16  2  0  0  0  0
 23 24  1  0  0  0  0
 25 26  1  0  0  0  0
 26 27  1  0  0  0  0
 27 29  1  0  0  0  0
 28 34  1  0  0  0  0
 29 30  1  0  0  0  0
 30 28  2  0  0  0  0
 31 34  1  0  0  0  0
 32 31  2  0  0  0  0
 33 29  2  0  0  0  0
 33 32  1  0  0  0  0
M  END
>  <MODEL>
2

>  <REMARK>
 VINA RESULT:      -8.0      2.763      4.463
  Name = 
  6 active torsions:
  status: ('A' for Active; 'I' for Inactive)
    1  A    between atoms: C_1  and  O_19
    2  A    between atoms: O_3  and  C_13
    3  A    between atoms: O_3  and  C_17
    4  A    between atoms: C_12  and  C_28
    5  A    between atoms: C_17  and  C_29
    6  A    between atoms: C_18  and  C_29
                            x       y       z     vdW  Elec       q    Type
                         _______ _______ _______ _____ _____    ______ ____

>  <TORSDO>
F 6

$$$$
=
 OpenBabel10262423473D

 34 38  0  0  1  0  0  0  0  0999 V2000
  187.6810  173.0160  135.6140 C   0  0  2  0  0  3  0  0  0  0  0  0
  189.8340  174.3380  135.3060 C   0  0  0  0  0  0  0  0  0  0  0  0
  187.9290  175.5120  136.3610 C   0  0  0  0  0  0  0  0  0  0  0  0
  188.9430  179.0940  137.2400 C   0  0  0  0  0  1  0  0  0  0  0  0
  190.3920  173.1590  134.7850 O   0  0  0  0  0  1  0  0  0  0  0  0
  190.0190  176.7360  135.8520 C   0  0  0  0  0  3  0  0  0  0  0  0
  188.5520  174.2880  135.8620 C   0  0  0  0  0  0  0  0  0  0  0  0
  188.2390  177.7560  137.4220 C   0  0  1  0  0  0  0  0  0  0  0  0
  186.5920  175.5270  136.8220 N   0  0  0  0  0  0  0  0  0  0  0  0
  186.1560  173.2260  136.0080 C   0  0  0  0  0  2  0  0  0  0  0  0
  190.5290  175.5660  135.2270 C   0  0  0  0  0  3  0  0  0  0  0  0
  186.7710  178.0040  137.0350 C   0  0  0  0  0  2  0  0  0  0  0  0
  185.9730  176.7720  137.4370 C   0  0  1  0  0  3  0  0  0  0  0  0
  188.7750  176.7270  136.4460 C   0  0  0  0  0  0  0  0  0  0  0  0
  185.9690  174.2400  137.1530 C   0  0  0  0  0  2  0  0  0  0  0  0
  182.6550  177.5450  135.5750 C   0  0  0  0  0  0  0  0  0  0  0  0
  181.9170  178.2340  136.7230 C   0  0  0  0  0  2  0  0  0  0  0  0
  184.5030  176.9440  137.1670 C   0  0  2  0  0  3  0  0  0  0  0  0
  182.4750  178.1200  138.1270 C   0  0  0  0  0  2  0  0  0  0  0  0
  183.9760  176.8770  135.6980 C   0  0  0  0  0  2  0  0  0  0  0  0
  183.9940  178.1040  138.0520 C   0  0  0  0  0  2  0  0  0  0  0  0
  182.2490  177.7800  134.3460 N   0  0  0  0  0  2  0  0  0  0  0  0
  187.5870  170.9200  135.4270 C   0  0  0  0  0  1  0  0  0  0  0  0
  188.2410  171.8820  136.1900 O   0  0  0  0  0  0  0  0  0  0  0  0
  188.3370  177.3040  138.9280 C   0  0  0  0  0  2  0  0  0  0  0  0
  189.2530  178.2220  139.6540 C   0  0  0  0  0  2  0  0  0  0  0  0
  189.8250  177.4940  140.7270 O   0  0  0  0  0  0  0  0  0  0  0  0
  187.5300  177.0490  143.6260 C   0  0  0  0  0  3  0  0  0  0  0  0
  189.3910  177.7910  142.0040 C   0  0  0  0  0  0  0  0  0  0  0  0
  187.9120  177.8700  142.4040 C   0  0  0  0  0  3  0  0  0  0  0  0
  189.2920  177.9590  145.2180 C   0  0  0  0  0  3  0  0  0  0  0  0
  190.2800  178.3740  144.3480 C   0  0  0  0  0  3  0  0  0  0  0  0
  190.4330  178.0250  142.9160 C   0  0  0  0  0  3  0  0  0  0  0  0
  188.1520  177.0820  144.8740 C   0  0  0  0  0  2  0  0  0  0  0  0
  1  7  1  0  0  0  0
  1 10  1  0  0  0  0
  1 24  1  1  0  0  0
  2  7  1  0  0  0  0
  3 14  1  0  0  0  0
  3  9  1  0  0  0  0
  5  2  1  0  0  0  0
  6 14  2  0  0  0  0
  7  3  2  0  0  0  0
  8  4  1  6  0  0  0
  8 25  1  0  0  0  0
  9 15  1  0  0  0  0
  9 13  1  0  0  0  0
 10 15  1  0  0  0  0
 11  2  2  0  0  0  0
 11  6  1  0  0  0  0
 12  8  1  0  0  0  0
 13 12  1  6  0  0  0
 14  8  1  0  0  0  0
 16 20  1  0  0  0  0
 16 17  1  0  0  0  0
 17 19  1  0  0  0  0
 18 20  1  6  0  0  0
 18 13  1  0  0  0  0
 18 21  1  0  0  0  0
 21 19  1  0  0  0  0
 22 16  2  0  0  0  0
 23 24  1  0  0  0  0
 25 26  1  0  0  0  0
 26 27  1  0  0  0  0
 27 29  1  0  0  0  0
 28 34  1  0  0  0  0
 29 30  1  0  0  0  0
 29 33  2  0  0  0  0
 30 28  2  0  0  0  0
 32 31  2  0  0  0  0
 33 32  1  0  0  0  0
 34 31  1  0  0  0  0
M  END
>  <MODEL>
3

>  <REMARK>
 VINA RESULT:      -7.6      2.846      4.564
  Name = 
  6 active torsions:
  status: ('A' for Active; 'I' for Inactive)
    1  A    between atoms: C_1  and  O_19
    2  A    between atoms: O_3  and  C_13
    3  A    between atoms: O_3  and  C_17
    4  A    between atoms: C_12  and  C_28
    5  A    between atoms: C_17  and  C_29
    6  A    between atoms: C_18  and  C_29
                            x       y       z     vdW  Elec       q    Type
                         _______ _______ _______ _____ _____    ______ ____

>  <TORSDO>
F 6

$$$$
=
 OpenBabel10262423473D

 34 38  0  0  1  0  0  0  0  0999 V2000
  185.7530  177.3810  137.6720 C   0  0  2  0  0  3  0  0  0  0  0  0
  183.4960  176.4160  136.9990 C   0  0  0  0  0  0  0  0  0  0  0  0
  183.6070  177.6350  139.1490 C   0  0  0  0  0  0  0  0  0  0  0  0
  180.1530  177.6750  140.7920 C   0  0  0  0  0  1  0  0  0  0  0  0
  184.1180  175.9940  135.8120 O   0  0  0  0  0  1  0  0  0  0  0  0
  181.5150  176.5050  138.4630 C   0  0  0  0  0  3  0  0  0  0  0  0
  184.2140  177.2280  137.8830 C   0  0  0  0  0  0  0  0  0  0  0  0
  181.5190  178.2190  140.3950 C   0  0  1  0  0  0  0  0  0  0  0  0
  184.3380  178.3550  140.1210 N   0  0  0  0  0  0  0  0  0  0  0  0
  186.4830  178.0440  138.9180 C   0  0  0  0  0  2  0  0  0  0  0  0
  182.1880  175.9910  137.3230 C   0  0  0  0  0  3  0  0  0  0  0  0
  182.3910  178.1120  141.6590 C   0  0  0  0  0  2  0  0  0  0  0  0
  183.6830  178.8700  141.3930 C   0  0  1  0  0  3  0  0  0  0  0  0
  182.1670  177.3390  139.3460 C   0  0  0  0  0  0  0  0  0  0  0  0
  185.5760  179.0180  139.6940 C   0  0  0  0  0  2  0  0  0  0  0  0
  186.3700  177.7880  143.9780 C   0  0  0  0  0  0  0  0  0  0  0  0
  185.6500  178.2490  145.2460 C   0  0  0  0  0  2  0  0  0  0  0  0
  184.5800  178.8880  142.6010 C   0  0  2  0  0  3  0  0  0  0  0  0
  184.4490  179.1630  145.1160 C   0  0  0  0  0  2  0  0  0  0  0  0
  185.8980  178.0500  142.5950 C   0  0  0  0  0  2  0  0  0  0  0  0
  183.6830  178.7910  143.8560 C   0  0  0  0  0  2  0  0  0  0  0  0
  187.3110  176.8750  144.0960 N   0  0  0  0  0  2  0  0  0  0  0  0
  187.3490  177.5290  136.3040 C   0  0  0  0  0  1  0  0  0  0  0  0
  186.0530  178.0080  136.4680 O   0  0  0  0  0  0  0  0  0  0  0  0
  181.3830  179.7260  139.9540 C   0  0  0  0  0  2  0  0  0  0  0  0
  180.4890  179.8090  138.7700 C   0  0  0  0  0  2  0  0  0  0  0  0
  181.2410  180.3630  137.7050 O   0  0  0  0  0  0  0  0  0  0  0  0
  181.2400  184.0680  137.3330 C   0  0  0  0  0  3  0  0  0  0  0  0
  180.7840  181.5380  137.1420 C   0  0  0  0  0  0  0  0  0  0  0  0
  180.5790  182.8370  137.9330 C   0  0  0  0  0  2  0  0  0  0  0  0
  180.2650  183.8790  134.9930 C   0  0  0  0  0  3  0  0  0  0  0  0
  180.0020  182.5260  134.8980 C   0  0  0  0  0  3  0  0  0  0  0  0
  180.5120  181.4410  135.7680 C   0  0  0  0  0  3  0  0  0  0  0  0
  181.1070  184.5250  136.0220 C   0  0  0  0  0  3  0  0  0  0  0  0
  1 24  1  6  0  0  0
  1  7  1  0  0  0  0
  1 10  1  0  0  0  0
  2 11  2  0  0  0  0
  2  7  1  0  0  0  0
  3 14  1  0  0  0  0
  3  9  1  0  0  0  0
  5  2  1  0  0  0  0
  6 14  2  0  0  0  0
  7  3  2  0  0  0  0
  8  4  1  1  0  0  0
  8 12  1  0  0  0  0
  9 13  1  0  0  0  0
 10 15  1  0  0  0  0
 11  6  1  0  0  0  0
 13 12  1  1  0  0  0
 13 18  1  0  0  0  0
 14  8  1  0  0  0  0
 15  9  1  0  0  0  0
 16 22  2  0  0  0  0
 16 17  1  0  0  0  0
 18 20  1  6  0  0  0
 18 21  1  0  0  0  0
 19 17  1  0  0  0  0
 20 16  1  0  0  0  0
 21 19  1  0  0  0  0
 23 24  1  0  0  0  0
 25  8  1  0  0  0  0
 26 25  1  0  0  0  0
 27 26  1  0  0  0  0
 28 30  1  0  0  0  0
 29 27  1  0  0  0  0
 29 30  1  0  0  0  0
 31 34  1  0  0  0  0
 32 31  2  0  0  0  0
 32 33  1  0  0  0  0
 33 29  2  0  0  0  0
 34 28  2  0  0  0  0
M  END
>  <MODEL>
4

>  <REMARK>
 VINA RESULT:      -7.5      4.326      8.761
  Name = 
  6 active torsions:
  status: ('A' for Active; 'I' for Inactive)
    1  A    between atoms: C_1  and  O_19
    2  A    between atoms: O_3  and  C_13
    3  A    between atoms: O_3  and  C_17
    4  A    between atoms: C_12  and  C_28
    5  A    between atoms: C_17  and  C_29
    6  A    between atoms: C_18  and  C_29
                            x       y       z     vdW  Elec       q    Type
                         _______ _______ _______ _____ _____    ______ ____

>  <TORSDO>
F 6

$$$$
=
 OpenBabel10262423473D

 34 38  0  0  1  0  0  0  0  0999 V2000
  186.2580  178.4130  140.3260 C   0  0  2  0  0  3  0  0  0  0  0  0
  186.2890  177.5140  142.7080 C   0  0  0  0  0  0  0  0  0  0  0  0
  188.3980  177.3770  141.4210 C   0  0  0  0  0  0  0  0  0  0  0  0
  191.1330  175.8040  143.5840 C   0  0  0  0  0  1  0  0  0  0  0  0
  184.9530  177.9380  142.8020 O   0  0  0  0  0  1  0  0  0  0  0  0
  188.2520  176.3850  143.6840 C   0  0  0  0  0  3  0  0  0  0  0  0
  187.0240  177.8520  141.5660 C   0  0  0  0  0  0  0  0  0  0  0  0
  190.5420  176.7480  142.5450 C   0  0  1  0  0  0  0  0  0  0  0  0
  189.1340  177.5960  140.2340 N   0  0  0  0  0  0  0  0  0  0  0  0
  187.1490  178.4370  139.0110 C   0  0  0  0  0  2  0  0  0  0  0  0
  186.8710  176.7190  143.7210 C   0  0  0  0  0  3  0  0  0  0  0  0
  190.9420  176.1620  141.1790 C   0  0  0  0  0  2  0  0  0  0  0  0
  190.5970  177.1950  140.1160 C   0  0  1  0  0  3  0  0  0  0  0  0
  189.0270  176.7280  142.5970 C   0  0  0  0  0  0  0  0  0  0  0  0
  188.6490  178.6250  139.3080 C   0  0  0  0  0  2  0  0  0  0  0  0
  191.0250  174.9850  136.9530 C   0  0  0  0  0  0  0  0  0  0  0  0
  192.4750  175.3470  136.6290 C   0  0  0  0  0  2  0  0  0  0  0  0
  191.0180  176.7480  138.7430 C   0  0  2  0  0  3  0  0  0  0  0  0
  193.1060  176.5380  137.3220 C   0  0  0  0  0  2  0  0  0  0  0  0
  190.2100  175.6270  138.0150 C   0  0  0  0  0  2  0  0  0  0  0  0
  192.5590  176.6280  138.7390 C   0  0  0  0  0  2  0  0  0  0  0  0
  190.5430  173.8630  136.4640 N   0  0  0  0  0  2  0  0  0  0  0  0
  184.4970  179.4630  139.8430 C   0  0  0  0  0  1  0  0  0  0  0  0
  185.6540  179.6350  140.5970 O   0  0  0  0  0  0  0  0  0  0  0  0
  191.1580  178.1860  142.7230 C   0  0  0  0  0  2  0  0  0  0  0  0
  191.3730  178.4500  144.1690 C   0  0  0  0  0  2  0  0  0  0  0  0
  190.1550  178.9410  144.7000 O   0  0  0  0  0  0  0  0  0  0  0  0
  190.3900  177.7500  148.2210 C   0  0  0  0  0  3  0  0  0  0  0  0
  189.6440  178.3120  145.8180 C   0  0  0  0  0  0  0  0  0  0  0  0
  190.4740  177.4100  146.7420 C   0  0  0  0  0  3  0  0  0  0  0  0
  187.8560  177.7410  148.4350 C   0  0  0  0  0  3  0  0  0  0  0  0
  187.4570  178.0220  147.1430 C   0  0  0  0  0  3  0  0  0  0  0  0
  188.2800  178.5650  146.0370 C   0  0  0  0  0  3  0  0  0  0  0  0
  189.2240  177.9080  148.9710 C   0  0  0  0  0  2  0  0  0  0  0  0
  1 24  1  1  0  0  0
  1  7  1  0  0  0  0
  2  5  1  0  0  0  0
  2 11  1  0  0  0  0
  3  7  1  0  0  0  0
  3 14  2  0  0  0  0
  6 11  2  0  0  0  0
  7  2  2  0  0  0  0
  8 14  1  0  0  0  0
  8 25  1  0  0  0  0
  8  4  1  1  0  0  0
  9  3  1  0  0  0  0
 10 15  1  0  0  0  0
 10  1  1  0  0  0  0
 12  8  1  0  0  0  0
 13  9  1  0  0  0  0
 13 12  1  1  0  0  0
 14  6  1  0  0  0  0
 15  9  1  0  0  0  0
 16 20  1  0  0  0  0
 17 16  1  0  0  0  0
 17 19  1  0  0  0  0
 18 20  1  1  0  0  0
 18 13  1  0  0  0  0
 19 21  1  0  0  0  0
 21 18  1  0  0  0  0
 22 16  2  0  0  0  0
 23 24  1  0  0  0  0
 25 26  1  0  0  0  0
 26 27  1  0  0  0  0
 27 29  1  0  0  0  0
 28 34  1  0  0  0  0
 29 33  2  0  0  0  0
 29 30  1  0  0  0  0
 30 28  2  0  0  0  0
 31 34  1  0  0  0  0
 32 31  2  0  0  0  0
 33 32  1  0  0  0  0
M  END
>  <MODEL>
5

>  <REMARK>
 VINA RESULT:      -7.3      2.681      5.641
  Name = 
  6 active torsions:
  status: ('A' for Active; 'I' for Inactive)
    1  A    between atoms: C_1  and  O_19
    2  A    between atoms: O_3  and  C_13
    3  A    between atoms: O_3  and  C_17
    4  A    between atoms: C_12  and  C_28
    5  A    between atoms: C_17  and  C_29
    6  A    between atoms: C_18  and  C_29
                            x       y       z     vdW  Elec       q    Type
                         _______ _______ _______ _____ _____    ______ ____

>  <TORSDO>
F 6

$$$$
=
 OpenBabel10262423473D

 34 38  0  0  1  0  0  0  0  0999 V2000
  188.4990  178.1160  139.2810 C   0  0  2  0  0  3  0  0  0  0  0  0
  186.7100  177.7700  137.5040 C   0  0  0  0  0  0  0  0  0  0  0  0
  188.6820  176.2780  137.4260 C   0  0  0  0  0  0  0  0  0  0  0  0
  188.3250  173.8140  134.5210 C   0  0  0  0  0  1  0  0  0  0  0  0
  185.9860  178.7880  138.1460 O   0  0  0  0  0  1  0  0  0  0  0  0
  186.9560  176.1570  135.6560 C   0  0  0  0  0  3  0  0  0  0  0  0
  187.8830  177.2990  138.1010 C   0  0  0  0  0  0  0  0  0  0  0  0
  188.7160  174.2840  135.9160 C   0  0  1  0  0  0  0  0  0  0  0  0
  189.9320  175.8600  137.9360 N   0  0  0  0  0  0  0  0  0  0  0  0
  189.9800  177.6630  139.6370 C   0  0  0  0  0  2  0  0  0  0  0  0
  186.2930  177.2620  136.2530 C   0  0  0  0  0  3  0  0  0  0  0  0
  190.2390  174.5020  135.8680 C   0  0  0  0  0  2  0  0  0  0  0  0
  190.7180  174.7270  137.2950 C   0  0  1  0  0  3  0  0  0  0  0  0
  188.0960  175.6320  136.2260 C   0  0  0  0  0  0  0  0  0  0  0  0
  190.2390  176.1740  139.3360 C   0  0  0  0  0  2  0  0  0  0  0  0
  194.3150  175.9730  136.5340 C   0  0  0  0  0  0  0  0  0  0  0  0
  195.0420  174.6340  136.6680 C   0  0  0  0  0  2  0  0  0  0  0  0
  192.2130  174.8780  137.3660 C   0  0  2  0  0  3  0  0  0  0  0  0
  194.3150  173.4660  137.3010 C   0  0  0  0  0  2  0  0  0  0  0  0
  192.8810  176.1920  136.8480 C   0  0  0  0  0  2  0  0  0  0  0  0
  192.8440  173.5390  136.9220 C   0  0  0  0  0  2  0  0  0  0  0  0
  194.9000  176.9300  135.8460 N   0  0  0  0  0  2  0  0  0  0  0  0
  188.6080  178.4500  141.3580 C   0  0  0  0  0  1  0  0  0  0  0  0
  187.6580  178.1460  140.3870 O   0  0  0  0  0  0  0  0  0  0  0  0
  188.3580  173.1710  136.9710 C   0  0  0  0  0  2  0  0  0  0  0  0
  187.0370  172.5830  136.6320 C   0  0  0  0  0  2  0  0  0  0  0  0
  186.1780  172.7920  137.7390 O   0  0  0  0  0  0  0  0  0  0  0  0
  183.4280  174.9960  136.5370 C   0  0  0  0  0  3  0  0  0  0  0  0
  184.8500  173.0630  137.4780 C   0  0  0  0  0  0  0  0  0  0  0  0
  184.1950  174.4300  137.7210 C   0  0  0  0  0  2  0  0  0  0  0  0
  181.9470  172.9790  136.0860 C   0  0  0  0  0  3  0  0  0  0  0  0
  182.7000  171.9460  136.6080 C   0  0  0  0  0  3  0  0  0  0  0  0
  184.1370  171.9640  136.9710 C   0  0  0  0  0  3  0  0  0  0  0  0
  182.4360  174.3460  135.8030 C   0  0  0  0  0  3  0  0  0  0  0  0
  1 10  1  0  0  0  0
  1 24  1  1  0  0  0
  2  7  1  0  0  0  0
  2  5  1  0  0  0  0
  3  9  1  0  0  0  0
  3  7  2  0  0  0  0
  6 14  2  0  0  0  0
  6 11  1  0  0  0  0
  7  1  1  0  0  0  0
  8  4  1  6  0  0  0
  8 14  1  0  0  0  0
  8 25  1  0  0  0  0
  9 15  1  0  0  0  0
 11  2  2  0  0  0  0
 12  8  1  0  0  0  0
 13 12  1  6  0  0  0
 13 18  1  0  0  0  0
 13  9  1  0  0  0  0
 14  3  1  0  0  0  0
 15 10  1  0  0  0  0
 16 17  1  0  0  0  0
 16 20  1  0  0  0  0
 17 19  1  0  0  0  0
 18 20  1  6  0  0  0
 21 19  1  0  0  0  0
 21 18  1  0  0  0  0
 22 16  2  0  0  0  0
 24 23  1  0  0  0  0
 26 25  1  0  0  0  0
 26 27  1  0  0  0  0
 28 30  1  0  0  0  0
 29 30  1  0  0  0  0
 29 27  1  0  0  0  0
 31 32  2  0  0  0  0
 32 33  1  0  0  0  0
 33 29  2  0  0  0  0
 34 31  1  0  0  0  0
 34 28  2  0  0  0  0
M  END
>  <MODEL>
6

>  <REMARK>
 VINA RESULT:      -7.3      3.786      8.180
  Name = 
  6 active torsions:
  status: ('A' for Active; 'I' for Inactive)
    1  A    between atoms: C_1  and  O_19
    2  A    between atoms: O_3  and  C_13
    3  A    between atoms: O_3  and  C_17
    4  A    between atoms: C_12  and  C_28
    5  A    between atoms: C_17  and  C_29
    6  A    between atoms: C_18  and  C_29
                            x       y       z     vdW  Elec       q    Type
                         _______ _______ _______ _____ _____    ______ ____

>  <TORSDO>
F 6

$$$$
=
 OpenBabel10262423473D

 34 38  0  0  1  0  0  0  0  0999 V2000
  184.9290  178.7480  143.0040 C   0  0  2  0  0  3  0  0  0  0  0  0
  186.3350  177.2480  144.5040 C   0  0  0  0  0  0  0  0  0  0  0  0
  187.2240  177.7410  142.2490 C   0  0  0  0  0  0  0  0  0  0  0  0
  190.6020  176.0070  141.7830 C   0  0  0  0  0  1  0  0  0  0  0  0
  185.3580  177.4520  145.4930 O   0  0  0  0  0  1  0  0  0  0  0  0
  188.4110  176.1600  143.7390 C   0  0  0  0  0  3  0  0  0  0  0  0
  186.2500  177.9750  143.3130 C   0  0  0  0  0  0  0  0  0  0  0  0
  189.5650  177.1130  141.6330 C   0  0  1  0  0  0  0  0  0  0  0  0
  187.1060  178.3670  140.9870 N   0  0  0  0  0  0  0  0  0  0  0  0
  184.8440  179.2440  141.4970 C   0  0  0  0  0  2  0  0  0  0  0  0
  187.3580  176.2890  144.6830 C   0  0  0  0  0  3  0  0  0  0  0  0
  189.0210  176.9780  140.2000 C   0  0  0  0  0  2  0  0  0  0  0  0
  188.1700  178.2070  139.9130 C   0  0  1  0  0  3  0  0  0  0  0  0
  188.3920  176.8830  142.5650 C   0  0  0  0  0  0  0  0  0  0  0  0
  186.2270  179.5380  140.8850 C   0  0  0  0  0  2  0  0  0  0  0  0
  186.0650  177.2830  136.7840 C   0  0  0  0  0  0  0  0  0  0  0  0
  187.1770  177.3780  135.7390 C   0  0  0  0  0  2  0  0  0  0  0  0
  187.6470  178.2090  138.5030 C   0  0  2  0  0  3  0  0  0  0  0  0
  188.4860  178.0400  136.1180 C   0  0  0  0  0  2  0  0  0  0  0  0
  186.2120  177.6660  138.2110 C   0  0  0  0  0  2  0  0  0  0  0  0
  188.7880  177.7310  137.5760 C   0  0  0  0  0  2  0  0  0  0  0  0
  184.9980  176.5720  136.4920 N   0  0  0  0  0  2  0  0  0  0  0  0
  183.3250  179.5670  144.0960 C   0  0  0  0  0  1  0  0  0  0  0  0
  184.6910  179.7610  143.9250 O   0  0  0  0  0  0  0  0  0  0  0  0
  190.2550  178.5160  141.8240 C   0  0  0  0  0  2  0  0  0  0  0  0
  191.6050  178.3210  142.4110 C   0  0  0  0  0  2  0  0  0  0  0  0
  191.5700  178.8140  143.7390 O   0  0  0  0  0  0  0  0  0  0  0  0
  191.9820  176.1860  146.3450 C   0  0  0  0  0  3  0  0  0  0  0  0
  191.0830  177.9750  144.7210 C   0  0  0  0  0  0  0  0  0  0  0  0
  191.5650  176.5320  144.9250 C   0  0  0  0  0  3  0  0  0  0  0  0
  189.8670  176.9610  147.5260 C   0  0  0  0  0  3  0  0  0  0  0  0
  189.3750  177.9050  146.6460 C   0  0  0  0  0  3  0  0  0  0  0  0
  190.0890  178.5590  145.5250 C   0  0  0  0  0  3  0  0  0  0  0  0
  191.2300  176.3870  147.5030 C   0  0  0  0  0  2  0  0  0  0  0  0
  1  7  1  0  0  0  0
  1 24  1  1  0  0  0
  2 11  1  0  0  0  0
  2  5  1  0  0  0  0
  3 14  2  0  0  0  0
  3  7  1  0  0  0  0
  6 11  2  0  0  0  0
  7  2  2  0  0  0  0
  8  4  1  1  0  0  0
  8 25  1  0  0  0  0
  8 14  1  0  0  0  0
  9  3  1  0  0  0  0
 10  1  1  0  0  0  0
 12  8  1  0  0  0  0
 13 12  1  1  0  0  0
 13  9  1  0  0  0  0
 14  6  1  0  0  0  0
 15  9  1  0  0  0  0
 15 10  1  0  0  0  0
 16 20  1  0  0  0  0
 17 19  1  0  0  0  0
 17 16  1  0  0  0  0
 18 21  1  6  0  0  0
 18 13  1  0  0  0  0
 19 21  1  0  0  0  0
 20 18  1  0  0  0  0
 22 16  2  0  0  0  0
 24 23  1  0  0  0  0
 25 26  1  0  0  0  0
 26 27  1  0  0  0  0
 27 29  1  0  0  0  0
 28 34  1  0  0  0  0
 29 30  1  0  0  0  0
 29 33  2  0  0  0  0
 30 28  2  0  0  0  0
 32 31  2  0  0  0  0
 33 32  1  0  0  0  0
 34 31  1  0  0  0  0
M  END
>  <MODEL>
7

>  <REMARK>
 VINA RESULT:      -6.8      2.788      5.825
  Name = 
  6 active torsions:
  status: ('A' for Active; 'I' for Inactive)
    1  A    between atoms: C_1  and  O_19
    2  A    between atoms: O_3  and  C_13
    3  A    between atoms: O_3  and  C_17
    4  A    between atoms: C_12  and  C_28
    5  A    between atoms: C_17  and  C_29
    6  A    between atoms: C_18  and  C_29
                            x       y       z     vdW  Elec       q    Type
                         _______ _______ _______ _____ _____    ______ ____

>  <TORSDO>
F 6

$$$$
=
 OpenBabel10262423473D

 34 38  0  0  1  0  0  0  0  0999 V2000
  189.1740  178.0140  140.1120 C   0  0  2  0  0  3  0  0  0  0  0  0
  187.2280  177.9750  138.4720 C   0  0  0  0  0  0  0  0  0  0  0  0
  189.2270  176.6410  137.8840 C   0  0  0  0  0  0  0  0  0  0  0  0
  188.6580  174.8600  134.5470 C   0  0  0  0  0  1  0  0  0  0  0  0
  186.5410  178.7880  139.3890 O   0  0  0  0  0  1  0  0  0  0  0  0
  187.3370  176.8220  136.2960 C   0  0  0  0  0  3  0  0  0  0  0  0
  188.4690  177.4460  138.8400 C   0  0  0  0  0  0  0  0  0  0  0  0
  189.1720  175.0320  135.9700 C   0  0  1  0  0  0  0  0  0  0  0  0
  190.5350  176.1870  138.1730 N   0  0  0  0  0  0  0  0  0  0  0  0
  190.6970  177.5730  140.2220 C   0  0  0  0  0  2  0  0  0  0  0  0
  186.7040  177.7330  137.1820 C   0  0  0  0  0  3  0  0  0  0  0  0
  190.6750  175.3340  135.8340 C   0  0  0  0  0  2  0  0  0  0  0  0
  191.2870  175.2650  137.2260 C   0  0  1  0  0  3  0  0  0  0  0  0
  188.5450  176.2450  136.6280 C   0  0  0  0  0  0  0  0  0  0  0  0
  190.9700  176.2010  139.5740 C   0  0  0  0  0  2  0  0  0  0  0  0
  194.8770  175.8430  135.8670 C   0  0  0  0  0  0  0  0  0  0  0  0
  195.6260  174.9290  136.8360 C   0  0  0  0  0  2  0  0  0  0  0  0
  192.7760  175.4740  137.1940 C   0  0  2  0  0  3  0  0  0  0  0  0
  194.9070  174.4190  138.0680 C   0  0  0  0  0  2  0  0  0  0  0  0
  193.4310  176.1670  135.9570 C   0  0  0  0  0  2  0  0  0  0  0  0
  193.4450  174.1840  137.7210 C   0  0  0  0  0  2  0  0  0  0  0  0
  195.4600  176.1520  134.7290 N   0  0  0  0  0  2  0  0  0  0  0  0
  189.4400  178.0420  142.2010 C   0  0  0  0  0  1  0  0  0  0  0  0
  188.4480  177.7580  141.2680 O   0  0  0  0  0  0  0  0  0  0  0  0
  188.9550  173.6970  136.7780 C   0  0  0  0  0  2  0  0  0  0  0  0
  187.8710  172.9090  136.1360 C   0  0  0  0  0  2  0  0  0  0  0  0
  186.7770  172.8760  137.0360 O   0  0  0  0  0  0  0  0  0  0  0  0
  184.6350  170.2640  135.4680 C   0  0  0  0  0  3  0  0  0  0  0  0
  185.5700  172.4050  136.5580 C   0  0  0  0  0  0  0  0  0  0  0  0
  185.4310  171.5470  135.2930 C   0  0  0  0  0  3  0  0  0  0  0  0
  182.5500  171.2890  136.5020 C   0  0  0  0  0  3  0  0  0  0  0  0
  183.0480  172.4460  137.0680 C   0  0  0  0  0  3  0  0  0  0  0  0
  184.4640  172.7880  137.3350 C   0  0  0  0  0  3  0  0  0  0  0  0
  183.3570  170.1500  136.0160 C   0  0  0  0  0  2  0  0  0  0  0  0
  1 10  1  0  0  0  0
  1 24  1  1  0  0  0
  2  7  1  0  0  0  0
  2  5  1  0  0  0  0
  3  9  1  0  0  0  0
  3  7  2  0  0  0  0
  6 14  2  0  0  0  0
  6 11  1  0  0  0  0
  7  1  1  0  0  0  0
  8  4  1  6  0  0  0
  8 14  1  0  0  0  0
  8 25  1  0  0  0  0
  9 15  1  0  0  0  0
 11  2  2  0  0  0  0
 12  8  1  0  0  0  0
 13 12  1  6  0  0  0
 13  9  1  0  0  0  0
 14  3  1  0  0  0  0
 15 10  1  0  0  0  0
 16 20  1  0  0  0  0
 16 17  1  0  0  0  0
 17 19  1  0  0  0  0
 18 20  1  6  0  0  0
 18 13  1  0  0  0  0
 18 21  1  0  0  0  0
 21 19  1  0  0  0  0
 22 16  2  0  0  0  0
 24 23  1  0  0  0  0
 26 25  1  0  0  0  0
 26 27  1  0  0  0  0
 28 34  1  0  0  0  0
 29 27  1  0  0  0  0
 29 33  2  0  0  0  0
 30 28  2  0  0  0  0
 30 29  1  0  0  0  0
 31 32  2  0  0  0  0
 32 33  1  0  0  0  0
 34 31  1  0  0  0  0
M  END
>  <MODEL>
8

>  <REMARK>
 VINA RESULT:      -6.8      4.068      8.528
  Name = 
  6 active torsions:
  status: ('A' for Active; 'I' for Inactive)
    1  A    between atoms: C_1  and  O_19
    2  A    between atoms: O_3  and  C_13
    3  A    between atoms: O_3  and  C_17
    4  A    between atoms: C_12  and  C_28
    5  A    between atoms: C_17  and  C_29
    6  A    between atoms: C_18  and  C_29
                            x       y       z     vdW  Elec       q    Type
                         _______ _______ _______ _____ _____    ______ ____

>  <TORSDO>
F 6

$$$$
=
 OpenBabel10262423473D

 34 38  0  0  1  0  0  0  0  0999 V2000
  182.6980  173.0940  136.6960 C   0  0  2  0  0  3  0  0  0  0  0  0
  180.8070  173.9970  138.1400 C   0  0  0  0  0  0  0  0  0  0  0  0
  182.6160  175.5720  137.5330 C   0  0  0  0  0  0  0  0  0  0  0  0
  181.8890  179.0160  139.0320 C   0  0  0  0  0  1  0  0  0  0  0  0
  180.2160  172.7280  138.0240 O   0  0  0  0  0  1  0  0  0  0  0  0
  180.8100  176.2800  139.0710 C   0  0  0  0  0  3  0  0  0  0  0  0
  181.9530  174.2780  137.3890 C   0  0  0  0  0  0  0  0  0  0  0  0
  182.3860  178.0200  137.9920 C   0  0  1  0  0  0  0  0  0  0  0  0
  183.8400  175.8520  136.8840 N   0  0  0  0  0  0  0  0  0  0  0  0
  184.1410  173.4980  136.1680 C   0  0  0  0  0  2  0  0  0  0  0  0
  180.2870  174.9600  139.0340 C   0  0  0  0  0  3  0  0  0  0  0  0
  183.9190  178.0130  138.1250 C   0  0  0  0  0  2  0  0  0  0  0  0
  184.4810  177.2300  136.9470 C   0  0  1  0  0  3  0  0  0  0  0  0
  181.9170  176.6170  138.3210 C   0  0  0  0  0  0  0  0  0  0  0  0
  184.2380  174.9840  135.7700 C   0  0  0  0  0  2  0  0  0  0  0  0
  188.1500  178.2850  137.6530 C   0  0  0  0  0  0  0  0  0  0  0  0
  188.7390  177.9510  136.2830 C   0  0  0  0  0  2  0  0  0  0  0  0
  185.9850  177.2260  136.9440 C   0  0  2  0  0  3  0  0  0  0  0  0
  187.9250  177.1140  135.3180 C   0  0  0  0  0  2  0  0  0  0  0  0
  186.7610  177.9710  138.0750 C   0  0  0  0  0  2  0  0  0  0  0  0
  186.4540  177.4590  135.4890 C   0  0  0  0  0  2  0  0  0  0  0  0
  188.7980  179.1370  138.4170 N   0  0  0  0  0  2  0  0  0  0  0  0
  182.4990  171.2210  135.7520 C   0  0  0  0  0  1  0  0  0  0  0  0
  181.9140  172.4830  135.7240 O   0  0  0  0  0  0  0  0  0  0  0  0
  181.9670  178.5020  136.5520 C   0  0  0  0  0  2  0  0  0  0  0  0
  180.6820  179.2440  136.6410 C   0  0  0  0  0  2  0  0  0  0  0  0
  180.6950  180.2420  135.6350 O   0  0  0  0  0  0  0  0  0  0  0  0
  181.5680  183.0310  137.9420 C   0  0  0  0  0  3  0  0  0  0  0  0
  180.6370  181.5600  136.0410 C   0  0  0  0  0  0  0  0  0  0  0  0
  180.5430  181.9960  137.5100 C   0  0  0  0  0  2  0  0  0  0  0  0
  181.1250  184.7420  136.1140 C   0  0  0  0  0  3  0  0  0  0  0  0
  180.6070  183.9570  135.1030 C   0  0  0  0  0  3  0  0  0  0  0  0
  180.6660  182.4810  134.9810 C   0  0  0  0  0  3  0  0  0  0  0  0
  181.8340  184.2480  137.3140 C   0  0  0  0  0  3  0  0  0  0  0  0
  1 24  1  6  0  0  0
  1  7  1  0  0  0  0
  2 11  1  0  0  0  0
  3 14  2  0  0  0  0
  5  2  1  0  0  0  0
  7  3  1  0  0  0  0
  7  2  2  0  0  0  0
  8 12  1  0  0  0  0
  8 14  1  0  0  0  0
  8  4  1  1  0  0  0
  9 13  1  0  0  0  0
  9  3  1  0  0  0  0
 10  1  1  0  0  0  0
 11  6  2  0  0  0  0
 13 12  1  1  0  0  0
 14  6  1  0  0  0  0
 15 10  1  0  0  0  0
 15  9  1  0  0  0  0
 16 20  1  0  0  0  0
 16 22  2  0  0  0  0
 17 16  1  0  0  0  0
 18 21  1  6  0  0  0
 18 13  1  0  0  0  0
 18 20  1  0  0  0  0
 19 21  1  0  0  0  0
 19 17  1  0  0  0  0
 24 23  1  0  0  0  0
 25 26  1  0  0  0  0
 25  8  1  0  0  0  0
 27 29  1  0  0  0  0
 27 26  1  0  0  0  0
 29 30  1  0  0  0  0
 30 28  1  0  0  0  0
 31 34  1  0  0  0  0
 32 31  2  0  0  0  0
 33 32  1  0  0  0  0
 33 29  2  0  0  0  0
 34 28  2  0  0  0  0
M  END
>  <MODEL>
9

>  <REMARK>
 VINA RESULT:      -6.7      5.769      9.441
  Name = 
  6 active torsions:
  status: ('A' for Active; 'I' for Inactive)
    1  A    between atoms: C_1  and  O_19
    2  A    between atoms: O_3  and  C_13
    3  A    between atoms: O_3  and  C_17
    4  A    between atoms: C_12  and  C_28
    5  A    between atoms: C_17  and  C_29
    6  A    between atoms: C_18  and  C_29
                            x       y       z     vdW  Elec       q    Type
                         _______ _______ _______ _____ _____    ______ ____

>  <TORSDO>
F 6

$$$$
