=
 OpenBabel10272401133D

 27 31  0  0  0  0  0  0  0  0999 V2000
  189.7070  177.3590  142.7100 C   0  0  0  0  0  3  0  0  0  0  0  0
  187.6350  177.5680  144.1840 C   0  0  0  0  0  0  0  0  0  0  0  0
  186.8600  178.2540  141.8470 C   0  0  0  0  0  3  0  0  0  0  0  0
  186.9590  177.3730  145.3780 C   0  0  0  0  0  3  0  0  0  0  0  0
  189.0250  178.2060  139.1190 C   0  0  0  0  0  0  0  0  0  0  0  0
  189.0500  177.3730  143.9880 N   0  0  0  0  0  0  0  0  0  0  0  0
  185.4870  178.0140  143.9130 N   0  0  0  0  0  0  0  0  0  0  0  0
  189.2200  177.6790  141.5110 C   0  0  0  0  0  0  0  0  0  0  0  0
  186.6800  177.9640  143.2710 C   0  0  0  0  0  0  0  0  0  0  0  0
  187.8640  178.4080  139.7730 N   0  0  0  0  0  0  0  0  0  0  0  0
  185.6580  177.6550  145.1750 N   0  0  0  0  0  0  0  0  0  0  0  0
  190.2130  177.6400  140.1520 S   0  0  0  0  0  0  0  0  0  0  0  0
  187.9510  178.1240  141.1010 C   0  0  0  0  0  0  0  0  0  0  0  0
  183.1680  178.7660  144.2680 C   0  0  0  0  0  3  0  0  0  0  0  0
  181.6520  179.1000  142.4110 C   0  0  0  0  0  3  0  0  0  0  0  0
  182.6580  178.7170  141.5240 C   0  0  0  0  0  3  0  0  0  0  0  0
  183.9190  178.3580  142.0090 C   0  0  0  0  0  3  0  0  0  0  0  0
  184.1900  178.3750  143.3870 C   0  0  0  0  0  0  0  0  0  0  0  0
  181.9070  179.1260  143.7850 C   0  0  0  0  0  3  0  0  0  0  0  0
  191.5470  176.6180  147.3130 C   0  0  0  0  0  3  0  0  0  0  0  0
  189.9030  177.1350  145.1260 C   0  0  0  0  0  0  0  0  0  0  0  0
  191.1790  176.5710  144.9690 C   0  0  0  0  0  3  0  0  0  0  0  0
  191.9650  176.3300  146.0520 N   0  0  0  0  0  0  0  0  0  0  0  0
  190.2840  177.1700  147.5230 C   0  0  0  0  0  3  0  0  0  0  0  0
  189.4610  177.4250  146.4270 C   0  0  0  0  0  3  0  0  0  0  0  0
  188.9970  179.7250  137.3200 O   0  0  0  0  0  1  0  0  0  0  0  0
  189.1870  178.3840  137.6520 C   0  0  0  0  0  2  0  0  0  0  0  0
  1  6  1  0  0  0  0
  2  4  1  0  0  0  0
  3  9  1  0  0  0  0
  5 10  2  0  0  0  0
  5 12  1  0  0  0  0
  6  2  1  0  0  0  0
  6 21  1  0  0  0  0
  7 11  1  0  0  0  0
  8  1  2  0  0  0  0
  9  7  1  0  0  0  0
  9  2  2  0  0  0  0
 10 13  1  0  0  0  0
 11  4  2  0  0  0  0
 12  8  1  0  0  0  0
 13  8  1  0  0  0  0
 13  3  2  0  0  0  0
 15 19  2  0  0  0  0
 16 17  2  0  0  0  0
 16 15  1  0  0  0  0
 17 18  1  0  0  0  0
 18  7  1  0  0  0  0
 18 14  2  0  0  0  0
 19 14  1  0  0  0  0
 20 24  1  0  0  0  0
 21 25  1  0  0  0  0
 22 21  2  0  0  0  0
 22 23  1  0  0  0  0
 23 20  2  0  0  0  0
 25 24  2  0  0  0  0
 26 27  1  0  0  0  0
 27  5  1  0  0  0  0
M  END
>  <MODEL>
1

>  <REMARK>
 VINA RESULT:      -9.8      0.000      0.000
  Name = 
  3 active torsions:
  status: ('A' for Active; 'I' for Inactive)
    1  A    between atoms: C_9  and  N_15
    2  A    between atoms: C_13  and  C_22
    3  A    between atoms: C_14  and  N_17
                            x       y       z     vdW  Elec       q    Type
                         _______ _______ _______ _____ _____    ______ ____

>  <TORSDO>
F 3

$$$$
=
 OpenBabel10272401133D

 27 31  0  0  0  0  0  0  0  0999 V2000
  188.1230  177.3390  145.5510 C   0  0  0  0  0  3  0  0  0  0  0  0
  188.0980  177.6670  143.0210 C   0  0  0  0  0  0  0  0  0  0  0  0
  190.5150  177.0550  143.5880 C   0  0  0  0  0  3  0  0  0  0  0  0
  187.4360  177.8570  141.8190 C   0  0  0  0  0  3  0  0  0  0  0  0
  191.4980  176.3410  146.8520 C   0  0  0  0  0  0  0  0  0  0  0  0
  187.4940  177.7520  144.3280 N   0  0  0  0  0  0  0  0  0  0  0  0
  189.5090  177.4190  141.3370 N   0  0  0  0  0  0  0  0  0  0  0  0
  189.3880  176.9760  145.7660 C   0  0  0  0  0  0  0  0  0  0  0  0
  189.4070  177.3820  142.6890 C   0  0  0  0  0  0  0  0  0  0  0  0
  191.6530  176.5230  145.5260 N   0  0  0  0  0  0  0  0  0  0  0  0
  188.3240  177.7010  140.8200 N   0  0  0  0  0  0  0  0  0  0  0  0
  189.9100  176.5870  147.3180 S   0  0  0  0  0  0  0  0  0  0  0  0
  190.4950  176.8780  144.9050 C   0  0  0  0  0  0  0  0  0  0  0  0
  190.5320  176.5260  139.2820 C   0  0  0  0  0  3  0  0  0  0  0  0
  192.9060  176.7360  138.8600 C   0  0  0  0  0  3  0  0  0  0  0  0
  193.0610  177.4010  140.0770 C   0  0  0  0  0  3  0  0  0  0  0  0
  191.9510  177.6280  140.8960 C   0  0  0  0  0  3  0  0  0  0  0  0
  190.6730  177.1920  140.5110 C   0  0  0  0  0  0  0  0  0  0  0  0
  191.6400  176.2980  138.4620 C   0  0  0  0  0  3  0  0  0  0  0  0
  183.5300  179.1580  144.7510 C   0  0  0  0  0  3  0  0  0  0  0  0
  186.1450  178.2470  144.4600 C   0  0  0  0  0  0  0  0  0  0  0  0
  185.6460  178.6590  145.7060 C   0  0  0  0  0  3  0  0  0  0  0  0
  184.3650  179.1020  145.8220 N   0  0  0  0  0  0  0  0  0  0  0  0
  183.9770  178.7510  143.4940 C   0  0  0  0  0  3  0  0  0  0  0  0
  185.2860  178.2920  143.3510 C   0  0  0  0  0  3  0  0  0  0  0  0
  192.8190  176.8650  148.7300 O   0  0  0  0  0  1  0  0  0  0  0  0
  192.5900  175.8940  147.7570 C   0  0  0  0  0  2  0  0  0  0  0  0
  1  8  2  0  0  0  0
  2  6  1  0  0  0  0
  3 13  2  0  0  0  0
  4  2  1  0  0  0  0
  5 12  1  0  0  0  0
  5 27  1  0  0  0  0
  6 21  1  0  0  0  0
  6  1  1  0  0  0  0
  7  9  1  0  0  0  0
  8 12  1  0  0  0  0
  9  2  2  0  0  0  0
  9  3  1  0  0  0  0
 10  5  2  0  0  0  0
 11  7  1  0  0  0  0
 11  4  2  0  0  0  0
 13 10  1  0  0  0  0
 13  8  1  0  0  0  0
 14 18  1  0  0  0  0
 15 16  2  0  0  0  0
 16 17  1  0  0  0  0
 18 17  2  0  0  0  0
 18  7  1  0  0  0  0
 19 15  1  0  0  0  0
 19 14  2  0  0  0  0
 20 23  1  0  0  0  0
 21 22  1  0  0  0  0
 22 23  2  0  0  0  0
 24 20  2  0  0  0  0
 25 24  1  0  0  0  0
 25 21  2  0  0  0  0
 27 26  1  0  0  0  0
M  END
>  <MODEL>
2

>  <REMARK>
 VINA RESULT:      -9.7      3.320      7.354
  Name = 
  3 active torsions:
  status: ('A' for Active; 'I' for Inactive)
    1  A    between atoms: C_9  and  N_15
    2  A    between atoms: C_13  and  C_22
    3  A    between atoms: C_14  and  N_17
                            x       y       z     vdW  Elec       q    Type
                         _______ _______ _______ _____ _____    ______ ____

>  <TORSDO>
F 3

$$$$
=
 OpenBabel10272401133D

 27 31  0  0  0  0  0  0  0  0999 V2000
  188.7450  177.5110  139.5580 C   0  0  0  0  0  3  0  0  0  0  0  0
  189.8660  177.0790  141.8080 C   0  0  0  0  0  0  0  0  0  0  0  0
  187.5930  178.0970  142.3840 C   0  0  0  0  0  3  0  0  0  0  0  0
  190.8760  176.5370  142.5880 C   0  0  0  0  0  3  0  0  0  0  0  0
  185.2990  178.9560  139.9070 C   0  0  0  0  0  0  0  0  0  0  0  0
  189.8770  177.1570  140.3690 N   0  0  0  0  0  0  0  0  0  0  0  0
  189.3240  177.2210  143.9470 N   0  0  0  0  0  0  0  0  0  0  0  0
  187.5570  177.9890  139.9330 C   0  0  0  0  0  0  0  0  0  0  0  0
  188.8920  177.4960  142.6920 C   0  0  0  0  0  0  0  0  0  0  0  0
  185.7760  178.8320  141.1620 N   0  0  0  0  0  0  0  0  0  0  0  0
  190.5130  176.6430  143.8800 N   0  0  0  0  0  0  0  0  0  0  0  0
  186.3980  178.3890  138.7810 S   0  0  0  0  0  0  0  0  0  0  0  0
  187.0280  178.2990  141.1990 C   0  0  0  0  0  0  0  0  0  0  0  0
  189.4300  177.6530  146.3700 C   0  0  0  0  0  3  0  0  0  0  0  0
  187.4220  177.9710  147.6830 C   0  0  0  0  0  3  0  0  0  0  0  0
  186.6470  177.7940  146.5370 C   0  0  0  0  0  3  0  0  0  0  0  0
  187.2640  177.5460  145.3070 C   0  0  0  0  0  3  0  0  0  0  0  0
  188.6630  177.4700  145.2070 C   0  0  0  0  0  0  0  0  0  0  0  0
  188.8150  177.9010  147.6010 C   0  0  0  0  0  3  0  0  0  0  0  0
  193.4070  176.2550  138.2270 C   0  0  0  0  0  3  0  0  0  0  0  0
  191.0800  176.8300  139.6440 C   0  0  0  0  0  0  0  0  0  0  0  0
  192.3100  177.4160  139.9840 C   0  0  0  0  0  3  0  0  0  0  0  0
  193.4340  177.1170  139.2780 N   0  0  0  0  0  0  0  0  0  0  0  0
  192.2080  175.6550  137.8450 C   0  0  0  0  0  3  0  0  0  0  0  0
  191.0430  175.9470  138.5540 C   0  0  0  0  0  3  0  0  0  0  0  0
  184.0280  180.6710  138.9120 O   0  0  0  0  0  1  0  0  0  0  0  0
  183.9360  179.4560  139.5890 C   0  0  0  0  0  2  0  0  0  0  0  0
  1  8  2  0  0  0  0
  1  6  1  0  0  0  0
  2  4  1  0  0  0  0
  2  9  2  0  0  0  0
  3  9  1  0  0  0  0
  4 11  2  0  0  0  0
  5 10  2  0  0  0  0
  6  2  1  0  0  0  0
  7 18  1  0  0  0  0
  8 13  1  0  0  0  0
  9  7  1  0  0  0  0
 10 13  1  0  0  0  0
 11  7  1  0  0  0  0
 12  5  1  0  0  0  0
 12  8  1  0  0  0  0
 13  3  2  0  0  0  0
 14 19  1  0  0  0  0
 16 15  1  0  0  0  0
 17 16  2  0  0  0  0
 18 17  1  0  0  0  0
 18 14  2  0  0  0  0
 19 15  2  0  0  0  0
 20 23  1  0  0  0  0
 21 22  1  0  0  0  0
 21  6  1  0  0  0  0
 23 22  2  0  0  0  0
 24 20  2  0  0  0  0
 24 25  1  0  0  0  0
 25 21  2  0  0  0  0
 26 27  1  0  0  0  0
 27  5  1  0  0  0  0
M  END
>  <MODEL>
3

>  <REMARK>
 VINA RESULT:      -9.6      2.664      5.551
  Name = 
  3 active torsions:
  status: ('A' for Active; 'I' for Inactive)
    1  A    between atoms: C_9  and  N_15
    2  A    between atoms: C_13  and  C_22
    3  A    between atoms: C_14  and  N_17
                            x       y       z     vdW  Elec       q    Type
                         _______ _______ _______ _____ _____    ______ ____

>  <TORSDO>
F 3

$$$$
=
 OpenBabel10272401133D

 27 31  0  0  0  0  0  0  0  0999 V2000
  186.7290  178.1580  140.6320 C   0  0  0  0  0  3  0  0  0  0  0  0
  189.0450  177.4480  141.4310 C   0  0  0  0  0  0  0  0  0  0  0  0
  187.7150  177.8970  143.5670 C   0  0  0  0  0  3  0  0  0  0  0  0
  190.3140  176.9370  141.2050 C   0  0  0  0  0  3  0  0  0  0  0  0
  184.3690  178.8580  143.4640 C   0  0  0  0  0  0  0  0  0  0  0  0
  188.1120  177.8410  140.4050 N   0  0  0  0  0  0  0  0  0  0  0  0
  190.0380  177.0200  143.3600 N   0  0  0  0  0  0  0  0  0  0  0  0
  186.0820  178.3240  141.7870 C   0  0  0  0  0  0  0  0  0  0  0  0
  188.8920  177.4830  142.8020 C   0  0  0  0  0  0  0  0  0  0  0  0
  185.5490  178.5480  144.0360 N   0  0  0  0  0  0  0  0  0  0  0  0
  190.8860  176.6910  142.3980 N   0  0  0  0  0  0  0  0  0  0  0  0
  184.4560  178.7550  141.7970 S   0  0  0  0  0  0  0  0  0  0  0  0
  186.5140  178.2500  143.1230 C   0  0  0  0  0  0  0  0  0  0  0  0
  191.6070  176.3180  145.1240 C   0  0  0  0  0  3  0  0  0  0  0  0
  191.0570  176.5580  147.4690 C   0  0  0  0  0  3  0  0  0  0  0  0
  189.8220  177.1070  147.1210 C   0  0  0  0  0  3  0  0  0  0  0  0
  189.4800  177.2610  145.7750 C   0  0  0  0  0  3  0  0  0  0  0  0
  190.3660  176.8660  144.7580 C   0  0  0  0  0  0  0  0  0  0  0  0
  191.9510  176.1630  146.4700 C   0  0  0  0  0  3  0  0  0  0  0  0
  189.3320  178.0470  136.3640 C   0  0  0  0  0  3  0  0  0  0  0  0
  188.5430  177.8990  139.0300 C   0  0  0  0  0  0  0  0  0  0  0  0
  188.9740  179.1060  138.4580 C   0  0  0  0  0  3  0  0  0  0  0  0
  189.3570  179.1530  137.1540 N   0  0  0  0  0  0  0  0  0  0  0  0
  188.9030  176.8250  136.8830 C   0  0  0  0  0  3  0  0  0  0  0  0
  188.5050  176.7550  138.2180 C   0  0  0  0  0  3  0  0  0  0  0  0
  183.4220  179.1630  145.5980 O   0  0  0  0  0  1  0  0  0  0  0  0
  183.1350  179.1660  144.2340 C   0  0  0  0  0  2  0  0  0  0  0  0
  1  8  2  0  0  0  0
  2  9  2  0  0  0  0
  4  2  1  0  0  0  0
  4 11  2  0  0  0  0
  5 10  2  0  0  0  0
  5 27  1  0  0  0  0
  6  1  1  0  0  0  0
  6  2  1  0  0  0  0
  7 18  1  0  0  0  0
  8 12  1  0  0  0  0
  8 13  1  0  0  0  0
  9  7  1  0  0  0  0
  9  3  1  0  0  0  0
 11  7  1  0  0  0  0
 12  5  1  0  0  0  0
 13  3  2  0  0  0  0
 13 10  1  0  0  0  0
 14 19  1  0  0  0  0
 16 15  1  0  0  0  0
 17 16  2  0  0  0  0
 18 14  2  0  0  0  0
 18 17  1  0  0  0  0
 19 15  2  0  0  0  0
 20 24  2  0  0  0  0
 20 23  1  0  0  0  0
 21  6  1  0  0  0  0
 22 21  1  0  0  0  0
 23 22  2  0  0  0  0
 24 25  1  0  0  0  0
 25 21  2  0  0  0  0
 27 26  1  0  0  0  0
M  END
>  <MODEL>
4

>  <REMARK>
 VINA RESULT:      -9.4      2.591      7.250
  Name = 
  3 active torsions:
  status: ('A' for Active; 'I' for Inactive)
    1  A    between atoms: C_9  and  N_15
    2  A    between atoms: C_13  and  C_22
    3  A    between atoms: C_14  and  N_17
                            x       y       z     vdW  Elec       q    Type
                         _______ _______ _______ _____ _____    ______ ____

>  <TORSDO>
F 3

$$$$
=
 OpenBabel10272401133D

 27 31  0  0  0  0  0  0  0  0999 V2000
  191.0290  177.1170  142.5050 C   0  0  0  0  0  3  0  0  0  0  0  0
  188.9630  177.7000  141.1260 C   0  0  0  0  0  0  0  0  0  0  0  0
  188.1490  177.6360  143.5490 C   0  0  0  0  0  3  0  0  0  0  0  0
  188.3460  178.0610  139.9390 C   0  0  0  0  0  3  0  0  0  0  0  0
  190.3260  176.9820  146.1880 C   0  0  0  0  0  0  0  0  0  0  0  0
  190.3340  177.2750  141.2570 N   0  0  0  0  0  0  0  0  0  0  0  0
  186.8590  178.2620  141.5110 N   0  0  0  0  0  0  0  0  0  0  0  0
  190.5450  177.1510  143.7470 C   0  0  0  0  0  0  0  0  0  0  0  0
  188.0030  177.8440  142.1070 C   0  0  0  0  0  0  0  0  0  0  0  0
  189.1440  177.2480  145.5970 N   0  0  0  0  0  0  0  0  0  0  0  0
  187.0710  178.3930  140.2110 N   0  0  0  0  0  0  0  0  0  0  0  0
  191.5590  176.8770  145.0620 S   0  0  0  0  0  0  0  0  0  0  0  0
  189.2440  177.3440  144.2420 C   0  0  0  0  0  0  0  0  0  0  0  0
  184.4070  178.4220  141.3480 C   0  0  0  0  0  3  0  0  0  0  0  0
  183.0580  179.0910  143.2430 C   0  0  0  0  0  3  0  0  0  0  0  0
  184.2120  179.2210  144.0160 C   0  0  0  0  0  3  0  0  0  0  0  0
  185.4630  178.9520  143.4540 C   0  0  0  0  0  3  0  0  0  0  0  0
  185.5780  178.5510  142.1130 C   0  0  0  0  0  0  0  0  0  0  0  0
  183.1540  178.6900  141.9080 C   0  0  0  0  0  3  0  0  0  0  0  0
  192.6350  176.5650  137.7830 C   0  0  0  0  0  3  0  0  0  0  0  0
  191.1170  177.0130  140.0740 C   0  0  0  0  0  0  0  0  0  0  0  0
  192.4750  177.3620  140.0140 C   0  0  0  0  0  3  0  0  0  0  0  0
  193.1970  177.1310  138.8850 N   0  0  0  0  0  0  0  0  0  0  0  0
  191.2870  176.2100  137.7900 C   0  0  0  0  0  3  0  0  0  0  0  0
  190.5270  176.4380  138.9370 C   0  0  0  0  0  3  0  0  0  0  0  0
  191.8620  176.9890  147.9730 O   0  0  0  0  0  1  0  0  0  0  0  0
  190.5070  176.8850  147.6610 C   0  0  0  0  0  2  0  0  0  0  0  0
  1  8  2  0  0  0  0
  2  6  1  0  0  0  0
  2  9  2  0  0  0  0
  3 13  2  0  0  0  0
  4 11  2  0  0  0  0
  4  2  1  0  0  0  0
  5 27  1  0  0  0  0
  6  1  1  0  0  0  0
  7  9  1  0  0  0  0
  7 18  1  0  0  0  0
  8 13  1  0  0  0  0
  8 12  1  0  0  0  0
  9  3  1  0  0  0  0
 10  5  2  0  0  0  0
 11  7  1  0  0  0  0
 12  5  1  0  0  0  0
 13 10  1  0  0  0  0
 14 19  2  0  0  0  0
 14 18  1  0  0  0  0
 15 16  2  0  0  0  0
 17 16  1  0  0  0  0
 18 17  2  0  0  0  0
 19 15  1  0  0  0  0
 20 24  2  0  0  0  0
 20 23  1  0  0  0  0
 21  6  1  0  0  0  0
 22 21  1  0  0  0  0
 23 22  2  0  0  0  0
 24 25  1  0  0  0  0
 25 21  2  0  0  0  0
 27 26  1  0  0  0  0
M  END
>  <MODEL>
5

>  <REMARK>
 VINA RESULT:      -9.3      3.152      5.630
  Name = 
  3 active torsions:
  status: ('A' for Active; 'I' for Inactive)
    1  A    between atoms: C_9  and  N_15
    2  A    between atoms: C_13  and  C_22
    3  A    between atoms: C_14  and  N_17
                            x       y       z     vdW  Elec       q    Type
                         _______ _______ _______ _____ _____    ______ ____

>  <TORSDO>
F 3

$$$$
=
 OpenBabel10272401133D

 27 31  0  0  0  0  0  0  0  0999 V2000
  190.8590  177.1170  142.6670 C   0  0  0  0  0  3  0  0  0  0  0  0
  188.6840  177.7300  141.4830 C   0  0  0  0  0  0  0  0  0  0  0  0
  188.0830  177.6280  143.9660 C   0  0  0  0  0  3  0  0  0  0  0  0
  187.9690  178.1140  140.3590 C   0  0  0  0  0  3  0  0  0  0  0  0
  190.4770  176.9220  146.3950 C   0  0  0  0  0  0  0  0  0  0  0  0
  190.0600  177.2990  141.4870 N   0  0  0  0  0  0  0  0  0  0  0  0
  186.6240  178.2940  142.0580 N   0  0  0  0  0  0  0  0  0  0  0  0
  190.4850  177.1320  143.9470 C   0  0  0  0  0  0  0  0  0  0  0  0
  187.8140  177.8620  142.5460 C   0  0  0  0  0  0  0  0  0  0  0  0
  189.2500  177.2020  145.9130 N   0  0  0  0  0  0  0  0  0  0  0  0
  186.7240  178.4460  140.7470 N   0  0  0  0  0  0  0  0  0  0  0  0
  191.6070  176.8310  145.1650 S   0  0  0  0  0  0  0  0  0  0  0  0
  189.2320  177.3210  144.5570 C   0  0  0  0  0  0  0  0  0  0  0  0
  184.1720  178.5240  142.0950 C   0  0  0  0  0  3  0  0  0  0  0  0
  182.9920  179.1090  144.1250 C   0  0  0  0  0  3  0  0  0  0  0  0
  184.2050  179.1630  144.8130 C   0  0  0  0  0  3  0  0  0  0  0  0
  185.4010  178.8980  144.1410 C   0  0  0  0  0  3  0  0  0  0  0  0
  185.4020  178.5780  142.7730 C   0  0  0  0  0  0  0  0  0  0  0  0
  182.9750  178.7880  142.7650 C   0  0  0  0  0  3  0  0  0  0  0  0
  192.0290  176.5240  137.8290 C   0  0  0  0  0  3  0  0  0  0  0  0
  190.7350  177.0540  140.2370 C   0  0  0  0  0  0  0  0  0  0  0  0
  190.0430  176.5390  139.1300 C   0  0  0  0  0  3  0  0  0  0  0  0
  190.6970  176.2900  137.9630 N   0  0  0  0  0  0  0  0  0  0  0  0
  192.7630  177.0270  138.9030 C   0  0  0  0  0  3  0  0  0  0  0  0
  192.1140  177.2880  140.1090 C   0  0  0  0  0  3  0  0  0  0  0  0
  192.1600  176.9070  148.0410 O   0  0  0  0  0  1  0  0  0  0  0  0
  190.7850  176.7990  147.8440 C   0  0  0  0  0  2  0  0  0  0  0  0
  1  8  2  0  0  0  0
  2  6  1  0  0  0  0
  2  9  2  0  0  0  0
  3 13  2  0  0  0  0
  4 11  2  0  0  0  0
  4  2  1  0  0  0  0
  5 27  1  0  0  0  0
  6  1  1  0  0  0  0
  7  9  1  0  0  0  0
  7 18  1  0  0  0  0
  8 13  1  0  0  0  0
  8 12  1  0  0  0  0
  9  3  1  0  0  0  0
 10  5  2  0  0  0  0
 11  7  1  0  0  0  0
 12  5  1  0  0  0  0
 13 10  1  0  0  0  0
 14 19  2  0  0  0  0
 14 18  1  0  0  0  0
 15 16  2  0  0  0  0
 17 16  1  0  0  0  0
 18 17  2  0  0  0  0
 19 15  1  0  0  0  0
 20 23  2  0  0  0  0
 20 24  1  0  0  0  0
 21  6  1  0  0  0  0
 22 21  2  0  0  0  0
 23 22  1  0  0  0  0
 24 25  2  0  0  0  0
 25 21  1  0  0  0  0
 27 26  1  0  0  0  0
M  END
>  <MODEL>
6

>  <REMARK>
 VINA RESULT:      -9.3      3.080      5.602
  Name = 
  3 active torsions:
  status: ('A' for Active; 'I' for Inactive)
    1  A    between atoms: C_9  and  N_15
    2  A    between atoms: C_13  and  C_22
    3  A    between atoms: C_14  and  N_17
                            x       y       z     vdW  Elec       q    Type
                         _______ _______ _______ _____ _____    ______ ____

>  <TORSDO>
F 3

$$$$
=
 OpenBabel10272401133D

 27 31  0  0  0  0  0  0  0  0999 V2000
  186.6330  178.3700  139.9320 C   0  0  0  0  0  3  0  0  0  0  0  0
  185.6670  178.4120  142.2920 C   0  0  0  0  0  0  0  0  0  0  0  0
  188.1100  177.7160  142.5860 C   0  0  0  0  0  3  0  0  0  0  0  0
  184.6620  178.7140  143.1980 C   0  0  0  0  0  3  0  0  0  0  0  0
  190.2720  177.4590  139.8680 C   0  0  0  0  0  0  0  0  0  0  0  0
  185.5380  178.4650  140.8570 N   0  0  0  0  0  0  0  0  0  0  0  0
  186.4150  178.1610  144.3580 N   0  0  0  0  0  0  0  0  0  0  0  0
  187.9070  178.0530  140.1640 C   0  0  0  0  0  0  0  0  0  0  0  0
  186.7690  178.0740  143.0510 C   0  0  0  0  0  0  0  0  0  0  0  0
  189.8980  177.3910  141.1600 N   0  0  0  0  0  0  0  0  0  0  0  0
  185.1520  178.5480  144.4400 N   0  0  0  0  0  0  0  0  0  0  0  0
  189.0030  177.9470  138.8920 S   0  0  0  0  0  0  0  0  0  0  0  0
  188.5890  177.7150  141.3470 C   0  0  0  0  0  0  0  0  0  0  0  0
  186.7300  178.2680  146.7990 C   0  0  0  0  0  3  0  0  0  0  0  0
  188.7360  177.4150  147.8500 C   0  0  0  0  0  3  0  0  0  0  0  0
  189.2330  177.0460  146.5990 C   0  0  0  0  0  3  0  0  0  0  0  0
  188.4770  177.2890  145.4480 C   0  0  0  0  0  3  0  0  0  0  0  0
  187.2180  177.9050  145.5320 C   0  0  0  0  0  0  0  0  0  0  0  0
  187.4840  178.0260  147.9510 C   0  0  0  0  0  3  0  0  0  0  0  0
  181.7380  178.9970  139.0860 C   0  0  0  0  0  3  0  0  0  0  0  0
  184.2390  178.6630  140.2640 C   0  0  0  0  0  0  0  0  0  0  0  0
  183.2020  177.7390  140.4670 C   0  0  0  0  0  3  0  0  0  0  0  0
  181.9890  177.9250  139.8830 N   0  0  0  0  0  0  0  0  0  0  0  0
  182.7380  179.9390  138.8450 C   0  0  0  0  0  3  0  0  0  0  0  0
  183.9910  179.7680  139.4340 C   0  0  0  0  0  3  0  0  0  0  0  0
  192.5670  177.6630  140.3550 O   0  0  0  0  0  1  0  0  0  0  0  0
  191.6610  177.2110  139.3970 C   0  0  0  0  0  2  0  0  0  0  0  0
  1  8  2  0  0  0  0
  1  6  1  0  0  0  0
  2  9  2  0  0  0  0
  2  4  1  0  0  0  0
  3  9  1  0  0  0  0
  4 11  2  0  0  0  0
  5 10  2  0  0  0  0
  6  2  1  0  0  0  0
  7 11  1  0  0  0  0
  7 18  1  0  0  0  0
  8 13  1  0  0  0  0
  9  7  1  0  0  0  0
 10 13  1  0  0  0  0
 12  5  1  0  0  0  0
 12  8  1  0  0  0  0
 13  3  2  0  0  0  0
 14 19  1  0  0  0  0
 15 19  2  0  0  0  0
 16 15  1  0  0  0  0
 17 18  1  0  0  0  0
 17 16  2  0  0  0  0
 18 14  2  0  0  0  0
 20 23  1  0  0  0  0
 21 22  1  0  0  0  0
 21  6  1  0  0  0  0
 23 22  2  0  0  0  0
 24 20  2  0  0  0  0
 24 25  1  0  0  0  0
 25 21  2  0  0  0  0
 27  5  1  0  0  0  0
 27 26  1  0  0  0  0
M  END
>  <MODEL>
7

>  <REMARK>
 VINA RESULT:      -9.1      2.243      6.292
  Name = 
  3 active torsions:
  status: ('A' for Active; 'I' for Inactive)
    1  A    between atoms: C_9  and  N_15
    2  A    between atoms: C_13  and  C_22
    3  A    between atoms: C_14  and  N_17
                            x       y       z     vdW  Elec       q    Type
                         _______ _______ _______ _____ _____    ______ ____

>  <TORSDO>
F 3

$$$$
=
 OpenBabel10272401133D

 27 31  0  0  0  0  0  0  0  0999 V2000
  187.7540  177.8460  144.7290 C   0  0  0  0  0  3  0  0  0  0  0  0
  189.6480  177.5060  143.0530 C   0  0  0  0  0  0  0  0  0  0  0  0
  187.5520  177.8440  141.6280 C   0  0  0  0  0  3  0  0  0  0  0  0
  190.9910  177.3840  142.7330 C   0  0  0  0  0  3  0  0  0  0  0  0
  184.4440  178.4630  143.0730 C   0  0  0  0  0  0  0  0  0  0  0  0
  189.1060  177.4990  144.3900 N   0  0  0  0  0  0  0  0  0  0  0  0
  189.9080  177.5800  140.8590 N   0  0  0  0  0  0  0  0  0  0  0  0
  186.7140  178.0640  143.9230 C   0  0  0  0  0  0  0  0  0  0  0  0
  188.9850  177.6380  141.8510 C   0  0  0  0  0  0  0  0  0  0  0  0
  185.3230  178.2560  142.0730 N   0  0  0  0  0  0  0  0  0  0  0  0
  191.1100  177.4310  141.3940 N   0  0  0  0  0  0  0  0  0  0  0  0
  185.1960  178.4020  144.5660 S   0  0  0  0  0  0  0  0  0  0  0  0
  186.5880  178.0300  142.5230 C   0  0  0  0  0  0  0  0  0  0  0  0
  190.1200  176.6090  138.6060 C   0  0  0  0  0  3  0  0  0  0  0  0
  189.3310  177.7880  136.6450 C   0  0  0  0  0  3  0  0  0  0  0  0
  188.9150  178.8470  137.4520 C   0  0  0  0  0  3  0  0  0  0  0  0
  189.1020  178.7870  138.8350 C   0  0  0  0  0  3  0  0  0  0  0  0
  189.7090  177.6690  139.4310 C   0  0  0  0  0  0  0  0  0  0  0  0
  189.9330  176.6670  137.2220 C   0  0  0  0  0  3  0  0  0  0  0  0
  191.6120  176.5650  147.6630 C   0  0  0  0  0  3  0  0  0  0  0  0
  189.9580  177.1610  145.5040 C   0  0  0  0  0  0  0  0  0  0  0  0
  189.6340  177.5620  146.8090 C   0  0  0  0  0  3  0  0  0  0  0  0
  190.4570  177.2570  147.8480 N   0  0  0  0  0  0  0  0  0  0  0  0
  191.9830  176.1520  146.3830 C   0  0  0  0  0  3  0  0  0  0  0  0
  191.1540  176.4550  145.3030 C   0  0  0  0  0  3  0  0  0  0  0  0
  182.3420  178.8040  144.0780 O   0  0  0  0  0  1  0  0  0  0  0  0
  183.0100  178.7900  142.8550 C   0  0  0  0  0  2  0  0  0  0  0  0
  2  6  1  0  0  0  0
  3  9  1  0  0  0  0
  3 13  2  0  0  0  0
  4  2  1  0  0  0  0
  5 12  1  0  0  0  0
  6  1  1  0  0  0  0
  6 21  1  0  0  0  0
  7 11  1  0  0  0  0
  7  9  1  0  0  0  0
  8 12  1  0  0  0  0
  8  1  2  0  0  0  0
  9  2  2  0  0  0  0
 10 13  1  0  0  0  0
 10  5  2  0  0  0  0
 11  4  2  0  0  0  0
 13  8  1  0  0  0  0
 14 18  1  0  0  0  0
 15 19  1  0  0  0  0
 15 16  2  0  0  0  0
 16 17  1  0  0  0  0
 17 18  2  0  0  0  0
 18  7  1  0  0  0  0
 19 14  2  0  0  0  0
 20 23  1  0  0  0  0
 21 22  1  0  0  0  0
 22 23  2  0  0  0  0
 24 20  2  0  0  0  0
 25 21  2  0  0  0  0
 25 24  1  0  0  0  0
 27  5  1  0  0  0  0
 27 26  1  0  0  0  0
M  END
>  <MODEL>
8

>  <REMARK>
 VINA RESULT:      -9.0      2.592      5.577
  Name = 
  3 active torsions:
  status: ('A' for Active; 'I' for Inactive)
    1  A    between atoms: C_9  and  N_15
    2  A    between atoms: C_13  and  C_22
    3  A    between atoms: C_14  and  N_17
                            x       y       z     vdW  Elec       q    Type
                         _______ _______ _______ _____ _____    ______ ____

>  <TORSDO>
F 3

$$$$
=
 OpenBabel10272401133D

 27 31  0  0  0  0  0  0  0  0999 V2000
  185.2440  178.4450  140.5830 C   0  0  0  0  0  3  0  0  0  0  0  0
  187.4140  178.0350  141.8590 C   0  0  0  0  0  0  0  0  0  0  0  0
  185.6370  178.3810  143.6640 C   0  0  0  0  0  3  0  0  0  0  0  0
  188.7500  177.6710  141.9150 C   0  0  0  0  0  3  0  0  0  0  0  0
  182.2960  178.9390  142.8520 C   0  0  0  0  0  0  0  0  0  0  0  0
  186.6700  178.2880  140.6500 N   0  0  0  0  0  0  0  0  0  0  0  0
  188.0360  177.7790  143.9650 N   0  0  0  0  0  0  0  0  0  0  0  0
  184.3620  178.5650  141.5760 C   0  0  0  0  0  0  0  0  0  0  0  0
  186.9830  178.0880  143.1680 C   0  0  0  0  0  0  0  0  0  0  0  0
  183.3630  178.7850  143.6610 N   0  0  0  0  0  0  0  0  0  0  0  0
  189.0930  177.5270  143.2080 N   0  0  0  0  0  0  0  0  0  0  0  0
  182.7300  178.8020  141.2420 S   0  0  0  0  0  0  0  0  0  0  0  0
  184.5200  178.5790  142.9730 C   0  0  0  0  0  0  0  0  0  0  0  0
  189.2750  177.2880  146.0370 C   0  0  0  0  0  3  0  0  0  0  0  0
  188.2470  177.5490  148.2120 C   0  0  0  0  0  3  0  0  0  0  0  0
  187.0630  177.9650  147.6010 C   0  0  0  0  0  3  0  0  0  0  0  0
  186.9860  178.0420  146.2080 C   0  0  0  0  0  3  0  0  0  0  0  0
  188.0890  177.7020  145.4070 C   0  0  0  0  0  0  0  0  0  0  0  0
  189.3540  177.2110  147.4300 C   0  0  0  0  0  3  0  0  0  0  0  0
  188.7030  178.5550  136.9540 C   0  0  0  0  0  3  0  0  0  0  0  0
  187.3620  178.3590  139.3870 C   0  0  0  0  0  0  0  0  0  0  0  0
  188.6970  178.7880  139.3170 C   0  0  0  0  0  3  0  0  0  0  0  0
  189.3310  178.8730  138.1170 N   0  0  0  0  0  0  0  0  0  0  0  0
  187.3740  178.1330  136.9700 C   0  0  0  0  0  3  0  0  0  0  0  0
  186.7040  178.0380  138.1890 C   0  0  0  0  0  3  0  0  0  0  0  0
  180.3670  180.2880  142.8110 O   0  0  0  0  0  1  0  0  0  0  0  0
  180.9060  179.1200  143.3460 C   0  0  0  0  0  2  0  0  0  0  0  0
  1  6  1  0  0  0  0
  1  8  2  0  0  0  0
  2  4  1  0  0  0  0
  2  9  2  0  0  0  0
  4 11  2  0  0  0  0
  5 27  1  0  0  0  0
  5 10  2  0  0  0  0
  6  2  1  0  0  0  0
  7 18  1  0  0  0  0
  8 13  1  0  0  0  0
  9  3  1  0  0  0  0
  9  7  1  0  0  0  0
 11  7  1  0  0  0  0
 12  8  1  0  0  0  0
 12  5  1  0  0  0  0
 13 10  1  0  0  0  0
 13  3  2  0  0  0  0
 14 19  1  0  0  0  0
 16 15  1  0  0  0  0
 17 16  2  0  0  0  0
 18 14  2  0  0  0  0
 18 17  1  0  0  0  0
 19 15  2  0  0  0  0
 20 24  2  0  0  0  0
 20 23  1  0  0  0  0
 21  6  1  0  0  0  0
 22 21  1  0  0  0  0
 23 22  2  0  0  0  0
 24 25  1  0  0  0  0
 25 21  2  0  0  0  0
 26 27  1  0  0  0  0
M  END
>  <MODEL>
9

>  <REMARK>
 VINA RESULT:      -8.7      2.879      6.847
  Name = 
  3 active torsions:
  status: ('A' for Active; 'I' for Inactive)
    1  A    between atoms: C_9  and  N_15
    2  A    between atoms: C_13  and  C_22
    3  A    between atoms: C_14  and  N_17
                            x       y       z     vdW  Elec       q    Type
                         _______ _______ _______ _____ _____    ______ ____

>  <TORSDO>
F 3

$$$$
