=
 OpenBabel10272413383D

 32 36  0  0  1  0  0  0  0  0999 V2000
  188.8870  177.6490  143.5020 C   0  0  0  0  0  0  0  0  0  0  0  0
  190.8970  176.8520  138.9320 C   0  0  0  0  0  0  0  0  0  0  0  0
  192.2150  174.9570  137.8990 C   0  0  2  0  0  3  0  0  0  0  0  0
  192.9860  174.4850  136.7030 C   0  0  0  0  0  0  0  0  0  0  0  0
  190.5700  177.1000  141.3250 C   0  0  0  0  0  0  0  0  0  0  0  0
  188.7070  177.4540  139.8070 C   0  0  0  0  0  3  0  0  0  0  0  0
  194.3690  173.5110  134.4700 C   0  0  0  0  0  3  0  0  0  0  0  0
  188.3760  177.6850  142.1940 C   0  0  0  0  0  3  0  0  0  0  0  0
  189.5360  177.1810  138.7110 C   0  0  0  0  0  0  0  0  0  0  0  0
  188.9610  177.3340  137.3200 C   0  0  2  0  0  3  0  0  0  0  0  0
  191.2670  176.8590  136.4200 C   0  0  2  0  0  3  0  0  0  0  0  0
  194.4990  172.8730  135.7060 C   0  0  0  0  0  3  0  0  0  0  0  0
  190.2360  177.3390  143.7110 C   0  0  0  0  0  3  0  0  0  0  0  0
  189.2110  177.4110  141.1070 C   0  0  0  0  0  0  0  0  0  0  0  0
  193.8050  173.3570  136.8190 C   0  0  0  0  0  3  0  0  0  0  0  0
  191.0760  177.0650  142.6260 C   0  0  0  0  0  3  0  0  0  0  0  0
  189.7670  176.6010  136.2470 C   0  0  1  0  0  3  0  0  0  0  0  0
  192.0410  176.2920  135.3200 N   0  0  0  0  0  2  0  0  0  0  0  0
  191.3990  176.8180  140.2390 C   0  0  0  0  0  3  0  0  0  0  0  0
  191.1090  174.1300  138.1090 O   0  0  0  0  0  1  0  0  0  0  0  0
  193.5480  174.6350  134.3460 C   0  0  0  0  0  3  0  0  0  0  0  0
  191.8090  176.4430  137.8020 C   0  0  1  0  0  3  0  0  0  0  0  0
  192.8510  175.1220  135.4560 C   0  0  0  0  0  0  0  0  0  0  0  0
  187.5110  179.2180  137.0290 O   0  0  0  0  0  1  0  0  0  0  0  0
  188.8400  178.8040  136.9400 C   0  0  0  0  0  2  0  0  0  0  0  0
  188.2270  175.1340  135.6300 C   0  0  0  0  0  1  0  0  0  0  0  0
  189.4700  175.2350  136.2570 O   0  0  0  0  0  0  0  0  0  0  0  0
  188.2750  177.4020  145.7680 N   0  0  0  0  0  0  0  0  0  0  0  0
  188.0530  177.9250  144.6300 N   0  0  0  0  0  0  0  0  0  0  0  0
  187.4340  177.6860  146.8860 C   0  0  0  0  0  0  0  0  0  0  0  0
  188.0100  177.6920  148.2560 C   0  0  0  0  0  1  0  0  0  0  0  0
  186.2090  177.9320  146.7240 O   0  0  0  0  0  0  0  0  0  0  0  0
  1 13  1  0  0  0  0
  1 29  1  0  0  0  0
  2 19  1  0  0  0  0
  3 20  1  6  0  0  0
  4 15  1  0  0  0  0
  4  3  1  0  0  0  0
  5 16  1  0  0  0  0
  6 14  2  0  0  0  0
  7 12  1  0  0  0  0
  8  1  2  0  0  0  0
  9  2  2  0  0  0  0
  9  6  1  0  0  0  0
 10 25  1  6  0  0  0
 10  9  1  0  0  0  0
 11 18  1  6  0  0  0
 11 22  1  0  0  0  0
 12 15  2  0  0  0  0
 14  5  1  0  0  0  0
 14  8  1  0  0  0  0
 16 13  2  0  0  0  0
 17 27  1  1  0  0  0
 17 11  1  0  0  0  0
 17 10  1  0  0  0  0
 18 23  1  0  0  0  0
 19  5  2  0  0  0  0
 21  7  2  0  0  0  0
 21 23  1  0  0  0  0
 22  3  1  0  0  0  0
 22  2  1  1  0  0  0
 23  4  2  0  0  0  0
 25 24  1  0  0  0  0
 26 27  1  0  0  0  0
 28 30  1  0  0  0  0
 29 28  2  0  0  0  0
 30 31  1  0  0  0  0
 32 30  2  0  0  0  0
M  END
>  <MODEL>
1

>  <REMARK>
 VINA RESULT:      -7.4      0.000      0.000
  Name = 
  4 active torsions:
  status: ('A' for Active; 'I' for Inactive)
    1  A    between atoms: C_1  and  N_10
    2  A    between atoms: C_2  and  N_24
    3  A    between atoms: C_13  and  C_15
    4  A    between atoms: O_25  and  C_26
                            x       y       z     vdW  Elec       q    Type
                         _______ _______ _______ _____ _____    ______ ____

>  <TORSDO>
F 4

$$$$
=
 OpenBabel10272413383D

 32 36  0  0  1  0  0  0  0  0999 V2000
  185.4570  177.9050  137.6430 C   0  0  0  0  0  0  0  0  0  0  0  0
  188.3900  178.1450  141.7550 C   0  0  0  0  0  0  0  0  0  0  0  0
  188.0290  177.6200  144.2020 C   0  0  2  0  0  3  0  0  0  0  0  0
  188.6080  177.6730  145.5840 C   0  0  0  0  0  0  0  0  0  0  0  0
  186.5730  178.4150  140.1660 C   0  0  0  0  0  0  0  0  0  0  0  0
  188.5410  177.1330  139.5460 C   0  0  0  0  0  3  0  0  0  0  0  0
  189.6620  177.6680  148.1800 C   0  0  0  0  0  3  0  0  0  0  0  0
  186.7220  177.3890  137.9680 C   0  0  0  0  0  3  0  0  0  0  0  0
  189.1090  177.3800  140.8030 C   0  0  0  0  0  0  0  0  0  0  0  0
  190.5150  176.8870  141.0630 C   0  0  2  0  0  3  0  0  0  0  0  0
  190.4110  178.0640  143.2890 C   0  0  2  0  0  3  0  0  0  0  0  0
  188.2900  177.4880  147.9810 C   0  0  0  0  0  3  0  0  0  0  0  0
  184.7600  178.6730  138.5840 C   0  0  0  0  0  3  0  0  0  0  0  0
  187.2800  177.6390  139.2240 C   0  0  0  0  0  0  0  0  0  0  0  0
  187.7660  177.4870  146.6860 C   0  0  0  0  0  3  0  0  0  0  0  0
  185.3150  178.9270  139.8420 C   0  0  0  0  0  3  0  0  0  0  0  0
  190.8620  176.8010  142.5510 C   0  0  1  0  0  3  0  0  0  0  0  0
  190.8650  178.0680  144.6770 N   0  0  0  0  0  2  0  0  0  0  0  0
  187.1280  178.6560  141.4230 C   0  0  0  0  0  3  0  0  0  0  0  0
  187.7860  176.2930  143.8380 O   0  0  0  0  0  1  0  0  0  0  0  0
  190.5090  177.8500  147.0830 C   0  0  0  0  0  3  0  0  0  0  0  0
  188.9010  178.3500  143.1590 C   0  0  1  0  0  3  0  0  0  0  0  0
  189.9890  177.8470  145.7860 C   0  0  0  0  0  0  0  0  0  0  0  0
  192.8300  177.2990  140.6040 O   0  0  0  0  0  1  0  0  0  0  0  0
  191.5390  177.7690  140.3600 C   0  0  0  0  0  2  0  0  0  0  0  0
  191.3710  175.0520  143.8110 C   0  0  0  0  0  1  0  0  0  0  0  0
  190.3150  175.6450  143.1150 O   0  0  0  0  0  0  0  0  0  0  0  0
  183.7070  177.1470  136.2530 N   0  0  0  0  0  0  0  0  0  0  0  0
  184.8640  177.6630  136.3650 N   0  0  0  0  0  0  0  0  0  0  0  0
  183.1270  176.9100  134.9700 C   0  0  0  0  0  0  0  0  0  0  0  0
  182.2390  177.9360  134.3640 C   0  0  0  0  0  1  0  0  0  0  0  0
  183.3590  175.8400  134.3470 O   0  0  0  0  0  0  0  0  0  0  0  0
  1  8  2  0  0  0  0
  1 13  1  0  0  0  0
  3 20  1  6  0  0  0
  3  4  1  0  0  0  0
  4 23  2  0  0  0  0
  4 15  1  0  0  0  0
  5 19  2  0  0  0  0
  6  9  1  0  0  0  0
  8 14  1  0  0  0  0
  9 10  1  0  0  0  0
  9  2  2  0  0  0  0
 10 25  1  6  0  0  0
 10 17  1  0  0  0  0
 11 18  1  1  0  0  0
 12  7  1  0  0  0  0
 13 16  2  0  0  0  0
 14  6  2  0  0  0  0
 14  5  1  0  0  0  0
 15 12  2  0  0  0  0
 16  5  1  0  0  0  0
 17 27  1  1  0  0  0
 17 11  1  0  0  0  0
 18 23  1  0  0  0  0
 19  2  1  0  0  0  0
 21  7  2  0  0  0  0
 22  2  1  6  0  0  0
 22 11  1  0  0  0  0
 22  3  1  0  0  0  0
 23 21  1  0  0  0  0
 25 24  1  0  0  0  0
 27 26  1  0  0  0  0
 28 29  2  0  0  0  0
 29  1  1  0  0  0  0
 30 28  1  0  0  0  0
 31 30  1  0  0  0  0
 32 30  2  0  0  0  0
M  END
>  <MODEL>
2

>  <REMARK>
 VINA RESULT:      -7.1      4.036      8.885
  Name = 
  4 active torsions:
  status: ('A' for Active; 'I' for Inactive)
    1  A    between atoms: C_1  and  N_10
    2  A    between atoms: C_2  and  N_24
    3  A    between atoms: C_13  and  C_15
    4  A    between atoms: O_25  and  C_26
                            x       y       z     vdW  Elec       q    Type
                         _______ _______ _______ _____ _____    ______ ____

>  <TORSDO>
F 4

$$$$
=
 OpenBabel10272413383D

 32 36  0  0  1  0  0  0  0  0999 V2000
  189.4640  177.6480  142.2980 C   0  0  0  0  0  0  0  0  0  0  0  0
  192.1060  176.5340  138.1340 C   0  0  0  0  0  0  0  0  0  0  0  0
  194.1170  175.0730  137.6680 C   0  0  2  0  0  3  0  0  0  0  0  0
  195.1290  174.6380  136.6520 C   0  0  0  0  0  0  0  0  0  0  0  0
  191.4560  177.2370  140.3650 C   0  0  0  0  0  0  0  0  0  0  0  0
  189.7650  176.4750  138.7970 C   0  0  0  0  0  3  0  0  0  0  0  0
  197.0020  173.7210  134.7800 C   0  0  0  0  0  3  0  0  0  0  0  0
  189.1180  177.1600  141.0270 C   0  0  0  0  0  3  0  0  0  0  0  0
  190.7500  176.2640  137.8220 C   0  0  0  0  0  0  0  0  0  0  0  0
  190.3110  175.8360  136.4400 C   0  0  2  0  0  3  0  0  0  0  0  0
  192.7180  176.0450  135.7180 C   0  0  2  0  0  3  0  0  0  0  0  0
  197.2170  173.5110  136.1450 C   0  0  0  0  0  3  0  0  0  0  0  0
  190.8040  177.9270  142.5920 C   0  0  0  0  0  3  0  0  0  0  0  0
  190.1080  176.9530  140.0620 C   0  0  0  0  0  0  0  0  0  0  0  0
  196.2810  173.9660  137.0780 C   0  0  0  0  0  3  0  0  0  0  0  0
  191.7980  177.7220  141.6290 C   0  0  0  0  0  3  0  0  0  0  0  0
  191.4370  175.2110  135.6130 C   0  0  1  0  0  3  0  0  0  0  0  0
  193.7570  175.5500  134.8200 N   0  0  0  0  0  2  0  0  0  0  0  0
  192.4430  177.0210  139.4030 C   0  0  0  0  0  3  0  0  0  0  0  0
  193.3640  173.9750  138.0900 O   0  0  0  0  0  1  0  0  0  0  0  0
  195.8520  174.3870  134.3480 C   0  0  0  0  0  3  0  0  0  0  0  0
  193.2200  176.2240  137.1650 C   0  0  1  0  0  3  0  0  0  0  0  0
  194.9110  174.8410  135.2770 C   0  0  0  0  0  0  0  0  0  0  0  0
  188.3230  176.9080  135.6410 O   0  0  0  0  0  1  0  0  0  0  0  0
  189.7150  177.0070  135.6710 C   0  0  0  0  0  2  0  0  0  0  0  0
  190.4660  173.2220  135.6610 C   0  0  0  0  0  1  0  0  0  0  0  0
  191.6480  173.8840  135.9960 O   0  0  0  0  0  0  0  0  0  0  0  0
  188.6020  177.4130  144.4820 N   0  0  0  0  0  0  0  0  0  0  0  0
  188.4700  177.8680  143.3020 N   0  0  0  0  0  0  0  0  0  0  0  0
  187.6020  177.6400  145.4750 C   0  0  0  0  0  0  0  0  0  0  0  0
  186.2180  177.9870  145.0580 C   0  0  0  0  0  1  0  0  0  0  0  0
  187.8790  177.5490  146.7010 O   0  0  0  0  0  0  0  0  0  0  0  0
  1 13  1  0  0  0  0
  1 29  1  0  0  0  0
  2 19  1  0  0  0  0
  3 20  1  6  0  0  0
  4 15  1  0  0  0  0
  4  3  1  0  0  0  0
  5 16  1  0  0  0  0
  6 14  2  0  0  0  0
  7 12  1  0  0  0  0
  8  1  2  0  0  0  0
  9  2  2  0  0  0  0
  9  6  1  0  0  0  0
 10 25  1  6  0  0  0
 10  9  1  0  0  0  0
 11 18  1  6  0  0  0
 11 22  1  0  0  0  0
 12 15  2  0  0  0  0
 14  5  1  0  0  0  0
 14  8  1  0  0  0  0
 16 13  2  0  0  0  0
 17 11  1  0  0  0  0
 17 27  1  1  0  0  0
 17 10  1  0  0  0  0
 18 23  1  0  0  0  0
 19  5  2  0  0  0  0
 21  7  2  0  0  0  0
 21 23  1  0  0  0  0
 22  3  1  0  0  0  0
 22  2  1  1  0  0  0
 23  4  2  0  0  0  0
 24 25  1  0  0  0  0
 26 27  1  0  0  0  0
 28 30  1  0  0  0  0
 29 28  2  0  0  0  0
 30 32  2  0  0  0  0
 31 30  1  0  0  0  0
M  END
>  <MODEL>
3

>  <REMARK>
 VINA RESULT:      -6.6      1.665      2.070
  Name = 
  4 active torsions:
  status: ('A' for Active; 'I' for Inactive)
    1  A    between atoms: C_1  and  N_10
    2  A    between atoms: C_2  and  N_24
    3  A    between atoms: C_13  and  C_15
    4  A    between atoms: O_25  and  C_26
                            x       y       z     vdW  Elec       q    Type
                         _______ _______ _______ _____ _____    ______ ____

>  <TORSDO>
F 4

$$$$
=
 OpenBabel10272413383D

 32 36  0  0  1  0  0  0  0  0999 V2000
  186.8780  178.4670  141.5810 C   0  0  0  0  0  0  0  0  0  0  0  0
  189.8290  176.9440  137.7690 C   0  0  0  0  0  0  0  0  0  0  0  0
  191.5200  175.0840  137.4920 C   0  0  2  0  0  3  0  0  0  0  0  0
  192.5590  174.4700  136.6030 C   0  0  0  0  0  0  0  0  0  0  0  0
  189.0080  177.6890  139.9290 C   0  0  0  0  0  0  0  0  0  0  0  0
  187.4580  177.3910  138.0840 C   0  0  0  0  0  3  0  0  0  0  0  0
  194.4540  173.2250  134.9570 C   0  0  0  0  0  3  0  0  0  0  0  0
  186.6370  178.1190  140.2420 C   0  0  0  0  0  3  0  0  0  0  0  0
  188.5120  177.0010  137.2480 C   0  0  0  0  0  0  0  0  0  0  0  0
  188.2110  176.7360  135.7900 C   0  0  2  0  0  3  0  0  0  0  0  0
  190.6880  176.4220  135.4380 C   0  0  2  0  0  3  0  0  0  0  0  0
  194.4030  172.9200  136.3200 C   0  0  0  0  0  3  0  0  0  0  0  0
  188.1840  178.4230  142.0840 C   0  0  0  0  0  3  0  0  0  0  0  0
  187.6950  177.7300  139.4170 C   0  0  0  0  0  0  0  0  0  0  0  0
  193.4550  173.5380  137.1390 C   0  0  0  0  0  3  0  0  0  0  0  0
  189.2460  178.0350  141.2610 C   0  0  0  0  0  3  0  0  0  0  0  0
  189.2890  175.9050  135.0900 C   0  0  1  0  0  3  0  0  0  0  0  0
  191.7210  175.7400  134.6640 N   0  0  0  0  0  2  0  0  0  0  0  0
  190.0620  177.2920  139.1060 C   0  0  0  0  0  3  0  0  0  0  0  0
  190.4890  174.1700  137.7210 O   0  0  0  0  0  1  0  0  0  0  0  0
  193.5590  174.1510  134.4130 C   0  0  0  0  0  3  0  0  0  0  0  0
  190.9860  176.4270  136.9510 C   0  0  1  0  0  3  0  0  0  0  0  0
  192.6070  174.7700  135.2290 C   0  0  0  0  0  0  0  0  0  0  0  0
  186.7680  178.0480  134.3990 O   0  0  0  0  0  1  0  0  0  0  0  0
  188.0130  178.0410  135.0300 C   0  0  0  0  0  2  0  0  0  0  0  0
  187.8660  174.2140  134.9490 C   0  0  0  0  0  1  0  0  0  0  0  0
  189.1430  174.5510  135.4020 O   0  0  0  0  0  0  0  0  0  0  0  0
  184.6320  178.4140  142.3050 N   0  0  0  0  0  0  0  0  0  0  0  0
  185.8120  178.8680  142.4460 N   0  0  0  0  0  0  0  0  0  0  0  0
  183.5770  178.8230  143.1750 C   0  0  0  0  0  0  0  0  0  0  0  0
  183.8100  178.8650  144.6430 C   0  0  0  0  0  1  0  0  0  0  0  0
  182.4510  179.1490  142.7130 O   0  0  0  0  0  0  0  0  0  0  0  0
  1 13  1  0  0  0  0
  1 29  1  0  0  0  0
  2 19  1  0  0  0  0
  3 20  1  6  0  0  0
  4 15  1  0  0  0  0
  4  3  1  0  0  0  0
  5 16  1  0  0  0  0
  6 14  2  0  0  0  0
  7 12  1  0  0  0  0
  8  1  2  0  0  0  0
  9  2  2  0  0  0  0
  9  6  1  0  0  0  0
 10 25  1  6  0  0  0
 10  9  1  0  0  0  0
 11 18  1  6  0  0  0
 11 22  1  0  0  0  0
 12 15  2  0  0  0  0
 14  5  1  0  0  0  0
 14  8  1  0  0  0  0
 16 13  2  0  0  0  0
 17 27  1  1  0  0  0
 17 11  1  0  0  0  0
 17 10  1  0  0  0  0
 18 23  1  0  0  0  0
 19  5  2  0  0  0  0
 21  7  2  0  0  0  0
 21 23  1  0  0  0  0
 22  3  1  0  0  0  0
 22  2  1  1  0  0  0
 23  4  2  0  0  0  0
 24 25  1  0  0  0  0
 26 27  1  0  0  0  0
 28 29  2  0  0  0  0
 28 30  1  0  0  0  0
 30 31  1  0  0  0  0
 32 30  2  0  0  0  0
M  END
>  <MODEL>
4

>  <REMARK>
 VINA RESULT:      -6.1      2.243      2.575
  Name = 
  4 active torsions:
  status: ('A' for Active; 'I' for Inactive)
    1  A    between atoms: C_1  and  N_10
    2  A    between atoms: C_2  and  N_24
    3  A    between atoms: C_13  and  C_15
    4  A    between atoms: O_25  and  C_26
                            x       y       z     vdW  Elec       q    Type
                         _______ _______ _______ _____ _____    ______ ____

>  <TORSDO>
F 4

$$$$
=
 OpenBabel10272413383D

 32 36  0  0  1  0  0  0  0  0999 V2000
  182.7600  178.5530  138.5190 C   0  0  0  0  0  0  0  0  0  0  0  0
  186.7000  178.6160  141.6870 C   0  0  0  0  0  0  0  0  0  0  0  0
  187.0810  177.7540  144.0340 C   0  0  2  0  0  3  0  0  0  0  0  0
  188.0180  177.7010  145.2020 C   0  0  0  0  0  0  0  0  0  0  0  0
  184.4960  178.8700  140.7010 C   0  0  0  0  0  0  0  0  0  0  0  0
  186.3030  177.9110  139.3920 C   0  0  0  0  0  3  0  0  0  0  0  0
  189.7540  177.4950  147.3920 C   0  0  0  0  0  3  0  0  0  0  0  0
  184.1010  178.1490  138.4130 C   0  0  0  0  0  3  0  0  0  0  0  0
  187.1800  178.0640  140.4740 C   0  0  0  0  0  0  0  0  0  0  0  0
  188.6370  177.7080  140.2720 C   0  0  2  0  0  3  0  0  0  0  0  0
  189.0700  178.5800  142.5970 C   0  0  2  0  0  3  0  0  0  0  0  0
  188.4000  177.1840  147.5410 C   0  0  0  0  0  3  0  0  0  0  0  0
  182.2980  179.1120  139.7160 C   0  0  0  0  0  3  0  0  0  0  0  0
  184.9680  178.3040  139.4980 C   0  0  0  0  0  0  0  0  0  0  0  0
  187.5350  177.2830  146.4480 C   0  0  0  0  0  3  0  0  0  0  0  0
  183.1620  179.2700  140.8040 C   0  0  0  0  0  3  0  0  0  0  0  0
  189.3920  177.4790  141.5830 C   0  0  1  0  0  3  0  0  0  0  0  0
  189.8930  178.4630  143.7980 N   0  0  0  0  0  2  0  0  0  0  0  0
  185.3610  179.0160  141.7850 C   0  0  0  0  0  3  0  0  0  0  0  0
  186.8490  176.4630  143.5510 O   0  0  0  0  0  1  0  0  0  0  0  0
  190.2440  177.9080  146.1500 C   0  0  0  0  0  3  0  0  0  0  0  0
  187.5670  178.7040  142.9190 C   0  0  1  0  0  3  0  0  0  0  0  0
  189.3830  178.0070  145.0530 C   0  0  0  0  0  0  0  0  0  0  0  0
  189.2140  178.5310  138.0970 O   0  0  0  0  0  1  0  0  0  0  0  0
  189.3520  178.7830  139.4630 C   0  0  0  0  0  2  0  0  0  0  0  0
  190.3350  175.7490  142.5940 C   0  0  0  0  0  1  0  0  0  0  0  0
  189.1160  176.2070  142.0910 O   0  0  0  0  0  0  0  0  0  0  0  0
  182.2630  178.1340  136.2500 N   0  0  0  0  0  0  0  0  0  0  0  0
  181.8540  178.4040  137.4240 N   0  0  0  0  0  0  0  0  0  0  0  0
  181.3470  177.9880  135.1650 C   0  0  0  0  0  0  0  0  0  0  0  0
  180.3770  179.0760  134.8710 C   0  0  0  0  0  1  0  0  0  0  0  0
  181.3510  176.9480  134.4540 O   0  0  0  0  0  0  0  0  0  0  0  0
  1 13  1  0  0  0  0
  2 19  1  0  0  0  0
  3 20  1  6  0  0  0
  3  4  1  0  0  0  0
  4 15  1  0  0  0  0
  5 16  1  0  0  0  0
  5 19  2  0  0  0  0
  6 14  2  0  0  0  0
  6  9  1  0  0  0  0
  7 12  1  0  0  0  0
  8  1  2  0  0  0  0
  8 14  1  0  0  0  0
  9  2  2  0  0  0  0
 10 25  1  1  0  0  0
 10  9  1  0  0  0  0
 10 17  1  0  0  0  0
 11 22  1  0  0  0  0
 11 18  1  1  0  0  0
 13 16  2  0  0  0  0
 14  5  1  0  0  0  0
 15 12  2  0  0  0  0
 17 27  1  1  0  0  0
 17 11  1  0  0  0  0
 18 23  1  0  0  0  0
 21  7  2  0  0  0  0
 22  2  1  6  0  0  0
 22  3  1  0  0  0  0
 23  4  2  0  0  0  0
 23 21  1  0  0  0  0
 24 25  1  0  0  0  0
 27 26  1  0  0  0  0
 28 29  2  0  0  0  0
 29  1  1  0  0  0  0
 30 28  1  0  0  0  0
 31 30  1  0  0  0  0
 32 30  2  0  0  0  0
M  END
>  <MODEL>
5

>  <REMARK>
 VINA RESULT:      -5.7      4.480      8.966
  Name = 
  4 active torsions:
  status: ('A' for Active; 'I' for Inactive)
    1  A    between atoms: C_1  and  N_10
    2  A    between atoms: C_2  and  N_24
    3  A    between atoms: C_13  and  C_15
    4  A    between atoms: O_25  and  C_26
                            x       y       z     vdW  Elec       q    Type
                         _______ _______ _______ _____ _____    ______ ____

>  <TORSDO>
F 4

$$$$
=
 OpenBabel10272413383D

 32 36  0  0  1  0  0  0  0  0999 V2000
  185.5030  178.3110  144.8730 C   0  0  0  0  0  0  0  0  0  0  0  0
  182.6610  178.8940  140.7320 C   0  0  0  0  0  0  0  0  0  0  0  0
  182.1980  180.8350  139.1790 C   0  0  2  0  0  3  0  0  0  0  0  0
  181.3930  181.3330  138.0160 C   0  0  0  0  0  0  0  0  0  0  0  0
  183.6640  179.1530  142.9280 C   0  0  0  0  0  0  0  0  0  0  0  0
  184.4000  177.3580  141.4670 C   0  0  0  0  0  3  0  0  0  0  0  0
  179.9820  182.2990  135.7970 C   0  0  0  0  0  3  0  0  0  0  0  0
  185.4120  177.6260  143.6510 C   0  0  0  0  0  3  0  0  0  0  0  0
  183.4870  177.7680  140.4870 C   0  0  0  0  0  0  0  0  0  0  0  0
  183.3580  176.9330  139.2320 C   0  0  2  0  0  3  0  0  0  0  0  0
  181.4550  178.4370  138.5450 C   0  0  2  0  0  3  0  0  0  0  0  0
  180.6480  183.1890  136.6440 C   0  0  0  0  0  3  0  0  0  0  0  0
  184.6730  179.4130  145.1130 C   0  0  0  0  0  3  0  0  0  0  0  0
  184.4980  178.0430  142.6790 C   0  0  0  0  0  0  0  0  0  0  0  0
  181.3550  182.7060  137.7480 C   0  0  0  0  0  3  0  0  0  0  0  0
  183.7560  179.8330  144.1440 C   0  0  0  0  0  3  0  0  0  0  0  0
  182.7000  177.6820  138.0710 C   0  0  1  0  0  3  0  0  0  0  0  0
  180.7300  179.0340  137.4270 N   0  0  0  0  0  2  0  0  0  0  0  0
  182.7590  179.5720  141.9540 C   0  0  0  0  0  3  0  0  0  0  0  0
  183.5570  180.8480  138.8570 O   0  0  0  0  0  1  0  0  0  0  0  0
  180.0210  180.9260  136.0550 C   0  0  0  0  0  3  0  0  0  0  0  0
  181.7380  179.4480  139.6750 C   0  0  1  0  0  3  0  0  0  0  0  0
  180.7280  180.4380  137.1580 C   0  0  0  0  0  0  0  0  0  0  0  0
  182.2230  175.0370  138.3080 O   0  0  0  0  0  1  0  0  0  0  0  0
  182.5800  175.6530  139.5080 C   0  0  0  0  0  2  0  0  0  0  0  0
  184.6890  177.7080  137.0970 C   0  0  0  0  0  1  0  0  0  0  0  0
  183.6210  178.5320  137.4530 O   0  0  0  0  0  0  0  0  0  0  0  0
  187.6870  178.0060  145.7150 N   0  0  0  0  0  0  0  0  0  0  0  0
  186.4300  177.9050  145.8820 N   0  0  0  0  0  0  0  0  0  0  0  0
  188.6020  177.5960  146.7310 C   0  0  0  0  0  0  0  0  0  0  0  0
  188.2720  177.8410  148.1590 C   0  0  0  0  0  1  0  0  0  0  0  0
  189.6850  177.0270  146.4300 O   0  0  0  0  0  0  0  0  0  0  0  0
  1 13  1  0  0  0  0
  1 29  1  0  0  0  0
  2 19  1  0  0  0  0
  3 20  1  6  0  0  0
  3 22  1  0  0  0  0
  4  3  1  0  0  0  0
  5 16  1  0  0  0  0
  6 14  2  0  0  0  0
  7 21  2  0  0  0  0
  7 12  1  0  0  0  0
  8  1  2  0  0  0  0
  9  2  2  0  0  0  0
  9  6  1  0  0  0  0
 10 25  1  1  0  0  0
 10  9  1  0  0  0  0
 11 18  1  6  0  0  0
 11 22  1  0  0  0  0
 12 15  2  0  0  0  0
 14  5  1  0  0  0  0
 14  8  1  0  0  0  0
 15  4  1  0  0  0  0
 16 13  2  0  0  0  0
 17 27  1  1  0  0  0
 17 11  1  0  0  0  0
 17 10  1  0  0  0  0
 19  5  2  0  0  0  0
 21 23  1  0  0  0  0
 22  2  1  1  0  0  0
 23 18  1  0  0  0  0
 23  4  2  0  0  0  0
 24 25  1  0  0  0  0
 26 27  1  0  0  0  0
 28 29  2  0  0  0  0
 28 30  1  0  0  0  0
 30 31  1  0  0  0  0
 32 30  2  0  0  0  0
M  END
>  <MODEL>
6

>  <REMARK>
 VINA RESULT:      -5.6      6.552      9.216
  Name = 
  4 active torsions:
  status: ('A' for Active; 'I' for Inactive)
    1  A    between atoms: C_1  and  N_10
    2  A    between atoms: C_2  and  N_24
    3  A    between atoms: C_13  and  C_15
    4  A    between atoms: O_25  and  C_26
                            x       y       z     vdW  Elec       q    Type
                         _______ _______ _______ _____ _____    ______ ____

>  <TORSDO>
F 4

$$$$
=
 OpenBabel10272413383D

 32 36  0  0  1  0  0  0  0  0999 V2000
  192.5920  174.9870  137.6600 C   0  0  0  0  0  0  0  0  0  0  0  0
  187.8170  174.9250  135.9980 C   0  0  0  0  0  0  0  0  0  0  0  0
  185.9360  173.2410  136.1250 C   0  0  2  0  0  3  0  0  0  0  0  0
  184.5450  172.8950  135.6850 C   0  0  0  0  0  0  0  0  0  0  0  0
  190.1380  174.3700  136.4490 C   0  0  0  0  0  0  0  0  0  0  0  0
  189.1900  176.4190  137.3430 C   0  0  0  0  0  3  0  0  0  0  0  0
  181.9210  172.2240  134.9660 C   0  0  0  0  0  3  0  0  0  0  0  0
  191.4990  175.8570  137.8060 C   0  0  0  0  0  3  0  0  0  0  0  0
  187.9590  176.1230  136.7440 C   0  0  0  0  0  0  0  0  0  0  0  0
  186.8470  177.1430  136.8480 C   0  0  2  0  0  3  0  0  0  0  0  0
  185.4820  175.6630  135.3300 C   0  0  2  0  0  3  0  0  0  0  0  0
  182.7750  171.2480  135.4870 C   0  0  0  0  0  3  0  0  0  0  0  0
  192.4490  173.8150  136.9080 C   0  0  0  0  0  3  0  0  0  0  0  0
  190.2750  175.5520  137.2050 C   0  0  0  0  0  0  0  0  0  0  0  0
  184.0820  171.5840  135.8490 C   0  0  0  0  0  3  0  0  0  0  0  0
  191.2260  173.5060  136.3050 C   0  0  0  0  0  3  0  0  0  0  0  0
  185.4600  176.5570  136.5730 C   0  0  1  0  0  3  0  0  0  0  0  0
  184.1410  175.2160  134.9650 N   0  0  0  0  0  2  0  0  0  0  0  0
  188.9120  174.0630  135.8580 C   0  0  0  0  0  3  0  0  0  0  0  0
  185.9790  173.3610  137.5160 O   0  0  0  0  0  1  0  0  0  0  0  0
  182.3750  173.5360  134.8050 C   0  0  0  0  0  3  0  0  0  0  0  0
  186.4900  174.4990  135.4240 C   0  0  1  0  0  3  0  0  0  0  0  0
  183.6820  173.8770  135.1680 C   0  0  0  0  0  0  0  0  0  0  0  0
  187.4280  179.4560  136.6290 O   0  0  0  0  0  1  0  0  0  0  0  0
  187.0920  178.3130  135.9040 C   0  0  0  0  0  2  0  0  0  0  0  0
  183.8780  176.6100  138.1230 C   0  0  0  0  0  1  0  0  0  0  0  0
  184.9850  175.8740  137.6960 O   0  0  0  0  0  0  0  0  0  0  0  0
  194.7250  174.3690  138.4610 N   0  0  0  0  0  0  0  0  0  0  0  0
  193.8550  175.2760  138.2650 N   0  0  0  0  0  0  0  0  0  0  0  0
  195.9820  174.6720  139.0660 C   0  0  0  0  0  0  0  0  0  0  0  0
  197.2410  174.2890  138.3760 C   0  0  0  0  0  1  0  0  0  0  0  0
  196.0350  175.2610  140.1790 O   0  0  0  0  0  0  0  0  0  0  0  0
  1  8  1  0  0  0  0
  1 29  1  0  0  0  0
  2  9  1  0  0  0  0
  3 20  1  1  0  0  0
  4 15  1  0  0  0  0
  4  3  1  0  0  0  0
  5 14  1  0  0  0  0
  7 12  1  0  0  0  0
  9 10  1  0  0  0  0
  9  6  2  0  0  0  0
 10 25  1  6  0  0  0
 11 18  1  1  0  0  0
 11 22  1  0  0  0  0
 11 17  1  0  0  0  0
 12 15  2  0  0  0  0
 13  1  2  0  0  0  0
 14  6  1  0  0  0  0
 14  8  2  0  0  0  0
 16  5  2  0  0  0  0
 16 13  1  0  0  0  0
 17 10  1  0  0  0  0
 17 27  1  1  0  0  0
 18 23  1  0  0  0  0
 19  2  2  0  0  0  0
 19  5  1  0  0  0  0
 21  7  2  0  0  0  0
 21 23  1  0  0  0  0
 22  2  1  1  0  0  0
 22  3  1  0  0  0  0
 23  4  2  0  0  0  0
 25 24  1  0  0  0  0
 27 26  1  0  0  0  0
 28 30  1  0  0  0  0
 29 28  2  0  0  0  0
 30 32  2  0  0  0  0
 31 30  1  0  0  0  0
M  END
>  <MODEL>
7

>  <REMARK>
 VINA RESULT:      -5.1      4.842      7.835
  Name = 
  4 active torsions:
  status: ('A' for Active; 'I' for Inactive)
    1  A    between atoms: C_1  and  N_10
    2  A    between atoms: C_2  and  N_24
    3  A    between atoms: C_13  and  C_15
    4  A    between atoms: O_25  and  C_26
                            x       y       z     vdW  Elec       q    Type
                         _______ _______ _______ _____ _____    ______ ____

>  <TORSDO>
F 4

$$$$
=
 OpenBabel10272413383D

 32 36  0  0  1  0  0  0  0  0999 V2000
  186.2530  176.5110  136.9510 C   0  0  0  0  0  0  0  0  0  0  0  0
  190.8900  174.5120  137.1960 C   0  0  0  0  0  0  0  0  0  0  0  0
  192.2070  172.9430  135.7130 C   0  0  2  0  0  3  0  0  0  0  0  0
  193.4610  172.1380  135.5580 C   0  0  0  0  0  0  0  0  0  0  0  0
  188.4880  174.8170  137.0160 C   0  0  0  0  0  0  0  0  0  0  0  0
  189.9330  176.7470  137.3050 C   0  0  0  0  0  3  0  0  0  0  0  0
  195.8200  170.6750  135.1690 C   0  0  0  0  0  3  0  0  0  0  0  0
  187.5390  177.0520  137.1090 C   0  0  0  0  0  3  0  0  0  0  0  0
  191.0580  175.9130  137.3380 C   0  0  0  0  0  0  0  0  0  0  0  0
  192.4070  176.5380  137.6120 C   0  0  2  0  0  3  0  0  0  0  0  0
  193.3700  174.2090  137.6490 C   0  0  2  0  0  3  0  0  0  0  0  0
  194.6980  170.4180  134.3760 C   0  0  0  0  0  3  0  0  0  0  0  0
  186.0940  175.1260  136.8270 C   0  0  0  0  0  3  0  0  0  0  0  0
  188.6550  176.2120  137.1400 C   0  0  0  0  0  0  0  0  0  0  0  0
  193.5240  171.1510  134.5680 C   0  0  0  0  0  3  0  0  0  0  0  0
  187.2080  174.2800  136.8590 C   0  0  0  0  0  3  0  0  0  0  0  0
  193.5820  175.6540  137.1900 C   0  0  1  0  0  3  0  0  0  0  0  0
  194.5450  173.3830  137.3880 N   0  0  0  0  0  2  0  0  0  0  0  0
  189.6040  173.9800  137.0390 C   0  0  0  0  0  3  0  0  0  0  0  0
  192.1290  173.9030  134.7000 O   0  0  0  0  0  1  0  0  0  0  0  0
  195.7660  171.6620  136.1570 C   0  0  0  0  0  3  0  0  0  0  0  0
  192.0700  173.5750  137.1140 C   0  0  1  0  0  3  0  0  0  0  0  0
  194.5940  172.3990  136.3510 C   0  0  0  0  0  0  0  0  0  0  0  0
  193.8740  177.2360  139.3730 O   0  0  0  0  0  1  0  0  0  0  0  0
  192.5520  176.8940  139.0870 C   0  0  0  0  0  2  0  0  0  0  0  0
  194.6380  176.8290  135.6370 C   0  0  0  0  0  1  0  0  0  0  0  0
  193.7860  175.7370  135.8090 O   0  0  0  0  0  0  0  0  0  0  0  0
  184.1290  177.1900  137.7270 N   0  0  0  0  0  0  0  0  0  0  0  0
  185.0960  177.3500  136.9160 N   0  0  0  0  0  0  0  0  0  0  0  0
  182.9800  178.0350  137.6810 C   0  0  0  0  0  0  0  0  0  0  0  0
  182.8130  179.1060  138.6970 C   0  0  0  0  0  1  0  0  0  0  0  0
  182.1050  177.8830  136.7870 O   0  0  0  0  0  0  0  0  0  0  0  0
  1  8  1  0  0  0  0
  2  9  1  0  0  0  0
  3 20  1  6  0  0  0
  3 22  1  0  0  0  0
  4  3  1  0  0  0  0
  4 23  1  0  0  0  0
  5 19  1  0  0  0  0
  5 14  1  0  0  0  0
  6  9  2  0  0  0  0
  7 21  1  0  0  0  0
  8 14  2  0  0  0  0
  9 10  1  0  0  0  0
 10 25  1  1  0  0  0
 11 18  1  6  0  0  0
 12 15  1  0  0  0  0
 12  7  2  0  0  0  0
 13 16  1  0  0  0  0
 13  1  2  0  0  0  0
 14  6  1  0  0  0  0
 15  4  2  0  0  0  0
 16  5  2  0  0  0  0
 17 27  1  6  0  0  0
 17 10  1  0  0  0  0
 17 11  1  0  0  0  0
 19  2  2  0  0  0  0
 21 23  2  0  0  0  0
 22  2  1  6  0  0  0
 22 11  1  0  0  0  0
 23 18  1  0  0  0  0
 25 24  1  0  0  0  0
 26 27  1  0  0  0  0
 29  1  1  0  0  0  0
 29 28  2  0  0  0  0
 30 28  1  0  0  0  0
 30 31  1  0  0  0  0
 32 30  2  0  0  0  0
M  END
>  <MODEL>
8

>  <REMARK>
 VINA RESULT:      -5.0      4.675      5.794
  Name = 
  4 active torsions:
  status: ('A' for Active; 'I' for Inactive)
    1  A    between atoms: C_1  and  N_10
    2  A    between atoms: C_2  and  N_24
    3  A    between atoms: C_13  and  C_15
    4  A    between atoms: O_25  and  C_26
                            x       y       z     vdW  Elec       q    Type
                         _______ _______ _______ _____ _____    ______ ____

>  <TORSDO>
F 4

$$$$
=
 OpenBabel10272413383D

 32 36  0  0  1  0  0  0  0  0999 V2000
  189.2440  177.2750  140.0850 C   0  0  0  0  0  0  0  0  0  0  0  0
  193.1070  175.5920  137.2920 C   0  0  0  0  0  0  0  0  0  0  0  0
  195.3500  174.5580  137.8380 C   0  0  2  0  0  3  0  0  0  0  0  0
  196.6630  174.0810  137.2970 C   0  0  0  0  0  0  0  0  0  0  0  0
  191.7470  176.7660  138.9250 C   0  0  0  0  0  0  0  0  0  0  0  0
  190.7070  175.2020  137.3860 C   0  0  0  0  0  3  0  0  0  0  0  0
  199.1070  173.0950  136.3420 C   0  0  0  0  0  3  0  0  0  0  0  0
  189.3530  176.3610  139.0250 C   0  0  0  0  0  3  0  0  0  0  0  0
  191.9510  174.9380  136.7980 C   0  0  0  0  0  0  0  0  0  0  0  0
  191.9950  174.0240  135.5940 C   0  0  2  0  0  3  0  0  0  0  0  0
  194.4540  174.5500  135.4090 C   0  0  2  0  0  3  0  0  0  0  0  0
  198.9440  173.3620  137.7040 C   0  0  0  0  0  3  0  0  0  0  0  0
  190.3890  177.9280  140.5570 C   0  0  0  0  0  3  0  0  0  0  0  0
  190.5980  176.1040  138.4450 C   0  0  0  0  0  0  0  0  0  0  0  0
  197.7240  173.8500  138.1800 C   0  0  0  0  0  3  0  0  0  0  0  0
  191.6370  177.6750  139.9800 C   0  0  0  0  0  3  0  0  0  0  0  0
  193.3880  173.4540  135.3170 C   0  0  1  0  0  3  0  0  0  0  0  0
  195.7670  174.0590  135.0020 N   0  0  0  0  0  2  0  0  0  0  0  0
  192.9900  176.5020  138.3500 C   0  0  0  0  0  3  0  0  0  0  0  0
  194.6670  173.4970  138.4370 O   0  0  0  0  0  1  0  0  0  0  0  0
  198.0500  173.3180  135.4550 C   0  0  0  0  0  3  0  0  0  0  0  0
  194.4860  175.2680  136.7730 C   0  0  1  0  0  3  0  0  0  0  0  0
  196.8270  173.8040  135.9270 C   0  0  0  0  0  0  0  0  0  0  0  0
  190.3430  175.4770  134.6460 O   0  0  0  0  0  1  0  0  0  0  0  0
  191.4900  174.7400  134.3480 C   0  0  0  0  0  2  0  0  0  0  0  0
  193.5450  171.2460  135.3860 C   0  0  0  0  0  1  0  0  0  0  0  0
  193.6620  172.3890  136.1790 O   0  0  0  0  0  0  0  0  0  0  0  0
  187.8650  178.4140  141.6260 N   0  0  0  0  0  0  0  0  0  0  0  0
  187.9820  177.5540  140.6950 N   0  0  0  0  0  0  0  0  0  0  0  0
  186.5980  178.6830  142.2270 C   0  0  0  0  0  0  0  0  0  0  0  0
  186.2400  178.0260  143.5110 C   0  0  0  0  0  1  0  0  0  0  0  0
  185.7810  179.4710  141.6800 O   0  0  0  0  0  0  0  0  0  0  0  0
  1 13  1  0  0  0  0
  1 29  1  0  0  0  0
  2 19  1  0  0  0  0
  3 20  1  6  0  0  0
  4  3  1  0  0  0  0
  4 15  1  0  0  0  0
  5 16  1  0  0  0  0
  6 14  2  0  0  0  0
  7 12  1  0  0  0  0
  8  1  2  0  0  0  0
  9  2  2  0  0  0  0
  9  6  1  0  0  0  0
 10 25  1  6  0  0  0
 10  9  1  0  0  0  0
 11 18  1  1  0  0  0
 11 22  1  0  0  0  0
 12 15  2  0  0  0  0
 14  5  1  0  0  0  0
 14  8  1  0  0  0  0
 16 13  2  0  0  0  0
 17 11  1  0  0  0  0
 17 10  1  0  0  0  0
 17 27  1  1  0  0  0
 18 23  1  0  0  0  0
 19  5  2  0  0  0  0
 21 23  1  0  0  0  0
 21  7  2  0  0  0  0
 22  2  1  1  0  0  0
 22  3  1  0  0  0  0
 23  4  2  0  0  0  0
 25 24  1  0  0  0  0
 26 27  1  0  0  0  0
 28 30  1  0  0  0  0
 29 28  2  0  0  0  0
 30 31  1  0  0  0  0
 32 30  2  0  0  0  0
M  END
>  <MODEL>
9

>  <REMARK>
 VINA RESULT:      -4.8      2.695      4.263
  Name = 
  4 active torsions:
  status: ('A' for Active; 'I' for Inactive)
    1  A    between atoms: C_1  and  N_10
    2  A    between atoms: C_2  and  N_24
    3  A    between atoms: C_13  and  C_15
    4  A    between atoms: O_25  and  C_26
                            x       y       z     vdW  Elec       q    Type
                         _______ _______ _______ _____ _____    ______ ____

>  <TORSDO>
F 4

$$$$
