=
 OpenBabel10272400173D

 31 35  0  0  1  0  0  0  0  0999 V2000
  184.4460  178.8200  144.4680 C   0  0  0  0  0  0  0  0  0  0  0  0
  188.0030  177.8080  143.7380 C   0  0  0  0  0  0  0  0  0  0  0  0
  188.6030  177.3910  144.9530 C   0  0  0  0  0  0  0  0  0  0  0  0
  187.8390  177.5650  147.2980 C   0  0  0  0  0  3  0  0  0  0  0  0
  186.4960  177.7790  143.5250 C   0  0  1  0  0  3  0  0  0  0  0  0
  183.7940  178.8570  143.1010 C   0  0  0  0  0  2  0  0  0  0  0  0
  187.7740  176.7720  146.0360 C   0  0  0  0  0  2  0  0  0  0  0  0
  188.2560  178.4990  141.2980 C   0  0  1  0  0  3  0  0  0  0  0  0
  183.7430  179.3140  145.5580 O   0  0  0  0  0  1  0  0  0  0  0  0
  190.7780  177.8100  143.9900 C   0  0  0  0  0  3  0  0  0  0  0  0
  188.9620  177.7220  147.9940 C   0  0  0  0  0  3  0  0  0  0  0  0
  186.9100  177.9480  141.1310 N   0  0  0  0  0  2  0  0  0  0  0  0
  188.8450  178.1150  142.6430 C   0  0  0  0  0  0  0  0  0  0  0  0
  185.6990  178.3840  144.6500 C   0  0  0  0  0  3  0  0  0  0  0  0
  190.2860  177.2200  147.5830 C   0  0  0  0  0  3  0  0  0  0  0  0
  186.0990  178.4660  142.2210 C   0  0  1  0  0  3  0  0  0  0  0  0
  184.6210  178.1990  141.9870 C   0  0  0  0  0  2  0  0  0  0  0  0
  190.1930  178.1340  142.8110 N   0  0  0  0  0  0  0  0  0  0  0  0
  190.0070  177.4370  145.0870 C   0  0  0  0  0  0  0  0  0  0  0  0
  190.7330  177.0920  146.3270 C   0  0  0  0  0  3  0  0  0  0  0  0
  189.1430  178.0290  140.1510 C   0  0  0  0  0  2  0  0  0  0  0  0
  189.0310  179.0340  137.8950 C   0  0  0  0  0  1  0  0  0  0  0  0
  188.3830  178.0360  138.8340 C   0  0  1  0  0  3  0  0  0  0  0  0
  185.1100  176.3880  136.6390 C   0  0  0  0  0  0  0  0  0  0  0  0
  188.4130  176.7090  138.2360 N   0  0  0  0  0  2  0  0  0  0  0  0
  186.3520  174.3680  136.2170 C   0  0  0  0  0  3  0  0  0  0  0  0
  183.8740  177.2000  136.4900 C   0  0  0  0  0  1  0  0  0  0  0  0
  186.1670  176.8830  137.3370 N   0  0  0  0  0  0  0  0  0  0  0  0
  187.4270  174.8950  136.9360 C   0  0  0  0  0  3  0  0  0  0  0  0
  187.3180  176.1700  137.4950 C   0  0  0  0  0  0  0  0  0  0  0  0
  185.1840  175.1170  136.0650 C   0  0  0  0  0  3  0  0  0  0  0  0
  1 14  2  0  0  0  0
  1  9  1  0  0  0  0
  2  3  1  0  0  0  0
  3 19  2  0  0  0  0
  3  7  1  0  0  0  0
  4 11  2  0  0  0  0
  5  2  1  0  0  0  0
  5 14  1  1  0  0  0
  6  1  1  0  0  0  0
  7  4  1  0  0  0  0
  8 21  1  6  0  0  0
  8 13  1  0  0  0  0
 10 19  1  0  0  0  0
 12  8  1  0  0  0  0
 12 16  1  0  0  0  0
 13 18  1  0  0  0  0
 13  2  2  0  0  0  0
 15 11  1  0  0  0  0
 16 17  1  6  0  0  0
 16  5  1  0  0  0  0
 17  6  1  0  0  0  0
 18 10  2  0  0  0  0
 19 20  1  0  0  0  0
 20 15  2  0  0  0  0
 23 22  1  6  0  0  0
 23 21  1  0  0  0  0
 24 28  1  0  0  0  0
 25 23  1  0  0  0  0
 26 29  2  0  0  0  0
 27 24  1  0  0  0  0
 28 30  2  0  0  0  0
 29 30  1  0  0  0  0
 30 25  1  0  0  0  0
 31 26  1  0  0  0  0
 31 24  2  0  0  0  0
M  END
>  <MODEL>
1

>  <REMARK>
 VINA RESULT:     -10.2      0.000      0.000
  Name = 
  3 active torsions:
  status: ('A' for Active; 'I' for Inactive)
    1  A    between atoms: N_3  and  C_9
    2  A    between atoms: C_9  and  C_23
    3  A    between atoms: C_15  and  C_23
                            x       y       z     vdW  Elec       q    Type
                         _______ _______ _______ _____ _____    ______ ____

>  <TORSDO>
F 3

$$$$
=
 OpenBabel10272400173D

 31 35  0  0  1  0  0  0  0  0999 V2000
  184.9900  178.7070  145.1010 C   0  0  0  0  0  0  0  0  0  0  0  0
  188.3530  177.6450  143.7730 C   0  0  0  0  0  0  0  0  0  0  0  0
  189.1420  177.2030  144.8640 C   0  0  0  0  0  0  0  0  0  0  0  0
  188.7880  177.3600  147.3060 C   0  0  0  0  0  3  0  0  0  0  0  0
  186.8320  177.6440  143.8160 C   0  0  1  0  0  3  0  0  0  0  0  0
  184.1180  178.7720  143.8650 C   0  0  0  0  0  2  0  0  0  0  0  0
  188.4960  176.5850  146.0660 C   0  0  0  0  0  2  0  0  0  0  0  0
  188.2040  178.3620  141.3320 C   0  0  1  0  0  3  0  0  0  0  0  0
  184.4890  179.1980  146.2990 O   0  0  0  0  0  1  0  0  0  0  0  0
  191.1310  177.5980  143.5520 C   0  0  0  0  0  3  0  0  0  0  0  0
  190.0150  177.4900  147.8040 C   0  0  0  0  0  3  0  0  0  0  0  0
  186.8390  177.8360  141.3890 N   0  0  0  0  0  2  0  0  0  0  0  0
  189.0050  177.9520  142.5530 C   0  0  0  0  0  0  0  0  0  0  0  0
  186.2470  178.2470  145.0650 C   0  0  0  0  0  3  0  0  0  0  0  0
  191.2410  176.9710  147.1710 C   0  0  0  0  0  3  0  0  0  0  0  0
  186.2340  178.3540  142.6040 C   0  0  1  0  0  3  0  0  0  0  0  0
  184.7330  178.1140  142.6210 C   0  0  0  0  0  2  0  0  0  0  0  0
  190.3620  177.9460  142.4920 N   0  0  0  0  0  0  0  0  0  0  0  0
  190.5490  177.2240  144.7610 C   0  0  0  0  0  0  0  0  0  0  0  0
  191.4670  176.8510  145.8570 C   0  0  0  0  0  3  0  0  0  0  0  0
  188.8770  177.8920  140.0460 C   0  0  0  0  0  2  0  0  0  0  0  0
  189.3120  179.0630  137.9130 C   0  0  0  0  0  1  0  0  0  0  0  0
  188.2280  178.5260  138.8270 C   0  0  1  0  0  3  0  0  0  0  0  0
  183.9850  178.7910  138.4100 C   0  0  0  0  0  0  0  0  0  0  0  0
  187.4340  177.5340  138.1140 N   0  0  0  0  0  2  0  0  0  0  0  0
  183.9390  176.7530  137.1260 C   0  0  0  0  0  3  0  0  0  0  0  0
  183.2800  179.9410  139.0330 C   0  0  0  0  0  1  0  0  0  0  0  0
  185.3350  178.6760  138.5290 N   0  0  0  0  0  0  0  0  0  0  0  0
  185.3260  176.6540  137.2590 C   0  0  0  0  0  3  0  0  0  0  0  0
  186.0170  177.6360  137.9710 C   0  0  0  0  0  0  0  0  0  0  0  0
  183.2610  177.8280  137.7030 C   0  0  0  0  0  3  0  0  0  0  0  0
  1  9  1  0  0  0  0
  2  5  1  0  0  0  0
  2  3  1  0  0  0  0
  3  7  1  0  0  0  0
  4 11  2  0  0  0  0
  5 14  1  1  0  0  0
  6  1  1  0  0  0  0
  7  4  1  0  0  0  0
  8 21  1  6  0  0  0
  8 12  1  0  0  0  0
  8 13  1  0  0  0  0
 10 19  1  0  0  0  0
 12 16  1  0  0  0  0
 13  2  2  0  0  0  0
 14  1  2  0  0  0  0
 15 11  1  0  0  0  0
 16 17  1  6  0  0  0
 16  5  1  0  0  0  0
 17  6  1  0  0  0  0
 18 13  1  0  0  0  0
 18 10  2  0  0  0  0
 19  3  2  0  0  0  0
 19 20  1  0  0  0  0
 20 15  2  0  0  0  0
 23 22  1  6  0  0  0
 23 21  1  0  0  0  0
 24 28  1  0  0  0  0
 24 27  1  0  0  0  0
 25 23  1  0  0  0  0
 26 29  2  0  0  0  0
 26 31  1  0  0  0  0
 29 30  1  0  0  0  0
 30 25  1  0  0  0  0
 30 28  2  0  0  0  0
 31 24  2  0  0  0  0
M  END
>  <MODEL>
2

>  <REMARK>
 VINA RESULT:     -10.2      1.179      1.605
  Name = 
  3 active torsions:
  status: ('A' for Active; 'I' for Inactive)
    1  A    between atoms: N_3  and  C_9
    2  A    between atoms: C_9  and  C_23
    3  A    between atoms: C_15  and  C_23
                            x       y       z     vdW  Elec       q    Type
                         _______ _______ _______ _____ _____    ______ ____

>  <TORSDO>
F 3

$$$$
=
 OpenBabel10272400173D

 31 35  0  0  1  0  0  0  0  0999 V2000
  190.0000  176.9600  140.6690 C   0  0  0  0  0  0  0  0  0  0  0  0
  188.3480  177.8070  143.9500 C   0  0  0  0  0  0  0  0  0  0  0  0
  189.3160  177.6850  144.9780 C   0  0  0  0  0  0  0  0  0  0  0  0
  191.6000  176.7400  144.9700 C   0  0  0  0  0  3  0  0  0  0  0  0
  188.7310  178.0630  142.4990 C   0  0  1  0  0  3  0  0  0  0  0  0
  189.0350  177.4930  139.6310 C   0  0  0  0  0  2  0  0  0  0  0  0
  190.7640  177.9430  144.6920 C   0  0  0  0  0  2  0  0  0  0  0  0
  185.9050  178.0390  143.2630 C   0  0  1  0  0  3  0  0  0  0  0  0
  191.0650  176.1730  140.2520 O   0  0  0  0  0  1  0  0  0  0  0  0
  187.5340  177.4330  146.5890 C   0  0  0  0  0  3  0  0  0  0  0  0
  191.7430  176.2260  146.1890 C   0  0  0  0  0  3  0  0  0  0  0  0
  186.4290  178.7440  142.0920 N   0  0  0  0  0  2  0  0  0  0  0  0
  186.9800  177.8400  144.3140 C   0  0  0  0  0  0  0  0  0  0  0  0
  189.8270  177.1710  141.9810 C   0  0  0  0  0  3  0  0  0  0  0  0
  191.0440  176.7080  147.3940 C   0  0  0  0  0  3  0  0  0  0  0  0
  187.5260  177.9460  141.5700 C   0  0  1  0  0  3  0  0  0  0  0  0
  187.9540  178.4270  140.1930 C   0  0  0  0  0  2  0  0  0  0  0  0
  186.6190  177.6260  145.6070 N   0  0  0  0  0  0  0  0  0  0  0  0
  188.8970  177.4530  146.3050 C   0  0  0  0  0  0  0  0  0  0  0  0
  189.8180  177.2440  147.4410 C   0  0  0  0  0  3  0  0  0  0  0  0
  184.7140  178.8060  143.8270 C   0  0  0  0  0  2  0  0  0  0  0  0
  182.2480  178.7120  143.9830 C   0  0  0  0  0  1  0  0  0  0  0  0
  183.4380  178.4640  143.0760 C   0  0  1  0  0  3  0  0  0  0  0  0
  182.7380  176.8640  139.1770 C   0  0  0  0  0  0  0  0  0  0  0  0
  183.3260  179.2920  141.8840 N   0  0  0  0  0  2  0  0  0  0  0  0
  182.7370  179.0750  138.2220 C   0  0  0  0  0  3  0  0  0  0  0  0
  182.6180  175.3900  139.0250 C   0  0  0  0  0  1  0  0  0  0  0  0
  182.9660  177.4030  140.4050 N   0  0  0  0  0  0  0  0  0  0  0  0
  182.9690  179.6090  139.4910 C   0  0  0  0  0  3  0  0  0  0  0  0
  183.0820  178.7490  140.5860 C   0  0  0  0  0  0  0  0  0  0  0  0
  182.6190  177.6940  138.0600 C   0  0  0  0  0  3  0  0  0  0  0  0
  1 14  2  0  0  0  0
  2 13  2  0  0  0  0
  2  3  1  0  0  0  0
  3 19  2  0  0  0  0
  4 11  2  0  0  0  0
  5 14  1  6  0  0  0
  5  2  1  0  0  0  0
  6 17  1  0  0  0  0
  6  1  1  0  0  0  0
  7  4  1  0  0  0  0
  7  3  1  0  0  0  0
  8 21  1  1  0  0  0
  8 13  1  0  0  0  0
  9  1  1  0  0  0  0
 11 15  1  0  0  0  0
 12  8  1  0  0  0  0
 13 18  1  0  0  0  0
 15 20  2  0  0  0  0
 16 17  1  6  0  0  0
 16 12  1  0  0  0  0
 16  5  1  0  0  0  0
 18 10  2  0  0  0  0
 19 10  1  0  0  0  0
 19 20  1  0  0  0  0
 23 21  1  0  0  0  0
 23 22  1  1  0  0  0
 24 28  1  0  0  0  0
 25 23  1  0  0  0  0
 26 29  2  0  0  0  0
 27 24  1  0  0  0  0
 28 30  2  0  0  0  0
 29 30  1  0  0  0  0
 30 25  1  0  0  0  0
 31 26  1  0  0  0  0
 31 24  2  0  0  0  0
M  END
>  <MODEL>
3

>  <REMARK>
 VINA RESULT:     -10.1      2.846      4.842
  Name = 
  3 active torsions:
  status: ('A' for Active; 'I' for Inactive)
    1  A    between atoms: N_3  and  C_9
    2  A    between atoms: C_9  and  C_23
    3  A    between atoms: C_15  and  C_23
                            x       y       z     vdW  Elec       q    Type
                         _______ _______ _______ _____ _____    ______ ____

>  <TORSDO>
F 3

$$$$
=
 OpenBabel10272400173D

 31 35  0  0  1  0  0  0  0  0999 V2000
  184.7180  178.8000  144.7090 C   0  0  0  0  0  0  0  0  0  0  0  0
  188.2220  177.7490  143.8030 C   0  0  0  0  0  0  0  0  0  0  0  0
  188.8800  177.3330  144.9870 C   0  0  0  0  0  0  0  0  0  0  0  0
  188.2400  177.5240  147.3680 C   0  0  0  0  0  3  0  0  0  0  0  0
  186.7070  177.7350  143.6680 C   0  0  1  0  0  3  0  0  0  0  0  0
  183.9970  178.8370  143.3780 C   0  0  0  0  0  2  0  0  0  0  0  0
  188.1020  176.7270  146.1150 C   0  0  0  0  0  2  0  0  0  0  0  0
  188.3560  178.4270  141.3500 C   0  0  1  0  0  3  0  0  0  0  0  0
  184.0760  179.3050  145.8320 O   0  0  0  0  0  1  0  0  0  0  0  0
  191.0070  177.7260  143.9120 C   0  0  0  0  0  3  0  0  0  0  0  0
  189.3990  177.6730  148.0040 C   0  0  0  0  0  3  0  0  0  0  0  0
  186.9980  177.8890  141.2550 N   0  0  0  0  0  2  0  0  0  0  0  0
  189.0100  178.0440  142.6640 C   0  0  0  0  0  0  0  0  0  0  0  0
  185.9740  178.3520  144.8290 C   0  0  0  0  0  3  0  0  0  0  0  0
  190.6950  177.1570  147.5280 C   0  0  0  0  0  3  0  0  0  0  0  0
  186.2500  178.4200  142.3820 C   0  0  1  0  0  3  0  0  0  0  0  0
  184.7600  178.1660  142.2260 C   0  0  0  0  0  2  0  0  0  0  0  0
  190.3660  178.0500  142.7620 N   0  0  0  0  0  0  0  0  0  0  0  0
  190.2900  177.3650  145.0490 C   0  0  0  0  0  0  0  0  0  0  0  0
  191.0750  177.0180  146.2520 C   0  0  0  0  0  3  0  0  0  0  0  0
  189.1790  177.9430  140.1610 C   0  0  0  0  0  2  0  0  0  0  0  0
  189.0270  179.0280  137.9440 C   0  0  0  0  0  1  0  0  0  0  0  0
  188.3750  178.0210  138.8730 C   0  0  1  0  0  3  0  0  0  0  0  0
  191.8890  175.8010  137.8880 C   0  0  0  0  0  0  0  0  0  0  0  0
  188.3380  176.7150  138.2300 N   0  0  0  0  0  2  0  0  0  0  0  0
  190.5570  174.0020  137.0000 C   0  0  0  0  0  3  0  0  0  0  0  0
  193.2160  176.3940  138.2010 C   0  0  0  0  0  1  0  0  0  0  0  0
  190.7520  176.4860  138.1850 N   0  0  0  0  0  0  0  0  0  0  0  0
  189.4020  174.7200  137.3130 C   0  0  0  0  0  3  0  0  0  0  0  0
  189.5170  175.9760  137.9140 C   0  0  0  0  0  0  0  0  0  0  0  0
  191.8110  174.5420  137.2880 C   0  0  0  0  0  3  0  0  0  0  0  0
  1 14  2  0  0  0  0
  1  9  1  0  0  0  0
  2  3  1  0  0  0  0
  3 19  2  0  0  0  0
  3  7  1  0  0  0  0
  4 11  2  0  0  0  0
  5  2  1  0  0  0  0
  5 14  1  1  0  0  0
  6  1  1  0  0  0  0
  7  4  1  0  0  0  0
  8 21  1  6  0  0  0
  8 13  1  0  0  0  0
 10 19  1  0  0  0  0
 12  8  1  0  0  0  0
 12 16  1  0  0  0  0
 13 18  1  0  0  0  0
 13  2  2  0  0  0  0
 15 11  1  0  0  0  0
 16 17  1  6  0  0  0
 16  5  1  0  0  0  0
 17  6  1  0  0  0  0
 18 10  2  0  0  0  0
 19 20  1  0  0  0  0
 20 15  2  0  0  0  0
 23 22  1  6  0  0  0
 23 21  1  0  0  0  0
 24 28  1  0  0  0  0
 24 27  1  0  0  0  0
 25 23  1  0  0  0  0
 26 31  1  0  0  0  0
 26 29  2  0  0  0  0
 29 30  1  0  0  0  0
 30 28  2  0  0  0  0
 30 25  1  0  0  0  0
 31 24  2  0  0  0  0
M  END
>  <MODEL>
4

>  <REMARK>
 VINA RESULT:     -10.0      1.720      2.758
  Name = 
  3 active torsions:
  status: ('A' for Active; 'I' for Inactive)
    1  A    between atoms: N_3  and  C_9
    2  A    between atoms: C_9  and  C_23
    3  A    between atoms: C_15  and  C_23
                            x       y       z     vdW  Elec       q    Type
                         _______ _______ _______ _____ _____    ______ ____

>  <TORSDO>
F 3

$$$$
=
 OpenBabel10272400173D

 31 35  0  0  1  0  0  0  0  0999 V2000
  184.9830  178.8090  145.7580 C   0  0  0  0  0  0  0  0  0  0  0  0
  186.7780  178.0380  142.5350 C   0  0  0  0  0  0  0  0  0  0  0  0
  188.0170  177.4270  142.8530 C   0  0  0  0  0  0  0  0  0  0  0  0
  189.2030  177.1590  145.0060 C   0  0  0  0  0  3  0  0  0  0  0  0
  185.5900  178.0090  143.4860 C   0  0  1  0  0  3  0  0  0  0  0  0
  183.5570  179.0730  145.3230 C   0  0  0  0  0  2  0  0  0  0  0  0
  188.1600  176.6030  144.0960 C   0  0  0  0  0  2  0  0  0  0  0  0
  185.2720  179.1610  140.8130 C   0  0  1  0  0  3  0  0  0  0  0  0
  185.3420  179.0810  147.0710 O   0  0  0  0  0  1  0  0  0  0  0  0
  188.8600  178.0690  140.6820 C   0  0  0  0  0  3  0  0  0  0  0  0
  190.4910  177.2180  144.6760 C   0  0  0  0  0  3  0  0  0  0  0  0
  184.1680  178.6140  141.6040 N   0  0  0  0  0  2  0  0  0  0  0  0
  186.6000  178.5590  141.2310 C   0  0  0  0  0  0  0  0  0  0  0  0
  185.9220  178.3810  144.9060 C   0  0  0  0  0  3  0  0  0  0  0  0
  191.0450  176.8330  143.3660 C   0  0  0  0  0  3  0  0  0  0  0  0
  184.4570  178.9070  142.9980 C   0  0  1  0  0  3  0  0  0  0  0  0
  183.2470  178.6470  143.8800 C   0  0  0  0  0  2  0  0  0  0  0  0
  187.6470  178.5830  140.3630 N   0  0  0  0  0  0  0  0  0  0  0  0
  189.0800  177.4850  141.9270 C   0  0  0  0  0  0  0  0  0  0  0  0
  190.4310  176.9430  142.1800 C   0  0  0  0  0  3  0  0  0  0  0  0
  185.0000  178.9280  139.3310 C   0  0  0  0  0  2  0  0  0  0  0  0
  182.8040  179.8600  138.6820 C   0  0  0  0  0  1  0  0  0  0  0  0
  183.5370  178.5960  139.0900 C   0  0  1  0  0  3  0  0  0  0  0  0
  180.8460  175.2850  139.2870 C   0  0  0  0  0  0  0  0  0  0  0  0
  183.4200  177.6000  138.0340 N   0  0  0  0  0  2  0  0  0  0  0  0
  181.5570  174.5200  137.1170 C   0  0  0  0  0  3  0  0  0  0  0  0
  179.9960  175.1300  140.4970 C   0  0  0  0  0  1  0  0  0  0  0  0
  181.7160  176.3260  139.1970 N   0  0  0  0  0  0  0  0  0  0  0  0
  182.4430  175.5960  137.0430 C   0  0  0  0  0  3  0  0  0  0  0  0
  182.5110  176.5020  138.1040 C   0  0  0  0  0  0  0  0  0  0  0  0
  180.7510  174.3600  138.2450 C   0  0  0  0  0  3  0  0  0  0  0  0
  1  9  1  0  0  0  0
  2  3  1  0  0  0  0
  2  5  1  0  0  0  0
  3  7  1  0  0  0  0
  5 14  1  1  0  0  0
  6  1  1  0  0  0  0
  7  4  1  0  0  0  0
  8 21  1  6  0  0  0
  8 13  1  0  0  0  0
  8 12  1  0  0  0  0
 10 19  1  0  0  0  0
 11  4  2  0  0  0  0
 12 16  1  0  0  0  0
 13  2  2  0  0  0  0
 14  1  2  0  0  0  0
 15 11  1  0  0  0  0
 16  5  1  0  0  0  0
 16 17  1  1  0  0  0
 17  6  1  0  0  0  0
 18 10  2  0  0  0  0
 18 13  1  0  0  0  0
 19 20  1  0  0  0  0
 19  3  2  0  0  0  0
 20 15  2  0  0  0  0
 23 22  1  6  0  0  0
 23 21  1  0  0  0  0
 24 27  1  0  0  0  0
 25 30  1  0  0  0  0
 25 23  1  0  0  0  0
 26 31  1  0  0  0  0
 28 24  1  0  0  0  0
 29 26  2  0  0  0  0
 29 30  1  0  0  0  0
 30 28  2  0  0  0  0
 31 24  2  0  0  0  0
M  END
>  <MODEL>
5

>  <REMARK>
 VINA RESULT:      -9.9      2.505      3.789
  Name = 
  3 active torsions:
  status: ('A' for Active; 'I' for Inactive)
    1  A    between atoms: N_3  and  C_9
    2  A    between atoms: C_9  and  C_23
    3  A    between atoms: C_15  and  C_23
                            x       y       z     vdW  Elec       q    Type
                         _______ _______ _______ _____ _____    ______ ____

>  <TORSDO>
F 3

$$$$
=
 OpenBabel10272400173D

 31 35  0  0  1  0  0  0  0  0999 V2000
  184.8820  179.3240  143.3260 C   0  0  0  0  0  0  0  0  0  0  0  0
  188.1270  177.6610  144.2840 C   0  0  0  0  0  0  0  0  0  0  0  0
  188.1470  177.5070  145.6920 C   0  0  0  0  0  0  0  0  0  0  0  0
  186.6710  178.4120  147.4580 C   0  0  0  0  0  3  0  0  0  0  0  0
  186.8290  177.7890  143.4990 C   0  0  1  0  0  3  0  0  0  0  0  0
  184.7800  179.0830  141.8350 C   0  0  0  0  0  2  0  0  0  0  0  0
  186.8700  177.3260  146.4550 C   0  0  0  0  0  2  0  0  0  0  0  0
  189.3750  177.6270  142.0620 C   0  0  1  0  0  3  0  0  0  0  0  0
  183.9770  180.1870  143.9280 O   0  0  0  0  0  1  0  0  0  0  0  0
  190.5550  177.3400  145.6120 C   0  0  0  0  0  3  0  0  0  0  0  0
  187.4820  178.5900  148.4980 C   0  0  0  0  0  3  0  0  0  0  0  0
  188.0850  177.2470  141.4840 N   0  0  0  0  0  2  0  0  0  0  0  0
  189.3470  177.5400  143.5760 C   0  0  0  0  0  0  0  0  0  0  0  0
  185.8530  178.7800  144.0730 C   0  0  0  0  0  3  0  0  0  0  0  0
  188.7090  177.8150  148.7540 C   0  0  0  0  0  3  0  0  0  0  0  0
  187.0880  178.1480  142.0380 C   0  0  1  0  0  3  0  0  0  0  0  0
  185.7680  178.0400  141.2930 C   0  0  0  0  0  2  0  0  0  0  0  0
  190.5150  177.4130  144.2590 N   0  0  0  0  0  0  0  0  0  0  0  0
  189.3830  177.3890  146.3630 C   0  0  0  0  0  0  0  0  0  0  0  0
  189.5250  177.2910  147.8300 C   0  0  0  0  0  3  0  0  0  0  0  0
  190.4730  176.7450  141.4770 C   0  0  0  0  0  2  0  0  0  0  0  0
  192.3940  177.6630  140.2210 C   0  0  0  0  0  1  0  0  0  0  0  0
  190.9330  177.2680  140.1270 C   0  0  1  0  0  3  0  0  0  0  0  0
  187.5450  177.0610  137.5330 C   0  0  0  0  0  0  0  0  0  0  0  0
  190.7690  176.2370  139.1120 N   0  0  0  0  0  2  0  0  0  0  0  0
  188.4480  175.1150  136.4370 C   0  0  0  0  0  3  0  0  0  0  0  0
  186.4730  178.0800  137.6810 C   0  0  0  0  0  1  0  0  0  0  0  0
  188.6340  177.0970  138.3470 N   0  0  0  0  0  0  0  0  0  0  0  0
  189.5580  175.1710  137.2810 C   0  0  0  0  0  3  0  0  0  0  0  0
  189.6380  176.1810  138.2430 C   0  0  0  0  0  0  0  0  0  0  0  0
  187.4330  176.0650  136.5600 C   0  0  0  0  0  3  0  0  0  0  0  0
  1  9  1  0  0  0  0
  1 14  2  0  0  0  0
  2  3  1  0  0  0  0
  3 19  2  0  0  0  0
  3  7  1  0  0  0  0
  4 11  2  0  0  0  0
  5 14  1  1  0  0  0
  5  2  1  0  0  0  0
  6  1  1  0  0  0  0
  7  4  1  0  0  0  0
  8 21  1  6  0  0  0
  8 13  1  0  0  0  0
 10 19  1  0  0  0  0
 11 15  1  0  0  0  0
 12 16  1  0  0  0  0
 12  8  1  0  0  0  0
 13 18  1  0  0  0  0
 13  2  2  0  0  0  0
 16 17  1  6  0  0  0
 16  5  1  0  0  0  0
 17  6  1  0  0  0  0
 18 10  2  0  0  0  0
 19 20  1  0  0  0  0
 20 15  2  0  0  0  0
 23 22  1  1  0  0  0
 23 21  1  0  0  0  0
 24 27  1  0  0  0  0
 24 28  1  0  0  0  0
 25 23  1  0  0  0  0
 26 31  1  0  0  0  0
 26 29  2  0  0  0  0
 29 30  1  0  0  0  0
 30 28  2  0  0  0  0
 30 25  1  0  0  0  0
 31 24  2  0  0  0  0
M  END
>  <MODEL>
6

>  <REMARK>
 VINA RESULT:      -9.8      1.533      2.008
  Name = 
  3 active torsions:
  status: ('A' for Active; 'I' for Inactive)
    1  A    between atoms: N_3  and  C_9
    2  A    between atoms: C_9  and  C_23
    3  A    between atoms: C_15  and  C_23
                            x       y       z     vdW  Elec       q    Type
                         _______ _______ _______ _____ _____    ______ ____

>  <TORSDO>
F 3

$$$$
=
 OpenBabel10272400173D

 31 35  0  0  1  0  0  0  0  0999 V2000
  185.1720  178.8740  145.8030 C   0  0  0  0  0  0  0  0  0  0  0  0
  186.8020  178.0380  142.5090 C   0  0  0  0  0  0  0  0  0  0  0  0
  188.0450  177.4130  142.7760 C   0  0  0  0  0  0  0  0  0  0  0  0
  189.3280  177.1520  144.8730 C   0  0  0  0  0  3  0  0  0  0  0  0
  185.6600  178.0380  143.5140 C   0  0  1  0  0  3  0  0  0  0  0  0
  183.7310  179.1540  145.4320 C   0  0  0  0  0  2  0  0  0  0  0  0
  188.2350  176.6010  144.0200 C   0  0  0  0  0  2  0  0  0  0  0  0
  185.2320  179.1630  140.8460 C   0  0  1  0  0  3  0  0  0  0  0  0
  185.5970  179.1560  147.0940 O   0  0  0  0  0  1  0  0  0  0  0  0
  188.7940  178.0170  140.5600 C   0  0  0  0  0  3  0  0  0  0  0  0
  190.5990  177.1880  144.4830 C   0  0  0  0  0  3  0  0  0  0  0  0
  184.1590  178.6420  141.6940 N   0  0  0  0  0  2  0  0  0  0  0  0
  186.5700  178.5470  141.2070 C   0  0  0  0  0  0  0  0  0  0  0  0
  186.0640  178.4210  144.9120 C   0  0  0  0  0  3  0  0  0  0  0  0
  191.0850  176.7800  143.1520 C   0  0  0  0  0  3  0  0  0  0  0  0
  184.5180  178.9470  143.0690 C   0  0  1  0  0  3  0  0  0  0  0  0
  183.3470  178.7160  144.0110 C   0  0  0  0  0  2  0  0  0  0  0  0
  187.5750  178.5450  140.2920 N   0  0  0  0  0  0  0  0  0  0  0  0
  189.0640  177.4440  141.8000 C   0  0  0  0  0  0  0  0  0  0  0  0
  190.4180  176.8850  141.9960 C   0  0  0  0  0  3  0  0  0  0  0  0
  184.8870  178.9170  139.3810 C   0  0  0  0  0  2  0  0  0  0  0  0
  182.5930  179.2380  138.5160 C   0  0  0  0  0  1  0  0  0  0  0  0
  183.5150  178.2780  139.2430 C   0  0  1  0  0  3  0  0  0  0  0  0
  186.7700  177.3990  136.6200 C   0  0  0  0  0  0  0  0  0  0  0  0
  183.6190  177.0350  138.4920 N   0  0  0  0  0  2  0  0  0  0  0  0
  185.8260  175.2460  136.0980 C   0  0  0  0  0  3  0  0  0  0  0  0
  187.8410  178.4150  136.4520 C   0  0  0  0  0  1  0  0  0  0  0  0
  185.7180  177.6520  137.4440 N   0  0  0  0  0  0  0  0  0  0  0  0
  184.7550  175.5230  136.9500 C   0  0  0  0  0  3  0  0  0  0  0  0
  184.7160  176.7450  137.6250 C   0  0  0  0  0  0  0  0  0  0  0  0
  186.8420  176.1870  135.9290 C   0  0  0  0  0  3  0  0  0  0  0  0
  1  9  1  0  0  0  0
  2  3  1  0  0  0  0
  2  5  1  0  0  0  0
  3  7  1  0  0  0  0
  5 14  1  1  0  0  0
  6  1  1  0  0  0  0
  7  4  1  0  0  0  0
  8 21  1  6  0  0  0
  8 13  1  0  0  0  0
  8 12  1  0  0  0  0
 10 19  1  0  0  0  0
 11  4  2  0  0  0  0
 12 16  1  0  0  0  0
 13  2  2  0  0  0  0
 14  1  2  0  0  0  0
 15 11  1  0  0  0  0
 16  5  1  0  0  0  0
 16 17  1  1  0  0  0
 17  6  1  0  0  0  0
 18 10  2  0  0  0  0
 18 13  1  0  0  0  0
 19 20  1  0  0  0  0
 19  3  2  0  0  0  0
 20 15  2  0  0  0  0
 23 22  1  6  0  0  0
 23 21  1  0  0  0  0
 24 28  1  0  0  0  0
 25 23  1  0  0  0  0
 26 29  2  0  0  0  0
 27 24  1  0  0  0  0
 28 30  2  0  0  0  0
 29 30  1  0  0  0  0
 30 25  1  0  0  0  0
 31 26  1  0  0  0  0
 31 24  2  0  0  0  0
M  END
>  <MODEL>
7

>  <REMARK>
 VINA RESULT:      -9.4      1.723      3.191
  Name = 
  3 active torsions:
  status: ('A' for Active; 'I' for Inactive)
    1  A    between atoms: N_3  and  C_9
    2  A    between atoms: C_9  and  C_23
    3  A    between atoms: C_15  and  C_23
                            x       y       z     vdW  Elec       q    Type
                         _______ _______ _______ _____ _____    ______ ____

>  <TORSDO>
F 3

$$$$
=
 OpenBabel10272400173D

 31 35  0  0  1  0  0  0  0  0999 V2000
  185.7920  179.0810  146.1360 C   0  0  0  0  0  0  0  0  0  0  0  0
  188.6940  177.4040  144.4100 C   0  0  0  0  0  0  0  0  0  0  0  0
  189.5840  176.9260  145.4040 C   0  0  0  0  0  0  0  0  0  0  0  0
  189.6750  177.3180  147.8430 C   0  0  0  0  0  3  0  0  0  0  0  0
  187.2180  177.6470  144.6910 C   0  0  1  0  0  3  0  0  0  0  0  0
  184.7420  179.1910  145.0510 C   0  0  0  0  0  2  0  0  0  0  0  0
  189.0690  176.5080  146.7470 C   0  0  0  0  0  2  0  0  0  0  0  0
  188.2390  177.9530  141.9640 C   0  0  1  0  0  3  0  0  0  0  0  0
  185.5780  179.7320  147.3430 O   0  0  0  0  0  1  0  0  0  0  0  0
  191.3580  176.9030  143.7650 C   0  0  0  0  0  3  0  0  0  0  0  0
  190.9750  177.2880  148.1280 C   0  0  0  0  0  3  0  0  0  0  0  0
  186.8420  177.6550  142.2850 N   0  0  0  0  0  2  0  0  0  0  0  0
  189.1670  177.5140  143.0800 C   0  0  0  0  0  0  0  0  0  0  0  0
  186.9460  178.4270  145.9500 C   0  0  0  0  0  3  0  0  0  0  0  0
  191.9890  176.5370  147.3660 C   0  0  0  0  0  3  0  0  0  0  0  0
  186.5320  178.3510  143.5230 C   0  0  1  0  0  3  0  0  0  0  0  0
  185.0370  178.3540  143.7970 C   0  0  0  0  0  2  0  0  0  0  0  0
  190.4790  177.2890  142.8080 N   0  0  0  0  0  0  0  0  0  0  0  0
  190.9420  176.7160  145.0800 C   0  0  0  0  0  0  0  0  0  0  0  0
  191.9690  176.2850  146.0510 C   0  0  0  0  0  3  0  0  0  0  0  0
  188.6090  177.2880  140.6420 C   0  0  0  0  0  2  0  0  0  0  0  0
  190.6880  177.2750  139.3040 C   0  0  0  0  0  1  0  0  0  0  0  0
  189.5760  178.1510  139.8480 C   0  0  1  0  0  3  0  0  0  0  0  0
  187.3880  175.9890  136.8850 C   0  0  0  0  0  0  0  0  0  0  0  0
  188.8760  178.7960  138.7460 N   0  0  0  0  0  2  0  0  0  0  0  0
  186.7640  178.0380  135.7850 C   0  0  0  0  0  3  0  0  0  0  0  0
  187.3500  174.5050  136.9710 C   0  0  0  0  0  1  0  0  0  0  0  0
  188.0810  176.7050  137.8110 N   0  0  0  0  0  0  0  0  0  0  0  0
  187.4790  178.7560  136.7460 C   0  0  0  0  0  3  0  0  0  0  0  0
  188.1390  178.0660  137.7660 C   0  0  0  0  0  0  0  0  0  0  0  0
  186.7160  176.6450  135.8520 C   0  0  0  0  0  3  0  0  0  0  0  0
  1  9  1  0  0  0  0
  2  5  1  0  0  0  0
  2  3  1  0  0  0  0
  3  7  1  0  0  0  0
  4 11  2  0  0  0  0
  5 14  1  1  0  0  0
  6  1  1  0  0  0  0
  7  4  1  0  0  0  0
  8 21  1  6  0  0  0
  8 12  1  0  0  0  0
  8 13  1  0  0  0  0
 10 19  1  0  0  0  0
 12 16  1  0  0  0  0
 13  2  2  0  0  0  0
 14  1  2  0  0  0  0
 15 11  1  0  0  0  0
 16 17  1  1  0  0  0
 16  5  1  0  0  0  0
 17  6  1  0  0  0  0
 18 13  1  0  0  0  0
 18 10  2  0  0  0  0
 19  3  2  0  0  0  0
 19 20  1  0  0  0  0
 20 15  2  0  0  0  0
 23 22  1  6  0  0  0
 23 21  1  0  0  0  0
 24 27  1  0  0  0  0
 24 28  1  0  0  0  0
 25 23  1  0  0  0  0
 26 31  1  0  0  0  0
 26 29  2  0  0  0  0
 29 30  1  0  0  0  0
 30 28  2  0  0  0  0
 30 25  1  0  0  0  0
 31 24  2  0  0  0  0
M  END
>  <MODEL>
8

>  <REMARK>
 VINA RESULT:      -9.3      1.364      2.081
  Name = 
  3 active torsions:
  status: ('A' for Active; 'I' for Inactive)
    1  A    between atoms: N_3  and  C_9
    2  A    between atoms: C_9  and  C_23
    3  A    between atoms: C_15  and  C_23
                            x       y       z     vdW  Elec       q    Type
                         _______ _______ _______ _____ _____    ______ ____

>  <TORSDO>
F 3

$$$$
=
 OpenBabel10272400173D

 31 35  0  0  1  0  0  0  0  0999 V2000
  184.8340  178.6430  139.9460 C   0  0  0  0  0  0  0  0  0  0  0  0
  188.5280  177.8980  139.8890 C   0  0  0  0  0  0  0  0  0  0  0  0
  188.9460  177.8330  138.5360 C   0  0  0  0  0  0  0  0  0  0  0  0
  187.6580  177.7800  136.4270 C   0  0  0  0  0  3  0  0  0  0  0  0
  187.2900  178.6710  140.3200 C   0  0  1  0  0  3  0  0  0  0  0  0
  184.5760  179.0800  141.3730 C   0  0  0  0  0  2  0  0  0  0  0  0
  188.2520  178.6450  137.4870 C   0  0  0  0  0  2  0  0  0  0  0  0
  189.0130  177.4550  142.3510 C   0  0  1  0  0  3  0  0  0  0  0  0
  183.7500  178.4260  139.1060 O   0  0  0  0  0  1  0  0  0  0  0  0
  190.8650  176.5340  139.2200 C   0  0  0  0  0  3  0  0  0  0  0  0
  188.3940  177.0240  135.6160 C   0  0  0  0  0  3  0  0  0  0  0  0
  188.1360  178.6000  142.6030 N   0  0  0  0  0  2  0  0  0  0  0  0
  189.3770  177.3510  140.8820 C   0  0  0  0  0  0  0  0  0  0  0  0
  186.0680  178.4000  139.4850 C   0  0  0  0  0  3  0  0  0  0  0  0
  189.8570  176.8720  135.7030 C   0  0  0  0  0  3  0  0  0  0  0  0
  186.9480  178.4130  141.7860 C   0  0  1  0  0  3  0  0  0  0  0  0
  185.8460  179.3820  142.1810 C   0  0  0  0  0  2  0  0  0  0  0  0
  190.4930  176.6680  140.5170 N   0  0  0  0  0  0  0  0  0  0  0  0
  190.1070  177.1030  138.2010 C   0  0  0  0  0  0  0  0  0  0  0  0
  190.5960  176.9130  136.8190 C   0  0  0  0  0  3  0  0  0  0  0  0
  190.2590  177.5690  143.2230 C   0  0  0  0  0  2  0  0  0  0  0  0
  191.6060  175.5570  143.7220 C   0  0  0  0  0  1  0  0  0  0  0  0
  190.3950  176.3660  144.1420 C   0  0  1  0  0  3  0  0  0  0  0  0
  187.1560  177.8090  146.5250 C   0  0  0  0  0  0  0  0  0  0  0  0
  190.5560  176.8090  145.5200 N   0  0  0  0  0  2  0  0  0  0  0  0
  188.6270  178.1390  148.4030 C   0  0  0  0  0  3  0  0  0  0  0  0
  185.8020  177.8770  145.9170 C   0  0  0  0  0  1  0  0  0  0  0  0
  188.2080  177.3590  145.7900 N   0  0  0  0  0  0  0  0  0  0  0  0
  189.6940  177.6730  147.6330 C   0  0  0  0  0  3  0  0  0  0  0  0
  189.4650  177.2810  146.3120 C   0  0  0  0  0  0  0  0  0  0  0  0
  187.3480  178.2080  147.8490 C   0  0  0  0  0  3  0  0  0  0  0  0
  1  6  1  0  0  0  0
  2  5  1  0  0  0  0
  2 13  1  0  0  0  0
  3  2  2  0  0  0  0
  4  7  1  0  0  0  0
  5 14  1  6  0  0  0
  5 16  1  0  0  0  0
  6 17  1  0  0  0  0
  7  3  1  0  0  0  0
  8 12  1  0  0  0  0
  8 21  1  1  0  0  0
  9  1  1  0  0  0  0
 10 18  1  0  0  0  0
 11 15  1  0  0  0  0
 11  4  2  0  0  0  0
 13  8  1  0  0  0  0
 14  1  2  0  0  0  0
 15 20  2  0  0  0  0
 16 17  1  1  0  0  0
 16 12  1  0  0  0  0
 18 13  2  0  0  0  0
 19  3  1  0  0  0  0
 19 10  2  0  0  0  0
 20 19  1  0  0  0  0
 21 23  1  0  0  0  0
 23 22  1  6  0  0  0
 23 25  1  0  0  0  0
 24 31  2  0  0  0  0
 25 30  1  0  0  0  0
 27 24  1  0  0  0  0
 28 30  2  0  0  0  0
 28 24  1  0  0  0  0
 29 26  2  0  0  0  0
 30 29  1  0  0  0  0
 31 26  1  0  0  0  0
M  END
>  <MODEL>
9

>  <REMARK>
 VINA RESULT:      -9.2      2.427      7.615
  Name = 
  3 active torsions:
  status: ('A' for Active; 'I' for Inactive)
    1  A    between atoms: N_3  and  C_9
    2  A    between atoms: C_9  and  C_23
    3  A    between atoms: C_15  and  C_23
                            x       y       z     vdW  Elec       q    Type
                         _______ _______ _______ _____ _____    ______ ____

>  <TORSDO>
F 3

$$$$
