=
 OpenBabel10272400533D

 25 27  0  0  1  0  0  0  0  0999 V2000
  188.6360  177.6920  145.2310 N   0  0  0  0  0  0  0  0  0  0  0  0
  187.2300  177.9830  145.1850 C   0  0  0  0  0  0  0  0  0  0  0  0
  188.5070  176.9990  147.5700 C   0  0  0  0  0  2  0  0  0  0  0  0
  189.4290  177.3450  144.0590 C   0  0  1  0  0  3  0  0  0  0  0  0
  187.1510  177.5480  147.5930 N   0  0  0  0  0  2  0  0  0  0  0  0
  190.8840  177.2130  144.4890 C   0  0  2  0  0  3  0  0  0  0  0  0
  185.1270  178.2410  146.3730 C   0  0  0  0  0  0  0  0  0  0  0  0
  184.4090  178.2010  147.5240 F   0  0  0  0  0  0  0  0  0  0  0  0
  186.5900  178.3260  143.9870 C   0  0  0  0  0  3  0  0  0  0  0  0
  189.3370  177.7170  146.5080 C   0  0  1  0  0  3  0  0  0  0  0  0
  190.9410  176.9010  146.2830 S   0  0  0  0  0  0  0  0  0  0  0  0
  184.4960  178.5860  145.1750 C   0  0  0  0  0  3  0  0  0  0  0  0
  185.2180  178.6270  143.9770 C   0  0  0  0  0  0  0  0  0  0  0  0
  186.4910  177.9270  146.3780 C   0  0  0  0  0  0  0  0  0  0  0  0
  184.5350  178.9820  142.7680 N   0  0  0  0  0  0  0  0  0  0  0  0
  184.3100  178.1400  141.8100 C   0  0  0  0  0  3  0  0  0  0  0  0
  183.5970  178.5730  140.5740 C   0  0  2  0  0  3  0  0  0  0  0  0
  183.0350  177.4620  139.9450 O   0  0  0  0  0  1  0  0  0  0  0  0
  184.5290  179.2730  139.6400 C   0  0  0  0  0  0  0  0  0  0  0  0
  185.7870  178.7390  139.3970 O   0  0  0  0  0  1  0  0  0  0  0  0
  184.1750  180.3310  139.0560 O   0  0  0  0  0  0  0  0  0  0  0  0
  192.1670  179.4350  143.9460 N   0  0  0  0  0  0  0  0  0  0  0  0
  191.6010  178.4540  144.1860 C   0  0  0  0  0  0  0  0  0  0  0  0
  189.9830  175.3600  142.8060 O   0  0  0  0  0  1  0  0  0  0  0  0
  188.9360  176.0450  143.4270 C   0  0  0  0  0  2  0  0  0  0  0  0
  1 10  1  0  0  0  0
  2  1  1  0  0  0  0
  2 14  1  0  0  0  0
  3  5  1  0  0  0  0
  4 25  1  1  0  0  0
  4  6  1  0  0  0  0
  4  1  1  0  0  0  0
  6 23  1  1  0  0  0
  6 11  1  0  0  0  0
  7 14  2  0  0  0  0
  7  8  1  0  0  0  0
  9  2  2  0  0  0  0
 10  3  1  1  0  0  0
 11 10  1  0  0  0  0
 12  7  1  0  0  0  0
 13  9  1  0  0  0  0
 13 12  2  0  0  0  0
 14  5  1  0  0  0  0
 15 13  1  0  0  0  0
 16 15  2  0  0  0  0
 17 18  1  6  0  0  0
 17 16  1  0  0  0  0
 19 17  1  0  0  0  0
 20 19  1  0  0  0  0
 21 19  2  0  0  0  0
 22 23  3  0  0  0  0
 24 25  1  0  0  0  0
M  END
>  <MODEL>
1

>  <REMARK>
 VINA RESULT:      -7.8      0.000      0.000
  Name = 
  5 active torsions:
  status: ('A' for Active; 'I' for Inactive)
    1  A    between atoms: C_2  and  C_21
    2  A    between atoms: C_5  and  C_22
    3  A    between atoms: N_6  and  C_23
    4  A    between atoms: C_10  and  C_11
    5  A    between atoms: C_15  and  C_21
                            x       y       z     vdW  Elec       q    Type
                         _______ _______ _______ _____ _____    ______ ____

>  <TORSDO>
F 5

$$$$
=
 OpenBabel10272400533D

 25 27  0  0  1  0  0  0  0  0999 V2000
  184.0430  178.2360  142.6010 N   0  0  0  0  0  0  0  0  0  0  0  0
  185.0400  178.1680  143.6340 C   0  0  0  0  0  0  0  0  0  0  0  0
  182.4840  179.4230  144.0610 C   0  0  0  0  0  2  0  0  0  0  0  0
  184.3500  178.1950  141.1780 C   0  0  1  0  0  3  0  0  0  0  0  0
  183.3850  179.1120  145.1710 N   0  0  0  0  0  2  0  0  0  0  0  0
  183.0370  178.1850  140.4070 C   0  0  2  0  0  3  0  0  0  0  0  0
  185.6350  178.5030  145.9650 C   0  0  0  0  0  0  0  0  0  0  0  0
  185.3100  178.9000  147.2210 F   0  0  0  0  0  0  0  0  0  0  0  0
  186.3290  177.6820  143.3780 C   0  0  0  0  0  3  0  0  0  0  0  0
  182.6380  178.3730  142.9620 C   0  0  1  0  0  3  0  0  0  0  0  0
  181.7230  178.8600  141.4740 S   0  0  0  0  0  0  0  0  0  0  0  0
  186.9190  178.0140  145.7030 C   0  0  0  0  0  3  0  0  0  0  0  0
  187.2750  177.6060  144.4140 C   0  0  0  0  0  0  0  0  0  0  0  0
  184.6990  178.5920  144.9280 C   0  0  0  0  0  0  0  0  0  0  0  0
  188.6010  177.1130  144.1850 N   0  0  0  0  0  0  0  0  0  0  0  0
  189.5870  177.3320  144.9960 C   0  0  0  0  0  3  0  0  0  0  0  0
  190.9460  176.7940  144.6990 C   0  0  2  0  0  3  0  0  0  0  0  0
  191.6890  176.7220  145.8770 O   0  0  0  0  0  1  0  0  0  0  0  0
  191.6510  177.6530  143.7010 C   0  0  0  0  0  0  0  0  0  0  0  0
  191.9750  178.9630  144.0290 O   0  0  0  0  0  1  0  0  0  0  0  0
  191.9710  177.1940  142.5730 O   0  0  0  0  0  0  0  0  0  0  0  0
  182.4340  175.7250  139.7270 N   0  0  0  0  0  0  0  0  0  0  0  0
  182.7000  176.8110  140.0270 C   0  0  0  0  0  0  0  0  0  0  0  0
  184.8040  179.8920  139.5240 O   0  0  0  0  0  1  0  0  0  0  0  0
  185.2050  179.3920  140.7650 C   0  0  0  0  0  2  0  0  0  0  0  0
  1 10  1  0  0  0  0
  1  2  1  0  0  0  0
  2 14  1  0  0  0  0
  3  5  1  0  0  0  0
  4 25  1  6  0  0  0
  4  1  1  0  0  0  0
  6 23  1  1  0  0  0
  6  4  1  0  0  0  0
  6 11  1  0  0  0  0
  7  8  1  0  0  0  0
  9  2  2  0  0  0  0
  9 13  1  0  0  0  0
 10  3  1  1  0  0  0
 11 10  1  0  0  0  0
 12  7  1  0  0  0  0
 13 12  2  0  0  0  0
 14  5  1  0  0  0  0
 14  7  2  0  0  0  0
 15 13  1  0  0  0  0
 15 16  2  0  0  0  0
 17 16  1  0  0  0  0
 17 18  1  1  0  0  0
 19 20  1  0  0  0  0
 19 17  1  0  0  0  0
 21 19  2  0  0  0  0
 22 23  3  0  0  0  0
 24 25  1  0  0  0  0
M  END
>  <MODEL>
2

>  <REMARK>
 VINA RESULT:      -7.4      2.896      6.901
  Name = 
  5 active torsions:
  status: ('A' for Active; 'I' for Inactive)
    1  A    between atoms: C_2  and  C_21
    2  A    between atoms: C_5  and  C_22
    3  A    between atoms: N_6  and  C_23
    4  A    between atoms: C_10  and  C_11
    5  A    between atoms: C_15  and  C_21
                            x       y       z     vdW  Elec       q    Type
                         _______ _______ _______ _____ _____    ______ ____

>  <TORSDO>
F 5

$$$$
=
 OpenBabel10272400533D

 25 27  0  0  1  0  0  0  0  0999 V2000
  188.2890  177.7790  144.8200 N   0  0  0  0  0  0  0  0  0  0  0  0
  186.9070  178.0650  144.5520 C   0  0  0  0  0  0  0  0  0  0  0  0
  187.8290  177.3110  147.1730 C   0  0  0  0  0  2  0  0  0  0  0  0
  189.2310  177.3210  143.8070 C   0  0  1  0  0  3  0  0  0  0  0  0
  186.4910  177.8610  146.9550 N   0  0  0  0  0  2  0  0  0  0  0  0
  190.6100  177.2280  144.4450 C   0  0  2  0  0  3  0  0  0  0  0  0
  184.6650  178.4390  145.4070 C   0  0  0  0  0  0  0  0  0  0  0  0
  183.7940  178.5080  146.4450 F   0  0  0  0  0  0  0  0  0  0  0  0
  186.4440  178.2950  143.2490 C   0  0  0  0  0  3  0  0  0  0  0  0
  188.8070  177.9240  146.1740 C   0  0  1  0  0  3  0  0  0  0  0  0
  190.4150  177.0870  146.2510 S   0  0  0  0  0  0  0  0  0  0  0  0
  184.2100  178.6690  144.1060 C   0  0  0  0  0  3  0  0  0  0  0  0
  185.0910  178.5960  143.0210 C   0  0  0  0  0  0  0  0  0  0  0  0
  186.0100  178.1240  145.6310 C   0  0  0  0  0  0  0  0  0  0  0  0
  184.5870  178.8350  141.7020 N   0  0  0  0  0  0  0  0  0  0  0  0
  185.3060  178.6900  140.6330 C   0  0  0  0  0  3  0  0  0  0  0  0
  184.7220  178.9590  139.2870 C   0  0  2  0  0  3  0  0  0  0  0  0
  184.4960  180.3270  139.1400 O   0  0  0  0  0  1  0  0  0  0  0  0
  183.4440  178.2080  139.1030 C   0  0  0  0  0  0  0  0  0  0  0  0
  182.2320  178.8760  139.2080 O   0  0  0  0  0  1  0  0  0  0  0  0
  183.4580  176.9770  138.8330 O   0  0  0  0  0  0  0  0  0  0  0  0
  191.9890  179.3870  143.8800 N   0  0  0  0  0  0  0  0  0  0  0  0
  191.3810  178.4340  144.1290 C   0  0  0  0  0  0  0  0  0  0  0  0
  189.9230  175.2310  142.8200 O   0  0  0  0  0  1  0  0  0  0  0  0
  188.8110  175.9670  143.2370 C   0  0  0  0  0  2  0  0  0  0  0  0
  1 10  1  0  0  0  0
  2  1  1  0  0  0  0
  2 14  1  0  0  0  0
  4 25  1  1  0  0  0
  4  6  1  0  0  0  0
  4  1  1  0  0  0  0
  5  3  1  0  0  0  0
  6 23  1  1  0  0  0
  6 11  1  0  0  0  0
  7 14  2  0  0  0  0
  7  8  1  0  0  0  0
  9  2  2  0  0  0  0
 10 11  1  0  0  0  0
 10  3  1  1  0  0  0
 12  7  1  0  0  0  0
 13  9  1  0  0  0  0
 13 12  2  0  0  0  0
 14  5  1  0  0  0  0
 15 13  1  0  0  0  0
 16 15  2  0  0  0  0
 17 18  1  1  0  0  0
 17 16  1  0  0  0  0
 19 20  1  0  0  0  0
 19 17  1  0  0  0  0
 21 19  2  0  0  0  0
 22 23  3  0  0  0  0
 24 25  1  0  0  0  0
M  END
>  <MODEL>
3

>  <REMARK>
 VINA RESULT:      -7.3      0.912      1.483
  Name = 
  5 active torsions:
  status: ('A' for Active; 'I' for Inactive)
    1  A    between atoms: C_2  and  C_21
    2  A    between atoms: C_5  and  C_22
    3  A    between atoms: N_6  and  C_23
    4  A    between atoms: C_10  and  C_11
    5  A    between atoms: C_15  and  C_21
                            x       y       z     vdW  Elec       q    Type
                         _______ _______ _______ _____ _____    ______ ____

>  <TORSDO>
F 5

$$$$
=
 OpenBabel10272400533D

 25 27  0  0  1  0  0  0  0  0999 V2000
  184.0600  178.2460  142.5380 N   0  0  0  0  0  0  0  0  0  0  0  0
  185.1200  178.1540  143.5030 C   0  0  0  0  0  0  0  0  0  0  0  0
  182.6230  179.4580  144.0990 C   0  0  0  0  0  2  0  0  0  0  0  0
  184.2730  178.2050  141.0970 C   0  0  1  0  0  3  0  0  0  0  0  0
  183.5880  179.1250  145.1470 N   0  0  0  0  0  2  0  0  0  0  0  0
  182.9120  178.2240  140.4130 C   0  0  2  0  0  3  0  0  0  0  0  0
  185.8720  178.4680  145.7910 C   0  0  0  0  0  0  0  0  0  0  0  0
  185.6380  178.8670  147.0670 F   0  0  0  0  0  0  0  0  0  0  0  0
  186.3800  177.6440  143.1640 C   0  0  0  0  0  3  0  0  0  0  0  0
  182.6850  178.4100  142.9900 C   0  0  1  0  0  3  0  0  0  0  0  0
  181.6840  178.9200  141.5660 S   0  0  0  0  0  0  0  0  0  0  0  0
  187.1260  177.9550  145.4460 C   0  0  0  0  0  3  0  0  0  0  0  0
  187.3900  177.5450  144.1350 C   0  0  0  0  0  0  0  0  0  0  0  0
  184.8720  178.5800  144.8190 C   0  0  0  0  0  0  0  0  0  0  0  0
  188.6880  177.0280  143.8190 N   0  0  0  0  0  0  0  0  0  0  0  0
  189.5010  177.6110  142.9960 C   0  0  0  0  0  3  0  0  0  0  0  0
  190.8390  177.0190  142.7060 C   0  0  2  0  0  3  0  0  0  0  0  0
  191.8280  177.7610  143.3510 O   0  0  0  0  0  1  0  0  0  0  0  0
  191.0990  176.9890  141.2360 C   0  0  0  0  0  0  0  0  0  0  0  0
  192.1610  177.7130  140.7110 O   0  0  0  0  0  1  0  0  0  0  0  0
  190.3760  176.2970  140.4710 O   0  0  0  0  0  0  0  0  0  0  0  0
  182.2180  175.7780  139.7670 N   0  0  0  0  0  0  0  0  0  0  0  0
  182.5250  176.8580  140.0520 C   0  0  0  0  0  0  0  0  0  0  0  0
  184.6320  179.9200  139.4390 O   0  0  0  0  0  1  0  0  0  0  0  0
  185.1230  179.3860  140.6330 C   0  0  0  0  0  2  0  0  0  0  0  0
  1 10  1  0  0  0  0
  1  2  1  0  0  0  0
  2 14  1  0  0  0  0
  3  5  1  0  0  0  0
  4 25  1  6  0  0  0
  4  1  1  0  0  0  0
  6 23  1  1  0  0  0
  6  4  1  0  0  0  0
  6 11  1  0  0  0  0
  7  8  1  0  0  0  0
  9  2  2  0  0  0  0
  9 13  1  0  0  0  0
 10  3  1  1  0  0  0
 11 10  1  0  0  0  0
 12  7  1  0  0  0  0
 13 12  2  0  0  0  0
 14  5  1  0  0  0  0
 14  7  2  0  0  0  0
 15 13  1  0  0  0  0
 16 15  2  0  0  0  0
 17 16  1  0  0  0  0
 17 18  1  1  0  0  0
 19 17  1  0  0  0  0
 20 19  1  0  0  0  0
 21 19  2  0  0  0  0
 22 23  3  0  0  0  0
 24 25  1  0  0  0  0
M  END
>  <MODEL>
4

>  <REMARK>
 VINA RESULT:      -7.2      2.934      6.620
  Name = 
  5 active torsions:
  status: ('A' for Active; 'I' for Inactive)
    1  A    between atoms: C_2  and  C_21
    2  A    between atoms: C_5  and  C_22
    3  A    between atoms: N_6  and  C_23
    4  A    between atoms: C_10  and  C_11
    5  A    between atoms: C_15  and  C_21
                            x       y       z     vdW  Elec       q    Type
                         _______ _______ _______ _____ _____    ______ ____

>  <TORSDO>
F 5

$$$$
=
 OpenBabel10272400533D

 25 27  0  0  1  0  0  0  0  0999 V2000
  187.8960  177.8870  144.6740 N   0  0  0  0  0  0  0  0  0  0  0  0
  186.5570  178.1760  144.2390 C   0  0  0  0  0  0  0  0  0  0  0  0
  187.1760  177.5920  146.9890 C   0  0  0  0  0  2  0  0  0  0  0  0
  188.9300  177.3450  143.8020 C   0  0  1  0  0  3  0  0  0  0  0  0
  185.8820  178.1470  146.5910 N   0  0  0  0  0  2  0  0  0  0  0  0
  190.2300  177.2750  144.5900 C   0  0  2  0  0  3  0  0  0  0  0  0
  184.2460  178.6440  144.8190 C   0  0  0  0  0  0  0  0  0  0  0  0
  183.2710  178.8000  145.7500 F   0  0  0  0  0  0  0  0  0  0  0  0
  186.2420  178.3210  142.8820 C   0  0  0  0  0  3  0  0  0  0  0  0
  188.2690  178.1180  146.0630 C   0  0  1  0  0  3  0  0  0  0  0  0
  189.8390  177.2640  146.3700 S   0  0  0  0  0  0  0  0  0  0  0  0
  183.9380  178.7910  143.4640 C   0  0  0  0  0  3  0  0  0  0  0  0
  184.9280  178.6270  142.4880 C   0  0  0  0  0  0  0  0  0  0  0  0
  185.5520  178.3240  145.2080 C   0  0  0  0  0  0  0  0  0  0  0  0
  184.5740  178.7820  141.1090 N   0  0  0  0  0  0  0  0  0  0  0  0
  185.4210  178.6320  140.1400 C   0  0  0  0  0  3  0  0  0  0  0  0
  184.9900  178.8100  138.7240 C   0  0  2  0  0  3  0  0  0  0  0  0
  183.7380  178.2230  138.5390 O   0  0  0  0  0  1  0  0  0  0  0  0
  185.9820  178.2040  137.7860 C   0  0  0  0  0  0  0  0  0  0  0  0
  187.2130  178.8170  137.5970 O   0  0  0  0  0  1  0  0  0  0  0  0
  185.7180  177.1310  137.1810 O   0  0  0  0  0  0  0  0  0  0  0  0
  191.7110  179.3670  144.0330 N   0  0  0  0  0  0  0  0  0  0  0  0
  191.0580  178.4430  144.2790 C   0  0  0  0  0  0  0  0  0  0  0  0
  189.6590  175.2740  142.8020 O   0  0  0  0  0  1  0  0  0  0  0  0
  188.5420  175.9620  143.2820 C   0  0  0  0  0  2  0  0  0  0  0  0
  1 10  1  0  0  0  0
  2  1  1  0  0  0  0
  2 14  1  0  0  0  0
  4 25  1  1  0  0  0
  4  6  1  0  0  0  0
  4  1  1  0  0  0  0
  5  3  1  0  0  0  0
  6 23  1  1  0  0  0
  6 11  1  0  0  0  0
  7 14  2  0  0  0  0
  7  8  1  0  0  0  0
  9  2  2  0  0  0  0
 10 11  1  0  0  0  0
 10  3  1  1  0  0  0
 12  7  1  0  0  0  0
 13  9  1  0  0  0  0
 13 12  2  0  0  0  0
 14  5  1  0  0  0  0
 15 13  1  0  0  0  0
 16 15  2  0  0  0  0
 17 18  1  1  0  0  0
 17 16  1  0  0  0  0
 19 17  1  0  0  0  0
 20 19  1  0  0  0  0
 21 19  2  0  0  0  0
 22 23  3  0  0  0  0
 24 25  1  0  0  0  0
M  END
>  <MODEL>
5

>  <REMARK>
 VINA RESULT:      -7.2      1.384      1.712
  Name = 
  5 active torsions:
  status: ('A' for Active; 'I' for Inactive)
    1  A    between atoms: C_2  and  C_21
    2  A    between atoms: C_5  and  C_22
    3  A    between atoms: N_6  and  C_23
    4  A    between atoms: C_10  and  C_11
    5  A    between atoms: C_15  and  C_21
                            x       y       z     vdW  Elec       q    Type
                         _______ _______ _______ _____ _____    ______ ____

>  <TORSDO>
F 5

$$$$
=
 OpenBabel10272400533D

 25 27  0  0  1  0  0  0  0  0999 V2000
  189.8320  176.9690  139.2960 N   0  0  0  0  0  0  0  0  0  0  0  0
  189.1280  177.3050  140.5030 C   0  0  0  0  0  0  0  0  0  0  0  0
  188.5390  178.5770  137.9880 C   0  0  0  0  0  2  0  0  0  0  0  0
  191.1790  176.4150  139.2750 C   0  0  1  0  0  3  0  0  0  0  0  0
  187.6560  178.7140  139.1460 N   0  0  0  0  0  2  0  0  0  0  0  0
  191.5400  176.0950  137.8300 C   0  0  2  0  0  3  0  0  0  0  0  0
  187.2930  178.4860  141.5710 C   0  0  0  0  0  0  0  0  0  0  0  0
  186.2180  179.3100  141.4980 F   0  0  0  0  0  0  0  0  0  0  0  0
  189.5120  176.7870  141.7460 C   0  0  0  0  0  3  0  0  0  0  0  0
  189.2000  177.2010  138.0040 C   0  0  1  0  0  3  0  0  0  0  0  0
  190.4830  177.0880  136.7270 S   0  0  0  0  0  0  0  0  0  0  0  0
  187.6800  177.9620  142.8080 C   0  0  0  0  0  3  0  0  0  0  0  0
  188.7900  177.1160  142.9060 C   0  0  0  0  0  0  0  0  0  0  0  0
  188.0230  178.1690  140.4200 C   0  0  0  0  0  0  0  0  0  0  0  0
  189.1580  176.6010  144.1910 N   0  0  0  0  0  0  0  0  0  0  0  0
  189.4630  177.3600  145.1960 C   0  0  0  0  0  3  0  0  0  0  0  0
  189.8410  176.7610  146.5090 C   0  0  2  0  0  3  0  0  0  0  0  0
  189.3800  177.5750  147.5440 O   0  0  0  0  0  1  0  0  0  0  0  0
  191.3220  176.5950  146.6100 C   0  0  0  0  0  0  0  0  0  0  0  0
  191.9700  176.9150  147.7950 O   0  0  0  0  0  1  0  0  0  0  0  0
  191.9840  176.1490  145.6360 O   0  0  0  0  0  0  0  0  0  0  0  0
  191.1390  173.5450  137.3670 N   0  0  0  0  0  0  0  0  0  0  0  0
  191.3160  174.6710  137.5710 C   0  0  0  0  0  0  0  0  0  0  0  0
  193.4750  177.1450  139.3980 O   0  0  0  0  0  1  0  0  0  0  0  0
  192.1860  177.3940  139.8760 C   0  0  0  0  0  2  0  0  0  0  0  0
  1  2  1  0  0  0  0
  2  9  1  0  0  0  0
  3  5  1  0  0  0  0
  4  1  1  0  0  0  0
  4 25  1  6  0  0  0
  5 14  1  0  0  0  0
  6 23  1  6  0  0  0
  6  4  1  0  0  0  0
  7 12  2  0  0  0  0
  8  7  1  0  0  0  0
  9 13  2  0  0  0  0
 10  3  1  1  0  0  0
 10  1  1  0  0  0  0
 11  6  1  0  0  0  0
 11 10  1  0  0  0  0
 12 13  1  0  0  0  0
 13 15  1  0  0  0  0
 14  2  2  0  0  0  0
 14  7  1  0  0  0  0
 15 16  2  0  0  0  0
 16 17  1  0  0  0  0
 17 19  1  0  0  0  0
 17 18  1  1  0  0  0
 19 20  1  0  0  0  0
 21 19  2  0  0  0  0
 22 23  3  0  0  0  0
 24 25  1  0  0  0  0
M  END
>  <MODEL>
6

>  <REMARK>
 VINA RESULT:      -6.9      4.838      7.457
  Name = 
  5 active torsions:
  status: ('A' for Active; 'I' for Inactive)
    1  A    between atoms: C_2  and  C_21
    2  A    between atoms: C_5  and  C_22
    3  A    between atoms: N_6  and  C_23
    4  A    between atoms: C_10  and  C_11
    5  A    between atoms: C_15  and  C_21
                            x       y       z     vdW  Elec       q    Type
                         _______ _______ _______ _____ _____    ______ ____

>  <TORSDO>
F 5

$$$$
=
 OpenBabel10272400533D

 25 27  0  0  1  0  0  0  0  0999 V2000
  183.1370  178.1490  140.8930 N   0  0  0  0  0  0  0  0  0  0  0  0
  183.8770  178.3300  142.1110 C   0  0  0  0  0  0  0  0  0  0  0  0
  181.1140  179.1040  141.8740 C   0  0  0  0  0  2  0  0  0  0  0  0
  183.7550  178.0840  139.5750 C   0  0  1  0  0  3  0  0  0  0  0  0
  181.7850  179.0330  143.1710 N   0  0  0  0  0  2  0  0  0  0  0  0
  182.6670  177.7820  138.5530 C   0  0  2  0  0  3  0  0  0  0  0  0
  183.8730  178.9060  144.4710 C   0  0  0  0  0  0  0  0  0  0  0  0
  183.2140  179.3070  145.5870 F   0  0  0  0  0  0  0  0  0  0  0  0
  185.2540  178.0820  142.1780 C   0  0  0  0  0  3  0  0  0  0  0  0
  181.6850  178.0400  140.9390 C   0  0  1  0  0  3  0  0  0  0  0  0
  181.0540  178.2580  139.2530 S   0  0  0  0  0  0  0  0  0  0  0  0
  185.2470  178.6540  144.5310 C   0  0  0  0  0  3  0  0  0  0  0  0
  185.9460  178.2460  143.3900 C   0  0  0  0  0  0  0  0  0  0  0  0
  183.1890  178.7570  143.2590 C   0  0  0  0  0  0  0  0  0  0  0  0
  187.3540  178.0000  143.4900 N   0  0  0  0  0  0  0  0  0  0  0  0
  187.8920  177.3670  144.4850 C   0  0  0  0  0  3  0  0  0  0  0  0
  189.3660  177.1460  144.5310 C   0  0  2  0  0  3  0  0  0  0  0  0
  190.0000  178.3090  144.9710 O   0  0  0  0  0  1  0  0  0  0  0  0
  189.8880  176.7580  143.1860 C   0  0  0  0  0  0  0  0  0  0  0  0
  190.4030  177.7310  142.3410 O   0  0  0  0  0  0  0  0  0  0  0  0
  189.8820  175.5520  142.8220 O   0  0  0  0  0  1  0  0  0  0  0  0
  182.6620  175.2170  138.0060 N   0  0  0  0  0  0  0  0  0  0  0  0
  182.6640  176.3490  138.2470 C   0  0  0  0  0  0  0  0  0  0  0  0
  185.6130  179.1620  138.4770 O   0  0  0  0  0  1  0  0  0  0  0  0
  184.4620  179.3950  139.2340 C   0  0  0  0  0  2  0  0  0  0  0  0
  1 10  1  0  0  0  0
  1  2  1  0  0  0  0
  2  9  2  0  0  0  0
  2 14  1  0  0  0  0
  3  5  1  0  0  0  0
  4 25  1  6  0  0  0
  4  1  1  0  0  0  0
  5 14  1  0  0  0  0
  6 23  1  1  0  0  0
  6 11  1  0  0  0  0
  6  4  1  0  0  0  0
  7 12  1  0  0  0  0
  7  8  1  0  0  0  0
  9 13  1  0  0  0  0
 10  3  1  1  0  0  0
 11 10  1  0  0  0  0
 13 15  1  0  0  0  0
 13 12  2  0  0  0  0
 14  7  2  0  0  0  0
 15 16  2  0  0  0  0
 16 17  1  0  0  0  0
 17 18  1  6  0  0  0
 19 17  1  0  0  0  0
 20 19  2  0  0  0  0
 21 19  1  0  0  0  0
 22 23  3  0  0  0  0
 24 25  1  0  0  0  0
M  END
>  <MODEL>
7

>  <REMARK>
 VINA RESULT:      -6.5      3.319      7.253
  Name = 
  5 active torsions:
  status: ('A' for Active; 'I' for Inactive)
    1  A    between atoms: C_2  and  C_21
    2  A    between atoms: C_5  and  C_22
    3  A    between atoms: N_6  and  C_23
    4  A    between atoms: C_10  and  C_11
    5  A    between atoms: C_15  and  C_21
                            x       y       z     vdW  Elec       q    Type
                         _______ _______ _______ _____ _____    ______ ____

>  <TORSDO>
F 5

$$$$
=
 OpenBabel10272400533D

 25 27  0  0  1  0  0  0  0  0999 V2000
  188.5790  177.7690  143.7240 N   0  0  0  0  0  0  0  0  0  0  0  0
  187.4590  178.0100  142.8560 C   0  0  0  0  0  0  0  0  0  0  0  0
  187.1180  177.2930  145.6230 C   0  0  0  0  0  2  0  0  0  0  0  0
  189.8890  177.3400  143.2520 C   0  0  1  0  0  3  0  0  0  0  0  0
  186.0080  177.7990  144.8160 N   0  0  0  0  0  2  0  0  0  0  0  0
  190.8330  177.2940  144.4460 C   0  0  2  0  0  3  0  0  0  0  0  0
  185.0620  178.3120  142.6000 C   0  0  0  0  0  0  0  0  0  0  0  0
  183.8150  178.3560  143.1320 F   0  0  0  0  0  0  0  0  0  0  0  0
  187.6280  178.2200  141.4810 C   0  0  0  0  0  3  0  0  0  0  0  0
  188.4250  177.9350  145.1630 C   0  0  1  0  0  3  0  0  0  0  0  0
  189.8470  177.1520  145.9710 S   0  0  0  0  0  0  0  0  0  0  0  0
  185.2390  178.5240  141.2300 C   0  0  0  0  0  3  0  0  0  0  0  0
  186.5150  178.4760  140.6610 C   0  0  0  0  0  0  0  0  0  0  0  0
  186.1700  178.0420  143.4130 C   0  0  0  0  0  0  0  0  0  0  0  0
  186.6560  178.6950  139.2520 N   0  0  0  0  0  0  0  0  0  0  0  0
  187.3450  177.9150  138.4800 C   0  0  0  0  0  3  0  0  0  0  0  0
  187.4540  178.2000  137.0210 C   0  0  2  0  0  3  0  0  0  0  0  0
  187.3150  179.5700  136.8000 O   0  0  0  0  0  1  0  0  0  0  0  0
  186.4130  177.4520  136.2540 C   0  0  0  0  0  0  0  0  0  0  0  0
  185.4010  176.7900  136.9350 O   0  0  0  0  0  1  0  0  0  0  0  0
  186.4360  177.4320  134.9940 O   0  0  0  0  0  0  0  0  0  0  0  0
  192.2580  179.4950  144.5260 N   0  0  0  0  0  0  0  0  0  0  0  0
  191.6290  178.5230  144.4910 C   0  0  0  0  0  0  0  0  0  0  0  0
  190.3540  176.0130  141.2920 O   0  0  0  0  0  1  0  0  0  0  0  0
  189.8090  175.9710  142.5780 C   0  0  0  0  0  2  0  0  0  0  0  0
  1 10  1  0  0  0  0
  2 14  1  0  0  0  0
  2  1  1  0  0  0  0
  4 25  1  1  0  0  0
  4  1  1  0  0  0  0
  4  6  1  0  0  0  0
  5  3  1  0  0  0  0
  6 23  1  1  0  0  0
  6 11  1  0  0  0  0
  7  8  1  0  0  0  0
  7 14  2  0  0  0  0
  9  2  2  0  0  0  0
 10  3  1  1  0  0  0
 10 11  1  0  0  0  0
 12  7  1  0  0  0  0
 13 12  2  0  0  0  0
 13  9  1  0  0  0  0
 14  5  1  0  0  0  0
 15 13  1  0  0  0  0
 16 15  2  0  0  0  0
 17 18  1  1  0  0  0
 17 16  1  0  0  0  0
 19 20  1  0  0  0  0
 19 17  1  0  0  0  0
 21 19  2  0  0  0  0
 23 22  3  0  0  0  0
 24 25  1  0  0  0  0
M  END
>  <MODEL>
8

>  <REMARK>
 VINA RESULT:      -6.3      2.535      3.270
  Name = 
  5 active torsions:
  status: ('A' for Active; 'I' for Inactive)
    1  A    between atoms: C_2  and  C_21
    2  A    between atoms: C_5  and  C_22
    3  A    between atoms: N_6  and  C_23
    4  A    between atoms: C_10  and  C_11
    5  A    between atoms: C_15  and  C_21
                            x       y       z     vdW  Elec       q    Type
                         _______ _______ _______ _____ _____    ______ ____

>  <TORSDO>
F 5

$$$$
=
 OpenBabel10272400533D

 25 27  0  0  1  0  0  0  0  0999 V2000
  187.4020  177.5530  138.2570 N   0  0  0  0  0  0  0  0  0  0  0  0
  187.5720  177.8720  139.6470 C   0  0  0  0  0  0  0  0  0  0  0  0
  185.2730  178.7460  138.1510 C   0  0  0  0  0  2  0  0  0  0  0  0
  188.5070  177.2620  137.3530 C   0  0  1  0  0  3  0  0  0  0  0  0
  185.3210  178.8320  139.6110 N   0  0  0  0  0  2  0  0  0  0  0  0
  187.9270  176.8700  136.0000 C   0  0  2  0  0  3  0  0  0  0  0  0
  186.6360  178.7890  141.6920 C   0  0  0  0  0  0  0  0  0  0  0  0
  185.6160  179.3850  142.3600 F   0  0  0  0  0  0  0  0  0  0  0  0
  188.7560  177.5650  140.3310 C   0  0  0  0  0  3  0  0  0  0  0  0
  186.0640  177.5280  137.6800 C   0  0  1  0  0  3  0  0  0  0  0  0
  186.2320  177.5280  135.8750 S   0  0  0  0  0  0  0  0  0  0  0  0
  187.8190  178.4770  142.3690 C   0  0  0  0  0  3  0  0  0  0  0  0
  188.8840  177.8700  141.6970 C   0  0  0  0  0  0  0  0  0  0  0  0
  186.5160  178.5000  140.3280 C   0  0  0  0  0  0  0  0  0  0  0  0
  190.0810  177.5680  142.4240 N   0  0  0  0  0  0  0  0  0  0  0  0
  190.0760  177.0930  143.6290 C   0  0  0  0  0  3  0  0  0  0  0  0
  191.3580  176.8020  144.3340 C   0  0  2  0  0  3  0  0  0  0  0  0
  191.8290  175.5470  143.9480 O   0  0  0  0  0  1  0  0  0  0  0  0
  191.1710  176.8440  145.8150 C   0  0  0  0  0  0  0  0  0  0  0  0
  189.9170  177.1200  146.3430 O   0  0  0  0  0  0  0  0  0  0  0  0
  192.1380  176.6120  146.5890 O   0  0  0  0  0  1  0  0  0  0  0  0
  187.8690  174.2570  135.7920 N   0  0  0  0  0  0  0  0  0  0  0  0
  187.8950  175.4100  135.8840 C   0  0  0  0  0  0  0  0  0  0  0  0
  188.7110  179.6650  137.2700 O   0  0  0  0  0  1  0  0  0  0  0  0
  189.4320  178.4700  137.2100 C   0  0  0  0  0  2  0  0  0  0  0  0
  1  2  1  0  0  0  0
  2 14  2  0  0  0  0
  2  9  1  0  0  0  0
  3  5  1  0  0  0  0
  4 25  1  6  0  0  0
  4  1  1  0  0  0  0
  5 14  1  0  0  0  0
  6 23  1  1  0  0  0
  6  4  1  0  0  0  0
  7  8  1  0  0  0  0
  7 12  2  0  0  0  0
  9 13  2  0  0  0  0
 10  3  1  6  0  0  0
 10  1  1  0  0  0  0
 11  6  1  0  0  0  0
 11 10  1  0  0  0  0
 13 12  1  0  0  0  0
 13 15  1  0  0  0  0
 14  7  1  0  0  0  0
 15 16  2  0  0  0  0
 16 17  1  0  0  0  0
 17 18  1  6  0  0  0
 17 19  1  0  0  0  0
 19 20  2  0  0  0  0
 19 21  1  0  0  0  0
 22 23  3  0  0  0  0
 25 24  1  0  0  0  0
M  END
>  <MODEL>
9

>  <REMARK>
 VINA RESULT:      -6.0      4.624      7.951
  Name = 
  5 active torsions:
  status: ('A' for Active; 'I' for Inactive)
    1  A    between atoms: C_2  and  C_21
    2  A    between atoms: C_5  and  C_22
    3  A    between atoms: N_6  and  C_23
    4  A    between atoms: C_10  and  C_11
    5  A    between atoms: C_15  and  C_21
                            x       y       z     vdW  Elec       q    Type
                         _______ _______ _______ _____ _____    ______ ____

>  <TORSDO>
F 5

$$$$
