=
 OpenBabel10262423513D

 34 39  0  0  1  0  0  0  0  0999 V2000
  184.9630  178.7170  143.2780 C   0  0  0  0  0  0  0  0  0  0  0  0
  186.7640  177.4530  144.4050 C   0  0  0  0  0  0  0  0  0  0  0  0
  186.8750  178.0720  141.9210 C   0  0  0  0  0  0  0  0  0  0  0  0
  188.6450  177.1300  140.4400 C   0  0  2  0  0  3  0  0  0  0  0  0
  185.2030  178.8630  145.7590 C   0  0  0  0  0  2  0  0  0  0  0  0
  186.1920  177.7960  145.6700 N   0  0  0  0  0  2  0  0  0  0  0  0
  189.2910  178.0490  142.6410 C   0  0  0  0  0  2  0  0  0  0  0  0
  186.2250  178.0960  143.1800 C   0  0  0  0  0  0  0  0  0  0  0  0
  190.4440  176.9080  140.4480 S   0  0  0  0  0  0  0  0  0  0  0  0
  184.2260  178.7660  144.5890 C   0  0  0  0  0  2  0  0  0  0  0  0
  186.1950  178.5500  140.7830 C   0  0  0  0  0  0  0  0  0  0  0  0
  184.3500  179.1970  142.1640 N   0  0  0  0  0  0  0  0  0  0  0  0
  187.6370  176.5490  144.3460 O   0  0  0  0  0  0  0  0  0  0  0  0
  188.2510  178.1600  139.3890 C   0  0  0  0  0  2  0  0  0  0  0  0
  186.8210  178.4470  139.4830 N   0  0  0  0  0  0  0  0  0  0  0  0
  190.6030  178.0170  141.8800 C   0  0  2  0  0  3  0  0  0  0  0  0
  188.2280  177.6110  141.7500 N   0  0  0  0  0  0  0  0  0  0  0  0
  184.9260  179.1190  140.9390 C   0  0  0  0  0  3  0  0  0  0  0  0
  187.1680  177.4790  136.3050 C   0  0  2  0  0  3  0  0  0  0  0  0
  185.8450  177.0190  135.6850 C   0  0  0  0  0  2  0  0  0  0  0  0
  186.0820  178.5160  138.2220 C   0  0  1  0  0  3  0  0  0  0  0  0
  184.6470  177.2480  136.6140 C   0  0  0  0  0  2  0  0  0  0  0  0
  186.9900  178.7100  137.0760 N   0  0  0  0  0  2  0  0  0  0  0  0
  185.0840  177.3570  138.0680 C   0  0  0  0  0  2  0  0  0  0  0  0
  188.1940  177.7000  135.2150 C   0  0  0  0  0  1  0  0  0  0  0  0
  191.7660  177.6250  142.7860 C   0  0  0  0  0  2  0  0  0  0  0  0
  191.4650  176.4160  143.5470 N   0  0  0  0  0  2  0  0  0  0  0  0
  192.6940  174.2600  144.8320 F   0  0  0  0  0  0  0  0  0  0  0  0
  191.5280  176.3450  144.9750 C   0  0  0  0  0  0  0  0  0  0  0  0
  192.1500  175.2470  145.5860 C   0  0  0  0  0  0  0  0  0  0  0  0
  191.6600  176.1740  147.7710 C   0  0  0  0  0  3  0  0  0  0  0  0
  191.0370  177.2680  147.1680 C   0  0  0  0  0  3  0  0  0  0  0  0
  190.9690  177.3540  145.7740 C   0  0  0  0  0  3  0  0  0  0  0  0
  192.2150  175.1640  146.9800 C   0  0  0  0  0  3  0  0  0  0  0  0
  1 10  1  0  0  0  0
  2  6  1  0  0  0  0
  3  8  2  0  0  0  0
  4 14  1  6  0  0  0
  4  9  1  0  0  0  0
  4 17  1  0  0  0  0
  6  5  1  0  0  0  0
  8  1  1  0  0  0  0
  8  2  1  0  0  0  0
  9 16  1  0  0  0  0
 10  5  1  0  0  0  0
 11 18  2  0  0  0  0
 11  3  1  0  0  0  0
 12  1  2  0  0  0  0
 13  2  2  0  0  0  0
 14 15  1  0  0  0  0
 15 11  1  0  0  0  0
 16  7  1  0  0  0  0
 16 26  1  1  0  0  0
 17  3  1  0  0  0  0
 17  7  1  0  0  0  0
 18 12  1  0  0  0  0
 19 25  1  6  0  0  0
 19 23  1  0  0  0  0
 20 19  1  0  0  0  0
 20 22  1  0  0  0  0
 21 24  1  6  0  0  0
 21 15  1  0  0  0  0
 22 24  1  0  0  0  0
 23 21  1  0  0  0  0
 26 27  1  0  0  0  0
 27 29  1  0  0  0  0
 28 30  1  0  0  0  0
 29 30  2  0  0  0  0
 29 33  1  0  0  0  0
 30 34  1  0  0  0  0
 32 31  1  0  0  0  0
 33 32  2  0  0  0  0
 34 31  2  0  0  0  0
M  END
>  <MODEL>
1

>  <REMARK>
 VINA RESULT:      -9.0      0.000      0.000
  Name = 
  4 active torsions:
  status: ('A' for Active; 'I' for Inactive)
    1  A    between atoms: N_3  and  C_13
    2  A    between atoms: N_3  and  C_17
    3  A    between atoms: C_12  and  N_28
    4  A    between atoms: C_17  and  C_29
                            x       y       z     vdW  Elec       q    Type
                         _______ _______ _______ _____ _____    ______ ____

>  <TORSDO>
F 4

$$$$
=
 OpenBabel10262423513D

 34 39  0  0  1  0  0  0  0  0999 V2000
  185.1980  178.3050  143.3190 C   0  0  0  0  0  0  0  0  0  0  0  0
  186.3730  178.9960  141.2560 C   0  0  0  0  0  0  0  0  0  0  0  0
  187.5940  177.8990  143.2240 C   0  0  0  0  0  0  0  0  0  0  0  0
  190.0830  177.7900  143.2920 C   0  0  2  0  0  3  0  0  0  0  0  0
  183.9080  178.5780  141.1980 C   0  0  0  0  0  2  0  0  0  0  0  0
  185.1090  179.1550  140.6070 N   0  0  0  0  0  2  0  0  0  0  0  0
  188.9150  177.1540  141.2100 C   0  0  0  0  0  2  0  0  0  0  0  0
  186.4110  178.3740  142.6020 C   0  0  0  0  0  0  0  0  0  0  0  0
  191.4500  177.3160  142.2010 S   0  0  0  0  0  0  0  0  0  0  0  0
  183.9140  178.8000  142.7100 C   0  0  0  0  0  2  0  0  0  0  0  0
  187.5510  177.4950  144.5740 C   0  0  0  0  0  0  0  0  0  0  0  0
  185.1890  177.8800  144.6080 N   0  0  0  0  0  0  0  0  0  0  0  0
  187.4070  179.4750  140.7210 O   0  0  0  0  0  0  0  0  0  0  0  0
  189.9630  176.7960  144.4410 C   0  0  0  0  0  2  0  0  0  0  0  0
  188.7730  177.0930  145.2360 N   0  0  0  0  0  0  0  0  0  0  0  0
  190.2900  176.5380  141.0370 C   0  0  2  0  0  3  0  0  0  0  0  0
  188.8460  177.7730  142.5250 N   0  0  0  0  0  0  0  0  0  0  0  0
  186.3220  177.4890  145.2420 C   0  0  0  0  0  3  0  0  0  0  0  0
  191.2220  176.9120  147.5000 C   0  0  2  0  0  3  0  0  0  0  0  0
  190.9370  177.7650  148.7400 C   0  0  0  0  0  2  0  0  0  0  0  0
  188.9300  177.0580  146.6900 C   0  0  1  0  0  3  0  0  0  0  0  0
  189.5350  178.3850  148.7210 C   0  0  0  0  0  2  0  0  0  0  0  0
  190.0330  176.1630  147.0900 N   0  0  0  0  0  2  0  0  0  0  0  0
  188.9820  178.4650  147.3050 C   0  0  0  0  0  2  0  0  0  0  0  0
  192.3570  175.9540  147.7880 C   0  0  0  0  0  1  0  0  0  0  0  0
  190.7700  176.6360  139.5930 C   0  0  0  0  0  2  0  0  0  0  0  0
  190.1030  177.7230  138.8820 N   0  0  0  0  0  2  0  0  0  0  0  0
  189.1280  179.8460  137.3480 F   0  0  0  0  0  0  0  0  0  0  0  0
  189.0940  177.5150  137.8880 C   0  0  0  0  0  0  0  0  0  0  0  0
  188.6250  178.6030  137.1390 C   0  0  0  0  0  0  0  0  0  0  0  0
  187.1120  177.1390  135.9410 C   0  0  0  0  0  3  0  0  0  0  0  0
  187.5720  176.0510  136.6860 C   0  0  0  0  0  3  0  0  0  0  0  0
  188.5590  176.2380  137.6590 C   0  0  0  0  0  3  0  0  0  0  0  0
  187.6380  178.4130  136.1680 C   0  0  0  0  0  3  0  0  0  0  0  0
  1 12  1  0  0  0  0
  2  8  1  0  0  0  0
  3 11  2  0  0  0  0
  4 14  1  1  0  0  0
  5 10  1  0  0  0  0
  6  5  1  0  0  0  0
  6  2  1  0  0  0  0
  7 17  1  0  0  0  0
  8  3  1  0  0  0  0
  8  1  2  0  0  0  0
  9  4  1  0  0  0  0
 10  1  1  0  0  0  0
 11 15  1  0  0  0  0
 11 18  1  0  0  0  0
 12 18  2  0  0  0  0
 13  2  2  0  0  0  0
 14 15  1  0  0  0  0
 16 26  1  6  0  0  0
 16  7  1  0  0  0  0
 16  9  1  0  0  0  0
 17  3  1  0  0  0  0
 17  4  1  0  0  0  0
 19 25  1  1  0  0  0
 19 20  1  0  0  0  0
 21 15  1  6  0  0  0
 21 23  1  0  0  0  0
 21 24  1  0  0  0  0
 22 20  1  0  0  0  0
 23 19  1  0  0  0  0
 24 22  1  0  0  0  0
 27 26  1  0  0  0  0
 29 27  1  0  0  0  0
 30 28  1  0  0  0  0
 30 29  2  0  0  0  0
 31 34  2  0  0  0  0
 31 32  1  0  0  0  0
 32 33  2  0  0  0  0
 33 29  1  0  0  0  0
 34 30  1  0  0  0  0
M  END
>  <MODEL>
2

>  <REMARK>
 VINA RESULT:      -8.8      2.559      7.702
  Name = 
  4 active torsions:
  status: ('A' for Active; 'I' for Inactive)
    1  A    between atoms: N_3  and  C_13
    2  A    between atoms: N_3  and  C_17
    3  A    between atoms: C_12  and  N_28
    4  A    between atoms: C_17  and  C_29
                            x       y       z     vdW  Elec       q    Type
                         _______ _______ _______ _____ _____    ______ ____

>  <TORSDO>
F 4

$$$$
=
 OpenBabel10262423513D

 34 39  0  0  1  0  0  0  0  0999 V2000
  188.4840  177.6410  138.5540 C   0  0  0  0  0  0  0  0  0  0  0  0
  189.3870  178.1000  140.8090 C   0  0  0  0  0  0  0  0  0  0  0  0
  186.8920  178.3130  140.2650 C   0  0  0  0  0  0  0  0  0  0  0  0
  185.3040  179.3280  141.8970 C   0  0  2  0  0  3  0  0  0  0  0  0
  190.6770  176.6540  139.2280 C   0  0  0  0  0  2  0  0  0  0  0  0
  190.6180  177.4820  140.4260 N   0  0  0  0  0  2  0  0  0  0  0  0
  186.9200  177.6370  142.6940 C   0  0  0  0  0  2  0  0  0  0  0  0
  188.2250  178.0060  139.8920 C   0  0  0  0  0  0  0  0  0  0  0  0
  184.8910  179.1860  143.6560 S   0  0  0  0  0  0  0  0  0  0  0  0
  189.8810  177.3110  138.1010 C   0  0  0  0  0  2  0  0  0  0  0  0
  185.8920  178.3700  139.2740 C   0  0  0  0  0  0  0  0  0  0  0  0
  187.4880  177.6750  137.6310 N   0  0  0  0  0  0  0  0  0  0  0  0
  189.3430  178.7900  141.8610 O   0  0  0  0  0  0  0  0  0  0  0  0
  184.1580  178.7910  141.0470 C   0  0  0  0  0  2  0  0  0  0  0  0
  184.5490  178.7670  139.6390 N   0  0  0  0  0  0  0  0  0  0  0  0
  185.8750  177.6630  143.7940 C   0  0  2  0  0  3  0  0  0  0  0  0
  186.4970  178.5360  141.6320 N   0  0  0  0  0  0  0  0  0  0  0  0
  186.2210  178.0350  137.9570 C   0  0  0  0  0  3  0  0  0  0  0  0
  181.3990  178.1360  138.7260 C   0  0  2  0  0  3  0  0  0  0  0  0
  180.6270  179.4090  138.3680 C   0  0  0  0  0  2  0  0  0  0  0  0
  183.5620  179.2550  138.6760 C   0  0  1  0  0  3  0  0  0  0  0  0
  181.5150  180.6590  138.3690 C   0  0  0  0  0  2  0  0  0  0  0  0
  182.7420  178.1510  138.1430 N   0  0  0  0  0  2  0  0  0  0  0  0
  182.7630  180.4520  139.2160 C   0  0  0  0  0  2  0  0  0  0  0  0
  180.6400  176.9230  138.2350 C   0  0  0  0  0  1  0  0  0  0  0  0
  186.5090  177.5090  145.1730 C   0  0  0  0  0  2  0  0  0  0  0  0
  187.7600  178.2560  145.2710 N   0  0  0  0  0  2  0  0  0  0  0  0
  188.2680  177.7260  147.9670 F   0  0  0  0  0  0  0  0  0  0  0  0
  188.9980  177.6730  145.6880 C   0  0  0  0  0  0  0  0  0  0  0  0
  189.2210  177.4240  147.0500 C   0  0  0  0  0  0  0  0  0  0  0  0
  191.4170  176.5380  146.5380 C   0  0  0  0  0  3  0  0  0  0  0  0
  191.2030  176.7880  145.1810 C   0  0  0  0  0  3  0  0  0  0  0  0
  189.9970  177.3550  144.7560 C   0  0  0  0  0  3  0  0  0  0  0  0
  190.4270  176.8570  147.4710 C   0  0  0  0  0  3  0  0  0  0  0  0
  1  8  1  0  0  0  0
  2 13  2  0  0  0  0
  3 17  1  0  0  0  0
  4 14  1  6  0  0  0
  4  9  1  0  0  0  0
  5  6  1  0  0  0  0
  6  2  1  0  0  0  0
  7 16  1  0  0  0  0
  8  3  2  0  0  0  0
  8  2  1  0  0  0  0
  9 16  1  0  0  0  0
 10  1  1  0  0  0  0
 10  5  1  0  0  0  0
 11 15  1  0  0  0  0
 11  3  1  0  0  0  0
 12 18  1  0  0  0  0
 12  1  2  0  0  0  0
 15 14  1  0  0  0  0
 16 26  1  1  0  0  0
 17  4  1  0  0  0  0
 17  7  1  0  0  0  0
 18 11  2  0  0  0  0
 19 25  1  6  0  0  0
 20 22  1  0  0  0  0
 20 19  1  0  0  0  0
 21 24  1  1  0  0  0
 21 15  1  0  0  0  0
 22 24  1  0  0  0  0
 23 21  1  0  0  0  0
 23 19  1  0  0  0  0
 26 27  1  0  0  0  0
 27 29  1  0  0  0  0
 29 30  1  0  0  0  0
 30 34  2  0  0  0  0
 30 28  1  0  0  0  0
 31 34  1  0  0  0  0
 32 31  2  0  0  0  0
 33 32  1  0  0  0  0
 33 29  2  0  0  0  0
M  END
>  <MODEL>
3

>  <REMARK>
 VINA RESULT:      -8.7      2.800      4.875
  Name = 
  4 active torsions:
  status: ('A' for Active; 'I' for Inactive)
    1  A    between atoms: N_3  and  C_13
    2  A    between atoms: N_3  and  C_17
    3  A    between atoms: C_12  and  N_28
    4  A    between atoms: C_17  and  C_29
                            x       y       z     vdW  Elec       q    Type
                         _______ _______ _______ _____ _____    ______ ____

>  <TORSDO>
F 4

$$$$
=
 OpenBabel10262423513D

 34 39  0  0  1  0  0  0  0  0999 V2000
  192.5900  174.7790  136.5530 C   0  0  0  0  0  0  0  0  0  0  0  0
  193.3430  176.1480  138.4700 C   0  0  0  0  0  0  0  0  0  0  0  0
  190.9090  176.1370  137.6690 C   0  0  0  0  0  0  0  0  0  0  0  0
  189.2540  177.7700  138.5670 C   0  0  2  0  0  3  0  0  0  0  0  0
  194.6760  174.1500  137.7730 C   0  0  0  0  0  2  0  0  0  0  0  0
  194.5680  175.4110  138.4950 N   0  0  0  0  0  2  0  0  0  0  0  0
  190.7220  176.5640  140.1460 C   0  0  0  0  0  2  0  0  0  0  0  0
  192.2490  175.6850  137.5800 C   0  0  0  0  0  0  0  0  0  0  0  0
  188.7040  178.3990  140.1760 S   0  0  0  0  0  0  0  0  0  0  0  0
  193.9990  174.2710  136.4090 C   0  0  0  0  0  2  0  0  0  0  0  0
  189.9890  175.7770  136.6630 C   0  0  0  0  0  0  0  0  0  0  0  0
  191.6690  174.4280  135.6190 N   0  0  0  0  0  0  0  0  0  0  0  0
  193.2540  177.2220  139.1210 O   0  0  0  0  0  0  0  0  0  0  0  0
  188.1500  176.9350  137.9290 C   0  0  0  0  0  2  0  0  0  0  0  0
  188.6440  176.3080  136.7050 N   0  0  0  0  0  0  0  0  0  0  0  0
  189.6000  177.0700  141.0340 C   0  0  2  0  0  3  0  0  0  0  0  0
  190.4240  176.9270  138.7700 N   0  0  0  0  0  0  0  0  0  0  0  0
  190.4000  174.9070  135.6470 C   0  0  0  0  0  3  0  0  0  0  0  0
  185.4250  175.7960  135.9780 C   0  0  2  0  0  3  0  0  0  0  0  0
  184.8980  176.7790  134.9270 C   0  0  0  0  0  2  0  0  0  0  0  0
  187.7560  176.3480  135.5430 C   0  0  1  0  0  3  0  0  0  0  0  0
  186.0020  177.6690  134.3460 C   0  0  0  0  0  2  0  0  0  0  0  0
  186.7420  175.2790  135.6040 N   0  0  0  0  0  2  0  0  0  0  0  0
  187.1970  177.7570  135.2850 C   0  0  0  0  0  2  0  0  0  0  0  0
  184.4500  174.6500  136.1400 C   0  0  0  0  0  1  0  0  0  0  0  0
  190.1210  177.5120  142.3980 C   0  0  0  0  0  2  0  0  0  0  0  0
  189.6090  176.6600  143.4660 N   0  0  0  0  0  2  0  0  0  0  0  0
  190.1340  177.0170  146.1880 F   0  0  0  0  0  0  0  0  0  0  0  0
  188.5760  177.0620  144.3710 C   0  0  0  0  0  0  0  0  0  0  0  0
  188.8740  177.2290  145.7310 C   0  0  0  0  0  0  0  0  0  0  0  0
  186.5710  177.8410  146.1710 C   0  0  0  0  0  3  0  0  0  0  0  0
  186.2670  177.6730  144.8180 C   0  0  0  0  0  3  0  0  0  0  0  0
  187.2660  177.2830  143.9200 C   0  0  0  0  0  3  0  0  0  0  0  0
  187.8730  177.6180  146.6260 C   0  0  0  0  0  3  0  0  0  0  0  0
  1  8  1  0  0  0  0
  2  6  1  0  0  0  0
  2 13  2  0  0  0  0
  3 17  1  0  0  0  0
  4 14  1  1  0  0  0
  4 17  1  0  0  0  0
  4  9  1  0  0  0  0
  5  6  1  0  0  0  0
  7 16  1  0  0  0  0
  8  3  2  0  0  0  0
  8  2  1  0  0  0  0
  9 16  1  0  0  0  0
 10  1  1  0  0  0  0
 10  5  1  0  0  0  0
 11 15  1  0  0  0  0
 11  3  1  0  0  0  0
 12 18  1  0  0  0  0
 12  1  2  0  0  0  0
 15 14  1  0  0  0  0
 16 26  1  1  0  0  0
 17  7  1  0  0  0  0
 18 11  2  0  0  0  0
 19 25  1  6  0  0  0
 20 19  1  0  0  0  0
 21 24  1  1  0  0  0
 21 23  1  0  0  0  0
 21 15  1  0  0  0  0
 22 20  1  0  0  0  0
 22 24  1  0  0  0  0
 23 19  1  0  0  0  0
 26 27  1  0  0  0  0
 27 29  1  0  0  0  0
 29 30  1  0  0  0  0
 30 28  1  0  0  0  0
 30 34  2  0  0  0  0
 31 34  1  0  0  0  0
 32 31  2  0  0  0  0
 33 29  2  0  0  0  0
 33 32  1  0  0  0  0
M  END
>  <MODEL>
4

>  <REMARK>
 VINA RESULT:      -8.6      3.635      6.357
  Name = 
  4 active torsions:
  status: ('A' for Active; 'I' for Inactive)
    1  A    between atoms: N_3  and  C_13
    2  A    between atoms: N_3  and  C_17
    3  A    between atoms: C_12  and  N_28
    4  A    between atoms: C_17  and  C_29
                            x       y       z     vdW  Elec       q    Type
                         _______ _______ _______ _____ _____    ______ ____

>  <TORSDO>
F 4

$$$$
=
 OpenBabel10262423513D

 34 39  0  0  1  0  0  0  0  0999 V2000
  186.2880  178.4720  139.7360 C   0  0  0  0  0  0  0  0  0  0  0  0
  186.4700  178.0230  142.1610 C   0  0  0  0  0  0  0  0  0  0  0  0
  188.4530  177.7340  140.5630 C   0  0  0  0  0  0  0  0  0  0  0  0
  190.5680  176.6540  141.3230 C   0  0  2  0  0  3  0  0  0  0  0  0
  184.6600  179.5230  141.3100 C   0  0  0  0  0  2  0  0  0  0  0  0
  185.2190  178.6830  142.3620 N   0  0  0  0  0  2  0  0  0  0  0  0
  189.5330  178.3890  142.7450 C   0  0  0  0  0  2  0  0  0  0  0  0
  187.1050  178.0860  140.8210 C   0  0  0  0  0  0  0  0  0  0  0  0
  191.7260  176.7680  142.7130 S   0  0  0  0  0  0  0  0  0  0  0  0
  184.8480  178.8500  139.9510 C   0  0  0  0  0  2  0  0  0  0  0  0
  188.9040  177.6530  139.2310 C   0  0  0  0  0  0  0  0  0  0  0  0
  186.7670  178.4120  138.4670 N   0  0  0  0  0  0  0  0  0  0  0  0
  186.9560  177.3230  143.0880 O   0  0  0  0  0  0  0  0  0  0  0  0
  191.2320  177.1610  140.0480 C   0  0  0  0  0  2  0  0  0  0  0  0
  190.2550  177.2090  138.9620 N   0  0  0  0  0  0  0  0  0  0  0  0
  190.9570  178.3200  143.2640 C   0  0  2  0  0  3  0  0  0  0  0  0
  189.4080  177.4860  141.6120 N   0  0  0  0  0  0  0  0  0  0  0  0
  188.0330  178.0090  138.1960 C   0  0  0  0  0  3  0  0  0  0  0  0
  192.5610  175.1350  137.7210 C   0  0  2  0  0  3  0  0  0  0  0  0
  192.0370  174.3200  136.5340 C   0  0  0  0  0  2  0  0  0  0  0  0
  190.6930  176.6970  137.6630 C   0  0  1  0  0  3  0  0  0  0  0  0
  190.6310  174.7480  136.0990 C   0  0  0  0  0  2  0  0  0  0  0  0
  192.1590  176.5380  137.6160 N   0  0  0  0  0  2  0  0  0  0  0  0
  189.8940  175.4610  137.2230 C   0  0  0  0  0  2  0  0  0  0  0  0
  194.0690  175.0360  137.7840 C   0  0  0  0  0  1  0  0  0  0  0  0
  191.0090  178.4830  144.7800 C   0  0  0  0  0  2  0  0  0  0  0  0
  190.2710  177.4210  145.4560 N   0  0  0  0  0  2  0  0  0  0  0  0
  190.7270  177.6120  148.2070 F   0  0  0  0  0  0  0  0  0  0  0  0
  189.1960  177.6620  146.3680 C   0  0  0  0  0  0  0  0  0  0  0  0
  189.4600  177.7490  147.7420 C   0  0  0  0  0  0  0  0  0  0  0  0
  187.1070  178.1280  148.1810 C   0  0  0  0  0  3  0  0  0  0  0  0
  186.8370  178.0380  146.8130 C   0  0  0  0  0  3  0  0  0  0  0  0
  187.8770  177.8050  145.9090 C   0  0  0  0  0  3  0  0  0  0  0  0
  188.4170  177.9820  148.6440 C   0  0  0  0  0  3  0  0  0  0  0  0
  1 10  1  0  0  0  0
  1  8  1  0  0  0  0
  2  6  1  0  0  0  0
  2 13  2  0  0  0  0
  3  8  2  0  0  0  0
  3 17  1  0  0  0  0
  4 14  1  6  0  0  0
  4 17  1  0  0  0  0
  4  9  1  0  0  0  0
  5  6  1  0  0  0  0
  7 16  1  0  0  0  0
  8  2  1  0  0  0  0
  9 16  1  0  0  0  0
 10  5  1  0  0  0  0
 11  3  1  0  0  0  0
 12  1  2  0  0  0  0
 15 11  1  0  0  0  0
 15 14  1  0  0  0  0
 16 26  1  1  0  0  0
 17  7  1  0  0  0  0
 18 12  1  0  0  0  0
 18 11  2  0  0  0  0
 19 25  1  6  0  0  0
 20 19  1  0  0  0  0
 21 24  1  1  0  0  0
 21 15  1  0  0  0  0
 22 20  1  0  0  0  0
 22 24  1  0  0  0  0
 23 21  1  0  0  0  0
 23 19  1  0  0  0  0
 26 27  1  0  0  0  0
 27 29  1  0  0  0  0
 29 30  1  0  0  0  0
 30 28  1  0  0  0  0
 30 34  2  0  0  0  0
 31 34  1  0  0  0  0
 32 31  2  0  0  0  0
 33 29  2  0  0  0  0
 33 32  1  0  0  0  0
M  END
>  <MODEL>
5

>  <REMARK>
 VINA RESULT:      -8.6      2.821      4.120
  Name = 
  4 active torsions:
  status: ('A' for Active; 'I' for Inactive)
    1  A    between atoms: N_3  and  C_13
    2  A    between atoms: N_3  and  C_17
    3  A    between atoms: C_12  and  N_28
    4  A    between atoms: C_17  and  C_29
                            x       y       z     vdW  Elec       q    Type
                         _______ _______ _______ _____ _____    ______ ____

>  <TORSDO>
F 4

$$$$
=
 OpenBabel10262423513D

 34 39  0  0  1  0  0  0  0  0999 V2000
  186.6920  177.5940  136.5510 C   0  0  0  0  0  0  0  0  0  0  0  0
  188.5720  178.4020  137.9400 C   0  0  0  0  0  0  0  0  0  0  0  0
  186.1850  178.1980  138.8520 C   0  0  0  0  0  0  0  0  0  0  0  0
  185.5780  179.1330  141.0820 C   0  0  2  0  0  3  0  0  0  0  0  0
  189.0350  177.0050  135.9180 C   0  0  0  0  0  2  0  0  0  0  0  0
  189.4870  177.9320  136.9480 N   0  0  0  0  0  2  0  0  0  0  0  0
  187.6360  177.7810  140.8710 C   0  0  0  0  0  2  0  0  0  0  0  0
  187.1360  178.0510  137.8110 C   0  0  0  0  0  0  0  0  0  0  0  0
  186.2110  179.1110  142.7800 S   0  0  0  0  0  0  0  0  0  0  0  0
  187.6570  177.4240  135.4090 C   0  0  0  0  0  2  0  0  0  0  0  0
  184.8170  178.0110  138.5710 C   0  0  0  0  0  0  0  0  0  0  0  0
  185.3680  177.3920  136.3260 N   0  0  0  0  0  0  0  0  0  0  0  0
  188.9820  179.1810  138.8410 O   0  0  0  0  0  0  0  0  0  0  0  0
  184.2710  178.3540  141.0020 C   0  0  0  0  0  2  0  0  0  0  0  0
  183.8380  178.2470  139.6100 N   0  0  0  0  0  0  0  0  0  0  0  0
  187.3630  177.7670  142.3640 C   0  0  2  0  0  3  0  0  0  0  0  0
  186.5570  178.4980  140.2100 N   0  0  0  0  0  0  0  0  0  0  0  0
  184.4370  177.5970  137.2900 C   0  0  0  0  0  3  0  0  0  0  0  0
  181.0850  179.1560  141.2680 C   0  0  2  0  0  3  0  0  0  0  0  0
  180.1770  180.0710  140.4390 C   0  0  0  0  0  2  0  0  0  0  0  0
  182.4200  178.4880  139.3440 C   0  0  1  0  0  3  0  0  0  0  0  0
  180.6670  180.2370  138.9950 C   0  0  0  0  0  2  0  0  0  0  0  0
  181.5780  178.0350  140.4670 N   0  0  0  0  0  2  0  0  0  0  0  0
  182.1520  179.9270  138.8730 C   0  0  0  0  0  2  0  0  0  0  0  0
  180.3260  178.6340  142.4680 C   0  0  0  0  0  1  0  0  0  0  0  0
  188.6550  177.8440  143.1700 C   0  0  0  0  0  2  0  0  0  0  0  0
  188.6470  176.8990  144.2820 N   0  0  0  0  0  2  0  0  0  0  0  0
  190.8230  176.9260  146.0360 F   0  0  0  0  0  0  0  0  0  0  0  0
  188.4890  177.2880  145.6500 C   0  0  0  0  0  0  0  0  0  0  0  0
  189.6020  177.2870  146.5030 C   0  0  0  0  0  0  0  0  0  0  0  0
  188.2080  178.0390  148.3370 C   0  0  0  0  0  3  0  0  0  0  0  0
  187.0950  178.0390  147.4930 C   0  0  0  0  0  3  0  0  0  0  0  0
  187.2340  177.6630  146.1540 C   0  0  0  0  0  3  0  0  0  0  0  0
  189.4600  177.6630  147.8420 C   0  0  0  0  0  3  0  0  0  0  0  0
  1  8  1  0  0  0  0
  2 13  2  0  0  0  0
  3 17  1  0  0  0  0
  4 14  1  1  0  0  0
  4  9  1  0  0  0  0
  5  6  1  0  0  0  0
  6  2  1  0  0  0  0
  7 16  1  0  0  0  0
  8  2  1  0  0  0  0
  8  3  2  0  0  0  0
 10  5  1  0  0  0  0
 10  1  1  0  0  0  0
 11  3  1  0  0  0  0
 11 15  1  0  0  0  0
 12  1  2  0  0  0  0
 12 18  1  0  0  0  0
 15 14  1  0  0  0  0
 16  9  1  0  0  0  0
 16 26  1  1  0  0  0
 17  7  1  0  0  0  0
 17  4  1  0  0  0  0
 18 11  2  0  0  0  0
 19 25  1  1  0  0  0
 20 19  1  0  0  0  0
 21 24  1  1  0  0  0
 21 15  1  0  0  0  0
 21 23  1  0  0  0  0
 22 20  1  0  0  0  0
 23 19  1  0  0  0  0
 24 22  1  0  0  0  0
 26 27  1  0  0  0  0
 27 29  1  0  0  0  0
 28 30  1  0  0  0  0
 29 33  2  0  0  0  0
 29 30  1  0  0  0  0
 30 34  2  0  0  0  0
 32 31  2  0  0  0  0
 33 32  1  0  0  0  0
 34 31  1  0  0  0  0
M  END
>  <MODEL>
6

>  <REMARK>
 VINA RESULT:      -8.4      2.790      5.654
  Name = 
  4 active torsions:
  status: ('A' for Active; 'I' for Inactive)
    1  A    between atoms: N_3  and  C_13
    2  A    between atoms: N_3  and  C_17
    3  A    between atoms: C_12  and  N_28
    4  A    between atoms: C_17  and  C_29
                            x       y       z     vdW  Elec       q    Type
                         _______ _______ _______ _____ _____    ______ ____

>  <TORSDO>
F 4

$$$$
=
 OpenBabel10262423513D

 34 39  0  0  1  0  0  0  0  0999 V2000
  192.5850  174.0840  136.9050 C   0  0  0  0  0  0  0  0  0  0  0  0
  193.4240  175.9060  138.3520 C   0  0  0  0  0  0  0  0  0  0  0  0
  190.9280  175.5840  137.8660 C   0  0  0  0  0  0  0  0  0  0  0  0
  189.2550  177.3000  138.5490 C   0  0  2  0  0  3  0  0  0  0  0  0
  194.8260  173.8670  137.9850 C   0  0  0  0  0  2  0  0  0  0  0  0
  194.6970  175.2570  138.4030 N   0  0  0  0  0  2  0  0  0  0  0  0
  190.9640  176.5790  140.1810 C   0  0  0  0  0  2  0  0  0  0  0  0
  192.2830  175.1910  137.7280 C   0  0  0  0  0  0  0  0  0  0  0  0
  188.8270  178.2660  140.0220 S   0  0  0  0  0  0  0  0  0  0  0  0
  194.0060  173.6270  136.7180 C   0  0  0  0  0  2  0  0  0  0  0  0
  189.9410  174.9500  137.0850 C   0  0  0  0  0  0  0  0  0  0  0  0
  191.6020  173.4760  136.1920 N   0  0  0  0  0  0  0  0  0  0  0  0
  193.3210  177.0980  138.7420 O   0  0  0  0  0  0  0  0  0  0  0  0
  188.1590  176.2840  138.2550 C   0  0  0  0  0  2  0  0  0  0  0  0
  188.5710  175.4080  137.1600 N   0  0  0  0  0  0  0  0  0  0  0  0
  189.9040  177.2260  141.0530 C   0  0  2  0  0  3  0  0  0  0  0  0
  190.5000  176.5890  138.8030 N   0  0  0  0  0  0  0  0  0  0  0  0
  190.3110  173.8850  136.2570 C   0  0  0  0  0  3  0  0  0  0  0  0
  185.4450  174.2520  136.9420 C   0  0  2  0  0  3  0  0  0  0  0  0
  184.6300  174.9670  135.8590 C   0  0  0  0  0  2  0  0  0  0  0  0
  187.5690  175.1270  136.1320 C   0  0  1  0  0  3  0  0  0  0  0  0
  185.4760  175.9400  135.0300 C   0  0  0  0  0  2  0  0  0  0  0  0
  186.7860  173.9200  136.4600 N   0  0  0  0  0  2  0  0  0  0  0  0
  186.7290  176.3660  135.7810 C   0  0  0  0  0  2  0  0  0  0  0  0
  184.7280  172.9910  137.3720 C   0  0  0  0  0  1  0  0  0  0  0  0
  190.5260  178.0060  142.2070 C   0  0  0  0  0  2  0  0  0  0  0  0
  189.6370  178.0450  143.3640 N   0  0  0  0  0  2  0  0  0  0  0  0
  187.8350  178.1250  145.4990 F   0  0  0  0  0  0  0  0  0  0  0  0
  190.0040  177.5620  144.6590 C   0  0  0  0  0  0  0  0  0  0  0  0
  189.0760  177.6200  145.7090 C   0  0  0  0  0  0  0  0  0  0  0  0
  190.6980  176.6290  147.2110 C   0  0  0  0  0  3  0  0  0  0  0  0
  191.6280  176.5710  146.1710 C   0  0  0  0  0  3  0  0  0  0  0  0
  191.2840  177.0370  144.8990 C   0  0  0  0  0  3  0  0  0  0  0  0
  189.4240  177.1530  146.9800 C   0  0  0  0  0  3  0  0  0  0  0  0
  1  8  1  0  0  0  0
  2  6  1  0  0  0  0
  2 13  2  0  0  0  0
  3 17  1  0  0  0  0
  4 14  1  1  0  0  0
  4 17  1  0  0  0  0
  4  9  1  0  0  0  0
  5  6  1  0  0  0  0
  7 16  1  0  0  0  0
  8  3  2  0  0  0  0
  8  2  1  0  0  0  0
  9 16  1  0  0  0  0
 10  1  1  0  0  0  0
 10  5  1  0  0  0  0
 11 15  1  0  0  0  0
 11  3  1  0  0  0  0
 12 18  1  0  0  0  0
 12  1  2  0  0  0  0
 15 14  1  0  0  0  0
 16 26  1  1  0  0  0
 17  7  1  0  0  0  0
 18 11  2  0  0  0  0
 19 25  1  6  0  0  0
 20 19  1  0  0  0  0
 21 24  1  1  0  0  0
 21 23  1  0  0  0  0
 21 15  1  0  0  0  0
 22 24  1  0  0  0  0
 22 20  1  0  0  0  0
 23 19  1  0  0  0  0
 26 27  1  0  0  0  0
 27 29  1  0  0  0  0
 28 30  1  0  0  0  0
 29 33  2  0  0  0  0
 29 30  1  0  0  0  0
 30 34  2  0  0  0  0
 32 31  2  0  0  0  0
 33 32  1  0  0  0  0
 34 31  1  0  0  0  0
M  END
>  <MODEL>
7

>  <REMARK>
 VINA RESULT:      -8.4      4.027      6.347
  Name = 
  4 active torsions:
  status: ('A' for Active; 'I' for Inactive)
    1  A    between atoms: N_3  and  C_13
    2  A    between atoms: N_3  and  C_17
    3  A    between atoms: C_12  and  N_28
    4  A    between atoms: C_17  and  C_29
                            x       y       z     vdW  Elec       q    Type
                         _______ _______ _______ _____ _____    ______ ____

>  <TORSDO>
F 4

$$$$
=
 OpenBabel10262423513D

 34 39  0  0  1  0  0  0  0  0999 V2000
  185.1600  178.3370  143.2810 C   0  0  0  0  0  0  0  0  0  0  0  0
  186.3350  179.0550  141.2270 C   0  0  0  0  0  0  0  0  0  0  0  0
  187.5550  177.9270  143.1790 C   0  0  0  0  0  0  0  0  0  0  0  0
  190.0440  177.8120  143.2430 C   0  0  2  0  0  3  0  0  0  0  0  0
  183.8690  178.6430  141.1660 C   0  0  0  0  0  2  0  0  0  0  0  0
  185.0710  179.2250  140.5820 N   0  0  0  0  0  2  0  0  0  0  0  0
  188.8730  177.2080  141.1530 C   0  0  0  0  0  2  0  0  0  0  0  0
  186.3730  178.4130  142.5650 C   0  0  0  0  0  0  0  0  0  0  0  0
  191.4100  177.3500  142.1440 S   0  0  0  0  0  0  0  0  0  0  0  0
  183.8770  178.8430  142.6810 C   0  0  0  0  0  2  0  0  0  0  0  0
  187.5130  177.5040  144.5220 C   0  0  0  0  0  0  0  0  0  0  0  0
  185.1520  177.8930  144.5650 N   0  0  0  0  0  0  0  0  0  0  0  0
  187.3700  179.5380  140.6980 O   0  0  0  0  0  0  0  0  0  0  0  0
  189.9240  176.8020  144.3780 C   0  0  0  0  0  2  0  0  0  0  0  0
  188.7350  177.0900  145.1770 N   0  0  0  0  0  0  0  0  0  0  0  0
  190.2470  176.5920  140.9700 C   0  0  2  0  0  3  0  0  0  0  0  0
  188.8060  177.8080  142.4760 N   0  0  0  0  0  0  0  0  0  0  0  0
  186.2850  177.4910  145.1920 C   0  0  0  0  0  3  0  0  0  0  0  0
  191.1840  176.8570  147.4360 C   0  0  2  0  0  3  0  0  0  0  0  0
  190.9080  177.6960  148.6880 C   0  0  0  0  0  2  0  0  0  0  0  0
  188.8930  177.0340  146.6310 C   0  0  1  0  0  3  0  0  0  0  0  0
  189.5120  178.3280  148.6790 C   0  0  0  0  0  2  0  0  0  0  0  0
  189.9890  176.1240  147.0170 N   0  0  0  0  0  2  0  0  0  0  0  0
  188.9580  178.4320  147.2650 C   0  0  0  0  0  2  0  0  0  0  0  0
  192.3110  175.8850  147.7100 C   0  0  0  0  0  1  0  0  0  0  0  0
  190.7260  176.7090  139.5260 C   0  0  0  0  0  2  0  0  0  0  0  0
  190.6570  175.4250  138.8360 N   0  0  0  0  0  2  0  0  0  0  0  0
  190.0810  173.2260  137.2100 F   0  0  0  0  0  0  0  0  0  0  0  0
  191.5140  175.0660  137.7470 C   0  0  0  0  0  0  0  0  0  0  0  0
  191.1960  173.9550  136.9540 C   0  0  0  0  0  0  0  0  0  0  0  0
  193.1780  174.3340  135.6120 C   0  0  0  0  0  3  0  0  0  0  0  0
  193.5020  175.4400  136.4010 C   0  0  0  0  0  3  0  0  0  0  0  0
  192.6740  175.8050  137.4670 C   0  0  0  0  0  3  0  0  0  0  0  0
  192.0270  173.5920  135.8890 C   0  0  0  0  0  3  0  0  0  0  0  0
  1 12  1  0  0  0  0
  2  8  1  0  0  0  0
  3 11  2  0  0  0  0
  4 14  1  1  0  0  0
  5 10  1  0  0  0  0
  6  5  1  0  0  0  0
  6  2  1  0  0  0  0
  7 17  1  0  0  0  0
  8  3  1  0  0  0  0
  8  1  2  0  0  0  0
  9  4  1  0  0  0  0
 10  1  1  0  0  0  0
 11 15  1  0  0  0  0
 11 18  1  0  0  0  0
 12 18  2  0  0  0  0
 13  2  2  0  0  0  0
 14 15  1  0  0  0  0
 16 26  1  6  0  0  0
 16  7  1  0  0  0  0
 16  9  1  0  0  0  0
 17  3  1  0  0  0  0
 17  4  1  0  0  0  0
 19 25  1  1  0  0  0
 19 20  1  0  0  0  0
 21 15  1  6  0  0  0
 21 23  1  0  0  0  0
 21 24  1  0  0  0  0
 22 20  1  0  0  0  0
 23 19  1  0  0  0  0
 24 22  1  0  0  0  0
 27 26  1  0  0  0  0
 29 27  1  0  0  0  0
 30 28  1  0  0  0  0
 30 29  2  0  0  0  0
 31 34  2  0  0  0  0
 31 32  1  0  0  0  0
 32 33  2  0  0  0  0
 33 29  1  0  0  0  0
 34 30  1  0  0  0  0
M  END
>  <MODEL>
8

>  <REMARK>
 VINA RESULT:      -8.2      3.231      7.516
  Name = 
  4 active torsions:
  status: ('A' for Active; 'I' for Inactive)
    1  A    between atoms: N_3  and  C_13
    2  A    between atoms: N_3  and  C_17
    3  A    between atoms: C_12  and  N_28
    4  A    between atoms: C_17  and  C_29
                            x       y       z     vdW  Elec       q    Type
                         _______ _______ _______ _____ _____    ______ ____

>  <TORSDO>
F 4

$$$$
=
 OpenBabel10262423513D

 34 39  0  0  1  0  0  0  0  0999 V2000
  184.2090  178.5010  142.4680 C   0  0  0  0  0  0  0  0  0  0  0  0
  184.2140  179.2350  140.1060 C   0  0  0  0  0  0  0  0  0  0  0  0
  186.3330  178.4100  141.2880 C   0  0  0  0  0  0  0  0  0  0  0  0
  188.5720  178.6350  140.2140 C   0  0  2  0  0  3  0  0  0  0  0  0
  182.0750  178.4920  141.1700 C   0  0  0  0  0  2  0  0  0  0  0  0
  182.7850  179.1910  140.1060 N   0  0  0  0  0  2  0  0  0  0  0  0
  186.6910  177.7450  138.8820 C   0  0  0  0  0  2  0  0  0  0  0  0
  184.9440  178.6920  141.2790 C   0  0  0  0  0  0  0  0  0  0  0  0
  189.3490  178.2900  138.6130 S   0  0  0  0  0  0  0  0  0  0  0  0
  182.7330  178.7900  142.5170 C   0  0  0  0  0  2  0  0  0  0  0  0
  186.9630  178.0740  142.5030 C   0  0  0  0  0  0  0  0  0  0  0  0
  184.8440  178.1440  143.6140 N   0  0  0  0  0  0  0  0  0  0  0  0
  184.8150  179.8170  139.1660 O   0  0  0  0  0  0  0  0  0  0  0  0
  189.1260  177.6940  141.2770 C   0  0  0  0  0  2  0  0  0  0  0  0
  188.3960  177.8710  142.5300 N   0  0  0  0  0  0  0  0  0  0  0  0
  187.9110  177.3080  138.0940 C   0  0  2  0  0  3  0  0  0  0  0  0
  187.1370  178.4150  140.0930 N   0  0  0  0  0  0  0  0  0  0  0  0
  186.1840  177.9400  143.6570 C   0  0  0  0  0  3  0  0  0  0  0  0
  191.1440  176.4700  143.8110 C   0  0  2  0  0  3  0  0  0  0  0  0
  191.9790  177.4600  144.6290 C   0  0  0  0  0  2  0  0  0  0  0  0
  189.1960  177.9310  143.7530 C   0  0  1  0  0  3  0  0  0  0  0  0
  191.2890  178.8190  144.7940 C   0  0  0  0  0  2  0  0  0  0  0  0
  189.7190  176.6010  144.1190 N   0  0  0  0  0  2  0  0  0  0  0  0
  190.2490  179.0500  143.7070 C   0  0  0  0  0  2  0  0  0  0  0  0
  191.6020  175.0570  144.0960 C   0  0  0  0  0  1  0  0  0  0  0  0
  187.6660  177.3940  136.5900 C   0  0  0  0  0  2  0  0  0  0  0  0
  187.5470  176.0680  135.9920 N   0  0  0  0  0  2  0  0  0  0  0  0
  188.5420  173.6260  136.9190 F   0  0  0  0  0  0  0  0  0  0  0  0
  186.6700  175.0530  136.4890 C   0  0  0  0  0  0  0  0  0  0  0  0
  187.2020  173.8390  136.9430 C   0  0  0  0  0  0  0  0  0  0  0  0
  184.9730  173.0430  137.4610 C   0  0  0  0  0  3  0  0  0  0  0  0
  184.4360  174.2490  137.0060 C   0  0  0  0  0  3  0  0  0  0  0  0
  185.2800  175.2510  136.5200 C   0  0  0  0  0  3  0  0  0  0  0  0
  186.3550  172.8380  137.4280 C   0  0  0  0  0  3  0  0  0  0  0  0
  1 10  1  0  0  0  0
  1 12  1  0  0  0  0
  2  6  1  0  0  0  0
  2  8  1  0  0  0  0
  3 11  2  0  0  0  0
  4 14  1  1  0  0  0
  5 10  1  0  0  0  0
  6  5  1  0  0  0  0
  7 17  1  0  0  0  0
  8  3  1  0  0  0  0
  8  1  2  0  0  0  0
  9  4  1  0  0  0  0
 11 15  1  0  0  0  0
 11 18  1  0  0  0  0
 12 18  2  0  0  0  0
 13  2  2  0  0  0  0
 14 15  1  0  0  0  0
 16 26  1  6  0  0  0
 16  9  1  0  0  0  0
 16  7  1  0  0  0  0
 17  4  1  0  0  0  0
 17  3  1  0  0  0  0
 19 25  1  1  0  0  0
 19 23  1  0  0  0  0
 19 20  1  0  0  0  0
 20 22  1  0  0  0  0
 21 15  1  6  0  0  0
 21 23  1  0  0  0  0
 24 21  1  0  0  0  0
 24 22  1  0  0  0  0
 27 29  1  0  0  0  0
 27 26  1  0  0  0  0
 28 30  1  0  0  0  0
 29 33  2  0  0  0  0
 29 30  1  0  0  0  0
 30 34  2  0  0  0  0
 32 31  2  0  0  0  0
 33 32  1  0  0  0  0
 34 31  1  0  0  0  0
M  END
>  <MODEL>
9

>  <REMARK>
 VINA RESULT:      -8.0      2.787      7.268
  Name = 
  4 active torsions:
  status: ('A' for Active; 'I' for Inactive)
    1  A    between atoms: N_3  and  C_13
    2  A    between atoms: N_3  and  C_17
    3  A    between atoms: C_12  and  N_28
    4  A    between atoms: C_17  and  C_29
                            x       y       z     vdW  Elec       q    Type
                         _______ _______ _______ _____ _____    ______ ____

>  <TORSDO>
F 4

$$$$
