=
 OpenBabel10272401583D

 28 33  0  0  1  0  0  0  0  0999 V2000
  189.5130  177.5560  140.1810 C   0  0  2  0  0  3  0  0  0  0  0  0
  184.5870  178.0770  141.8990 C   0  0  0  0  0  3  0  0  0  0  0  0
  189.8820  178.0110  145.1600 C   0  0  0  0  0  1  0  0  0  0  0  0
  184.9140  178.6140  144.2430 C   0  0  0  0  0  0  0  0  0  0  0  0
  186.8510  177.6150  142.9470 C   0  0  1  0  0  3  0  0  0  0  0  0
  182.7640  179.0010  143.1940 C   0  0  0  0  0  0  0  0  0  0  0  0
  185.4350  178.1540  143.0150 C   0  0  0  0  0  0  0  0  0  0  0  0
  187.0090  177.8060  145.3060 C   0  0  0  0  0  2  0  0  0  0  0  0
  183.5880  179.0520  144.3200 C   0  0  0  0  0  3  0  0  0  0  0  0
  189.7260  177.6570  142.7070 C   0  0  1  0  0  3  0  0  0  0  0  0
  187.5000  177.9500  141.6090 C   0  0  0  0  0  2  0  0  0  0  0  0
  185.7790  178.6930  145.4640 C   0  0  0  0  0  2  0  0  0  0  0  0
  191.5840  176.7340  141.3590 C   0  0  0  0  0  2  0  0  0  0  0  0
  188.9970  177.4540  144.0460 C   0  0  2  0  0  3  0  0  0  0  0  0
  190.9960  176.9100  142.6990 N   0  0  0  0  0  2  0  0  0  0  0  0
  181.4790  179.4220  143.2760 F   0  0  0  0  0  0  0  0  0  0  0  0
  183.2600  178.5060  141.9860 C   0  0  0  0  0  3  0  0  0  0  0  0
  187.6870  178.1330  144.0490 N   0  0  1  0  0  0  0  0  0  0  0  0
  191.0310  177.7130  140.3210 C   0  0  0  0  0  2  0  0  0  0  0  0
  188.8390  177.2430  141.5250 C   0  0  1  0  0  3  0  0  0  0  0  0
  189.1870  176.4450  139.1750 C   0  0  2  0  0  3  0  0  0  0  0  0
  189.5010  176.7730  137.7150 C   0  0  2  0  0  3  0  0  0  0  0  0
  187.7180  178.2130  137.8620 C   0  0  0  0  0  0  0  0  0  0  0  0
  190.0010  178.0900  137.5350 O   0  0  0  0  0  0  0  0  0  0  0  0
  187.2760  175.7080  137.5560 C   0  0  0  0  0  1  0  0  0  0  0  0
  188.0640  176.8260  138.2070 C   0  0  2  0  0  0  0  0  0  0  0  0
  186.6900  178.8090  138.3390 N   0  0  0  0  0  2  0  0  0  0  0  0
  188.8940  178.9440  137.3680 C   0  0  0  0  0  2  0  0  0  0  0  0
  1 19  1  1  0  0  0
  1 20  1  0  0  0  0
  2 17  2  0  0  0  0
  2  7  1  0  0  0  0
  4  9  1  0  0  0  0
  4 12  1  0  0  0  0
  5 11  1  6  0  0  0
  5  7  1  0  0  0  0
  5 18  1  0  0  0  0
  6 16  1  0  0  0  0
  6  9  2  0  0  0  0
  7  4  2  0  0  0  0
  8 12  1  0  0  0  0
 10 15  1  1  0  0  0
 10 14  1  0  0  0  0
 13 15  1  0  0  0  0
 14 18  1  0  0  0  0
 14  3  1  1  0  0  0
 17  6  1  0  0  0  0
 18  8  1  1  0  0  0
 19 13  1  0  0  0  0
 20 11  1  6  0  0  0
 20 10  1  0  0  0  0
 21  1  1  1  0  0  0
 22 24  1  1  0  0  0
 22 26  1  0  0  0  0
 22 21  1  0  0  0  0
 23 26  1  0  0  0  0
 23 27  2  0  0  0  0
 26 25  1  6  0  0  0
 26 21  1  0  0  0  0
 28 24  1  0  0  0  0
 28 23  1  0  0  0  0
M  END
>  <MODEL>
1

>  <REMARK>
 VINA RESULT:      -9.2      0.000      0.000
  Name = 
  1 active torsions:
  status: ('A' for Active; 'I' for Inactive)
    1  A    between atoms: C_1  and  C_2
                            x       y       z     vdW  Elec       q    Type
                         _______ _______ _______ _____ _____    ______ ____

>  <TORSDO>
F 1

$$$$
=
 OpenBabel10272401583D

 28 33  0  0  1  0  0  0  0  0999 V2000
  188.9370  177.4570  138.6320 C   0  0  2  0  0  3  0  0  0  0  0  0
  185.7740  177.7010  142.8060 C   0  0  0  0  0  3  0  0  0  0  0  0
  191.9820  177.3630  142.6140 C   0  0  0  0  0  1  0  0  0  0  0  0
  187.3510  177.9800  144.6300 C   0  0  0  0  0  0  0  0  0  0  0  0
  188.2190  177.1640  142.3930 C   0  0  1  0  0  3  0  0  0  0  0  0
  184.9980  178.4460  144.9740 C   0  0  0  0  0  0  0  0  0  0  0  0
  187.0960  177.6690  143.2780 C   0  0  0  0  0  0  0  0  0  0  0  0
  189.6470  177.0950  144.2860 C   0  0  0  0  0  2  0  0  0  0  0  0
  186.3040  178.3850  145.4640 C   0  0  0  0  0  3  0  0  0  0  0  0
  190.4970  177.2810  140.6250 C   0  0  1  0  0  3  0  0  0  0  0  0
  188.0490  177.6560  140.9590 C   0  0  0  0  0  2  0  0  0  0  0  0
  188.7450  177.9380  145.1790 C   0  0  0  0  0  2  0  0  0  0  0  0
  191.2750  176.5440  138.3950 C   0  0  0  0  0  2  0  0  0  0  0  0
  190.6080  176.9190  142.1160 C   0  0  2  0  0  3  0  0  0  0  0  0
  191.5210  176.5610  139.8470 N   0  0  0  0  0  2  0  0  0  0  0  0
  183.9870  178.8330  145.7870 F   0  0  0  0  0  0  0  0  0  0  0  0
  184.7320  178.0960  143.6480 C   0  0  0  0  0  3  0  0  0  0  0  0
  189.5450  177.5700  142.9030 N   0  0  1  0  0  0  0  0  0  0  0  0
  190.2920  177.6230  137.9340 C   0  0  0  0  0  2  0  0  0  0  0  0
  189.0910  176.9860  140.0850 C   0  0  1  0  0  3  0  0  0  0  0  0
  188.0640  176.4590  137.8610 C   0  0  2  0  0  3  0  0  0  0  0  0
  187.6510  176.9020  136.4560 C   0  0  2  0  0  3  0  0  0  0  0  0
  186.3030  178.4090  137.5440 C   0  0  0  0  0  0  0  0  0  0  0  0
  188.1130  178.2030  136.1240 O   0  0  0  0  0  0  0  0  0  0  0  0
  185.5500  175.9680  137.3620 C   0  0  0  0  0  1  0  0  0  0  0  0
  186.6500  176.9820  137.5970 C   0  0  2  0  0  0  0  0  0  0  0  0
  185.6970  179.0110  138.4990 N   0  0  0  0  0  2  0  0  0  0  0  0
  187.1460  179.1230  136.5730 C   0  0  0  0  0  2  0  0  0  0  0  0
  1 19  1  6  0  0  0
  1 20  1  0  0  0  0
  2  7  2  0  0  0  0
  2 17  1  0  0  0  0
  4 12  1  0  0  0  0
  4  9  2  0  0  0  0
  5 11  1  6  0  0  0
  5 18  1  0  0  0  0
  5  7  1  0  0  0  0
  6  9  1  0  0  0  0
  6 16  1  0  0  0  0
  7  4  1  0  0  0  0
  8 12  1  0  0  0  0
 10 15  1  6  0  0  0
 10 14  1  0  0  0  0
 13 15  1  0  0  0  0
 14  3  1  1  0  0  0
 14 18  1  0  0  0  0
 17  6  2  0  0  0  0
 18  8  1  1  0  0  0
 19 13  1  0  0  0  0
 20 10  1  0  0  0  0
 20 11  1  1  0  0  0
 21  1  1  1  0  0  0
 22 24  1  1  0  0  0
 22 26  1  0  0  0  0
 22 21  1  0  0  0  0
 23 26  1  0  0  0  0
 23 27  2  0  0  0  0
 24 28  1  0  0  0  0
 26 25  1  1  0  0  0
 26 21  1  0  0  0  0
 28 23  1  0  0  0  0
M  END
>  <MODEL>
2

>  <REMARK>
 VINA RESULT:      -8.5      1.493      2.325
  Name = 
  1 active torsions:
  status: ('A' for Active; 'I' for Inactive)
    1  A    between atoms: C_1  and  C_2
                            x       y       z     vdW  Elec       q    Type
                         _______ _______ _______ _____ _____    ______ ____

>  <TORSDO>
F 1

$$$$
=
 OpenBabel10272401583D

 28 33  0  0  1  0  0  0  0  0999 V2000
  189.8300  177.3290  141.2040 C   0  0  2  0  0  3  0  0  0  0  0  0
  185.3830  178.8510  143.5270 C   0  0  0  0  0  3  0  0  0  0  0  0
  186.4900  177.8080  137.4960 C   0  0  0  0  0  1  0  0  0  0  0  0
  183.7840  178.7290  141.7050 C   0  0  0  0  0  0  0  0  0  0  0  0
  186.2570  178.7340  141.1480 C   0  0  1  0  0  3  0  0  0  0  0  0
  183.0100  178.8770  143.9970 C   0  0  0  0  0  0  0  0  0  0  0  0
  185.1220  178.7250  142.1530 C   0  0  0  0  0  0  0  0  0  0  0  0
  184.6730  178.9890  139.4000 C   0  0  0  0  0  2  0  0  0  0  0  0
  182.7370  178.7860  142.6310 C   0  0  0  0  0  3  0  0  0  0  0  0
  188.2010  177.6830  139.2920 C   0  0  1  0  0  3  0  0  0  0  0  0
  187.4490  177.9330  141.6620 C   0  0  0  0  0  2  0  0  0  0  0  0
  183.4610  178.6170  140.2470 C   0  0  0  0  0  2  0  0  0  0  0  0
  190.6320  177.6330  138.8330 C   0  0  0  0  0  2  0  0  0  0  0  0
  186.9090  178.3880  138.8460 C   0  0  2  0  0  3  0  0  0  0  0  0
  189.2830  177.9430  138.3270 N   0  0  0  0  0  2  0  0  0  0  0  0
  181.9920  178.9370  144.8890 F   0  0  0  0  0  0  0  0  0  0  0  0
  184.3320  178.9180  144.4450 C   0  0  0  0  0  3  0  0  0  0  0  0
  185.8310  178.2030  139.8360 N   0  0  1  0  0  0  0  0  0  0  0  0
  190.6230  176.7050  140.0500 C   0  0  0  0  0  2  0  0  0  0  0  0
  188.6110  178.1180  140.7060 C   0  0  1  0  0  3  0  0  0  0  0  0
  190.7350  178.2530  142.0280 C   0  0  2  0  0  3  0  0  0  0  0  0
  191.7800  177.5450  142.8920 C   0  0  2  0  0  3  0  0  0  0  0  0
  189.9890  176.8930  144.1730 C   0  0  0  0  0  0  0  0  0  0  0  0
  191.6960  176.1290  142.8180 O   0  0  0  0  0  0  0  0  0  0  0  0
  190.9020  179.2730  144.4250 C   0  0  0  0  0  1  0  0  0  0  0  0
  190.5240  178.1060  143.5370 C   0  0  2  0  0  0  0  0  0  0  0  0
  188.7860  176.8110  144.6060 N   0  0  0  0  0  2  0  0  0  0  0  0
  190.7730  175.7080  143.7940 C   0  0  0  0  0  2  0  0  0  0  0  0
  1 19  1  6  0  0  0
  2 17  1  0  0  0  0
  4  7  1  0  0  0  0
  4  9  2  0  0  0  0
  5 11  1  1  0  0  0
  5  7  1  0  0  0  0
  6 17  2  0  0  0  0
  6 16  1  0  0  0  0
  7  2  2  0  0  0  0
  8 12  1  0  0  0  0
  9  6  1  0  0  0  0
 10 15  1  6  0  0  0
 10 20  1  0  0  0  0
 12  4  1  0  0  0  0
 13 19  1  0  0  0  0
 14  3  1  6  0  0  0
 14 10  1  0  0  0  0
 14 18  1  0  0  0  0
 15 13  1  0  0  0  0
 18  8  1  6  0  0  0
 18  5  1  0  0  0  0
 20  1  1  0  0  0  0
 20 11  1  1  0  0  0
 21  1  1  6  0  0  0
 21 22  1  0  0  0  0
 21 26  1  0  0  0  0
 22 24  1  6  0  0  0
 22 26  1  0  0  0  0
 23 27  2  0  0  0  0
 24 28  1  0  0  0  0
 26 23  1  0  0  0  0
 26 25  1  1  0  0  0
 28 23  1  0  0  0  0
M  END
>  <MODEL>
3

>  <REMARK>
 VINA RESULT:      -8.4      1.887      4.704
  Name = 
  1 active torsions:
  status: ('A' for Active; 'I' for Inactive)
    1  A    between atoms: C_1  and  C_2
                            x       y       z     vdW  Elec       q    Type
                         _______ _______ _______ _____ _____    ______ ____

>  <TORSDO>
F 1

$$$$
=
 OpenBabel10272401583D

 28 33  0  0  1  0  0  0  0  0999 V2000
  189.2100  177.8190  145.5080 C   0  0  2  0  0  3  0  0  0  0  0  0
  187.8450  177.7360  140.4470 C   0  0  0  0  0  3  0  0  0  0  0  0
  184.3020  178.8390  145.4390 C   0  0  0  0  0  1  0  0  0  0  0  0
  185.5620  178.5570  140.5170 C   0  0  0  0  0  0  0  0  0  0  0  0
  186.6240  177.7460  142.6710 C   0  0  1  0  0  3  0  0  0  0  0  0
  186.7680  178.4930  138.4160 C   0  0  0  0  0  0  0  0  0  0  0  0
  186.6980  178.0610  141.1900 C   0  0  0  0  0  0  0  0  0  0  0  0
  184.2970  178.2030  142.6260 C   0  0  0  0  0  2  0  0  0  0  0  0
  185.6100  178.7880  139.1390 C   0  0  0  0  0  3  0  0  0  0  0  0
  186.7040  178.2130  145.5180 C   0  0  1  0  0  3  0  0  0  0  0  0
  187.9520  178.0380  143.3600 C   0  0  0  0  0  2  0  0  0  0  0  0
  184.3110  178.8970  141.2690 C   0  0  0  0  0  2  0  0  0  0  0  0
  187.8300  177.4580  147.5870 C   0  0  0  0  0  2  0  0  0  0  0  0
  185.3940  178.0380  144.7320 C   0  0  2  0  0  3  0  0  0  0  0  0
  186.5550  177.6780  146.8820 N   0  0  0  0  0  2  0  0  0  0  0  0
  186.8080  178.7130  137.0810 F   0  0  0  0  0  0  0  0  0  0  0  0
  187.8820  177.9600  139.0680 C   0  0  0  0  0  3  0  0  0  0  0  0
  185.5420  178.5000  143.3380 N   0  0  1  0  0  0  0  0  0  0  0  0
  189.0030  178.2260  146.9710 C   0  0  0  0  0  2  0  0  0  0  0  0
  187.8800  177.5450  144.7920 C   0  0  1  0  0  3  0  0  0  0  0  0
  190.1000  176.5730  145.4270 C   0  0  2  0  0  3  0  0  0  0  0  0
  191.6040  176.8380  145.5090 C   0  0  2  0  0  3  0  0  0  0  0  0
  191.3580  177.7350  143.4090 C   0  0  0  0  0  0  0  0  0  0  0  0
  191.9230  178.2190  145.5960 O   0  0  0  0  0  0  0  0  0  0  0  0
  191.4510  175.1890  143.6740 C   0  0  0  0  0  1  0  0  0  0  0  0
  190.9640  176.5370  144.1640 C   0  0  2  0  0  0  0  0  0  0  0  0
  190.8120  178.0650  142.2990 N   0  0  0  0  0  2  0  0  0  0  0  0
  192.0240  178.7140  144.2820 C   0  0  0  0  0  2  0  0  0  0  0  0
  1 19  1  1  0  0  0
  2  7  1  0  0  0  0
  4  7  2  0  0  0  0
  4 12  1  0  0  0  0
  5 18  1  0  0  0  0
  5 11  1  1  0  0  0
  6 17  1  0  0  0  0
  6  9  2  0  0  0  0
  7  5  1  0  0  0  0
  9  4  1  0  0  0  0
 10 15  1  1  0  0  0
 12  8  1  0  0  0  0
 14  3  1  1  0  0  0
 14 10  1  0  0  0  0
 15 13  1  0  0  0  0
 16  6  1  0  0  0  0
 17  2  2  0  0  0  0
 18  8  1  6  0  0  0
 18 14  1  0  0  0  0
 19 13  1  0  0  0  0
 20 11  1  6  0  0  0
 20  1  1  0  0  0  0
 20 10  1  0  0  0  0
 21  1  1  6  0  0  0
 21 22  1  0  0  0  0
 22 24  1  6  0  0  0
 23 26  1  0  0  0  0
 23 28  1  0  0  0  0
 26 25  1  6  0  0  0
 26 21  1  0  0  0  0
 26 22  1  0  0  0  0
 27 23  2  0  0  0  0
 28 24  1  0  0  0  0
M  END
>  <MODEL>
4

>  <REMARK>
 VINA RESULT:      -7.9      2.883      5.650
  Name = 
  1 active torsions:
  status: ('A' for Active; 'I' for Inactive)
    1  A    between atoms: C_1  and  C_2
                            x       y       z     vdW  Elec       q    Type
                         _______ _______ _______ _____ _____    ______ ____

>  <TORSDO>
F 1

$$$$
=
 OpenBabel10272401583D

 28 33  0  0  1  0  0  0  0  0999 V2000
  185.6220  178.0280  138.6740 C   0  0  2  0  0  3  0  0  0  0  0  0
  188.9900  177.7540  142.6830 C   0  0  0  0  0  3  0  0  0  0  0  0
  182.8360  178.6520  142.7950 C   0  0  0  0  0  1  0  0  0  0  0  0
  187.5030  177.7370  144.6020 C   0  0  0  0  0  0  0  0  0  0  0  0
  186.5820  178.4890  142.3630 C   0  0  1  0  0  3  0  0  0  0  0  0
  189.8220  177.0790  144.8530 C   0  0  0  0  0  0  0  0  0  0  0  0
  187.7060  177.9380  143.2200 C   0  0  0  0  0  0  0  0  0  0  0  0
  185.2800  178.8080  144.3200 C   0  0  0  0  0  2  0  0  0  0  0  0
  188.5580  177.2910  145.4060 C   0  0  0  0  0  3  0  0  0  0  0  0
  184.2040  178.4720  140.7290 C   0  0  1  0  0  3  0  0  0  0  0  0
  186.6240  177.8930  140.9600 C   0  0  0  0  0  2  0  0  0  0  0  0
  186.1540  177.9420  145.2200 C   0  0  0  0  0  2  0  0  0  0  0  0
  183.3650  179.1360  138.4980 C   0  0  0  0  0  2  0  0  0  0  0  0
  184.2120  178.9360  142.1960 C   0  0  2  0  0  3  0  0  0  0  0  0
  183.2040  179.2330  139.9600 N   0  0  0  0  0  2  0  0  0  0  0  0
  190.8410  176.6510  145.6360 F   0  0  0  0  0  0  0  0  0  0  0  0
  190.0400  177.3180  143.4940 C   0  0  0  0  0  3  0  0  0  0  0  0
  185.2580  178.2390  142.9690 N   0  0  1  0  0  0  0  0  0  0  0  0
  184.2200  177.9440  138.0610 C   0  0  0  0  0  2  0  0  0  0  0  0
  185.5970  178.6010  140.0980 C   0  0  1  0  0  3  0  0  0  0  0  0
  186.5340  178.8900  137.7920 C   0  0  2  0  0  3  0  0  0  0  0  0
  186.9330  178.2630  136.4560 C   0  0  2  0  0  3  0  0  0  0  0  0
  188.2210  176.8520  137.7300 C   0  0  0  0  0  0  0  0  0  0  0  0
  186.4240  176.9490  136.2820 O   0  0  0  0  0  0  0  0  0  0  0  0
  189.0670  179.2220  137.2540 C   0  0  0  0  0  1  0  0  0  0  0  0
  187.9280  178.2860  137.6040 C   0  0  2  0  0  0  0  0  0  0  0  0
  188.8020  176.3500  138.7550 N   0  0  0  0  0  2  0  0  0  0  0  0
  187.3540  176.0560  136.8470 C   0  0  0  0  0  2  0  0  0  0  0  0
  1 19  1  6  0  0  0
  1 20  1  0  0  0  0
  2  7  2  0  0  0  0
  2 17  1  0  0  0  0
  4 12  1  0  0  0  0
  4  9  2  0  0  0  0
  5 11  1  6  0  0  0
  5 18  1  0  0  0  0
  5  7  1  0  0  0  0
  6  9  1  0  0  0  0
  6 16  1  0  0  0  0
  7  4  1  0  0  0  0
  8 12  1  0  0  0  0
 10 15  1  6  0  0  0
 10 14  1  0  0  0  0
 13 15  1  0  0  0  0
 14  3  1  1  0  0  0
 14 18  1  0  0  0  0
 17  6  2  0  0  0  0
 18  8  1  1  0  0  0
 19 13  1  0  0  0  0
 20 10  1  0  0  0  0
 20 11  1  1  0  0  0
 21  1  1  1  0  0  0
 22 24  1  1  0  0  0
 22 26  1  0  0  0  0
 22 21  1  0  0  0  0
 23 27  2  0  0  0  0
 24 28  1  0  0  0  0
 26 25  1  6  0  0  0
 26 23  1  0  0  0  0
 26 21  1  0  0  0  0
 28 23  1  0  0  0  0
M  END
>  <MODEL>
5

>  <REMARK>
 VINA RESULT:      -7.6      2.684      5.088
  Name = 
  1 active torsions:
  status: ('A' for Active; 'I' for Inactive)
    1  A    between atoms: C_1  and  C_2
                            x       y       z     vdW  Elec       q    Type
                         _______ _______ _______ _____ _____    ______ ____

>  <TORSDO>
F 1

$$$$
=
 OpenBabel10272401583D

 28 33  0  0  1  0  0  0  0  0999 V2000
  190.0500  177.0320  144.9310 C   0  0  2  0  0  3  0  0  0  0  0  0
  185.0770  178.6920  144.9620 C   0  0  0  0  0  3  0  0  0  0  0  0
  188.7830  177.5230  140.1060 C   0  0  0  0  0  1  0  0  0  0  0  0
  184.4820  178.5750  142.6110 C   0  0  0  0  0  0  0  0  0  0  0  0
  186.9360  178.5150  143.2440 C   0  0  1  0  0  3  0  0  0  0  0  0
  182.7520  178.7790  144.2960 C   0  0  0  0  0  0  0  0  0  0  0  0
  185.4670  178.5490  143.6210 C   0  0  0  0  0  0  0  0  0  0  0  0
  186.3310  178.7760  140.9650 C   0  0  0  0  0  2  0  0  0  0  0  0
  183.1300  178.6710  142.9560 C   0  0  0  0  0  3  0  0  0  0  0  0
  189.4830  177.3900  142.4850 C   0  0  1  0  0  3  0  0  0  0  0  0
  187.7400  177.6970  144.2490 C   0  0  0  0  0  2  0  0  0  0  0  0
  184.8570  178.4450  141.1660 C   0  0  0  0  0  2  0  0  0  0  0  0
  191.8530  177.2780  143.1870 C   0  0  0  0  0  2  0  0  0  0  0  0
  188.5560  178.1160  141.4950 C   0  0  2  0  0  3  0  0  0  0  0  0
  190.8930  177.6090  142.1190 N   0  0  0  0  0  2  0  0  0  0  0  0
  181.4420  178.8760  144.6250 F   0  0  0  0  0  0  0  0  0  0  0  0
  183.7250  178.7980  145.2980 C   0  0  0  0  0  3  0  0  0  0  0  0
  187.1410  177.9720  141.8850 N   0  0  1  0  0  0  0  0  0  0  0  0
  191.2640  176.3710  144.2700 C   0  0  0  0  0  2  0  0  0  0  0  0
  189.2140  177.8390  143.9280 C   0  0  1  0  0  3  0  0  0  0  0  0
  190.5040  177.9490  146.0730 C   0  0  2  0  0  3  0  0  0  0  0  0
  191.1880  177.2440  147.2460 C   0  0  2  0  0  3  0  0  0  0  0  0
  189.0940  176.4250  147.7150 C   0  0  0  0  0  0  0  0  0  0  0  0
  191.2390  175.8330  147.0940 O   0  0  0  0  0  0  0  0  0  0  0  0
  189.6720  178.8290  148.3860 C   0  0  0  0  0  1  0  0  0  0  0  0
  189.7440  177.7000  147.3790 C   0  0  2  0  0  0  0  0  0  0  0  0
  187.8270  176.2550  147.6490 N   0  0  0  0  0  2  0  0  0  0  0  0
  190.0450  175.3070  147.6240 C   0  0  0  0  0  2  0  0  0  0  0  0
  1 19  1  6  0  0  0
  2 17  1  0  0  0  0
  4  9  2  0  0  0  0
  4  7  1  0  0  0  0
  5  7  1  0  0  0  0
  5 11  1  1  0  0  0
  6 16  1  0  0  0  0
  6 17  2  0  0  0  0
  7  2  2  0  0  0  0
  8 12  1  0  0  0  0
  9  6  1  0  0  0  0
 10 15  1  6  0  0  0
 10 20  1  0  0  0  0
 12  4  1  0  0  0  0
 13 19  1  0  0  0  0
 14  3  1  6  0  0  0
 14 18  1  0  0  0  0
 14 10  1  0  0  0  0
 15 13  1  0  0  0  0
 18  8  1  6  0  0  0
 18  5  1  0  0  0  0
 20 11  1  1  0  0  0
 20  1  1  0  0  0  0
 21  1  1  6  0  0  0
 21 22  1  0  0  0  0
 21 26  1  0  0  0  0
 22 24  1  6  0  0  0
 22 26  1  0  0  0  0
 24 28  1  0  0  0  0
 26 23  1  0  0  0  0
 26 25  1  1  0  0  0
 27 23  2  0  0  0  0
 28 23  1  0  0  0  0
M  END
>  <MODEL>
6

>  <REMARK>
 VINA RESULT:      -7.4      2.613      5.822
  Name = 
  1 active torsions:
  status: ('A' for Active; 'I' for Inactive)
    1  A    between atoms: C_1  and  C_2
                            x       y       z     vdW  Elec       q    Type
                         _______ _______ _______ _____ _____    ______ ____

>  <TORSDO>
F 1

$$$$
=
 OpenBabel10272401583D

 28 33  0  0  1  0  0  0  0  0999 V2000
  183.3860  178.3980  142.2830 C   0  0  2  0  0  3  0  0  0  0  0  0
  188.2330  177.8880  140.3480 C   0  0  0  0  0  3  0  0  0  0  0  0
  186.3560  177.8040  146.2770 C   0  0  0  0  0  1  0  0  0  0  0  0
  189.5120  177.2840  142.3210 C   0  0  0  0  0  0  0  0  0  0  0  0
  187.2080  178.2950  142.6340 C   0  0  1  0  0  3  0  0  0  0  0  0
  190.4510  176.9500  140.1120 C   0  0  0  0  0  0  0  0  0  0  0  0
  188.3190  177.7700  141.7450 C   0  0  0  0  0  0  0  0  0  0  0  0
  188.6280  178.0380  144.5160 C   0  0  0  0  0  2  0  0  0  0  0  0
  190.5620  176.8590  141.5010 C   0  0  0  0  0  3  0  0  0  0  0  0
  184.8750  178.2260  144.3290 C   0  0  1  0  0  3  0  0  0  0  0  0
  185.8390  177.9880  142.0370 C   0  0  0  0  0  2  0  0  0  0  0  0
  189.6540  177.1620  143.8070 C   0  0  0  0  0  2  0  0  0  0  0  0
  182.5950  179.1640  144.5500 C   0  0  0  0  0  2  0  0  0  0  0  0
  186.3030  178.4010  144.8730 C   0  0  2  0  0  3  0  0  0  0  0  0
  183.9150  178.9580  145.1740 N   0  0  0  0  0  2  0  0  0  0  0  0
  191.4720  176.5420  139.3220 F   0  0  0  0  0  0  0  0  0  0  0  0
  189.2900  177.4710  139.5360 C   0  0  0  0  0  3  0  0  0  0  0  0
  187.2900  177.7380  144.0000 N   0  0  1  0  0  0  0  0  0  0  0  0
  182.3270  178.2190  143.3760 C   0  0  0  0  0  2  0  0  0  0  0  0
  184.7770  178.6820  142.8670 C   0  0  1  0  0  3  0  0  0  0  0  0
  182.9850  179.5390  141.3400 C   0  0  2  0  0  3  0  0  0  0  0  0
  181.7150  179.2960  140.5230 C   0  0  2  0  0  3  0  0  0  0  0  0
  182.9870  177.7690  139.3710 C   0  0  0  0  0  0  0  0  0  0  0  0
  181.1460  178.0140  140.7450 O   0  0  0  0  0  0  0  0  0  0  0  0
  183.2530  180.2620  138.8460 C   0  0  0  0  0  1  0  0  0  0  0  0
  183.0760  179.1520  139.8610 C   0  0  2  0  0  0  0  0  0  0  0  0
  184.0110  177.1040  138.9860 N   0  0  0  0  0  2  0  0  0  0  0  0
  181.7570  177.1180  139.8470 C   0  0  0  0  0  2  0  0  0  0  0  0
  1 20  1  0  0  0  0
  1 19  1  1  0  0  0
  2  7  1  0  0  0  0
  4 12  1  0  0  0  0
  5 11  1  6  0  0  0
  5 18  1  0  0  0  0
  6  9  2  0  0  0  0
  7  4  2  0  0  0  0
  7  5  1  0  0  0  0
  9  4  1  0  0  0  0
 10 14  1  0  0  0  0
 10 15  1  1  0  0  0
 12  8  1  0  0  0  0
 13 15  1  0  0  0  0
 14  3  1  1  0  0  0
 16  6  1  0  0  0  0
 17  6  1  0  0  0  0
 17  2  2  0  0  0  0
 18  8  1  1  0  0  0
 18 14  1  0  0  0  0
 19 13  1  0  0  0  0
 20 11  1  6  0  0  0
 20 10  1  0  0  0  0
 21  1  1  1  0  0  0
 22 24  1  1  0  0  0
 22 21  1  0  0  0  0
 23 28  1  0  0  0  0
 23 26  1  0  0  0  0
 26 25  1  6  0  0  0
 26 22  1  0  0  0  0
 26 21  1  0  0  0  0
 27 23  2  0  0  0  0
 28 24  1  0  0  0  0
M  END
>  <MODEL>
7

>  <REMARK>
 VINA RESULT:      -7.1      3.238      6.324
  Name = 
  1 active torsions:
  status: ('A' for Active; 'I' for Inactive)
    1  A    between atoms: C_1  and  C_2
                            x       y       z     vdW  Elec       q    Type
                         _______ _______ _______ _____ _____    ______ ____

>  <TORSDO>
F 1

$$$$
=
 OpenBabel10272401583D

 28 33  0  0  1  0  0  0  0  0999 V2000
  188.9490  177.9560  141.1550 C   0  0  2  0  0  3  0  0  0  0  0  0
  192.1860  175.3440  137.9630 C   0  0  0  0  0  3  0  0  0  0  0  0
  187.0940  178.6220  136.5450 C   0  0  0  0  0  1  0  0  0  0  0  0
  191.3880  176.0050  135.7690 C   0  0  0  0  0  0  0  0  0  0  0  0
  189.8860  176.3990  137.7730 C   0  0  1  0  0  3  0  0  0  0  0  0
  193.5620  174.9620  136.0100 C   0  0  0  0  0  0  0  0  0  0  0  0
  191.2010  175.9480  137.1660 C   0  0  0  0  0  0  0  0  0  0  0  0
  189.0060  176.6850  135.5890 C   0  0  0  0  0  2  0  0  0  0  0  0
  192.5750  175.5300  135.2020 C   0  0  0  0  0  3  0  0  0  0  0  0
  187.9150  178.2080  138.8530 C   0  0  1  0  0  3  0  0  0  0  0  0
  190.1070  177.0430  139.1370 C   0  0  0  0  0  2  0  0  0  0  0  0
  190.3530  176.6230  134.8790 C   0  0  0  0  0  2  0  0  0  0  0  0
  186.5320  178.6120  140.8650 C   0  0  0  0  0  2  0  0  0  0  0  0
  187.8270  177.6190  137.4340 C   0  0  2  0  0  3  0  0  0  0  0  0
  186.5630  178.4080  139.4060 N   0  0  0  0  0  2  0  0  0  0  0  0
  194.7080  174.4990  135.4560 F   0  0  0  0  0  0  0  0  0  0  0  0
  193.3650  174.8620  137.3890 C   0  0  0  0  0  3  0  0  0  0  0  0
  189.1700  177.3410  136.8890 N   0  0  1  0  0  0  0  0  0  0  0  0
  187.8870  179.0220  141.4480 C   0  0  0  0  0  2  0  0  0  0  0  0
  188.7580  177.3150  139.7730 C   0  0  1  0  0  3  0  0  0  0  0  0
  188.9160  176.8670  142.2330 C   0  0  2  0  0  3  0  0  0  0  0  0
  189.3930  177.3040  143.6190 C   0  0  2  0  0  3  0  0  0  0  0  0
  191.4800  177.3640  142.6630 C   0  0  0  0  0  0  0  0  0  0  0  0
  189.8390  178.6520  143.6550 O   0  0  0  0  0  0  0  0  0  0  0  0
  190.4870  175.1040  143.3470 C   0  0  0  0  0  1  0  0  0  0  0  0
  190.3100  176.4770  142.7330 C   0  0  2  0  0  0  0  0  0  0  0  0
  192.4100  177.2170  141.7940 N   0  0  0  0  0  2  0  0  0  0  0  0
  191.2040  178.6550  143.3110 C   0  0  0  0  0  2  0  0  0  0  0  0
  1 19  1  1  0  0  0
  4  7  1  0  0  0  0
  5 11  1  1  0  0  0
  6 17  2  0  0  0  0
  7  5  1  0  0  0  0
  7  2  2  0  0  0  0
  9  4  2  0  0  0  0
  9  6  1  0  0  0  0
 10 15  1  1  0  0  0
 10 20  1  0  0  0  0
 12  8  1  0  0  0  0
 12  4  1  0  0  0  0
 13 19  1  0  0  0  0
 14  3  1  6  0  0  0
 14 10  1  0  0  0  0
 15 13  1  0  0  0  0
 16  6  1  0  0  0  0
 17  2  1  0  0  0  0
 18  8  1  6  0  0  0
 18 14  1  0  0  0  0
 18  5  1  0  0  0  0
 20 11  1  6  0  0  0
 20  1  1  0  0  0  0
 21  1  1  6  0  0  0
 21 26  1  0  0  0  0
 21 22  1  0  0  0  0
 22 24  1  6  0  0  0
 23 26  1  0  0  0  0
 23 28  1  0  0  0  0
 26 25  1  1  0  0  0
 26 22  1  0  0  0  0
 27 23  2  0  0  0  0
 28 24  1  0  0  0  0
M  END
>  <MODEL>
8

>  <REMARK>
 VINA RESULT:      -7.0      4.044      8.188
  Name = 
  1 active torsions:
  status: ('A' for Active; 'I' for Inactive)
    1  A    between atoms: C_1  and  C_2
                            x       y       z     vdW  Elec       q    Type
                         _______ _______ _______ _____ _____    ______ ____

>  <TORSDO>
F 1

$$$$
=
 OpenBabel10272401583D

 28 33  0  0  1  0  0  0  0  0999 V2000
  182.4400  177.5370  139.3080 C   0  0  2  0  0  3  0  0  0  0  0  0
  186.5150  177.7760  142.5980 C   0  0  0  0  0  3  0  0  0  0  0  0
  180.5480  179.1760  143.6510 C   0  0  0  0  0  1  0  0  0  0  0  0
  185.4360  178.2540  144.7190 C   0  0  0  0  0  0  0  0  0  0  0  0
  184.1250  178.6280  142.5820 C   0  0  1  0  0  3  0  0  0  0  0  0
  187.7290  177.4710  144.6700 C   0  0  0  0  0  0  0  0  0  0  0  0
  185.3710  178.1650  143.3130 C   0  0  0  0  0  0  0  0  0  0  0  0
  183.2470  179.4260  144.6350 C   0  0  0  0  0  2  0  0  0  0  0  0
  186.6080  177.8890  145.3900 C   0  0  0  0  0  3  0  0  0  0  0  0
  181.4740  178.4870  141.4520 C   0  0  1  0  0  3  0  0  0  0  0  0
  183.8650  177.7690  141.3480 C   0  0  0  0  0  2  0  0  0  0  0  0
  184.2440  178.6850  145.5190 C   0  0  0  0  0  2  0  0  0  0  0  0
  180.2410  178.7700  139.3250 C   0  0  0  0  0  2  0  0  0  0  0  0
  181.7900  179.2250  142.7640 C   0  0  2  0  0  3  0  0  0  0  0  0
  180.3750  179.1620  140.7390 N   0  0  0  0  0  2  0  0  0  0  0  0
  188.8620  177.1230  145.3230 F   0  0  0  0  0  0  0  0  0  0  0  0
  187.6860  177.4220  143.2750 C   0  0  0  0  0  3  0  0  0  0  0  0
  182.9370  178.6100  143.4590 N   0  0  1  0  0  0  0  0  0  0  0  0
  180.9430  177.4500  138.9950 C   0  0  0  0  0  2  0  0  0  0  0  0
  182.7190  178.3770  140.5630 C   0  0  1  0  0  3  0  0  0  0  0  0
  183.1960  178.1340  138.1150 C   0  0  2  0  0  3  0  0  0  0  0  0
  182.7280  177.6560  136.7400 C   0  0  2  0  0  3  0  0  0  0  0  0
  183.6910  175.6560  137.3270 C   0  0  0  0  0  0  0  0  0  0  0  0
  181.6910  176.6890  136.8090 O   0  0  0  0  0  0  0  0  0  0  0  0
  185.1890  177.5730  136.5250 C   0  0  0  0  0  1  0  0  0  0  0  0
  184.0060  177.0920  137.3380 C   0  0  2  0  0  0  0  0  0  0  0  0
  184.3610  174.7940  137.9960 N   0  0  0  0  0  2  0  0  0  0  0  0
  182.2990  175.4230  136.9130 C   0  0  0  0  0  2  0  0  0  0  0  0
  1 19  1  6  0  0  0
  1 20  1  0  0  0  0
  2 17  2  0  0  0  0
  2  7  1  0  0  0  0
  4  9  1  0  0  0  0
  4 12  1  0  0  0  0
  5 11  1  6  0  0  0
  5  7  1  0  0  0  0
  5 18  1  0  0  0  0
  6 16  1  0  0  0  0
  6  9  2  0  0  0  0
  7  4  2  0  0  0  0
  8 12  1  0  0  0  0
 10 15  1  6  0  0  0
 10 14  1  0  0  0  0
 13 15  1  0  0  0  0
 14 18  1  0  0  0  0
 14  3  1  1  0  0  0
 17  6  1  0  0  0  0
 18  8  1  1  0  0  0
 19 13  1  0  0  0  0
 20 11  1  1  0  0  0
 20 10  1  0  0  0  0
 21  1  1  1  0  0  0
 22 24  1  1  0  0  0
 22 26  1  0  0  0  0
 22 21  1  0  0  0  0
 23 26  1  0  0  0  0
 23 27  2  0  0  0  0
 24 28  1  0  0  0  0
 26 25  1  6  0  0  0
 26 21  1  0  0  0  0
 28 23  1  0  0  0  0
M  END
>  <MODEL>
9

>  <REMARK>
 VINA RESULT:      -6.9      3.831      6.418
  Name = 
  1 active torsions:
  status: ('A' for Active; 'I' for Inactive)
    1  A    between atoms: C_1  and  C_2
                            x       y       z     vdW  Elec       q    Type
                         _______ _______ _______ _____ _____    ______ ____

>  <TORSDO>
F 1

$$$$
