=
 OpenBabel10272402023D

 28 30  0  0  1  0  0  0  0  0999 V2000
  186.5810  177.4220  145.0880 N   0  0  0  0  0  2  0  0  0  0  0  0
  189.0830  176.6150  145.9080 C   0  0  0  0  0  1  0  0  0  0  0  0
  189.0570  177.5490  144.7040 C   0  0  1  0  0  0  0  0  0  0  0  0
  183.3140  178.4280  144.1090 C   0  0  0  0  0  2  0  0  0  0  0  0
  191.9360  177.1960  142.4140 C   0  0  0  0  0  1  0  0  0  0  0  0
  189.8580  178.8040  145.0140 C   0  0  0  0  0  2  0  0  0  0  0  0
  188.6460  176.5440  142.5190 C   0  0  0  0  0  2  0  0  0  0  0  0
  187.3770  178.6110  141.8250 C   0  0  2  0  0  3  0  0  0  0  0  0
  189.7310  176.8740  143.5240 C   0  0  1  0  0  3  0  0  0  0  0  0
  184.9010  179.0420  142.3600 C   0  0  0  0  0  2  0  0  0  0  0  0
  187.4550  177.4430  142.8200 C   0  0  2  0  0  3  0  0  0  0  0  0
  185.3310  179.5740  144.8970 C   0  0  0  0  0  2  0  0  0  0  0  0
  186.2910  179.6510  142.1580 C   0  0  0  0  0  2  0  0  0  0  0  0
  184.4920  178.9650  143.8050 C   0  0  0  0  0  0  0  0  0  0  0  0
  190.6970  177.8890  142.9470 C   0  0  1  0  0  3  0  0  0  0  0  0
  185.9540  178.5210  145.8220 C   0  0  0  0  0  2  0  0  0  0  0  0
  187.6480  177.9500  144.2430 C   0  0  1  0  0  3  0  0  0  0  0  0
  191.0640  178.7960  144.0960 C   0  0  0  0  0  2  0  0  0  0  0  0
  187.3140  178.1320  140.3630 C   0  0  1  0  0  3  0  0  0  0  0  0
  185.5520  177.8340  139.0500 C   0  0  0  0  0  1  0  0  0  0  0  0
  186.3290  178.8270  139.6500 O   0  0  0  0  0  0  0  0  0  0  0  0
  188.6770  178.2620  139.6750 C   0  0  1  0  0  3  0  0  0  0  0  0
  189.0810  176.9460  139.0940 C   0  0  0  0  0  3  0  0  0  0  0  0
  190.3280  176.5120  139.2030 C   0  0  0  0  0  3  0  0  0  0  0  0
  190.6850  175.2860  138.6580 O   0  0  0  0  0  1  0  0  0  0  0  0
  188.6120  179.2190  138.6560 O   0  0  0  0  0  0  0  0  0  0  0  0
  188.8380  178.5050  137.4770 C   0  0  0  0  0  2  0  0  0  0  0  0
  187.8330  178.9330  136.4290 C   0  0  0  0  0  1  0  0  0  0  0  0
  1 16  1  0  0  0  0
  3  6  1  0  0  0  0
  3  2  1  1  0  0  0
  8 19  1  6  0  0  0
  8 13  1  0  0  0  0
  8 11  1  0  0  0  0
  9  7  1  6  0  0  0
  9  3  1  0  0  0  0
 10 14  1  0  0  0  0
 11  7  1  6  0  0  0
 11 17  1  0  0  0  0
 12 16  1  0  0  0  0
 13 10  1  0  0  0  0
 14  4  2  0  0  0  0
 14 12  1  0  0  0  0
 15  5  1  1  0  0  0
 15  9  1  0  0  0  0
 15 18  1  0  0  0  0
 17  3  1  0  0  0  0
 17  1  1  1  0  0  0
 18  6  1  0  0  0  0
 19 21  1  6  0  0  0
 20 21  1  0  0  0  0
 22 23  1  6  0  0  0
 22 19  1  0  0  0  0
 23 24  2  0  0  0  0
 25 24  1  0  0  0  0
 26 22  1  0  0  0  0
 27 26  1  0  0  0  0
 28 27  1  0  0  0  0
M  END
>  <MODEL>
1

>  <REMARK>
 VINA RESULT:      -7.1      0.000      0.000
  Name = 
  6 active torsions:
  status: ('A' for Active; 'I' for Inactive)
    1  A    between atoms: C_9  and  O_12
    2  A    between atoms: C_9  and  C_13
    3  A    between atoms: C_9  and  C_14
    4  A    between atoms: C_10  and  C_13
    5  A    between atoms: O_12  and  C_15
    6  A    between atoms: C_13  and  O_24
                            x       y       z     vdW  Elec       q    Type
                         _______ _______ _______ _____ _____    ______ ____

>  <TORSDO>
F 6

$$$$
=
 OpenBabel10272402023D

 28 30  0  0  1  0  0  0  0  0999 V2000
  186.9830  177.4770  140.9010 N   0  0  0  0  0  2  0  0  0  0  0  0
  184.5680  177.8480  142.1720 C   0  0  0  0  0  1  0  0  0  0  0  0
  185.7960  178.2980  142.9540 C   0  0  1  0  0  0  0  0  0  0  0  0
  190.0550  176.9790  139.1810 C   0  0  0  0  0  2  0  0  0  0  0  0
  185.3950  178.2330  146.6270 C   0  0  0  0  0  1  0  0  0  0  0  0
  185.6800  179.7780  143.2810 C   0  0  0  0  0  2  0  0  0  0  0  0
  187.0190  176.5880  144.1940 C   0  0  0  0  0  2  0  0  0  0  0  0
  189.1790  177.7890  143.6900 C   0  0  2  0  0  3  0  0  0  0  0  0
  185.8540  177.5550  144.2760 C   0  0  1  0  0  3  0  0  0  0  0  0
  190.5200  177.5130  141.5160 C   0  0  0  0  0  2  0  0  0  0  0  0
  187.9490  177.0850  143.0960 C   0  0  2  0  0  3  0  0  0  0  0  0
  188.8410  178.9160  140.0620 C   0  0  0  0  0  2  0  0  0  0  0  0
  190.0890  178.4570  142.6420 C   0  0  0  0  0  2  0  0  0  0  0  0
  189.7850  177.7560  140.2260 C   0  0  0  0  0  0  0  0  0  0  0  0
  186.1100  178.6020  145.3420 C   0  0  1  0  0  3  0  0  0  0  0  0
  187.3800  178.4740  139.9070 C   0  0  0  0  0  2  0  0  0  0  0  0
  187.1310  178.0420  142.2400 C   0  0  1  0  0  3  0  0  0  0  0  0
  185.5480  179.8890  144.7870 C   0  0  0  0  0  2  0  0  0  0  0  0
  189.9560  176.8890  144.6680 C   0  0  1  0  0  3  0  0  0  0  0  0
  190.8960  175.0980  143.7570 C   0  0  0  0  0  1  0  0  0  0  0  0
  191.1460  176.4320  144.0890 O   0  0  0  0  0  0  0  0  0  0  0  0
  190.2360  177.6120  145.9890 C   0  0  1  0  0  3  0  0  0  0  0  0
  189.2110  177.2280  147.0060 C   0  0  0  0  0  3  0  0  0  0  0  0
  188.8630  178.0690  147.9690 C   0  0  0  0  0  3  0  0  0  0  0  0
  187.9080  177.6960  148.9040 O   0  0  0  0  0  1  0  0  0  0  0  0
  191.5080  177.2740  146.4620 O   0  0  0  0  0  0  0  0  0  0  0  0
  191.3020  176.1700  147.2920 C   0  0  0  0  0  2  0  0  0  0  0  0
  192.6200  175.7520  147.9100 C   0  0  0  0  0  1  0  0  0  0  0  0
  3  2  1  6  0  0  0
  3  6  1  0  0  0  0
  3  9  1  0  0  0  0
  4 14  2  0  0  0  0
  6 18  1  0  0  0  0
  8 19  1  6  0  0  0
  9  7  1  6  0  0  0
  9 15  1  0  0  0  0
 10 13  1  0  0  0  0
 11  8  1  0  0  0  0
 11  7  1  1  0  0  0
 12 14  1  0  0  0  0
 13  8  1  0  0  0  0
 14 10  1  0  0  0  0
 15  5  1  1  0  0  0
 16 12  1  0  0  0  0
 16  1  1  0  0  0  0
 17  1  1  6  0  0  0
 17  3  1  0  0  0  0
 17 11  1  0  0  0  0
 18 15  1  0  0  0  0
 19 21  1  6  0  0  0
 19 22  1  0  0  0  0
 20 21  1  0  0  0  0
 22 26  1  0  0  0  0
 22 23  1  1  0  0  0
 23 24  2  0  0  0  0
 24 25  1  0  0  0  0
 26 27  1  0  0  0  0
 27 28  1  0  0  0  0
M  END
>  <MODEL>
2

>  <REMARK>
 VINA RESULT:      -6.2      3.072      6.726
  Name = 
  6 active torsions:
  status: ('A' for Active; 'I' for Inactive)
    1  A    between atoms: C_9  and  O_12
    2  A    between atoms: C_9  and  C_13
    3  A    between atoms: C_9  and  C_14
    4  A    between atoms: C_10  and  C_13
    5  A    between atoms: O_12  and  C_15
    6  A    between atoms: C_13  and  O_24
                            x       y       z     vdW  Elec       q    Type
                         _______ _______ _______ _____ _____    ______ ____

>  <TORSDO>
F 6

$$$$
=
 OpenBabel10272402023D

 28 30  0  0  1  0  0  0  0  0999 V2000
  191.7340  176.3060  137.8060 N   0  0  0  0  0  2  0  0  0  0  0  0
  192.0210  177.6800  140.1760 C   0  0  0  0  0  1  0  0  0  0  0  0
  190.6260  177.1260  139.9040 C   0  0  1  0  0  0  0  0  0  0  0  0
  191.4570  174.5320  134.7370 C   0  0  0  0  0  2  0  0  0  0  0  0
  187.8810  178.9980  141.5190 C   0  0  0  0  0  1  0  0  0  0  0  0
  190.2230  176.1820  141.0250 C   0  0  0  0  0  2  0  0  0  0  0  0
  189.1620  178.4470  138.4670 C   0  0  0  0  0  2  0  0  0  0  0  0
  188.1800  176.3180  137.5370 C   0  0  2  0  0  3  0  0  0  0  0  0
  189.6220  178.2640  139.9000 C   0  0  1  0  0  3  0  0  0  0  0  0
  189.2230  174.9530  135.6250 C   0  0  0  0  0  2  0  0  0  0  0  0
  189.4570  177.1530  137.7220 C   0  0  2  0  0  3  0  0  0  0  0  0
  191.1630  173.9800  137.1050 C   0  0  0  0  0  2  0  0  0  0  0  0
  188.4230  174.9230  136.9300 C   0  0  0  0  0  2  0  0  0  0  0  0
  190.6540  174.5210  135.7970 C   0  0  0  0  0  0  0  0  0  0  0  0
  188.4680  177.8160  140.7730 C   0  0  1  0  0  3  0  0  0  0  0  0
  192.1780  174.9120  137.7780 C   0  0  0  0  0  2  0  0  0  0  0  0
  190.4850  176.4010  138.5580 C   0  0  1  0  0  3  0  0  0  0  0  0
  189.0600  176.8290  141.7510 C   0  0  0  0  0  2  0  0  0  0  0  0
  187.0700  177.0980  136.8100 C   0  0  1  0  0  3  0  0  0  0  0  0
  187.1420  177.8380  134.7200 C   0  0  0  0  0  1  0  0  0  0  0  0
  186.9530  176.6800  135.4780 O   0  0  0  0  0  0  0  0  0  0  0  0
  185.7290  176.9690  137.5400 C   0  0  1  0  0  3  0  0  0  0  0  0
  185.2560  178.3180  137.9760 C   0  0  0  0  0  3  0  0  0  0  0  0
  185.0600  178.5860  139.2590 C   0  0  0  0  0  3  0  0  0  0  0  0
  184.6210  179.8450  139.6450 O   0  0  0  0  0  1  0  0  0  0  0  0
  184.7750  176.3930  136.6950 O   0  0  0  0  0  0  0  0  0  0  0  0
  184.1130  175.4530  137.4880 C   0  0  0  0  0  2  0  0  0  0  0  0
  184.8120  174.1150  137.3730 C   0  0  0  0  0  1  0  0  0  0  0  0
  3  2  1  1  0  0  0
  3  6  1  0  0  0  0
  4 14  2  0  0  0  0
  6 18  1  0  0  0  0
  8 19  1  6  0  0  0
  8 11  1  0  0  0  0
  9  7  1  6  0  0  0
  9  3  1  0  0  0  0
  9 15  1  0  0  0  0
 10 14  1  0  0  0  0
 10 13  1  0  0  0  0
 11  7  1  1  0  0  0
 11 17  1  0  0  0  0
 12 16  1  0  0  0  0
 13  8  1  0  0  0  0
 14 12  1  0  0  0  0
 15  5  1  1  0  0  0
 15 18  1  0  0  0  0
 16  1  1  0  0  0  0
 17  1  1  6  0  0  0
 17  3  1  0  0  0  0
 19 21  1  6  0  0  0
 19 22  1  0  0  0  0
 20 21  1  0  0  0  0
 22 23  1  6  0  0  0
 23 24  2  0  0  0  0
 24 25  1  0  0  0  0
 26 27  1  0  0  0  0
 26 22  1  0  0  0  0
 28 27  1  0  0  0  0
M  END
>  <MODEL>
3

>  <REMARK>
 VINA RESULT:      -5.7      3.377      6.785
  Name = 
  6 active torsions:
  status: ('A' for Active; 'I' for Inactive)
    1  A    between atoms: C_9  and  O_12
    2  A    between atoms: C_9  and  C_13
    3  A    between atoms: C_9  and  C_14
    4  A    between atoms: C_10  and  C_13
    5  A    between atoms: O_12  and  C_15
    6  A    between atoms: C_13  and  O_24
                            x       y       z     vdW  Elec       q    Type
                         _______ _______ _______ _____ _____    ______ ____

>  <TORSDO>
F 6

$$$$
=
 OpenBabel10272402023D

 28 30  0  0  1  0  0  0  0  0999 V2000
  187.7210  177.0090  146.5110 N   0  0  0  0  0  2  0  0  0  0  0  0
  190.2610  176.3120  145.7080 C   0  0  0  0  0  1  0  0  0  0  0  0
  189.5710  177.3680  144.8540 C   0  0  1  0  0  0  0  0  0  0  0  0
  184.4540  177.8640  147.6270 C   0  0  0  0  0  2  0  0  0  0  0  0
  190.7030  177.4920  141.3390 C   0  0  0  0  0  1  0  0  0  0  0  0
  190.4060  178.6390  144.8400 C   0  0  0  0  0  2  0  0  0  0  0  0
  188.0220  176.5820  143.1400 C   0  0  0  0  0  2  0  0  0  0  0  0
  186.5750  178.6100  143.5400 C   0  0  2  0  0  3  0  0  0  0  0  0
  189.4820  176.8810  143.4200 C   0  0  1  0  0  3  0  0  0  0  0  0
  184.8080  178.7880  145.3960 C   0  0  0  0  0  2  0  0  0  0  0  0
  187.1940  177.3490  144.1620 C   0  0  2  0  0  3  0  0  0  0  0  0
  186.5670  179.0670  147.3270 C   0  0  0  0  0  2  0  0  0  0  0  0
  185.8520  179.5200  144.5500 C   0  0  0  0  0  2  0  0  0  0  0  0
  185.2670  178.5200  146.8030 C   0  0  0  0  0  0  0  0  0  0  0  0
  189.9640  178.0250  142.5500 C   0  0  1  0  0  3  0  0  0  0  0  0
  187.6020  177.9690  147.6080 C   0  0  0  0  0  2  0  0  0  0  0  0
  188.1410  177.7090  145.2990 C   0  0  1  0  0  3  0  0  0  0  0  0
  190.9030  178.8250  143.4200 C   0  0  0  0  0  2  0  0  0  0  0  0
  185.7160  178.2920  142.3030 C   0  0  1  0  0  3  0  0  0  0  0  0
  183.6530  177.6200  141.8420 C   0  0  0  0  0  1  0  0  0  0  0  0
  184.3690  178.5970  142.5370 O   0  0  0  0  0  0  0  0  0  0  0  0
  186.2330  179.0270  141.0610 C   0  0  1  0  0  3  0  0  0  0  0  0
  186.7190  178.0380  140.0510 C   0  0  0  0  0  3  0  0  0  0  0  0
  187.9470  178.1190  139.5610 C   0  0  0  0  0  3  0  0  0  0  0  0
  188.3810  177.1920  138.6230 O   0  0  0  0  0  1  0  0  0  0  0  0
  185.2110  179.8000  140.5000 O   0  0  0  0  0  0  0  0  0  0  0  0
  184.9000  179.1670  139.2950 C   0  0  0  0  0  2  0  0  0  0  0  0
  183.5200  179.5930  138.8430 C   0  0  0  0  0  1  0  0  0  0  0  0
  1 16  1  0  0  0  0
  3 17  1  0  0  0  0
  3  2  1  1  0  0  0
  6  3  1  0  0  0  0
  8 19  1  6  0  0  0
  8 11  1  0  0  0  0
  8 13  1  0  0  0  0
  9  7  1  6  0  0  0
  9  3  1  0  0  0  0
 10 14  1  0  0  0  0
 11  7  1  6  0  0  0
 11 17  1  0  0  0  0
 12 16  1  0  0  0  0
 13 10  1  0  0  0  0
 14 12  1  0  0  0  0
 14  4  2  0  0  0  0
 15  5  1  6  0  0  0
 15 18  1  0  0  0  0
 15  9  1  0  0  0  0
 17  1  1  1  0  0  0
 18  6  1  0  0  0  0
 19 21  1  1  0  0  0
 20 21  1  0  0  0  0
 22 23  1  6  0  0  0
 22 19  1  0  0  0  0
 24 23  2  0  0  0  0
 25 24  1  0  0  0  0
 26 22  1  0  0  0  0
 27 26  1  0  0  0  0
 28 27  1  0  0  0  0
M  END
>  <MODEL>
4

>  <REMARK>
 VINA RESULT:      -5.7      1.573      2.627
  Name = 
  6 active torsions:
  status: ('A' for Active; 'I' for Inactive)
    1  A    between atoms: C_9  and  O_12
    2  A    between atoms: C_9  and  C_13
    3  A    between atoms: C_9  and  C_14
    4  A    between atoms: C_10  and  C_13
    5  A    between atoms: O_12  and  C_15
    6  A    between atoms: C_13  and  O_24
                            x       y       z     vdW  Elec       q    Type
                         _______ _______ _______ _____ _____    ______ ____

>  <TORSDO>
F 6

$$$$
=
 OpenBabel10272402023D

 28 30  0  0  1  0  0  0  0  0999 V2000
  186.0770  179.0330  145.1080 N   0  0  0  0  0  2  0  0  0  0  0  0
  184.0170  180.0320  143.5770 C   0  0  0  0  0  1  0  0  0  0  0  0
  184.8400  178.9250  142.9270 C   0  0  1  0  0  0  0  0  0  0  0  0
  188.7030  177.7880  147.1580 C   0  0  0  0  0  2  0  0  0  0  0  0
  184.9040  179.0160  139.2340 C   0  0  0  0  0  1  0  0  0  0  0  0
  183.9340  177.7570  142.5710 C   0  0  0  0  0  2  0  0  0  0  0  0
  186.9310  179.5740  141.8500 C   0  0  0  0  0  2  0  0  0  0  0  0
  187.9620  177.3880  142.5700 C   0  0  2  0  0  3  0  0  0  0  0  0
  185.4370  179.4350  141.6290 C   0  0  1  0  0  3  0  0  0  0  0  0
  189.0050  176.9660  144.8800 C   0  0  0  0  0  2  0  0  0  0  0  0
  187.3020  178.6940  143.0350 C   0  0  2  0  0  3  0  0  0  0  0  0
  186.6950  176.8390  146.1250 C   0  0  0  0  0  2  0  0  0  0  0  0
  188.2240  176.3770  143.7020 C   0  0  0  0  0  2  0  0  0  0  0  0
  188.1420  177.2480  146.0790 C   0  0  0  0  0  0  0  0  0  0  0  0
  185.1540  178.3740  140.5840 C   0  0  1  0  0  3  0  0  0  0  0  0
  185.7390  178.0380  146.1260 C   0  0  0  0  0  2  0  0  0  0  0  0
  186.0070  178.4150  143.7860 C   0  0  1  0  0  3  0  0  0  0  0  0
  183.9080  177.6630  141.0580 C   0  0  0  0  0  2  0  0  0  0  0  0
  189.2040  177.6370  141.6940 C   0  0  1  0  0  3  0  0  0  0  0  0
  191.2490  178.0390  142.4510 C   0  0  0  0  0  1  0  0  0  0  0  0
  190.3320  177.0080  142.2350 O   0  0  0  0  0  0  0  0  0  0  0  0
  188.9670  177.1840  140.2500 C   0  0  1  0  0  3  0  0  0  0  0  0
  189.1560  178.3360  139.3180 C   0  0  0  0  0  3  0  0  0  0  0  0
  188.4050  178.4600  138.2330 C   0  0  0  0  0  3  0  0  0  0  0  0
  188.5940  179.5380  137.3790 O   0  0  0  0  0  1  0  0  0  0  0  0
  189.8630  176.1630  139.9130 O   0  0  0  0  0  0  0  0  0  0  0  0
  190.7570  176.7500  139.0160 C   0  0  0  0  0  2  0  0  0  0  0  0
  191.3190  175.6870  138.0960 C   0  0  0  0  0  1  0  0  0  0  0  0
  1 16  1  0  0  0  0
  3  2  1  1  0  0  0
  3 17  1  0  0  0  0
  6  3  1  0  0  0  0
  8 19  1  1  0  0  0
  8 11  1  0  0  0  0
  8 13  1  0  0  0  0
  9  7  1  1  0  0  0
  9  3  1  0  0  0  0
 10 14  1  0  0  0  0
 11  7  1  6  0  0  0
 11 17  1  0  0  0  0
 12 16  1  0  0  0  0
 13 10  1  0  0  0  0
 14 12  1  0  0  0  0
 14  4  2  0  0  0  0
 15  5  1  6  0  0  0
 15 18  1  0  0  0  0
 15  9  1  0  0  0  0
 17  1  1  1  0  0  0
 18  6  1  0  0  0  0
 19 21  1  1  0  0  0
 21 20  1  0  0  0  0
 22 23  1  6  0  0  0
 22 19  1  0  0  0  0
 24 23  2  0  0  0  0
 25 24  1  0  0  0  0
 26 22  1  0  0  0  0
 27 26  1  0  0  0  0
 28 27  1  0  0  0  0
M  END
>  <MODEL>
5

>  <REMARK>
 VINA RESULT:      -5.5      1.484      4.609
  Name = 
  6 active torsions:
  status: ('A' for Active; 'I' for Inactive)
    1  A    between atoms: C_9  and  O_12
    2  A    between atoms: C_9  and  C_13
    3  A    between atoms: C_9  and  C_14
    4  A    between atoms: C_10  and  C_13
    5  A    between atoms: O_12  and  C_15
    6  A    between atoms: C_13  and  O_24
                            x       y       z     vdW  Elec       q    Type
                         _______ _______ _______ _____ _____    ______ ____

>  <TORSDO>
F 6

$$$$
=
 OpenBabel10272402023D

 28 30  0  0  1  0  0  0  0  0999 V2000
  185.6340  179.3620  140.2240 N   0  0  0  0  0  2  0  0  0  0  0  0
  186.3190  179.0270  137.5780 C   0  0  0  0  0  1  0  0  0  0  0  0
  186.9610  178.0440  138.5510 C   0  0  1  0  0  0  0  0  0  0  0  0
  184.6810  179.8540  143.6150 C   0  0  0  0  0  2  0  0  0  0  0  0
  190.2100  176.6770  137.4450 C   0  0  0  0  0  1  0  0  0  0  0  0
  186.5850  176.6230  138.1630 C   0  0  0  0  0  2  0  0  0  0  0  0
  188.9610  178.7890  139.7340 C   0  0  0  0  0  2  0  0  0  0  0  0
  188.2350  177.4690  141.7580 C   0  0  2  0  0  3  0  0  0  0  0  0
  188.4710  178.1460  138.4510 C   0  0  1  0  0  3  0  0  0  0  0  0
  186.5790  178.3210  143.5280 C   0  0  0  0  0  2  0  0  0  0  0  0
  187.8740  178.6010  140.7830 C   0  0  2  0  0  3  0  0  0  0  0  0
  184.4690  178.0350  141.9880 C   0  0  0  0  0  2  0  0  0  0  0  0
  187.1140  177.1140  142.7530 C   0  0  0  0  0  2  0  0  0  0  0  0
  185.2380  178.7930  143.0360 C   0  0  0  0  0  0  0  0  0  0  0  0
  188.9870  176.7260  138.3400 C   0  0  1  0  0  3  0  0  0  0  0  0
  184.3560  178.8020  140.6650 C   0  0  0  0  0  2  0  0  0  0  0  0
  186.5940  178.2800  140.0230 C   0  0  1  0  0  3  0  0  0  0  0  0
  187.8610  175.9340  137.7210 C   0  0  0  0  0  2  0  0  0  0  0  0
  189.5920  177.6990  142.4470 C   0  0  1  0  0  3  0  0  0  0  0  0
  190.2590  179.1290  144.0060 C   0  0  0  0  0  1  0  0  0  0  0  0
  189.4190  178.0330  143.7960 O   0  0  0  0  0  0  0  0  0  0  0  0
  190.5050  176.4780  142.3010 C   0  0  1  0  0  3  0  0  0  0  0  0
  191.8730  176.9120  141.8850 C   0  0  0  0  0  3  0  0  0  0  0  0
  192.1150  177.2880  140.6380 C   0  0  0  0  0  3  0  0  0  0  0  0
  193.3930  177.6890  140.2700 O   0  0  0  0  0  1  0  0  0  0  0  0
  190.5850  175.7890  143.5160 O   0  0  0  0  0  0  0  0  0  0  0  0
  191.9010  175.9720  143.9470 C   0  0  0  0  0  2  0  0  0  0  0  0
  191.9190  176.1420  145.4510 C   0  0  0  0  0  1  0  0  0  0  0  0
  1 16  1  0  0  0  0
  3  2  1  6  0  0  0
  3 17  1  0  0  0  0
  6  3  1  0  0  0  0
  8 19  1  1  0  0  0
  8 13  1  0  0  0  0
  9  3  1  0  0  0  0
  9  7  1  1  0  0  0
 11  7  1  6  0  0  0
 11  8  1  0  0  0  0
 12 14  1  0  0  0  0
 13 10  1  0  0  0  0
 14 10  1  0  0  0  0
 14  4  2  0  0  0  0
 15  5  1  6  0  0  0
 15  9  1  0  0  0  0
 16 12  1  0  0  0  0
 17  1  1  6  0  0  0
 17 11  1  0  0  0  0
 18  6  1  0  0  0  0
 18 15  1  0  0  0  0
 19 21  1  1  0  0  0
 21 20  1  0  0  0  0
 22 23  1  1  0  0  0
 22 19  1  0  0  0  0
 22 26  1  0  0  0  0
 24 23  2  0  0  0  0
 25 24  1  0  0  0  0
 26 27  1  0  0  0  0
 27 28  1  0  0  0  0
M  END
>  <MODEL>
6

>  <REMARK>
 VINA RESULT:      -5.4      2.316      5.326
  Name = 
  6 active torsions:
  status: ('A' for Active; 'I' for Inactive)
    1  A    between atoms: C_9  and  O_12
    2  A    between atoms: C_9  and  C_13
    3  A    between atoms: C_9  and  C_14
    4  A    between atoms: C_10  and  C_13
    5  A    between atoms: O_12  and  C_15
    6  A    between atoms: C_13  and  O_24
                            x       y       z     vdW  Elec       q    Type
                         _______ _______ _______ _____ _____    ______ ____

>  <TORSDO>
F 6

$$$$
=
 OpenBabel10272402023D

 28 30  0  0  1  0  0  0  0  0999 V2000
  184.5130  178.1900  143.7970 N   0  0  0  0  0  2  0  0  0  0  0  0
  184.1470  178.0760  146.5250 C   0  0  0  0  0  1  0  0  0  0  0  0
  185.5720  178.3620  146.0660 C   0  0  1  0  0  0  0  0  0  0  0  0
  184.8930  178.3380  140.2650 C   0  0  0  0  0  2  0  0  0  0  0  0
  188.1990  177.2880  148.4320 C   0  0  0  0  0  1  0  0  0  0  0  0
  186.0360  179.6910  146.6400 C   0  0  0  0  0  2  0  0  0  0  0  0
  186.9470  176.4480  145.4330 C   0  0  0  0  0  2  0  0  0  0  0  0
  188.0580  177.8540  143.6570 C   0  0  2  0  0  3  0  0  0  0  0  0
  186.5030  177.2950  146.6100 C   0  0  1  0  0  3  0  0  0  0  0  0
  187.0980  178.2460  141.3060 C   0  0  0  0  0  2  0  0  0  0  0  0
  186.7320  177.2710  144.1710 C   0  0  2  0  0  3  0  0  0  0  0  0
  185.2270  179.8980  142.1240 C   0  0  0  0  0  2  0  0  0  0  0  0
  187.9020  178.8260  142.4730 C   0  0  0  0  0  2  0  0  0  0  0  0
  185.6980  178.7890  141.2230 C   0  0  0  0  0  0  0  0  0  0  0  0
  187.6850  178.0270  147.2120 C   0  0  1  0  0  3  0  0  0  0  0  0
  184.1570  179.4380  143.1220 C   0  0  0  0  0  2  0  0  0  0  0  0
  185.7560  178.3790  144.5410 C   0  0  1  0  0  3  0  0  0  0  0  0
  187.1580  179.3840  147.6120 C   0  0  0  0  0  2  0  0  0  0  0  0
  189.1160  176.7650  143.3990 C   0  0  1  0  0  3  0  0  0  0  0  0
  190.7630  176.2390  142.0100 C   0  0  0  0  0  1  0  0  0  0  0  0
  189.4450  176.7000  142.0390 O   0  0  0  0  0  0  0  0  0  0  0  0
  190.3680  176.9920  144.2520 C   0  0  1  0  0  3  0  0  0  0  0  0
  190.4370  178.4200  144.6840 C   0  0  0  0  0  3  0  0  0  0  0  0
  191.2250  179.2810  144.0570 C   0  0  0  0  0  3  0  0  0  0  0  0
  191.2750  180.6050  144.4730 O   0  0  0  0  0  1  0  0  0  0  0  0
  190.3380  176.1650  145.3800 O   0  0  0  0  0  0  0  0  0  0  0  0
  191.6500  176.1610  145.8580 C   0  0  0  0  0  2  0  0  0  0  0  0
  191.6390  176.3300  147.3620 C   0  0  0  0  0  1  0  0  0  0  0  0
  3  2  1  1  0  0  0
  3  9  1  0  0  0  0
  3  6  1  0  0  0  0
  4 14  2  0  0  0  0
  6 18  1  0  0  0  0
  8 19  1  6  0  0  0
  8 11  1  0  0  0  0
  9  7  1  6  0  0  0
  9 15  1  0  0  0  0
 10 13  1  0  0  0  0
 11 17  1  0  0  0  0
 11  7  1  1  0  0  0
 12 16  1  0  0  0  0
 13  8  1  0  0  0  0
 14 10  1  0  0  0  0
 14 12  1  0  0  0  0
 15 18  1  0  0  0  0
 15  5  1  1  0  0  0
 16  1  1  0  0  0  0
 17  1  1  6  0  0  0
 17  3  1  0  0  0  0
 19 21  1  6  0  0  0
 19 22  1  0  0  0  0
 20 21  1  0  0  0  0
 22 23  1  1  0  0  0
 22 26  1  0  0  0  0
 24 25  1  0  0  0  0
 24 23  2  0  0  0  0
 26 27  1  0  0  0  0
 27 28  1  0  0  0  0
M  END
>  <MODEL>
7

>  <REMARK>
 VINA RESULT:      -5.3      2.480      5.271
  Name = 
  6 active torsions:
  status: ('A' for Active; 'I' for Inactive)
    1  A    between atoms: C_9  and  O_12
    2  A    between atoms: C_9  and  C_13
    3  A    between atoms: C_9  and  C_14
    4  A    between atoms: C_10  and  C_13
    5  A    between atoms: O_12  and  C_15
    6  A    between atoms: C_13  and  O_24
                            x       y       z     vdW  Elec       q    Type
                         _______ _______ _______ _____ _____    ______ ____

>  <TORSDO>
F 6

$$$$
=
 OpenBabel10272402023D

 28 30  0  0  1  0  0  0  0  0999 V2000
  185.9800  179.1750  140.2960 N   0  0  0  0  0  2  0  0  0  0  0  0
  187.1350  178.9380  137.8070 C   0  0  0  0  0  1  0  0  0  0  0  0
  187.6510  177.9680  138.8640 C   0  0  1  0  0  0  0  0  0  0  0  0
  184.4230  179.5370  143.4730 C   0  0  0  0  0  2  0  0  0  0  0  0
  191.1150  176.8000  138.3290 C   0  0  0  0  0  1  0  0  0  0  0  0
  187.4290  176.5380  138.3970 C   0  0  0  0  0  2  0  0  0  0  0  0
  189.3680  178.7890  140.3910 C   0  0  0  0  0  2  0  0  0  0  0  0
  188.3750  177.3870  142.2380 C   0  0  2  0  0  3  0  0  0  0  0  0
  189.1470  178.1520  139.0330 C   0  0  1  0  0  3  0  0  0  0  0  0
  186.3890  178.1090  143.7000 C   0  0  0  0  0  2  0  0  0  0  0  0
  188.1270  178.5200  141.2300 C   0  0  2  0  0  3  0  0  0  0  0  0
  184.6010  177.7470  141.8100 C   0  0  0  0  0  2  0  0  0  0  0  0
  187.1190  176.9500  143.0160 C   0  0  0  0  0  2  0  0  0  0  0  0
  185.1310  178.5200  142.9870 C   0  0  0  0  0  0  0  0  0  0  0  0
  189.7540  176.7630  138.9960 C   0  0  1  0  0  3  0  0  0  0  0  0
  184.6790  178.5380  140.4970 C   0  0  0  0  0  2  0  0  0  0  0  0
  187.0190  178.1490  140.2530 C   0  0  1  0  0  3  0  0  0  0  0  0
  188.7990  175.9270  138.1780 C   0  0  0  0  0  2  0  0  0  0  0  0
  189.5760  177.6720  143.1570 C   0  0  1  0  0  3  0  0  0  0  0  0
  191.1090  179.2070  143.6160 C   0  0  0  0  0  1  0  0  0  0  0  0
  189.7490  179.0490  143.3420 O   0  0  0  0  0  0  0  0  0  0  0  0
  189.4280  176.9570  144.5050 C   0  0  1  0  0  3  0  0  0  0  0  0
  190.6480  176.1400  144.7820 C   0  0  0  0  0  3  0  0  0  0  0  0
  191.2240  175.4340  143.8200 C   0  0  0  0  0  3  0  0  0  0  0  0
  192.3570  174.6800  144.0970 O   0  0  0  0  0  1  0  0  0  0  0  0
  189.2530  177.8930  145.5290 O   0  0  0  0  0  0  0  0  0  0  0  0
  189.0840  177.1320  146.6880 C   0  0  0  0  0  2  0  0  0  0  0  0
  188.6640  178.0350  147.8280 C   0  0  0  0  0  1  0  0  0  0  0  0
  1 16  1  0  0  0  0
  3  2  1  6  0  0  0
  3  9  1  0  0  0  0
  3 17  1  0  0  0  0
  6  3  1  0  0  0  0
  8 13  1  0  0  0  0
  8 19  1  1  0  0  0
  9  7  1  1  0  0  0
 11  7  1  6  0  0  0
 11  8  1  0  0  0  0
 12 14  1  0  0  0  0
 13 10  1  0  0  0  0
 14  4  2  0  0  0  0
 14 10  1  0  0  0  0
 15  5  1  6  0  0  0
 15  9  1  0  0  0  0
 16 12  1  0  0  0  0
 17  1  1  6  0  0  0
 17 11  1  0  0  0  0
 18  6  1  0  0  0  0
 18 15  1  0  0  0  0
 19 21  1  1  0  0  0
 19 22  1  0  0  0  0
 21 20  1  0  0  0  0
 22 23  1  1  0  0  0
 22 26  1  0  0  0  0
 24 25  1  0  0  0  0
 24 23  2  0  0  0  0
 26 27  1  0  0  0  0
 27 28  1  0  0  0  0
M  END
>  <MODEL>
8

>  <REMARK>
 VINA RESULT:      -5.2      2.437      5.572
  Name = 
  6 active torsions:
  status: ('A' for Active; 'I' for Inactive)
    1  A    between atoms: C_9  and  O_12
    2  A    between atoms: C_9  and  C_13
    3  A    between atoms: C_9  and  C_14
    4  A    between atoms: C_10  and  C_13
    5  A    between atoms: O_12  and  C_15
    6  A    between atoms: C_13  and  O_24
                            x       y       z     vdW  Elec       q    Type
                         _______ _______ _______ _____ _____    ______ ____

>  <TORSDO>
F 6

$$$$
=
 OpenBabel10272402023D

 28 30  0  0  1  0  0  0  0  0999 V2000
  182.0240  177.7100  136.6780 N   0  0  0  0  0  2  0  0  0  0  0  0
  181.8080  175.3640  135.2510 C   0  0  0  0  0  1  0  0  0  0  0  0
  182.9270  175.4010  136.2860 C   0  0  1  0  0  0  0  0  0  0  0  0
  182.2210  180.7660  138.4860 C   0  0  0  0  0  2  0  0  0  0  0  0
  185.7990  173.2020  135.5350 C   0  0  0  0  0  1  0  0  0  0  0  0
  182.7300  174.2780  137.2910 C   0  0  0  0  0  2  0  0  0  0  0  0
  185.0220  176.4650  135.6290 C   0  0  0  0  0  2  0  0  0  0  0  0
  185.3140  177.3100  137.9880 C   0  0  2  0  0  3  0  0  0  0  0  0
  184.2580  175.1560  135.6020 C   0  0  1  0  0  3  0  0  0  0  0  0
  184.2350  179.4540  138.9060 C   0  0  0  0  0  2  0  0  0  0  0  0
  184.4230  177.3210  136.7370 C   0  0  2  0  0  3  0  0  0  0  0  0
  181.8260  178.4180  139.0630 C   0  0  0  0  0  2  0  0  0  0  0  0
  184.6990  178.0260  139.2050 C   0  0  0  0  0  2  0  0  0  0  0  0
  182.7420  179.5760  138.7730 C   0  0  0  0  0  0  0  0  0  0  0  0
  184.9750  174.1080  136.4290 C   0  0  1  0  0  3  0  0  0  0  0  0
  181.1150  177.8970  137.8080 C   0  0  0  0  0  2  0  0  0  0  0  0
  183.0510  176.7350  137.0380 C   0  0  1  0  0  3  0  0  0  0  0  0
  183.8850  173.3130  137.1080 C   0  0  0  0  0  2  0  0  0  0  0  0
  186.7520  177.7730  137.6890 C   0  0  1  0  0  3  0  0  0  0  0  0
  187.5150  179.1710  136.1450 C   0  0  0  0  0  1  0  0  0  0  0  0
  186.7780  179.1270  137.3310 O   0  0  0  0  0  0  0  0  0  0  0  0
  187.6820  177.5060  138.8760 C   0  0  1  0  0  3  0  0  0  0  0  0
  188.8910  176.7580  138.4170 C   0  0  0  0  0  3  0  0  0  0  0  0
  188.7940  175.8180  137.4880 C   0  0  0  0  0  3  0  0  0  0  0  0
  189.9280  175.1330  137.0730 O   0  0  0  0  0  1  0  0  0  0  0  0
  188.0780  178.7150  139.4590 O   0  0  0  0  0  0  0  0  0  0  0  0
  188.4850  178.3760  140.7510 C   0  0  0  0  0  2  0  0  0  0  0  0
  187.3070  178.4810  141.6950 C   0  0  0  0  0  1  0  0  0  0  0  0
  1 16  1  0  0  0  0
  3  2  1  6  0  0  0
  3 17  1  0  0  0  0
  3  6  1  0  0  0  0
  4 14  2  0  0  0  0
  8 19  1  6  0  0  0
  8 13  1  0  0  0  0
  9  7  1  1  0  0  0
  9  3  1  0  0  0  0
  9 15  1  0  0  0  0
 10 13  1  0  0  0  0
 11  7  1  6  0  0  0
 11 17  1  0  0  0  0
 11  8  1  0  0  0  0
 14 10  1  0  0  0  0
 14 12  1  0  0  0  0
 15  5  1  6  0  0  0
 15 18  1  0  0  0  0
 16 12  1  0  0  0  0
 17  1  1  6  0  0  0
 18  6  1  0  0  0  0
 19 21  1  1  0  0  0
 19 22  1  0  0  0  0
 20 21  1  0  0  0  0
 22 23  1  6  0  0  0
 22 26  1  0  0  0  0
 24 23  2  0  0  0  0
 25 24  1  0  0  0  0
 26 27  1  0  0  0  0
 27 28  1  0  0  0  0
M  END
>  <MODEL>
9

>  <REMARK>
 VINA RESULT:      -4.9      3.776      7.148
  Name = 
  6 active torsions:
  status: ('A' for Active; 'I' for Inactive)
    1  A    between atoms: C_9  and  O_12
    2  A    between atoms: C_9  and  C_13
    3  A    between atoms: C_9  and  C_14
    4  A    between atoms: C_10  and  C_13
    5  A    between atoms: O_12  and  C_15
    6  A    between atoms: C_13  and  O_24
                            x       y       z     vdW  Elec       q    Type
                         _______ _______ _______ _____ _____    ______ ____

>  <TORSDO>
F 6

$$$$
