=
 OpenBabel10272413363D

 32 37  0  0  1  0  0  0  0  0999 V2000
  186.0790  177.6310  138.2850 N   0  0  0  0  0  0  0  0  0  0  0  0
  188.3430  178.1870  142.8350 C   0  0  0  0  0  0  0  0  0  0  0  0
  184.3970  178.8860  145.6150 N   0  0  0  0  0  2  0  0  0  0  0  0
  184.9490  178.0250  146.6540 C   0  0  0  0  0  2  0  0  0  0  0  0
  190.6290  177.9790  143.9300 C   0  0  2  0  0  3  0  0  0  0  0  0
  191.2370  177.0190  144.9690 C   0  0  1  0  0  3  0  0  0  0  0  0
  188.1880  178.3140  140.3990 C   0  0  0  0  0  0  0  0  0  0  0  0
  186.1760  178.4140  141.7660 C   0  0  0  0  0  3  0  0  0  0  0  0
  185.8530  178.6170  139.3360 C   0  0  0  0  0  2  0  0  0  0  0  0
  184.8140  178.3500  144.3220 C   0  0  0  0  0  2  0  0  0  0  0  0
  186.9380  178.2990  142.9370 C   0  0  0  0  0  0  0  0  0  0  0  0
  186.3210  178.3040  144.2020 C   0  0  0  0  0  0  0  0  0  0  0  0
  188.5020  178.0550  145.2600 C   0  0  0  0  0  0  0  0  0  0  0  0
  188.2400  178.6200  137.8390 C   0  0  0  0  0  2  0  0  0  0  0  0
  186.7730  178.4110  140.5030 C   0  0  0  0  0  0  0  0  0  0  0  0
  188.9760  178.2290  139.1120 C   0  0  0  0  0  2  0  0  0  0  0  0
  187.1590  177.6270  137.5660 C   0  0  0  0  0  0  0  0  0  0  0  0
  186.4590  178.2260  146.7320 C   0  0  0  0  0  2  0  0  0  0  0  0
  187.1050  178.1660  145.3680 C   0  0  0  0  0  0  0  0  0  0  0  0
  189.3700  177.9340  146.4750 C   0  0  0  0  0  2  0  0  0  0  0  0
  188.9430  178.1920  141.5700 C   0  0  0  0  0  3  0  0  0  0  0  0
  191.2400  179.3600  144.0830 C   0  0  0  0  0  1  0  0  0  0  0  0
  189.1230  178.0630  144.0000 C   0  0  0  0  0  0  0  0  0  0  0  0
  190.4050  176.8290  146.2580 C   0  0  2  0  0  3  0  0  0  0  0  0
  191.3310  176.7330  147.4600 C   0  0  0  0  0  2  0  0  0  0  0  0
  192.0720  175.4110  147.4550 C   0  0  0  0  0  1  0  0  0  0  0  0
  190.8350  175.3220  143.2300 C   0  0  0  0  0  2  0  0  0  0  0  0
  191.5000  175.6960  144.3200 C   0  0  0  0  0  3  0  0  0  0  0  0
  187.3480  176.6780  136.5590 O   0  0  0  0  0  0  0  0  0  0  0  0
  187.6140  175.3130  136.8450 C   0  0  1  0  0  3  0  0  0  0  0  0
  188.5270  174.7580  135.8250 C   0  0  0  0  0  2  0  0  0  0  0  0
  188.9890  175.1540  137.0920 O   0  0  0  0  0  0  0  0  0  0  0  0
  1  9  1  0  0  0  0
  2 11  1  0  0  0  0
  2 23  1  0  0  0  0
  3  4  1  0  0  0  0
  4 18  1  0  0  0  0
  5 23  1  0  0  0  0
  5 22  1  1  0  0  0
  5  6  1  0  0  0  0
  6 28  1  6  0  0  0
  6 24  1  0  0  0  0
  7 15  2  0  0  0  0
  7 21  1  0  0  0  0
  8 11  2  0  0  0  0
  9 15  1  0  0  0  0
 10  3  1  0  0  0  0
 11 12  1  0  0  0  0
 12 10  1  0  0  0  0
 12 19  2  0  0  0  0
 13 19  1  0  0  0  0
 13 20  1  0  0  0  0
 14 16  1  0  0  0  0
 15  8  1  0  0  0  0
 16  7  1  0  0  0  0
 17 14  1  0  0  0  0
 17  1  2  0  0  0  0
 19 18  1  0  0  0  0
 21  2  2  0  0  0  0
 23 13  2  0  0  0  0
 24 20  1  0  0  0  0
 24 25  1  1  0  0  0
 26 25  1  0  0  0  0
 27 28  2  0  0  0  0
 29 17  1  0  0  0  0
 30 29  1  6  0  0  0
 30 32  1  0  0  0  0
 31 30  1  0  0  0  0
 31 32  1  0  0  0  0
M  END
>  <MODEL>
1

>  <REMARK>
 VINA RESULT:     -10.0      0.000      0.000
  Name = 
  4 active torsions:
  status: ('A' for Active; 'I' for Inactive)
    1  A    between atoms: C_1  and  O_10
    2  A    between atoms: C_7  and  C_22
    3  A    between atoms: O_10  and  C_24
    4  A    between atoms: C_11  and  C_32
                            x       y       z     vdW  Elec       q    Type
                         _______ _______ _______ _____ _____    ______ ____

>  <TORSDO>
F 4

$$$$
=
 OpenBabel10272413363D

 32 37  0  0  1  0  0  0  0  0999 V2000
  187.3480  177.0010  137.7450 N   0  0  0  0  0  0  0  0  0  0  0  0
  188.9410  177.9150  142.5160 C   0  0  0  0  0  0  0  0  0  0  0  0
  184.6440  178.8190  144.6380 N   0  0  0  0  0  2  0  0  0  0  0  0
  185.0340  178.0430  145.8090 C   0  0  0  0  0  2  0  0  0  0  0  0
  191.0450  177.7990  143.9400 C   0  0  2  0  0  3  0  0  0  0  0  0
  191.4890  176.9250  145.1280 C   0  0  1  0  0  3  0  0  0  0  0  0
  189.1380  177.8520  140.0810 C   0  0  0  0  0  0  0  0  0  0  0  0
  186.9530  178.0530  141.1330 C   0  0  0  0  0  3  0  0  0  0  0  0
  186.9820  178.0650  138.6730 C   0  0  0  0  0  2  0  0  0  0  0  0
  185.2370  178.1850  143.4640 C   0  0  0  0  0  2  0  0  0  0  0  0
  187.5380  178.0320  142.4060 C   0  0  0  0  0  0  0  0  0  0  0  0
  186.7450  178.1330  143.5660 C   0  0  0  0  0  0  0  0  0  0  0  0
  188.7500  177.9730  144.9410 C   0  0  0  0  0  0  0  0  0  0  0  0
  189.5590  177.9580  137.5390 C   0  0  0  0  0  2  0  0  0  0  0  0
  187.7240  177.9530  139.9730 C   0  0  0  0  0  0  0  0  0  0  0  0
  190.1010  177.6690  138.9300 C   0  0  0  0  0  2  0  0  0  0  0  0
  188.5200  176.9440  137.1900 C   0  0  0  0  0  0  0  0  0  0  0  0
  186.5180  178.2530  146.0870 C   0  0  0  0  0  2  0  0  0  0  0  0
  187.3530  178.0890  144.8390 C   0  0  0  0  0  0  0  0  0  0  0  0
  189.4340  177.9500  146.2750 C   0  0  0  0  0  2  0  0  0  0  0  0
  189.7160  177.8240  141.3530 C   0  0  0  0  0  3  0  0  0  0  0  0
  191.6400  179.1900  144.0720 C   0  0  0  0  0  1  0  0  0  0  0  0
  189.5450  177.8850  143.7870 C   0  0  0  0  0  0  0  0  0  0  0  0
  190.4800  176.8340  146.2950 C   0  0  2  0  0  3  0  0  0  0  0  0
  191.2230  176.8340  147.6210 C   0  0  0  0  0  2  0  0  0  0  0  0
  192.2630  175.7310  147.6460 C   0  0  0  0  0  1  0  0  0  0  0  0
  191.2440  175.0540  143.5440 C   0  0  0  0  0  2  0  0  0  0  0  0
  191.8310  175.5560  144.6270 C   0  0  0  0  0  3  0  0  0  0  0  0
  188.8430  175.9200  136.2980 O   0  0  0  0  0  0  0  0  0  0  0  0
  188.9420  174.5630  136.7050 C   0  0  1  0  0  3  0  0  0  0  0  0
  190.2050  173.9830  136.2050 C   0  0  0  0  0  2  0  0  0  0  0  0
  190.0660  174.4130  137.5370 O   0  0  0  0  0  0  0  0  0  0  0  0
  1  9  1  0  0  0  0
  2 23  1  0  0  0  0
  3  4  1  0  0  0  0
  4 18  1  0  0  0  0
  5 22  1  1  0  0  0
  5  6  1  0  0  0  0
  6 28  1  6  0  0  0
  6 24  1  0  0  0  0
  7 21  1  0  0  0  0
  8 11  2  0  0  0  0
  9 15  1  0  0  0  0
 10 12  1  0  0  0  0
 10  3  1  0  0  0  0
 11  2  1  0  0  0  0
 11 12  1  0  0  0  0
 12 19  2  0  0  0  0
 13 20  1  0  0  0  0
 14 16  1  0  0  0  0
 15  7  2  0  0  0  0
 15  8  1  0  0  0  0
 16  7  1  0  0  0  0
 17 14  1  0  0  0  0
 17  1  2  0  0  0  0
 19 13  1  0  0  0  0
 19 18  1  0  0  0  0
 20 24  1  0  0  0  0
 21  2  2  0  0  0  0
 23  5  1  0  0  0  0
 23 13  2  0  0  0  0
 24 25  1  1  0  0  0
 25 26  1  0  0  0  0
 27 28  2  0  0  0  0
 29 17  1  0  0  0  0
 30 29  1  6  0  0  0
 30 32  1  0  0  0  0
 31 30  1  0  0  0  0
 31 32  1  0  0  0  0
M  END
>  <MODEL>
2

>  <REMARK>
 VINA RESULT:      -9.5      0.930      1.015
  Name = 
  4 active torsions:
  status: ('A' for Active; 'I' for Inactive)
    1  A    between atoms: C_1  and  O_10
    2  A    between atoms: C_7  and  C_22
    3  A    between atoms: O_10  and  C_24
    4  A    between atoms: C_11  and  C_32
                            x       y       z     vdW  Elec       q    Type
                         _______ _______ _______ _____ _____    ______ ____

>  <TORSDO>
F 4

$$$$
=
 OpenBabel10272413363D

 32 37  0  0  1  0  0  0  0  0999 V2000
  190.6570  175.8660  137.4550 N   0  0  0  0  0  0  0  0  0  0  0  0
  190.0520  177.6300  142.2160 C   0  0  0  0  0  0  0  0  0  0  0  0
  185.2870  178.6630  142.0900 N   0  0  0  0  0  2  0  0  0  0  0  0
  185.1090  178.1100  143.4270 C   0  0  0  0  0  2  0  0  0  0  0  0
  191.3270  177.8520  144.4050 C   0  0  2  0  0  3  0  0  0  0  0  0
  191.1880  177.2070  145.7970 C   0  0  1  0  0  3  0  0  0  0  0  0
  191.2820  177.1760  140.1540 C   0  0  0  0  0  0  0  0  0  0  0  0
  188.8630  177.4420  140.1090 C   0  0  0  0  0  3  0  0  0  0  0  0
  189.9560  177.0500  137.9400 C   0  0  0  0  0  2  0  0  0  0  0  0
  186.3120  177.8730  141.4130 C   0  0  0  0  0  2  0  0  0  0  0  0
  188.8390  177.6590  141.4930 C   0  0  0  0  0  0  0  0  0  0  0  0
  187.6250  177.9120  142.1620 C   0  0  0  0  0  0  0  0  0  0  0  0
  188.8310  178.0770  144.2730 C   0  0  0  0  0  0  0  0  0  0  0  0
  192.7660  176.8820  138.0650 C   0  0  0  0  0  2  0  0  0  0  0  0
  190.0580  177.1890  139.4300 C   0  0  0  0  0  0  0  0  0  0  0  0
  192.6430  176.8530  139.5810 C   0  0  0  0  0  2  0  0  0  0  0  0
  191.9510  175.7760  137.4790 C   0  0  0  0  0  0  0  0  0  0  0  0
  186.3320  178.4340  144.2780 C   0  0  0  0  0  2  0  0  0  0  0  0
  187.6200  178.1070  143.5600 C   0  0  0  0  0  0  0  0  0  0  0  0
  188.8690  178.3070  145.7540 C   0  0  0  0  0  2  0  0  0  0  0  0
  191.2510  177.3860  141.5350 C   0  0  0  0  0  3  0  0  0  0  0  0
  191.8450  179.2720  144.5430 C   0  0  0  0  0  1  0  0  0  0  0  0
  190.0450  177.8390  143.6070 C   0  0  0  0  0  0  0  0  0  0  0  0
  189.7710  177.2610  146.4110 C   0  0  2  0  0  3  0  0  0  0  0  0
  189.8660  177.5160  147.9070 C   0  0  0  0  0  2  0  0  0  0  0  0
  188.5360  178.0050  148.4470 C   0  0  0  0  0  1  0  0  0  0  0  0
  192.4110  175.2740  146.7120 C   0  0  0  0  0  2  0  0  0  0  0  0
  191.6750  175.7930  145.7330 C   0  0  0  0  0  3  0  0  0  0  0  0
  192.6000  174.6360  137.0010 O   0  0  0  0  0  0  0  0  0  0  0  0
  193.9930  174.6150  136.7260 C   0  0  1  0  0  3  0  0  0  0  0  0
  194.2760  173.6390  135.6540 C   0  0  0  0  0  2  0  0  0  0  0  0
  194.2060  175.0190  135.3960 O   0  0  0  0  0  0  0  0  0  0  0  0
  1 17  2  0  0  0  0
  1  9  1  0  0  0  0
  2 23  1  0  0  0  0
  3  4  1  0  0  0  0
  4 18  1  0  0  0  0
  5 22  1  1  0  0  0
  5  6  1  0  0  0  0
  6 28  1  6  0  0  0
  6 24  1  0  0  0  0
  7 21  1  0  0  0  0
  8 11  2  0  0  0  0
  9 15  1  0  0  0  0
 10  3  1  0  0  0  0
 10 12  1  0  0  0  0
 11 12  1  0  0  0  0
 11  2  1  0  0  0  0
 12 19  2  0  0  0  0
 13 20  1  0  0  0  0
 14 16  1  0  0  0  0
 15  8  1  0  0  0  0
 15  7  2  0  0  0  0
 16  7  1  0  0  0  0
 17 14  1  0  0  0  0
 19 13  1  0  0  0  0
 19 18  1  0  0  0  0
 20 24  1  0  0  0  0
 21  2  2  0  0  0  0
 23 13  2  0  0  0  0
 23  5  1  0  0  0  0
 24 25  1  1  0  0  0
 25 26  1  0  0  0  0
 28 27  2  0  0  0  0
 29 17  1  0  0  0  0
 30 29  1  6  0  0  0
 31 30  1  0  0  0  0
 32 31  1  0  0  0  0
 32 30  1  0  0  0  0
M  END
>  <MODEL>
3

>  <REMARK>
 VINA RESULT:      -8.5      2.709      3.517
  Name = 
  4 active torsions:
  status: ('A' for Active; 'I' for Inactive)
    1  A    between atoms: C_1  and  O_10
    2  A    between atoms: C_7  and  C_22
    3  A    between atoms: O_10  and  C_24
    4  A    between atoms: C_11  and  C_32
                            x       y       z     vdW  Elec       q    Type
                         _______ _______ _______ _____ _____    ______ ____

>  <TORSDO>
F 4

$$$$
=
 OpenBabel10272413363D

 32 37  0  0  1  0  0  0  0  0999 V2000
  182.4600  178.4190  141.8610 N   0  0  0  0  0  0  0  0  0  0  0  0
  187.3010  178.1200  140.2420 C   0  0  0  0  0  0  0  0  0  0  0  0
  189.5830  178.0050  144.5510 N   0  0  0  0  0  2  0  0  0  0  0  0
  190.4930  176.9740  144.0670 C   0  0  0  0  0  2  0  0  0  0  0  0
  188.6410  177.8080  138.1030 C   0  0  2  0  0  3  0  0  0  0  0  0
  189.5400  176.6840  137.5550 C   0  0  1  0  0  3  0  0  0  0  0  0
  184.9440  178.7510  140.0980 C   0  0  0  0  0  0  0  0  0  0  0  0
  186.0070  178.4520  142.2670 C   0  0  0  0  0  3  0  0  0  0  0  0
  183.6470  179.1470  142.2970 C   0  0  0  0  0  2  0  0  0  0  0  0
  188.2800  177.7770  143.9320 C   0  0  0  0  0  2  0  0  0  0  0  0
  187.2250  178.1340  141.6530 C   0  0  0  0  0  0  0  0  0  0  0  0
  188.3660  177.8370  142.4230 C   0  0  0  0  0  0  0  0  0  0  0  0
  189.6460  177.4870  140.3800 C   0  0  0  0  0  0  0  0  0  0  0  0
  182.5320  179.5940  139.7480 C   0  0  0  0  0  2  0  0  0  0  0  0
  184.8660  178.7480  141.5180 C   0  0  0  0  0  0  0  0  0  0  0  0
  183.7900  178.9820  139.1500 C   0  0  0  0  0  2  0  0  0  0  0  0
  181.9140  178.6250  140.7020 C   0  0  0  0  0  0  0  0  0  0  0  0
  190.8210  177.2340  142.6000 C   0  0  0  0  0  2  0  0  0  0  0  0
  189.5780  177.4990  141.7840 C   0  0  0  0  0  0  0  0  0  0  0  0
  190.9220  177.1590  139.6650 C   0  0  0  0  0  2  0  0  0  0  0  0
  186.1600  178.4250  139.4900 C   0  0  0  0  0  3  0  0  0  0  0  0
  189.1550  179.1560  137.6310 C   0  0  0  0  0  1  0  0  0  0  0  0
  188.5140  177.7950  139.6080 C   0  0  0  0  0  0  0  0  0  0  0  0
  190.6340  176.1810  138.5250 C   0  0  2  0  0  3  0  0  0  0  0  0
  191.9090  175.8830  137.7540 C   0  0  0  0  0  2  0  0  0  0  0  0
  193.0950  176.5690  138.4050 C   0  0  0  0  0  1  0  0  0  0  0  0
  187.3620  175.6860  136.9770 C   0  0  0  0  0  2  0  0  0  0  0  0
  188.6790  175.5440  137.1050 C   0  0  0  0  0  3  0  0  0  0  0  0
  180.7740  177.9220  140.3110 O   0  0  0  0  0  0  0  0  0  0  0  0
  180.7800  176.5150  140.1150 C   0  0  1  0  0  3  0  0  0  0  0  0
  180.1690  176.1900  138.8090 C   0  0  0  0  0  2  0  0  0  0  0  0
  181.5630  176.2110  138.9870 O   0  0  0  0  0  0  0  0  0  0  0  0
  1  9  1  0  0  0  0
  2 11  1  0  0  0  0
  4  3  1  0  0  0  0
  5 22  1  1  0  0  0
  5 23  1  0  0  0  0
  6 28  1  1  0  0  0
  6  5  1  0  0  0  0
  6 24  1  0  0  0  0
  7 15  1  0  0  0  0
 10  3  1  0  0  0  0
 11  8  1  0  0  0  0
 11 12  2  0  0  0  0
 12 10  1  0  0  0  0
 13 19  2  0  0  0  0
 14 17  1  0  0  0  0
 15  8  2  0  0  0  0
 15  9  1  0  0  0  0
 16 14  1  0  0  0  0
 16  7  1  0  0  0  0
 17  1  2  0  0  0  0
 18  4  1  0  0  0  0
 19 12  1  0  0  0  0
 19 18  1  0  0  0  0
 20 13  1  0  0  0  0
 21  7  2  0  0  0  0
 21  2  1  0  0  0  0
 23  2  2  0  0  0  0
 23 13  1  0  0  0  0
 24 25  1  6  0  0  0
 24 20  1  0  0  0  0
 25 26  1  0  0  0  0
 27 28  2  0  0  0  0
 29 17  1  0  0  0  0
 30 29  1  6  0  0  0
 31 32  1  0  0  0  0
 31 30  1  0  0  0  0
 32 30  1  0  0  0  0
M  END
>  <MODEL>
4

>  <REMARK>
 VINA RESULT:      -7.7      3.191      6.049
  Name = 
  4 active torsions:
  status: ('A' for Active; 'I' for Inactive)
    1  A    between atoms: C_1  and  O_10
    2  A    between atoms: C_7  and  C_22
    3  A    between atoms: O_10  and  C_24
    4  A    between atoms: C_11  and  C_32
                            x       y       z     vdW  Elec       q    Type
                         _______ _______ _______ _____ _____    ______ ____

>  <TORSDO>
F 4

$$$$
=
 OpenBabel10272413363D

 32 37  0  0  1  0  0  0  0  0999 V2000
  191.0330  176.9930  144.0000 N   0  0  0  0  0  0  0  0  0  0  0  0
  189.5520  177.1220  139.1070 C   0  0  0  0  0  0  0  0  0  0  0  0
  193.8590  176.3720  136.9460 N   0  0  0  0  0  2  0  0  0  0  0  0
  193.2440  175.4650  135.9840 C   0  0  0  0  0  2  0  0  0  0  0  0
  187.4380  177.2100  137.6970 C   0  0  2  0  0  3  0  0  0  0  0  0
  186.7440  176.2220  136.7410 C   0  0  1  0  0  3  0  0  0  0  0  0
  189.4340  177.6910  141.4810 C   0  0  0  0  0  0  0  0  0  0  0  0
  191.5600  177.0740  140.4700 C   0  0  0  0  0  3  0  0  0  0  0  0
  191.6220  177.6770  142.8540 C   0  0  0  0  0  2  0  0  0  0  0  0
  193.1670  176.2070  138.2210 C   0  0  0  0  0  2  0  0  0  0  0  0
  190.9430  176.9000  139.2240 C   0  0  0  0  0  0  0  0  0  0  0  0
  191.6930  176.5180  138.0950 C   0  0  0  0  0  0  0  0  0  0  0  0
  189.6650  176.5510  136.7450 C   0  0  0  0  0  0  0  0  0  0  0  0
  189.1450  178.5020  143.9130 C   0  0  0  0  0  2  0  0  0  0  0  0
  190.8310  177.4520  141.6000 C   0  0  0  0  0  0  0  0  0  0  0  0
  188.4970  178.0390  142.6160 C   0  0  0  0  0  2  0  0  0  0  0  0
  189.9050  177.3700  144.5200 C   0  0  0  0  0  0  0  0  0  0  0  0
  191.8520  175.9740  135.6250 C   0  0  0  0  0  2  0  0  0  0  0  0
  191.0480  176.3290  136.8530 C   0  0  0  0  0  0  0  0  0  0  0  0
  188.9500  176.3870  135.4380 C   0  0  0  0  0  2  0  0  0  0  0  0
  188.8220  177.5100  140.2380 C   0  0  0  0  0  3  0  0  0  0  0  0
  187.2110  178.6340  137.2210 C   0  0  0  0  0  1  0  0  0  0  0  0
  188.9150  176.9460  137.8660 C   0  0  0  0  0  0  0  0  0  0  0  0
  187.6550  175.6020  135.6570 C   0  0  2  0  0  3  0  0  0  0  0  0
  186.8900  175.4770  134.3500 C   0  0  0  0  0  2  0  0  0  0  0  0
  185.6920  176.4060  134.3460 C   0  0  0  0  0  1  0  0  0  0  0  0
  186.3880  173.8630  137.3560 C   0  0  0  0  0  2  0  0  0  0  0  0
  186.0850  175.1450  137.5460 C   0  0  0  0  0  3  0  0  0  0  0  0
  189.3660  176.7040  145.6220 O   0  0  0  0  0  0  0  0  0  0  0  0
  188.4630  177.3330  146.5210 C   0  0  1  0  0  3  0  0  0  0  0  0
  188.5830  176.7210  147.8600 C   0  0  0  0  0  2  0  0  0  0  0  0
  189.1940  177.9500  147.5520 O   0  0  0  0  0  0  0  0  0  0  0  0
  1 17  2  0  0  0  0
  2 11  1  0  0  0  0
  2 21  1  0  0  0  0
  3 10  1  0  0  0  0
  4  3  1  0  0  0  0
  5 22  1  6  0  0  0
  5 23  1  0  0  0  0
  6 28  1  1  0  0  0
  6  5  1  0  0  0  0
  7 15  1  0  0  0  0
  7 16  1  0  0  0  0
  8 15  2  0  0  0  0
  9  1  1  0  0  0  0
 11  8  1  0  0  0  0
 12 10  1  0  0  0  0
 12 11  2  0  0  0  0
 13 19  2  0  0  0  0
 13 23  1  0  0  0  0
 14 17  1  0  0  0  0
 15  9  1  0  0  0  0
 16 14  1  0  0  0  0
 17 29  1  0  0  0  0
 18  4  1  0  0  0  0
 18 19  1  0  0  0  0
 19 12  1  0  0  0  0
 20 24  1  0  0  0  0
 20 13  1  0  0  0  0
 21  7  2  0  0  0  0
 23  2  2  0  0  0  0
 24 25  1  6  0  0  0
 24  6  1  0  0  0  0
 26 25  1  0  0  0  0
 27 28  2  0  0  0  0
 30 29  1  6  0  0  0
 30 32  1  0  0  0  0
 30 31  1  0  0  0  0
 32 31  1  0  0  0  0
M  END
>  <MODEL>
5

>  <REMARK>
 VINA RESULT:      -7.4      3.776      9.113
  Name = 
  4 active torsions:
  status: ('A' for Active; 'I' for Inactive)
    1  A    between atoms: C_1  and  O_10
    2  A    between atoms: C_7  and  C_22
    3  A    between atoms: O_10  and  C_24
    4  A    between atoms: C_11  and  C_32
                            x       y       z     vdW  Elec       q    Type
                         _______ _______ _______ _____ _____    ______ ____

>  <TORSDO>
F 4

$$$$
