=
 OpenBabel10272413433D

 30 32  0  0  1  0  0  0  0  0999 V2000
  184.8780  177.7590  138.0020 C   0  0  0  0  0  0  0  0  0  0  0  0
  183.7540  178.9730  139.9480 C   0  0  2  0  0  3  0  0  0  0  0  0
  184.3370  176.9020  136.9130 C   0  0  1  0  0  3  0  0  0  0  0  0
  186.1490  178.1660  138.0030 C   0  0  0  0  0  3  0  0  0  0  0  0
  187.6170  175.7750  135.6800 N   0  0  0  0  0  2  0  0  0  0  0  0
  186.7250  176.4460  136.3370 C   0  0  0  0  0  0  0  0  0  0  0  0
  187.0370  177.8450  136.8370 C   0  0  2  0  0  3  0  0  0  0  0  0
  185.3640  175.9590  136.4420 N   0  0  0  0  0  0  0  0  0  0  0  0
  182.4220  179.5630  139.4860 C   0  0  0  0  0  2  0  0  0  0  0  0
  184.7670  179.9280  139.8430 O   0  0  0  0  0  1  0  0  0  0  0  0
  180.6300  176.0730  139.5000 C   0  0  0  0  0  1  0  0  0  0  0  0
  181.2940  178.5190  139.3890 C   0  0  0  0  0  2  0  0  0  0  0  0
  184.0620  177.7720  139.1630 N   0  0  0  0  0  0  0  0  0  0  0  0
  183.1150  176.2280  137.5610 C   0  0  1  0  0  3  0  0  0  0  0  0
  181.7410  177.0880  139.7040 C   0  0  2  0  0  3  0  0  0  0  0  0
  183.0790  176.7020  139.0400 C   0  0  2  0  0  3  0  0  0  0  0  0
  185.0280  174.5890  134.4170 C   0  0  0  0  0  1  0  0  0  0  0  0
  184.9600  174.6420  135.9360 C   0  0  1  0  0  3  0  0  0  0  0  0
  185.7840  173.5340  136.5800 C   0  0  0  0  0  2  0  0  0  0  0  0
  185.0340  172.8990  137.7400 C   0  0  0  0  0  2  0  0  0  0  0  0
  184.1590  171.9190  137.2690 O   0  0  0  0  0  1  0  0  0  0  0  0
  188.4910  178.0060  137.2720 C   0  0  0  0  0  2  0  0  0  0  0  0
  189.8220  177.5960  139.3420 C   0  0  0  0  0  1  0  0  0  0  0  0
  188.5930  178.2740  138.7660 C   0  0  0  0  0  2  0  0  0  0  0  0
  181.8180  176.3880  136.7390 C   0  0  1  0  0  3  0  0  0  0  0  0
  181.4820  178.6760  136.1330 O   0  0  0  0  0  0  0  0  0  0  0  0
  181.8080  177.5230  135.7490 C   0  0  0  0  0  0  0  0  0  0  0  0
  182.0770  177.2960  134.3680 N   0  0  0  0  0  1  0  0  0  0  0  0
  181.4500  175.0930  136.0840 C   0  0  0  0  0  3  0  0  0  0  0  0
  181.4560  173.9530  136.7700 C   0  0  0  0  0  2  0  0  0  0  0  0
  1  4  2  0  0  0  0
  1 13  1  0  0  0  0
  2 10  1  6  0  0  0
  3 14  1  0  0  0  0
  3  1  1  1  0  0  0
  5  6  2  0  0  0  0
  6  8  1  0  0  0  0
  6  7  1  0  0  0  0
  7 22  1  1  0  0  0
  7  4  1  0  0  0  0
  8  3  1  0  0  0  0
  9  2  1  0  0  0  0
 12  9  1  0  0  0  0
 12 15  1  0  0  0  0
 13  2  1  0  0  0  0
 14 25  1  6  0  0  0
 14 16  1  0  0  0  0
 15 11  1  6  0  0  0
 16 13  1  6  0  0  0
 16 15  1  0  0  0  0
 18 17  1  6  0  0  0
 18  8  1  0  0  0  0
 18 19  1  0  0  0  0
 19 20  1  0  0  0  0
 21 20  1  0  0  0  0
 22 24  1  0  0  0  0
 24 23  1  0  0  0  0
 25 29  1  6  0  0  0
 27 26  2  0  0  0  0
 27 25  1  0  0  0  0
 28 27  1  0  0  0  0
 29 30  2  0  0  0  0
M  END
>  <MODEL>
1

>  <REMARK>
 VINA RESULT:      -4.7      0.000      0.000
  Name = 
  8 active torsions:
  status: ('A' for Active; 'I' for Inactive)
    1  A    between atoms: C_7  and  C_16
    2  A    between atoms: C_7  and  C_30
    3  A    between atoms: C_9  and  C_12
    4  A    between atoms: C_9  and  C_21
    5  A    between atoms: C_10  and  C_25
    6  A    between atoms: C_11  and  C_25
    7  A    between atoms: N_13  and  C_30
    8  A    between atoms: C_23  and  C_25
                            x       y       z     vdW  Elec       q    Type
                         _______ _______ _______ _____ _____    ______ ____

>  <TORSDO>
F 8

$$$$
=
 OpenBabel10272413433D

 30 32  0  0  1  0  0  0  0  0999 V2000
  186.1640  178.1540  139.4610 C   0  0  0  0  0  0  0  0  0  0  0  0
  188.6120  178.1700  138.7300 C   0  0  2  0  0  3  0  0  0  0  0  0
  184.9260  177.6650  138.7970 C   0  0  1  0  0  3  0  0  0  0  0  0
  186.1610  178.5530  140.7340 C   0  0  0  0  0  3  0  0  0  0  0  0
  182.6010  179.1340  141.2420 N   0  0  0  0  0  2  0  0  0  0  0  0
  183.7050  178.7360  140.6950 C   0  0  0  0  0  0  0  0  0  0  0  0
  184.9130  178.4170  141.5570 C   0  0  2  0  0  3  0  0  0  0  0  0
  183.7530  178.4070  139.2840 N   0  0  0  0  0  0  0  0  0  0  0  0
  188.9390  176.8690  137.9980 C   0  0  0  0  0  2  0  0  0  0  0  0
  188.9420  178.0590  140.0820 O   0  0  0  0  0  1  0  0  0  0  0  0
  187.0610  177.9850  134.7390 C   0  0  0  0  0  1  0  0  0  0  0  0
  188.4280  176.8430  136.5440 C   0  0  0  0  0  2  0  0  0  0  0  0
  187.1930  178.4990  138.5470 N   0  0  0  0  0  0  0  0  0  0  0  0
  185.2200  177.8660  137.3000 C   0  0  1  0  0  3  0  0  0  0  0  0
  187.6340  178.0900  136.1410 C   0  0  2  0  0  3  0  0  0  0  0  0
  186.6160  178.5420  137.2080 C   0  0  2  0  0  3  0  0  0  0  0  0
  181.4850  177.6500  138.6730 C   0  0  0  0  0  1  0  0  0  0  0  0
  182.6140  178.6300  138.3870 C   0  0  1  0  0  3  0  0  0  0  0  0
  182.1400  180.0770  138.4540 C   0  0  0  0  0  2  0  0  0  0  0  0
  180.6230  180.1550  138.4630 C   0  0  0  0  0  2  0  0  0  0  0  0
  180.1980  181.1880  139.2990 O   0  0  0  0  0  1  0  0  0  0  0  0
  185.0290  179.3310  142.7740 C   0  0  0  0  0  2  0  0  0  0  0  0
  183.5790  178.9440  144.7670 C   0  0  0  0  0  1  0  0  0  0  0  0
  184.8670  178.5490  144.0690 C   0  0  0  0  0  2  0  0  0  0  0  0
  184.9980  176.5940  136.4540 C   0  0  1  0  0  3  0  0  0  0  0  0
  186.0120  174.6200  137.3430 O   0  0  0  0  0  0  0  0  0  0  0  0
  184.9590  175.2980  137.2210 C   0  0  0  0  0  0  0  0  0  0  0  0
  183.7340  174.7850  137.7360 N   0  0  0  0  0  1  0  0  0  0  0  0
  183.7880  176.7470  135.5860 C   0  0  0  0  0  3  0  0  0  0  0  0
  183.7540  176.2290  134.3610 C   0  0  0  0  0  2  0  0  0  0  0  0
  1  4  2  0  0  0  0
  2 10  1  1  0  0  0
  3  8  1  0  0  0  0
  3  1  1  1  0  0  0
  4  7  1  0  0  0  0
  6  5  2  0  0  0  0
  6  7  1  0  0  0  0
  7 22  1  1  0  0  0
  8  6  1  0  0  0  0
  9  2  1  0  0  0  0
 12  9  1  0  0  0  0
 13  2  1  0  0  0  0
 13  1  1  0  0  0  0
 14 25  1  6  0  0  0
 14  3  1  0  0  0  0
 15 11  1  6  0  0  0
 15 12  1  0  0  0  0
 15 16  1  0  0  0  0
 16 14  1  0  0  0  0
 16 13  1  1  0  0  0
 18 19  1  0  0  0  0
 18 17  1  1  0  0  0
 18  8  1  0  0  0  0
 19 20  1  0  0  0  0
 20 21  1  0  0  0  0
 22 24  1  0  0  0  0
 24 23  1  0  0  0  0
 25 29  1  1  0  0  0
 25 27  1  0  0  0  0
 27 26  2  0  0  0  0
 27 28  1  0  0  0  0
 30 29  2  0  0  0  0
M  END
>  <MODEL>
2

>  <REMARK>
 VINA RESULT:      -4.7      2.375      5.907
  Name = 
  8 active torsions:
  status: ('A' for Active; 'I' for Inactive)
    1  A    between atoms: C_7  and  C_16
    2  A    between atoms: C_7  and  C_30
    3  A    between atoms: C_9  and  C_12
    4  A    between atoms: C_9  and  C_21
    5  A    between atoms: C_10  and  C_25
    6  A    between atoms: C_11  and  C_25
    7  A    between atoms: N_13  and  C_30
    8  A    between atoms: C_23  and  C_25
                            x       y       z     vdW  Elec       q    Type
                         _______ _______ _______ _____ _____    ______ ____

>  <TORSDO>
F 8

$$$$
=
 OpenBabel10272413433D

 30 32  0  0  1  0  0  0  0  0999 V2000
  185.5610  177.5580  137.8280 C   0  0  0  0  0  0  0  0  0  0  0  0
  185.0800  176.0990  135.7880 C   0  0  2  0  0  3  0  0  0  0  0  0
  186.8290  177.9540  138.4970 C   0  0  1  0  0  3  0  0  0  0  0  0
  184.3930  178.1060  138.1680 C   0  0  0  0  0  3  0  0  0  0  0  0
  185.2250  179.4760  141.4390 N   0  0  0  0  0  2  0  0  0  0  0  0
  185.3710  178.9470  140.2660 C   0  0  0  0  0  0  0  0  0  0  0  0
  184.3540  179.2200  139.1720 C   0  0  2  0  0  3  0  0  0  0  0  0
  186.5920  178.2460  139.9200 N   0  0  0  0  0  0  0  0  0  0  0  0
  186.1330  176.3580  134.7100 C   0  0  0  0  0  2  0  0  0  0  0  0
  183.9580  176.8990  135.5690 O   0  0  0  0  0  1  0  0  0  0  0  0
  188.8850  174.3040  136.6070 C   0  0  0  0  0  1  0  0  0  0  0  0
  187.4760  175.6560  134.9890 C   0  0  0  0  0  2  0  0  0  0  0  0
  185.6610  176.3350  137.1140 N   0  0  0  0  0  0  0  0  0  0  0  0
  187.7560  176.7510  138.2480 C   0  0  1  0  0  3  0  0  0  0  0  0
  187.5180  174.8970  136.3190 C   0  0  2  0  0  3  0  0  0  0  0  0
  186.9100  175.6870  137.4960 C   0  0  2  0  0  3  0  0  0  0  0  0
  188.5920  179.1770  141.0240 C   0  0  0  0  0  1  0  0  0  0  0  0
  187.6530  177.9860  140.8980 C   0  0  1  0  0  3  0  0  0  0  0  0
  187.0660  177.5810  142.2450 C   0  0  0  0  0  2  0  0  0  0  0  0
  188.1640  177.2760  143.2500 C   0  0  0  0  0  2  0  0  0  0  0  0
  188.6830  176.0000  143.0250 O   0  0  0  0  0  1  0  0  0  0  0  0
  182.9300  179.3460  139.7080 C   0  0  0  0  0  2  0  0  0  0  0  0
  181.2200  178.1740  141.0960 C   0  0  0  0  0  1  0  0  0  0  0  0
  182.3800  177.9930  140.1350 C   0  0  0  0  0  2  0  0  0  0  0  0
  189.1130  177.1400  137.6250 C   0  0  1  0  0  3  0  0  0  0  0  0
  189.2020  178.3290  135.5530 O   0  0  0  0  0  0  0  0  0  0  0  0
  189.1170  178.4040  136.8060 C   0  0  0  0  0  0  0  0  0  0  0  0
  189.1150  179.6850  137.4300 N   0  0  0  0  0  1  0  0  0  0  0  0
  190.1820  177.1690  138.6730 C   0  0  0  0  0  3  0  0  0  0  0  0
  191.0410  176.1620  138.8030 C   0  0  0  0  0  2  0  0  0  0  0  0
  1  4  2  0  0  0  0
  2 10  1  6  0  0  0
  2 13  1  0  0  0  0
  3  1  1  6  0  0  0
  3  8  1  0  0  0  0
  4  7  1  0  0  0  0
  6  5  2  0  0  0  0
  7 22  1  1  0  0  0
  7  6  1  0  0  0  0
  8  6  1  0  0  0  0
  8 18  1  0  0  0  0
  9 12  1  0  0  0  0
  9  2  1  0  0  0  0
 12 15  1  0  0  0  0
 13  1  1  0  0  0  0
 14 25  1  6  0  0  0
 14  3  1  0  0  0  0
 15 11  1  1  0  0  0
 15 16  1  0  0  0  0
 16 13  1  6  0  0  0
 16 14  1  0  0  0  0
 18 17  1  1  0  0  0
 18 19  1  0  0  0  0
 19 20  1  0  0  0  0
 21 20  1  0  0  0  0
 22 24  1  0  0  0  0
 24 23  1  0  0  0  0
 25 29  1  1  0  0  0
 26 27  2  0  0  0  0
 27 28  1  0  0  0  0
 27 25  1  0  0  0  0
 29 30  2  0  0  0  0
M  END
>  <MODEL>
3

>  <REMARK>
 VINA RESULT:      -4.2      2.682      6.706
  Name = 
  8 active torsions:
  status: ('A' for Active; 'I' for Inactive)
    1  A    between atoms: C_7  and  C_16
    2  A    between atoms: C_7  and  C_30
    3  A    between atoms: C_9  and  C_12
    4  A    between atoms: C_9  and  C_21
    5  A    between atoms: C_10  and  C_25
    6  A    between atoms: C_11  and  C_25
    7  A    between atoms: N_13  and  C_30
    8  A    between atoms: C_23  and  C_25
                            x       y       z     vdW  Elec       q    Type
                         _______ _______ _______ _____ _____    ______ ____

>  <TORSDO>
F 8

$$$$
=
 OpenBabel10272413433D

 30 32  0  0  1  0  0  0  0  0999 V2000
  183.1320  176.8430  138.7290 C   0  0  0  0  0  0  0  0  0  0  0  0
  181.0080  175.6060  139.4220 C   0  0  2  0  0  3  0  0  0  0  0  0
  183.8630  176.9260  137.4360 C   0  0  1  0  0  3  0  0  0  0  0  0
  183.4550  177.6210  139.7630 C   0  0  0  0  0  3  0  0  0  0  0  0
  186.8160  178.6460  138.8020 N   0  0  0  0  0  2  0  0  0  0  0  0
  185.6250  178.1450  138.7220 C   0  0  0  0  0  0  0  0  0  0  0  0
  184.5100  178.6770  139.6040 C   0  0  2  0  0  3  0  0  0  0  0  0
  185.2890  177.2070  137.6680 N   0  0  0  0  0  0  0  0  0  0  0  0
  179.9820  175.6700  138.2910 C   0  0  0  0  0  2  0  0  0  0  0  0
  180.7880  176.6410  140.3320 O   0  0  0  0  0  1  0  0  0  0  0  0
  181.8750  172.9900  136.1400 C   0  0  0  0  0  1  0  0  0  0  0  0
  180.2740  174.6790  137.1470 C   0  0  0  0  0  2  0  0  0  0  0  0
  182.3640  175.6570  138.8650 N   0  0  0  0  0  0  0  0  0  0  0  0
  183.5910  175.5590  136.7830 C   0  0  1  0  0  3  0  0  0  0  0  0
  181.5670  173.8790  137.3310 C   0  0  2  0  0  3  0  0  0  0  0  0
  182.7580  174.7360  137.8050 C   0  0  2  0  0  3  0  0  0  0  0  0
  186.7140  177.7410  135.7260 C   0  0  0  0  0  1  0  0  0  0  0  0
  186.2910  176.6830  136.7340 C   0  0  1  0  0  3  0  0  0  0  0  0
  187.4850  176.1040  137.4830 C   0  0  0  0  0  2  0  0  0  0  0  0
  188.1550  175.0030  136.6770 C   0  0  0  0  0  2  0  0  0  0  0  0
  189.3260  175.4810  136.0880 O   0  0  0  0  0  1  0  0  0  0  0  0
  185.0000  179.0910  140.9890 C   0  0  0  0  0  2  0  0  0  0  0  0
  184.2780  178.7890  143.3580 C   0  0  0  0  0  1  0  0  0  0  0  0
  184.5740  178.0840  142.0480 C   0  0  0  0  0  2  0  0  0  0  0  0
  183.0350  175.6650  135.3460 C   0  0  1  0  0  3  0  0  0  0  0  0
  183.2290  177.8300  134.3500 O   0  0  0  0  0  0  0  0  0  0  0  0
  182.4880  177.0130  134.9560 C   0  0  0  0  0  0  0  0  0  0  0  0
  181.1750  177.4110  135.3370 N   0  0  0  0  0  1  0  0  0  0  0  0
  184.0480  175.1810  134.3560 C   0  0  0  0  0  3  0  0  0  0  0  0
  184.8590  174.1670  134.6460 C   0  0  0  0  0  2  0  0  0  0  0  0
  1 13  1  0  0  0  0
  1  4  2  0  0  0  0
  2 10  1  1  0  0  0
  3  8  1  0  0  0  0
  3  1  1  1  0  0  0
  6  5  2  0  0  0  0
  6  7  1  0  0  0  0
  7  4  1  0  0  0  0
  7 22  1  1  0  0  0
  8  6  1  0  0  0  0
  9  2  1  0  0  0  0
 12 15  1  0  0  0  0
 12  9  1  0  0  0  0
 13  2  1  0  0  0  0
 14 25  1  6  0  0  0
 14  3  1  0  0  0  0
 14 16  1  0  0  0  0
 15 11  1  6  0  0  0
 15 16  1  0  0  0  0
 16 13  1  1  0  0  0
 18 17  1  6  0  0  0
 18 19  1  0  0  0  0
 18  8  1  0  0  0  0
 20 19  1  0  0  0  0
 21 20  1  0  0  0  0
 22 24  1  0  0  0  0
 24 23  1  0  0  0  0
 25 29  1  6  0  0  0
 26 27  2  0  0  0  0
 27 28  1  0  0  0  0
 27 25  1  0  0  0  0
 29 30  2  0  0  0  0
M  END
>  <MODEL>
4

>  <REMARK>
 VINA RESULT:      -4.2      2.325      3.801
  Name = 
  8 active torsions:
  status: ('A' for Active; 'I' for Inactive)
    1  A    between atoms: C_7  and  C_16
    2  A    between atoms: C_7  and  C_30
    3  A    between atoms: C_9  and  C_12
    4  A    between atoms: C_9  and  C_21
    5  A    between atoms: C_10  and  C_25
    6  A    between atoms: C_11  and  C_25
    7  A    between atoms: N_13  and  C_30
    8  A    between atoms: C_23  and  C_25
                            x       y       z     vdW  Elec       q    Type
                         _______ _______ _______ _____ _____    ______ ____

>  <TORSDO>
F 8

$$$$
=
 OpenBabel10272413433D

 30 32  0  0  1  0  0  0  0  0999 V2000
  188.0610  177.9710  141.5890 C   0  0  0  0  0  0  0  0  0  0  0  0
  189.9880  177.0810  140.1680 C   0  0  2  0  0  3  0  0  0  0  0  0
  187.9320  178.2290  143.0480 C   0  0  1  0  0  3  0  0  0  0  0  0
  187.1220  178.3630  140.7260 C   0  0  0  0  0  3  0  0  0  0  0  0
  184.3070  178.8590  142.9830 N   0  0  0  0  0  2  0  0  0  0  0  0
  185.5180  178.6630  142.5700 C   0  0  0  0  0  0  0  0  0  0  0  0
  185.9540  179.1730  141.2090 C   0  0  2  0  0  3  0  0  0  0  0  0
  186.5240  178.1280  143.4660 N   0  0  0  0  0  0  0  0  0  0  0  0
  191.3100  177.6560  140.6750 C   0  0  0  0  0  2  0  0  0  0  0  0
  189.4880  177.8650  139.1270 O   0  0  0  0  0  1  0  0  0  0  0  0
  191.3830  175.2890  143.8030 C   0  0  0  0  0  1  0  0  0  0  0  0
  191.8290  176.9590  141.9480 C   0  0  0  0  0  2  0  0  0  0  0  0
  189.0320  176.9840  141.2770 N   0  0  0  0  0  0  0  0  0  0  0  0
  188.8530  177.1720  143.6820 C   0  0  1  0  0  3  0  0  0  0  0  0
  190.8890  175.8810  142.4960 C   0  0  2  0  0  3  0  0  0  0  0  0
  189.4070  176.3090  142.5140 C   0  0  2  0  0  3  0  0  0  0  0  0
  186.8930  176.3420  145.1280 C   0  0  0  0  0  1  0  0  0  0  0  0
  186.2040  177.6630  144.8200 C   0  0  1  0  0  3  0  0  0  0  0  0
  186.5340  178.7310  145.8560 C   0  0  0  0  0  2  0  0  0  0  0  0
  185.4610  178.8000  146.9300 C   0  0  0  0  0  2  0  0  0  0  0  0
  184.1940  178.7880  146.3470 O   0  0  0  0  0  1  0  0  0  0  0  0
  184.8430  179.0960  140.1660 C   0  0  0  0  0  2  0  0  0  0  0  0
  184.1470  177.8900  138.0950 C   0  0  0  0  0  1  0  0  0  0  0  0
  185.3260  178.4140  138.8940 C   0  0  0  0  0  2  0  0  0  0  0  0
  189.8820  177.7650  144.6680 C   0  0  1  0  0  3  0  0  0  0  0  0
  190.1030  179.7450  143.3460 O   0  0  0  0  0  0  0  0  0  0  0  0
  190.6440  178.9650  144.1720 C   0  0  0  0  0  0  0  0  0  0  0  0
  192.0000  179.1840  144.5540 N   0  0  0  0  0  1  0  0  0  0  0  0
  189.2400  178.0380  145.9930 C   0  0  0  0  0  3  0  0  0  0  0  0
  189.6680  177.4350  147.0980 C   0  0  0  0  0  2  0  0  0  0  0  0
  2 10  1  6  0  0  0
  2  9  1  0  0  0  0
  2 13  1  0  0  0  0
  3  1  1  6  0  0  0
  3  8  1  0  0  0  0
  3 14  1  0  0  0  0
  4  7  1  0  0  0  0
  4  1  2  0  0  0  0
  6  5  2  0  0  0  0
  6  8  1  0  0  0  0
  7 22  1  6  0  0  0
  7  6  1  0  0  0  0
  8 18  1  0  0  0  0
  9 12  1  0  0  0  0
 12 15  1  0  0  0  0
 13  1  1  0  0  0  0
 14 25  1  6  0  0  0
 15 16  1  0  0  0  0
 15 11  1  1  0  0  0
 16 13  1  6  0  0  0
 16 14  1  0  0  0  0
 18 17  1  1  0  0  0
 18 19  1  0  0  0  0
 19 20  1  0  0  0  0
 21 20  1  0  0  0  0
 23 24  1  0  0  0  0
 24 22  1  0  0  0  0
 25 29  1  1  0  0  0
 26 27  2  0  0  0  0
 27 28  1  0  0  0  0
 27 25  1  0  0  0  0
 29 30  2  0  0  0  0
M  END
>  <MODEL>
5

>  <REMARK>
 VINA RESULT:      -3.9      4.988      9.208
  Name = 
  8 active torsions:
  status: ('A' for Active; 'I' for Inactive)
    1  A    between atoms: C_7  and  C_16
    2  A    between atoms: C_7  and  C_30
    3  A    between atoms: C_9  and  C_12
    4  A    between atoms: C_9  and  C_21
    5  A    between atoms: C_10  and  C_25
    6  A    between atoms: C_11  and  C_25
    7  A    between atoms: N_13  and  C_30
    8  A    between atoms: C_23  and  C_25
                            x       y       z     vdW  Elec       q    Type
                         _______ _______ _______ _____ _____    ______ ____

>  <TORSDO>
F 8

$$$$
=
 OpenBabel10272413433D

 30 32  0  0  1  0  0  0  0  0999 V2000
  183.8740  173.7150  136.9660 C   0  0  0  0  0  0  0  0  0  0  0  0
  181.7110  172.4340  136.5130 C   0  0  2  0  0  3  0  0  0  0  0  0
  184.1360  175.1190  137.3840 C   0  0  1  0  0  3  0  0  0  0  0  0
  184.8520  172.8090  136.9170 C   0  0  0  0  0  3  0  0  0  0  0  0
  187.7740  174.9830  136.8480 N   0  0  0  0  0  2  0  0  0  0  0  0
  186.5450  174.5970  136.9760 C   0  0  0  0  0  0  0  0  0  0  0  0
  186.2310  173.1700  137.3890 C   0  0  2  0  0  3  0  0  0  0  0  0
  185.4610  175.5570  136.9160 N   0  0  0  0  0  0  0  0  0  0  0  0
  180.6510  172.8380  137.5370 C   0  0  0  0  0  2  0  0  0  0  0  0
  182.3840  171.2890  136.9420 O   0  0  0  0  0  1  0  0  0  0  0  0
  179.9850  176.2910  135.7970 C   0  0  0  0  0  1  0  0  0  0  0  0
  179.9960  174.1990  137.2310 C   0  0  0  0  0  2  0  0  0  0  0  0
  182.6360  173.5520  136.2910 N   0  0  0  0  0  0  0  0  0  0  0  0
  182.9620  175.9000  136.7680 C   0  0  1  0  0  3  0  0  0  0  0  0
  180.5820  174.9120  136.0080 C   0  0  2  0  0  3  0  0  0  0  0  0
  182.1230  174.8750  135.9560 C   0  0  2  0  0  3  0  0  0  0  0  0
  186.4610  177.6820  137.6740 C   0  0  0  0  0  1  0  0  0  0  0  0
  185.6790  176.9690  136.5810 C   0  0  1  0  0  3  0  0  0  0  0  0
  186.3490  177.1080  135.2190 C   0  0  0  0  0  2  0  0  0  0  0  0
  187.4530  178.1520  135.2590 C   0  0  0  0  0  2  0  0  0  0  0  0
  188.6680  177.5830  134.8750 O   0  0  0  0  0  1  0  0  0  0  0  0
  187.2220  172.1590  136.8190 C   0  0  0  0  0  2  0  0  0  0  0  0
  187.1800  170.3350  135.1170 C   0  0  0  0  0  1  0  0  0  0  0  0
  186.8780  171.7980  135.3810 C   0  0  0  0  0  2  0  0  0  0  0  0
  182.2050  176.7770  137.7890 C   0  0  1  0  0  3  0  0  0  0  0  0
  181.7740  175.4840  139.7530 O   0  0  0  0  0  0  0  0  0  0  0  0
  182.4250  176.4290  139.2380 C   0  0  0  0  0  0  0  0  0  0  0  0
  183.2920  177.2080  140.0570 N   0  0  0  0  0  1  0  0  0  0  0  0
  182.4710  178.2270  137.5320 C   0  0  0  0  0  3  0  0  0  0  0  0
  181.4970  179.1290  137.6290 C   0  0  0  0  0  2  0  0  0  0  0  0
  2 10  1  1  0  0  0
  2  9  1  0  0  0  0
  3  1  1  6  0  0  0
  4  1  2  0  0  0  0
  4  7  1  0  0  0  0
  5  6  2  0  0  0  0
  6  7  1  0  0  0  0
  7 22  1  6  0  0  0
  8  6  1  0  0  0  0
  8  3  1  0  0  0  0
 12  9  1  0  0  0  0
 13  2  1  0  0  0  0
 13  1  1  0  0  0  0
 14  3  1  0  0  0  0
 14 25  1  1  0  0  0
 15 11  1  1  0  0  0
 15 12  1  0  0  0  0
 16 15  1  0  0  0  0
 16 13  1  1  0  0  0
 16 14  1  0  0  0  0
 18  8  1  0  0  0  0
 18 17  1  1  0  0  0
 19 20  1  0  0  0  0
 19 18  1  0  0  0  0
 21 20  1  0  0  0  0
 23 24  1  0  0  0  0
 24 22  1  0  0  0  0
 25 29  1  1  0  0  0
 25 27  1  0  0  0  0
 27 26  2  0  0  0  0
 27 28  1  0  0  0  0
 29 30  2  0  0  0  0
M  END
>  <MODEL>
6

>  <REMARK>
 VINA RESULT:      -3.9      2.259      5.189
  Name = 
  8 active torsions:
  status: ('A' for Active; 'I' for Inactive)
    1  A    between atoms: C_7  and  C_16
    2  A    between atoms: C_7  and  C_30
    3  A    between atoms: C_9  and  C_12
    4  A    between atoms: C_9  and  C_21
    5  A    between atoms: C_10  and  C_25
    6  A    between atoms: C_11  and  C_25
    7  A    between atoms: N_13  and  C_30
    8  A    between atoms: C_23  and  C_25
                            x       y       z     vdW  Elec       q    Type
                         _______ _______ _______ _____ _____    ______ ____

>  <TORSDO>
F 8

$$$$
=
 OpenBabel10272413433D

 30 32  0  0  1  0  0  0  0  0999 V2000
  184.0440  175.2320  136.6010 C   0  0  0  0  0  0  0  0  0  0  0  0
  181.7700  174.7470  135.5430 C   0  0  2  0  0  3  0  0  0  0  0  0
  184.5080  176.3000  137.5280 C   0  0  1  0  0  3  0  0  0  0  0  0
  184.8190  174.1910  136.2940 C   0  0  0  0  0  3  0  0  0  0  0  0
  188.0860  175.4820  137.2570 N   0  0  0  0  0  2  0  0  0  0  0  0
  186.8000  175.3850  137.1400 C   0  0  0  0  0  0  0  0  0  0  0  0
  186.1490  174.0240  136.9690 C   0  0  2  0  0  3  0  0  0  0  0  0
  185.9500  176.5390  137.3580 N   0  0  0  0  0  0  0  0  0  0  0  0
  180.6620  175.0180  136.5600 C   0  0  0  0  0  2  0  0  0  0  0  0
  182.1280  173.3980  135.5670 O   0  0  0  0  0  1  0  0  0  0  0  0
  180.9740  178.9100  136.1780 C   0  0  0  0  0  1  0  0  0  0  0  0
  180.3450  176.5160  136.7310 C   0  0  0  0  0  2  0  0  0  0  0  0
  182.9210  175.6150  135.8220 N   0  0  0  0  0  0  0  0  0  0  0  0
  183.6230  177.5040  137.1580 C   0  0  1  0  0  3  0  0  0  0  0  0
  181.2460  177.4420  135.9080 C   0  0  2  0  0  3  0  0  0  0  0  0
  182.7380  177.0540  135.9630 C   0  0  2  0  0  3  0  0  0  0  0  0
  187.0030  178.0360  139.0120 C   0  0  0  0  0  1  0  0  0  0  0  0
  186.4920  177.8820  137.5870 C   0  0  1  0  0  3  0  0  0  0  0  0
  187.5670  178.2190  136.5600 C   0  0  0  0  0  2  0  0  0  0  0  0
  188.8740  178.5930  137.2390 C   0  0  0  0  0  2  0  0  0  0  0  0
  188.9820  179.9800  137.3470 O   0  0  0  0  0  1  0  0  0  0  0  0
  186.9990  173.0620  136.1430 C   0  0  0  0  0  2  0  0  0  0  0  0
  186.7420  170.8100  135.1010 C   0  0  0  0  0  1  0  0  0  0  0  0
  186.1320  172.1910  135.2450 C   0  0  0  0  0  2  0  0  0  0  0  0
  182.9030  178.1310  138.3710 C   0  0  1  0  0  3  0  0  0  0  0  0
  182.1030  176.3100  139.6970 O   0  0  0  0  0  0  0  0  0  0  0  0
  182.8830  177.2940  139.6230 C   0  0  0  0  0  0  0  0  0  0  0  0
  183.6680  177.6510  140.7570 N   0  0  0  0  0  1  0  0  0  0  0  0
  183.4340  179.5040  138.6430 C   0  0  0  0  0  3  0  0  0  0  0  0
  182.6100  180.5290  138.8470 C   0  0  0  0  0  2  0  0  0  0  0  0
  2 10  1  1  0  0  0
  2 13  1  0  0  0  0
  2  9  1  0  0  0  0
  3  1  1  6  0  0  0
  4  1  2  0  0  0  0
  4  7  1  0  0  0  0
  6  5  2  0  0  0  0
  6  8  1  0  0  0  0
  7 22  1  6  0  0  0
  7  6  1  0  0  0  0
  8  3  1  0  0  0  0
  8 18  1  0  0  0  0
  9 12  1  0  0  0  0
 13  1  1  0  0  0  0
 14  3  1  0  0  0  0
 14 25  1  1  0  0  0
 15 16  1  0  0  0  0
 15 11  1  1  0  0  0
 15 12  1  0  0  0  0
 16 13  1  1  0  0  0
 16 14  1  0  0  0  0
 18 17  1  1  0  0  0
 19 20  1  0  0  0  0
 19 18  1  0  0  0  0
 20 21  1  0  0  0  0
 23 24  1  0  0  0  0
 24 22  1  0  0  0  0
 25 29  1  1  0  0  0
 25 27  1  0  0  0  0
 27 26  2  0  0  0  0
 27 28  1  0  0  0  0
 29 30  2  0  0  0  0
M  END
>  <MODEL>
7

>  <REMARK>
 VINA RESULT:      -3.7      1.880      5.171
  Name = 
  8 active torsions:
  status: ('A' for Active; 'I' for Inactive)
    1  A    between atoms: C_7  and  C_16
    2  A    between atoms: C_7  and  C_30
    3  A    between atoms: C_9  and  C_12
    4  A    between atoms: C_9  and  C_21
    5  A    between atoms: C_10  and  C_25
    6  A    between atoms: C_11  and  C_25
    7  A    between atoms: N_13  and  C_30
    8  A    between atoms: C_23  and  C_25
                            x       y       z     vdW  Elec       q    Type
                         _______ _______ _______ _____ _____    ______ ____

>  <TORSDO>
F 8

$$$$
=
 OpenBabel10272413433D

 30 32  0  0  1  0  0  0  0  0999 V2000
  190.2380  176.8850  139.0280 C   0  0  0  0  0  0  0  0  0  0  0  0
  192.6170  176.2720  138.3290 C   0  0  2  0  0  3  0  0  0  0  0  0
  188.9160  176.6460  138.3890 C   0  0  1  0  0  3  0  0  0  0  0  0
  190.3360  177.3740  140.2650 C   0  0  0  0  0  3  0  0  0  0  0  0
  187.0130  178.8080  140.6800 N   0  0  0  0  0  2  0  0  0  0  0  0
  187.9910  178.1210  140.1810 C   0  0  0  0  0  0  0  0  0  0  0  0
  189.0960  177.5990  141.0810 C   0  0  2  0  0  3  0  0  0  0  0  0
  187.9510  177.6780  138.8010 N   0  0  0  0  0  0  0  0  0  0  0  0
  192.6280  174.8770  137.7060 C   0  0  0  0  0  2  0  0  0  0  0  0
  192.9210  176.1960  139.6890 O   0  0  0  0  0  1  0  0  0  0  0  0
  191.0410  176.1350  134.3460 C   0  0  0  0  0  1  0  0  0  0  0  0
  192.1160  174.8540  136.2530 C   0  0  0  0  0  2  0  0  0  0  0  0
  191.3140  176.9060  138.1020 N   0  0  0  0  0  0  0  0  0  0  0  0
  189.2400  176.6530  136.8840 C   0  0  1  0  0  3  0  0  0  0  0  0
  191.6320  176.2140  135.7420 C   0  0  2  0  0  3  0  0  0  0  0  0
  190.7540  176.9760  136.7570 C   0  0  2  0  0  3  0  0  0  0  0  0
  187.4670  178.7510  136.6320 C   0  0  0  0  0  1  0  0  0  0  0  0
  186.8900  178.0870  137.8740 C   0  0  1  0  0  3  0  0  0  0  0  0
  185.9900  176.9090  137.5210 C   0  0  0  0  0  2  0  0  0  0  0  0
  184.5440  177.3520  137.3740 C   0  0  0  0  0  2  0  0  0  0  0  0
  184.1860  178.1880  138.4330 O   0  0  0  0  0  1  0  0  0  0  0  0
  189.4290  178.5560  142.2220 C   0  0  0  0  0  2  0  0  0  0  0  0
  191.1790  178.8520  143.9760 C   0  0  0  0  0  1  0  0  0  0  0  0
  190.2470  177.8620  143.3020 C   0  0  0  0  0  2  0  0  0  0  0  0
  188.7210  175.4040  136.1400 C   0  0  1  0  0  3  0  0  0  0  0  0
  189.5000  173.4820  137.3290 O   0  0  0  0  0  0  0  0  0  0  0  0
  188.5090  174.1790  136.9890 C   0  0  0  0  0  0  0  0  0  0  0  0
  187.1970  173.7460  137.3400 N   0  0  0  0  0  1  0  0  0  0  0  0
  187.4940  175.7370  135.3500 C   0  0  0  0  0  3  0  0  0  0  0  0
  187.0800  174.9480  134.3620 C   0  0  0  0  0  2  0  0  0  0  0  0
  1  4  2  0  0  0  0
  2 10  1  1  0  0  0
  3  8  1  0  0  0  0
  3  1  1  1  0  0  0
  4  7  1  0  0  0  0
  6  5  2  0  0  0  0
  6  7  1  0  0  0  0
  7 22  1  1  0  0  0
  8  6  1  0  0  0  0
  9  2  1  0  0  0  0
 12  9  1  0  0  0  0
 13  2  1  0  0  0  0
 13  1  1  0  0  0  0
 14 25  1  1  0  0  0
 14  3  1  0  0  0  0
 15 11  1  6  0  0  0
 15 12  1  0  0  0  0
 15 16  1  0  0  0  0
 16 14  1  0  0  0  0
 16 13  1  1  0  0  0
 18 17  1  6  0  0  0
 18  8  1  0  0  0  0
 19 18  1  0  0  0  0
 20 19  1  0  0  0  0
 20 21  1  0  0  0  0
 22 24  1  0  0  0  0
 24 23  1  0  0  0  0
 25 29  1  1  0  0  0
 25 27  1  0  0  0  0
 27 26  2  0  0  0  0
 27 28  1  0  0  0  0
 30 29  2  0  0  0  0
M  END
>  <MODEL>
8

>  <REMARK>
 VINA RESULT:      -3.6      3.407      7.143
  Name = 
  8 active torsions:
  status: ('A' for Active; 'I' for Inactive)
    1  A    between atoms: C_7  and  C_16
    2  A    between atoms: C_7  and  C_30
    3  A    between atoms: C_9  and  C_12
    4  A    between atoms: C_9  and  C_21
    5  A    between atoms: C_10  and  C_25
    6  A    between atoms: C_11  and  C_25
    7  A    between atoms: N_13  and  C_30
    8  A    between atoms: C_23  and  C_25
                            x       y       z     vdW  Elec       q    Type
                         _______ _______ _______ _____ _____    ______ ____

>  <TORSDO>
F 8

$$$$
=
 OpenBabel10272413433D

 30 32  0  0  1  0  0  0  0  0999 V2000
  188.0720  177.9530  141.7050 C   0  0  0  0  0  0  0  0  0  0  0  0
  190.0490  177.0370  140.3740 C   0  0  2  0  0  3  0  0  0  0  0  0
  187.9110  178.3010  143.1430 C   0  0  1  0  0  3  0  0  0  0  0  0
  187.1350  178.2570  140.8060 C   0  0  0  0  0  3  0  0  0  0  0  0
  184.2680  178.8040  142.9850 N   0  0  0  0  0  2  0  0  0  0  0  0
  185.4920  178.6220  142.6040 C   0  0  0  0  0  0  0  0  0  0  0  0
  185.9330  179.0560  141.2170 C   0  0  2  0  0  3  0  0  0  0  0  0
  186.5000  178.1810  143.5470 N   0  0  0  0  0  0  0  0  0  0  0  0
  191.3430  177.6880  140.8600 C   0  0  0  0  0  2  0  0  0  0  0  0
  189.5410  177.7340  139.2760 O   0  0  0  0  0  1  0  0  0  0  0  0
  191.4420  175.5340  144.1380 C   0  0  0  0  0  1  0  0  0  0  0  0
  191.8640  177.0940  142.1840 C   0  0  0  0  0  2  0  0  0  0  0  0
  189.0790  176.9810  141.4730 N   0  0  0  0  0  0  0  0  0  0  0  0
  188.8550  177.3190  143.8580 C   0  0  1  0  0  3  0  0  0  0  0  0
  190.9510  176.0230  142.7870 C   0  0  2  0  0  3  0  0  0  0  0  0
  189.4560  176.4010  142.7570 C   0  0  2  0  0  3  0  0  0  0  0  0
  186.6440  176.3800  145.2280 C   0  0  0  0  0  1  0  0  0  0  0  0
  186.1730  177.7950  144.9240 C   0  0  1  0  0  3  0  0  0  0  0  0
  186.7300  178.8040  145.9210 C   0  0  0  0  0  2  0  0  0  0  0  0
  185.8020  178.9630  147.1130 C   0  0  0  0  0  2  0  0  0  0  0  0
  184.4750  178.7860  146.7180 O   0  0  0  0  0  1  0  0  0  0  0  0
  184.8420  178.8740  140.1660 C   0  0  0  0  0  2  0  0  0  0  0  0
  184.3420  177.8090  137.9660 C   0  0  0  0  0  1  0  0  0  0  0  0
  185.4260  178.4130  138.8390 C   0  0  0  0  0  2  0  0  0  0  0  0
  189.8480  178.0100  144.8170 C   0  0  1  0  0  3  0  0  0  0  0  0
  189.4920  176.5370  146.6650 O   0  0  0  0  0  0  0  0  0  0  0  0
  190.3280  177.1730  145.9730 C   0  0  0  0  0  0  0  0  0  0  0  0
  191.7020  177.1610  146.3500 N   0  0  0  0  0  1  0  0  0  0  0  0
  190.9970  178.5910  144.0520 C   0  0  0  0  0  3  0  0  0  0  0  0
  191.2650  179.8930  144.1050 C   0  0  0  0  0  2  0  0  0  0  0  0
  2 10  1  6  0  0  0
  2  9  1  0  0  0  0
  2 13  1  0  0  0  0
  3  1  1  6  0  0  0
  3  8  1  0  0  0  0
  3 14  1  0  0  0  0
  4  7  1  0  0  0  0
  4  1  2  0  0  0  0
  6  5  2  0  0  0  0
  6  8  1  0  0  0  0
  7 22  1  6  0  0  0
  7  6  1  0  0  0  0
  8 18  1  0  0  0  0
  9 12  1  0  0  0  0
 12 15  1  0  0  0  0
 13  1  1  0  0  0  0
 14 25  1  6  0  0  0
 15 11  1  1  0  0  0
 16 13  1  6  0  0  0
 16 15  1  0  0  0  0
 16 14  1  0  0  0  0
 18 17  1  1  0  0  0
 18 19  1  0  0  0  0
 19 20  1  0  0  0  0
 21 20  1  0  0  0  0
 23 24  1  0  0  0  0
 24 22  1  0  0  0  0
 25 29  1  6  0  0  0
 25 27  1  0  0  0  0
 27 28  1  0  0  0  0
 27 26  2  0  0  0  0
 29 30  2  0  0  0  0
M  END
>  <MODEL>
9

>  <REMARK>
 VINA RESULT:      -3.6      5.149      9.470
  Name = 
  8 active torsions:
  status: ('A' for Active; 'I' for Inactive)
    1  A    between atoms: C_7  and  C_16
    2  A    between atoms: C_7  and  C_30
    3  A    between atoms: C_9  and  C_12
    4  A    between atoms: C_9  and  C_21
    5  A    between atoms: C_10  and  C_25
    6  A    between atoms: C_11  and  C_25
    7  A    between atoms: N_13  and  C_30
    8  A    between atoms: C_23  and  C_25
                            x       y       z     vdW  Elec       q    Type
                         _______ _______ _______ _____ _____    ______ ____

>  <TORSDO>
F 8

$$$$
