=
 OpenBabel10272400193D

 31 34  0  0  1  0  0  0  0  0999 V2000
  187.6640  177.7600  140.5040 C   0  0  1  0  0  3  0  0  0  0  0  0
  186.5250  178.5380  141.0040 N   0  0  0  0  0  0  0  0  0  0  0  0
  186.0660  178.4090  142.3620 C   0  0  0  0  0  0  0  0  0  0  0  0
  186.4020  177.3450  144.6310 C   0  0  0  0  0  3  0  0  0  0  0  0
  186.7820  177.6920  143.2480 C   0  0  0  0  0  3  0  0  0  0  0  0
  183.7730  179.0320  141.4040 C   0  0  0  0  0  2  0  0  0  0  0  0
  185.6000  178.0640  145.4140 C   0  0  0  0  0  3  0  0  0  0  0  0
  185.8090  179.3300  140.1540 O   0  0  0  0  0  0  0  0  0  0  0  0
  185.0490  179.3900  145.0140 C   0  0  0  0  0  2  0  0  0  0  0  0
  184.5250  178.7590  140.0920 C   0  0  0  0  0  2  0  0  0  0  0  0
  184.6750  178.8810  142.6010 C   0  0  0  0  0  0  0  0  0  0  0  0
  184.2140  179.2970  143.7820 C   0  0  0  0  0  3  0  0  0  0  0  0
  187.9830  178.0910  136.9690 N   0  0  0  0  0  0  0  0  0  0  0  0
  188.8610  179.0150  137.3890 C   0  0  0  0  0  3  0  0  0  0  0  0
  187.6640  177.7790  135.5890 C   0  0  0  0  0  1  0  0  0  0  0  0
  187.4270  177.5070  138.0120 N   0  0  0  0  0  0  0  0  0  0  0  0
  187.9930  178.0970  139.0800 C   0  0  0  0  0  0  0  0  0  0  0  0
  188.8920  179.0440  138.7370 N   0  0  0  0  0  0  0  0  0  0  0  0
  189.8030  177.0580  141.3300 C   0  0  0  0  0  3  0  0  0  0  0  0
  188.8140  177.8780  141.3750 N   0  0  0  0  0  0  0  0  0  0  0  0
  190.9670  177.2010  142.2640 C   0  0  1  0  0  3  0  0  0  0  0  0
  192.2010  177.4880  140.4500 C   0  0  0  0  0  1  0  0  0  0  0  0
  191.9270  178.0440  141.7000 O   0  0  0  0  0  0  0  0  0  0  0  0
  190.5230  177.7600  143.6140 C   0  0  0  0  0  2  0  0  0  0  0  0
  190.1040  177.6850  146.8210 C   0  0  2  0  0  3  0  0  0  0  0  0
  191.2760  176.7470  147.0590 C   0  0  2  0  0  3  0  0  0  0  0  0
  189.2520  177.8900  148.0620 C   0  0  0  0  0  1  0  0  0  0  0  0
  189.2920  177.0990  145.6940 C   0  0  0  0  0  2  0  0  0  0  0  0
  191.8490  176.2010  145.4220 S   0  0  0  0  0  0  0  0  0  0  0  0
  190.2700  176.6460  144.6220 C   0  0  2  0  0  3  0  0  0  0  0  0
  190.8810  175.6250  147.7930 O   0  0  0  0  0  1  0  0  0  0  0  0
  1  2  1  0  0  0  0
  1 20  1  1  0  0  0
  2  3  1  0  0  0  0
  3 11  1  0  0  0  0
  3  5  2  0  0  0  0
  4  7  2  0  0  0  0
  5  4  1  0  0  0  0
  6 11  1  0  0  0  0
  8  2  1  0  0  0  0
  9  7  1  0  0  0  0
 10  8  1  0  0  0  0
 10  6  1  0  0  0  0
 11 12  2  0  0  0  0
 12  9  1  0  0  0  0
 13 14  1  0  0  0  0
 13 16  1  0  0  0  0
 14 18  2  0  0  0  0
 15 13  1  0  0  0  0
 16 17  2  0  0  0  0
 17  1  1  0  0  0  0
 18 17  1  0  0  0  0
 19 20  2  0  0  0  0
 21 19  1  6  0  0  0
 21 24  1  0  0  0  0
 22 23  1  0  0  0  0
 23 21  1  0  0  0  0
 25 26  1  0  0  0  0
 25 27  1  1  0  0  0
 26 31  1  1  0  0  0
 28 25  1  0  0  0  0
 29 26  1  0  0  0  0
 30 24  1  6  0  0  0
 30 29  1  0  0  0  0
 30 28  1  0  0  0  0
M  END
>  <MODEL>
1

>  <REMARK>
 VINA RESULT:      -8.6      0.000      0.000
  Name = 
  7 active torsions:
  status: ('A' for Active; 'I' for Inactive)
    1  A    between atoms: C_3  and  C_9
    2  A    between atoms: C_3  and  C_22
    3  A    between atoms: N_4  and  C_12
    4  A    between atoms: C_9  and  C_15
    5  A    between atoms: C_9  and  O_23
    6  A    between atoms: C_12  and  N_20
    7  A    between atoms: C_12  and  C_27
                            x       y       z     vdW  Elec       q    Type
                         _______ _______ _______ _____ _____    ______ ____

>  <TORSDO>
F 7

$$$$
=
 OpenBabel10272400193D

 31 34  0  0  1  0  0  0  0  0999 V2000
  186.6910  177.7680  143.2300 C   0  0  1  0  0  3  0  0  0  0  0  0
  186.4980  178.3550  144.5610 N   0  0  0  0  0  0  0  0  0  0  0  0
  187.3360  177.9870  145.6720 C   0  0  0  0  0  0  0  0  0  0  0  0
  189.3130  176.6430  146.4940 C   0  0  0  0  0  3  0  0  0  0  0  0
  188.4230  177.2210  145.4690 C   0  0  0  0  0  3  0  0  0  0  0  0
  185.2800  178.5230  147.1040 C   0  0  0  0  0  2  0  0  0  0  0  0
  189.5400  177.1620  147.7000 C   0  0  0  0  0  3  0  0  0  0  0  0
  185.4450  179.1900  144.7970 O   0  0  0  0  0  0  0  0  0  0  0  0
  188.9840  178.4730  148.1380 C   0  0  0  0  0  2  0  0  0  0  0  0
  184.6210  178.5150  145.7150 C   0  0  0  0  0  2  0  0  0  0  0  0
  186.7650  178.2860  147.0140 C   0  0  0  0  0  0  0  0  0  0  0  0
  187.4930  178.4810  148.1150 C   0  0  0  0  0  3  0  0  0  0  0  0
  183.7930  178.5060  141.2910 N   0  0  0  0  0  0  0  0  0  0  0  0
  184.7230  179.2160  140.6330 C   0  0  0  0  0  3  0  0  0  0  0  0
  182.3820  178.4340  140.9610 C   0  0  0  0  0  1  0  0  0  0  0  0
  184.3520  177.8860  142.3100 N   0  0  0  0  0  0  0  0  0  0  0  0
  185.6510  178.2330  142.2550 C   0  0  0  0  0  0  0  0  0  0  0  0
  185.9250  179.0620  141.2250 N   0  0  0  0  0  0  0  0  0  0  0  0
  188.7380  177.0500  142.2080 C   0  0  0  0  0  3  0  0  0  0  0  0
  188.0360  177.9860  142.7420 N   0  0  0  0  0  0  0  0  0  0  0  0
  190.1360  177.3100  141.7330 C   0  0  1  0  0  3  0  0  0  0  0  0
  191.5590  177.9830  143.2890 C   0  0  0  0  0  1  0  0  0  0  0  0
  191.0520  176.8370  142.6740 O   0  0  0  0  0  0  0  0  0  0  0  0
  190.3930  176.6400  140.3860 C   0  0  0  0  0  2  0  0  0  0  0  0
  188.1690  177.3910  138.1590 C   0  0  2  0  0  3  0  0  0  0  0  0
  189.0880  177.0920  136.9870 C   0  0  2  0  0  3  0  0  0  0  0  0
  186.8770  178.0710  137.7380 C   0  0  0  0  0  1  0  0  0  0  0  0
  188.9470  178.2510  139.1220 C   0  0  0  0  0  2  0  0  0  0  0  0
  190.7410  176.7930  137.6820 S   0  0  0  0  0  0  0  0  0  0  0  0
  190.3370  177.6470  139.2430 C   0  0  2  0  0  3  0  0  0  0  0  0
  189.1580  178.1810  136.1130 O   0  0  0  0  0  1  0  0  0  0  0  0
  1 20  1  6  0  0  0
  1  2  1  0  0  0  0
  2  8  1  0  0  0  0
  2  3  1  0  0  0  0
  3 11  1  0  0  0  0
  4  7  2  0  0  0  0
  5  3  2  0  0  0  0
  5  4  1  0  0  0  0
  7  9  1  0  0  0  0
  8 10  1  0  0  0  0
 10  6  1  0  0  0  0
 11  6  1  0  0  0  0
 11 12  2  0  0  0  0
 12  9  1  0  0  0  0
 13 16  1  0  0  0  0
 14 18  2  0  0  0  0
 14 13  1  0  0  0  0
 15 13  1  0  0  0  0
 17 16  2  0  0  0  0
 17  1  1  0  0  0  0
 18 17  1  0  0  0  0
 19 20  2  0  0  0  0
 21 24  1  6  0  0  0
 21 19  1  0  0  0  0
 21 23  1  0  0  0  0
 23 22  1  0  0  0  0
 25 27  1  6  0  0  0
 25 28  1  0  0  0  0
 26 31  1  6  0  0  0
 26 29  1  0  0  0  0
 26 25  1  0  0  0  0
 28 30  1  0  0  0  0
 29 30  1  0  0  0  0
 30 24  1  1  0  0  0
M  END
>  <MODEL>
2

>  <REMARK>
 VINA RESULT:      -8.6      2.625      5.772
  Name = 
  7 active torsions:
  status: ('A' for Active; 'I' for Inactive)
    1  A    between atoms: C_3  and  C_9
    2  A    between atoms: C_3  and  C_22
    3  A    between atoms: N_4  and  C_12
    4  A    between atoms: C_9  and  C_15
    5  A    between atoms: C_9  and  O_23
    6  A    between atoms: C_12  and  N_20
    7  A    between atoms: C_12  and  C_27
                            x       y       z     vdW  Elec       q    Type
                         _______ _______ _______ _____ _____    ______ ____

>  <TORSDO>
F 7

$$$$
=
 OpenBabel10272400193D

 31 34  0  0  1  0  0  0  0  0999 V2000
  185.7880  178.1170  142.1930 C   0  0  1  0  0  3  0  0  0  0  0  0
  185.3800  178.7040  143.4740 N   0  0  0  0  0  0  0  0  0  0  0  0
  185.9970  178.3060  144.7130 C   0  0  0  0  0  0  0  0  0  0  0  0
  187.7570  176.8990  145.8590 C   0  0  0  0  0  3  0  0  0  0  0  0
  187.0800  177.5080  144.6980 C   0  0  0  0  0  3  0  0  0  0  0  0
  183.7370  178.8990  145.7640 C   0  0  0  0  0  2  0  0  0  0  0  0
  187.7820  177.4060  147.0900 C   0  0  0  0  0  3  0  0  0  0  0  0
  184.3270  179.5700  143.5280 O   0  0  0  0  0  0  0  0  0  0  0  0
  187.1960  178.7320  147.4350 C   0  0  0  0  0  2  0  0  0  0  0  0
  183.3340  178.9160  144.2800 C   0  0  0  0  0  2  0  0  0  0  0  0
  185.2070  178.6170  145.9350 C   0  0  0  0  0  0  0  0  0  0  0  0
  185.7330  178.7850  147.1490 C   0  0  0  0  0  3  0  0  0  0  0  0
  183.1780  178.4980  139.7960 N   0  0  0  0  0  0  0  0  0  0  0  0
  184.0130  179.4770  139.4160 C   0  0  0  0  0  3  0  0  0  0  0  0
  181.9030  178.1770  139.1830 C   0  0  0  0  0  1  0  0  0  0  0  0
  183.6830  177.8690  140.8380 N   0  0  0  0  0  0  0  0  0  0  0  0
  184.8530  178.4880  141.0820 C   0  0  0  0  0  0  0  0  0  0  0  0
  185.0960  179.4980  140.2200 N   0  0  0  0  0  0  0  0  0  0  0  0
  188.0270  177.5300  141.5650 C   0  0  0  0  0  3  0  0  0  0  0  0
  187.1650  178.4320  141.8780 N   0  0  0  0  0  0  0  0  0  0  0  0
  189.4500  177.8940  141.2650 C   0  0  1  0  0  3  0  0  0  0  0  0
  190.2390  176.4610  142.7550 C   0  0  0  0  0  1  0  0  0  0  0  0
  190.2150  177.8170  142.4310 O   0  0  0  0  0  0  0  0  0  0  0  0
  190.0410  176.9710  140.2020 C   0  0  0  0  0  2  0  0  0  0  0  0
  188.1290  177.6520  137.6830 C   0  0  2  0  0  3  0  0  0  0  0  0
  189.0190  176.9380  136.6790 C   0  0  2  0  0  3  0  0  0  0  0  0
  187.0300  178.4660  137.0220 C   0  0  0  0  0  1  0  0  0  0  0  0
  189.0250  178.5280  138.5220 C   0  0  0  0  0  2  0  0  0  0  0  0
  190.5380  176.4760  137.5630 S   0  0  0  0  0  0  0  0  0  0  0  0
  190.2500  177.7030  138.8820 C   0  0  2  0  0  3  0  0  0  0  0  0
  189.3560  177.7810  135.6170 O   0  0  0  0  0  1  0  0  0  0  0  0
  1 20  1  6  0  0  0
  1  2  1  0  0  0  0
  2  8  1  0  0  0  0
  2  3  1  0  0  0  0
  3 11  1  0  0  0  0
  4  7  2  0  0  0  0
  5  3  2  0  0  0  0
  5  4  1  0  0  0  0
  6 11  1  0  0  0  0
  7  9  1  0  0  0  0
  8 10  1  0  0  0  0
 10  6  1  0  0  0  0
 11 12  2  0  0  0  0
 12  9  1  0  0  0  0
 13 16  1  0  0  0  0
 14 13  1  0  0  0  0
 14 18  2  0  0  0  0
 15 13  1  0  0  0  0
 16 17  2  0  0  0  0
 17  1  1  0  0  0  0
 18 17  1  0  0  0  0
 19 20  2  0  0  0  0
 21 24  1  6  0  0  0
 21 19  1  0  0  0  0
 21 23  1  0  0  0  0
 23 22  1  0  0  0  0
 25 27  1  6  0  0  0
 25 28  1  0  0  0  0
 26 31  1  6  0  0  0
 26 29  1  0  0  0  0
 26 25  1  0  0  0  0
 28 30  1  0  0  0  0
 29 30  1  0  0  0  0
 30 24  1  1  0  0  0
M  END
>  <MODEL>
3

>  <REMARK>
 VINA RESULT:      -8.4      2.682      5.536
  Name = 
  7 active torsions:
  status: ('A' for Active; 'I' for Inactive)
    1  A    between atoms: C_3  and  C_9
    2  A    between atoms: C_3  and  C_22
    3  A    between atoms: N_4  and  C_12
    4  A    between atoms: C_9  and  C_15
    5  A    between atoms: C_9  and  O_23
    6  A    between atoms: C_12  and  N_20
    7  A    between atoms: C_12  and  C_27
                            x       y       z     vdW  Elec       q    Type
                         _______ _______ _______ _____ _____    ______ ____

>  <TORSDO>
F 7

$$$$
=
 OpenBabel10272400193D

 31 34  0  0  1  0  0  0  0  0999 V2000
  186.5170  177.8560  143.1120 C   0  0  1  0  0  3  0  0  0  0  0  0
  186.3160  178.4160  144.4530 N   0  0  0  0  0  0  0  0  0  0  0  0
  187.1550  178.0340  145.5590 C   0  0  0  0  0  0  0  0  0  0  0  0
  189.1410  176.6900  146.3600 C   0  0  0  0  0  3  0  0  0  0  0  0
  188.2490  177.2800  145.3440 C   0  0  0  0  0  3  0  0  0  0  0  0
  185.0910  178.5260  146.9960 C   0  0  0  0  0  2  0  0  0  0  0  0
  189.3600  177.1880  147.5750 C   0  0  0  0  0  3  0  0  0  0  0  0
  185.2560  179.2380  144.7020 O   0  0  0  0  0  0  0  0  0  0  0  0
  188.7930  178.4860  148.0370 C   0  0  0  0  0  2  0  0  0  0  0  0
  184.4350  178.5390  145.6060 C   0  0  0  0  0  2  0  0  0  0  0  0
  186.5780  178.3020  146.9050 C   0  0  0  0  0  0  0  0  0  0  0  0
  187.3020  178.4820  148.0110 C   0  0  0  0  0  3  0  0  0  0  0  0
  184.4010  179.0670  140.5110 N   0  0  0  0  0  0  0  0  0  0  0  0
  183.5050  178.4490  141.2970 C   0  0  0  0  0  3  0  0  0  0  0  0
  184.1160  179.7470  139.2620 C   0  0  0  0  0  1  0  0  0  0  0  0
  185.6030  178.9490  141.0380 N   0  0  0  0  0  0  0  0  0  0  0  0
  185.4170  178.2460  142.1700 C   0  0  0  0  0  0  0  0  0  0  0  0
  184.1240  177.9130  142.3690 N   0  0  0  0  0  0  0  0  0  0  0  0
  188.5680  177.3200  141.9900 C   0  0  0  0  0  3  0  0  0  0  0  0
  187.8270  178.1830  142.5890 N   0  0  0  0  0  0  0  0  0  0  0  0
  189.9280  177.6910  141.4810 C   0  0  1  0  0  3  0  0  0  0  0  0
  191.0720  176.5590  143.0000 C   0  0  0  0  0  1  0  0  0  0  0  0
  190.8070  177.8540  142.5530 O   0  0  0  0  0  0  0  0  0  0  0  0
  190.4690  176.6260  140.5310 C   0  0  0  0  0  2  0  0  0  0  0  0
  191.9310  175.4320  137.9030 C   0  0  2  0  0  3  0  0  0  0  0  0
  193.2710  176.0710  138.2280 C   0  0  2  0  0  3  0  0  0  0  0  0
  191.8890  174.8270  136.5100 C   0  0  0  0  0  1  0  0  0  0  0  0
  190.8810  176.5040  138.0620 C   0  0  0  0  0  2  0  0  0  0  0  0
  192.9930  177.1740  139.6460 S   0  0  0  0  0  0  0  0  0  0  0  0
  191.1950  177.2530  139.3470 C   0  0  2  0  0  3  0  0  0  0  0  0
  193.7400  176.8300  137.1530 O   0  0  0  0  0  1  0  0  0  0  0  0
  1 20  1  6  0  0  0
  1  2  1  0  0  0  0
  2  8  1  0  0  0  0
  2  3  1  0  0  0  0
  3 11  1  0  0  0  0
  4  7  2  0  0  0  0
  5  3  2  0  0  0  0
  5  4  1  0  0  0  0
  7  9  1  0  0  0  0
  8 10  1  0  0  0  0
 10  6  1  0  0  0  0
 11  6  1  0  0  0  0
 11 12  2  0  0  0  0
 12  9  1  0  0  0  0
 13 16  1  0  0  0  0
 13 14  1  0  0  0  0
 14 18  2  0  0  0  0
 15 13  1  0  0  0  0
 16 17  2  0  0  0  0
 17 18  1  0  0  0  0
 17  1  1  0  0  0  0
 19 20  2  0  0  0  0
 21 24  1  6  0  0  0
 21 19  1  0  0  0  0
 21 23  1  0  0  0  0
 23 22  1  0  0  0  0
 25 27  1  6  0  0  0
 25 28  1  0  0  0  0
 25 26  1  0  0  0  0
 26 31  1  6  0  0  0
 26 29  1  0  0  0  0
 28 30  1  0  0  0  0
 30 29  1  0  0  0  0
 30 24  1  1  0  0  0
M  END
>  <MODEL>
4

>  <REMARK>
 VINA RESULT:      -8.2      2.655      5.661
  Name = 
  7 active torsions:
  status: ('A' for Active; 'I' for Inactive)
    1  A    between atoms: C_3  and  C_9
    2  A    between atoms: C_3  and  C_22
    3  A    between atoms: N_4  and  C_12
    4  A    between atoms: C_9  and  C_15
    5  A    between atoms: C_9  and  O_23
    6  A    between atoms: C_12  and  N_20
    7  A    between atoms: C_12  and  C_27
                            x       y       z     vdW  Elec       q    Type
                         _______ _______ _______ _____ _____    ______ ____

>  <TORSDO>
F 7

$$$$
=
 OpenBabel10272400193D

 31 34  0  0  1  0  0  0  0  0999 V2000
  189.1970  177.5450  142.8950 C   0  0  1  0  0  3  0  0  0  0  0  0
  187.8580  177.4440  143.4880 N   0  0  0  0  0  0  0  0  0  0  0  0
  186.7040  178.0070  142.8360 C   0  0  0  0  0  0  0  0  0  0  0  0
  185.7760  179.2130  140.8170 C   0  0  0  0  0  3  0  0  0  0  0  0
  186.8080  178.4900  141.5840 C   0  0  0  0  0  3  0  0  0  0  0  0
  185.7800  178.2770  145.2100 C   0  0  0  0  0  2  0  0  0  0  0  0
  184.4610  179.0710  140.9700 C   0  0  0  0  0  3  0  0  0  0  0  0
  187.6960  176.9020  144.7290 O   0  0  0  0  0  0  0  0  0  0  0  0
  183.8530  178.0680  141.8890 C   0  0  0  0  0  2  0  0  0  0  0  0
  187.2440  177.9520  145.5480 C   0  0  0  0  0  2  0  0  0  0  0  0
  185.5330  178.2380  143.7250 C   0  0  0  0  0  0  0  0  0  0  0  0
  184.2680  178.2880  143.3050 C   0  0  0  0  0  3  0  0  0  0  0  0
  191.4680  176.2750  145.3310 N   0  0  0  0  0  0  0  0  0  0  0  0
  191.7280  175.4620  144.2960 C   0  0  0  0  0  3  0  0  0  0  0  0
  192.0930  176.2210  146.6390 C   0  0  0  0  0  1  0  0  0  0  0  0
  190.5310  177.1370  144.9880 N   0  0  0  0  0  0  0  0  0  0  0  0
  190.2290  176.8290  143.7130 C   0  0  0  0  0  0  0  0  0  0  0  0
  190.9510  175.7900  143.2430 N   0  0  0  0  0  0  0  0  0  0  0  0
  190.0600  177.5450  140.6570 C   0  0  0  0  0  3  0  0  0  0  0  0
  189.2000  177.1170  141.5120 N   0  0  0  0  0  0  0  0  0  0  0  0
  190.0180  177.0940  139.2290 C   0  0  1  0  0  3  0  0  0  0  0  0
  191.8870  176.2960  138.3520 C   0  0  0  0  0  1  0  0  0  0  0  0
  190.7580  175.9190  139.0800 O   0  0  0  0  0  0  0  0  0  0  0  0
  188.5820  176.8570  138.7690 C   0  0  0  0  0  2  0  0  0  0  0  0
  186.2390  176.9650  136.5400 C   0  0  2  0  0  3  0  0  0  0  0  0
  187.2030  177.1720  135.3840 C   0  0  2  0  0  3  0  0  0  0  0  0
  184.7860  177.1530  136.1370 C   0  0  0  0  0  1  0  0  0  0  0  0
  186.6330  177.9380  137.6220 C   0  0  0  0  0  2  0  0  0  0  0  0
  188.8460  177.4390  136.1140 S   0  0  0  0  0  0  0  0  0  0  0  0
  188.1480  177.8920  137.7380 C   0  0  2  0  0  3  0  0  0  0  0  0
  186.8550  178.3000  134.6350 O   0  0  0  0  0  1  0  0  0  0  0  0
  1 20  1  6  0  0  0
  1  2  1  0  0  0  0
  1 17  1  0  0  0  0
  2  8  1  0  0  0  0
  3  2  1  0  0  0  0
  3 11  1  0  0  0  0
  4  7  2  0  0  0  0
  4  5  1  0  0  0  0
  5  3  2  0  0  0  0
  6 10  1  0  0  0  0
  7  9  1  0  0  0  0
  8 10  1  0  0  0  0
  9 12  1  0  0  0  0
 11  6  1  0  0  0  0
 12 11  2  0  0  0  0
 13 15  1  0  0  0  0
 14 13  1  0  0  0  0
 16 13  1  0  0  0  0
 17 16  2  0  0  0  0
 18 17  1  0  0  0  0
 18 14  2  0  0  0  0
 19 20  2  0  0  0  0
 21 24  1  1  0  0  0
 21 19  1  0  0  0  0
 22 23  1  0  0  0  0
 23 21  1  0  0  0  0
 25 27  1  6  0  0  0
 25 28  1  0  0  0  0
 26 31  1  1  0  0  0
 26 29  1  0  0  0  0
 26 25  1  0  0  0  0
 28 30  1  0  0  0  0
 29 30  1  0  0  0  0
 30 24  1  1  0  0  0
M  END
>  <MODEL>
5

>  <REMARK>
 VINA RESULT:      -7.9      2.979      6.958
  Name = 
  7 active torsions:
  status: ('A' for Active; 'I' for Inactive)
    1  A    between atoms: C_3  and  C_9
    2  A    between atoms: C_3  and  C_22
    3  A    between atoms: N_4  and  C_12
    4  A    between atoms: C_9  and  C_15
    5  A    between atoms: C_9  and  O_23
    6  A    between atoms: C_12  and  N_20
    7  A    between atoms: C_12  and  C_27
                            x       y       z     vdW  Elec       q    Type
                         _______ _______ _______ _____ _____    ______ ____

>  <TORSDO>
F 7

$$$$
=
 OpenBabel10272400193D

 31 34  0  0  1  0  0  0  0  0999 V2000
  189.3050  176.5150  139.5170 C   0  0  1  0  0  3  0  0  0  0  0  0
  188.4740  177.3570  138.6480 N   0  0  0  0  0  0  0  0  0  0  0  0
  187.6710  176.7870  137.5970 C   0  0  0  0  0  0  0  0  0  0  0  0
  186.8690  174.6950  136.4270 C   0  0  0  0  0  3  0  0  0  0  0  0
  187.5370  175.4520  137.5030 C   0  0  0  0  0  3  0  0  0  0  0  0
  188.0280  179.0340  136.4200 C   0  0  0  0  0  2  0  0  0  0  0  0
  185.8660  175.1460  135.6760 C   0  0  0  0  0  3  0  0  0  0  0  0
  188.5290  178.7160  138.7530 O   0  0  0  0  0  0  0  0  0  0  0  0
  185.2130  176.4660  135.8980 C   0  0  0  0  0  2  0  0  0  0  0  0
  189.0740  179.1710  137.5380 C   0  0  0  0  0  2  0  0  0  0  0  0
  187.2590  177.7450  136.5350 C   0  0  0  0  0  0  0  0  0  0  0  0
  186.1800  177.5940  135.7640 C   0  0  0  0  0  3  0  0  0  0  0  0
  192.2180  175.2420  137.9060 N   0  0  0  0  0  0  0  0  0  0  0  0
  192.6430  176.4620  138.2660 C   0  0  0  0  0  3  0  0  0  0  0  0
  192.9880  174.2480  137.1810 C   0  0  0  0  0  1  0  0  0  0  0  0
  190.9700  175.0780  138.2960 N   0  0  0  0  0  0  0  0  0  0  0  0
  190.6460  176.2310  138.9090 C   0  0  0  0  0  0  0  0  0  0  0  0
  191.6600  177.1220  138.9120 N   0  0  0  0  0  0  0  0  0  0  0  0
  189.8130  176.3780  141.8570 C   0  0  0  0  0  3  0  0  0  0  0  0
  189.4140  177.0710  140.8490 N   0  0  0  0  0  0  0  0  0  0  0  0
  189.8930  176.9840  143.2260 C   0  0  1  0  0  3  0  0  0  0  0  0
  191.4130  178.5630  143.5330 C   0  0  0  0  0  1  0  0  0  0  0  0
  190.0940  178.3620  143.1240 O   0  0  0  0  0  0  0  0  0  0  0  0
  188.6210  176.7080  144.0240 C   0  0  0  0  0  2  0  0  0  0  0  0
  187.5970  177.4430  147.0040 C   0  0  2  0  0  3  0  0  0  0  0  0
  186.2190  177.8810  146.5370 C   0  0  2  0  0  3  0  0  0  0  0  0
  187.8620  177.7810  148.4620 C   0  0  0  0  0  1  0  0  0  0  0  0
  188.6030  178.1120  146.1000 C   0  0  0  0  0  2  0  0  0  0  0  0
  186.2640  177.8980  144.7200 S   0  0  0  0  0  0  0  0  0  0  0  0
  188.0870  177.9770  144.6770 C   0  0  2  0  0  3  0  0  0  0  0  0
  185.9200  179.1680  146.9920 O   0  0  0  0  0  1  0  0  0  0  0  0
  1 20  1  1  0  0  0
  2  8  1  0  0  0  0
  2  1  1  0  0  0  0
  3  2  1  0  0  0  0
  4  5  1  0  0  0  0
  5  3  2  0  0  0  0
  6 11  1  0  0  0  0
  6 10  1  0  0  0  0
  7  9  1  0  0  0  0
  7  4  2  0  0  0  0
 10  8  1  0  0  0  0
 11  3  1  0  0  0  0
 12  9  1  0  0  0  0
 12 11  2  0  0  0  0
 13 14  1  0  0  0  0
 13 16  1  0  0  0  0
 14 18  2  0  0  0  0
 15 13  1  0  0  0  0
 16 17  2  0  0  0  0
 17 18  1  0  0  0  0
 17  1  1  0  0  0  0
 20 19  2  0  0  0  0
 21 19  1  6  0  0  0
 21 24  1  0  0  0  0
 23 21  1  0  0  0  0
 23 22  1  0  0  0  0
 25 27  1  1  0  0  0
 26 31  1  1  0  0  0
 26 25  1  0  0  0  0
 28 25  1  0  0  0  0
 29 26  1  0  0  0  0
 30 24  1  1  0  0  0
 30 29  1  0  0  0  0
 30 28  1  0  0  0  0
M  END
>  <MODEL>
6

>  <REMARK>
 VINA RESULT:      -7.9      2.844      5.150
  Name = 
  7 active torsions:
  status: ('A' for Active; 'I' for Inactive)
    1  A    between atoms: C_3  and  C_9
    2  A    between atoms: C_3  and  C_22
    3  A    between atoms: N_4  and  C_12
    4  A    between atoms: C_9  and  C_15
    5  A    between atoms: C_9  and  O_23
    6  A    between atoms: C_12  and  N_20
    7  A    between atoms: C_12  and  C_27
                            x       y       z     vdW  Elec       q    Type
                         _______ _______ _______ _____ _____    ______ ____

>  <TORSDO>
F 7

$$$$
=
 OpenBabel10272400193D

 31 34  0  0  1  0  0  0  0  0999 V2000
  188.2640  178.2080  142.3160 C   0  0  1  0  0  3  0  0  0  0  0  0
  189.2070  177.6220  143.2760 N   0  0  0  0  0  0  0  0  0  0  0  0
  188.9470  177.6460  144.6920 C   0  0  0  0  0  0  0  0  0  0  0  0
  187.3570  178.2720  146.5550 C   0  0  0  0  0  3  0  0  0  0  0  0
  187.7510  178.0580  145.1500 C   0  0  0  0  0  3  0  0  0  0  0  0
  191.4980  177.6660  144.9260 C   0  0  0  0  0  2  0  0  0  0  0  0
  187.8690  177.6310  147.6050 C   0  0  0  0  0  3  0  0  0  0  0  0
  190.4060  177.1320  142.8490 O   0  0  0  0  0  0  0  0  0  0  0  0
  188.8580  176.5250  147.4790 C   0  0  0  0  0  2  0  0  0  0  0  0
  191.3840  177.9640  143.4220 C   0  0  0  0  0  2  0  0  0  0  0  0
  190.1460  177.4480  145.5520 C   0  0  0  0  0  0  0  0  0  0  0  0
  190.1080  176.9710  146.7970 C   0  0  0  0  0  3  0  0  0  0  0  0
  188.9630  178.1740  138.8210 N   0  0  0  0  0  0  0  0  0  0  0  0
  189.4530  176.9800  139.1870 C   0  0  0  0  0  3  0  0  0  0  0  0
  188.9810  178.7320  137.4820 C   0  0  0  0  0  1  0  0  0  0  0  0
  188.4670  178.7880  139.8760 N   0  0  0  0  0  0  0  0  0  0  0  0
  188.6650  177.9340  140.8970 C   0  0  0  0  0  0  0  0  0  0  0  0
  189.2780  176.7950  140.5110 N   0  0  0  0  0  0  0  0  0  0  0  0
  185.8840  178.4840  142.2040 C   0  0  0  0  0  3  0  0  0  0  0  0
  186.9030  177.7990  142.5890 N   0  0  0  0  0  0  0  0  0  0  0  0
  184.4900  178.0380  142.5250 C   0  0  1  0  0  3  0  0  0  0  0  0
  182.9830  179.0290  143.8080 C   0  0  0  0  0  1  0  0  0  0  0  0
  184.1920  178.3340  143.8570 O   0  0  0  0  0  0  0  0  0  0  0  0
  183.4720  178.7140  141.6100 C   0  0  0  0  0  2  0  0  0  0  0  0
  181.9220  179.3290  138.8370 C   0  0  2  0  0  3  0  0  0  0  0  0
  181.8910  177.8720  138.4080 C   0  0  2  0  0  3  0  0  0  0  0  0
  181.4800  180.2780  137.7360 C   0  0  0  0  0  1  0  0  0  0  0  0
  183.3310  179.6290  139.2810 C   0  0  0  0  0  2  0  0  0  0  0  0
  182.9170  176.9550  139.5960 S   0  0  0  0  0  0  0  0  0  0  0  0
  183.7900  178.4630  140.1410 C   0  0  2  0  0  3  0  0  0  0  0  0
  182.4330  177.7130  137.1300 O   0  0  0  0  0  1  0  0  0  0  0  0
  1 20  1  1  0  0  0
  1  2  1  0  0  0  0
  2  3  1  0  0  0  0
  3  5  2  0  0  0  0
  3 11  1  0  0  0  0
  4  7  2  0  0  0  0
  5  4  1  0  0  0  0
  6 11  1  0  0  0  0
  8  2  1  0  0  0  0
  8 10  1  0  0  0  0
  9  7  1  0  0  0  0
 10  6  1  0  0  0  0
 11 12  2  0  0  0  0
 12  9  1  0  0  0  0
 13 14  1  0  0  0  0
 13 16  1  0  0  0  0
 14 18  2  0  0  0  0
 15 13  1  0  0  0  0
 16 17  2  0  0  0  0
 17  1  1  0  0  0  0
 18 17  1  0  0  0  0
 19 21  1  0  0  0  0
 19 20  2  0  0  0  0
 21 24  1  6  0  0  0
 21 23  1  0  0  0  0
 22 23  1  0  0  0  0
 25 27  1  6  0  0  0
 25 28  1  0  0  0  0
 26 31  1  6  0  0  0
 26 25  1  0  0  0  0
 26 29  1  0  0  0  0
 28 30  1  0  0  0  0
 29 30  1  0  0  0  0
 30 24  1  1  0  0  0
M  END
>  <MODEL>
7

>  <REMARK>
 VINA RESULT:      -7.9      2.777      7.138
  Name = 
  7 active torsions:
  status: ('A' for Active; 'I' for Inactive)
    1  A    between atoms: C_3  and  C_9
    2  A    between atoms: C_3  and  C_22
    3  A    between atoms: N_4  and  C_12
    4  A    between atoms: C_9  and  C_15
    5  A    between atoms: C_9  and  O_23
    6  A    between atoms: C_12  and  N_20
    7  A    between atoms: C_12  and  C_27
                            x       y       z     vdW  Elec       q    Type
                         _______ _______ _______ _____ _____    ______ ____

>  <TORSDO>
F 7

$$$$
=
 OpenBabel10272400193D

 31 34  0  0  1  0  0  0  0  0999 V2000
  186.1070  178.9660  141.0260 C   0  0  1  0  0  3  0  0  0  0  0  0
  187.1660  178.2040  140.3530 N   0  0  0  0  0  0  0  0  0  0  0  0
  188.4660  178.0380  140.9490 C   0  0  0  0  0  0  0  0  0  0  0  0
  189.9670  178.4670  142.9370 C   0  0  0  0  0  3  0  0  0  0  0  0
  188.6810  178.4380  142.2150 C   0  0  0  0  0  3  0  0  0  0  0  0
  189.3030  177.9030  138.5310 C   0  0  0  0  0  2  0  0  0  0  0  0
  191.0000  177.6600  142.7040 C   0  0  0  0  0  3  0  0  0  0  0  0
  186.9690  177.7230  139.0910 O   0  0  0  0  0  0  0  0  0  0  0  0
  190.9500  176.5360  141.7260 C   0  0  0  0  0  2  0  0  0  0  0  0
  187.8780  178.4170  138.2720 C   0  0  0  0  0  2  0  0  0  0  0  0
  189.5470  177.6620  139.9980 C   0  0  0  0  0  0  0  0  0  0  0  0
  190.6610  177.0150  140.3430 C   0  0  0  0  0  3  0  0  0  0  0  0
  182.9310  178.3630  139.5250 N   0  0  0  0  0  0  0  0  0  0  0  0
  183.2810  179.5100  138.9220 C   0  0  0  0  0  3  0  0  0  0  0  0
  181.6960  177.6320  139.3190 C   0  0  0  0  0  1  0  0  0  0  0  0
  183.8820  177.9980  140.3610 N   0  0  0  0  0  0  0  0  0  0  0  0
  184.8250  178.9520  140.2490 C   0  0  0  0  0  0  0  0  0  0  0  0
  184.4900  179.9140  139.3640 N   0  0  0  0  0  0  0  0  0  0  0  0
  185.2900  179.2290  143.2660 C   0  0  0  0  0  3  0  0  0  0  0  0
  185.9240  178.5270  142.3940 N   0  0  0  0  0  0  0  0  0  0  0  0
  185.1400  178.7500  144.6780 C   0  0  1  0  0  3  0  0  0  0  0  0
  182.9530  178.9310  144.3840 C   0  0  0  0  0  1  0  0  0  0  0  0
  183.9420  178.0450  144.8150 O   0  0  0  0  0  0  0  0  0  0  0  0
  186.3100  177.8580  145.0850 C   0  0  0  0  0  2  0  0  0  0  0  0
  188.8070  176.9330  146.9220 C   0  0  2  0  0  3  0  0  0  0  0  0
  188.2030  177.4800  148.2050 C   0  0  2  0  0  3  0  0  0  0  0  0
  190.2530  176.4980  147.0900 C   0  0  0  0  0  1  0  0  0  0  0  0
  188.6810  178.0140  145.8790 C   0  0  0  0  0  2  0  0  0  0  0  0
  186.7200  178.4170  147.7260 S   0  0  0  0  0  0  0  0  0  0  0  0
  187.2810  178.5940  145.9980 C   0  0  2  0  0  3  0  0  0  0  0  0
  189.0910  178.3450  148.8500 O   0  0  0  0  0  1  0  0  0  0  0  0
  1 20  1  1  0  0  0
  2  3  1  0  0  0  0
  2  1  1  0  0  0  0
  3  5  2  0  0  0  0
  5  4  1  0  0  0  0
  6 11  1  0  0  0  0
  7  4  2  0  0  0  0
  8  2  1  0  0  0  0
  9  7  1  0  0  0  0
 10  6  1  0  0  0  0
 10  8  1  0  0  0  0
 11 12  2  0  0  0  0
 11  3  1  0  0  0  0
 12  9  1  0  0  0  0
 13 16  1  0  0  0  0
 14 18  2  0  0  0  0
 14 13  1  0  0  0  0
 15 13  1  0  0  0  0
 17 16  2  0  0  0  0
 17  1  1  0  0  0  0
 18 17  1  0  0  0  0
 20 19  2  0  0  0  0
 21 19  1  6  0  0  0
 21 23  1  0  0  0  0
 21 24  1  0  0  0  0
 22 23  1  0  0  0  0
 25 27  1  1  0  0  0
 25 26  1  0  0  0  0
 26 31  1  6  0  0  0
 28 30  1  0  0  0  0
 28 25  1  0  0  0  0
 29 26  1  0  0  0  0
 30 24  1  6  0  0  0
 30 29  1  0  0  0  0
M  END
>  <MODEL>
8

>  <REMARK>
 VINA RESULT:      -7.8      2.254      5.084
  Name = 
  7 active torsions:
  status: ('A' for Active; 'I' for Inactive)
    1  A    between atoms: C_3  and  C_9
    2  A    between atoms: C_3  and  C_22
    3  A    between atoms: N_4  and  C_12
    4  A    between atoms: C_9  and  C_15
    5  A    between atoms: C_9  and  O_23
    6  A    between atoms: C_12  and  N_20
    7  A    between atoms: C_12  and  C_27
                            x       y       z     vdW  Elec       q    Type
                         _______ _______ _______ _____ _____    ______ ____

>  <TORSDO>
F 7

$$$$
=
 OpenBabel10272400193D

 31 34  0  0  1  0  0  0  0  0999 V2000
  188.0330  178.1690  144.5080 C   0  0  1  0  0  3  0  0  0  0  0  0
  186.5760  178.0000  144.5660 N   0  0  0  0  0  0  0  0  0  0  0  0
  185.7360  178.3420  143.4470 C   0  0  0  0  0  0  0  0  0  0  0  0
  185.6000  179.1640  141.0600 C   0  0  0  0  0  3  0  0  0  0  0  0
  186.2910  178.6650  142.2640 C   0  0  0  0  0  3  0  0  0  0  0  0
  183.9550  178.8190  145.2240 C   0  0  0  0  0  2  0  0  0  0  0  0
  184.3380  178.8990  140.7300 C   0  0  0  0  0  3  0  0  0  0  0  0
  185.9750  177.6110  145.7270 O   0  0  0  0  0  0  0  0  0  0  0  0
  183.4740  177.9650  141.5060 C   0  0  0  0  0  2  0  0  0  0  0  0
  185.1880  178.7030  146.1340 C   0  0  0  0  0  2  0  0  0  0  0  0
  184.3030  178.5580  143.7830 C   0  0  0  0  0  0  0  0  0  0  0  0
  183.2970  178.4120  142.9180 C   0  0  0  0  0  3  0  0  0  0  0  0
  190.0730  176.8300  147.1070 N   0  0  0  0  0  0  0  0  0  0  0  0
  189.1260  177.4530  147.8250 C   0  0  0  0  0  3  0  0  0  0  0  0
  191.2110  176.1040  147.6380 C   0  0  0  0  0  1  0  0  0  0  0  0
  189.8260  176.9910  145.8220 N   0  0  0  0  0  0  0  0  0  0  0  0
  188.7000  177.7260  145.7760 C   0  0  0  0  0  0  0  0  0  0  0  0
  188.2310  178.0370  147.0030 N   0  0  0  0  0  0  0  0  0  0  0  0
  189.6230  177.9960  142.7210 C   0  0  0  0  0  3  0  0  0  0  0  0
  188.5970  177.5280  143.3400 N   0  0  0  0  0  0  0  0  0  0  0  0
  190.1660  177.3150  141.5020 C   0  0  1  0  0  3  0  0  0  0  0  0
  191.5140  176.1550  142.8190 C   0  0  0  0  0  1  0  0  0  0  0  0
  190.5520  176.0110  141.8190 O   0  0  0  0  0  0  0  0  0  0  0  0
  189.1300  177.2850  140.3810 C   0  0  0  0  0  2  0  0  0  0  0  0
  187.9570  177.6330  137.3860 C   0  0  2  0  0  3  0  0  0  0  0  0
  188.9010  176.6050  136.7830 C   0  0  2  0  0  3  0  0  0  0  0  0
  187.1880  178.4150  136.3350 C   0  0  0  0  0  1  0  0  0  0  0  0
  188.7920  178.5490  138.2440 C   0  0  0  0  0  2  0  0  0  0  0  0
  190.0870  176.1580  138.0860 S   0  0  0  0  0  0  0  0  0  0  0  0
  189.7450  177.6740  139.0430 C   0  0  2  0  0  3  0  0  0  0  0  0
  189.6030  177.1420  135.7010 O   0  0  0  0  0  1  0  0  0  0  0  0
  1 20  1  6  0  0  0
  1  2  1  0  0  0  0
  1 17  1  0  0  0  0
  2  8  1  0  0  0  0
  3 11  1  0  0  0  0
  3  2  1  0  0  0  0
  4  5  1  0  0  0  0
  5  3  2  0  0  0  0
  6 10  1  0  0  0  0
  7  4  2  0  0  0  0
  7  9  1  0  0  0  0
  8 10  1  0  0  0  0
  9 12  1  0  0  0  0
 11  6  1  0  0  0  0
 12 11  2  0  0  0  0
 13 15  1  0  0  0  0
 13 14  1  0  0  0  0
 16 13  1  0  0  0  0
 17 16  2  0  0  0  0
 17 18  1  0  0  0  0
 18 14  2  0  0  0  0
 19 20  2  0  0  0  0
 21 24  1  6  0  0  0
 21 23  1  0  0  0  0
 21 19  1  0  0  0  0
 23 22  1  0  0  0  0
 25 27  1  6  0  0  0
 25 28  1  0  0  0  0
 26 31  1  6  0  0  0
 26 25  1  0  0  0  0
 26 29  1  0  0  0  0
 28 30  1  0  0  0  0
 29 30  1  0  0  0  0
 30 24  1  1  0  0  0
M  END
>  <MODEL>
9

>  <REMARK>
 VINA RESULT:      -7.6      2.972      6.773
  Name = 
  7 active torsions:
  status: ('A' for Active; 'I' for Inactive)
    1  A    between atoms: C_3  and  C_9
    2  A    between atoms: C_3  and  C_22
    3  A    between atoms: N_4  and  C_12
    4  A    between atoms: C_9  and  C_15
    5  A    between atoms: C_9  and  O_23
    6  A    between atoms: C_12  and  N_20
    7  A    between atoms: C_12  and  C_27
                            x       y       z     vdW  Elec       q    Type
                         _______ _______ _______ _____ _____    ______ ____

>  <TORSDO>
F 7

$$$$
