=
 OpenBabel10272400493D

 25 29  0  0  1  0  0  0  0  0999 V2000
  187.0830  177.7120  144.2630 C   0  0  0  0  0  0  0  0  0  0  0  0
  188.0160  176.8630  143.4570 C   0  0  0  0  0  0  0  0  0  0  0  0
  188.4650  177.6820  146.2630 C   0  0  0  0  0  3  0  0  0  0  0  0
  185.8310  178.0820  144.0670 C   0  0  0  0  0  0  0  0  0  0  0  0
  183.2130  178.9860  144.1760 C   0  0  0  0  0  3  0  0  0  0  0  0
  189.5420  177.0560  145.4540 C   0  0  0  0  0  3  0  0  0  0  0  0
  185.3310  178.6220  145.2480 C   0  0  0  0  0  0  0  0  0  0  0  0
  184.0190  179.0860  145.3230 C   0  0  0  0  0  3  0  0  0  0  0  0
  190.4810  176.2530  143.3250 C   0  0  0  0  0  0  0  0  0  0  0  0
  191.6420  175.6800  143.9190 N   0  0  0  0  0  1  0  0  0  0  0  0
  188.1920  177.3340  142.0430 C   0  0  0  0  0  2  0  0  0  0  0  0
  183.7190  178.4210  142.9880 C   0  0  0  0  0  3  0  0  0  0  0  0
  187.3260  178.0050  145.6530 C   0  0  0  0  0  0  0  0  0  0  0  0
  186.1720  178.6010  146.2380 N   0  0  0  0  0  0  0  0  0  0  0  0
  190.4310  176.4200  142.0350 N   0  0  0  0  0  0  0  0  0  0  0  0
  185.0430  177.9550  142.9240 C   0  0  0  0  0  3  0  0  0  0  0  0
  189.3190  177.0550  141.3670 C   0  0  0  0  0  0  0  0  0  0  0  0
  189.3610  176.7240  144.1570 C   0  0  0  0  0  0  0  0  0  0  0  0
  189.9480  177.6250  137.4460 C   0  0  1  0  0  3  0  0  0  0  0  0
  189.4540  177.4460  139.9530 C   0  0  0  0  0  0  0  0  0  0  0  0
  190.3700  176.4450  138.7740 S   0  0  0  0  0  0  0  0  0  0  0  0
  189.0930  176.9250  136.4080 C   0  0  0  0  0  1  0  0  0  0  0  0
  188.9230  178.5260  139.4900 N   0  0  0  0  0  0  0  0  0  0  0  0
  189.1670  178.7010  138.1080 C   0  0  0  0  0  0  0  0  0  0  0  0
  188.7580  179.7190  137.4910 O   0  0  0  0  0  0  0  0  0  0  0  0
  1 13  1  0  0  0  0
  2 18  1  0  0  0  0
  2  1  2  0  0  0  0
  4  1  1  0  0  0  0
  4  7  1  0  0  0  0
  5  8  1  0  0  0  0
  6  3  2  0  0  0  0
  7  8  2  0  0  0  0
  7 14  1  0  0  0  0
  9 10  1  0  0  0  0
  9 18  2  0  0  0  0
 11  2  1  0  0  0  0
 12  5  2  0  0  0  0
 13 14  2  0  0  0  0
 13  3  1  0  0  0  0
 15  9  1  0  0  0  0
 16 12  1  0  0  0  0
 16  4  2  0  0  0  0
 17 15  2  0  0  0  0
 17 11  1  0  0  0  0
 18  6  1  0  0  0  0
 19 22  1  6  0  0  0
 19 24  1  0  0  0  0
 19 21  1  0  0  0  0
 20 17  1  0  0  0  0
 21 20  1  0  0  0  0
 23 20  2  0  0  0  0
 24 23  1  0  0  0  0
 25 24  2  0  0  0  0
M  END
>  <MODEL>
1

>  <REMARK>
 VINA RESULT:     -11.3      0.000      0.000
  Name = 
  1 active torsions:
  status: ('A' for Active; 'I' for Inactive)
    1  A    between atoms: C_6  and  C_23
                            x       y       z     vdW  Elec       q    Type
                         _______ _______ _______ _____ _____    ______ ____

>  <TORSDO>
F 1

$$$$
=
 OpenBabel10272400493D

 25 29  0  0  1  0  0  0  0  0999 V2000
  185.9300  178.0860  144.2250 C   0  0  0  0  0  0  0  0  0  0  0  0
  187.0620  177.2610  143.6980 C   0  0  1  0  0  3  0  0  0  0  0  0
  186.8490  178.2740  146.4670 C   0  0  0  0  0  3  0  0  0  0  0  0
  184.7300  178.3530  143.7420 C   0  0  0  0  0  0  0  0  0  0  0  0
  182.1020  179.0710  143.2310 C   0  0  0  0  0  3  0  0  0  0  0  0
  188.1090  177.6810  145.9520 C   0  0  0  0  0  3  0  0  0  0  0  0
  183.9580  178.9240  144.7490 C   0  0  0  0  0  0  0  0  0  0  0  0
  182.6350  179.2960  144.5120 C   0  0  0  0  0  3  0  0  0  0  0  0
  189.5280  176.8230  144.1320 C   0  0  0  0  0  0  0  0  0  0  0  0
  190.5650  176.3710  144.9980 N   0  0  0  0  0  1  0  0  0  0  0  0
  187.5110  177.6590  142.3220 C   0  0  0  0  0  3  0  0  0  0  0  0
  182.8840  178.4750  142.2200 C   0  0  0  0  0  3  0  0  0  0  0  0
  185.8510  178.4770  145.6090 C   0  0  0  0  0  0  0  0  0  0  0  0
  184.5660  179.0230  145.8930 N   0  0  0  0  0  0  0  0  0  0  0  0
  189.7480  176.9090  142.8520 N   0  0  0  0  0  0  0  0  0  0  0  0
  184.2150  178.1020  142.4720 C   0  0  0  0  0  3  0  0  0  0  0  0
  188.7710  177.4220  141.9210 C   0  0  0  0  0  0  0  0  0  0  0  0
  188.2310  177.2600  144.6730 C   0  0  0  0  0  0  0  0  0  0  0  0
  190.2710  177.8640  138.2260 C   0  0  1  0  0  3  0  0  0  0  0  0
  189.1840  177.7370  140.5430 C   0  0  0  0  0  0  0  0  0  0  0  0
  190.5790  176.9190  139.7580 S   0  0  0  0  0  0  0  0  0  0  0  0
  189.9000  176.9040  137.1130 C   0  0  0  0  0  1  0  0  0  0  0  0
  188.5660  178.6170  139.8290 N   0  0  0  0  0  0  0  0  0  0  0  0
  189.1220  178.7540  138.5360 C   0  0  0  0  0  0  0  0  0  0  0  0
  188.6740  179.5930  137.7110 O   0  0  0  0  0  0  0  0  0  0  0  0
  1 13  1  0  0  0  0
  2 11  1  6  0  0  0
  2  1  1  0  0  0  0
  2 18  1  0  0  0  0
  4  1  2  0  0  0  0
  4  7  1  0  0  0  0
  5  8  2  0  0  0  0
  6  3  1  0  0  0  0
  7 14  2  0  0  0  0
  8  7  1  0  0  0  0
  9 18  1  0  0  0  0
  9 10  1  0  0  0  0
 12 16  2  0  0  0  0
 12  5  1  0  0  0  0
 13 14  1  0  0  0  0
 13  3  2  0  0  0  0
 15  9  2  0  0  0  0
 16  4  1  0  0  0  0
 17 11  2  0  0  0  0
 17 15  1  0  0  0  0
 18  6  2  0  0  0  0
 19 22  1  6  0  0  0
 19 24  1  0  0  0  0
 19 21  1  0  0  0  0
 20 17  1  0  0  0  0
 21 20  1  0  0  0  0
 23 20  2  0  0  0  0
 24 23  1  0  0  0  0
 25 24  2  0  0  0  0
M  END
>  <MODEL>
2

>  <REMARK>
 VINA RESULT:     -10.6      0.927      1.226
  Name = 
  1 active torsions:
  status: ('A' for Active; 'I' for Inactive)
    1  A    between atoms: C_6  and  C_23
                            x       y       z     vdW  Elec       q    Type
                         _______ _______ _______ _____ _____    ______ ____

>  <TORSDO>
F 1

$$$$
=
 OpenBabel10272400493D

 25 29  0  0  1  0  0  0  0  0999 V2000
  188.2430  177.7380  144.0410 C   0  0  0  0  0  0  0  0  0  0  0  0
  188.1340  178.3720  142.6900 C   0  0  0  0  0  0  0  0  0  0  0  0
  185.8860  177.9990  144.5730 C   0  0  0  0  0  3  0  0  0  0  0  0
  189.2840  177.4310  144.7940 C   0  0  0  0  0  0  0  0  0  0  0  0
  191.1060  176.7480  146.7680 C   0  0  0  0  0  3  0  0  0  0  0  0
  185.6590  178.4040  143.1620 C   0  0  0  0  0  3  0  0  0  0  0  0
  188.8380  177.1320  146.0770 C   0  0  0  0  0  0  0  0  0  0  0  0
  189.7370  176.7830  147.0840 C   0  0  0  0  0  3  0  0  0  0  0  0
  186.4250  178.7740  140.8510 C   0  0  0  0  0  0  0  0  0  0  0  0
  185.1990  179.3520  140.4150 N   0  0  0  0  0  1  0  0  0  0  0  0
  188.9170  177.6620  141.6250 C   0  0  0  0  0  2  0  0  0  0  0  0
  191.5530  177.0700  145.4700 C   0  0  0  0  0  3  0  0  0  0  0  0
  187.1190  177.6630  144.9410 C   0  0  0  0  0  0  0  0  0  0  0  0
  187.5540  177.2560  146.2350 N   0  0  0  0  0  0  0  0  0  0  0  0
  187.3110  178.3990  139.9740 N   0  0  0  0  0  0  0  0  0  0  0  0
  190.6380  177.4230  144.4650 C   0  0  0  0  0  3  0  0  0  0  0  0
  188.5460  177.7440  140.3360 C   0  0  0  0  0  0  0  0  0  0  0  0
  186.6770  178.5290  142.2810 C   0  0  0  0  0  0  0  0  0  0  0  0
  190.2850  175.9130  137.2190 C   0  0  1  0  0  3  0  0  0  0  0  0
  189.3640  177.1150  139.2850 C   0  0  0  0  0  0  0  0  0  0  0  0
  188.6230  176.2320  137.9060 S   0  0  0  0  0  0  0  0  0  0  0  0
  190.4120  176.6080  135.8770 C   0  0  0  0  0  1  0  0  0  0  0  0
  190.6530  177.1670  139.3010 N   0  0  0  0  0  0  0  0  0  0  0  0
  191.2350  176.5080  138.1930 C   0  0  0  0  0  0  0  0  0  0  0  0
  192.4850  176.4230  138.0600 O   0  0  0  0  0  0  0  0  0  0  0  0
  1  4  1  0  0  0  0
  1 13  1  0  0  0  0
  2  1  2  0  0  0  0
  3 13  1  0  0  0  0
  4  7  1  0  0  0  0
  5  8  1  0  0  0  0
  6  3  2  0  0  0  0
  7 14  1  0  0  0  0
  7  8  2  0  0  0  0
  9 18  2  0  0  0  0
 10  9  1  0  0  0  0
 11  2  1  0  0  0  0
 12  5  2  0  0  0  0
 13 14  2  0  0  0  0
 15 17  2  0  0  0  0
 15  9  1  0  0  0  0
 16  4  2  0  0  0  0
 16 12  1  0  0  0  0
 17 11  1  0  0  0  0
 18  2  1  0  0  0  0
 18  6  1  0  0  0  0
 19 22  1  6  0  0  0
 19 21  1  0  0  0  0
 19 24  1  0  0  0  0
 20 23  2  0  0  0  0
 20 17  1  0  0  0  0
 21 20  1  0  0  0  0
 24 23  1  0  0  0  0
 25 24  2  0  0  0  0
M  END
>  <MODEL>
3

>  <REMARK>
 VINA RESULT:     -10.0      2.046      4.320
  Name = 
  1 active torsions:
  status: ('A' for Active; 'I' for Inactive)
    1  A    between atoms: C_6  and  C_23
                            x       y       z     vdW  Elec       q    Type
                         _______ _______ _______ _____ _____    ______ ____

>  <TORSDO>
F 1

$$$$
=
 OpenBabel10272400493D

 25 29  0  0  1  0  0  0  0  0999 V2000
  187.2580  177.8900  145.6550 C   0  0  0  0  0  0  0  0  0  0  0  0
  188.3860  176.9670  145.3150 C   0  0  1  0  0  3  0  0  0  0  0  0
  188.0820  178.3980  147.8850 C   0  0  0  0  0  3  0  0  0  0  0  0
  186.0890  178.1080  145.0800 C   0  0  0  0  0  0  0  0  0  0  0  0
  183.5090  178.8010  144.3400 C   0  0  0  0  0  3  0  0  0  0  0  0
  189.3450  177.7030  147.5270 C   0  0  0  0  0  3  0  0  0  0  0  0
  185.2910  178.8440  145.9500 C   0  0  0  0  0  0  0  0  0  0  0  0
  183.9920  179.2060  145.5960 C   0  0  0  0  0  3  0  0  0  0  0  0
  190.8160  176.5430  145.9300 C   0  0  0  0  0  0  0  0  0  0  0  0
  191.8000  176.2050  146.9040 N   0  0  0  0  0  1  0  0  0  0  0  0
  188.9070  177.1390  143.9180 C   0  0  0  0  0  3  0  0  0  0  0  0
  184.3160  178.0380  143.4710 C   0  0  0  0  0  3  0  0  0  0  0  0
  187.1300  178.4910  146.9590 C   0  0  0  0  0  0  0  0  0  0  0  0
  185.8510  179.1030  147.0940 N   0  0  0  0  0  0  0  0  0  0  0  0
  191.0950  176.4260  144.6640 N   0  0  0  0  0  0  0  0  0  0  0  0
  185.6230  177.6770  143.8390 C   0  0  0  0  0  3  0  0  0  0  0  0
  190.1760  176.8130  143.6190 C   0  0  0  0  0  0  0  0  0  0  0  0
  189.5100  177.0880  146.3350 C   0  0  0  0  0  0  0  0  0  0  0  0
  190.9680  176.9140  139.6880 C   0  0  1  0  0  3  0  0  0  0  0  0
  190.6590  176.9040  142.2300 C   0  0  0  0  0  0  0  0  0  0  0  0
  189.6230  176.4520  140.8330 S   0  0  0  0  0  0  0  0  0  0  0  0
  190.5150  178.0790  138.8290 C   0  0  0  0  0  1  0  0  0  0  0  0
  191.8500  177.3120  141.9470 N   0  0  0  0  0  0  0  0  0  0  0  0
  192.0990  177.3300  140.5550 C   0  0  0  0  0  0  0  0  0  0  0  0
  193.2220  177.6640  140.0920 O   0  0  0  0  0  0  0  0  0  0  0  0
  1 13  1  0  0  0  0
  2 11  1  6  0  0  0
  2  1  1  0  0  0  0
  2 18  1  0  0  0  0
  4  1  2  0  0  0  0
  4  7  1  0  0  0  0
  5  8  2  0  0  0  0
  6  3  1  0  0  0  0
  7 14  2  0  0  0  0
  8  7  1  0  0  0  0
  9 18  1  0  0  0  0
  9 10  1  0  0  0  0
 12 16  2  0  0  0  0
 12  5  1  0  0  0  0
 13 14  1  0  0  0  0
 13  3  2  0  0  0  0
 15  9  2  0  0  0  0
 16  4  1  0  0  0  0
 17 11  2  0  0  0  0
 17 15  1  0  0  0  0
 18  6  2  0  0  0  0
 19 22  1  6  0  0  0
 19 24  1  0  0  0  0
 19 21  1  0  0  0  0
 20 17  1  0  0  0  0
 21 20  1  0  0  0  0
 23 20  2  0  0  0  0
 24 23  1  0  0  0  0
 25 24  2  0  0  0  0
M  END
>  <MODEL>
4

>  <REMARK>
 VINA RESULT:      -9.5      1.891      2.449
  Name = 
  1 active torsions:
  status: ('A' for Active; 'I' for Inactive)
    1  A    between atoms: C_6  and  C_23
                            x       y       z     vdW  Elec       q    Type
                         _______ _______ _______ _____ _____    ______ ____

>  <TORSDO>
F 1

$$$$
=
 OpenBabel10272400493D

 25 29  0  0  1  0  0  0  0  0999 V2000
  187.7230  177.7850  142.9950 C   0  0  0  0  0  0  0  0  0  0  0  0
  186.5770  178.5740  143.5450 C   0  0  1  0  0  3  0  0  0  0  0  0
  188.4390  176.9410  145.1590 C   0  0  0  0  0  3  0  0  0  0  0  0
  188.3150  177.7900  141.8150 C   0  0  0  0  0  0  0  0  0  0  0  0
  189.9520  177.5370  139.5920 C   0  0  0  0  0  3  0  0  0  0  0  0
  187.1860  177.4890  145.7370 C   0  0  0  0  0  3  0  0  0  0  0  0
  189.5100  177.0840  141.9090 C   0  0  0  0  0  0  0  0  0  0  0  0
  190.3460  176.9410  140.8020 C   0  0  0  0  0  3  0  0  0  0  0  0
  184.9960  178.5960  145.5360 C   0  0  0  0  0  0  0  0  0  0  0  0
  184.7860  178.6930  146.9420 N   0  0  0  0  0  1  0  0  0  0  0  0
  185.3260  178.4780  142.7210 C   0  0  0  0  0  3  0  0  0  0  0  0
  188.7490  178.2680  139.5080 C   0  0  0  0  0  3  0  0  0  0  0  0
  188.6410  177.0750  143.8500 C   0  0  0  0  0  0  0  0  0  0  0  0
  189.7680  176.6340  143.1000 N   0  0  0  0  0  0  0  0  0  0  0  0
  184.0030  178.8030  144.7200 N   0  0  0  0  0  0  0  0  0  0  0  0
  187.9150  178.4060  140.6300 C   0  0  0  0  0  3  0  0  0  0  0  0
  184.1210  178.6560  143.2880 C   0  0  0  0  0  0  0  0  0  0  0  0
  186.3050  178.1950  144.9940 C   0  0  0  0  0  0  0  0  0  0  0  0
  180.5390  178.8360  141.4890 C   0  0  1  0  0  3  0  0  0  0  0  0
  182.9020  178.6440  142.4610 C   0  0  0  0  0  0  0  0  0  0  0  0
  181.2950  179.0900  143.1320 S   0  0  0  0  0  0  0  0  0  0  0  0
  179.9840  180.1540  140.9850 C   0  0  0  0  0  1  0  0  0  0  0  0
  182.9250  178.3130  141.2140 N   0  0  0  0  0  0  0  0  0  0  0  0
  181.6480  178.3810  140.6110 C   0  0  0  0  0  0  0  0  0  0  0  0
  181.4700  178.0570  139.4080 O   0  0  0  0  0  0  0  0  0  0  0  0
  1  2  1  0  0  0  0
  1 13  1  0  0  0  0
  2 11  1  6  0  0  0
  2 18  1  0  0  0  0
  3  6  1  0  0  0  0
  4  7  1  0  0  0  0
  4  1  2  0  0  0  0
  5  8  2  0  0  0  0
  7 14  2  0  0  0  0
  8  7  1  0  0  0  0
  9 10  1  0  0  0  0
 11 17  2  0  0  0  0
 12  5  1  0  0  0  0
 12 16  2  0  0  0  0
 13  3  2  0  0  0  0
 14 13  1  0  0  0  0
 15  9  2  0  0  0  0
 16  4  1  0  0  0  0
 17 15  1  0  0  0  0
 18  9  1  0  0  0  0
 18  6  2  0  0  0  0
 19 22  1  6  0  0  0
 19 21  1  0  0  0  0
 20 21  1  0  0  0  0
 20 17  1  0  0  0  0
 23 20  2  0  0  0  0
 24 23  1  0  0  0  0
 24 19  1  0  0  0  0
 25 24  2  0  0  0  0
M  END
>  <MODEL>
5

>  <REMARK>
 VINA RESULT:      -9.3      3.302      6.421
  Name = 
  1 active torsions:
  status: ('A' for Active; 'I' for Inactive)
    1  A    between atoms: C_6  and  C_23
                            x       y       z     vdW  Elec       q    Type
                         _______ _______ _______ _____ _____    ______ ____

>  <TORSDO>
F 1

$$$$
=
 OpenBabel10272400493D

 25 29  0  0  1  0  0  0  0  0999 V2000
  185.8390  178.1630  144.0510 C   0  0  0  0  0  0  0  0  0  0  0  0
  184.8590  178.7530  143.0860 C   0  0  0  0  0  0  0  0  0  0  0  0
  184.4600  178.5720  146.0100 C   0  0  0  0  0  3  0  0  0  0  0  0
  187.1100  177.8260  143.9270 C   0  0  0  0  0  0  0  0  0  0  0  0
  189.7750  177.1160  144.2030 C   0  0  0  0  0  3  0  0  0  0  0  0
  183.3480  178.9380  145.0950 C   0  0  0  0  0  3  0  0  0  0  0  0
  187.6400  177.5990  145.1930 C   0  0  0  0  0  0  0  0  0  0  0  0
  188.9770  177.2370  145.3540 C   0  0  0  0  0  3  0  0  0  0  0  0
  182.3640  179.1810  142.8520 C   0  0  0  0  0  0  0  0  0  0  0  0
  181.1730  179.8100  143.3160 N   0  0  0  0  0  1  0  0  0  0  0  0
  184.7080  177.9620  141.8190 C   0  0  0  0  0  2  0  0  0  0  0  0
  189.2360  177.3660  142.9240 C   0  0  0  0  0  3  0  0  0  0  0  0
  185.6140  178.1820  145.4740 C   0  0  0  0  0  0  0  0  0  0  0  0
  186.8000  177.7990  146.1640 N   0  0  0  0  0  0  0  0  0  0  0  0
  182.4210  178.7270  141.6330 N   0  0  0  0  0  0  0  0  0  0  0  0
  187.8880  177.7320  142.7750 C   0  0  0  0  0  3  0  0  0  0  0  0
  183.5660  178.0180  141.1130 C   0  0  0  0  0  0  0  0  0  0  0  0
  183.5090  178.9750  143.7540 C   0  0  0  0  0  0  0  0  0  0  0  0
  183.6490  176.4410  137.4250 C   0  0  1  0  0  3  0  0  0  0  0  0
  183.4520  177.3080  139.8270 C   0  0  0  0  0  0  0  0  0  0  0  0
  184.3450  177.8450  138.3630 S   0  0  0  0  0  0  0  0  0  0  0  0
  184.7750  175.5210  136.9940 C   0  0  0  0  0  1  0  0  0  0  0  0
  182.7050  176.2650  139.6880 N   0  0  0  0  0  0  0  0  0  0  0  0
  182.7510  175.7370  138.3760 C   0  0  0  0  0  0  0  0  0  0  0  0
  182.0570  174.7410  138.0420 O   0  0  0  0  0  0  0  0  0  0  0  0
  1 13  1  0  0  0  0
  2 18  1  0  0  0  0
  2  1  2  0  0  0  0
  4  1  1  0  0  0  0
  4  7  1  0  0  0  0
  5  8  1  0  0  0  0
  6  3  2  0  0  0  0
  7  8  2  0  0  0  0
  7 14  1  0  0  0  0
  9 10  1  0  0  0  0
  9 18  2  0  0  0  0
 11  2  1  0  0  0  0
 12  5  2  0  0  0  0
 13  3  1  0  0  0  0
 13 14  2  0  0  0  0
 15  9  1  0  0  0  0
 16 12  1  0  0  0  0
 16  4  2  0  0  0  0
 17 15  2  0  0  0  0
 17 11  1  0  0  0  0
 18  6  1  0  0  0  0
 19 22  1  1  0  0  0
 19 21  1  0  0  0  0
 19 24  1  0  0  0  0
 20 17  1  0  0  0  0
 21 20  1  0  0  0  0
 23 20  2  0  0  0  0
 24 23  1  0  0  0  0
 25 24  2  0  0  0  0
M  END
>  <MODEL>
6

>  <REMARK>
 VINA RESULT:      -9.0      3.635      5.861
  Name = 
  1 active torsions:
  status: ('A' for Active; 'I' for Inactive)
    1  A    between atoms: C_6  and  C_23
                            x       y       z     vdW  Elec       q    Type
                         _______ _______ _______ _____ _____    ______ ____

>  <TORSDO>
F 1

$$$$
=
 OpenBabel10272400493D

 25 29  0  0  1  0  0  0  0  0999 V2000
  189.3880  177.5480  143.8090 C   0  0  0  0  0  0  0  0  0  0  0  0
  189.3220  177.0140  142.4130 C   0  0  0  0  0  0  0  0  0  0  0  0
  191.8010  177.8350  143.7990 C   0  0  0  0  0  3  0  0  0  0  0  0
  188.5060  177.5670  144.7910 C   0  0  0  0  0  0  0  0  0  0  0  0
  187.0790  177.7150  147.1640 C   0  0  0  0  0  3  0  0  0  0  0  0
  191.7830  177.5540  142.3410 C   0  0  0  0  0  3  0  0  0  0  0  0
  189.1550  177.9110  145.9720 C   0  0  0  0  0  0  0  0  0  0  0  0
  188.4560  177.9950  147.1760 C   0  0  0  0  0  3  0  0  0  0  0  0
  190.6100  177.1070  140.2230 C   0  0  0  0  0  0  0  0  0  0  0  0
  191.8010  176.8560  139.4820 N   0  0  0  0  0  1  0  0  0  0  0  0
  188.1780  177.5600  141.6100 C   0  0  0  0  0  2  0  0  0  0  0  0
  186.4300  177.3490  145.9670 C   0  0  0  0  0  3  0  0  0  0  0  0
  190.6410  177.8530  144.4510 C   0  0  0  0  0  0  0  0  0  0  0  0
  190.4360  178.0910  145.8410 N   0  0  0  0  0  0  0  0  0  0  0  0
  189.4860  177.2950  139.5930 N   0  0  0  0  0  0  0  0  0  0  0  0
  187.1450  177.2660  144.7610 C   0  0  0  0  0  3  0  0  0  0  0  0
  188.2530  177.6220  140.2700 C   0  0  0  0  0  0  0  0  0  0  0  0
  190.6450  177.2260  141.6900 C   0  0  0  0  0  0  0  0  0  0  0  0
  185.2980  178.5300  137.7140 C   0  0  1  0  0  3  0  0  0  0  0  0
  187.0970  178.0800  139.4800 C   0  0  0  0  0  0  0  0  0  0  0  0
  186.8610  177.5880  137.7680 S   0  0  0  0  0  0  0  0  0  0  0  0
  184.1450  177.5720  137.4810 C   0  0  0  0  0  1  0  0  0  0  0  0
  186.1950  178.8580  139.9780 N   0  0  0  0  0  0  0  0  0  0  0  0
  185.1720  179.1630  139.0510 C   0  0  0  0  0  0  0  0  0  0  0  0
  184.2260  179.9400  139.3470 O   0  0  0  0  0  0  0  0  0  0  0  0
  1 13  1  0  0  0  0
  1  4  1  0  0  0  0
  2  1  2  0  0  0  0
  3 13  1  0  0  0  0
  4  7  1  0  0  0  0
  5  8  1  0  0  0  0
  6  3  2  0  0  0  0
  7  8  2  0  0  0  0
  9 18  2  0  0  0  0
 10  9  1  0  0  0  0
 11  2  1  0  0  0  0
 12  5  2  0  0  0  0
 13 14  2  0  0  0  0
 14  7  1  0  0  0  0
 15  9  1  0  0  0  0
 15 17  2  0  0  0  0
 16  4  2  0  0  0  0
 16 12  1  0  0  0  0
 17 11  1  0  0  0  0
 18  6  1  0  0  0  0
 18  2  1  0  0  0  0
 19 22  1  1  0  0  0
 19 21  1  0  0  0  0
 19 24  1  0  0  0  0
 20 23  2  0  0  0  0
 20 17  1  0  0  0  0
 21 20  1  0  0  0  0
 24 25  2  0  0  0  0
 24 23  1  0  0  0  0
M  END
>  <MODEL>
7

>  <REMARK>
 VINA RESULT:      -8.9      2.654      3.682
  Name = 
  1 active torsions:
  status: ('A' for Active; 'I' for Inactive)
    1  A    between atoms: C_6  and  C_23
                            x       y       z     vdW  Elec       q    Type
                         _______ _______ _______ _____ _____    ______ ____

>  <TORSDO>
F 1

$$$$
=
 OpenBabel10272400493D

 25 29  0  0  1  0  0  0  0  0999 V2000
  187.7320  177.9230  145.2860 C   0  0  0  0  0  0  0  0  0  0  0  0
  187.0220  178.7850  144.2900 C   0  0  0  0  0  0  0  0  0  0  0  0
  185.8200  177.7210  146.7720 C   0  0  0  0  0  3  0  0  0  0  0  0
  189.0100  177.6340  145.4550 C   0  0  0  0  0  0  0  0  0  0  0  0
  191.5360  176.8600  146.2950 C   0  0  0  0  0  3  0  0  0  0  0  0
  184.9900  178.3540  145.7160 C   0  0  0  0  0  3  0  0  0  0  0  0
  189.1740  177.0280  146.6960 C   0  0  0  0  0  0  0  0  0  0  0  0
  190.4340  176.6270  147.1360 C   0  0  0  0  0  3  0  0  0  0  0  0
  184.6710  179.2770  143.4560 C   0  0  0  0  0  0  0  0  0  0  0  0
  183.3470  179.7400  143.7060 N   0  0  0  0  0  1  0  0  0  0  0  0
  187.3100  178.4210  142.8620 C   0  0  0  0  0  2  0  0  0  0  0  0
  191.3660  177.4920  145.0460 C   0  0  0  0  0  3  0  0  0  0  0  0
  187.1090  177.5070  146.5170 C   0  0  0  0  0  0  0  0  0  0  0  0
  188.0770  176.9250  147.3850 N   0  0  0  0  0  0  0  0  0  0  0  0
  185.1140  179.2170  142.2340 N   0  0  0  0  0  0  0  0  0  0  0  0
  190.0910  177.8930  144.6140 C   0  0  0  0  0  3  0  0  0  0  0  0
  186.4180  178.6960  141.8960 C   0  0  0  0  0  0  0  0  0  0  0  0
  185.5240  178.7990  144.5570 C   0  0  0  0  0  0  0  0  0  0  0  0
  187.8100  177.8070  138.2400 C   0  0  1  0  0  3  0  0  0  0  0  0
  186.7390  178.4130  140.4860 C   0  0  0  0  0  0  0  0  0  0  0  0
  188.4070  178.0080  139.9540 S   0  0  0  0  0  0  0  0  0  0  0  0
  188.0080  176.3660  137.8080 C   0  0  0  0  0  1  0  0  0  0  0  0
  185.8380  178.4430  139.5620 N   0  0  0  0  0  0  0  0  0  0  0  0
  186.3620  178.1310  138.2860 C   0  0  0  0  0  0  0  0  0  0  0  0
  185.6380  178.1480  137.2550 O   0  0  0  0  0  0  0  0  0  0  0  0
  1  4  1  0  0  0  0
  1 13  1  0  0  0  0
  2 18  1  0  0  0  0
  2  1  2  0  0  0  0
  4  7  1  0  0  0  0
  5  8  1  0  0  0  0
  6  3  2  0  0  0  0
  7  8  2  0  0  0  0
  7 14  1  0  0  0  0
  9 10  1  0  0  0  0
  9 18  2  0  0  0  0
 11  2  1  0  0  0  0
 12  5  2  0  0  0  0
 13  3  1  0  0  0  0
 13 14  2  0  0  0  0
 15  9  1  0  0  0  0
 16 12  1  0  0  0  0
 16  4  2  0  0  0  0
 17 15  2  0  0  0  0
 17 11  1  0  0  0  0
 18  6  1  0  0  0  0
 19 22  1  1  0  0  0
 19 24  1  0  0  0  0
 19 21  1  0  0  0  0
 20 17  1  0  0  0  0
 21 20  1  0  0  0  0
 23 20  2  0  0  0  0
 24 23  1  0  0  0  0
 25 24  2  0  0  0  0
M  END
>  <MODEL>
8

>  <REMARK>
 VINA RESULT:      -8.9      2.410      4.692
  Name = 
  1 active torsions:
  status: ('A' for Active; 'I' for Inactive)
    1  A    between atoms: C_6  and  C_23
                            x       y       z     vdW  Elec       q    Type
                         _______ _______ _______ _____ _____    ______ ____

>  <TORSDO>
F 1

$$$$
=
 OpenBabel10272400493D

 25 29  0  0  1  0  0  0  0  0999 V2000
  187.4230  177.7780  142.6100 C   0  0  0  0  0  0  0  0  0  0  0  0
  186.1970  178.6230  142.7540 C   0  0  1  0  0  3  0  0  0  0  0  0
  187.4770  177.1060  144.9450 C   0  0  0  0  0  3  0  0  0  0  0  0
  188.3220  177.6800  141.6480 C   0  0  0  0  0  0  0  0  0  0  0  0
  190.5060  177.2290  140.0010 C   0  0  0  0  0  3  0  0  0  0  0  0
  186.1310  177.7140  145.1040 C   0  0  0  0  0  3  0  0  0  0  0  0
  189.4180  176.9710  142.1270 C   0  0  0  0  0  0  0  0  0  0  0  0
  190.5250  176.7290  141.3140 C   0  0  0  0  0  3  0  0  0  0  0  0
  184.1230  178.8250  144.2120 C   0  0  0  0  0  0  0  0  0  0  0  0
  183.5320  179.0390  145.4900 N   0  0  0  0  0  1  0  0  0  0  0  0
  185.2240  178.4740  141.6210 C   0  0  0  0  0  3  0  0  0  0  0  0
  189.3990  177.9630  139.5270 C   0  0  0  0  0  3  0  0  0  0  0  0
  188.0410  177.1310  143.7400 C   0  0  0  0  0  0  0  0  0  0  0  0
  189.3180  176.6170  143.3730 N   0  0  0  0  0  0  0  0  0  0  0  0
  183.4060  178.9760  143.1360 N   0  0  0  0  0  0  0  0  0  0  0  0
  188.2900  178.2020  140.3560 C   0  0  0  0  0  3  0  0  0  0  0  0
  183.9150  178.7110  141.8110 C   0  0  0  0  0  0  0  0  0  0  0  0
  185.5170  178.3670  144.0920 C   0  0  0  0  0  0  0  0  0  0  0  0
  181.7530  178.8080  138.4330 C   0  0  1  0  0  3  0  0  0  0  0  0
  182.9760  178.6460  140.6780 C   0  0  0  0  0  0  0  0  0  0  0  0
  183.3210  179.4540  139.1100 S   0  0  0  0  0  0  0  0  0  0  0  0
  182.0560  177.8650  137.2840 C   0  0  0  0  0  1  0  0  0  0  0  0
  181.8580  178.0050  140.7530 N   0  0  0  0  0  0  0  0  0  0  0  0
  181.1180  178.0630  139.5500 C   0  0  0  0  0  0  0  0  0  0  0  0
  179.9830  177.5270  139.4480 O   0  0  0  0  0  0  0  0  0  0  0  0
  1  2  1  0  0  0  0
  1 13  1  0  0  0  0
  2 11  1  6  0  0  0
  2 18  1  0  0  0  0
  3  6  1  0  0  0  0
  4  7  1  0  0  0  0
  4  1  2  0  0  0  0
  5  8  2  0  0  0  0
  7 14  2  0  0  0  0
  8  7  1  0  0  0  0
  9 10  1  0  0  0  0
 11 17  2  0  0  0  0
 12  5  1  0  0  0  0
 12 16  2  0  0  0  0
 13  3  2  0  0  0  0
 14 13  1  0  0  0  0
 15  9  2  0  0  0  0
 16  4  1  0  0  0  0
 17 15  1  0  0  0  0
 18  9  1  0  0  0  0
 18  6  2  0  0  0  0
 19 22  1  6  0  0  0
 19 21  1  0  0  0  0
 19 24  1  0  0  0  0
 20 23  2  0  0  0  0
 20 17  1  0  0  0  0
 21 20  1  0  0  0  0
 24 23  1  0  0  0  0
 25 24  2  0  0  0  0
M  END
>  <MODEL>
9

>  <REMARK>
 VINA RESULT:      -8.9      3.593      6.214
  Name = 
  1 active torsions:
  status: ('A' for Active; 'I' for Inactive)
    1  A    between atoms: C_6  and  C_23
                            x       y       z     vdW  Elec       q    Type
                         _______ _______ _______ _____ _____    ______ ____

>  <TORSDO>
F 1

$$$$
