=
 OpenBabel10272400463D

 25 28  0  0  1  0  0  0  0  0999 V2000
  186.9910  177.9070  145.1380 C   0  0  0  0  0  0  0  0  0  0  0  0
  188.3360  177.6350  144.5280 C   0  0  0  0  0  0  0  0  0  0  0  0
  187.8890  177.6610  147.4190 N   0  0  0  0  0  0  0  0  0  0  0  0
  185.8220  178.2810  144.4630 C   0  0  0  0  0  0  0  0  0  0  0  0
  183.3370  179.0680  143.4670 C   0  0  0  0  0  3  0  0  0  0  0  0
  189.0550  177.3690  146.9880 N   0  0  0  0  0  0  0  0  0  0  0  0
  184.7590  178.5420  145.3240 C   0  0  0  0  0  0  0  0  0  0  0  0
  183.5090  178.9360  144.8530 C   0  0  0  0  0  3  0  0  0  0  0  0
  190.5860  176.8650  145.1870 C   0  0  2  0  0  3  0  0  0  0  0  0
  191.8580  176.5580  146.3590 Cl  0  0  0  0  0  0  0  0  0  0  0  0
  188.2560  176.2800  143.3170 S   0  0  0  0  0  0  0  0  0  0  0  0
  184.4060  178.8120  142.5870 C   0  0  0  0  0  3  0  0  0  0  0  0
  186.8200  177.9150  146.5100 C   0  0  0  0  0  0  0  0  0  0  0  0
  185.2420  178.3470  146.9270 S   0  0  0  0  0  0  0  0  0  0  0  0
  190.8920  176.7050  143.7910 N   0  0  0  0  0  0  0  0  0  0  0  0
  185.6600  178.4190  143.0820 C   0  0  0  0  0  3  0  0  0  0  0  0
  189.9860  176.5170  142.8750 C   0  0  0  0  0  0  0  0  0  0  0  0
  189.3680  177.2730  145.5830 C   0  0  0  0  0  0  0  0  0  0  0  0
  190.3750  176.5540  141.4380 C   0  0  0  0  0  2  0  0  0  0  0  0
  189.4710  177.4220  140.6970 N   0  0  0  0  0  2  0  0  0  0  0  0
  189.6330  177.7060  139.3040 C   0  0  0  0  0  0  0  0  0  0  0  0
  190.6390  177.2690  138.6810 O   0  0  0  0  0  0  0  0  0  0  0  0
  188.6280  178.5150  138.6030 C   0  0  0  0  0  0  0  0  0  0  0  0
  187.2560  178.4270  138.9710 N   0  0  0  0  0  1  0  0  0  0  0  0
  188.9800  179.3050  137.6430 N   0  0  0  0  0  2  0  0  0  0  0  0
  1 13  1  0  0  0  0
  2  1  2  0  0  0  0
  2 18  1  0  0  0  0
  4  1  1  0  0  0  0
  4  7  1  0  0  0  0
  5  8  1  0  0  0  0
  6  3  1  0  0  0  0
  7 14  1  0  0  0  0
  8  7  2  0  0  0  0
  9 18  1  0  0  0  0
  9 10  1  6  0  0  0
 11  2  1  0  0  0  0
 12 16  1  0  0  0  0
 12  5  2  0  0  0  0
 13 14  1  0  0  0  0
 13  3  2  0  0  0  0
 15  9  1  0  0  0  0
 16  4  2  0  0  0  0
 17 11  1  0  0  0  0
 17 15  2  0  0  0  0
 18  6  2  0  0  0  0
 19 17  1  0  0  0  0
 20 19  1  0  0  0  0
 21 20  1  0  0  0  0
 22 21  2  0  0  0  0
 23 24  1  0  0  0  0
 23 21  1  0  0  0  0
 25 23  2  0  0  0  0
M  END
>  <MODEL>
1

>  <REMARK>
 VINA RESULT:     -10.0      0.000      0.000
  Name = 
  3 active torsions:
  status: ('A' for Active; 'I' for Inactive)
    1  A    between atoms: C_2  and  C_21
    2  A    between atoms: C_6  and  N_15
    3  A    between atoms: C_6  and  C_23
                            x       y       z     vdW  Elec       q    Type
                         _______ _______ _______ _____ _____    ______ ____

>  <TORSDO>
F 3

$$$$
=
 OpenBabel10272400463D

 25 28  0  0  1  0  0  0  0  0999 V2000
  186.8920  178.1910  142.6960 C   0  0  0  0  0  0  0  0  0  0  0  0
  188.2180  177.6130  142.2910 C   0  0  0  0  0  0  0  0  0  0  0  0
  186.3350  178.7520  140.3630 N   0  0  0  0  0  0  0  0  0  0  0  0
  186.3260  178.1790  143.9760 C   0  0  0  0  0  0  0  0  0  0  0  0
  184.8870  178.3040  146.3640 C   0  0  0  0  0  3  0  0  0  0  0  0
  187.4620  178.3310  139.9330 N   0  0  0  0  0  0  0  0  0  0  0  0
  185.0450  178.7220  144.0090 C   0  0  0  0  0  0  0  0  0  0  0  0
  184.3060  178.7970  145.1860 C   0  0  0  0  0  3  0  0  0  0  0  0
  189.6870  177.4670  140.3140 C   0  0  2  0  0  3  0  0  0  0  0  0
  190.0070  177.5430  138.5880 Cl  0  0  0  0  0  0  0  0  0  0  0  0
  189.5860  178.3710  143.2180 S   0  0  0  0  0  0  0  0  0  0  0  0
  186.1790  177.7460  146.3430 C   0  0  0  0  0  3  0  0  0  0  0  0
  186.0270  178.7170  141.7550 C   0  0  0  0  0  0  0  0  0  0  0  0
  184.5730  179.2020  142.4630 S   0  0  0  0  0  0  0  0  0  0  0  0
  190.7340  176.9990  141.1810 N   0  0  0  0  0  0  0  0  0  0  0  0
  186.9070  177.6770  145.1450 C   0  0  0  0  0  3  0  0  0  0  0  0
  190.7770  177.2560  142.4560 C   0  0  0  0  0  0  0  0  0  0  0  0
  188.4830  177.8040  140.8060 C   0  0  0  0  0  0  0  0  0  0  0  0
  191.7890  176.5730  143.3100 C   0  0  0  0  0  2  0  0  0  0  0  0
  191.5400  176.8670  144.7150 N   0  0  0  0  0  2  0  0  0  0  0  0
  191.8710  175.9580  145.7690 C   0  0  0  0  0  0  0  0  0  0  0  0
  192.3220  174.8120  145.5000 O   0  0  0  0  0  0  0  0  0  0  0  0
  191.6760  176.3630  147.1670 C   0  0  0  0  0  0  0  0  0  0  0  0
  192.6770  176.0810  148.1390 N   0  0  0  0  0  1  0  0  0  0  0  0
  190.5930  176.9690  147.5260 N   0  0  0  0  0  2  0  0  0  0  0  0
  1  4  1  0  0  0  0
  2  1  1  0  0  0  0
  2 11  1  0  0  0  0
  3 13  1  0  0  0  0
  4  7  2  0  0  0  0
  4 16  1  0  0  0  0
  6  3  2  0  0  0  0
  6 18  1  0  0  0  0
  7  8  1  0  0  0  0
  8  5  2  0  0  0  0
  9 10  1  6  0  0  0
  9 18  1  0  0  0  0
  9 15  1  0  0  0  0
 12  5  1  0  0  0  0
 13 14  1  0  0  0  0
 13  1  2  0  0  0  0
 14  7  1  0  0  0  0
 15 17  2  0  0  0  0
 16 12  2  0  0  0  0
 17 11  1  0  0  0  0
 17 19  1  0  0  0  0
 18  2  2  0  0  0  0
 19 20  1  0  0  0  0
 20 21  1  0  0  0  0
 21 23  1  0  0  0  0
 22 21  2  0  0  0  0
 23 25  2  0  0  0  0
 23 24  1  0  0  0  0
M  END
>  <MODEL>
2

>  <REMARK>
 VINA RESULT:      -9.5      2.849      5.562
  Name = 
  3 active torsions:
  status: ('A' for Active; 'I' for Inactive)
    1  A    between atoms: C_2  and  C_21
    2  A    between atoms: C_6  and  N_15
    3  A    between atoms: C_6  and  C_23
                            x       y       z     vdW  Elec       q    Type
                         _______ _______ _______ _____ _____    ______ ____

>  <TORSDO>
F 3

$$$$
=
 OpenBabel10272400463D

 25 28  0  0  1  0  0  0  0  0999 V2000
  186.0360  178.1820  144.7330 C   0  0  0  0  0  0  0  0  0  0  0  0
  185.1710  178.2040  143.5060 C   0  0  0  0  0  0  0  0  0  0  0  0
  184.1490  178.8480  146.1710 N   0  0  0  0  0  0  0  0  0  0  0  0
  187.3700  177.7660  144.8130 C   0  0  0  0  0  0  0  0  0  0  0  0
  189.9950  176.9840  145.3520 C   0  0  0  0  0  3  0  0  0  0  0  0
  183.3520  178.9430  145.1770 N   0  0  0  0  0  0  0  0  0  0  0  0
  187.8680  177.7870  146.1140 C   0  0  0  0  0  0  0  0  0  0  0  0
  189.1730  177.4020  146.4090 C   0  0  0  0  0  3  0  0  0  0  0  0
  182.9160  178.9140  142.8000 C   0  0  2  0  0  3  0  0  0  0  0  0
  181.2460  179.3660  143.1050 Cl  0  0  0  0  0  0  0  0  0  0  0  0
  185.8810  179.2620  142.2090 S   0  0  0  0  0  0  0  0  0  0  0  0
  189.5010  176.9540  144.0340 C   0  0  0  0  0  3  0  0  0  0  0  0
  185.5160  178.4890  145.9770 C   0  0  0  0  0  0  0  0  0  0  0  0
  186.6720  178.2890  147.1900 S   0  0  0  0  0  0  0  0  0  0  0  0
  183.3360  178.7390  141.4360 N   0  0  0  0  0  0  0  0  0  0  0  0
  188.1810  177.3420  143.7570 C   0  0  0  0  0  3  0  0  0  0  0  0
  184.5790  178.7960  141.0550 C   0  0  0  0  0  0  0  0  0  0  0  0
  183.7690  178.7040  143.8160 C   0  0  0  0  0  0  0  0  0  0  0  0
  184.9400  178.4130  139.6620 C   0  0  0  0  0  2  0  0  0  0  0  0
  186.3630  178.6220  139.4370 N   0  0  0  0  0  2  0  0  0  0  0  0
  187.0740  178.0290  138.3470 C   0  0  0  0  0  0  0  0  0  0  0  0
  186.4910  177.2170  137.5770 O   0  0  0  0  0  0  0  0  0  0  0  0
  188.4880  178.3620  138.1310 C   0  0  0  0  0  0  0  0  0  0  0  0
  189.5090  177.5380  138.6830 N   0  0  0  0  0  1  0  0  0  0  0  0
  188.8150  179.4070  137.4460 N   0  0  0  0  0  2  0  0  0  0  0  0
  1  4  1  0  0  0  0
  1 13  2  0  0  0  0
  2 18  2  0  0  0  0
  2  1  1  0  0  0  0
  4  7  1  0  0  0  0
  5  8  1  0  0  0  0
  6  3  2  0  0  0  0
  7  8  2  0  0  0  0
  7 14  1  0  0  0  0
  9 10  1  1  0  0  0
  9 18  1  0  0  0  0
 11  2  1  0  0  0  0
 12  5  2  0  0  0  0
 13  3  1  0  0  0  0
 13 14  1  0  0  0  0
 15  9  1  0  0  0  0
 16 12  1  0  0  0  0
 16  4  2  0  0  0  0
 17 15  2  0  0  0  0
 17 11  1  0  0  0  0
 18  6  1  0  0  0  0
 19 17  1  0  0  0  0
 20 19  1  0  0  0  0
 21 20  1  0  0  0  0
 22 21  2  0  0  0  0
 23 21  1  0  0  0  0
 23 24  1  0  0  0  0
 25 23  2  0  0  0  0
M  END
>  <MODEL>
3

>  <REMARK>
 VINA RESULT:      -9.4      3.263      5.107
  Name = 
  3 active torsions:
  status: ('A' for Active; 'I' for Inactive)
    1  A    between atoms: C_2  and  C_21
    2  A    between atoms: C_6  and  N_15
    3  A    between atoms: C_6  and  C_23
                            x       y       z     vdW  Elec       q    Type
                         _______ _______ _______ _____ _____    ______ ____

>  <TORSDO>
F 3

$$$$
=
 OpenBabel10272400463D

 25 28  0  0  1  0  0  0  0  0999 V2000
  189.5380  177.5200  144.5910 C   0  0  0  0  0  0  0  0  0  0  0  0
  188.9660  178.0060  143.2900 C   0  0  0  0  0  0  0  0  0  0  0  0
  191.6070  176.7620  143.4890 N   0  0  0  0  0  0  0  0  0  0  0  0
  188.9780  177.6750  145.8650 C   0  0  0  0  0  0  0  0  0  0  0  0
  188.1870  177.8320  148.5370 C   0  0  0  0  0  3  0  0  0  0  0  0
  191.1800  177.0980  142.3330 N   0  0  0  0  0  0  0  0  0  0  0  0
  189.7960  177.1860  146.8800 C   0  0  0  0  0  0  0  0  0  0  0  0
  189.4250  177.2520  148.2210 C   0  0  0  0  0  3  0  0  0  0  0  0
  189.4360  177.9090  140.8700 C   0  0  2  0  0  3  0  0  0  0  0  0
  190.4860  177.6570  139.4840 Cl  0  0  0  0  0  0  0  0  0  0  0  0
  187.3260  177.2880  142.9740 S   0  0  0  0  0  0  0  0  0  0  0  0
  187.3550  178.3350  147.5200 C   0  0  0  0  0  3  0  0  0  0  0  0
  190.7920  176.9410  144.6460 C   0  0  0  0  0  0  0  0  0  0  0  0
  191.2300  176.5810  146.2360 S   0  0  0  0  0  0  0  0  0  0  0  0
  188.1110  178.4170  140.6370 N   0  0  0  0  0  0  0  0  0  0  0  0
  187.7480  178.2630  146.1740 C   0  0  0  0  0  3  0  0  0  0  0  0
  187.1320  178.2800  141.4830 C   0  0  0  0  0  0  0  0  0  0  0  0
  189.8710  177.6660  142.1170 C   0  0  0  0  0  0  0  0  0  0  0  0
  185.8500  179.0020  141.2470 C   0  0  0  0  0  2  0  0  0  0  0  0
  185.1340  179.1740  142.5040 N   0  0  0  0  0  2  0  0  0  0  0  0
  183.7660  178.7940  142.6770 C   0  0  0  0  0  0  0  0  0  0  0  0
  183.0970  178.3660  141.6970 O   0  0  0  0  0  0  0  0  0  0  0  0
  183.1380  178.9110  144.0000 C   0  0  0  0  0  0  0  0  0  0  0  0
  183.9390  179.1510  145.1520 N   0  0  0  0  0  1  0  0  0  0  0  0
  181.8590  178.7880  144.1280 N   0  0  0  0  0  2  0  0  0  0  0  0
  1 13  2  0  0  0  0
  1  4  1  0  0  0  0
  2  1  1  0  0  0  0
  3 13  1  0  0  0  0
  4 16  2  0  0  0  0
  4  7  1  0  0  0  0
  6  3  2  0  0  0  0
  7  8  2  0  0  0  0
  8  5  1  0  0  0  0
  9 10  1  1  0  0  0
  9 18  1  0  0  0  0
 11  2  1  0  0  0  0
 12  5  2  0  0  0  0
 13 14  1  0  0  0  0
 14  7  1  0  0  0  0
 15  9  1  0  0  0  0
 15 17  2  0  0  0  0
 16 12  1  0  0  0  0
 17 11  1  0  0  0  0
 18  6  1  0  0  0  0
 18  2  2  0  0  0  0
 19 17  1  0  0  0  0
 19 20  1  0  0  0  0
 20 21  1  0  0  0  0
 21 23  1  0  0  0  0
 22 21  2  0  0  0  0
 23 25  2  0  0  0  0
 23 24  1  0  0  0  0
M  END
>  <MODEL>
4

>  <REMARK>
 VINA RESULT:      -9.1      3.266      5.663
  Name = 
  3 active torsions:
  status: ('A' for Active; 'I' for Inactive)
    1  A    between atoms: C_2  and  C_21
    2  A    between atoms: C_6  and  N_15
    3  A    between atoms: C_6  and  C_23
                            x       y       z     vdW  Elec       q    Type
                         _______ _______ _______ _____ _____    ______ ____

>  <TORSDO>
F 3

$$$$
=
 OpenBabel10272400463D

 25 28  0  0  1  0  0  0  0  0999 V2000
  185.4950  178.4970  144.4720 C   0  0  0  0  0  0  0  0  0  0  0  0
  186.8790  178.3950  145.0460 C   0  0  0  0  0  0  0  0  0  0  0  0
  184.4830  178.5690  146.7170 N   0  0  0  0  0  0  0  0  0  0  0  0
  185.1540  178.6290  143.1210 C   0  0  0  0  0  0  0  0  0  0  0  0
  184.1130  178.9360  140.5490 C   0  0  0  0  0  3  0  0  0  0  0  0
  185.6150  178.4330  147.2930 N   0  0  0  0  0  0  0  0  0  0  0  0
  183.7840  178.7830  142.9190 C   0  0  0  0  0  0  0  0  0  0  0  0
  183.2400  178.9380  141.6470 C   0  0  0  0  0  3  0  0  0  0  0  0
  187.9990  178.0430  147.2160 C   0  0  2  0  0  3  0  0  0  0  0  0
  188.0490  178.0300  148.9720 Cl  0  0  0  0  0  0  0  0  0  0  0  0
  187.7720  176.9580  144.3820 S   0  0  0  0  0  0  0  0  0  0  0  0
  185.5000  178.7870  140.7410 C   0  0  0  0  0  3  0  0  0  0  0  0
  184.3860  178.5810  145.2940 C   0  0  0  0  0  0  0  0  0  0  0  0
  182.9720  178.7880  144.3960 S   0  0  0  0  0  0  0  0  0  0  0  0
  189.2260  177.8280  146.4980 N   0  0  0  0  0  0  0  0  0  0  0  0
  186.0300  178.6350  142.0320 C   0  0  0  0  0  3  0  0  0  0  0  0
  189.2720  177.4300  145.2600 C   0  0  0  0  0  0  0  0  0  0  0  0
  186.8500  178.2820  146.5620 C   0  0  0  0  0  0  0  0  0  0  0  0
  190.5750  177.4200  144.5380 C   0  0  0  0  0  2  0  0  0  0  0  0
  190.3630  177.6580  143.1170 N   0  0  0  0  0  2  0  0  0  0  0  0
  190.3160  176.6040  142.1510 C   0  0  0  0  0  0  0  0  0  0  0  0
  190.5480  175.4140  142.4990 O   0  0  0  0  0  0  0  0  0  0  0  0
  190.0030  176.9130  140.7500 C   0  0  0  0  0  0  0  0  0  0  0  0
  189.1780  178.0280  140.4300 N   0  0  0  0  0  1  0  0  0  0  0  0
  190.4680  176.1720  139.7990 N   0  0  0  0  0  2  0  0  0  0  0  0
  1  2  2  0  0  0  0
  1 13  1  0  0  0  0
  2 18  1  0  0  0  0
  3  6  1  0  0  0  0
  4  1  1  0  0  0  0
  5 12  2  0  0  0  0
  5  8  1  0  0  0  0
  7  4  1  0  0  0  0
  7 14  1  0  0  0  0
  8  7  2  0  0  0  0
  9 10  1  1  0  0  0
 11  2  1  0  0  0  0
 11 17  1  0  0  0  0
 12 16  1  0  0  0  0
 13  3  2  0  0  0  0
 14 13  1  0  0  0  0
 15  9  1  0  0  0  0
 16  4  2  0  0  0  0
 17 15  2  0  0  0  0
 18  9  1  0  0  0  0
 18  6  2  0  0  0  0
 19 17  1  0  0  0  0
 20 19  1  0  0  0  0
 21 22  2  0  0  0  0
 21 20  1  0  0  0  0
 23 21  1  0  0  0  0
 24 23  1  0  0  0  0
 25 23  2  0  0  0  0
M  END
>  <MODEL>
5

>  <REMARK>
 VINA RESULT:      -8.9      1.977      3.013
  Name = 
  3 active torsions:
  status: ('A' for Active; 'I' for Inactive)
    1  A    between atoms: C_2  and  C_21
    2  A    between atoms: C_6  and  N_15
    3  A    between atoms: C_6  and  C_23
                            x       y       z     vdW  Elec       q    Type
                         _______ _______ _______ _____ _____    ______ ____

>  <TORSDO>
F 3

$$$$
=
 OpenBabel10272400463D

 25 28  0  0  1  0  0  0  0  0999 V2000
  186.8360  178.0690  145.0520 C   0  0  0  0  0  0  0  0  0  0  0  0
  188.0970  177.8560  144.2640 C   0  0  0  0  0  0  0  0  0  0  0  0
  188.0320  177.7990  147.1890 N   0  0  0  0  0  0  0  0  0  0  0  0
  185.5790  178.4210  144.5460 C   0  0  0  0  0  0  0  0  0  0  0  0
  182.9630  179.1500  143.9030 C   0  0  0  0  0  3  0  0  0  0  0  0
  189.1400  177.5550  146.6020 N   0  0  0  0  0  0  0  0  0  0  0  0
  184.6310  178.6270  145.5440 C   0  0  0  0  0  0  0  0  0  0  0  0
  183.3190  178.9910  145.2510 C   0  0  0  0  0  3  0  0  0  0  0  0
  190.4350  177.1440  144.6040 C   0  0  2  0  0  3  0  0  0  0  0  0
  191.8580  176.8500  145.5910 Cl  0  0  0  0  0  0  0  0  0  0  0  0
  187.8990  176.5290  143.0370 S   0  0  0  0  0  0  0  0  0  0  0  0
  183.9140  178.9510  142.8850 C   0  0  0  0  0  3  0  0  0  0  0  0
  186.8460  178.0390  146.4340 C   0  0  0  0  0  0  0  0  0  0  0  0
  185.3240  178.4090  147.0650 S   0  0  0  0  0  0  0  0  0  0  0  0
  190.5600  177.0270  143.1760 N   0  0  0  0  0  0  0  0  0  0  0  0
  185.2330  178.5870  143.2020 C   0  0  0  0  0  3  0  0  0  0  0  0
  189.5490  176.8310  142.3810 C   0  0  0  0  0  0  0  0  0  0  0  0
  189.2690  177.5020  145.1660 C   0  0  0  0  0  0  0  0  0  0  0  0
  189.7450  176.9150  140.9060 C   0  0  0  0  0  2  0  0  0  0  0  0
  191.1640  176.8600  140.5860 N   0  0  0  0  0  2  0  0  0  0  0  0
  191.6590  176.8830  139.2440 C   0  0  0  0  0  0  0  0  0  0  0  0
  190.8560  176.8650  138.2710 O   0  0  0  0  0  0  0  0  0  0  0  0
  193.1070  176.9190  139.0020 C   0  0  0  0  0  0  0  0  0  0  0  0
  193.6300  176.5390  137.7340 N   0  0  0  0  0  2  0  0  0  0  0  0
  193.9160  177.2870  139.9390 N   0  0  0  0  0  1  0  0  0  0  0  0
  1 13  1  0  0  0  0
  2  1  2  0  0  0  0
  2 18  1  0  0  0  0
  4  1  1  0  0  0  0
  4  7  1  0  0  0  0
  5  8  1  0  0  0  0
  6  3  1  0  0  0  0
  7 14  1  0  0  0  0
  8  7  2  0  0  0  0
  9 18  1  0  0  0  0
  9 10  1  6  0  0  0
 11  2  1  0  0  0  0
 12 16  1  0  0  0  0
 12  5  2  0  0  0  0
 13 14  1  0  0  0  0
 13  3  2  0  0  0  0
 15  9  1  0  0  0  0
 16  4  2  0  0  0  0
 17 11  1  0  0  0  0
 17 15  2  0  0  0  0
 18  6  2  0  0  0  0
 19 17  1  0  0  0  0
 20 19  1  0  0  0  0
 21 20  1  0  0  0  0
 22 21  2  0  0  0  0
 23 21  1  0  0  0  0
 23 25  1  0  0  0  0
 24 23  2  0  0  0  0
M  END
>  <MODEL>
6

>  <REMARK>
 VINA RESULT:      -8.8      1.717      2.154
  Name = 
  3 active torsions:
  status: ('A' for Active; 'I' for Inactive)
    1  A    between atoms: C_2  and  C_21
    2  A    between atoms: C_6  and  N_15
    3  A    between atoms: C_6  and  C_23
                            x       y       z     vdW  Elec       q    Type
                         _______ _______ _______ _____ _____    ______ ____

>  <TORSDO>
F 3

$$$$
=
 OpenBabel10272400463D

 25 28  0  0  1  0  0  0  0  0999 V2000
  189.5400  177.5700  144.0870 C   0  0  0  0  0  0  0  0  0  0  0  0
  188.7390  178.1290  142.9470 C   0  0  0  0  0  0  0  0  0  0  0  0
  191.4010  176.9680  142.5890 N   0  0  0  0  0  0  0  0  0  0  0  0
  189.2090  177.6120  145.4470 C   0  0  0  0  0  0  0  0  0  0  0  0
  188.8950  177.5460  148.2190 C   0  0  0  0  0  3  0  0  0  0  0  0
  190.7710  177.3720  141.5530 N   0  0  0  0  0  0  0  0  0  0  0  0
  190.2020  177.0800  146.2650 C   0  0  0  0  0  0  0  0  0  0  0  0
  190.0710  177.0340  147.6500 C   0  0  0  0  0  3  0  0  0  0  0  0
  188.7800  178.2250  140.4810 C   0  0  2  0  0  3  0  0  0  0  0  0
  189.5770  178.1120  138.9200 Cl  0  0  0  0  0  0  0  0  0  0  0  0
  187.0850  177.3780  142.8640 S   0  0  0  0  0  0  0  0  0  0  0  0
  187.8860  178.0920  147.4040 C   0  0  0  0  0  3  0  0  0  0  0  0
  190.7970  177.0330  143.8790 C   0  0  0  0  0  0  0  0  0  0  0  0
  191.5150  176.5740  145.3370 S   0  0  0  0  0  0  0  0  0  0  0  0
  187.4240  178.7010  140.5220 N   0  0  0  0  0  0  0  0  0  0  0  0
  188.0390  178.1320  146.0090 C   0  0  0  0  0  3  0  0  0  0  0  0
  186.6110  178.4690  141.5110 C   0  0  0  0  0  0  0  0  0  0  0  0
  189.4320  177.9070  141.6120 C   0  0  0  0  0  0  0  0  0  0  0  0
  185.2920  179.1590  141.5570 C   0  0  0  0  0  2  0  0  0  0  0  0
  184.3690  178.5400  140.6160 N   0  0  0  0  0  2  0  0  0  0  0  0
  184.0040  179.1470  139.3730 C   0  0  0  0  0  0  0  0  0  0  0  0
  184.4150  180.3050  139.0870 O   0  0  0  0  0  0  0  0  0  0  0  0
  183.1420  178.4190  138.4330 C   0  0  0  0  0  0  0  0  0  0  0  0
  183.4540  177.0800  138.0660 N   0  0  0  0  0  1  0  0  0  0  0  0
  182.1010  178.9920  137.9260 N   0  0  0  0  0  2  0  0  0  0  0  0
  1  4  1  0  0  0  0
  2  1  1  0  0  0  0
  3 13  1  0  0  0  0
  4 16  2  0  0  0  0
  4  7  1  0  0  0  0
  6 18  1  0  0  0  0
  6  3  2  0  0  0  0
  7  8  2  0  0  0  0
  8  5  1  0  0  0  0
  9 10  1  1  0  0  0
  9 15  1  0  0  0  0
  9 18  1  0  0  0  0
 11  2  1  0  0  0  0
 12  5  2  0  0  0  0
 13  1  2  0  0  0  0
 13 14  1  0  0  0  0
 14  7  1  0  0  0  0
 15 17  2  0  0  0  0
 16 12  1  0  0  0  0
 17 19  1  0  0  0  0
 17 11  1  0  0  0  0
 18  2  2  0  0  0  0
 20 19  1  0  0  0  0
 21 20  1  0  0  0  0
 22 21  2  0  0  0  0
 23 21  1  0  0  0  0
 24 23  1  0  0  0  0
 25 23  2  0  0  0  0
M  END
>  <MODEL>
7

>  <REMARK>
 VINA RESULT:      -8.6      3.325      5.452
  Name = 
  3 active torsions:
  status: ('A' for Active; 'I' for Inactive)
    1  A    between atoms: C_2  and  C_21
    2  A    between atoms: C_6  and  N_15
    3  A    between atoms: C_6  and  C_23
                            x       y       z     vdW  Elec       q    Type
                         _______ _______ _______ _____ _____    ______ ____

>  <TORSDO>
F 3

$$$$
=
 OpenBabel10272400463D

 25 28  0  0  1  0  0  0  0  0999 V2000
  189.6250  177.4590  144.8430 C   0  0  0  0  0  0  0  0  0  0  0  0
  189.5200  177.8050  143.3860 C   0  0  0  0  0  0  0  0  0  0  0  0
  191.9780  176.7750  144.5920 N   0  0  0  0  0  0  0  0  0  0  0  0
  188.6520  177.6660  145.8280 C   0  0  0  0  0  0  0  0  0  0  0  0
  186.9770  177.9600  148.0410 C   0  0  0  0  0  3  0  0  0  0  0  0
  191.9660  176.9930  143.3330 N   0  0  0  0  0  0  0  0  0  0  0  0
  189.0870  177.3140  147.1030 C   0  0  0  0  0  0  0  0  0  0  0  0
  188.2710  177.4500  148.2240 C   0  0  0  0  0  3  0  0  0  0  0  0
  190.8040  177.5650  141.2920 C   0  0  2  0  0  3  0  0  0  0  0  0
  192.2800  177.2900  140.3800 Cl  0  0  0  0  0  0  0  0  0  0  0  0
  188.1240  176.9480  142.5960 S   0  0  0  0  0  0  0  0  0  0  0  0
  186.5290  178.3260  146.7580 C   0  0  0  0  0  3  0  0  0  0  0  0
  190.8060  176.9780  145.3780 C   0  0  0  0  0  0  0  0  0  0  0  0
  190.6810  176.7680  147.0480 S   0  0  0  0  0  0  0  0  0  0  0  0
  189.6210  177.9570  140.5740 N   0  0  0  0  0  0  0  0  0  0  0  0
  187.3670  178.1840  145.6410 C   0  0  0  0  0  3  0  0  0  0  0  0
  188.4160  177.8120  141.0430 C   0  0  0  0  0  0  0  0  0  0  0  0
  190.7890  177.4470  142.6300 C   0  0  0  0  0  0  0  0  0  0  0  0
  187.2660  178.4190  140.3170 C   0  0  0  0  0  2  0  0  0  0  0  0
  186.0650  178.3560  141.1380 N   0  0  0  0  0  2  0  0  0  0  0  0
  184.8410  179.0020  140.7750 C   0  0  0  0  0  0  0  0  0  0  0  0
  184.7900  179.7350  139.7500 O   0  0  0  0  0  0  0  0  0  0  0  0
  183.6450  178.8140  141.6060 C   0  0  0  0  0  0  0  0  0  0  0  0
  183.7570  178.7850  143.0250 N   0  0  0  0  0  1  0  0  0  0  0  0
  182.4850  178.6660  141.0560 N   0  0  0  0  0  2  0  0  0  0  0  0
  1 13  2  0  0  0  0
  1  4  1  0  0  0  0
  2  1  1  0  0  0  0
  3 13  1  0  0  0  0
  4  7  1  0  0  0  0
  5  8  1  0  0  0  0
  6  3  2  0  0  0  0
  7  8  2  0  0  0  0
  9 10  1  1  0  0  0
  9 18  1  0  0  0  0
 11  2  1  0  0  0  0
 12  5  2  0  0  0  0
 13 14  1  0  0  0  0
 14  7  1  0  0  0  0
 15 17  2  0  0  0  0
 15  9  1  0  0  0  0
 16  4  2  0  0  0  0
 16 12  1  0  0  0  0
 17 11  1  0  0  0  0
 18  6  1  0  0  0  0
 18  2  2  0  0  0  0
 19 17  1  0  0  0  0
 19 20  1  0  0  0  0
 21 20  1  0  0  0  0
 21 23  1  0  0  0  0
 22 21  2  0  0  0  0
 23 24  1  0  0  0  0
 25 23  2  0  0  0  0
M  END
>  <MODEL>
8

>  <REMARK>
 VINA RESULT:      -8.5      2.921      4.655
  Name = 
  3 active torsions:
  status: ('A' for Active; 'I' for Inactive)
    1  A    between atoms: C_2  and  C_21
    2  A    between atoms: C_6  and  N_15
    3  A    between atoms: C_6  and  C_23
                            x       y       z     vdW  Elec       q    Type
                         _______ _______ _______ _____ _____    ______ ____

>  <TORSDO>
F 3

$$$$
=
 OpenBabel10272400463D

 25 28  0  0  1  0  0  0  0  0999 V2000
  187.8950  178.1200  141.2700 C   0  0  0  0  0  0  0  0  0  0  0  0
  187.3130  178.2760  142.6450 C   0  0  0  0  0  0  0  0  0  0  0  0
  185.7760  178.7930  140.2100 N   0  0  0  0  0  0  0  0  0  0  0  0
  189.2260  177.8250  140.9490 C   0  0  0  0  0  0  0  0  0  0  0  0
  191.7750  177.2940  139.9450 C   0  0  0  0  0  3  0  0  0  0  0  0
  185.1820  178.9020  141.3360 N   0  0  0  0  0  0  0  0  0  0  0  0
  189.4680  177.8300  139.5770 C   0  0  0  0  0  0  0  0  0  0  0  0
  190.7300  177.5680  139.0510 C   0  0  0  0  0  3  0  0  0  0  0  0
  185.1340  178.6500  143.7390 C   0  0  2  0  0  3  0  0  0  0  0  0
  183.4530  179.1610  143.7550 Cl  0  0  0  0  0  0  0  0  0  0  0  0
  187.5190  176.7630  143.6320 S   0  0  0  0  0  0  0  0  0  0  0  0
  191.5450  177.2920  141.3330 C   0  0  0  0  0  3  0  0  0  0  0  0
  187.1380  178.3770  140.1420 C   0  0  0  0  0  0  0  0  0  0  0  0
  188.0610  178.2240  138.7370 S   0  0  0  0  0  0  0  0  0  0  0  0
  185.7540  178.3070  144.9910 N   0  0  0  0  0  0  0  0  0  0  0  0
  190.2660  177.5620  141.8450 C   0  0  0  0  0  3  0  0  0  0  0  0
  186.8180  177.5640  145.0840 C   0  0  0  0  0  0  0  0  0  0  0  0
  185.8330  178.6150  142.5930 C   0  0  0  0  0  0  0  0  0  0  0  0
  187.5000  177.4190  146.4000 C   0  0  0  0  0  2  0  0  0  0  0  0
  188.8900  177.0290  146.2040 N   0  0  0  0  0  2  0  0  0  0  0  0
  189.9100  177.2730  147.1760 C   0  0  0  0  0  0  0  0  0  0  0  0
  189.6470  177.9270  148.2220 O   0  0  0  0  0  0  0  0  0  0  0  0
  191.2700  176.7670  146.9480 C   0  0  0  0  0  0  0  0  0  0  0  0
  191.7240  176.5090  145.6240 N   0  0  0  0  0  2  0  0  0  0  0  0
  192.0590  176.5450  147.9460 N   0  0  0  0  0  1  0  0  0  0  0  0
  1  2  2  0  0  0  0
  2 11  1  0  0  0  0
  3  6  1  0  0  0  0
  4  1  1  0  0  0  0
  4 16  1  0  0  0  0
  5 12  1  0  0  0  0
  6 18  2  0  0  0  0
  7  4  2  0  0  0  0
  8  7  1  0  0  0  0
  8  5  2  0  0  0  0
  9 10  1  1  0  0  0
  9 15  1  0  0  0  0
 11 17  1  0  0  0  0
 12 16  2  0  0  0  0
 13  3  2  0  0  0  0
 13  1  1  0  0  0  0
 14  7  1  0  0  0  0
 14 13  1  0  0  0  0
 15 17  2  0  0  0  0
 17 19  1  0  0  0  0
 18  2  1  0  0  0  0
 18  9  1  0  0  0  0
 20 19  1  0  0  0  0
 20 21  1  0  0  0  0
 21 22  2  0  0  0  0
 23 21  1  0  0  0  0
 23 25  1  0  0  0  0
 24 23  2  0  0  0  0
M  END
>  <MODEL>
9

>  <REMARK>
 VINA RESULT:      -8.5      3.333      7.088
  Name = 
  3 active torsions:
  status: ('A' for Active; 'I' for Inactive)
    1  A    between atoms: C_2  and  C_21
    2  A    between atoms: C_6  and  N_15
    3  A    between atoms: C_6  and  C_23
                            x       y       z     vdW  Elec       q    Type
                         _______ _______ _______ _____ _____    ______ ____

>  <TORSDO>
F 3

$$$$
