=
 OpenBabel10272415153D

 34 37  0  0  0  0  0  0  0  0999 V2000
  187.9110  177.1100  144.7750 C   0  0  0  0  0  0  0  0  0  0  0  0
  191.5370  176.6800  143.6590 C   0  0  0  0  0  3  0  0  0  0  0  0
  191.2000  177.1850  141.1430 C   0  0  0  0  0  0  0  0  0  0  0  0
  190.5100  177.2860  145.7640 N   0  0  0  0  0  0  0  0  0  0  0  0
  187.1010  177.8420  146.9930 C   0  0  0  0  0  3  0  0  0  0  0  0
  188.6870  178.3090  148.7590 C   0  0  0  0  0  3  0  0  0  0  0  0
  189.5950  178.5400  139.6670 C   0  0  0  0  0  1  0  0  0  0  0  0
  187.3680  178.2340  148.3070 C   0  0  0  0  0  3  0  0  0  0  0  0
  189.4750  177.5960  146.5830 C   0  0  0  0  0  0  0  0  0  0  0  0
  188.1440  177.5280  146.1090 C   0  0  0  0  0  0  0  0  0  0  0  0
  189.7380  177.9910  147.8980 C   0  0  0  0  0  3  0  0  0  0  0  0
  191.4750  176.9000  142.3810 C   0  0  0  0  0  0  0  0  0  0  0  0
  192.3220  177.3730  140.1800 C   0  0  0  0  0  1  0  0  0  0  0  0
  189.8150  177.6070  140.8070 C   0  0  0  0  0  0  0  0  0  0  0  0
  188.7300  177.1900  141.4820 C   0  0  0  0  0  3  0  0  0  0  0  0
  190.3280  176.8950  144.4780 C   0  0  0  0  0  0  0  0  0  0  0  0
  188.7390  176.1790  142.5990 C   0  0  0  0  0  2  0  0  0  0  0  0
  189.0090  176.7710  143.9620 C   0  0  0  0  0  0  0  0  0  0  0  0
  186.6280  176.9970  144.2080 O   0  0  0  0  0  0  0  0  0  0  0  0
  185.9650  178.0200  143.4740 C   0  0  0  0  0  2  0  0  0  0  0  0
  184.9400  178.7170  144.3580 C   0  0  0  0  0  2  0  0  0  0  0  0
  181.1800  178.7500  143.8960 C   0  0  0  0  0  3  0  0  0  0  0  0
  183.4800  178.7860  142.3080 C   0  0  0  0  0  3  0  0  0  0  0  0
  181.0670  178.7650  142.5020 C   0  0  0  0  0  3  0  0  0  0  0  0
  182.2170  178.7800  141.7070 C   0  0  0  0  0  0  0  0  0  0  0  0
  183.5950  178.7550  143.7050 C   0  0  0  0  0  0  0  0  0  0  0  0
  182.4430  178.7430  144.4970 C   0  0  0  0  0  3  0  0  0  0  0  0
  182.0960  178.7660  140.2210 C   0  0  0  0  0  2  0  0  0  0  0  0
  184.3150  178.9230  139.0010 C   0  0  0  0  0  0  0  0  0  0  0  0
  184.2720  180.1840  139.0120 O   0  0  0  0  0  0  0  0  0  0  0  0
  183.2770  178.1600  139.6200 N   0  0  0  0  0  2  0  0  0  0  0  0
  185.4370  178.2330  138.3610 C   0  0  0  0  0  0  0  0  0  0  0  0
  186.5930  178.7330  138.3900 O   0  0  0  0  0  0  0  0  0  0  0  0
  185.2370  177.0480  137.7350 F   0  0  0  0  0  0  0  0  0  0  0  0
  1 10  1  0  0  0  0
  2 16  1  0  0  0  0
  3 12  2  0  0  0  0
  4  9  1  0  0  0  0
  5  8  1  0  0  0  0
  7 14  1  0  0  0  0
  8  6  2  0  0  0  0
  9 11  2  0  0  0  0
 10  9  1  0  0  0  0
 10  5  2  0  0  0  0
 11  6  1  0  0  0  0
 12  2  2  0  0  0  0
 13  3  1  0  0  0  0
 14  3  1  0  0  0  0
 14 15  2  0  0  0  0
 15 17  1  0  0  0  0
 16  4  2  0  0  0  0
 17 18  1  0  0  0  0
 18 16  1  0  0  0  0
 18  1  2  0  0  0  0
 19  1  1  0  0  0  0
 20 19  1  0  0  0  0
 20 21  1  0  0  0  0
 22 27  1  0  0  0  0
 23 26  1  0  0  0  0
 24 22  2  0  0  0  0
 25 23  2  0  0  0  0
 25 24  1  0  0  0  0
 26 21  1  0  0  0  0
 26 27  2  0  0  0  0
 28 25  1  0  0  0  0
 29 30  2  0  0  0  0
 29 31  1  0  0  0  0
 31 28  1  0  0  0  0
 32 33  2  0  0  0  0
 32 29  1  0  0  0  0
 34 32  1  0  0  0  0
M  END
>  <MODEL>
1

>  <REMARK>
 VINA RESULT:     -10.1      0.000      0.000
  Name = 
  7 active torsions:
  status: ('A' for Active; 'I' for Inactive)
    1  A    between atoms: C_1  and  O_9
    2  A    between atoms: C_7  and  C_11
    3  A    between atoms: C_8  and  O_9
    4  A    between atoms: C_8  and  C_18
    5  A    between atoms: C_18  and  C_30
    6  A    between atoms: C_26  and  C_28
    7  A    between atoms: C_26  and  N_29
                            x       y       z     vdW  Elec       q    Type
                         _______ _______ _______ _____ _____    ______ ____

>  <TORSDO>
F 7

$$$$
=
 OpenBabel10272415153D

 34 37  0  0  0  0  0  0  0  0999 V2000
  189.3780  177.2650  140.9520 C   0  0  0  0  0  0  0  0  0  0  0  0
  189.1820  178.2450  137.2670 C   0  0  0  0  0  3  0  0  0  0  0  0
  190.8030  176.4560  136.3340 C   0  0  0  0  0  0  0  0  0  0  0  0
  187.6600  178.4890  139.1320 N   0  0  0  0  0  0  0  0  0  0  0  0
  187.6230  177.5390  142.6720 C   0  0  0  0  0  3  0  0  0  0  0  0
  185.5230  178.5890  142.0910 C   0  0  0  0  0  3  0  0  0  0  0  0
  191.6040  174.0960  136.9550 C   0  0  0  0  0  1  0  0  0  0  0  0
  186.3500  177.9820  143.0380 C   0  0  0  0  0  3  0  0  0  0  0  0
  187.2430  178.3150  140.4090 C   0  0  0  0  0  0  0  0  0  0  0  0
  188.0870  177.6860  141.3560 C   0  0  0  0  0  0  0  0  0  0  0  0
  185.9690  178.7550  140.7790 C   0  0  0  0  0  3  0  0  0  0  0  0
  189.9910  177.4010  136.7000 C   0  0  0  0  0  0  0  0  0  0  0  0
  190.9940  176.1890  134.8800 C   0  0  0  0  0  1  0  0  0  0  0  0
  191.2700  175.4890  137.3630 C   0  0  0  0  0  0  0  0  0  0  0  0
  191.4130  175.8030  138.6630 C   0  0  0  0  0  3  0  0  0  0  0  0
  188.8830  178.0880  138.7040 C   0  0  0  0  0  0  0  0  0  0  0  0
  191.2170  177.1770  139.2490 C   0  0  0  0  0  2  0  0  0  0  0  0
  189.7860  177.4870  139.6240 C   0  0  0  0  0  0  0  0  0  0  0  0
  190.2980  176.6420  141.8150 O   0  0  0  0  0  0  0  0  0  0  0  0
  191.3720  177.2980  142.4780 C   0  0  0  0  0  2  0  0  0  0  0  0
  190.8290  178.3470  143.4400 C   0  0  0  0  0  2  0  0  0  0  0  0
  191.4010  176.3900  146.6330 C   0  0  0  0  0  3  0  0  0  0  0  0
  189.4430  178.0460  145.5190 C   0  0  0  0  0  3  0  0  0  0  0  0
  190.2200  176.6470  147.3360 C   0  0  0  0  0  3  0  0  0  0  0  0
  189.2390  177.4730  146.7780 C   0  0  0  0  0  0  0  0  0  0  0  0
  190.6190  177.7760  144.8050 C   0  0  0  0  0  0  0  0  0  0  0  0
  191.5990  176.9520  145.3670 C   0  0  0  0  0  3  0  0  0  0  0  0
  187.9680  177.7230  147.5170 C   0  0  0  0  0  2  0  0  0  0  0  0
  185.9420  179.0600  146.7760 C   0  0  0  0  0  0  0  0  0  0  0  0
  186.0610  179.8480  147.7530 O   0  0  0  0  0  0  0  0  0  0  0  0
  186.8830  178.0000  146.5830 N   0  0  0  0  0  2  0  0  0  0  0  0
  184.8420  179.2310  145.8250 C   0  0  0  0  0  0  0  0  0  0  0  0
  183.7730  178.5790  145.9620 O   0  0  0  0  0  0  0  0  0  0  0  0
  184.9680  180.0970  144.7900 F   0  0  0  0  0  0  0  0  0  0  0  0
  1 10  1  0  0  0  0
  1 19  1  0  0  0  0
  2 16  1  0  0  0  0
  3 12  2  0  0  0  0
  3 14  1  0  0  0  0
  4  9  1  0  0  0  0
  5  8  1  0  0  0  0
  6  8  2  0  0  0  0
  7 14  1  0  0  0  0
  9 11  2  0  0  0  0
  9 10  1  0  0  0  0
 10  5  2  0  0  0  0
 11  6  1  0  0  0  0
 12  2  2  0  0  0  0
 13  3  1  0  0  0  0
 14 15  2  0  0  0  0
 15 17  1  0  0  0  0
 16  4  2  0  0  0  0
 16 18  1  0  0  0  0
 17 18  1  0  0  0  0
 18  1  2  0  0  0  0
 19 20  1  0  0  0  0
 20 21  1  0  0  0  0
 21 26  1  0  0  0  0
 22 24  1  0  0  0  0
 23 25  1  0  0  0  0
 25 24  2  0  0  0  0
 25 28  1  0  0  0  0
 26 27  1  0  0  0  0
 26 23  2  0  0  0  0
 27 22  2  0  0  0  0
 29 30  2  0  0  0  0
 31 29  1  0  0  0  0
 31 28  1  0  0  0  0
 32 33  2  0  0  0  0
 32 29  1  0  0  0  0
 34 32  1  0  0  0  0
M  END
>  <MODEL>
2

>  <REMARK>
 VINA RESULT:     -10.0      3.035      6.939
  Name = 
  7 active torsions:
  status: ('A' for Active; 'I' for Inactive)
    1  A    between atoms: C_1  and  O_9
    2  A    between atoms: C_7  and  C_11
    3  A    between atoms: C_8  and  O_9
    4  A    between atoms: C_8  and  C_18
    5  A    between atoms: C_18  and  C_30
    6  A    between atoms: C_26  and  C_28
    7  A    between atoms: C_26  and  N_29
                            x       y       z     vdW  Elec       q    Type
                         _______ _______ _______ _____ _____    ______ ____

>  <TORSDO>
F 7

$$$$
=
 OpenBabel10272415153D

 34 37  0  0  0  0  0  0  0  0999 V2000
  187.7590  177.2960  144.9190 C   0  0  0  0  0  0  0  0  0  0  0  0
  191.2830  176.6120  143.6150 C   0  0  0  0  0  3  0  0  0  0  0  0
  190.8570  177.1720  141.1240 C   0  0  0  0  0  0  0  0  0  0  0  0
  190.4110  177.2670  145.7760 N   0  0  0  0  0  0  0  0  0  0  0  0
  187.1200  178.0580  147.1820 C   0  0  0  0  0  3  0  0  0  0  0  0
  188.8230  178.3850  148.8680 C   0  0  0  0  0  3  0  0  0  0  0  0
  189.2850  178.6610  139.7450 C   0  0  0  0  0  1  0  0  0  0  0  0
  187.4820  178.4120  148.4850 C   0  0  0  0  0  3  0  0  0  0  0  0
  189.4460  177.6420  146.6490 C   0  0  0  0  0  0  0  0  0  0  0  0
  188.0910  177.6790  146.2430 C   0  0  0  0  0  0  0  0  0  0  0  0
  189.8030  177.9990  147.9520 C   0  0  0  0  0  3  0  0  0  0  0  0
  191.1720  176.8520  142.3440 C   0  0  0  0  0  0  0  0  0  0  0  0
  191.9400  177.2890  140.1060 C   0  0  0  0  0  1  0  0  0  0  0  0
  189.4930  177.7000  140.8630 C   0  0  0  0  0  0  0  0  0  0  0  0
  188.4150  177.3560  141.5900 C   0  0  0  0  0  3  0  0  0  0  0  0
  190.1360  176.9060  144.4970 C   0  0  0  0  0  0  0  0  0  0  0  0
  188.4050  176.3330  142.6950 C   0  0  0  0  0  2  0  0  0  0  0  0
  188.7870  176.8870  144.0480 C   0  0  0  0  0  0  0  0  0  0  0  0
  186.4450  177.2850  144.4180 O   0  0  0  0  0  0  0  0  0  0  0  0
  185.7780  178.4050  143.8480 C   0  0  0  0  0  2  0  0  0  0  0  0
  184.5040  178.7070  144.6260 C   0  0  0  0  0  2  0  0  0  0  0  0
  180.9020  178.7920  143.4580 C   0  0  0  0  0  3  0  0  0  0  0  0
  183.4570  178.6050  142.3400 C   0  0  0  0  0  3  0  0  0  0  0  0
  181.0510  178.6680  142.0730 C   0  0  0  0  0  3  0  0  0  0  0  0
  182.3290  178.5710  141.5130 C   0  0  0  0  0  0  0  0  0  0  0  0
  183.3080  178.7130  143.7290 C   0  0  0  0  0  0  0  0  0  0  0  0
  182.0290  178.8130  144.2850 C   0  0  0  0  0  3  0  0  0  0  0  0
  182.4860  178.4090  140.0390 C   0  0  0  0  0  2  0  0  0  0  0  0
  182.3260  180.6090  138.7850 C   0  0  0  0  0  0  0  0  0  0  0  0
  183.5750  180.7750  138.8460 O   0  0  0  0  0  0  0  0  0  0  0  0
  181.7260  179.4320  139.3310 N   0  0  0  0  0  2  0  0  0  0  0  0
  181.4820  181.6210  138.1460 C   0  0  0  0  0  0  0  0  0  0  0  0
  180.3730  181.3000  137.6420 O   0  0  0  0  0  0  0  0  0  0  0  0
  181.8910  182.9120  138.0950 F   0  0  0  0  0  0  0  0  0  0  0  0
  1 10  1  0  0  0  0
  2 16  1  0  0  0  0
  3 12  2  0  0  0  0
  4  9  1  0  0  0  0
  5  8  1  0  0  0  0
  7 14  1  0  0  0  0
  8  6  2  0  0  0  0
  9 11  2  0  0  0  0
 10  9  1  0  0  0  0
 10  5  2  0  0  0  0
 11  6  1  0  0  0  0
 12  2  2  0  0  0  0
 13  3  1  0  0  0  0
 14  3  1  0  0  0  0
 14 15  2  0  0  0  0
 15 17  1  0  0  0  0
 16  4  2  0  0  0  0
 17 18  1  0  0  0  0
 18 16  1  0  0  0  0
 18  1  2  0  0  0  0
 19  1  1  0  0  0  0
 20 19  1  0  0  0  0
 20 21  1  0  0  0  0
 22 27  1  0  0  0  0
 23 26  1  0  0  0  0
 24 22  2  0  0  0  0
 25 24  1  0  0  0  0
 25 23  2  0  0  0  0
 26 27  2  0  0  0  0
 26 21  1  0  0  0  0
 28 25  1  0  0  0  0
 29 30  2  0  0  0  0
 29 31  1  0  0  0  0
 31 28  1  0  0  0  0
 32 29  1  0  0  0  0
 33 32  2  0  0  0  0
 34 32  1  0  0  0  0
M  END
>  <MODEL>
3

>  <REMARK>
 VINA RESULT:      -9.8      1.634      1.985
  Name = 
  7 active torsions:
  status: ('A' for Active; 'I' for Inactive)
    1  A    between atoms: C_1  and  O_9
    2  A    between atoms: C_7  and  C_11
    3  A    between atoms: C_8  and  O_9
    4  A    between atoms: C_8  and  C_18
    5  A    between atoms: C_18  and  C_30
    6  A    between atoms: C_26  and  C_28
    7  A    between atoms: C_26  and  N_29
                            x       y       z     vdW  Elec       q    Type
                         _______ _______ _______ _____ _____    ______ ____

>  <TORSDO>
F 7

$$$$
=
 OpenBabel10272415153D

 34 37  0  0  0  0  0  0  0  0999 V2000
  185.8930  178.1590  143.2640 C   0  0  0  0  0  0  0  0  0  0  0  0
  182.2520  179.2910  143.4680 C   0  0  0  0  0  3  0  0  0  0  0  0
  181.4180  178.2150  141.2660 C   0  0  0  0  0  0  0  0  0  0  0  0
  183.9560  178.8770  145.1350 N   0  0  0  0  0  0  0  0  0  0  0  0
  187.4300  177.7060  145.1470 C   0  0  0  0  0  3  0  0  0  0  0  0
  186.6780  178.0410  147.4210 C   0  0  0  0  0  3  0  0  0  0  0  0
  182.0190  176.2140  139.7730 C   0  0  0  0  0  1  0  0  0  0  0  0
  187.6800  177.6740  146.5210 C   0  0  0  0  0  3  0  0  0  0  0  0
  185.1750  178.4790  145.5740 C   0  0  0  0  0  0  0  0  0  0  0  0
  186.1770  178.0970  144.6510 C   0  0  0  0  0  0  0  0  0  0  0  0
  185.4280  178.4440  146.9480 C   0  0  0  0  0  3  0  0  0  0  0  0
  181.7370  178.8080  142.3780 C   0  0  0  0  0  0  0  0  0  0  0  0
  179.9820  178.1360  140.8760 C   0  0  0  0  0  1  0  0  0  0  0  0
  182.4480  177.3840  140.5900 C   0  0  0  0  0  0  0  0  0  0  0  0
  183.7680  177.6290  140.6710 C   0  0  0  0  0  3  0  0  0  0  0  0
  183.6420  178.9370  143.8160 C   0  0  0  0  0  0  0  0  0  0  0  0
  184.3880  178.8130  141.3670 C   0  0  0  0  0  2  0  0  0  0  0  0
  184.6240  178.6020  142.8450 C   0  0  0  0  0  0  0  0  0  0  0  0
  186.8200  177.8130  142.2640 O   0  0  0  0  0  0  0  0  0  0  0  0
  187.6240  178.7360  141.5400 C   0  0  0  0  0  2  0  0  0  0  0  0
  187.6400  178.3680  140.0620 C   0  0  0  0  0  2  0  0  0  0  0  0
  190.4230  176.9360  137.9270 C   0  0  0  0  0  3  0  0  0  0  0  0
  190.0060  177.6890  140.5860 C   0  0  0  0  0  3  0  0  0  0  0  0
  191.4460  176.7770  138.8670 C   0  0  0  0  0  3  0  0  0  0  0  0
  191.2370  177.1500  140.1980 C   0  0  0  0  0  0  0  0  0  0  0  0
  188.9740  177.8340  139.6490 C   0  0  0  0  0  0  0  0  0  0  0  0
  189.1870  177.4620  138.3180 C   0  0  0  0  0  3  0  0  0  0  0  0
  192.3200  176.9530  141.2050 C   0  0  0  0  0  2  0  0  0  0  0  0
  191.6280  176.9520  143.6460 C   0  0  0  0  0  0  0  0  0  0  0  0
  191.6430  175.6920  143.6870 O   0  0  0  0  0  0  0  0  0  0  0  0
  191.9900  177.6410  142.4470 N   0  0  0  0  0  2  0  0  0  0  0  0
  191.2470  177.7200  144.8340 C   0  0  0  0  0  0  0  0  0  0  0  0
  191.6250  177.3530  145.9780 O   0  0  0  0  0  0  0  0  0  0  0  0
  190.4850  178.8330  144.7070 F   0  0  0  0  0  0  0  0  0  0  0  0
  1 10  1  0  0  0  0
  2 16  1  0  0  0  0
  3 12  2  0  0  0  0
  4  9  1  0  0  0  0
  5  8  1  0  0  0  0
  7 14  1  0  0  0  0
  8  6  2  0  0  0  0
  9 11  2  0  0  0  0
 10  5  2  0  0  0  0
 10  9  1  0  0  0  0
 11  6  1  0  0  0  0
 12  2  2  0  0  0  0
 13  3  1  0  0  0  0
 14 15  2  0  0  0  0
 14  3  1  0  0  0  0
 15 17  1  0  0  0  0
 16  4  2  0  0  0  0
 17 18  1  0  0  0  0
 18  1  2  0  0  0  0
 18 16  1  0  0  0  0
 19  1  1  0  0  0  0
 20 19  1  0  0  0  0
 21 20  1  0  0  0  0
 22 27  2  0  0  0  0
 22 24  1  0  0  0  0
 24 25  2  0  0  0  0
 25 23  1  0  0  0  0
 25 28  1  0  0  0  0
 26 21  1  0  0  0  0
 26 23  2  0  0  0  0
 27 26  1  0  0  0  0
 28 31  1  0  0  0  0
 29 30  2  0  0  0  0
 29 32  1  0  0  0  0
 31 29  1  0  0  0  0
 32 33  2  0  0  0  0
 34 32  1  0  0  0  0
M  END
>  <MODEL>
4

>  <REMARK>
 VINA RESULT:      -9.7      2.657      7.587
  Name = 
  7 active torsions:
  status: ('A' for Active; 'I' for Inactive)
    1  A    between atoms: C_1  and  O_9
    2  A    between atoms: C_7  and  C_11
    3  A    between atoms: C_8  and  O_9
    4  A    between atoms: C_8  and  C_18
    5  A    between atoms: C_18  and  C_30
    6  A    between atoms: C_26  and  C_28
    7  A    between atoms: C_26  and  N_29
                            x       y       z     vdW  Elec       q    Type
                         _______ _______ _______ _____ _____    ______ ____

>  <TORSDO>
F 7

$$$$
=
 OpenBabel10272415153D

 34 37  0  0  0  0  0  0  0  0999 V2000
  187.2940  178.2370  143.8990 C   0  0  0  0  0  0  0  0  0  0  0  0
  183.7300  179.2270  144.8460 C   0  0  0  0  0  3  0  0  0  0  0  0
  182.6130  178.7780  142.5560 C   0  0  0  0  0  0  0  0  0  0  0  0
  185.6150  178.3980  146.1170 N   0  0  0  0  0  0  0  0  0  0  0  0
  189.0380  177.3100  145.3860 C   0  0  0  0  0  3  0  0  0  0  0  0
  188.5760  177.0080  147.7400 C   0  0  0  0  0  3  0  0  0  0  0  0
  182.9850  177.2640  140.5150 C   0  0  0  0  0  1  0  0  0  0  0  0
  189.4530  176.9110  146.6590 C   0  0  0  0  0  3  0  0  0  0  0  0
  186.8690  177.9110  146.2800 C   0  0  0  0  0  0  0  0  0  0  0  0
  187.7430  177.8050  145.1720 C   0  0  0  0  0  0  0  0  0  0  0  0
  187.2870  177.5080  147.5510 C   0  0  0  0  0  3  0  0  0  0  0  0
  183.0770  179.0510  143.7380 C   0  0  0  0  0  0  0  0  0  0  0  0
  181.1380  178.7900  142.3380 C   0  0  0  0  0  1  0  0  0  0  0  0
  183.5340  178.1740  141.5580 C   0  0  0  0  0  0  0  0  0  0  0  0
  184.8590  178.4040  141.5400 C   0  0  0  0  0  3  0  0  0  0  0  0
  185.1450  178.8090  144.9130 C   0  0  0  0  0  0  0  0  0  0  0  0
  185.5850  179.3620  142.4490 C   0  0  0  0  0  2  0  0  0  0  0  0
  185.9940  178.7620  143.7730 C   0  0  0  0  0  0  0  0  0  0  0  0
  188.0850  178.1860  142.7360 O   0  0  0  0  0  0  0  0  0  0  0  0
  188.5340  176.9930  142.1040 C   0  0  0  0  0  2  0  0  0  0  0  0
  189.9270  177.2000  141.5240 C   0  0  0  0  0  2  0  0  0  0  0  0
  188.9330  178.4460  138.0870 C   0  0  0  0  0  3  0  0  0  0  0  0
  190.6870  176.5800  139.2070 C   0  0  0  0  0  3  0  0  0  0  0  0
  189.7290  177.6500  137.2580 C   0  0  0  0  0  3  0  0  0  0  0  0
  190.6040  176.7140  137.8170 C   0  0  0  0  0  0  0  0  0  0  0  0
  189.8790  177.3650  140.0390 C   0  0  0  0  0  0  0  0  0  0  0  0
  189.0060  178.3020  139.4760 C   0  0  0  0  0  3  0  0  0  0  0  0
  191.4310  175.8450  136.9300 C   0  0  0  0  0  2  0  0  0  0  0  0
  193.8090  175.3570  137.6690 C   0  0  0  0  0  0  0  0  0  0  0  0
  194.2570  176.3100  136.9750 O   0  0  0  0  0  0  0  0  0  0  0  0
  192.4040  175.0960  137.7160 N   0  0  0  0  0  2  0  0  0  0  0  0
  194.7270  174.5160  138.4390 C   0  0  0  0  0  0  0  0  0  0  0  0
  195.6210  175.0380  139.1570 O   0  0  0  0  0  0  0  0  0  0  0  0
  194.6180  173.1660  138.3850 F   0  0  0  0  0  0  0  0  0  0  0  0
  1 10  1  0  0  0  0
  2 16  1  0  0  0  0
  3 12  2  0  0  0  0
  4  9  1  0  0  0  0
  5  8  1  0  0  0  0
  7 14  1  0  0  0  0
  8  6  2  0  0  0  0
  9 11  2  0  0  0  0
 10  5  2  0  0  0  0
 10  9  1  0  0  0  0
 11  6  1  0  0  0  0
 12  2  2  0  0  0  0
 13  3  1  0  0  0  0
 14  3  1  0  0  0  0
 15 14  2  0  0  0  0
 15 17  1  0  0  0  0
 16  4  2  0  0  0  0
 17 18  1  0  0  0  0
 18  1  2  0  0  0  0
 18 16  1  0  0  0  0
 19  1  1  0  0  0  0
 20 19  1  0  0  0  0
 21 20  1  0  0  0  0
 22 27  1  0  0  0  0
 23 26  1  0  0  0  0
 24 25  1  0  0  0  0
 24 22  2  0  0  0  0
 25 23  2  0  0  0  0
 26 21  1  0  0  0  0
 27 26  2  0  0  0  0
 28 31  1  0  0  0  0
 28 25  1  0  0  0  0
 29 31  1  0  0  0  0
 29 32  1  0  0  0  0
 30 29  2  0  0  0  0
 32 33  2  0  0  0  0
 34 32  1  0  0  0  0
M  END
>  <MODEL>
5

>  <REMARK>
 VINA RESULT:      -9.6      3.672      7.349
  Name = 
  7 active torsions:
  status: ('A' for Active; 'I' for Inactive)
    1  A    between atoms: C_1  and  O_9
    2  A    between atoms: C_7  and  C_11
    3  A    between atoms: C_8  and  O_9
    4  A    between atoms: C_8  and  C_18
    5  A    between atoms: C_18  and  C_30
    6  A    between atoms: C_26  and  C_28
    7  A    between atoms: C_26  and  N_29
                            x       y       z     vdW  Elec       q    Type
                         _______ _______ _______ _____ _____    ______ ____

>  <TORSDO>
F 7

$$$$
=
 OpenBabel10272415153D

 34 37  0  0  0  0  0  0  0  0999 V2000
  186.8840  178.0280  143.5180 C   0  0  0  0  0  0  0  0  0  0  0  0
  183.4190  179.4420  144.2790 C   0  0  0  0  0  3  0  0  0  0  0  0
  182.2460  178.7110  142.0910 C   0  0  0  0  0  0  0  0  0  0  0  0
  185.2460  178.6850  145.6750 N   0  0  0  0  0  0  0  0  0  0  0  0
  188.5650  177.2230  145.1420 C   0  0  0  0  0  3  0  0  0  0  0  0
  188.1050  177.3500  147.5130 C   0  0  0  0  0  3  0  0  0  0  0  0
  182.4760  176.8580  140.3300 C   0  0  0  0  0  1  0  0  0  0  0  0
  188.9600  177.0070  146.4650 C   0  0  0  0  0  3  0  0  0  0  0  0
  186.4590  178.1340  145.9190 C   0  0  0  0  0  0  0  0  0  0  0  0
  187.3100  177.7780  144.8460 C   0  0  0  0  0  0  0  0  0  0  0  0
  186.8570  177.9130  147.2400 C   0  0  0  0  0  3  0  0  0  0  0  0
  182.7420  179.1380  143.2140 C   0  0  0  0  0  0  0  0  0  0  0  0
  180.7750  178.8050  141.8700 C   0  0  0  0  0  1  0  0  0  0  0  0
  183.1060  177.8800  141.2100 C   0  0  0  0  0  0  0  0  0  0  0  0
  184.4450  177.9980  141.1580 C   0  0  0  0  0  3  0  0  0  0  0  0
  184.7970  178.9290  144.4180 C   0  0  0  0  0  0  0  0  0  0  0  0
  185.2530  179.0320  141.8980 C   0  0  0  0  0  2  0  0  0  0  0  0
  185.6280  178.6270  143.3040 C   0  0  0  0  0  0  0  0  0  0  0  0
  187.6560  177.7240  142.3820 O   0  0  0  0  0  0  0  0  0  0  0  0
  188.7960  178.4570  141.9480 C   0  0  0  0  0  2  0  0  0  0  0  0
  189.9100  177.5000  141.5460 C   0  0  0  0  0  2  0  0  0  0  0  0
  191.1210  176.4600  138.1100 C   0  0  0  0  0  3  0  0  0  0  0  0
  189.1460  178.0960  139.2230 C   0  0  0  0  0  3  0  0  0  0  0  0
  190.2650  177.1870  137.2770 C   0  0  0  0  0  3  0  0  0  0  0  0
  189.2790  178.0080  137.8330 C   0  0  0  0  0  0  0  0  0  0  0  0
  190.0140  177.3800  140.0590 C   0  0  0  0  0  0  0  0  0  0  0  0
  190.9970  176.5580  139.4990 C   0  0  0  0  0  3  0  0  0  0  0  0
  188.3850  178.8050  136.9440 C   0  0  0  0  0  2  0  0  0  0  0  0
  186.1710  177.5670  136.9870 C   0  0  0  0  0  0  0  0  0  0  0  0
  186.6490  176.6170  136.3100 O   0  0  0  0  0  0  0  0  0  0  0  0
  186.9970  178.6710  137.3660 N   0  0  0  0  0  2  0  0  0  0  0  0
  184.7650  177.5400  137.3980 C   0  0  0  0  0  0  0  0  0  0  0  0
  184.0520  176.5300  137.1630 O   0  0  0  0  0  0  0  0  0  0  0  0
  184.2260  178.6050  138.0390 F   0  0  0  0  0  0  0  0  0  0  0  0
  1 10  1  0  0  0  0
  2 16  1  0  0  0  0
  3 12  2  0  0  0  0
  4  9  1  0  0  0  0
  5  8  1  0  0  0  0
  7 14  1  0  0  0  0
  8  6  2  0  0  0  0
  9 11  2  0  0  0  0
 10  5  2  0  0  0  0
 10  9  1  0  0  0  0
 11  6  1  0  0  0  0
 12  2  2  0  0  0  0
 13  3  1  0  0  0  0
 14  3  1  0  0  0  0
 15 14  2  0  0  0  0
 15 17  1  0  0  0  0
 16  4  2  0  0  0  0
 17 18  1  0  0  0  0
 18  1  2  0  0  0  0
 18 16  1  0  0  0  0
 19  1  1  0  0  0  0
 20 19  1  0  0  0  0
 21 20  1  0  0  0  0
 22 27  1  0  0  0  0
 23 26  1  0  0  0  0
 24 25  1  0  0  0  0
 24 22  2  0  0  0  0
 25 23  2  0  0  0  0
 26 21  1  0  0  0  0
 27 26  2  0  0  0  0
 28 31  1  0  0  0  0
 28 25  1  0  0  0  0
 29 31  1  0  0  0  0
 29 32  1  0  0  0  0
 30 29  2  0  0  0  0
 32 34  1  0  0  0  0
 33 32  2  0  0  0  0
M  END
>  <MODEL>
6

>  <REMARK>
 VINA RESULT:      -9.6      2.020      6.250
  Name = 
  7 active torsions:
  status: ('A' for Active; 'I' for Inactive)
    1  A    between atoms: C_1  and  O_9
    2  A    between atoms: C_7  and  C_11
    3  A    between atoms: C_8  and  O_9
    4  A    between atoms: C_8  and  C_18
    5  A    between atoms: C_18  and  C_30
    6  A    between atoms: C_26  and  C_28
    7  A    between atoms: C_26  and  N_29
                            x       y       z     vdW  Elec       q    Type
                         _______ _______ _______ _____ _____    ______ ____

>  <TORSDO>
F 7

$$$$
=
 OpenBabel10272415153D

 34 37  0  0  0  0  0  0  0  0999 V2000
  189.0670  178.1670  141.2990 C   0  0  0  0  0  0  0  0  0  0  0  0
  191.9820  176.5930  143.1980 C   0  0  0  0  0  3  0  0  0  0  0  0
  191.0120  176.8120  145.5880 C   0  0  0  0  0  0  0  0  0  0  0  0
  191.1490  176.3500  140.9390 N   0  0  0  0  0  0  0  0  0  0  0  0
  188.3470  177.6780  138.9850 C   0  0  0  0  0  3  0  0  0  0  0  0
  189.5860  176.0880  137.6490 C   0  0  0  0  0  3  0  0  0  0  0  0
  188.7040  176.9130  146.7090 C   0  0  0  0  0  1  0  0  0  0  0  0
  188.5290  176.9890  137.7830 C   0  0  0  0  0  3  0  0  0  0  0  0
  190.2850  176.5660  139.9180 C   0  0  0  0  0  0  0  0  0  0  0  0
  189.2100  177.4730  140.0720 C   0  0  0  0  0  0  0  0  0  0  0  0
  190.4630  175.8770  138.7150 C   0  0  0  0  0  3  0  0  0  0  0  0
  191.5960  176.6700  144.4360 C   0  0  0  0  0  0  0  0  0  0  0  0
  191.6210  176.1730  146.7890 C   0  0  0  0  0  1  0  0  0  0  0  0
  189.6210  177.3350  145.6140 C   0  0  0  0  0  0  0  0  0  0  0  0
  189.1320  178.1840  144.6920 C   0  0  0  0  0  3  0  0  0  0  0  0
  191.0380  176.9850  142.1330 C   0  0  0  0  0  0  0  0  0  0  0  0
  189.9290  178.7960  143.5690 C   0  0  0  0  0  2  0  0  0  0  0  0
  189.9990  177.9370  142.3280 C   0  0  0  0  0  0  0  0  0  0  0  0
  188.0420  179.0970  141.5520 O   0  0  0  0  0  0  0  0  0  0  0  0
  186.6550  178.7880  141.6150 C   0  0  0  0  0  2  0  0  0  0  0  0
  186.4020  177.7300  142.6800 C   0  0  0  0  0  2  0  0  0  0  0  0
  184.6620  178.6880  145.9060 C   0  0  0  0  0  3  0  0  0  0  0  0
  184.0370  178.4200  143.1950 C   0  0  0  0  0  3  0  0  0  0  0  0
  183.3570  178.9250  145.4630 C   0  0  0  0  0  3  0  0  0  0  0  0
  183.0430  178.7880  144.1080 C   0  0  0  0  0  0  0  0  0  0  0  0
  185.3420  178.1660  143.6390 C   0  0  0  0  0  0  0  0  0  0  0  0
  185.6530  178.3060  144.9960 C   0  0  0  0  0  3  0  0  0  0  0  0
  181.6440  179.0130  143.6410 C   0  0  0  0  0  2  0  0  0  0  0  0
  180.7120  179.5760  141.3490 C   0  0  0  0  0  0  0  0  0  0  0  0
  180.0670  180.5560  141.8130 O   0  0  0  0  0  0  0  0  0  0  0  0
  181.5450  178.7890  142.2040 N   0  0  0  0  0  2  0  0  0  0  0  0
  180.6190  179.2440  139.9250 C   0  0  0  0  0  0  0  0  0  0  0  0
  180.3020  178.0810  139.5620 O   0  0  0  0  0  0  0  0  0  0  0  0
  180.8700  180.1920  138.9900 F   0  0  0  0  0  0  0  0  0  0  0  0
  1 19  1  0  0  0  0
  1 18  1  0  0  0  0
  2 12  2  0  0  0  0
  3 14  1  0  0  0  0
  3 13  1  0  0  0  0
  4 16  1  0  0  0  0
  5 10  1  0  0  0  0
  6  8  1  0  0  0  0
  6 11  2  0  0  0  0
  8  5  2  0  0  0  0
  9 10  1  0  0  0  0
  9  4  2  0  0  0  0
 10  1  2  0  0  0  0
 11  9  1  0  0  0  0
 12  3  2  0  0  0  0
 14  7  1  0  0  0  0
 15 14  2  0  0  0  0
 16 18  2  0  0  0  0
 16  2  1  0  0  0  0
 17 15  1  0  0  0  0
 18 17  1  0  0  0  0
 19 20  1  0  0  0  0
 20 21  1  0  0  0  0
 21 26  1  0  0  0  0
 23 26  2  0  0  0  0
 23 25  1  0  0  0  0
 24 22  1  0  0  0  0
 25 24  2  0  0  0  0
 26 27  1  0  0  0  0
 27 22  2  0  0  0  0
 28 25  1  0  0  0  0
 29 30  2  0  0  0  0
 29 31  1  0  0  0  0
 31 28  1  0  0  0  0
 32 29  1  0  0  0  0
 33 32  2  0  0  0  0
 34 32  1  0  0  0  0
M  END
>  <MODEL>
7

>  <REMARK>
 VINA RESULT:      -9.5      2.389      5.258
  Name = 
  7 active torsions:
  status: ('A' for Active; 'I' for Inactive)
    1  A    between atoms: C_1  and  O_9
    2  A    between atoms: C_7  and  C_11
    3  A    between atoms: C_8  and  O_9
    4  A    between atoms: C_8  and  C_18
    5  A    between atoms: C_18  and  C_30
    6  A    between atoms: C_26  and  C_28
    7  A    between atoms: C_26  and  N_29
                            x       y       z     vdW  Elec       q    Type
                         _______ _______ _______ _____ _____    ______ ____

>  <TORSDO>
F 7

$$$$
=
 OpenBabel10272415153D

 34 37  0  0  0  0  0  0  0  0999 V2000
  185.6140  178.7830  140.8130 C   0  0  0  0  0  0  0  0  0  0  0  0
  188.4570  178.2120  138.3280 C   0  0  0  0  0  3  0  0  0  0  0  0
  190.2360  177.3680  140.0070 C   0  0  0  0  0  0  0  0  0  0  0  0
  186.0460  178.2170  138.1190 N   0  0  0  0  0  0  0  0  0  0  0  0
  183.1860  178.6380  140.3720 C   0  0  0  0  0  3  0  0  0  0  0  0
  182.3950  178.1480  138.1400 C   0  0  0  0  0  3  0  0  0  0  0  0
  190.3010  176.1620  142.2730 C   0  0  0  0  0  1  0  0  0  0  0  0
  182.1310  178.4300  139.4810 C   0  0  0  0  0  3  0  0  0  0  0  0
  184.7730  178.2860  138.5770 C   0  0  0  0  0  0  0  0  0  0  0  0
  184.5190  178.5600  139.9420 C   0  0  0  0  0  0  0  0  0  0  0  0
  183.7140  178.0760  137.6890 C   0  0  0  0  0  3  0  0  0  0  0  0
  189.4250  177.7950  139.0860 C   0  0  0  0  0  0  0  0  0  0  0  0
  191.5430  176.7760  139.6000 C   0  0  0  0  0  1  0  0  0  0  0  0
  189.7130  177.2060  141.3890 C   0  0  0  0  0  0  0  0  0  0  0  0
  188.7230  177.9600  141.8990 C   0  0  0  0  0  3  0  0  0  0  0  0
  187.1210  178.4110  138.9240 C   0  0  0  0  0  0  0  0  0  0  0  0
  188.0700  179.1220  141.1960 C   0  0  0  0  0  2  0  0  0  0  0  0
  186.9220  178.7290  140.2960 C   0  0  0  0  0  0  0  0  0  0  0  0
  185.4730  179.0730  142.1820 O   0  0  0  0  0  0  0  0  0  0  0  0
  185.0200  178.1560  143.1710 C   0  0  0  0  0  2  0  0  0  0  0  0
  184.7890  178.8800  144.4900 C   0  0  0  0  0  2  0  0  0  0  0  0
  186.5790  178.4750  147.8040 C   0  0  0  0  0  3  0  0  0  0  0  0
  187.0300  177.9120  145.1040 C   0  0  0  0  0  3  0  0  0  0  0  0
  187.7850  177.8900  147.4040 C   0  0  0  0  0  3  0  0  0  0  0  0
  188.0120  177.6110  146.0530 C   0  0  0  0  0  0  0  0  0  0  0  0
  185.8280  178.5140  145.5010 C   0  0  0  0  0  0  0  0  0  0  0  0
  185.6030  178.7890  146.8530 C   0  0  0  0  0  3  0  0  0  0  0  0
  189.3100  177.0130  145.6240 C   0  0  0  0  0  2  0  0  0  0  0  0
  191.5630  176.4310  146.6360 C   0  0  0  0  0  0  0  0  0  0  0  0
  191.9760  175.9680  145.5380 O   0  0  0  0  0  0  0  0  0  0  0  0
  190.2540  176.9990  146.7340 N   0  0  0  0  0  2  0  0  0  0  0  0
  192.4270  176.3970  147.8180 C   0  0  0  0  0  0  0  0  0  0  0  0
  192.3320  177.2880  148.7030 O   0  0  0  0  0  0  0  0  0  0  0  0
  193.3360  175.4020  147.9660 F   0  0  0  0  0  0  0  0  0  0  0  0
  1 19  1  0  0  0  0
  2 16  1  0  0  0  0
  2 12  2  0  0  0  0
  3 14  1  0  0  0  0
  4  9  2  0  0  0  0
  4 16  1  0  0  0  0
  6  8  1  0  0  0  0
  8  5  2  0  0  0  0
  9 10  1  0  0  0  0
 10  5  1  0  0  0  0
 10  1  2  0  0  0  0
 11  6  2  0  0  0  0
 11  9  1  0  0  0  0
 12  3  2  0  0  0  0
 13  3  1  0  0  0  0
 14 15  2  0  0  0  0
 14  7  1  0  0  0  0
 16 18  2  0  0  0  0
 17 15  1  0  0  0  0
 18  1  1  0  0  0  0
 18 17  1  0  0  0  0
 19 20  1  0  0  0  0
 20 21  1  0  0  0  0
 21 26  1  0  0  0  0
 23 26  2  0  0  0  0
 23 25  1  0  0  0  0
 24 22  1  0  0  0  0
 25 24  2  0  0  0  0
 26 27  1  0  0  0  0
 27 22  2  0  0  0  0
 28 25  1  0  0  0  0
 28 31  1  0  0  0  0
 29 31  1  0  0  0  0
 29 32  1  0  0  0  0
 30 29  2  0  0  0  0
 32 34  1  0  0  0  0
 32 33  2  0  0  0  0
M  END
>  <MODEL>
8

>  <REMARK>
 VINA RESULT:      -9.5      3.178      7.577
  Name = 
  7 active torsions:
  status: ('A' for Active; 'I' for Inactive)
    1  A    between atoms: C_1  and  O_9
    2  A    between atoms: C_7  and  C_11
    3  A    between atoms: C_8  and  O_9
    4  A    between atoms: C_8  and  C_18
    5  A    between atoms: C_18  and  C_30
    6  A    between atoms: C_26  and  C_28
    7  A    between atoms: C_26  and  N_29
                            x       y       z     vdW  Elec       q    Type
                         _______ _______ _______ _____ _____    ______ ____

>  <TORSDO>
F 7

$$$$
=
 OpenBabel10272415153D

 34 37  0  0  0  0  0  0  0  0999 V2000
  187.8840  177.1870  144.8320 C   0  0  0  0  0  0  0  0  0  0  0  0
  191.4480  176.7050  143.5460 C   0  0  0  0  0  3  0  0  0  0  0  0
  191.0010  177.2250  141.0500 C   0  0  0  0  0  0  0  0  0  0  0  0
  190.5300  177.3180  145.6990 N   0  0  0  0  0  0  0  0  0  0  0  0
  187.1910  177.9220  147.0880 C   0  0  0  0  0  3  0  0  0  0  0  0
  188.8650  178.3570  148.7790 C   0  0  0  0  0  3  0  0  0  0  0  0
  189.3500  178.6110  139.6560 C   0  0  0  0  0  1  0  0  0  0  0  0
  187.5260  178.3040  148.3900 C   0  0  0  0  0  3  0  0  0  0  0  0
  189.5400  177.6400  146.5670 C   0  0  0  0  0  0  0  0  0  0  0  0
  188.1870  177.5950  146.1540 C   0  0  0  0  0  0  0  0  0  0  0  0
  189.8700  178.0250  147.8690 C   0  0  0  0  0  3  0  0  0  0  0  0
  191.3290  176.9300  142.2730 C   0  0  0  0  0  0  0  0  0  0  0  0
  192.0800  177.4000  140.0360 C   0  0  0  0  0  1  0  0  0  0  0  0
  189.6090  177.6710  140.7810 C   0  0  0  0  0  0  0  0  0  0  0  0
  188.5500  177.2670  141.5050 C   0  0  0  0  0  3  0  0  0  0  0  0
  190.2810  176.9350  144.4220 C   0  0  0  0  0  0  0  0  0  0  0  0
  188.5960  176.2510  142.6160 C   0  0  0  0  0  2  0  0  0  0  0  0
  188.9380  176.8340  143.9670 C   0  0  0  0  0  0  0  0  0  0  0  0
  186.5750  177.0960  144.3250 O   0  0  0  0  0  0  0  0  0  0  0  0
  185.9140  178.1120  143.5810 C   0  0  0  0  0  2  0  0  0  0  0  0
  184.8320  178.7630  144.4320 C   0  0  0  0  0  2  0  0  0  0  0  0
  181.0980  178.7840  143.7910 C   0  0  0  0  0  3  0  0  0  0  0  0
  183.4710  178.8030  142.3140 C   0  0  0  0  0  3  0  0  0  0  0  0
  181.0520  178.7810  142.3930 C   0  0  0  0  0  3  0  0  0  0  0  0
  182.2380  178.7870  141.6540 C   0  0  0  0  0  0  0  0  0  0  0  0
  183.5200  178.7900  143.7150 C   0  0  0  0  0  0  0  0  0  0  0  0
  182.3310  178.7860  144.4510 C   0  0  0  0  0  3  0  0  0  0  0  0
  182.1880  178.7540  140.1640 C   0  0  0  0  0  2  0  0  0  0  0  0
  181.6940  176.3820  139.4090 C   0  0  0  0  0  0  0  0  0  0  0  0
  182.8930  176.0360  139.5940 O   0  0  0  0  0  0  0  0  0  0  0  0
  181.2720  177.7150  139.7090 N   0  0  0  0  0  2  0  0  0  0  0  0
  180.7230  175.4140  138.8940 C   0  0  0  0  0  0  0  0  0  0  0  0
  180.2570  175.5360  137.7300 O   0  0  0  0  0  0  0  0  0  0  0  0
  180.3210  174.3780  139.6700 F   0  0  0  0  0  0  0  0  0  0  0  0
  1 10  1  0  0  0  0
  2 16  1  0  0  0  0
  3 12  2  0  0  0  0
  4  9  1  0  0  0  0
  5  8  1  0  0  0  0
  7 14  1  0  0  0  0
  8  6  2  0  0  0  0
  9 11  2  0  0  0  0
 10  9  1  0  0  0  0
 10  5  2  0  0  0  0
 11  6  1  0  0  0  0
 12  2  2  0  0  0  0
 13  3  1  0  0  0  0
 14  3  1  0  0  0  0
 14 15  2  0  0  0  0
 15 17  1  0  0  0  0
 16  4  2  0  0  0  0
 17 18  1  0  0  0  0
 18 16  1  0  0  0  0
 18  1  2  0  0  0  0
 19  1  1  0  0  0  0
 20 19  1  0  0  0  0
 20 21  1  0  0  0  0
 22 27  1  0  0  0  0
 23 26  1  0  0  0  0
 24 22  2  0  0  0  0
 25 23  2  0  0  0  0
 25 24  1  0  0  0  0
 26 21  1  0  0  0  0
 26 27  2  0  0  0  0
 28 25  1  0  0  0  0
 29 30  2  0  0  0  0
 29 31  1  0  0  0  0
 31 28  1  0  0  0  0
 32 29  1  0  0  0  0
 32 34  1  0  0  0  0
 33 32  2  0  0  0  0
M  END
>  <MODEL>
9

>  <REMARK>
 VINA RESULT:      -9.4      1.880      2.129
  Name = 
  7 active torsions:
  status: ('A' for Active; 'I' for Inactive)
    1  A    between atoms: C_1  and  O_9
    2  A    between atoms: C_7  and  C_11
    3  A    between atoms: C_8  and  O_9
    4  A    between atoms: C_8  and  C_18
    5  A    between atoms: C_18  and  C_30
    6  A    between atoms: C_26  and  C_28
    7  A    between atoms: C_26  and  N_29
                            x       y       z     vdW  Elec       q    Type
                         _______ _______ _______ _____ _____    ______ ____

>  <TORSDO>
F 7

$$$$
