=
 OpenBabel10272413413D

 30 34  0  0  1  0  0  0  0  0999 V2000
  186.0470  178.3460  142.2160 C   0  0  0  0  0  0  0  0  0  0  0  0
  184.8300  178.2770  141.4880 C   0  0  0  0  0  0  0  0  0  0  0  0
  187.2750  178.4420  141.5420 C   0  0  0  0  0  3  0  0  0  0  0  0
  186.4800  178.3930  137.7920 S   0  0  0  0  0  0  0  0  0  0  0  0
  182.5790  177.1000  139.7680 C   0  0  1  0  0  3  0  0  0  0  0  0
  186.1050  178.3880  139.4360 C   0  0  0  0  0  0  0  0  0  0  0  0
  188.4220  178.5450  139.4110 N   0  0  0  0  0  0  0  0  0  0  0  0
  181.6840  177.7110  140.8380 C   0  0  2  0  0  3  0  0  0  0  0  0
  187.2880  178.4690  140.1530 C   0  0  0  0  0  0  0  0  0  0  0  0
  184.8560  178.2700  140.0640 C   0  0  0  0  0  0  0  0  0  0  0  0
  180.5180  178.3070  140.0810 C   0  0  0  0  0  2  0  0  0  0  0  0
  181.6340  176.6750  138.6520 C   0  0  0  0  0  2  0  0  0  0  0  0
  189.1780  178.5800  137.0300 C   0  0  0  0  0  1  0  0  0  0  0  0
  188.1370  178.5180  138.0890 C   0  0  0  0  0  0  0  0  0  0  0  0
  183.6290  178.2200  142.2130 O   0  0  0  0  0  0  0  0  0  0  0  0
  182.3870  178.7350  141.7410 C   0  0  2  0  0  3  0  0  0  0  0  0
  180.3180  177.4030  138.8820 C   0  0  0  0  0  2  0  0  0  0  0  0
  183.4510  178.7120  138.2030 O   0  0  0  0  0  0  0  0  0  0  0  0
  183.6280  178.0630  139.2710 C   0  0  0  0  0  0  0  0  0  0  0  0
  186.7260  177.3470  144.4200 C   0  0  0  0  0  0  0  0  0  0  0  0
  186.7170  177.3660  145.8190 C   0  0  0  0  0  3  0  0  0  0  0  0
  187.4030  176.2880  143.7490 N   0  0  0  0  0  1  0  0  0  0  0  0
  185.3790  179.3710  144.3990 C   0  0  0  0  0  0  0  0  0  0  0  0
  186.0460  178.3790  146.5050 C   0  0  0  0  0  3  0  0  0  0  0  0
  186.0480  178.3510  143.6960 C   0  0  0  0  0  0  0  0  0  0  0  0
  185.3800  179.3800  145.7960 C   0  0  0  0  0  3  0  0  0  0  0  0
  184.7450  180.3710  143.7360 F   0  0  0  0  0  0  0  0  0  0  0  0
  182.1890  178.7340  144.3840 O   0  0  0  0  0  0  0  0  0  0  0  0
  181.3740  179.1800  143.1760 S   0  0  2  0  0  0  0  0  0  0  0  0
  179.9820  178.0390  143.1480 C   0  0  0  0  0  1  0  0  0  0  0  0
  1 25  1  0  0  0  0
  2 15  1  0  0  0  0
  2  1  2  0  0  0  0
  3  1  1  0  0  0  0
  4 14  1  0  0  0  0
  4  6  1  0  0  0  0
  5 12  1  6  0  0  0
  5  8  1  0  0  0  0
  6 10  2  0  0  0  0
  6  9  1  0  0  0  0
  7  9  1  0  0  0  0
  8 11  1  6  0  0  0
  8 16  1  0  0  0  0
  9  3  2  0  0  0  0
 10  2  1  0  0  0  0
 12 17  1  0  0  0  0
 13 14  1  0  0  0  0
 14  7  2  0  0  0  0
 16 15  1  0  0  0  0
 16 29  1  1  0  0  0
 17 11  1  0  0  0  0
 18 19  2  0  0  0  0
 19  5  1  0  0  0  0
 19 10  1  0  0  0  0
 20 21  1  0  0  0  0
 21 24  2  0  0  0  0
 22 20  1  0  0  0  0
 23 26  2  0  0  0  0
 25 23  1  0  0  0  0
 25 20  2  0  0  0  0
 26 24  1  0  0  0  0
 27 23  1  0  0  0  0
 29 30  1  6  0  0  0
 29 28  2  0  0  0  0
M  END
>  <MODEL>
1

>  <REMARK>
 VINA RESULT:      -8.1      0.000      0.000
  Name = 
  2 active torsions:
  status: ('A' for Active; 'I' for Inactive)
    1  A    between atoms: C_1  and  C_22
    2  A    between atoms: S_11  and  C_25
                            x       y       z     vdW  Elec       q    Type
                         _______ _______ _______ _____ _____    ______ ____

>  <TORSDO>
F 2

$$$$
=
 OpenBabel10272413413D

 30 34  0  0  1  0  0  0  0  0999 V2000
  185.9260  178.5610  141.5580 C   0  0  0  0  0  0  0  0  0  0  0  0
  187.1080  178.2330  142.2720 C   0  0  0  0  0  0  0  0  0  0  0  0
  185.9410  178.6390  140.1550 C   0  0  0  0  0  3  0  0  0  0  0  0
  189.5360  177.9010  139.0490 S   0  0  0  0  0  0  0  0  0  0  0  0
  189.8780  178.5750  143.5460 C   0  0  1  0  0  3  0  0  0  0  0  0
  188.2860  178.0850  140.1650 C   0  0  0  0  0  0  0  0  0  0  0  0
  187.2450  178.4570  138.1230 N   0  0  0  0  0  0  0  0  0  0  0  0
  189.1990  177.9570  144.7610 C   0  0  2  0  0  3  0  0  0  0  0  0
  187.1250  178.3920  139.4730 C   0  0  0  0  0  0  0  0  0  0  0  0
  188.3250  178.0160  141.5660 C   0  0  0  0  0  0  0  0  0  0  0  0
  190.2170  176.9970  145.3350 C   0  0  0  0  0  2  0  0  0  0  0  0
  191.3630  178.5880  143.8820 C   0  0  0  0  0  2  0  0  0  0  0  0
  188.9550  178.2110  136.3170 C   0  0  0  0  0  1  0  0  0  0  0  0
  188.5170  178.2050  137.7380 C   0  0  0  0  0  0  0  0  0  0  0  0
  187.0280  178.1320  143.6700 O   0  0  0  0  0  0  0  0  0  0  0  0
  187.8550  177.2800  144.4580 C   0  0  2  0  0  3  0  0  0  0  0  0
  191.5640  177.6280  145.0450 C   0  0  0  0  0  2  0  0  0  0  0  0
  190.4400  176.9720  141.8360 O   0  0  0  0  0  0  0  0  0  0  0  0
  189.6030  177.8080  142.2760 C   0  0  0  0  0  0  0  0  0  0  0  0
  183.4530  178.1950  141.8180 C   0  0  0  0  0  0  0  0  0  0  0  0
  182.2540  178.4280  142.5000 C   0  0  0  0  0  3  0  0  0  0  0  0
  183.4370  177.3690  140.6570 N   0  0  0  0  0  1  0  0  0  0  0  0
  184.6160  179.6160  143.4110 C   0  0  0  0  0  0  0  0  0  0  0  0
  182.2330  179.2470  143.6300 C   0  0  0  0  0  3  0  0  0  0  0  0
  184.6490  178.7960  142.2670 C   0  0  0  0  0  0  0  0  0  0  0  0
  183.4120  179.8390  144.0840 C   0  0  0  0  0  3  0  0  0  0  0  0
  185.7520  180.1840  143.8900 F   0  0  0  0  0  0  0  0  0  0  0  0
  185.6200  177.5800  145.8510 O   0  0  0  0  0  0  0  0  0  0  0  0
  186.9540  176.8530  145.9710 S   0  0  2  0  0  0  0  0  0  0  0  0
  187.8060  177.7280  147.2940 C   0  0  0  0  0  1  0  0  0  0  0  0
  1 25  1  0  0  0  0
  1  2  1  0  0  0  0
  2 15  1  0  0  0  0
  3  1  2  0  0  0  0
  4  6  1  0  0  0  0
  5 12  1  1  0  0  0
  5  8  1  0  0  0  0
  6 10  1  0  0  0  0
  7  9  1  0  0  0  0
  8 11  1  6  0  0  0
  9  3  1  0  0  0  0
  9  6  2  0  0  0  0
 10  2  2  0  0  0  0
 10 19  1  0  0  0  0
 12 17  1  0  0  0  0
 13 14  1  0  0  0  0
 14  7  2  0  0  0  0
 14  4  1  0  0  0  0
 15 16  1  0  0  0  0
 16  8  1  0  0  0  0
 16 29  1  1  0  0  0
 17 11  1  0  0  0  0
 18 19  2  0  0  0  0
 19  5  1  0  0  0  0
 20 25  2  0  0  0  0
 20 21  1  0  0  0  0
 21 24  2  0  0  0  0
 22 20  1  0  0  0  0
 23 27  1  0  0  0  0
 23 26  2  0  0  0  0
 24 26  1  0  0  0  0
 25 23  1  0  0  0  0
 28 29  2  0  0  0  0
 29 30  1  1  0  0  0
M  END
>  <MODEL>
2

>  <REMARK>
 VINA RESULT:      -8.0      2.993      5.820
  Name = 
  2 active torsions:
  status: ('A' for Active; 'I' for Inactive)
    1  A    between atoms: C_1  and  C_22
    2  A    between atoms: S_11  and  C_25
                            x       y       z     vdW  Elec       q    Type
                         _______ _______ _______ _____ _____    ______ ____

>  <TORSDO>
F 2

$$$$
=
 OpenBabel10272413413D

 30 34  0  0  1  0  0  0  0  0999 V2000
  187.1880  177.7980  142.4770 C   0  0  0  0  0  0  0  0  0  0  0  0
  187.4260  177.9470  143.8690 C   0  0  0  0  0  0  0  0  0  0  0  0
  185.9060  178.0160  141.9460 C   0  0  0  0  0  3  0  0  0  0  0  0
  183.6290  178.9040  144.8990 S   0  0  0  0  0  0  0  0  0  0  0  0
  187.4150  177.2950  146.8660 C   0  0  1  0  0  3  0  0  0  0  0  0
  185.0920  178.5120  144.1600 C   0  0  0  0  0  0  0  0  0  0  0  0
  183.5960  178.5970  142.3850 N   0  0  0  0  0  0  0  0  0  0  0  0
  188.8920  177.6560  146.7680 C   0  0  2  0  0  3  0  0  0  0  0  0
  184.8710  178.3790  142.7980 C   0  0  0  0  0  0  0  0  0  0  0  0
  186.3510  178.2850  144.7380 C   0  0  0  0  0  0  0  0  0  0  0  0
  189.1850  178.4550  148.0180 C   0  0  0  0  0  2  0  0  0  0  0  0
  187.1300  177.1840  148.3570 C   0  0  0  0  0  2  0  0  0  0  0  0
  181.3430  179.1850  143.2910 C   0  0  0  0  0  1  0  0  0  0  0  0
  182.7950  178.9010  143.4320 C   0  0  0  0  0  0  0  0  0  0  0  0
  188.7340  177.7540  144.3390 O   0  0  0  0  0  0  0  0  0  0  0  0
  189.2750  178.4070  145.4840 C   0  0  2  0  0  3  0  0  0  0  0  0
  188.2750  177.8750  149.0820 C   0  0  0  0  0  2  0  0  0  0  0  0
  185.9530  179.2100  146.8880 O   0  0  0  0  0  0  0  0  0  0  0  0
  186.5240  178.3160  146.2040 C   0  0  0  0  0  0  0  0  0  0  0  0
  188.3480  178.0010  140.2560 C   0  0  0  0  0  0  0  0  0  0  0  0
  189.3920  177.6540  139.3930 C   0  0  0  0  0  3  0  0  0  0  0  0
  187.3410  178.8990  139.7950 N   0  0  0  0  0  1  0  0  0  0  0  0
  189.2950  176.5490  141.9610 C   0  0  0  0  0  0  0  0  0  0  0  0
  190.3830  176.7630  139.8090 C   0  0  0  0  0  3  0  0  0  0  0  0
  188.2870  177.4440  141.5510 C   0  0  0  0  0  0  0  0  0  0  0  0
  190.3340  176.2130  141.0900 C   0  0  0  0  0  3  0  0  0  0  0  0
  189.2860  176.0200  143.2100 F   0  0  0  0  0  0  0  0  0  0  0  0
  191.2770  178.8260  143.7990 O   0  0  0  0  0  0  0  0  0  0  0  0
  191.0710  178.5220  145.2770 S   0  0  2  0  0  0  0  0  0  0  0  0
  191.6800  176.8380  145.4620 C   0  0  0  0  0  1  0  0  0  0  0  0
  1  2  1  0  0  0  0
  2 15  1  0  0  0  0
  2 10  2  0  0  0  0
  3  1  2  0  0  0  0
  3  9  1  0  0  0  0
  5 12  1  1  0  0  0
  6 10  1  0  0  0  0
  6  4  1  0  0  0  0
  7  9  1  0  0  0  0
  7 14  2  0  0  0  0
  8  5  1  0  0  0  0
  8 11  1  1  0  0  0
  9  6  2  0  0  0  0
 10 19  1  0  0  0  0
 11 17  1  0  0  0  0
 12 17  1  0  0  0  0
 13 14  1  0  0  0  0
 14  4  1  0  0  0  0
 15 16  1  0  0  0  0
 16 29  1  6  0  0  0
 16  8  1  0  0  0  0
 19  5  1  0  0  0  0
 19 18  2  0  0  0  0
 20 25  1  0  0  0  0
 21 24  1  0  0  0  0
 21 20  2  0  0  0  0
 22 20  1  0  0  0  0
 23 27  1  0  0  0  0
 24 26  2  0  0  0  0
 25 23  2  0  0  0  0
 25  1  1  0  0  0  0
 26 23  1  0  0  0  0
 28 29  2  0  0  0  0
 29 30  1  6  0  0  0
M  END
>  <MODEL>
3

>  <REMARK>
 VINA RESULT:      -7.7      3.582      7.676
  Name = 
  2 active torsions:
  status: ('A' for Active; 'I' for Inactive)
    1  A    between atoms: C_1  and  C_22
    2  A    between atoms: S_11  and  C_25
                            x       y       z     vdW  Elec       q    Type
                         _______ _______ _______ _____ _____    ______ ____

>  <TORSDO>
F 2

$$$$
=
 OpenBabel10272413413D

 30 34  0  0  1  0  0  0  0  0999 V2000
  189.3710  177.5630  142.3980 C   0  0  0  0  0  0  0  0  0  0  0  0
  188.0100  177.9490  142.5250 C   0  0  0  0  0  0  0  0  0  0  0  0
  189.9970  177.5660  141.1410 C   0  0  0  0  0  3  0  0  0  0  0  0
  187.3530  178.6720  138.5950 S   0  0  0  0  0  0  0  0  0  0  0  0
  184.9520  177.7740  142.3660 C   0  0  1  0  0  3  0  0  0  0  0  0
  187.9400  178.3180  140.1360 C   0  0  0  0  0  0  0  0  0  0  0  0
  189.7830  177.9750  138.7630 N   0  0  0  0  0  0  0  0  0  0  0  0
  185.0280  178.2610  143.8080 C   0  0  2  0  0  3  0  0  0  0  0  0
  189.2720  177.9530  140.0210 C   0  0  0  0  0  0  0  0  0  0  0  0
  187.2660  178.3100  141.3660 C   0  0  0  0  0  0  0  0  0  0  0  0
  183.9090  179.2700  143.9410 C   0  0  0  0  0  2  0  0  0  0  0  0
  183.4800  177.8690  141.9900 C   0  0  0  0  0  2  0  0  0  0  0  0
  189.1070  178.4700  136.4090 C   0  0  0  0  0  1  0  0  0  0  0  0
  188.8430  178.3570  137.8680 C   0  0  0  0  0  0  0  0  0  0  0  0
  187.4450  177.9630  143.8100 O   0  0  0  0  0  0  0  0  0  0  0  0
  186.3930  178.8370  144.2090 C   0  0  2  0  0  3  0  0  0  0  0  0
  182.8150  178.7750  143.0160 C   0  0  0  0  0  2  0  0  0  0  0  0
  185.3180  179.5140  140.7390 O   0  0  0  0  0  0  0  0  0  0  0  0
  185.8170  178.5860  141.4340 C   0  0  0  0  0  0  0  0  0  0  0  0
  190.5620  175.8400  143.7880 C   0  0  0  0  0  0  0  0  0  0  0  0
  191.3130  175.4950  144.9160 C   0  0  0  0  0  3  0  0  0  0  0  0
  190.1840  174.8160  142.8710 N   0  0  0  0  0  1  0  0  0  0  0  0
  190.5490  178.1570  144.5240 C   0  0  0  0  0  0  0  0  0  0  0  0
  191.6830  176.4710  145.8420 C   0  0  0  0  0  3  0  0  0  0  0  0
  190.1660  177.1790  143.5850 C   0  0  0  0  0  0  0  0  0  0  0  0
  191.3020  177.7990  145.6460 C   0  0  0  0  0  3  0  0  0  0  0  0
  190.2150  179.4600  144.3450 F   0  0  0  0  0  0  0  0  0  0  0  0
  187.6630  178.1960  146.4460 O   0  0  0  0  0  0  0  0  0  0  0  0
  186.5190  179.0970  145.9980 S   0  0  2  0  0  0  0  0  0  0  0  0
  185.0540  178.3170  146.6960 C   0  0  0  0  0  1  0  0  0  0  0  0
  1  2  1  0  0  0  0
  1 25  1  0  0  0  0
  2 15  1  0  0  0  0
  3  1  2  0  0  0  0
  4  6  1  0  0  0  0
  5 12  1  6  0  0  0
  5  8  1  0  0  0  0
  6 10  1  0  0  0  0
  7  9  1  0  0  0  0
  8 11  1  6  0  0  0
  8 16  1  0  0  0  0
  9  6  2  0  0  0  0
  9  3  1  0  0  0  0
 10 19  1  0  0  0  0
 10  2  2  0  0  0  0
 12 17  1  0  0  0  0
 13 14  1  0  0  0  0
 14  4  1  0  0  0  0
 14  7  2  0  0  0  0
 15 16  1  0  0  0  0
 16 29  1  1  0  0  0
 17 11  1  0  0  0  0
 18 19  2  0  0  0  0
 19  5  1  0  0  0  0
 20 21  1  0  0  0  0
 21 24  2  0  0  0  0
 22 20  1  0  0  0  0
 23 26  2  0  0  0  0
 25 20  2  0  0  0  0
 25 23  1  0  0  0  0
 26 24  1  0  0  0  0
 27 23  1  0  0  0  0
 29 28  2  0  0  0  0
 29 30  1  1  0  0  0
M  END
>  <MODEL>
4

>  <REMARK>
 VINA RESULT:      -7.6      3.095      4.184
  Name = 
  2 active torsions:
  status: ('A' for Active; 'I' for Inactive)
    1  A    between atoms: C_1  and  C_22
    2  A    between atoms: S_11  and  C_25
                            x       y       z     vdW  Elec       q    Type
                         _______ _______ _______ _____ _____    ______ ____

>  <TORSDO>
F 2

$$$$
=
 OpenBabel10272413413D

 30 34  0  0  1  0  0  0  0  0999 V2000
  188.5270  177.2760  139.3440 C   0  0  0  0  0  0  0  0  0  0  0  0
  188.3960  177.4320  140.7490 C   0  0  0  0  0  0  0  0  0  0  0  0
  187.5140  177.7250  138.4810 C   0  0  0  0  0  3  0  0  0  0  0  0
  184.7400  179.1710  140.6970 S   0  0  0  0  0  0  0  0  0  0  0  0
  187.4260  176.9190  143.6130 C   0  0  1  0  0  3  0  0  0  0  0  0
  186.2390  178.4640  140.3880 C   0  0  0  0  0  0  0  0  0  0  0  0
  185.3410  178.7730  138.2690 N   0  0  0  0  0  0  0  0  0  0  0  0
  188.9140  176.9730  143.9370 C   0  0  2  0  0  3  0  0  0  0  0  0
  186.3800  178.3220  139.0170 C   0  0  0  0  0  0  0  0  0  0  0  0
  187.2150  178.0140  141.2900 C   0  0  0  0  0  0  0  0  0  0  0  0
  189.0070  177.7480  145.2320 C   0  0  0  0  0  2  0  0  0  0  0  0
  186.7240  176.9290  144.9640 C   0  0  0  0  0  2  0  0  0  0  0  0
  183.0940  179.8380  138.5200 C   0  0  0  0  0  1  0  0  0  0  0  0
  184.3610  179.2750  139.0560 C   0  0  0  0  0  0  0  0  0  0  0  0
  189.4560  177.0000  141.5620 O   0  0  0  0  0  0  0  0  0  0  0  0
  189.7810  177.5780  142.8240 C   0  0  2  0  0  3  0  0  0  0  0  0
  187.7400  177.4060  145.9910 C   0  0  0  0  0  2  0  0  0  0  0  0
  186.4360  179.0880  143.2590 O   0  0  0  0  0  0  0  0  0  0  0  0
  186.9790  178.0700  142.7460 C   0  0  0  0  0  0  0  0  0  0  0  0
  189.6460  175.5910  137.8520 C   0  0  0  0  0  0  0  0  0  0  0  0
  190.8050  175.0300  137.3050 C   0  0  0  0  0  3  0  0  0  0  0  0
  188.3800  175.0370  137.5030 N   0  0  0  0  0  1  0  0  0  0  0  0
  191.0140  177.1790  139.0840 C   0  0  0  0  0  0  0  0  0  0  0  0
  192.0610  175.5390  137.6420 C   0  0  0  0  0  3  0  0  0  0  0  0
  189.7420  176.6710  138.7550 C   0  0  0  0  0  0  0  0  0  0  0  0
  192.1640  176.6110  138.5290 C   0  0  0  0  0  3  0  0  0  0  0  0
  191.1430  178.2370  139.9230 F   0  0  0  0  0  0  0  0  0  0  0  0
  191.6150  176.1460  144.0910 O   0  0  0  0  0  0  0  0  0  0  0  0
  191.5490  177.3240  143.1270 S   0  0  2  0  0  0  0  0  0  0  0  0
  192.0670  178.7300  144.1260 C   0  0  0  0  0  1  0  0  0  0  0  0
  1  2  1  0  0  0  0
  2 10  2  0  0  0  0
  2 15  1  0  0  0  0
  3  9  1  0  0  0  0
  3  1  2  0  0  0  0
  5  8  1  0  0  0  0
  5 12  1  1  0  0  0
  6  4  1  0  0  0  0
  6 10  1  0  0  0  0
  7  9  1  0  0  0  0
  7 14  2  0  0  0  0
  8 11  1  1  0  0  0
  9  6  2  0  0  0  0
 10 19  1  0  0  0  0
 11 17  1  0  0  0  0
 12 17  1  0  0  0  0
 13 14  1  0  0  0  0
 14  4  1  0  0  0  0
 15 16  1  0  0  0  0
 16 29  1  1  0  0  0
 16  8  1  0  0  0  0
 19 18  2  0  0  0  0
 19  5  1  0  0  0  0
 20 25  1  0  0  0  0
 21 24  1  0  0  0  0
 21 20  2  0  0  0  0
 22 20  1  0  0  0  0
 23 27  1  0  0  0  0
 24 26  2  0  0  0  0
 25 23  2  0  0  0  0
 25  1  1  0  0  0  0
 26 23  1  0  0  0  0
 29 28  2  0  0  0  0
 29 30  1  1  0  0  0
M  END
>  <MODEL>
5

>  <REMARK>
 VINA RESULT:      -7.5      3.713      7.274
  Name = 
  2 active torsions:
  status: ('A' for Active; 'I' for Inactive)
    1  A    between atoms: C_1  and  C_22
    2  A    between atoms: S_11  and  C_25
                            x       y       z     vdW  Elec       q    Type
                         _______ _______ _______ _____ _____    ______ ____

>  <TORSDO>
F 2

$$$$
=
 OpenBabel10272413413D

 30 34  0  0  1  0  0  0  0  0999 V2000
  188.3370  177.8400  142.3460 C   0  0  0  0  0  0  0  0  0  0  0  0
  187.0070  178.1520  141.9560 C   0  0  0  0  0  0  0  0  0  0  0  0
  189.3350  177.6430  141.3770 C   0  0  0  0  0  3  0  0  0  0  0  0
  187.6490  178.0550  137.9590 S   0  0  0  0  0  0  0  0  0  0  0  0
  184.1630  177.7430  140.8820 C   0  0  1  0  0  3  0  0  0  0  0  0
  187.7090  178.0450  139.6440 C   0  0  0  0  0  0  0  0  0  0  0  0
  189.8960  177.5690  139.0220 N   0  0  0  0  0  0  0  0  0  0  0  0
  183.7700  178.5030  142.1420 C   0  0  2  0  0  3  0  0  0  0  0  0
  189.0080  177.7560  140.0320 C   0  0  0  0  0  0  0  0  0  0  0  0
  186.6750  178.2300  140.5740 C   0  0  0  0  0  0  0  0  0  0  0  0
  182.6660  179.4410  141.7070 C   0  0  0  0  0  2  0  0  0  0  0  0
  182.8900  177.6640  140.0500 C   0  0  0  0  0  2  0  0  0  0  0  0
  190.0130  177.5530  136.5260 C   0  0  0  0  0  1  0  0  0  0  0  0
  189.2940  177.7070  137.8180 C   0  0  0  0  0  0  0  0  0  0  0  0
  186.0590  178.3750  142.9660 O   0  0  0  0  0  0  0  0  0  0  0  0
  184.9320  179.2370  142.8260 C   0  0  2  0  0  3  0  0  0  0  0  0
  181.9290  178.7040  140.6070 C   0  0  0  0  0  2  0  0  0  0  0  0
  185.0310  179.1560  139.1330 O   0  0  0  0  0  0  0  0  0  0  0  0
  185.2810  178.4160  140.1240 C   0  0  0  0  0  0  0  0  0  0  0  0
  189.8510  178.4140  144.2670 C   0  0  0  0  0  0  0  0  0  0  0  0
  190.1890  178.3160  145.6210 C   0  0  0  0  0  3  0  0  0  0  0  0
  190.6920  179.1700  143.3990 N   0  0  0  0  0  1  0  0  0  0  0  0
  187.9140  177.0010  144.6650 C   0  0  0  0  0  0  0  0  0  0  0  0
  189.3970  177.5680  146.4930 C   0  0  0  0  0  3  0  0  0  0  0  0
  188.7090  177.7490  143.7750 C   0  0  0  0  0  0  0  0  0  0  0  0
  188.2610  176.9130  146.0150 C   0  0  0  0  0  3  0  0  0  0  0  0
  186.7900  176.3750  144.2330 F   0  0  0  0  0  0  0  0  0  0  0  0
  185.6360  179.4460  145.3730 O   0  0  0  0  0  0  0  0  0  0  0  0
  184.4760  179.8460  144.4700 S   0  0  2  0  0  0  0  0  0  0  0  0
  183.1220  178.7880  145.0100 C   0  0  0  0  0  1  0  0  0  0  0  0
  1 25  1  0  0  0  0
  2  1  1  0  0  0  0
  2 15  1  0  0  0  0
  3  1  2  0  0  0  0
  4  6  1  0  0  0  0
  5 12  1  6  0  0  0
  5  8  1  0  0  0  0
  6  9  2  0  0  0  0
  6 10  1  0  0  0  0
  7  9  1  0  0  0  0
  8 11  1  6  0  0  0
  8 16  1  0  0  0  0
  9  3  1  0  0  0  0
 10  2  2  0  0  0  0
 12 17  1  0  0  0  0
 13 14  1  0  0  0  0
 14  4  1  0  0  0  0
 14  7  2  0  0  0  0
 16 15  1  0  0  0  0
 16 29  1  1  0  0  0
 17 11  1  0  0  0  0
 18 19  2  0  0  0  0
 19 10  1  0  0  0  0
 19  5  1  0  0  0  0
 20 21  1  0  0  0  0
 21 24  2  0  0  0  0
 22 20  1  0  0  0  0
 23 26  2  0  0  0  0
 25 20  2  0  0  0  0
 25 23  1  0  0  0  0
 26 24  1  0  0  0  0
 27 23  1  0  0  0  0
 29 30  1  1  0  0  0
 29 28  2  0  0  0  0
M  END
>  <MODEL>
6

>  <REMARK>
 VINA RESULT:      -7.3      2.226      2.800
  Name = 
  2 active torsions:
  status: ('A' for Active; 'I' for Inactive)
    1  A    between atoms: C_1  and  C_22
    2  A    between atoms: S_11  and  C_25
                            x       y       z     vdW  Elec       q    Type
                         _______ _______ _______ _____ _____    ______ ____

>  <TORSDO>
F 2

$$$$
=
 OpenBabel10272413413D

 30 34  0  0  1  0  0  0  0  0999 V2000
  186.8210  177.8260  138.6510 C   0  0  0  0  0  0  0  0  0  0  0  0
  187.0380  177.9330  140.0500 C   0  0  0  0  0  0  0  0  0  0  0  0
  185.5970  178.2240  138.0890 C   0  0  0  0  0  3  0  0  0  0  0  0
  183.3840  179.4060  140.9880 S   0  0  0  0  0  0  0  0  0  0  0  0
  186.8530  177.2730  143.0400 C   0  0  1  0  0  3  0  0  0  0  0  0
  184.7990  178.8170  140.2840 C   0  0  0  0  0  0  0  0  0  0  0  0
  183.3790  179.1190  138.4710 N   0  0  0  0  0  0  0  0  0  0  0  0
  188.3680  177.4250  142.9850 C   0  0  2  0  0  3  0  0  0  0  0  0
  184.5990  178.7240  138.9160 C   0  0  0  0  0  0  0  0  0  0  0  0
  185.9970  178.4130  140.8940 C   0  0  0  0  0  0  0  0  0  0  0  0
  188.7340  178.1680  144.2500 C   0  0  0  0  0  2  0  0  0  0  0  0
  186.5130  177.1950  144.5230 C   0  0  0  0  0  2  0  0  0  0  0  0
  181.2060  180.0120  139.3210 C   0  0  0  0  0  1  0  0  0  0  0  0
  182.5990  179.5270  139.4990 C   0  0  0  0  0  0  0  0  0  0  0  0
  188.2930  177.5560  140.5540 O   0  0  0  0  0  0  0  0  0  0  0  0
  188.8870  178.1210  141.7200 C   0  0  2  0  0  3  0  0  0  0  0  0
  187.7230  177.7160  145.2840 C   0  0  0  0  0  2  0  0  0  0  0  0
  185.6720  179.3740  143.0400 O   0  0  0  0  0  0  0  0  0  0  0  0
  186.1310  178.4120  142.3640 C   0  0  0  0  0  0  0  0  0  0  0  0
  188.9330  178.1740  137.3340 C   0  0  0  0  0  0  0  0  0  0  0  0
  189.9300  177.6860  136.4830 C   0  0  0  0  0  3  0  0  0  0  0  0
  188.9820  179.5380  137.7430 N   0  0  0  0  0  1  0  0  0  0  0  0
  187.8670  175.9890  137.3130 C   0  0  0  0  0  0  0  0  0  0  0  0
  189.9000  176.3590  136.0500 C   0  0  0  0  0  3  0  0  0  0  0  0
  187.8850  177.3270  137.7520 C   0  0  0  0  0  0  0  0  0  0  0  0
  188.8710  175.5130  136.4650 C   0  0  0  0  0  3  0  0  0  0  0  0
  186.8930  175.1370  137.7210 F   0  0  0  0  0  0  0  0  0  0  0  0
  190.9230  177.5490  140.1220 O   0  0  0  0  0  0  0  0  0  0  0  0
  190.6870  177.9860  141.5620 S   0  0  2  0  0  0  0  0  0  0  0  0
  191.1420  176.5390  142.5330 C   0  0  0  0  0  1  0  0  0  0  0  0
  1  2  1  0  0  0  0
  2 15  1  0  0  0  0
  2 10  2  0  0  0  0
  3  1  2  0  0  0  0
  3  9  1  0  0  0  0
  5 12  1  1  0  0  0
  6 10  1  0  0  0  0
  6  4  1  0  0  0  0
  7  9  1  0  0  0  0
  7 14  2  0  0  0  0
  8  5  1  0  0  0  0
  8 11  1  1  0  0  0
  9  6  2  0  0  0  0
 10 19  1  0  0  0  0
 11 17  1  0  0  0  0
 12 17  1  0  0  0  0
 13 14  1  0  0  0  0
 14  4  1  0  0  0  0
 15 16  1  0  0  0  0
 16 29  1  6  0  0  0
 16  8  1  0  0  0  0
 19 18  2  0  0  0  0
 19  5  1  0  0  0  0
 20 22  1  0  0  0  0
 20 25  1  0  0  0  0
 21 20  2  0  0  0  0
 23 27  1  0  0  0  0
 23 25  2  0  0  0  0
 24 26  2  0  0  0  0
 24 21  1  0  0  0  0
 25  1  1  0  0  0  0
 26 23  1  0  0  0  0
 28 29  2  0  0  0  0
 29 30  1  1  0  0  0
M  END
>  <MODEL>
7

>  <REMARK>
 VINA RESULT:      -7.2      3.191      7.224
  Name = 
  2 active torsions:
  status: ('A' for Active; 'I' for Inactive)
    1  A    between atoms: C_1  and  C_22
    2  A    between atoms: S_11  and  C_25
                            x       y       z     vdW  Elec       q    Type
                         _______ _______ _______ _____ _____    ______ ____

>  <TORSDO>
F 2

$$$$
=
 OpenBabel10272413413D

 30 34  0  0  1  0  0  0  0  0999 V2000
  188.3360  176.7480  137.4660 C   0  0  0  0  0  0  0  0  0  0  0  0
  188.9000  176.9520  138.7530 C   0  0  0  0  0  0  0  0  0  0  0  0
  187.0510  177.2310  137.1680 C   0  0  0  0  0  3  0  0  0  0  0  0
  185.7360  178.9030  140.3570 S   0  0  0  0  0  0  0  0  0  0  0  0
  189.4020  176.5810  141.7560 C   0  0  1  0  0  3  0  0  0  0  0  0
  186.8750  178.1000  139.4090 C   0  0  0  0  0  0  0  0  0  0  0  0
  185.0840  178.4000  137.9610 N   0  0  0  0  0  0  0  0  0  0  0  0
  190.8630  176.5550  141.3280 C   0  0  2  0  0  3  0  0  0  0  0  0
  186.3370  177.9100  138.1460 C   0  0  0  0  0  0  0  0  0  0  0  0
  188.1460  177.6180  139.7600 C   0  0  0  0  0  0  0  0  0  0  0  0
  191.5950  177.3610  142.3790 C   0  0  0  0  0  2  0  0  0  0  0  0
  189.4330  176.6720  143.2760 C   0  0  0  0  0  2  0  0  0  0  0  0
  183.2750  179.6030  139.1950 C   0  0  0  0  0  1  0  0  0  0  0  0
  184.6210  178.9810  139.0920 C   0  0  0  0  0  0  0  0  0  0  0  0
  190.2030  176.4810  138.9840 O   0  0  0  0  0  0  0  0  0  0  0  0
  191.1140  177.0760  139.9050 C   0  0  2  0  0  3  0  0  0  0  0  0
  190.8350  177.1170  143.6670 C   0  0  0  0  0  2  0  0  0  0  0  0
  188.4470  178.7930  141.8000 O   0  0  0  0  0  0  0  0  0  0  0  0
  188.6390  177.7310  141.1470 C   0  0  0  0  0  0  0  0  0  0  0  0
  189.1080  174.6460  136.3240 C   0  0  0  0  0  0  0  0  0  0  0  0
  189.8330  174.0070  135.3140 C   0  0  0  0  0  3  0  0  0  0  0  0
  188.4090  173.8520  137.2800 N   0  0  0  0  0  1  0  0  0  0  0  0
  189.8130  176.8000  135.4460 C   0  0  0  0  0  0  0  0  0  0  0  0
  190.5420  174.7560  134.3740 C   0  0  0  0  0  3  0  0  0  0  0  0
  189.0970  176.0550  136.4030 C   0  0  0  0  0  0  0  0  0  0  0  0
  190.5310  176.1500  134.4400 C   0  0  0  0  0  3  0  0  0  0  0  0
  189.7980  178.1570  135.4710 F   0  0  0  0  0  0  0  0  0  0  0  0
  193.5520  178.0390  139.5140 O   0  0  0  0  0  0  0  0  0  0  0  0
  192.8000  176.7250  139.3430 S   0  0  2  0  0  0  0  0  0  0  0  0
  192.6740  176.5290  137.5570 C   0  0  0  0  0  1  0  0  0  0  0  0
  1  2  1  0  0  0  0
  2 15  1  0  0  0  0
  2 10  2  0  0  0  0
  3  1  2  0  0  0  0
  3  9  1  0  0  0  0
  5 12  1  1  0  0  0
  6 10  1  0  0  0  0
  6  4  1  0  0  0  0
  7  9  1  0  0  0  0
  7 14  2  0  0  0  0
  8  5  1  0  0  0  0
  8 11  1  1  0  0  0
  9  6  2  0  0  0  0
 10 19  1  0  0  0  0
 11 17  1  0  0  0  0
 12 17  1  0  0  0  0
 14 13  1  0  0  0  0
 14  4  1  0  0  0  0
 15 16  1  0  0  0  0
 16 29  1  6  0  0  0
 16  8  1  0  0  0  0
 19  5  1  0  0  0  0
 19 18  2  0  0  0  0
 20 25  1  0  0  0  0
 20 22  1  0  0  0  0
 21 20  2  0  0  0  0
 23 27  1  0  0  0  0
 23 25  2  0  0  0  0
 24 26  2  0  0  0  0
 24 21  1  0  0  0  0
 25  1  1  0  0  0  0
 26 23  1  0  0  0  0
 29 30  1  6  0  0  0
 29 28  2  0  0  0  0
M  END
>  <MODEL>
8

>  <REMARK>
 VINA RESULT:      -7.1      4.417      8.627
  Name = 
  2 active torsions:
  status: ('A' for Active; 'I' for Inactive)
    1  A    between atoms: C_1  and  C_22
    2  A    between atoms: S_11  and  C_25
                            x       y       z     vdW  Elec       q    Type
                         _______ _______ _______ _____ _____    ______ ____

>  <TORSDO>
F 2

$$$$
=
 OpenBabel10272413413D

 30 34  0  0  1  0  0  0  0  0999 V2000
  187.9550  177.6060  139.4110 C   0  0  0  0  0  0  0  0  0  0  0  0
  186.9500  177.8900  140.3730 C   0  0  0  0  0  0  0  0  0  0  0  0
  189.2240  177.1620  139.8190 C   0  0  0  0  0  3  0  0  0  0  0  0
  189.1740  177.0490  143.6500 S   0  0  0  0  0  0  0  0  0  0  0  0
  185.4200  179.3980  142.5620 C   0  0  1  0  0  3  0  0  0  0  0  0
  188.5140  177.2940  142.1180 C   0  0  0  0  0  0  0  0  0  0  0  0
  190.6840  176.5960  141.6670 N   0  0  0  0  0  0  0  0  0  0  0  0
  184.2190  179.1160  141.6690 C   0  0  2  0  0  3  0  0  0  0  0  0
  189.4860  177.0040  141.1740 C   0  0  0  0  0  0  0  0  0  0  0  0
  187.2400  177.7590  141.7610 C   0  0  0  0  0  0  0  0  0  0  0  0
  183.1030  178.7430  142.6180 C   0  0  0  0  0  2  0  0  0  0  0  0
  184.8340  179.9280  143.8640 C   0  0  0  0  0  2  0  0  0  0  0  0
  191.8330  176.1640  143.8430 C   0  0  0  0  0  1  0  0  0  0  0  0
  190.6630  176.5660  143.0200 C   0  0  0  0  0  0  0  0  0  0  0  0
  185.6890  178.2940  139.9080 O   0  0  0  0  0  0  0  0  0  0  0  0
  184.4670  178.0440  140.5980 C   0  0  2  0  0  3  0  0  0  0  0  0
  183.3590  179.5540  143.8720 C   0  0  0  0  0  2  0  0  0  0  0  0
  186.1390  177.4890  143.8460 O   0  0  0  0  0  0  0  0  0  0  0  0
  186.2710  178.1740  142.7940 C   0  0  0  0  0  0  0  0  0  0  0  0
  188.2350  178.8010  137.2180 C   0  0  0  0  0  0  0  0  0  0  0  0
  187.9660  178.9110  135.8500 C   0  0  0  0  0  3  0  0  0  0  0  0
  189.0490  179.7900  137.8430 N   0  0  0  0  0  1  0  0  0  0  0  0
  186.8720  176.7900  137.3080 C   0  0  0  0  0  0  0  0  0  0  0  0
  187.1580  177.9680  135.2130 C   0  0  0  0  0  3  0  0  0  0  0  0
  187.6820  177.7370  137.9630 C   0  0  0  0  0  0  0  0  0  0  0  0
  186.6130  176.9100  135.9410 C   0  0  0  0  0  3  0  0  0  0  0  0
  186.3510  175.7360  137.9860 F   0  0  0  0  0  0  0  0  0  0  0  0
  183.7220  177.2530  138.1810 O   0  0  0  0  0  0  0  0  0  0  0  0
  183.1280  177.9840  139.3780 S   0  0  2  0  0  0  0  0  0  0  0  0
  182.9360  179.6780  138.7990 C   0  0  0  0  0  1  0  0  0  0  0  0
  1  3  2  0  0  0  0
  1  2  1  0  0  0  0
  2 10  2  0  0  0  0
  3  9  1  0  0  0  0
  5 19  1  0  0  0  0
  5 12  1  1  0  0  0
  6  4  1  0  0  0  0
  7 14  2  0  0  0  0
  8  5  1  0  0  0  0
  8 11  1  1  0  0  0
  9  7  1  0  0  0  0
  9  6  2  0  0  0  0
 10  6  1  0  0  0  0
 10 19  1  0  0  0  0
 11 17  1  0  0  0  0
 12 17  1  0  0  0  0
 14  4  1  0  0  0  0
 14 13  1  0  0  0  0
 15  2  1  0  0  0  0
 15 16  1  0  0  0  0
 16 29  1  6  0  0  0
 16  8  1  0  0  0  0
 19 18  2  0  0  0  0
 20 22  1  0  0  0  0
 20 25  1  0  0  0  0
 21 20  2  0  0  0  0
 23 25  2  0  0  0  0
 23 27  1  0  0  0  0
 24 21  1  0  0  0  0
 24 26  2  0  0  0  0
 25  1  1  0  0  0  0
 26 23  1  0  0  0  0
 28 29  2  0  0  0  0
 29 30  1  6  0  0  0
M  END
>  <MODEL>
9

>  <REMARK>
 VINA RESULT:      -7.0      2.926      6.061
  Name = 
  2 active torsions:
  status: ('A' for Active; 'I' for Inactive)
    1  A    between atoms: C_1  and  C_22
    2  A    between atoms: S_11  and  C_25
                            x       y       z     vdW  Elec       q    Type
                         _______ _______ _______ _____ _____    ______ ____

>  <TORSDO>
F 2

$$$$
