=
 OpenBabel10272400163D

 31 35  0  0  1  0  0  0  0  0999 V2000
  186.8350  178.2080  138.9210 C   0  0  2  0  0  3  0  0  0  0  0  0
  184.3950  178.3180  141.8660 N   0  0  0  0  0  0  0  0  0  0  0  0
  183.0710  178.1510  141.2950 C   0  0  0  0  0  0  0  0  0  0  0  0
  181.7630  177.0430  139.3990 C   0  0  0  0  0  3  0  0  0  0  0  0
  185.6130  177.9900  141.0910 C   0  0  1  0  0  3  0  0  0  0  0  0
  188.1380  178.4860  139.6740 C   0  0  0  0  0  2  0  0  0  0  0  0
  182.9430  177.4040  140.1910 C   0  0  0  0  0  3  0  0  0  0  0  0
  185.7930  178.5850  144.0210 C   0  0  1  0  0  3  0  0  0  0  0  0
  186.8610  178.8610  137.6900 O   0  0  0  0  0  1  0  0  0  0  0  0
  182.1530  179.2210  143.2600 C   0  0  0  0  0  3  0  0  0  0  0  0
  180.5190  177.4920  139.5000 C   0  0  0  0  0  3  0  0  0  0  0  0
  186.8540  177.8270  143.2330 C   0  0  0  0  0  2  0  0  0  0  0  0
  184.4810  178.6560  143.2720 C   0  0  0  0  0  0  0  0  0  0  0  0
  185.6300  178.6900  139.7290 C   0  0  0  0  0  2  0  0  0  0  0  0
  179.9820  178.4670  140.4480 C   0  0  0  0  0  3  0  0  0  0  0  0
  186.8960  178.3790  141.8280 C   0  0  1  0  0  3  0  0  0  0  0  0
  188.1040  177.8530  141.0650 C   0  0  0  0  0  2  0  0  0  0  0  0
  183.4330  179.1100  143.8920 N   0  0  0  0  0  0  0  0  0  0  0  0
  181.9320  178.7620  142.0280 C   0  0  0  0  0  0  0  0  0  0  0  0
  180.5770  178.9930  141.5130 C   0  0  0  0  0  3  0  0  0  0  0  0
  185.6050  177.9330  145.3860 C   0  0  0  0  0  2  0  0  0  0  0  0
  185.6910  179.1370  147.4340 O   0  0  0  0  0  1  0  0  0  0  0  0
  186.4920  178.5890  146.4330 C   0  0  1  0  0  3  0  0  0  0  0  0
  187.3900  177.6000  147.0150 N   0  0  0  0  0  2  0  0  0  0  0  0
  191.0130  176.6510  147.0000 C   0  0  0  0  0  0  0  0  0  0  0  0
  190.4630  177.7460  144.9130 C   0  0  0  0  0  3  0  0  0  0  0  0
  191.9420  176.0320  147.8250 O   0  0  0  0  0  1  0  0  0  0  0  0
  189.6910  176.8030  147.4280 C   0  0  0  0  0  3  0  0  0  0  0  0
  189.1400  177.8980  145.3400 C   0  0  0  0  0  3  0  0  0  0  0  0
  188.7470  177.4270  146.5980 C   0  0  0  0  0  0  0  0  0  0  0  0
  191.3980  177.1220  145.7420 C   0  0  0  0  0  3  0  0  0  0  0  0
  1  9  1  6  0  0  0
  1  6  1  0  0  0  0
  1 14  1  0  0  0  0
  2 13  1  0  0  0  0
  3  2  1  0  0  0  0
  3 19  1  0  0  0  0
  4 11  2  0  0  0  0
  4  7  1  0  0  0  0
  5 14  1  6  0  0  0
  5 16  1  0  0  0  0
  5  2  1  0  0  0  0
  6 17  1  0  0  0  0
  7  3  2  0  0  0  0
  8 21  1  1  0  0  0
 10 18  1  0  0  0  0
 11 15  1  0  0  0  0
 12  8  1  0  0  0  0
 13 18  2  0  0  0  0
 13  8  1  0  0  0  0
 15 20  2  0  0  0  0
 16 17  1  6  0  0  0
 16 12  1  0  0  0  0
 19 10  2  0  0  0  0
 20 19  1  0  0  0  0
 21 23  1  0  0  0  0
 23 24  1  0  0  0  0
 23 22  1  1  0  0  0
 25 28  1  0  0  0  0
 25 27  1  0  0  0  0
 26 29  2  0  0  0  0
 26 31  1  0  0  0  0
 29 30  1  0  0  0  0
 30 24  1  0  0  0  0
 30 28  2  0  0  0  0
 31 25  2  0  0  0  0
M  END
>  <MODEL>
1

>  <REMARK>
 VINA RESULT:      -9.3      0.000      0.000
  Name = 
  4 active torsions:
  status: ('A' for Active; 'I' for Inactive)
    1  A    between atoms: N_3  and  C_9
    2  A    between atoms: N_3  and  C_22
    3  A    between atoms: C_9  and  C_23
    4  A    between atoms: C_15  and  C_23
                            x       y       z     vdW  Elec       q    Type
                         _______ _______ _______ _____ _____    ______ ____

>  <TORSDO>
F 4

$$$$
=
 OpenBabel10272400163D

 31 35  0  0  1  0  0  0  0  0999 V2000
  186.5300  178.0040  146.7320 C   0  0  2  0  0  3  0  0  0  0  0  0
  186.8270  177.9770  142.9170 N   0  0  0  0  0  0  0  0  0  0  0  0
  188.1230  177.3940  142.6210 C   0  0  0  0  0  0  0  0  0  0  0  0
  189.8610  175.7020  143.4280 C   0  0  0  0  0  3  0  0  0  0  0  0
  186.2120  177.8430  144.2580 C   0  0  1  0  0  3  0  0  0  0  0  0
  185.1820  178.7170  146.8660 C   0  0  0  0  0  2  0  0  0  0  0  0
  188.6120  176.4700  143.4580 C   0  0  0  0  0  3  0  0  0  0  0  0
  184.6240  178.9300  141.9620 C   0  0  1  0  0  3  0  0  0  0  0  0
  187.3860  178.4340  147.7440 O   0  0  0  0  0  1  0  0  0  0  0  0
  188.0650  178.5060  140.4740 C   0  0  0  0  0  3  0  0  0  0  0  0
  190.9050  175.8370  142.6210 C   0  0  0  0  0  3  0  0  0  0  0  0
  184.0120  178.3430  143.2280 C   0  0  0  0  0  2  0  0  0  0  0  0
  186.0800  178.5490  141.8150 C   0  0  0  0  0  0  0  0  0  0  0  0
  187.1620  178.2950  145.3710 C   0  0  0  0  0  2  0  0  0  0  0  0
  191.0870  176.7880  141.5250 C   0  0  0  0  0  3  0  0  0  0  0  0
  184.9210  178.6530  144.3920 C   0  0  1  0  0  3  0  0  0  0  0  0
  184.2490  178.3300  145.7190 C   0  0  0  0  0  2  0  0  0  0  0  0
  186.6870  178.8210  140.6980 N   0  0  0  0  0  0  0  0  0  0  0  0
  188.7830  177.8120  141.3570 C   0  0  0  0  0  0  0  0  0  0  0  0
  190.1910  177.6110  140.9930 C   0  0  0  0  0  3  0  0  0  0  0  0
  183.8200  178.4820  140.7470 C   0  0  0  0  0  2  0  0  0  0  0  0
  184.3130  180.1180  139.0950 O   0  0  0  0  0  1  0  0  0  0  0  0
  183.3100  179.6770  139.9580 C   0  0  1  0  0  3  0  0  0  0  0  0
  182.1350  179.2980  139.1840 N   0  0  0  0  0  2  0  0  0  0  0  0
  180.7940  182.2640  137.3340 C   0  0  0  0  0  0  0  0  0  0  0  0
  180.6720  180.3110  135.9100 C   0  0  0  0  0  3  0  0  0  0  0  0
  180.5780  183.6210  137.5350 O   0  0  0  0  0  1  0  0  0  0  0  0
  181.3510  181.4870  138.3530 C   0  0  0  0  0  3  0  0  0  0  0  0
  181.2290  179.5320  136.9300 C   0  0  0  0  0  3  0  0  0  0  0  0
  181.5720  180.1160  138.1540 C   0  0  0  0  0  0  0  0  0  0  0  0
  180.4560  181.6760  136.1120 C   0  0  0  0  0  3  0  0  0  0  0  0
  1  6  1  0  0  0  0
  1  9  1  1  0  0  0
  2  5  1  0  0  0  0
  3  2  1  0  0  0  0
  3  7  2  0  0  0  0
  4  7  1  0  0  0  0
  5 16  1  0  0  0  0
  5 14  1  1  0  0  0
  8 21  1  6  0  0  0
  8 12  1  0  0  0  0
 10 18  1  0  0  0  0
 10 19  2  0  0  0  0
 11  4  2  0  0  0  0
 13  8  1  0  0  0  0
 13  2  1  0  0  0  0
 14  1  1  0  0  0  0
 15 11  1  0  0  0  0
 16 12  1  6  0  0  0
 16 17  1  0  0  0  0
 17  6  1  0  0  0  0
 18 13  2  0  0  0  0
 19  3  1  0  0  0  0
 20 19  1  0  0  0  0
 20 15  2  0  0  0  0
 23 22  1  6  0  0  0
 23 21  1  0  0  0  0
 24 23  1  0  0  0  0
 25 27  1  0  0  0  0
 25 28  1  0  0  0  0
 26 31  1  0  0  0  0
 26 29  2  0  0  0  0
 29 30  1  0  0  0  0
 30 28  2  0  0  0  0
 30 24  1  0  0  0  0
 31 25  2  0  0  0  0
M  END
>  <MODEL>
2

>  <REMARK>
 VINA RESULT:      -9.2      2.944      9.109
  Name = 
  4 active torsions:
  status: ('A' for Active; 'I' for Inactive)
    1  A    between atoms: N_3  and  C_9
    2  A    between atoms: N_3  and  C_22
    3  A    between atoms: C_9  and  C_23
    4  A    between atoms: C_15  and  C_23
                            x       y       z     vdW  Elec       q    Type
                         _______ _______ _______ _____ _____    ______ ____

>  <TORSDO>
F 4

$$$$
=
 OpenBabel10272400163D

 31 35  0  0  1  0  0  0  0  0999 V2000
  189.8840  177.1910  140.3070 C   0  0  2  0  0  3  0  0  0  0  0  0
  188.0830  177.7740  143.6330 N   0  0  0  0  0  0  0  0  0  0  0  0
  189.0780  177.5650  144.6690 C   0  0  0  0  0  0  0  0  0  0  0  0
  191.5640  177.7860  145.2200 C   0  0  0  0  0  3  0  0  0  0  0  0
  188.4750  177.9730  142.2180 C   0  0  1  0  0  3  0  0  0  0  0  0
  188.6970  177.3550  139.3560 C   0  0  0  0  0  2  0  0  0  0  0  0
  190.3540  177.8700  144.3970 C   0  0  0  0  0  3  0  0  0  0  0  0
  185.6470  178.4370  143.0880 C   0  0  1  0  0  3  0  0  0  0  0  0
  190.7120  176.1680  139.8470 O   0  0  0  0  0  1  0  0  0  0  0  0
  187.2800  177.1170  146.2220 C   0  0  0  0  0  3  0  0  0  0  0  0
  191.7230  177.2420  146.4190 C   0  0  0  0  0  3  0  0  0  0  0  0
  186.2590  179.0120  141.8170 C   0  0  0  0  0  2  0  0  0  0  0  0
  186.7070  177.9480  144.0490 C   0  0  0  0  0  0  0  0  0  0  0  0
  189.4030  176.8610  141.7200 C   0  0  0  0  0  2  0  0  0  0  0  0
  190.7200  176.5860  147.2570 C   0  0  0  0  0  3  0  0  0  0  0  0
  187.2690  178.0270  141.2800 C   0  0  1  0  0  3  0  0  0  0  0  0
  187.7260  178.4130  139.8800 C   0  0  0  0  0  2  0  0  0  0  0  0
  186.3480  177.6000  145.2490 N   0  0  0  0  0  0  0  0  0  0  0  0
  188.5930  177.0990  145.9930 C   0  0  0  0  0  0  0  0  0  0  0  0
  189.4050  176.5340  147.0780 C   0  0  0  0  0  3  0  0  0  0  0  0
  184.7560  179.4840  143.7470 C   0  0  0  0  0  2  0  0  0  0  0  0
  183.2580  179.1700  145.5650 O   0  0  0  0  0  1  0  0  0  0  0  0
  183.4460  178.8710  144.2160 C   0  0  1  0  0  3  0  0  0  0  0  0
  182.3370  179.4090  143.4390 N   0  0  0  0  0  2  0  0  0  0  0  0
  182.1650  177.9660  139.9870 C   0  0  0  0  0  0  0  0  0  0  0  0
  179.9820  177.8290  141.0230 C   0  0  0  0  0  3  0  0  0  0  0  0
  182.9970  177.7380  138.8990 O   0  0  0  0  0  1  0  0  0  0  0  0
  182.6760  178.5630  141.1430 C   0  0  0  0  0  3  0  0  0  0  0  0
  180.4920  178.4260  142.1800 C   0  0  0  0  0  3  0  0  0  0  0  0
  181.8410  178.7940  142.2470 C   0  0  0  0  0  0  0  0  0  0  0  0
  180.8190  177.5990  139.9270 C   0  0  0  0  0  3  0  0  0  0  0  0
  1  9  1  6  0  0  0
  1 14  1  0  0  0  0
  2 13  1  0  0  0  0
  2  3  1  0  0  0  0
  3 19  1  0  0  0  0
  4 11  2  0  0  0  0
  5 14  1  6  0  0  0
  5  2  1  0  0  0  0
  6 17  1  0  0  0  0
  6  1  1  0  0  0  0
  7  3  2  0  0  0  0
  7  4  1  0  0  0  0
  8 21  1  1  0  0  0
  8 13  1  0  0  0  0
 11 15  1  0  0  0  0
 12  8  1  0  0  0  0
 13 18  2  0  0  0  0
 16 17  1  6  0  0  0
 16 12  1  0  0  0  0
 16  5  1  0  0  0  0
 18 10  1  0  0  0  0
 19 10  2  0  0  0  0
 19 20  1  0  0  0  0
 20 15  2  0  0  0  0
 21 23  1  0  0  0  0
 23 22  1  1  0  0  0
 24 23  1  0  0  0  0
 25 28  1  0  0  0  0
 26 29  2  0  0  0  0
 27 25  1  0  0  0  0
 28 30  2  0  0  0  0
 29 30  1  0  0  0  0
 30 24  1  0  0  0  0
 31 25  2  0  0  0  0
 31 26  1  0  0  0  0
M  END
>  <MODEL>
3

>  <REMARK>
 VINA RESULT:      -9.1      2.066      7.622
  Name = 
  4 active torsions:
  status: ('A' for Active; 'I' for Inactive)
    1  A    between atoms: N_3  and  C_9
    2  A    between atoms: N_3  and  C_22
    3  A    between atoms: C_9  and  C_23
    4  A    between atoms: C_15  and  C_23
                            x       y       z     vdW  Elec       q    Type
                         _______ _______ _______ _____ _____    ______ ____

>  <TORSDO>
F 4

$$$$
=
 OpenBabel10272400163D

 31 35  0  0  1  0  0  0  0  0999 V2000
  182.3600  177.1340  138.3670 C   0  0  2  0  0  3  0  0  0  0  0  0
  185.4000  178.3030  140.3760 N   0  0  0  0  0  0  0  0  0  0  0  0
  186.4990  178.3800  139.4310 C   0  0  0  0  0  0  0  0  0  0  0  0
  187.0980  178.8610  136.9930 C   0  0  0  0  0  3  0  0  0  0  0  0
  183.9940  178.2200  139.9160 C   0  0  1  0  0  3  0  0  0  0  0  0
  181.3450  177.0210  139.5060 C   0  0  0  0  0  2  0  0  0  0  0  0
  186.2240  178.6960  138.1580 C   0  0  0  0  0  3  0  0  0  0  0  0
  184.6190  178.6880  142.8080 C   0  0  1  0  0  3  0  0  0  0  0  0
  182.1670  176.0890  137.4660 O   0  0  0  0  0  1  0  0  0  0  0  0
  188.0320  178.1660  141.2880 C   0  0  0  0  0  3  0  0  0  0  0  0
  188.3920  178.5950  136.8740 C   0  0  0  0  0  3  0  0  0  0  0  0
  183.2820  179.0150  142.1550 C   0  0  0  0  0  2  0  0  0  0  0  0
  185.7090  178.4790  141.7800 C   0  0  0  0  0  0  0  0  0  0  0  0
  183.7890  177.0850  138.9090 C   0  0  0  0  0  2  0  0  0  0  0  0
  189.3060  178.0740  137.8890 C   0  0  0  0  0  3  0  0  0  0  0  0
  183.0150  178.0000  141.0700 C   0  0  1  0  0  3  0  0  0  0  0  0
  181.5850  178.1060  140.5560 C   0  0  0  0  0  2  0  0  0  0  0  0
  186.9390  178.3740  142.1880 N   0  0  0  0  0  0  0  0  0  0  0  0
  187.8710  178.1780  139.9650 C   0  0  0  0  0  0  0  0  0  0  0  0
  189.0860  177.9060  139.1870 C   0  0  0  0  0  3  0  0  0  0  0  0
  184.9980  179.7960  143.7840 C   0  0  0  0  0  2  0  0  0  0  0  0
  183.6510  179.0640  145.6000 O   0  0  0  0  0  1  0  0  0  0  0  0
  184.9720  179.2940  145.2190 C   0  0  1  0  0  3  0  0  0  0  0  0
  185.7320  178.0550  145.3260 N   0  0  0  0  0  2  0  0  0  0  0  0
  189.2900  177.3960  146.2890 C   0  0  0  0  0  0  0  0  0  0  0  0
  188.0490  178.1010  148.2430 C   0  0  0  0  0  3  0  0  0  0  0  0
  190.4810  176.9860  145.7030 O   0  0  0  0  0  1  0  0  0  0  0  0
  188.1350  177.5150  145.5120 C   0  0  0  0  0  3  0  0  0  0  0  0
  186.8930  178.2210  147.4660 C   0  0  0  0  0  3  0  0  0  0  0  0
  186.9300  177.9310  146.0980 C   0  0  0  0  0  0  0  0  0  0  0  0
  189.2480  177.6900  147.6540 C   0  0  0  0  0  3  0  0  0  0  0  0
  1  9  1  6  0  0  0
  1 14  1  0  0  0  0
  1  6  1  0  0  0  0
  2 13  1  0  0  0  0
  3 19  1  0  0  0  0
  3  2  1  0  0  0  0
  4  7  1  0  0  0  0
  5 14  1  6  0  0  0
  5  2  1  0  0  0  0
  5 16  1  0  0  0  0
  6 17  1  0  0  0  0
  7  3  2  0  0  0  0
  8 21  1  1  0  0  0
 10 18  1  0  0  0  0
 11  4  2  0  0  0  0
 11 15  1  0  0  0  0
 12  8  1  0  0  0  0
 13 18  2  0  0  0  0
 13  8  1  0  0  0  0
 15 20  2  0  0  0  0
 16 17  1  6  0  0  0
 16 12  1  0  0  0  0
 19 10  2  0  0  0  0
 20 19  1  0  0  0  0
 21 23  1  0  0  0  0
 23 24  1  0  0  0  0
 23 22  1  6  0  0  0
 24 30  1  0  0  0  0
 25 31  1  0  0  0  0
 27 25  1  0  0  0  0
 28 30  1  0  0  0  0
 28 25  2  0  0  0  0
 29 26  1  0  0  0  0
 30 29  2  0  0  0  0
 31 26  2  0  0  0  0
M  END
>  <MODEL>
4

>  <REMARK>
 VINA RESULT:      -9.0      1.823      4.693
  Name = 
  4 active torsions:
  status: ('A' for Active; 'I' for Inactive)
    1  A    between atoms: N_3  and  C_9
    2  A    between atoms: N_3  and  C_22
    3  A    between atoms: C_9  and  C_23
    4  A    between atoms: C_15  and  C_23
                            x       y       z     vdW  Elec       q    Type
                         _______ _______ _______ _____ _____    ______ ____

>  <TORSDO>
F 4

$$$$
=
 OpenBabel10272400163D

 31 35  0  0  1  0  0  0  0  0999 V2000
  191.8960  177.1060  140.4030 C   0  0  2  0  0  3  0  0  0  0  0  0
  188.1580  177.6640  139.8070 N   0  0  0  0  0  0  0  0  0  0  0  0
  187.9170  177.3150  138.4190 C   0  0  0  0  0  0  0  0  0  0  0  0
  188.6650  175.7840  136.5140 C   0  0  0  0  0  3  0  0  0  0  0  0
  189.4020  177.2570  140.4980 C   0  0  1  0  0  3  0  0  0  0  0  0
  191.9880  177.5980  141.8490 C   0  0  0  0  0  2  0  0  0  0  0  0
  188.6720  176.3580  137.8630 C   0  0  0  0  0  3  0  0  0  0  0  0
  187.1220  178.4290  142.0470 C   0  0  1  0  0  3  0  0  0  0  0  0
  193.0340  177.5020  139.7030 O   0  0  0  0  0  1  0  0  0  0  0  0
  185.9370  178.7020  138.4750 C   0  0  0  0  0  3  0  0  0  0  0  0
  187.9890  176.1760  135.4420 C   0  0  0  0  0  3  0  0  0  0  0  0
  188.2340  177.5880  142.6610 C   0  0  0  0  0  2  0  0  0  0  0  0
  187.0710  178.2780  140.5430 C   0  0  0  0  0  0  0  0  0  0  0  0
  190.6520  177.6720  139.7170 C   0  0  0  0  0  2  0  0  0  0  0  0
  187.0490  177.2880  135.3200 C   0  0  0  0  0  3  0  0  0  0  0  0
  189.5130  177.8520  141.9030 C   0  0  1  0  0  3  0  0  0  0  0  0
  190.7140  177.2530  142.6200 C   0  0  0  0  0  2  0  0  0  0  0  0
  186.0640  178.7880  139.8980 N   0  0  0  0  0  0  0  0  0  0  0  0
  186.7890  177.9960  137.7320 C   0  0  0  0  0  0  0  0  0  0  0  0
  186.5420  178.0460  136.2860 C   0  0  0  0  0  3  0  0  0  0  0  0
  185.7860  178.0510  142.6770 C   0  0  0  0  0  2  0  0  0  0  0  0
  184.3640  179.0630  144.2900 O   0  0  0  0  0  1  0  0  0  0  0  0
  185.6680  178.6110  144.0850 C   0  0  1  0  0  3  0  0  0  0  0  0
  185.9830  177.5760  145.0610 N   0  0  0  0  0  2  0  0  0  0  0  0
  189.3040  177.4210  146.7840 C   0  0  0  0  0  0  0  0  0  0  0  0
  187.6750  178.4140  148.2730 C   0  0  0  0  0  3  0  0  0  0  0  0
  190.6020  176.9970  146.5320 O   0  0  0  0  0  1  0  0  0  0  0  0
  188.3210  177.2830  145.8000 C   0  0  0  0  0  3  0  0  0  0  0  0
  186.6910  178.2760  147.2890 C   0  0  0  0  0  3  0  0  0  0  0  0
  187.0090  177.7120  146.0490 C   0  0  0  0  0  0  0  0  0  0  0  0
  188.9810  177.9870  148.0200 C   0  0  0  0  0  3  0  0  0  0  0  0
  1  9  1  6  0  0  0
  1  6  1  0  0  0  0
  2  5  1  0  0  0  0
  2 13  1  0  0  0  0
  3  2  1  0  0  0  0
  4  7  1  0  0  0  0
  5 14  1  6  0  0  0
  5 16  1  0  0  0  0
  6 17  1  0  0  0  0
  7  3  2  0  0  0  0
  8 12  1  0  0  0  0
  8 21  1  1  0  0  0
 10 18  1  0  0  0  0
 11  4  2  0  0  0  0
 13  8  1  0  0  0  0
 14  1  1  0  0  0  0
 15 11  1  0  0  0  0
 15 20  2  0  0  0  0
 16 17  1  1  0  0  0
 16 12  1  0  0  0  0
 18 13  2  0  0  0  0
 19  3  1  0  0  0  0
 19 10  2  0  0  0  0
 20 19  1  0  0  0  0
 21 23  1  0  0  0  0
 23 22  1  1  0  0  0
 23 24  1  0  0  0  0
 24 30  1  0  0  0  0
 25 31  1  0  0  0  0
 27 25  1  0  0  0  0
 28 30  1  0  0  0  0
 28 25  2  0  0  0  0
 29 26  1  0  0  0  0
 30 29  2  0  0  0  0
 31 26  2  0  0  0  0
M  END
>  <MODEL>
5

>  <REMARK>
 VINA RESULT:      -8.9      3.050      4.849
  Name = 
  4 active torsions:
  status: ('A' for Active; 'I' for Inactive)
    1  A    between atoms: N_3  and  C_9
    2  A    between atoms: N_3  and  C_22
    3  A    between atoms: C_9  and  C_23
    4  A    between atoms: C_15  and  C_23
                            x       y       z     vdW  Elec       q    Type
                         _______ _______ _______ _____ _____    ______ ____

>  <TORSDO>
F 4

$$$$
=
 OpenBabel10272400163D

 31 35  0  0  1  0  0  0  0  0999 V2000
  186.3290  178.1450  146.6600 C   0  0  2  0  0  3  0  0  0  0  0  0
  186.9440  178.0040  142.8860 N   0  0  0  0  0  0  0  0  0  0  0  0
  188.2670  177.4310  142.7170 C   0  0  0  0  0  0  0  0  0  0  0  0
  189.9510  175.7890  143.7200 C   0  0  0  0  0  3  0  0  0  0  0  0
  186.2200  177.9030  144.1740 C   0  0  1  0  0  3  0  0  0  0  0  0
  184.9660  178.8420  146.6580 C   0  0  0  0  0  2  0  0  0  0  0  0
  188.6950  176.5400  143.6220 C   0  0  0  0  0  3  0  0  0  0  0  0
  184.8180  178.8960  141.7210 C   0  0  1  0  0  3  0  0  0  0  0  0
  187.0920  178.6180  147.7260 O   0  0  0  0  0  1  0  0  0  0  0  0
  188.3760  178.4740  140.5390 C   0  0  0  0  0  3  0  0  0  0  0  0
  191.0570  175.9140  142.9990 C   0  0  0  0  0  3  0  0  0  0  0  0
  184.1080  178.3400  142.9490 C   0  0  0  0  0  2  0  0  0  0  0  0
  186.2860  178.5310  141.7080 C   0  0  0  0  0  0  0  0  0  0  0  0
  187.0690  178.4020  145.3470 C   0  0  0  0  0  2  0  0  0  0  0  0
  191.3190  176.8320  141.8920 C   0  0  0  0  0  3  0  0  0  0  0  0
  184.9140  178.6980  144.1740 C   0  0  1  0  0  3  0  0  0  0  0  0
  184.1370  178.4070  145.4510 C   0  0  0  0  0  2  0  0  0  0  0  0
  186.9800  178.7760  140.6370 N   0  0  0  0  0  0  0  0  0  0  0  0
  189.0260  177.8180  141.5000 C   0  0  0  0  0  0  0  0  0  0  0  0
  190.4610  177.6250  141.2610 C   0  0  0  0  0  3  0  0  0  0  0  0
  184.1230  178.3990  140.4590 C   0  0  0  0  0  2  0  0  0  0  0  0
  184.2920  180.2690  139.0020 O   0  0  0  0  0  1  0  0  0  0  0  0
  183.3850  179.5290  139.7590 C   0  0  1  0  0  3  0  0  0  0  0  0
  182.3520  178.9850  138.8870 N   0  0  0  0  0  2  0  0  0  0  0  0
  180.8740  175.5470  138.7440 C   0  0  0  0  0  0  0  0  0  0  0  0
  179.9830  176.7230  140.6620 C   0  0  0  0  0  3  0  0  0  0  0  0
  180.9370  174.4060  137.9540 O   0  0  0  0  0  1  0  0  0  0  0  0
  181.6400  176.6680  138.4130 C   0  0  0  0  0  3  0  0  0  0  0  0
  180.7500  177.8450  140.3320 C   0  0  0  0  0  3  0  0  0  0  0  0
  181.5820  177.8230  139.2080 C   0  0  0  0  0  0  0  0  0  0  0  0
  180.0460  175.5750  139.8690 C   0  0  0  0  0  3  0  0  0  0  0  0
  1  9  1  1  0  0  0
  2  5  1  0  0  0  0
  3  2  1  0  0  0  0
  3  7  2  0  0  0  0
  5 14  1  1  0  0  0
  6  1  1  0  0  0  0
  7  4  1  0  0  0  0
  8 21  1  6  0  0  0
  8 12  1  0  0  0  0
 10 18  1  0  0  0  0
 10 19  2  0  0  0  0
 11  4  2  0  0  0  0
 13  8  1  0  0  0  0
 13  2  1  0  0  0  0
 14  1  1  0  0  0  0
 15 11  1  0  0  0  0
 16 12  1  6  0  0  0
 16  5  1  0  0  0  0
 16 17  1  0  0  0  0
 17  6  1  0  0  0  0
 18 13  2  0  0  0  0
 19  3  1  0  0  0  0
 20 19  1  0  0  0  0
 20 15  2  0  0  0  0
 23 22  1  6  0  0  0
 23 21  1  0  0  0  0
 24 30  1  0  0  0  0
 24 23  1  0  0  0  0
 25 31  1  0  0  0  0
 27 25  1  0  0  0  0
 28 25  2  0  0  0  0
 28 30  1  0  0  0  0
 29 26  1  0  0  0  0
 30 29  2  0  0  0  0
 31 26  2  0  0  0  0
M  END
>  <MODEL>
6

>  <REMARK>
 VINA RESULT:      -8.9      2.321      8.545
  Name = 
  4 active torsions:
  status: ('A' for Active; 'I' for Inactive)
    1  A    between atoms: N_3  and  C_9
    2  A    between atoms: N_3  and  C_22
    3  A    between atoms: C_9  and  C_23
    4  A    between atoms: C_15  and  C_23
                            x       y       z     vdW  Elec       q    Type
                         _______ _______ _______ _____ _____    ______ ____

>  <TORSDO>
F 4

$$$$
=
 OpenBabel10272400163D

 31 35  0  0  1  0  0  0  0  0999 V2000
  191.4690  175.5860  136.1640 C   0  0  2  0  0  3  0  0  0  0  0  0
  188.3800  176.8660  138.0230 N   0  0  0  0  0  0  0  0  0  0  0  0
  187.2360  176.4530  137.2310 C   0  0  0  0  0  0  0  0  0  0  0  0
  186.3540  174.6340  135.6670 C   0  0  0  0  0  3  0  0  0  0  0  0
  189.7180  176.2680  137.8120 C   0  0  1  0  0  3  0  0  0  0  0  0
  192.5570  176.1750  137.0640 C   0  0  0  0  0  2  0  0  0  0  0  0
  187.3220  175.3120  136.5340 C   0  0  0  0  0  3  0  0  0  0  0  0
  189.2000  178.0300  140.1780 C   0  0  1  0  0  3  0  0  0  0  0  0
  191.8730  175.6670  134.8320 O   0  0  0  0  0  1  0  0  0  0  0  0
  185.9560  178.2270  138.2620 C   0  0  0  0  0  3  0  0  0  0  0  0
  185.1760  175.0620  135.2340 C   0  0  0  0  0  3  0  0  0  0  0  0
  190.3480  177.0320  140.0860 C   0  0  0  0  0  2  0  0  0  0  0  0
  188.1370  177.7600  139.1370 C   0  0  0  0  0  0  0  0  0  0  0  0
  190.1510  176.3380  136.3450 C   0  0  0  0  0  2  0  0  0  0  0  0
  184.5130  176.3330  135.5210 C   0  0  0  0  0  3  0  0  0  0  0  0
  190.8010  176.9510  138.6490 C   0  0  1  0  0  3  0  0  0  0  0  0
  192.1070  176.1770  138.5250 C   0  0  0  0  0  2  0  0  0  0  0  0
  187.0140  178.4110  139.2080 N   0  0  0  0  0  0  0  0  0  0  0  0
  186.0130  177.2930  137.3130 C   0  0  0  0  0  0  0  0  0  0  0  0
  184.8640  177.2650  136.3990 C   0  0  0  0  0  3  0  0  0  0  0  0
  188.6070  178.0010  141.5820 C   0  0  0  0  0  2  0  0  0  0  0  0
  190.1660  178.6570  143.2520 O   0  0  0  0  0  1  0  0  0  0  0  0
  189.6360  177.5420  142.6020 C   0  0  1  0  0  3  0  0  0  0  0  0
  189.0110  176.6600  143.5790 N   0  0  0  0  0  2  0  0  0  0  0  0
  188.4590  177.7380  147.1230 C   0  0  0  0  0  0  0  0  0  0  0  0
  186.3730  177.8890  145.9050 C   0  0  0  0  0  3  0  0  0  0  0  0
  189.1770  177.8880  148.3020 O   0  0  0  0  0  1  0  0  0  0  0  0
  189.1000  177.2820  145.9670 C   0  0  0  0  0  3  0  0  0  0  0  0
  187.0140  177.4340  144.7480 C   0  0  0  0  0  3  0  0  0  0  0  0
  188.3790  177.1300  144.7730 C   0  0  0  0  0  0  0  0  0  0  0  0
  187.0950  178.0420  147.0910 C   0  0  0  0  0  3  0  0  0  0  0  0
  1  9  1  6  0  0  0
  1 14  1  0  0  0  0
  1  6  1  0  0  0  0
  2 13  1  0  0  0  0
  3 19  1  0  0  0  0
  3  2  1  0  0  0  0
  4  7  1  0  0  0  0
  5 14  1  6  0  0  0
  5  2  1  0  0  0  0
  5 16  1  0  0  0  0
  6 17  1  0  0  0  0
  7  3  2  0  0  0  0
  8 21  1  1  0  0  0
 10 18  1  0  0  0  0
 11 15  1  0  0  0  0
 11  4  2  0  0  0  0
 12  8  1  0  0  0  0
 13 18  2  0  0  0  0
 13  8  1  0  0  0  0
 15 20  2  0  0  0  0
 16 17  1  1  0  0  0
 16 12  1  0  0  0  0
 19 10  2  0  0  0  0
 20 19  1  0  0  0  0
 21 23  1  0  0  0  0
 23 22  1  1  0  0  0
 23 24  1  0  0  0  0
 24 30  1  0  0  0  0
 25 27  1  0  0  0  0
 26 31  2  0  0  0  0
 28 25  2  0  0  0  0
 29 30  2  0  0  0  0
 29 26  1  0  0  0  0
 30 28  1  0  0  0  0
 31 25  1  0  0  0  0
M  END
>  <MODEL>
7

>  <REMARK>
 VINA RESULT:      -8.7      3.607      5.360
  Name = 
  4 active torsions:
  status: ('A' for Active; 'I' for Inactive)
    1  A    between atoms: N_3  and  C_9
    2  A    between atoms: N_3  and  C_22
    3  A    between atoms: C_9  and  C_23
    4  A    between atoms: C_15  and  C_23
                            x       y       z     vdW  Elec       q    Type
                         _______ _______ _______ _____ _____    ______ ____

>  <TORSDO>
F 4

$$$$
=
 OpenBabel10272400163D

 31 35  0  0  1  0  0  0  0  0999 V2000
  188.6190  177.9360  137.4490 C   0  0  2  0  0  3  0  0  0  0  0  0
  185.1640  178.2420  139.0650 N   0  0  0  0  0  0  0  0  0  0  0  0
  184.2040  177.9500  138.0160 C   0  0  0  0  0  0  0  0  0  0  0  0
  183.8170  176.5810  135.8930 C   0  0  0  0  0  3  0  0  0  0  0  0
  186.5960  177.8930  138.9170 C   0  0  1  0  0  3  0  0  0  0  0  0
  189.4830  178.3570  138.6390 C   0  0  0  0  0  2  0  0  0  0  0  0
  184.5540  177.0830  137.0570 C   0  0  0  0  0  3  0  0  0  0  0  0
  185.5240  178.8080  141.5600 C   0  0  1  0  0  3  0  0  0  0  0  0
  189.1620  178.4530  136.2740 O   0  0  0  0  0  1  0  0  0  0  0  0
  182.5450  179.1790  139.2750 C   0  0  0  0  0  3  0  0  0  0  0  0
  182.6470  176.9770  135.4100 C   0  0  0  0  0  3  0  0  0  0  0  0
  186.8180  178.0220  141.3840 C   0  0  0  0  0  2  0  0  0  0  0  0
  184.6500  178.7330  140.3280 C   0  0  0  0  0  0  0  0  0  0  0  0
  187.1860  178.4420  137.6140 C   0  0  0  0  0  2  0  0  0  0  0  0
  181.7610  178.0210  135.9230 C   0  0  0  0  0  3  0  0  0  0  0  0
  187.4490  178.4210  140.0720 C   0  0  1  0  0  3  0  0  0  0  0  0
  188.8660  177.8770  139.9530 C   0  0  0  0  0  2  0  0  0  0  0  0
  183.4390  179.1990  140.3930 N   0  0  0  0  0  0  0  0  0  0  0  0
  182.8630  178.5790  138.1270 C   0  0  0  0  0  0  0  0  0  0  0  0
  181.8520  178.6870  137.0690 C   0  0  0  0  0  3  0  0  0  0  0  0
  184.7780  178.2980  142.7870 C   0  0  0  0  0  2  0  0  0  0  0  0
  183.8850  180.0470  144.1260 O   0  0  0  0  0  1  0  0  0  0  0  0
  184.9950  179.2160  143.9800 C   0  0  1  0  0  3  0  0  0  0  0  0
  185.1740  178.4250  145.1910 N   0  0  0  0  0  2  0  0  0  0  0  0
  187.9850  177.9080  147.6090 C   0  0  0  0  0  0  0  0  0  0  0  0
  188.7260  177.3170  145.3820 C   0  0  0  0  0  3  0  0  0  0  0  0
  188.2440  178.0410  148.9670 O   0  0  0  0  0  1  0  0  0  0  0  0
  186.7230  178.2300  147.1040 C   0  0  0  0  0  3  0  0  0  0  0  0
  187.4630  177.6400  144.8760 C   0  0  0  0  0  3  0  0  0  0  0  0
  186.4550  178.0960  145.7340 C   0  0  0  0  0  0  0  0  0  0  0  0
  188.9860  177.4500  146.7490 C   0  0  0  0  0  3  0  0  0  0  0  0
  1  9  1  6  0  0  0
  1 14  1  0  0  0  0
  1  6  1  0  0  0  0
  2 13  1  0  0  0  0
  3 19  1  0  0  0  0
  3  2  1  0  0  0  0
  4  7  1  0  0  0  0
  5 14  1  6  0  0  0
  5  2  1  0  0  0  0
  5 16  1  0  0  0  0
  6 17  1  0  0  0  0
  7  3  2  0  0  0  0
  8 21  1  1  0  0  0
 10 18  1  0  0  0  0
 11  4  2  0  0  0  0
 11 15  1  0  0  0  0
 12  8  1  0  0  0  0
 13 18  2  0  0  0  0
 13  8  1  0  0  0  0
 15 20  2  0  0  0  0
 16 17  1  6  0  0  0
 16 12  1  0  0  0  0
 19 10  2  0  0  0  0
 20 19  1  0  0  0  0
 21 23  1  0  0  0  0
 23 22  1  1  0  0  0
 23 24  1  0  0  0  0
 24 30  1  0  0  0  0
 25 27  1  0  0  0  0
 26 31  1  0  0  0  0
 28 25  1  0  0  0  0
 29 26  2  0  0  0  0
 29 30  1  0  0  0  0
 30 28  2  0  0  0  0
 31 25  2  0  0  0  0
M  END
>  <MODEL>
8

>  <REMARK>
 VINA RESULT:      -8.4      2.217      3.183
  Name = 
  4 active torsions:
  status: ('A' for Active; 'I' for Inactive)
    1  A    between atoms: N_3  and  C_9
    2  A    between atoms: N_3  and  C_22
    3  A    between atoms: C_9  and  C_23
    4  A    between atoms: C_15  and  C_23
                            x       y       z     vdW  Elec       q    Type
                         _______ _______ _______ _____ _____    ______ ____

>  <TORSDO>
F 4

$$$$
=
 OpenBabel10272400163D

 31 35  0  0  1  0  0  0  0  0999 V2000
  184.8910  178.7700  139.4930 C   0  0  2  0  0  3  0  0  0  0  0  0
  188.5710  177.7300  139.6180 N   0  0  0  0  0  0  0  0  0  0  0  0
  188.9900  177.5740  138.2370 C   0  0  0  0  0  0  0  0  0  0  0  0
  188.6330  178.4400  135.8590 C   0  0  0  0  0  3  0  0  0  0  0  0
  187.3240  178.4490  139.9670 C   0  0  1  0  0  3  0  0  0  0  0  0
  184.5940  178.7980  140.9940 C   0  0  0  0  0  2  0  0  0  0  0  0
  188.4200  178.3510  137.3070 C   0  0  0  0  0  3  0  0  0  0  0  0
  189.2750  177.6720  142.1030 C   0  0  1  0  0  3  0  0  0  0  0  0
  183.7870  178.2610  138.8100 O   0  0  0  0  0  1  0  0  0  0  0  0
  190.7670  176.1240  139.0030 C   0  0  0  0  0  3  0  0  0  0  0  0
  189.3580  177.6580  135.0720 C   0  0  0  0  0  3  0  0  0  0  0  0
  188.2200  178.7600  142.2590 C   0  0  0  0  0  2  0  0  0  0  0  0
  189.4940  177.3070  140.6520 C   0  0  0  0  0  0  0  0  0  0  0  0
  186.1160  177.9040  139.1990 C   0  0  0  0  0  2  0  0  0  0  0  0
  190.1600  176.4930  135.4420 C   0  0  0  0  0  3  0  0  0  0  0  0
  187.0010  178.3670  141.4600 C   0  0  1  0  0  3  0  0  0  0  0  0
  185.8180  179.2710  141.7780 C   0  0  0  0  0  2  0  0  0  0  0  0
  190.4890  176.5290  140.3480 N   0  0  0  0  0  0  0  0  0  0  0  0
  190.0880  176.6100  137.9640 C   0  0  0  0  0  0  0  0  0  0  0  0
  190.4700  176.0600  136.6590 C   0  0  0  0  0  3  0  0  0  0  0  0
  190.5780  178.1240  142.7530 C   0  0  0  0  0  2  0  0  0  0  0  0
  191.5450  178.0140  144.9210 O   0  0  0  0  0  1  0  0  0  0  0  0
  190.9350  177.2390  143.9360 C   0  0  1  0  0  3  0  0  0  0  0  0
  189.7310  176.6230  144.4790 N   0  0  0  0  0  2  0  0  0  0  0  0
  187.1250  178.0740  146.7430 C   0  0  0  0  0  0  0  0  0  0  0  0
  189.0980  177.5320  148.0360 C   0  0  0  0  0  3  0  0  0  0  0  0
  185.8310  178.5750  146.6750 O   0  0  0  0  0  1  0  0  0  0  0  0
  187.7550  177.6080  145.5860 C   0  0  0  0  0  3  0  0  0  0  0  0
  189.7290  177.0650  146.8790 C   0  0  0  0  0  3  0  0  0  0  0  0
  189.0610  177.1000  145.6490 C   0  0  0  0  0  0  0  0  0  0  0  0
  187.7960  178.0350  147.9680 C   0  0  0  0  0  3  0  0  0  0  0  0
  1  9  1  6  0  0  0
  1  6  1  0  0  0  0
  2  5  1  0  0  0  0
  2 13  1  0  0  0  0
  3  2  1  0  0  0  0
  4  7  1  0  0  0  0
  5 14  1  6  0  0  0
  5 16  1  0  0  0  0
  6 17  1  0  0  0  0
  7  3  2  0  0  0  0
  8 12  1  0  0  0  0
  8 21  1  6  0  0  0
 10 18  1  0  0  0  0
 11 15  1  0  0  0  0
 11  4  2  0  0  0  0
 13  8  1  0  0  0  0
 14  1  1  0  0  0  0
 15 20  2  0  0  0  0
 16 17  1  6  0  0  0
 16 12  1  0  0  0  0
 18 13  2  0  0  0  0
 19  3  1  0  0  0  0
 19 10  2  0  0  0  0
 20 19  1  0  0  0  0
 21 23  1  0  0  0  0
 23 24  1  0  0  0  0
 23 22  1  1  0  0  0
 24 30  1  0  0  0  0
 25 31  1  0  0  0  0
 27 25  1  0  0  0  0
 28 30  1  0  0  0  0
 28 25  2  0  0  0  0
 29 26  1  0  0  0  0
 30 29  2  0  0  0  0
 31 26  2  0  0  0  0
M  END
>  <MODEL>
9

>  <REMARK>
 VINA RESULT:      -8.3      2.798      5.968
  Name = 
  4 active torsions:
  status: ('A' for Active; 'I' for Inactive)
    1  A    between atoms: N_3  and  C_9
    2  A    between atoms: N_3  and  C_22
    3  A    between atoms: C_9  and  C_23
    4  A    between atoms: C_15  and  C_23
                            x       y       z     vdW  Elec       q    Type
                         _______ _______ _______ _____ _____    ______ ____

>  <TORSDO>
F 4

$$$$
