=
 OpenBabel10272414023D

 30 32  0  0  1  0  0  0  0  0999 V2000
  189.1490  175.2460  134.3460 C   0  0  0  0  0  2  0  0  0  0  0  0
  189.7440  175.9510  135.5580 C   0  0  1  0  0  3  0  0  0  0  0  0
  187.6670  173.2570  136.8020 O   0  0  0  0  0  0  0  0  0  0  0  0
  190.4610  176.4870  140.0830 C   0  0  0  0  0  3  0  0  0  0  0  0
  192.0250  176.4970  136.6010 C   0  0  1  0  0  3  0  0  0  0  0  0
  189.6900  178.1110  136.8370 N   0  0  0  0  0  2  0  0  0  0  0  0
  187.4120  176.0300  137.8060 O   0  0  0  0  0  1  0  0  0  0  0  0
  191.2090  174.3860  137.8420 C   0  0  0  0  0  1  0  0  0  0  0  0
  191.2590  176.0140  135.3660 C   0  0  0  0  0  2  0  0  0  0  0  0
  189.7330  177.6960  138.2060 C   0  0  0  0  0  0  0  0  0  0  0  0
  189.3420  177.6130  140.6260 S   0  0  0  0  0  0  0  0  0  0  0  0
  188.5870  173.8820  134.7340 C   0  0  0  0  0  2  0  0  0  0  0  0
  186.5070  175.0570  135.7640 C   0  0  2  0  0  3  0  0  0  0  0  0
  187.5840  174.0020  135.8380 C   0  0  0  0  0  0  0  0  0  0  0  0
  187.5640  177.3850  135.7730 C   0  0  0  0  0  2  0  0  0  0  0  0
  186.8080  176.3180  136.5810 C   0  0  2  0  0  3  0  0  0  0  0  0
  189.1070  177.3350  135.7420 C   0  0  2  0  0  3  0  0  0  0  0  0
  188.9790  178.3560  139.1670 C   0  0  0  0  0  3  0  0  0  0  0  0
  191.5750  175.8630  137.9280 C   0  0  2  0  0  3  0  0  0  0  0  0
  190.5700  176.6690  138.7090 C   0  0  0  0  0  0  0  0  0  0  0  0
  193.5110  176.2810  136.3860 C   0  0  0  0  0  2  0  0  0  0  0  0
  194.1300  175.9850  137.6030 O   0  0  0  0  0  0  0  0  0  0  0  0
  195.0880  174.5970  137.2820 S   0  0  0  0  0  0  0  0  0  0  0  0
  195.5740  174.4310  139.0240 C   0  0  0  0  0  1  0  0  0  0  0  0
  185.0670  174.5450  135.9510 C   0  0  1  0  0  3  0  0  0  0  0  0
  184.7410  174.2700  137.4230 C   0  0  2  0  0  3  0  0  0  0  0  0
  184.5180  172.7860  137.6560 C   0  0  0  0  0  1  0  0  0  0  0  0
  183.5870  174.9580  137.7980 O   0  0  0  0  0  1  0  0  0  0  0  0
  182.9390  174.7120  134.4150 O   0  0  0  0  0  0  0  0  0  0  0  0
  183.8350  175.6530  135.2090 S   0  0  0  0  0  3  0  0  0  0  0  0
  1 12  1  0  0  0  0
  2  1  1  6  0  0  0
  2 17  1  0  0  0  0
  4 11  1  0  0  0  0
  5 21  1  6  0  0  0
  5 19  1  0  0  0  0
  6 10  1  0  0  0  0
  9  2  1  0  0  0  0
  9  5  1  0  0  0  0
 10 20  1  0  0  0  0
 10 18  2  0  0  0  0
 12 14  1  0  0  0  0
 13 14  1  0  0  0  0
 13 25  1  1  0  0  0
 13 16  1  0  0  0  0
 14  3  2  0  0  0  0
 15 16  1  0  0  0  0
 16  7  1  1  0  0  0
 17 15  1  1  0  0  0
 17  6  1  0  0  0  0
 18 11  1  0  0  0  0
 19  8  1  6  0  0  0
 19 20  1  0  0  0  0
 20  4  2  0  0  0  0
 21 22  1  0  0  0  0
 23 22  1  0  0  0  0
 23 24  1  0  0  0  0
 25 30  1  1  0  0  0
 25 26  1  0  0  0  0
 26 27  1  6  0  0  0
 26 28  1  0  0  0  0
 29 30  2  0  0  0  0
M  END
>  <MODEL>
1

>  <REMARK>
 VINA RESULT:      -4.7      0.000      0.000
  Name = 
  6 active torsions:
  status: ('A' for Active; 'I' for Inactive)
    1  A    between atoms: C_2  and  C_28
    2  A    between atoms: C_6  and  C_8
    3  A    between atoms: C_6  and  O_21
    4  A    between atoms: S_9  and  O_21
    5  A    between atoms: C_19  and  C_28
    6  A    between atoms: C_28  and  S_29
                            x       y       z     vdW  Elec       q    Type
                         _______ _______ _______ _____ _____    ______ ____

>  <TORSDO>
F 6

$$$$
=
 OpenBabel10272414023D

 30 32  0  0  1  0  0  0  0  0999 V2000
  187.6810  175.1500  134.3460 C   0  0  0  0  0  2  0  0  0  0  0  0
  188.6450  175.8390  135.3040 C   0  0  1  0  0  3  0  0  0  0  0  0
  186.6780  173.5070  137.2570 O   0  0  0  0  0  0  0  0  0  0  0  0
  190.5670  176.5240  139.4410 C   0  0  0  0  0  3  0  0  0  0  0  0
  191.1640  176.1420  135.6910 C   0  0  1  0  0  3  0  0  0  0  0  0
  189.1640  178.0540  136.3650 N   0  0  0  0  0  2  0  0  0  0  0  0
  187.0010  176.3410  138.0500 O   0  0  0  0  0  1  0  0  0  0  0  0
  190.4700  174.2250  137.2740 C   0  0  0  0  0  1  0  0  0  0  0  0
  190.0560  175.6950  134.7340 C   0  0  0  0  0  2  0  0  0  0  0  0
  189.5150  177.7120  137.7100 C   0  0  0  0  0  0  0  0  0  0  0  0
  189.7600  177.8140  140.1490 S   0  0  0  0  0  0  0  0  0  0  0  0
  187.0920  173.8940  134.9780 C   0  0  0  0  0  2  0  0  0  0  0  0
  185.4940  175.3820  136.3930 C   0  0  2  0  0  3  0  0  0  0  0  0
  186.4300  174.2020  136.2840 C   0  0  0  0  0  0  0  0  0  0  0  0
  186.7690  177.5520  135.9350 C   0  0  0  0  0  2  0  0  0  0  0  0
  186.1350  176.6370  136.9970 C   0  0  2  0  0  3  0  0  0  0  0  0
  188.2350  177.3010  135.5230 C   0  0  2  0  0  3  0  0  0  0  0  0
  189.1150  178.5160  138.7690 C   0  0  0  0  0  3  0  0  0  0  0  0
  191.0070  175.6450  137.1370 C   0  0  2  0  0  3  0  0  0  0  0  0
  190.3350  176.6150  138.0740 C   0  0  0  0  0  0  0  0  0  0  0  0
  192.5100  175.7240  135.1290 C   0  0  0  0  0  2  0  0  0  0  0  0
  193.5020  175.8850  136.0990 O   0  0  0  0  0  0  0  0  0  0  0  0
  194.5590  174.5520  135.8720 S   0  0  0  0  0  0  0  0  0  0  0  0
  194.3490  173.9900  137.5860 C   0  0  0  0  0  1  0  0  0  0  0  0
  184.1050  175.0710  136.9790 C   0  0  1  0  0  3  0  0  0  0  0  0
  183.4460  176.3140  137.5850 C   0  0  2  0  0  3  0  0  0  0  0  0
  182.9500  176.0270  138.9920 C   0  0  0  0  0  1  0  0  0  0  0  0
  182.3610  176.7150  136.8040 O   0  0  0  0  0  1  0  0  0  0  0  0
  182.2470  173.2480  136.6010 O   0  0  0  0  0  0  0  0  0  0  0  0
  183.0060  174.2750  135.7720 S   0  0  0  0  0  3  0  0  0  0  0  0
  1 12  1  0  0  0  0
  2  1  1  6  0  0  0
  2 17  1  0  0  0  0
  4 11  1  0  0  0  0
  5 21  1  6  0  0  0
  5 19  1  0  0  0  0
  6 10  1  0  0  0  0
  9  2  1  0  0  0  0
  9  5  1  0  0  0  0
 10 20  1  0  0  0  0
 10 18  2  0  0  0  0
 12 14  1  0  0  0  0
 13 25  1  1  0  0  0
 13 16  1  0  0  0  0
 14 13  1  0  0  0  0
 14  3  2  0  0  0  0
 15 16  1  0  0  0  0
 16  7  1  1  0  0  0
 17 15  1  1  0  0  0
 17  6  1  0  0  0  0
 18 11  1  0  0  0  0
 19  8  1  6  0  0  0
 19 20  1  0  0  0  0
 20  4  2  0  0  0  0
 21 22  1  0  0  0  0
 23 22  1  0  0  0  0
 23 24  1  0  0  0  0
 25 30  1  6  0  0  0
 25 26  1  0  0  0  0
 26 27  1  1  0  0  0
 28 26  1  0  0  0  0
 30 29  2  0  0  0  0
M  END
>  <MODEL>
2

>  <REMARK>
 VINA RESULT:      -4.7      1.368      1.537
  Name = 
  6 active torsions:
  status: ('A' for Active; 'I' for Inactive)
    1  A    between atoms: C_2  and  C_28
    2  A    between atoms: C_6  and  C_8
    3  A    between atoms: C_6  and  O_21
    4  A    between atoms: S_9  and  O_21
    5  A    between atoms: C_19  and  C_28
    6  A    between atoms: C_28  and  S_29
                            x       y       z     vdW  Elec       q    Type
                         _______ _______ _______ _____ _____    ______ ____

>  <TORSDO>
F 6

$$$$
=
 OpenBabel10272414023D

 30 32  0  0  1  0  0  0  0  0999 V2000
  181.5620  175.3140  135.9900 C   0  0  0  0  0  2  0  0  0  0  0  0
  182.9320  174.7160  135.6950 C   0  0  1  0  0  3  0  0  0  0  0  0
  182.8730  175.5760  139.2140 O   0  0  0  0  0  0  0  0  0  0  0  0
  187.1410  173.2540  136.8910 C   0  0  0  0  0  3  0  0  0  0  0  0
  183.9950  172.5380  134.8510 C   0  0  1  0  0  3  0  0  0  0  0  0
  185.0730  175.1440  134.4570 N   0  0  0  0  0  2  0  0  0  0  0  0
  185.0690  176.4340  137.4220 O   0  0  0  0  0  1  0  0  0  0  0  0
  184.1440  172.4010  137.4240 C   0  0  0  0  0  1  0  0  0  0  0  0
  182.7170  173.3660  135.0120 C   0  0  0  0  0  2  0  0  0  0  0  0
  186.0850  174.6900  135.3620 C   0  0  0  0  0  0  0  0  0  0  0  0
  188.2020  174.5180  136.5890 S   0  0  0  0  0  0  0  0  0  0  0  0
  181.2950  175.3460  137.4910 C   0  0  0  0  0  2  0  0  0  0  0  0
  182.8560  177.4150  137.7030 C   0  0  2  0  0  3  0  0  0  0  0  0
  182.3740  176.0810  138.2200 C   0  0  0  0  0  0  0  0  0  0  0  0
  183.9000  177.1280  135.3860 C   0  0  0  0  0  2  0  0  0  0  0  0
  184.1520  177.3410  136.8880 C   0  0  2  0  0  3  0  0  0  0  0  0
  183.7730  175.6850  134.8540 C   0  0  2  0  0  3  0  0  0  0  0  0
  187.2790  175.3870  135.4900 C   0  0  0  0  0  3  0  0  0  0  0  0
  184.8920  172.4860  136.0990 C   0  0  2  0  0  3  0  0  0  0  0  0
  186.0080  173.4970  136.1230 C   0  0  0  0  0  0  0  0  0  0  0  0
  183.6310  171.1360  134.4000 C   0  0  0  0  0  2  0  0  0  0  0  0
  182.3470  170.8120  134.8440 O   0  0  0  0  0  0  0  0  0  0  0  0
  182.2600  169.1010  134.7280 S   0  0  0  0  0  0  0  0  0  0  0  0
  183.7010  168.8750  135.8110 C   0  0  0  0  0  1  0  0  0  0  0  0
  182.8530  178.5620  138.7310 C   0  0  1  0  0  3  0  0  0  0  0  0
  184.2640  179.0910  139.0060 C   0  0  2  0  0  3  0  0  0  0  0  0
  184.7300  178.6870  140.3940 C   0  0  0  0  0  1  0  0  0  0  0  0
  184.2820  180.4830  138.9180 O   0  0  0  0  0  1  0  0  0  0  0  0
  181.3150  179.5540  136.8420 O   0  0  0  0  0  0  0  0  0  0  0  0
  181.7320  179.9110  138.2620 S   0  0  0  0  0  3  0  0  0  0  0  0
  1 12  1  0  0  0  0
  2  9  1  6  0  0  0
  2  1  1  0  0  0  0
  5 21  1  1  0  0  0
  5  9  1  0  0  0  0
  5 19  1  0  0  0  0
  6 17  1  0  0  0  0
  6 10  1  0  0  0  0
 10 18  2  0  0  0  0
 10 20  1  0  0  0  0
 11  4  1  0  0  0  0
 12 14  1  0  0  0  0
 13 14  1  0  0  0  0
 13 25  1  1  0  0  0
 14  3  2  0  0  0  0
 15 16  1  0  0  0  0
 16  7  1  1  0  0  0
 16 13  1  0  0  0  0
 17 15  1  1  0  0  0
 17  2  1  0  0  0  0
 18 11  1  0  0  0  0
 19 20  1  0  0  0  0
 19  8  1  1  0  0  0
 20  4  2  0  0  0  0
 21 22  1  0  0  0  0
 23 22  1  0  0  0  0
 23 24  1  0  0  0  0
 25 30  1  6  0  0  0
 25 26  1  0  0  0  0
 26 27  1  1  0  0  0
 28 26  1  0  0  0  0
 29 30  2  0  0  0  0
M  END
>  <MODEL>
3

>  <REMARK>
 VINA RESULT:      -4.5      4.433      7.455
  Name = 
  6 active torsions:
  status: ('A' for Active; 'I' for Inactive)
    1  A    between atoms: C_2  and  C_28
    2  A    between atoms: C_6  and  C_8
    3  A    between atoms: C_6  and  O_21
    4  A    between atoms: S_9  and  O_21
    5  A    between atoms: C_19  and  C_28
    6  A    between atoms: C_28  and  S_29
                            x       y       z     vdW  Elec       q    Type
                         _______ _______ _______ _____ _____    ______ ____

>  <TORSDO>
F 6

$$$$
=
 OpenBabel10272414023D

 30 32  0  0  1  0  0  0  0  0999 V2000
  188.7980  178.7750  136.5310 C   0  0  0  0  0  2  0  0  0  0  0  0
  188.0550  177.5740  135.9590 C   0  0  1  0  0  3  0  0  0  0  0  0
  188.6170  176.9110  139.4760 O   0  0  0  0  0  0  0  0  0  0  0  0
  185.9680  173.4730  136.2870 C   0  0  0  0  0  3  0  0  0  0  0  0
  185.8370  176.9890  134.8070 C   0  0  1  0  0  3  0  0  0  0  0  0
  188.3070  175.6360  134.3830 N   0  0  0  0  0  2  0  0  0  0  0  0
  189.3320  174.9530  137.3730 O   0  0  0  0  0  1  0  0  0  0  0  0
  185.4660  176.4260  137.2980 C   0  0  0  0  0  1  0  0  0  0  0  0
  186.8060  178.0910  135.2460 C   0  0  0  0  0  2  0  0  0  0  0  0
  187.6520  174.5590  135.0620 C   0  0  0  0  0  0  0  0  0  0  0  0
  187.1050  172.3100  135.8750 S   0  0  0  0  0  0  0  0  0  0  0  0
  188.7370  178.7760  138.0540 C   0  0  0  0  0  2  0  0  0  0  0  0
  190.5630  176.9230  138.1060 C   0  0  2  0  0  3  0  0  0  0  0  0
  189.2630  177.4940  138.6200 C   0  0  0  0  0  0  0  0  0  0  0  0
  190.3400  176.3400  135.6260 C   0  0  0  0  0  2  0  0  0  0  0  0
  190.3910  175.8090  137.0680 C   0  0  2  0  0  3  0  0  0  0  0  0
  188.9750  176.7590  135.0400 C   0  0  2  0  0  3  0  0  0  0  0  0
  188.1750  173.2740  135.0150 C   0  0  0  0  0  3  0  0  0  0  0  0
  185.5650  175.9100  135.8680 C   0  0  2  0  0  3  0  0  0  0  0  0
  186.4190  174.6740  135.7510 C   0  0  0  0  0  0  0  0  0  0  0  0
  184.5370  177.6200  134.3460 C   0  0  0  0  0  2  0  0  0  0  0  0
  183.4940  176.6980  134.4580 O   0  0  0  0  0  0  0  0  0  0  0  0
  182.0660  177.6510  134.4950 S   0  0  0  0  0  0  0  0  0  0  0  0
  182.0890  177.7590  136.3080 C   0  0  0  0  0  1  0  0  0  0  0  0
  191.6090  176.5890  139.1850 C   0  0  1  0  0  3  0  0  0  0  0  0
  193.0410  176.8140  138.6860 C   0  0  2  0  0  3  0  0  0  0  0  0
  193.6100  175.5380  138.0920 C   0  0  0  0  0  1  0  0  0  0  0  0
  193.8600  177.2190  139.7410 O   0  0  0  0  0  1  0  0  0  0  0  0
  190.8590  176.3900  141.6980 O   0  0  0  0  0  0  0  0  0  0  0  0
  191.3140  177.4810  140.7380 S   0  0  0  0  0  3  0  0  0  0  0  0
  1 12  1  0  0  0  0
  2  9  1  6  0  0  0
  2  1  1  0  0  0  0
  5 21  1  1  0  0  0
  5  9  1  0  0  0  0
  5 19  1  0  0  0  0
  6 17  1  0  0  0  0
  6 10  1  0  0  0  0
 10 20  1  0  0  0  0
 11  4  1  0  0  0  0
 12 14  1  0  0  0  0
 13 14  1  0  0  0  0
 13 25  1  1  0  0  0
 14  3  2  0  0  0  0
 15 16  1  0  0  0  0
 16  7  1  1  0  0  0
 16 13  1  0  0  0  0
 17 15  1  1  0  0  0
 17  2  1  0  0  0  0
 18 10  2  0  0  0  0
 18 11  1  0  0  0  0
 19  8  1  1  0  0  0
 20 19  1  0  0  0  0
 20  4  2  0  0  0  0
 21 22  1  0  0  0  0
 22 23  1  0  0  0  0
 23 24  1  0  0  0  0
 25 30  1  1  0  0  0
 26 27  1  1  0  0  0
 26 25  1  0  0  0  0
 26 28  1  0  0  0  0
 30 29  2  0  0  0  0
M  END
>  <MODEL>
4

>  <REMARK>
 VINA RESULT:      -4.5      2.285      7.428
  Name = 
  6 active torsions:
  status: ('A' for Active; 'I' for Inactive)
    1  A    between atoms: C_2  and  C_28
    2  A    between atoms: C_6  and  C_8
    3  A    between atoms: C_6  and  O_21
    4  A    between atoms: S_9  and  O_21
    5  A    between atoms: C_19  and  C_28
    6  A    between atoms: C_28  and  S_29
                            x       y       z     vdW  Elec       q    Type
                         _______ _______ _______ _____ _____    ______ ____

>  <TORSDO>
F 6

$$$$
=
 OpenBabel10272414023D

 30 32  0  0  1  0  0  0  0  0999 V2000
  189.2780  173.2570  134.3460 C   0  0  0  0  0  2  0  0  0  0  0  0
  189.8000  174.5030  135.0500 C   0  0  1  0  0  3  0  0  0  0  0  0
  188.2550  172.4150  137.5750 O   0  0  0  0  0  0  0  0  0  0  0  0
  190.6120  177.1080  138.7700 C   0  0  0  0  0  3  0  0  0  0  0  0
  192.0010  175.7500  135.4840 C   0  0  1  0  0  3  0  0  0  0  0  0
  189.4430  176.9800  135.2500 N   0  0  0  0  0  2  0  0  0  0  0  0
  187.5860  175.2850  137.2830 O   0  0  0  0  0  1  0  0  0  0  0  0
  191.6010  174.3390  137.6080 C   0  0  0  0  0  1  0  0  0  0  0  0
  191.2740  174.6680  134.6810 C   0  0  0  0  0  2  0  0  0  0  0  0
  189.6130  177.2360  136.6480 C   0  0  0  0  0  0  0  0  0  0  0  0
  189.3460  178.2040  138.8860 S   0  0  0  0  0  0  0  0  0  0  0  0
  188.9680  172.1550  135.3530 C   0  0  0  0  0  2  0  0  0  0  0  0
  186.7680  173.3880  135.9920 C   0  0  2  0  0  3  0  0  0  0  0  0
  188.0080  172.6280  136.3980 C   0  0  0  0  0  0  0  0  0  0  0  0
  187.4240  175.5850  134.8590 C   0  0  0  0  0  2  0  0  0  0  0  0
  186.8900  174.9090  136.1330 C   0  0  2  0  0  3  0  0  0  0  0  0
  188.9500  175.7270  134.6800 C   0  0  2  0  0  3  0  0  0  0  0  0
  188.8020  178.1550  137.3000 C   0  0  0  0  0  3  0  0  0  0  0  0
  191.7200  175.7300  136.9960 C   0  0  2  0  0  3  0  0  0  0  0  0
  190.6300  176.6640  137.4530 C   0  0  0  0  0  0  0  0  0  0  0  0
  193.4920  175.6540  135.2200 C   0  0  0  0  0  2  0  0  0  0  0  0
  194.1770  176.5770  136.0140 O   0  0  0  0  0  0  0  0  0  0  0  0
  195.2780  177.3450  134.9440 S   0  0  0  0  0  0  0  0  0  0  0  0
  196.5890  176.1390  135.2980 C   0  0  0  0  0  1  0  0  0  0  0  0
  185.4420  172.8340  136.5450 C   0  0  1  0  0  3  0  0  0  0  0  0
  184.2950  173.8400  136.4020 C   0  0  2  0  0  3  0  0  0  0  0  0
  183.8870  174.3860  137.7590 C   0  0  0  0  0  1  0  0  0  0  0  0
  183.1870  173.2260  135.8180 O   0  0  0  0  0  1  0  0  0  0  0  0
  185.3810  171.3920  134.3460 O   0  0  0  0  0  0  0  0  0  0  0  0
  184.9990  171.2330  135.8110 S   0  0  0  0  0  3  0  0  0  0  0  0
  1 12  1  0  0  0  0
  2  1  1  6  0  0  0
  4 11  1  0  0  0  0
  5 21  1  1  0  0  0
  5 19  1  0  0  0  0
  6 10  1  0  0  0  0
  9  2  1  0  0  0  0
  9  5  1  0  0  0  0
 10 18  2  0  0  0  0
 10 20  1  0  0  0  0
 12 14  1  0  0  0  0
 13 16  1  0  0  0  0
 13 14  1  0  0  0  0
 13 25  1  1  0  0  0
 14  3  2  0  0  0  0
 15 16  1  0  0  0  0
 16  7  1  1  0  0  0
 17 15  1  1  0  0  0
 17  2  1  0  0  0  0
 17  6  1  0  0  0  0
 18 11  1  0  0  0  0
 19 20  1  0  0  0  0
 19  8  1  6  0  0  0
 20  4  2  0  0  0  0
 21 22  1  0  0  0  0
 23 24  1  0  0  0  0
 23 22  1  0  0  0  0
 25 30  1  6  0  0  0
 26 25  1  0  0  0  0
 26 27  1  1  0  0  0
 28 26  1  0  0  0  0
 29 30  2  0  0  0  0
M  END
>  <MODEL>
5

>  <REMARK>
 VINA RESULT:      -4.3      1.858      2.150
  Name = 
  6 active torsions:
  status: ('A' for Active; 'I' for Inactive)
    1  A    between atoms: C_2  and  C_28
    2  A    between atoms: C_6  and  C_8
    3  A    between atoms: C_6  and  O_21
    4  A    between atoms: S_9  and  O_21
    5  A    between atoms: C_19  and  C_28
    6  A    between atoms: C_28  and  S_29
                            x       y       z     vdW  Elec       q    Type
                         _______ _______ _______ _____ _____    ______ ____

>  <TORSDO>
F 6

$$$$
=
 OpenBabel10272414023D

 30 32  0  0  1  0  0  0  0  0999 V2000
  188.1680  178.0650  135.4250 C   0  0  0  0  0  2  0  0  0  0  0  0
  187.0450  177.0360  135.4180 C   0  0  1  0  0  3  0  0  0  0  0  0
  188.1920  177.3470  138.8400 O   0  0  0  0  0  0  0  0  0  0  0  0
  184.1410  174.0830  137.4500 C   0  0  0  0  0  3  0  0  0  0  0  0
  184.5530  176.8350  134.8380 C   0  0  1  0  0  3  0  0  0  0  0  0
  186.4570  174.7290  134.6230 N   0  0  0  0  0  2  0  0  0  0  0  0
  187.9200  174.7180  137.5070 O   0  0  0  0  0  1  0  0  0  0  0  0
  184.6170  177.2080  137.3910 C   0  0  0  0  0  1  0  0  0  0  0  0
  185.8350  177.6650  134.7280 C   0  0  0  0  0  2  0  0  0  0  0  0
  185.7250  174.1680  135.7180 C   0  0  0  0  0  0  0  0  0  0  0  0
  184.8370  172.5600  137.3440 S   0  0  0  0  0  0  0  0  0  0  0  0
  188.4490  178.5530  136.8420 C   0  0  0  0  0  2  0  0  0  0  0  0
  189.7280  176.3400  137.3270 C   0  0  2  0  0  3  0  0  0  0  0  0
  188.7560  177.4120  137.7580 C   0  0  0  0  0  0  0  0  0  0  0  0
  188.8240  175.1210  135.2680 C   0  0  0  0  0  2  0  0  0  0  0  0
  189.0620  175.0700  136.7870 C   0  0  2  0  0  3  0  0  0  0  0  0
  187.5090  175.7370  134.7450 C   0  0  2  0  0  3  0  0  0  0  0  0
  185.8930  172.8350  136.0700 C   0  0  0  0  0  3  0  0  0  0  0  0
  184.2660  176.2730  136.2400 C   0  0  2  0  0  3  0  0  0  0  0  0
  184.7420  174.8620  136.4680 C   0  0  0  0  0  0  0  0  0  0  0  0
  183.3780  177.6610  134.3470 C   0  0  0  0  0  2  0  0  0  0  0  0
  182.3400  177.6140  135.2800 O   0  0  0  0  0  0  0  0  0  0  0  0
  180.9210  177.3690  134.3460 S   0  0  0  0  0  0  0  0  0  0  0  0
  180.0780  178.7860  135.1080 C   0  0  0  0  0  1  0  0  0  0  0  0
  190.8730  176.0500  138.3140 C   0  0  1  0  0  3  0  0  0  0  0  0
  192.2280  175.9450  137.6080 C   0  0  2  0  0  3  0  0  0  0  0  0
  192.5950  174.4930  137.3600 C   0  0  0  0  0  1  0  0  0  0  0  0
  193.2260  176.5290  138.3900 O   0  0  0  0  0  1  0  0  0  0  0  0
  190.5510  176.4330  140.8960 O   0  0  0  0  0  0  0  0  0  0  0  0
  190.9390  177.2520  139.6730 S   0  0  0  0  0  3  0  0  0  0  0  0
  1 12  1  0  0  0  0
  2  9  1  6  0  0  0
  2  1  1  0  0  0  0
  5 21  1  1  0  0  0
  5 19  1  0  0  0  0
  6 17  1  0  0  0  0
  6 10  1  0  0  0  0
  9  5  1  0  0  0  0
 10 18  2  0  0  0  0
 10 20  1  0  0  0  0
 11  4  1  0  0  0  0
 12 14  1  0  0  0  0
 13 14  1  0  0  0  0
 13 25  1  1  0  0  0
 14  3  2  0  0  0  0
 15 16  1  0  0  0  0
 16 13  1  0  0  0  0
 16  7  1  1  0  0  0
 17 15  1  1  0  0  0
 17  2  1  0  0  0  0
 18 11  1  0  0  0  0
 19 20  1  0  0  0  0
 19  8  1  1  0  0  0
 20  4  2  0  0  0  0
 21 22  1  0  0  0  0
 23 24  1  0  0  0  0
 23 22  1  0  0  0  0
 25 30  1  1  0  0  0
 26 27  1  1  0  0  0
 26 25  1  0  0  0  0
 26 28  1  0  0  0  0
 30 29  2  0  0  0  0
M  END
>  <MODEL>
6

>  <REMARK>
 VINA RESULT:      -3.9      2.561      7.678
  Name = 
  6 active torsions:
  status: ('A' for Active; 'I' for Inactive)
    1  A    between atoms: C_2  and  C_28
    2  A    between atoms: C_6  and  C_8
    3  A    between atoms: C_6  and  O_21
    4  A    between atoms: S_9  and  O_21
    5  A    between atoms: C_19  and  C_28
    6  A    between atoms: C_28  and  S_29
                            x       y       z     vdW  Elec       q    Type
                         _______ _______ _______ _____ _____    ______ ____

>  <TORSDO>
F 6

$$$$
=
 OpenBabel10272414023D

 30 32  0  0  1  0  0  0  0  0999 V2000
  185.9570  174.4880  136.9890 C   0  0  0  0  0  2  0  0  0  0  0  0
  184.9840  175.6550  136.8750 C   0  0  1  0  0  3  0  0  0  0  0  0
  183.0170  172.6750  137.4850 O   0  0  0  0  0  0  0  0  0  0  0  0
  180.7790  177.5490  136.9930 C   0  0  0  0  0  3  0  0  0  0  0  0
  184.4420  177.8920  138.0100 C   0  0  1  0  0  3  0  0  0  0  0  0
  184.0470  177.3210  135.2480 N   0  0  0  0  0  2  0  0  0  0  0  0
  182.4030  174.5370  135.2660 O   0  0  0  0  0  1  0  0  0  0  0  0
  182.7810  176.2020  139.0350 C   0  0  0  0  0  1  0  0  0  0  0  0
  185.4410  176.7440  137.8450 C   0  0  0  0  0  2  0  0  0  0  0  0
  182.6600  177.3910  135.5940 C   0  0  0  0  0  0  0  0  0  0  0  0
  180.2230  177.6050  135.4100 S   0  0  0  0  0  0  0  0  0  0  0  0
  185.2820  173.2780  137.6240 C   0  0  0  0  0  2  0  0  0  0  0  0
  184.0910  172.7830  135.3640 C   0  0  2  0  0  3  0  0  0  0  0  0
  184.0510  172.8850  136.8700 C   0  0  0  0  0  0  0  0  0  0  0  0
  184.6090  175.0730  134.3500 C   0  0  0  0  0  2  0  0  0  0  0  0
  183.5330  174.0120  134.6380 C   0  0  2  0  0  3  0  0  0  0  0  0
  184.8980  176.1450  135.4230 C   0  0  2  0  0  3  0  0  0  0  0  0
  181.6910  177.4990  134.6060 C   0  0  0  0  0  3  0  0  0  0  0  0
  182.9790  177.4540  138.1870 C   0  0  2  0  0  3  0  0  0  0  0  0
  182.1630  177.4350  136.9210 C   0  0  0  0  0  0  0  0  0  0  0  0
  184.8760  178.7720  139.1670 C   0  0  0  0  0  2  0  0  0  0  0  0
  186.1740  178.4380  139.5580 O   0  0  0  0  0  0  0  0  0  0  0  0
  186.2300  178.7850  141.2390 S   0  0  0  0  0  0  0  0  0  0  0  0
  188.0070  178.4240  141.3360 C   0  0  0  0  0  1  0  0  0  0  0  0
  183.5850  171.4530  134.7780 C   0  0  1  0  0  3  0  0  0  0  0  0
  184.7100  170.4230  134.6360 C   0  0  2  0  0  3  0  0  0  0  0  0
  184.4160  169.1870  135.4690 C   0  0  0  0  0  1  0  0  0  0  0  0
  185.9210  170.9690  135.0620 O   0  0  0  0  0  1  0  0  0  0  0  0
  180.9710  171.4100  135.0670 O   0  0  0  0  0  0  0  0  0  0  0  0
  182.1900  170.7680  135.7150 S   0  0  0  0  0  3  0  0  0  0  0  0
  1 12  1  0  0  0  0
  2  1  1  6  0  0  0
  2  9  1  0  0  0  0
  5 19  1  0  0  0  0
  5 21  1  1  0  0  0
  6 17  1  0  0  0  0
  6 10  1  0  0  0  0
  9  5  1  0  0  0  0
 10 20  1  0  0  0  0
 11  4  1  0  0  0  0
 13 25  1  1  0  0  0
 13 14  1  0  0  0  0
 14  3  2  0  0  0  0
 14 12  1  0  0  0  0
 15 16  1  0  0  0  0
 16  7  1  1  0  0  0
 16 13  1  0  0  0  0
 17 15  1  6  0  0  0
 17  2  1  0  0  0  0
 18 11  1  0  0  0  0
 18 10  2  0  0  0  0
 19  8  1  6  0  0  0
 20  4  2  0  0  0  0
 20 19  1  0  0  0  0
 21 22  1  0  0  0  0
 22 23  1  0  0  0  0
 23 24  1  0  0  0  0
 25 30  1  1  0  0  0
 26 25  1  0  0  0  0
 26 28  1  0  0  0  0
 26 27  1  1  0  0  0
 29 30  2  0  0  0  0
M  END
>  <MODEL>
7

>  <REMARK>
 VINA RESULT:      -3.4      4.776      6.795
  Name = 
  6 active torsions:
  status: ('A' for Active; 'I' for Inactive)
    1  A    between atoms: C_2  and  C_28
    2  A    between atoms: C_6  and  C_8
    3  A    between atoms: C_6  and  O_21
    4  A    between atoms: S_9  and  O_21
    5  A    between atoms: C_19  and  C_28
    6  A    between atoms: C_28  and  S_29
                            x       y       z     vdW  Elec       q    Type
                         _______ _______ _______ _____ _____    ______ ____

>  <TORSDO>
F 6

$$$$
=
 OpenBabel10272414023D

 30 32  0  0  1  0  0  0  0  0999 V2000
  185.6220  173.9200  134.4500 C   0  0  0  0  0  2  0  0  0  0  0  0
  185.2160  175.2730  135.0190 C   0  0  1  0  0  3  0  0  0  0  0  0
  184.6220  172.8030  137.6020 O   0  0  0  0  0  0  0  0  0  0  0  0
  183.6970  178.0520  138.3730 C   0  0  0  0  0  3  0  0  0  0  0  0
  186.2200  177.5750  135.5500 C   0  0  1  0  0  3  0  0  0  0  0  0
  183.5160  177.1070  134.7890 N   0  0  0  0  0  2  0  0  0  0  0  0
  182.5510  174.7560  136.7890 O   0  0  0  0  0  1  0  0  0  0  0  0
  186.2590  176.2940  137.7910 C   0  0  0  0  0  1  0  0  0  0  0  0
  186.3900  176.2330  134.8310 C   0  0  0  0  0  2  0  0  0  0  0  0
  183.2370  177.4820  136.1420 C   0  0  0  0  0  0  0  0  0  0  0  0
  182.0430  178.2310  138.1500 S   0  0  0  0  0  0  0  0  0  0  0  0
  185.7820  172.8890  135.5620 C   0  0  0  0  0  2  0  0  0  0  0  0
  183.1930  172.6720  135.7030 C   0  0  2  0  0  3  0  0  0  0  0  0
  184.5370  172.7790  136.3840 C   0  0  0  0  0  0  0  0  0  0  0  0
  182.7310  174.7910  134.3480 C   0  0  0  0  0  2  0  0  0  0  0  0
  182.4220  173.9940  135.6260 C   0  0  2  0  0  3  0  0  0  0  0  0
  183.9240  175.7710  134.3560 C   0  0  2  0  0  3  0  0  0  0  0  0
  181.9430  177.8030  136.5310 C   0  0  0  0  0  3  0  0  0  0  0  0
  185.7060  177.4710  136.9960 C   0  0  2  0  0  3  0  0  0  0  0  0
  184.2170  177.6350  137.1540 C   0  0  0  0  0  0  0  0  0  0  0  0
  187.5320  178.3360  135.5060 C   0  0  0  0  0  2  0  0  0  0  0  0
  187.9220  178.6880  136.8000 O   0  0  0  0  0  0  0  0  0  0  0  0
  189.4070  177.8650  137.0520 S   0  0  0  0  0  0  0  0  0  0  0  0
  189.4020  178.2330  138.8300 C   0  0  0  0  0  1  0  0  0  0  0  0
  182.3180  171.4870  136.1510 C   0  0  1  0  0  3  0  0  0  0  0  0
  180.8280  171.7530  135.9170 C   0  0  2  0  0  3  0  0  0  0  0  0
  179.9930  171.1660  137.0420 C   0  0  0  0  0  1  0  0  0  0  0  0
  180.4190  171.1780  134.7130 O   0  0  0  0  0  1  0  0  0  0  0  0
  184.0480  169.5070  136.1970 O   0  0  0  0  0  0  0  0  0  0  0  0
  182.8270  169.9210  135.3880 S   0  0  0  0  0  3  0  0  0  0  0  0
  1 12  1  0  0  0  0
  2  1  1  6  0  0  0
  5 21  1  1  0  0  0
  5 19  1  0  0  0  0
  6 10  1  0  0  0  0
  9  2  1  0  0  0  0
  9  5  1  0  0  0  0
 10 18  2  0  0  0  0
 10 20  1  0  0  0  0
 11  4  1  0  0  0  0
 12 14  1  0  0  0  0
 13 25  1  1  0  0  0
 13 14  1  0  0  0  0
 14  3  2  0  0  0  0
 15 16  1  0  0  0  0
 16 13  1  0  0  0  0
 16  7  1  1  0  0  0
 17 15  1  1  0  0  0
 17  6  1  0  0  0  0
 17  2  1  0  0  0  0
 18 11  1  0  0  0  0
 19 20  1  0  0  0  0
 19  8  1  6  0  0  0
 20  4  2  0  0  0  0
 21 22  1  0  0  0  0
 22 23  1  0  0  0  0
 23 24  1  0  0  0  0
 25 30  1  6  0  0  0
 26 25  1  0  0  0  0
 26 27  1  1  0  0  0
 28 26  1  0  0  0  0
 30 29  2  0  0  0  0
M  END
>  <MODEL>
8

>  <REMARK>
 VINA RESULT:      -3.3      3.617      5.691
  Name = 
  6 active torsions:
  status: ('A' for Active; 'I' for Inactive)
    1  A    between atoms: C_2  and  C_28
    2  A    between atoms: C_6  and  C_8
    3  A    between atoms: C_6  and  O_21
    4  A    between atoms: S_9  and  O_21
    5  A    between atoms: C_19  and  C_28
    6  A    between atoms: C_28  and  S_29
                            x       y       z     vdW  Elec       q    Type
                         _______ _______ _______ _____ _____    ______ ____

>  <TORSDO>
F 6

$$$$
=
 OpenBabel10272414023D

 30 32  0  0  1  0  0  0  0  0999 V2000
  186.8130  173.9730  134.3480 C   0  0  0  0  0  2  0  0  0  0  0  0
  187.8300  174.9510  134.9230 C   0  0  1  0  0  3  0  0  0  0  0  0
  185.8040  173.7660  137.6820 O   0  0  0  0  0  0  0  0  0  0  0  0
  189.8770  177.2200  138.3780 C   0  0  0  0  0  3  0  0  0  0  0  0
  190.3680  175.2600  135.1400 C   0  0  1  0  0  3  0  0  0  0  0  0
  188.4730  177.3770  134.9460 N   0  0  0  0  0  2  0  0  0  0  0  0
  186.2740  176.6500  137.2020 O   0  0  0  0  0  1  0  0  0  0  0  0
  189.6250  174.2290  137.3870 C   0  0  0  0  0  1  0  0  0  0  0  0
  189.2180  174.5070  134.4640 C   0  0  0  0  0  2  0  0  0  0  0  0
  188.8400  177.6180  136.3080 C   0  0  0  0  0  0  0  0  0  0  0  0
  189.1460  178.7280  138.4750 S   0  0  0  0  0  0  0  0  0  0  0  0
  186.1820  173.1330  135.4530 C   0  0  0  0  0  2  0  0  0  0  0  0
  184.6870  175.1590  136.1080 C   0  0  2  0  0  3  0  0  0  0  0  0
  185.5660  173.9980  136.5070 C   0  0  0  0  0  0  0  0  0  0  0  0
  186.0480  176.8640  134.7740 C   0  0  0  0  0  2  0  0  0  0  0  0
  185.3980  176.5170  136.1230 C   0  0  2  0  0  3  0  0  0  0  0  0
  187.4910  176.3880  134.5030 C   0  0  2  0  0  3  0  0  0  0  0  0
  188.5010  178.8140  136.9280 C   0  0  0  0  0  3  0  0  0  0  0  0
  190.2220  175.4290  136.6610 C   0  0  2  0  0  3  0  0  0  0  0  0
  189.6170  176.7370  137.1010 C   0  0  0  0  0  0  0  0  0  0  0  0
  191.6800  174.5750  134.8050 C   0  0  0  0  0  2  0  0  0  0  0  0
  191.5660  173.1990  135.0140 O   0  0  0  0  0  0  0  0  0  0  0  0
  193.1190  172.7070  135.5570 S   0  0  0  0  0  0  0  0  0  0  0  0
  192.9220  171.0400  134.8640 C   0  0  0  0  0  1  0  0  0  0  0  0
  183.2990  175.1960  136.7730 C   0  0  1  0  0  3  0  0  0  0  0  0
  182.6410  173.8130  136.8070 C   0  0  2  0  0  3  0  0  0  0  0  0
  181.5620  173.7050  135.7430 C   0  0  0  0  0  1  0  0  0  0  0  0
  182.0600  173.5870  138.0550 O   0  0  0  0  0  1  0  0  0  0  0  0
  182.1180  176.8400  138.4530 O   0  0  0  0  0  0  0  0  0  0  0  0
  183.3430  175.9360  138.4310 S   0  0  0  0  0  3  0  0  0  0  0  0
  1 12  1  0  0  0  0
  2  1  1  6  0  0  0
  4 11  1  0  0  0  0
  5 21  1  1  0  0  0
  5 19  1  0  0  0  0
  6 10  1  0  0  0  0
  9  2  1  0  0  0  0
  9  5  1  0  0  0  0
 10 18  2  0  0  0  0
 10 20  1  0  0  0  0
 12 14  1  0  0  0  0
 13 16  1  0  0  0  0
 13 14  1  0  0  0  0
 13 25  1  1  0  0  0
 14  3  2  0  0  0  0
 15 16  1  0  0  0  0
 16  7  1  1  0  0  0
 17 15  1  1  0  0  0
 17  2  1  0  0  0  0
 17  6  1  0  0  0  0
 18 11  1  0  0  0  0
 19 20  1  0  0  0  0
 19  8  1  6  0  0  0
 20  4  2  0  0  0  0
 21 22  1  0  0  0  0
 22 23  1  0  0  0  0
 24 23  1  0  0  0  0
 25 26  1  0  0  0  0
 25 30  1  1  0  0  0
 26 27  1  6  0  0  0
 26 28  1  0  0  0  0
 30 29  2  0  0  0  0
M  END
>  <MODEL>
9

>  <REMARK>
 VINA RESULT:      -3.1      2.301      2.757
  Name = 
  6 active torsions:
  status: ('A' for Active; 'I' for Inactive)
    1  A    between atoms: C_2  and  C_28
    2  A    between atoms: C_6  and  C_8
    3  A    between atoms: C_6  and  O_21
    4  A    between atoms: S_9  and  O_21
    5  A    between atoms: C_19  and  C_28
    6  A    between atoms: C_28  and  S_29
                            x       y       z     vdW  Elec       q    Type
                         _______ _______ _______ _____ _____    ______ ____

>  <TORSDO>
F 6

$$$$
