=
 OpenBabel10272413513D

 30 33  0  0  1  0  0  0  0  0999 V2000
  184.6700  178.0630  143.2260 C   0  0  0  0  0  3  0  0  0  0  0  0
  182.2990  178.3940  142.4630 C   0  0  2  0  0  3  0  0  0  0  0  0
  186.3520  178.7900  139.5600 N   0  0  0  0  0  0  0  0  0  0  0  0
  186.0640  178.0440  143.0140 C   0  0  0  0  0  0  0  0  0  0  0  0
  187.6380  178.6500  139.9740 C   0  0  0  0  0  0  0  0  0  0  0  0
  181.4450  178.2790  141.1980 C   0  0  0  0  0  2  0  0  0  0  0  0
  181.9630  179.6770  143.2070 C   0  0  0  0  0  1  0  0  0  0  0  0
  185.6630  178.5780  140.6920 C   0  0  0  0  0  0  0  0  0  0  0  0
  181.9620  179.2200  140.1130 C   0  0  0  0  0  2  0  0  0  0  0  0
  183.7750  178.3320  142.1670 C   0  0  0  0  0  0  0  0  0  0  0  0
  186.5190  178.3180  141.7230 C   0  0  0  0  0  0  0  0  0  0  0  0
  188.7430  178.7940  139.0910 N   0  0  0  0  0  1  0  0  0  0  0  0
  187.7900  178.3590  141.2900 N   0  0  0  0  0  2  0  0  0  0  0  0
  183.3640  178.7980  139.6870 C   0  0  0  0  0  2  0  0  0  0  0  0
  184.2790  178.6040  140.8670 C   0  0  0  0  0  0  0  0  0  0  0  0
  187.0340  177.7790  144.1320 C   0  0  2  0  0  3  0  0  0  0  0  0
  189.9340  178.4770  144.3670 C   0  0  0  0  0  2  0  0  0  0  0  0
  187.8180  175.6680  143.3130 O   0  0  0  0  0  0  0  0  0  0  0  0
  188.1200  176.8060  143.7660 C   0  0  0  0  0  0  0  0  0  0  0  0
  190.5900  176.3030  143.5300 C   0  0  0  0  0  2  0  0  0  0  0  0
  189.4970  177.1800  143.8930 N   0  0  0  0  0  0  0  0  0  0  0  0
  191.4400  178.4910  144.1870 C   0  0  0  0  0  2  0  0  0  0  0  0
  191.8560  177.0570  143.8920 C   0  0  0  0  0  2  0  0  0  0  0  0
  186.3610  177.4860  145.4750 C   0  0  0  0  0  2  0  0  0  0  0  0
  186.4350  178.6580  146.4470 C   0  0  0  0  0  2  0  0  0  0  0  0
  187.1300  178.2420  147.7300 C   0  0  0  0  0  2  0  0  0  0  0  0
  188.0940  177.0960  147.4680 C   0  0  0  0  0  2  0  0  0  0  0  0
  190.5200  176.8220  147.3680 O   0  0  0  0  0  0  0  0  0  0  0  0
  189.4290  177.4660  147.9010 N   0  0  0  0  0  0  0  0  0  0  0  0
  189.5940  178.4740  148.6170 O   0  0  0  0  0  0  0  0  0  0  0  0
  2  7  1  6  0  0  0
  3  5  2  0  0  0  0
  3  8  1  0  0  0  0
  4  1  1  0  0  0  0
  4 16  1  0  0  0  0
  5 13  1  0  0  0  0
  6  2  1  0  0  0  0
  8 15  2  0  0  0  0
  8 11  1  0  0  0  0
  9  6  1  0  0  0  0
 10  2  1  0  0  0  0
 10  1  2  0  0  0  0
 11  4  2  0  0  0  0
 12  5  1  0  0  0  0
 13 11  1  0  0  0  0
 14  9  1  0  0  0  0
 14 15  1  0  0  0  0
 15 10  1  0  0  0  0
 16 24  1  1  0  0  0
 18 19  2  0  0  0  0
 19 21  1  0  0  0  0
 19 16  1  0  0  0  0
 20 23  1  0  0  0  0
 20 21  1  0  0  0  0
 21 17  1  0  0  0  0
 22 17  1  0  0  0  0
 23 22  1  0  0  0  0
 24 25  1  0  0  0  0
 25 26  1  0  0  0  0
 27 26  1  0  0  0  0
 27 29  1  0  0  0  0
 28 29  2  0  0  0  0
 29 30  2  0  0  0  0
M  END
>  <MODEL>
1

>  <REMARK>
 VINA RESULT:      -8.1      0.000      0.000
  Name = 
  7 active torsions:
  status: ('A' for Active; 'I' for Inactive)
    1  A    between atoms: C_4  and  C_13
    2  A    between atoms: C_7  and  N_15
    3  A    between atoms: C_7  and  C_16
    4  A    between atoms: C_8  and  C_13
    5  A    between atoms: C_13  and  C_27
    6  A    between atoms: C_16  and  C_30
    7  A    between atoms: C_27  and  C_30
                            x       y       z     vdW  Elec       q    Type
                         _______ _______ _______ _____ _____    ______ ____

>  <TORSDO>
F 7

$$$$
=
 OpenBabel10272413513D

 30 33  0  0  1  0  0  0  0  0999 V2000
  188.0500  177.8680  144.1760 C   0  0  0  0  0  3  0  0  0  0  0  0
  186.8130  177.6650  146.3540 C   0  0  2  0  0  3  0  0  0  0  0  0
  184.7740  178.9910  141.9840 N   0  0  0  0  0  0  0  0  0  0  0  0
  188.1230  178.1650  142.8000 C   0  0  0  0  0  0  0  0  0  0  0  0
  185.4440  179.1390  140.8120 C   0  0  0  0  0  0  0  0  0  0  0  0
  185.4060  177.3740  146.8840 C   0  0  0  0  0  2  0  0  0  0  0  0
  187.4260  178.8320  147.1110 C   0  0  0  0  0  1  0  0  0  0  0  0
  185.7510  178.6180  142.8250 C   0  0  0  0  0  0  0  0  0  0  0  0
  184.4140  178.4180  146.3780 C   0  0  0  0  0  2  0  0  0  0  0  0
  186.8230  177.9390  144.8720 C   0  0  0  0  0  0  0  0  0  0  0  0
  186.9420  178.5460  142.1620 C   0  0  0  0  0  0  0  0  0  0  0  0
  184.7970  179.5360  139.6090 N   0  0  0  0  0  1  0  0  0  0  0  0
  186.7730  178.8760  140.8710 N   0  0  0  0  0  2  0  0  0  0  0  0
  184.2960  178.3250  144.8600 C   0  0  0  0  0  2  0  0  0  0  0  0
  185.6420  178.3300  144.1870 C   0  0  0  0  0  0  0  0  0  0  0  0
  189.4230  178.1130  142.0460 C   0  0  2  0  0  3  0  0  0  0  0  0
  189.4940  178.4860  139.0780 C   0  0  0  0  0  2  0  0  0  0  0  0
  189.5410  175.7710  141.5480 O   0  0  0  0  0  0  0  0  0  0  0  0
  189.5210  176.9500  141.0980 C   0  0  0  0  0  0  0  0  0  0  0  0
  189.6150  176.0960  138.7160 C   0  0  0  0  0  2  0  0  0  0  0  0
  189.5510  177.1710  139.6830 N   0  0  0  0  0  0  0  0  0  0  0  0
  189.3910  178.2430  137.5840 C   0  0  0  0  0  2  0  0  0  0  0  0
  189.7050  176.7700  137.3600 C   0  0  0  0  0  2  0  0  0  0  0  0
  190.6580  178.3010  142.9300 C   0  0  0  0  0  2  0  0  0  0  0  0
  191.5880  177.0920  142.9180 C   0  0  0  0  0  2  0  0  0  0  0  0
  191.5410  176.3720  144.2530 C   0  0  0  0  0  2  0  0  0  0  0  0
  191.5020  177.3700  145.3970 C   0  0  0  0  0  2  0  0  0  0  0  0
  192.3420  176.3040  147.4300 O   0  0  0  0  0  0  0  0  0  0  0  0
  191.2720  176.6760  146.6510 N   0  0  0  0  0  0  0  0  0  0  0  0
  190.1130  176.5720  147.1000 O   0  0  0  0  0  0  0  0  0  0  0  0
  1 10  1  0  0  0  0
  2  6  1  0  0  0  0
  2  7  1  1  0  0  0
  3  8  1  0  0  0  0
  4  1  2  0  0  0  0
  5 13  1  0  0  0  0
  5  3  2  0  0  0  0
  8 15  1  0  0  0  0
  9  6  1  0  0  0  0
 10  2  1  0  0  0  0
 11  4  1  0  0  0  0
 11  8  2  0  0  0  0
 12  5  1  0  0  0  0
 13 11  1  0  0  0  0
 14  9  1  0  0  0  0
 15 14  1  0  0  0  0
 15 10  2  0  0  0  0
 16  4  1  0  0  0  0
 16 24  1  1  0  0  0
 17 21  1  0  0  0  0
 19 18  2  0  0  0  0
 19 16  1  0  0  0  0
 20 21  1  0  0  0  0
 21 19  1  0  0  0  0
 22 17  1  0  0  0  0
 23 22  1  0  0  0  0
 23 20  1  0  0  0  0
 25 24  1  0  0  0  0
 25 26  1  0  0  0  0
 26 27  1  0  0  0  0
 27 29  1  0  0  0  0
 29 30  2  0  0  0  0
 29 28  2  0  0  0  0
M  END
>  <MODEL>
2

>  <REMARK>
 VINA RESULT:      -7.6      1.994      4.516
  Name = 
  7 active torsions:
  status: ('A' for Active; 'I' for Inactive)
    1  A    between atoms: C_4  and  C_13
    2  A    between atoms: C_7  and  N_15
    3  A    between atoms: C_7  and  C_16
    4  A    between atoms: C_8  and  C_13
    5  A    between atoms: C_13  and  C_27
    6  A    between atoms: C_16  and  C_30
    7  A    between atoms: C_27  and  C_30
                            x       y       z     vdW  Elec       q    Type
                         _______ _______ _______ _____ _____    ______ ____

>  <TORSDO>
F 7

$$$$
=
 OpenBabel10272413513D

 30 33  0  0  1  0  0  0  0  0999 V2000
  189.8850  177.2130  141.5050 C   0  0  0  0  0  3  0  0  0  0  0  0
  190.5230  176.9350  143.9190 C   0  0  2  0  0  3  0  0  0  0  0  0
  186.1310  178.6700  142.2710 N   0  0  0  0  0  0  0  0  0  0  0  0
  188.9960  177.5970  140.4790 C   0  0  0  0  0  0  0  0  0  0  0  0
  185.7940  178.8570  140.9690 C   0  0  0  0  0  0  0  0  0  0  0  0
  189.8760  176.6910  145.2850 C   0  0  0  0  0  2  0  0  0  0  0  0
  191.5920  178.0110  144.0310 C   0  0  0  0  0  1  0  0  0  0  0  0
  187.3790  178.1840  142.1750 C   0  0  0  0  0  0  0  0  0  0  0  0
  188.9130  177.8220  145.6340 C   0  0  0  0  0  2  0  0  0  0  0  0
  189.5140  177.3080  142.8640 C   0  0  0  0  0  0  0  0  0  0  0  0
  187.7470  178.0890  140.8650 C   0  0  0  0  0  0  0  0  0  0  0  0
  184.5270  179.3720  140.5770 N   0  0  0  0  0  1  0  0  0  0  0  0
  186.7510  178.5150  140.0710 N   0  0  0  0  0  2  0  0  0  0  0  0
  187.7550  177.8400  144.6420 C   0  0  0  0  0  2  0  0  0  0  0  0
  188.2330  177.8120  143.2150 C   0  0  0  0  0  0  0  0  0  0  0  0
  189.3790  177.5210  139.0280 C   0  0  2  0  0  3  0  0  0  0  0  0
  189.4620  175.0310  137.3710 C   0  0  0  0  0  2  0  0  0  0  0  0
  191.7320  177.1650  139.3120 O   0  0  0  0  0  0  0  0  0  0  0  0
  190.6570  176.7680  138.7830 C   0  0  0  0  0  0  0  0  0  0  0  0
  191.8420  174.7910  137.7350 C   0  0  0  0  0  2  0  0  0  0  0  0
  190.6540  175.5790  137.9840 N   0  0  0  0  0  0  0  0  0  0  0  0
  189.8860  173.7060  136.7670 C   0  0  0  0  0  2  0  0  0  0  0  0
  191.4080  173.6830  136.7940 C   0  0  0  0  0  2  0  0  0  0  0  0
  189.2980  178.8640  138.2970 C   0  0  0  0  0  2  0  0  0  0  0  0
  188.9490  178.7170  136.8200 C   0  0  0  0  0  2  0  0  0  0  0  0
  187.4460  178.7620  136.6210 C   0  0  0  0  0  2  0  0  0  0  0  0
  186.9450  177.4500  136.0390 C   0  0  0  0  0  2  0  0  0  0  0  0
  184.9120  177.6430  137.3820 O   0  0  0  0  0  0  0  0  0  0  0  0
  185.9480  176.8680  136.9190 N   0  0  0  0  0  0  0  0  0  0  0  0
  185.9350  175.6360  137.1140 O   0  0  0  0  0  0  0  0  0  0  0  0
  1 10  1  0  0  0  0
  2  7  1  1  0  0  0
  2  6  1  0  0  0  0
  4 11  1  0  0  0  0
  4  1  2  0  0  0  0
  5  3  2  0  0  0  0
  6  9  1  0  0  0  0
  8  3  1  0  0  0  0
  8 15  1  0  0  0  0
 10 15  2  0  0  0  0
 10  2  1  0  0  0  0
 11  8  2  0  0  0  0
 12  5  1  0  0  0  0
 13 11  1  0  0  0  0
 13  5  1  0  0  0  0
 14  9  1  0  0  0  0
 15 14  1  0  0  0  0
 16 24  1  1  0  0  0
 16  4  1  0  0  0  0
 17 21  1  0  0  0  0
 19 16  1  0  0  0  0
 19 18  2  0  0  0  0
 20 21  1  0  0  0  0
 21 19  1  0  0  0  0
 22 23  1  0  0  0  0
 22 17  1  0  0  0  0
 23 20  1  0  0  0  0
 25 24  1  0  0  0  0
 26 25  1  0  0  0  0
 27 26  1  0  0  0  0
 27 29  1  0  0  0  0
 29 30  2  0  0  0  0
 29 28  2  0  0  0  0
M  END
>  <MODEL>
3

>  <REMARK>
 VINA RESULT:      -7.5      3.634      7.616
  Name = 
  7 active torsions:
  status: ('A' for Active; 'I' for Inactive)
    1  A    between atoms: C_4  and  C_13
    2  A    between atoms: C_7  and  N_15
    3  A    between atoms: C_7  and  C_16
    4  A    between atoms: C_8  and  C_13
    5  A    between atoms: C_13  and  C_27
    6  A    between atoms: C_16  and  C_30
    7  A    between atoms: C_27  and  C_30
                            x       y       z     vdW  Elec       q    Type
                         _______ _______ _______ _____ _____    ______ ____

>  <TORSDO>
F 7

$$$$
=
 OpenBabel10272413513D

 30 33  0  0  1  0  0  0  0  0999 V2000
  187.4760  178.4660  140.6480 C   0  0  0  0  0  3  0  0  0  0  0  0
  185.3970  179.0900  141.9140 C   0  0  2  0  0  3  0  0  0  0  0  0
  189.3020  176.6090  143.8130 N   0  0  0  0  0  0  0  0  0  0  0  0
  188.7430  177.8560  140.5420 C   0  0  0  0  0  0  0  0  0  0  0  0
  190.4120  176.2360  143.1250 C   0  0  0  0  0  0  0  0  0  0  0  0
  184.9370  179.3930  143.3430 C   0  0  0  0  0  2  0  0  0  0  0  0
  184.3900  178.1870  141.2200 C   0  0  0  0  0  1  0  0  0  0  0  0
  188.5850  177.2450  142.8730 C   0  0  0  0  0  0  0  0  0  0  0  0
  185.1680  178.1870  144.2490 C   0  0  0  0  0  2  0  0  0  0  0  0
  186.7700  178.4710  141.8710 C   0  0  0  0  0  0  0  0  0  0  0  0
  189.2580  177.2450  141.6870 C   0  0  0  0  0  0  0  0  0  0  0  0
  191.4780  175.5160  143.7310 N   0  0  0  0  0  1  0  0  0  0  0  0
  190.4310  176.6050  141.8200 N   0  0  0  0  0  2  0  0  0  0  0  0
  186.6630  177.9040  144.3620 C   0  0  0  0  0  2  0  0  0  0  0  0
  187.3300  177.8400  143.0150 C   0  0  0  0  0  0  0  0  0  0  0  0
  189.5010  177.8230  139.2440 C   0  0  2  0  0  3  0  0  0  0  0  0
  187.5250  176.3660  137.5340 C   0  0  0  0  0  2  0  0  0  0  0  0
  189.0250  179.7030  137.8350 O   0  0  0  0  0  0  0  0  0  0  0  0
  188.7790  178.4960  138.1100 C   0  0  0  0  0  0  0  0  0  0  0  0
  187.1340  178.3410  136.1920 C   0  0  0  0  0  2  0  0  0  0  0  0
  187.8410  177.7630  137.3150 N   0  0  0  0  0  0  0  0  0  0  0  0
  186.6240  175.9650  136.3820 C   0  0  0  0  0  2  0  0  0  0  0  0
  186.2000  177.2540  135.6920 C   0  0  0  0  0  2  0  0  0  0  0  0
  190.0650  176.4440  138.8930 C   0  0  0  0  0  2  0  0  0  0  0  0
  191.3090  176.5160  138.0140 C   0  0  0  0  0  2  0  0  0  0  0  0
  191.8540  175.1250  137.7490 C   0  0  0  0  0  2  0  0  0  0  0  0
  192.8150  175.1430  136.5720 C   0  0  0  0  0  2  0  0  0  0  0  0
  194.5180  176.8740  136.2960 O   0  0  0  0  0  0  0  0  0  0  0  0
  194.0670  175.7630  136.9660 N   0  0  0  0  0  0  0  0  0  0  0  0
  194.6400  175.3960  138.0120 O   0  0  0  0  0  0  0  0  0  0  0  0
  1 10  1  0  0  0  0
  2  7  1  1  0  0  0
  2  6  1  0  0  0  0
  4  1  2  0  0  0  0
  4 11  1  0  0  0  0
  5 12  1  0  0  0  0
  5  3  2  0  0  0  0
  6  9  1  0  0  0  0
  8 15  1  0  0  0  0
  8  3  1  0  0  0  0
  9 14  1  0  0  0  0
 10  2  1  0  0  0  0
 10 15  2  0  0  0  0
 11 13  1  0  0  0  0
 11  8  2  0  0  0  0
 13  5  1  0  0  0  0
 15 14  1  0  0  0  0
 16 24  1  6  0  0  0
 16  4  1  0  0  0  0
 18 19  2  0  0  0  0
 19 16  1  0  0  0  0
 20 21  1  0  0  0  0
 21 17  1  0  0  0  0
 21 19  1  0  0  0  0
 22 17  1  0  0  0  0
 23 20  1  0  0  0  0
 23 22  1  0  0  0  0
 25 24  1  0  0  0  0
 26 25  1  0  0  0  0
 27 29  1  0  0  0  0
 27 26  1  0  0  0  0
 28 29  2  0  0  0  0
 29 30  2  0  0  0  0
M  END
>  <MODEL>
4

>  <REMARK>
 VINA RESULT:      -7.4      4.054      7.355
  Name = 
  7 active torsions:
  status: ('A' for Active; 'I' for Inactive)
    1  A    between atoms: C_4  and  C_13
    2  A    between atoms: C_7  and  N_15
    3  A    between atoms: C_7  and  C_16
    4  A    between atoms: C_8  and  C_13
    5  A    between atoms: C_13  and  C_27
    6  A    between atoms: C_16  and  C_30
    7  A    between atoms: C_27  and  C_30
                            x       y       z     vdW  Elec       q    Type
                         _______ _______ _______ _____ _____    ______ ____

>  <TORSDO>
F 7

$$$$
=
 OpenBabel10272413513D

 30 33  0  0  1  0  0  0  0  0999 V2000
  184.8780  178.2600  141.6130 C   0  0  0  0  0  3  0  0  0  0  0  0
  182.5360  178.3970  140.7150 C   0  0  2  0  0  3  0  0  0  0  0  0
  183.8370  179.0230  145.5030 N   0  0  0  0  0  0  0  0  0  0  0  0
  185.8230  178.2920  142.6590 C   0  0  0  0  0  0  0  0  0  0  0  0
  185.0960  178.9130  146.0000 C   0  0  0  0  0  0  0  0  0  0  0  0
  181.1950  179.0680  141.0270 C   0  0  0  0  0  2  0  0  0  0  0  0
  182.3170  176.9410  140.3350 C   0  0  0  0  0  1  0  0  0  0  0  0
  184.0260  178.7850  144.1950 C   0  0  0  0  0  0  0  0  0  0  0  0
  180.6810  178.6320  142.3960 C   0  0  0  0  0  2  0  0  0  0  0  0
  183.5090  178.4990  141.8610 C   0  0  0  0  0  0  0  0  0  0  0  0
  185.3470  178.5520  143.9450 C   0  0  0  0  0  0  0  0  0  0  0  0
  185.3880  179.0880  147.3810 N   0  0  0  0  0  1  0  0  0  0  0  0
  186.0540  178.6270  145.0840 N   0  0  0  0  0  2  0  0  0  0  0  0
  181.6330  179.1190  143.4840 C   0  0  0  0  0  2  0  0  0  0  0  0
  183.0640  178.7610  143.1840 C   0  0  0  0  0  0  0  0  0  0  0  0
  187.2830  178.0220  142.4180 C   0  0  2  0  0  3  0  0  0  0  0  0
  190.0140  177.2850  141.4430 C   0  0  0  0  0  2  0  0  0  0  0  0
  186.9080  178.7730  140.1730 O   0  0  0  0  0  0  0  0  0  0  0  0
  187.7050  178.2360  140.9910 C   0  0  0  0  0  0  0  0  0  0  0  0
  189.5020  178.0770  139.2150 C   0  0  0  0  0  2  0  0  0  0  0  0
  189.0220  177.8700  140.5640 N   0  0  0  0  0  0  0  0  0  0  0  0
  191.2910  177.2130  140.6270 C   0  0  0  0  0  2  0  0  0  0  0  0
  190.8990  177.4850  139.1810 C   0  0  0  0  0  2  0  0  0  0  0  0
  187.7740  176.7040  143.0210 C   0  0  0  0  0  2  0  0  0  0  0  0
  188.1620  176.8310  144.4900 C   0  0  0  0  0  2  0  0  0  0  0  0
  189.6540  177.0710  144.6280 C   0  0  0  0  0  2  0  0  0  0  0  0
  190.0130  177.3830  146.0710 C   0  0  0  0  0  2  0  0  0  0  0  0
  191.8090  176.9320  147.6660 O   0  0  0  0  0  0  0  0  0  0  0  0
  191.3140  176.8230  146.3880 N   0  0  0  0  0  0  0  0  0  0  0  0
  191.8990  176.1000  145.5570 O   0  0  0  0  0  0  0  0  0  0  0  0
  1 10  2  0  0  0  0
  1  4  1  0  0  0  0
  2  7  1  1  0  0  0
  2  6  1  0  0  0  0
  2 10  1  0  0  0  0
  3  5  2  0  0  0  0
  4 11  2  0  0  0  0
  5 12  1  0  0  0  0
  6  9  1  0  0  0  0
  8  3  1  0  0  0  0
  9 14  1  0  0  0  0
 10 15  1  0  0  0  0
 11  8  1  0  0  0  0
 11 13  1  0  0  0  0
 13  5  1  0  0  0  0
 15 14  1  0  0  0  0
 15  8  2  0  0  0  0
 16  4  1  0  0  0  0
 16 24  1  6  0  0  0
 18 19  2  0  0  0  0
 19 16  1  0  0  0  0
 20 21  1  0  0  0  0
 21 19  1  0  0  0  0
 21 17  1  0  0  0  0
 22 17  1  0  0  0  0
 23 20  1  0  0  0  0
 23 22  1  0  0  0  0
 24 25  1  0  0  0  0
 25 26  1  0  0  0  0
 26 27  1  0  0  0  0
 27 29  1  0  0  0  0
 29 28  2  0  0  0  0
 30 29  2  0  0  0  0
M  END
>  <MODEL>
5

>  <REMARK>
 VINA RESULT:      -7.3      2.330      3.846
  Name = 
  7 active torsions:
  status: ('A' for Active; 'I' for Inactive)
    1  A    between atoms: C_4  and  C_13
    2  A    between atoms: C_7  and  N_15
    3  A    between atoms: C_7  and  C_16
    4  A    between atoms: C_8  and  C_13
    5  A    between atoms: C_13  and  C_27
    6  A    between atoms: C_16  and  C_30
    7  A    between atoms: C_27  and  C_30
                            x       y       z     vdW  Elec       q    Type
                         _______ _______ _______ _____ _____    ______ ____

>  <TORSDO>
F 7

$$$$
=
 OpenBabel10272413513D

 30 33  0  0  1  0  0  0  0  0999 V2000
  188.0810  177.2850  138.9420 C   0  0  0  0  0  3  0  0  0  0  0  0
  187.3480  176.6630  136.6200 C   0  0  2  0  0  3  0  0  0  0  0  0
  192.0810  176.7300  138.2370 N   0  0  0  0  0  0  0  0  0  0  0  0
  189.0640  177.5150  139.9270 C   0  0  0  0  0  0  0  0  0  0  0  0
  192.4860  177.1010  139.4790 C   0  0  0  0  0  0  0  0  0  0  0  0
  187.8010  175.8060  135.4350 C   0  0  0  0  0  2  0  0  0  0  0  0
  186.8600  178.0170  136.1310 C   0  0  0  0  0  1  0  0  0  0  0  0
  190.7480  176.8710  138.3190 C   0  0  0  0  0  0  0  0  0  0  0  0
  189.1570  176.2760  134.9180 C   0  0  0  0  0  2  0  0  0  0  0  0
  188.4350  176.8400  137.6490 C   0  0  0  0  0  0  0  0  0  0  0  0
  190.3960  177.3010  139.5650 C   0  0  0  0  0  0  0  0  0  0  0  0
  193.8560  177.1110  139.8620 N   0  0  0  0  0  1  0  0  0  0  0  0
  191.4900  177.4580  140.3270 N   0  0  0  0  0  2  0  0  0  0  0  0
  190.2210  176.0660  135.9910 C   0  0  0  0  0  2  0  0  0  0  0  0
  189.8020  176.6330  137.3210 C   0  0  0  0  0  0  0  0  0  0  0  0
  188.7090  178.0060  141.3020 C   0  0  2  0  0  3  0  0  0  0  0  0
  190.6770  178.7790  143.4200 C   0  0  0  0  0  2  0  0  0  0  0  0
  188.6420  175.8900  142.4260 O   0  0  0  0  0  0  0  0  0  0  0  0
  189.1120  177.0610  142.4000 C   0  0  0  0  0  0  0  0  0  0  0  0
  190.5110  176.6000  144.4590 C   0  0  0  0  0  2  0  0  0  0  0  0
  190.0580  177.4700  143.3950 N   0  0  0  0  0  0  0  0  0  0  0  0
  191.7120  178.7200  144.5270 C   0  0  0  0  0  2  0  0  0  0  0  0
  191.4340  177.4480  145.3150 C   0  0  0  0  0  2  0  0  0  0  0  0
  187.2740  178.5230  141.4210 C   0  0  0  0  0  2  0  0  0  0  0  0
  186.6290  178.1860  142.7610 C   0  0  0  0  0  2  0  0  0  0  0  0
  185.1330  178.4380  142.7100 C   0  0  0  0  0  2  0  0  0  0  0  0
  184.7380  179.5060  143.7160 C   0  0  0  0  0  2  0  0  0  0  0  0
  184.0390  178.9970  146.0020 O   0  0  0  0  0  0  0  0  0  0  0  0
  183.7710  178.9660  144.6540 N   0  0  0  0  0  0  0  0  0  0  0  0
  182.6350  178.6370  144.2570 O   0  0  0  0  0  0  0  0  0  0  0  0
  1  4  1  0  0  0  0
  2  7  1  6  0  0  0
  2 10  1  0  0  0  0
  3  8  1  0  0  0  0
  3  5  2  0  0  0  0
  4 16  1  0  0  0  0
  5 12  1  0  0  0  0
  5 13  1  0  0  0  0
  6  2  1  0  0  0  0
  8 11  1  0  0  0  0
  9  6  1  0  0  0  0
  9 14  1  0  0  0  0
 10  1  2  0  0  0  0
 11  4  2  0  0  0  0
 11 13  1  0  0  0  0
 14 15  1  0  0  0  0
 15 10  1  0  0  0  0
 15  8  2  0  0  0  0
 16 24  1  6  0  0  0
 16 19  1  0  0  0  0
 17 22  1  0  0  0  0
 19 18  2  0  0  0  0
 19 21  1  0  0  0  0
 20 23  1  0  0  0  0
 21 17  1  0  0  0  0
 21 20  1  0  0  0  0
 22 23  1  0  0  0  0
 24 25  1  0  0  0  0
 26 25  1  0  0  0  0
 26 27  1  0  0  0  0
 27 29  1  0  0  0  0
 29 28  2  0  0  0  0
 30 29  2  0  0  0  0
M  END
>  <MODEL>
6

>  <REMARK>
 VINA RESULT:      -7.3      3.512      5.642
  Name = 
  7 active torsions:
  status: ('A' for Active; 'I' for Inactive)
    1  A    between atoms: C_4  and  C_13
    2  A    between atoms: C_7  and  N_15
    3  A    between atoms: C_7  and  C_16
    4  A    between atoms: C_8  and  C_13
    5  A    between atoms: C_13  and  C_27
    6  A    between atoms: C_16  and  C_30
    7  A    between atoms: C_27  and  C_30
                            x       y       z     vdW  Elec       q    Type
                         _______ _______ _______ _____ _____    ______ ____

>  <TORSDO>
F 7

$$$$
=
 OpenBabel10272413513D

 30 33  0  0  1  0  0  0  0  0999 V2000
  187.3240  177.3490  143.7550 C   0  0  0  0  0  3  0  0  0  0  0  0
  186.1800  177.6220  145.9750 C   0  0  2  0  0  3  0  0  0  0  0  0
  184.4230  179.2750  141.5940 N   0  0  0  0  0  0  0  0  0  0  0  0
  187.4200  177.5440  142.3620 C   0  0  0  0  0  0  0  0  0  0  0  0
  185.0540  179.1630  140.3970 C   0  0  0  0  0  0  0  0  0  0  0  0
  184.7740  177.7820  146.5610 C   0  0  0  0  0  2  0  0  0  0  0  0
  187.1390  178.5940  146.6440 C   0  0  0  0  0  1  0  0  0  0  0  0
  185.2860  178.6730  142.4280 C   0  0  0  0  0  0  0  0  0  0  0  0
  184.1070  179.0450  146.0230 C   0  0  0  0  0  2  0  0  0  0  0  0
  186.2040  177.8100  144.4800 C   0  0  0  0  0  0  0  0  0  0  0  0
  186.3730  178.2240  141.7360 C   0  0  0  0  0  0  0  0  0  0  0  0
  184.4980  179.6750  139.1910 N   0  0  0  0  0  1  0  0  0  0  0  0
  186.2510  178.5260  140.4340 N   0  0  0  0  0  2  0  0  0  0  0  0
  183.9000  178.9180  144.5170 C   0  0  0  0  0  2  0  0  0  0  0  0
  185.1580  178.4960  143.8060 C   0  0  0  0  0  0  0  0  0  0  0  0
  188.6140  177.0780  141.5760 C   0  0  2  0  0  3  0  0  0  0  0  0
  190.1530  178.9500  143.3310 C   0  0  0  0  0  2  0  0  0  0  0  0
  190.1070  175.3980  142.4060 O   0  0  0  0  0  0  0  0  0  0  0  0
  189.7530  176.6080  142.4370 C   0  0  0  0  0  0  0  0  0  0  0  0
  191.5890  177.1570  144.0920 C   0  0  0  0  0  2  0  0  0  0  0  0
  190.4650  177.5370  143.2630 N   0  0  0  0  0  0  0  0  0  0  0  0
  191.2410  179.5680  144.1870 C   0  0  0  0  0  2  0  0  0  0  0  0
  191.9850  178.4130  144.8440 C   0  0  0  0  0  2  0  0  0  0  0  0
  189.0310  178.0380  140.4590 C   0  0  0  0  0  2  0  0  0  0  0  0
  190.2410  177.5460  139.6730 C   0  0  0  0  0  2  0  0  0  0  0  0
  189.8470  177.2060  138.2480 C   0  0  0  0  0  2  0  0  0  0  0  0
  189.2680  178.4250  137.5490 C   0  0  0  0  0  2  0  0  0  0  0  0
  187.3530  176.9240  137.3200 O   0  0  0  0  0  0  0  0  0  0  0  0
  187.8710  178.1940  137.2280 N   0  0  0  0  0  0  0  0  0  0  0  0
  187.1080  179.1630  137.0410 O   0  0  0  0  0  0  0  0  0  0  0  0
  1 10  1  0  0  0  0
  2  6  1  0  0  0  0
  2  7  1  1  0  0  0
  3  8  1  0  0  0  0
  4  1  2  0  0  0  0
  5 13  1  0  0  0  0
  5  3  2  0  0  0  0
  8 15  1  0  0  0  0
  9  6  1  0  0  0  0
 10  2  1  0  0  0  0
 11  4  1  0  0  0  0
 11  8  2  0  0  0  0
 12  5  1  0  0  0  0
 13 11  1  0  0  0  0
 14  9  1  0  0  0  0
 15 10  2  0  0  0  0
 15 14  1  0  0  0  0
 16 24  1  1  0  0  0
 16  4  1  0  0  0  0
 16 19  1  0  0  0  0
 17 22  1  0  0  0  0
 18 19  2  0  0  0  0
 19 21  1  0  0  0  0
 20 23  1  0  0  0  0
 21 17  1  0  0  0  0
 21 20  1  0  0  0  0
 22 23  1  0  0  0  0
 25 24  1  0  0  0  0
 26 25  1  0  0  0  0
 27 26  1  0  0  0  0
 29 28  2  0  0  0  0
 29 27  1  0  0  0  0
 30 29  2  0  0  0  0
M  END
>  <MODEL>
7

>  <REMARK>
 VINA RESULT:      -7.1      2.416      5.580
  Name = 
  7 active torsions:
  status: ('A' for Active; 'I' for Inactive)
    1  A    between atoms: C_4  and  C_13
    2  A    between atoms: C_7  and  N_15
    3  A    between atoms: C_7  and  C_16
    4  A    between atoms: C_8  and  C_13
    5  A    between atoms: C_13  and  C_27
    6  A    between atoms: C_16  and  C_30
    7  A    between atoms: C_27  and  C_30
                            x       y       z     vdW  Elec       q    Type
                         _______ _______ _______ _____ _____    ______ ____

>  <TORSDO>
F 7

$$$$
=
 OpenBabel10272413513D

 30 33  0  0  1  0  0  0  0  0999 V2000
  188.6050  177.6820  140.2260 C   0  0  0  0  0  3  0  0  0  0  0  0
  189.7710  177.2650  138.0400 C   0  0  2  0  0  3  0  0  0  0  0  0
  185.0650  178.8810  138.5420 N   0  0  0  0  0  0  0  0  0  0  0  0
  187.4830  178.0480  140.9980 C   0  0  0  0  0  0  0  0  0  0  0  0
  184.4170  179.0720  139.7200 C   0  0  0  0  0  0  0  0  0  0  0  0
  189.7420  177.7360  136.5830 C   0  0  0  0  0  2  0  0  0  0  0  0
  189.8970  175.7510  138.0970 C   0  0  0  0  0  1  0  0  0  0  0  0
  186.2770  178.4680  138.9480 C   0  0  0  0  0  0  0  0  0  0  0  0
  188.3830  177.4490  135.9520 C   0  0  0  0  0  2  0  0  0  0  0  0
  188.5610  177.7190  138.8140 C   0  0  0  0  0  0  0  0  0  0  0  0
  186.3290  178.4290  140.3110 C   0  0  0  0  0  0  0  0  0  0  0  0
  183.0680  179.5200  139.7840 N   0  0  0  0  0  1  0  0  0  0  0  0
  185.1510  178.8100  140.8300 N   0  0  0  0  0  2  0  0  0  0  0  0
  187.3030  178.2640  136.6560 C   0  0  0  0  0  2  0  0  0  0  0  0
  187.3680  178.1140  138.1530 C   0  0  0  0  0  0  0  0  0  0  0  0
  187.5030  177.9970  142.5000 C   0  0  2  0  0  3  0  0  0  0  0  0
  190.1400  178.8570  143.6220 C   0  0  0  0  0  2  0  0  0  0  0  0
  188.2370  175.7760  143.0220 O   0  0  0  0  0  0  0  0  0  0  0  0
  188.4940  177.0110  143.0540 C   0  0  0  0  0  0  0  0  0  0  0  0
  190.7560  176.5660  144.1020 C   0  0  0  0  0  2  0  0  0  0  0  0
  189.7460  177.4640  143.5810 N   0  0  0  0  0  0  0  0  0  0  0  0
  191.5800  178.8610  144.1010 C   0  0  0  0  0  2  0  0  0  0  0  0
  191.8690  177.4580  144.6190 C   0  0  0  0  0  2  0  0  0  0  0  0
  186.1130  177.9050  143.1340 C   0  0  0  0  0  2  0  0  0  0  0  0
  186.0170  178.6400  144.4660 C   0  0  0  0  0  2  0  0  0  0  0  0
  186.1440  177.6650  145.6220 C   0  0  0  0  0  2  0  0  0  0  0  0
  186.5030  178.4000  146.9020 C   0  0  0  0  0  2  0  0  0  0  0  0
  188.0410  178.0360  148.7670 O   0  0  0  0  0  0  0  0  0  0  0  0
  187.7550  177.8890  147.4300 N   0  0  0  0  0  0  0  0  0  0  0  0
  188.4850  177.1730  146.7160 O   0  0  0  0  0  0  0  0  0  0  0  0
  1  4  1  0  0  0  0
  2  7  1  6  0  0  0
  2 10  1  0  0  0  0
  3  8  1  0  0  0  0
  3  5  2  0  0  0  0
  4 16  1  0  0  0  0
  5 12  1  0  0  0  0
  5 13  1  0  0  0  0
  6  2  1  0  0  0  0
  8 11  1  0  0  0  0
  9  6  1  0  0  0  0
  9 14  1  0  0  0  0
 10  1  2  0  0  0  0
 11 13  1  0  0  0  0
 11  4  2  0  0  0  0
 14 15  1  0  0  0  0
 15 10  1  0  0  0  0
 15  8  2  0  0  0  0
 16 19  1  0  0  0  0
 16 24  1  6  0  0  0
 17 22  1  0  0  0  0
 18 19  2  0  0  0  0
 19 21  1  0  0  0  0
 20 23  1  0  0  0  0
 21 17  1  0  0  0  0
 21 20  1  0  0  0  0
 22 23  1  0  0  0  0
 24 25  1  0  0  0  0
 25 26  1  0  0  0  0
 26 27  1  0  0  0  0
 27 29  1  0  0  0  0
 29 28  2  0  0  0  0
 30 29  2  0  0  0  0
M  END
>  <MODEL>
8

>  <REMARK>
 VINA RESULT:      -7.0      2.026      4.265
  Name = 
  7 active torsions:
  status: ('A' for Active; 'I' for Inactive)
    1  A    between atoms: C_4  and  C_13
    2  A    between atoms: C_7  and  N_15
    3  A    between atoms: C_7  and  C_16
    4  A    between atoms: C_8  and  C_13
    5  A    between atoms: C_13  and  C_27
    6  A    between atoms: C_16  and  C_30
    7  A    between atoms: C_27  and  C_30
                            x       y       z     vdW  Elec       q    Type
                         _______ _______ _______ _____ _____    ______ ____

>  <TORSDO>
F 7

$$$$
=
 OpenBabel10272413513D

 30 33  0  0  1  0  0  0  0  0999 V2000
  187.3940  177.4670  143.4660 C   0  0  0  0  0  3  0  0  0  0  0  0
  186.3510  177.5220  145.7510 C   0  0  2  0  0  3  0  0  0  0  0  0
  184.2780  179.3500  141.5830 N   0  0  0  0  0  0  0  0  0  0  0  0
  187.4070  177.7600  142.0860 C   0  0  0  0  0  0  0  0  0  0  0  0
  184.8530  179.3570  140.3520 C   0  0  0  0  0  0  0  0  0  0  0  0
  184.9700  177.5560  146.4120 C   0  0  0  0  0  2  0  0  0  0  0  0
  187.2850  178.5040  146.4400 C   0  0  0  0  0  1  0  0  0  0  0  0
  185.2160  178.7480  142.3310 C   0  0  0  0  0  0  0  0  0  0  0  0
  184.2040  178.8080  145.9950 C   0  0  0  0  0  2  0  0  0  0  0  0
  186.2870  177.8090  144.2730 C   0  0  0  0  0  0  0  0  0  0  0  0
  186.2910  178.4140  141.5600 C   0  0  0  0  0  0  0  0  0  0  0  0
  184.2070  179.9120  139.2130 N   0  0  0  0  0  1  0  0  0  0  0  0
  186.0850  178.7940  140.2890 N   0  0  0  0  0  2  0  0  0  0  0  0
  183.9280  178.7690  144.4960 C   0  0  0  0  0  2  0  0  0  0  0  0
  185.1700  178.4730  143.6990 C   0  0  0  0  0  0  0  0  0  0  0  0
  188.5830  177.4210  141.2140 C   0  0  2  0  0  3  0  0  0  0  0  0
  190.1250  179.0350  143.2070 C   0  0  0  0  0  2  0  0  0  0  0  0
  190.1220  175.6640  141.7530 O   0  0  0  0  0  0  0  0  0  0  0  0
  189.7480  176.8490  141.9740 C   0  0  0  0  0  0  0  0  0  0  0  0
  191.6070  177.1770  143.6600 C   0  0  0  0  0  2  0  0  0  0  0  0
  190.4600  177.6560  142.9190 N   0  0  0  0  0  0  0  0  0  0  0  0
  191.2200  179.5380  144.1280 C   0  0  0  0  0  2  0  0  0  0  0  0
  191.9980  178.3120  144.5890 C   0  0  0  0  0  2  0  0  0  0  0  0
  188.9650  178.5320  140.2330 C   0  0  0  0  0  2  0  0  0  0  0  0
  189.4820  177.9980  138.9020 C   0  0  0  0  0  2  0  0  0  0  0  0
  188.5430  176.9390  138.3530 C   0  0  0  0  0  2  0  0  0  0  0  0
  189.1950  176.1960  137.1990 C   0  0  0  0  0  2  0  0  0  0  0  0
  190.9320  175.0390  138.4710 O   0  0  0  0  0  0  0  0  0  0  0  0
  190.5930  175.9480  137.4970 N   0  0  0  0  0  0  0  0  0  0  0  0
  191.4800  176.4260  136.7610 O   0  0  0  0  0  0  0  0  0  0  0  0
  1 10  1  0  0  0  0
  2  6  1  0  0  0  0
  2  7  1  1  0  0  0
  3  8  1  0  0  0  0
  4  1  2  0  0  0  0
  5  3  2  0  0  0  0
  8 15  1  0  0  0  0
  9  6  1  0  0  0  0
 10  2  1  0  0  0  0
 11  4  1  0  0  0  0
 11  8  2  0  0  0  0
 12  5  1  0  0  0  0
 13  5  1  0  0  0  0
 13 11  1  0  0  0  0
 14  9  1  0  0  0  0
 15 10  2  0  0  0  0
 15 14  1  0  0  0  0
 16 24  1  1  0  0  0
 16 19  1  0  0  0  0
 16  4  1  0  0  0  0
 17 22  1  0  0  0  0
 18 19  2  0  0  0  0
 19 21  1  0  0  0  0
 20 23  1  0  0  0  0
 21 17  1  0  0  0  0
 21 20  1  0  0  0  0
 22 23  1  0  0  0  0
 25 24  1  0  0  0  0
 26 25  1  0  0  0  0
 27 29  1  0  0  0  0
 27 26  1  0  0  0  0
 29 28  2  0  0  0  0
 30 29  2  0  0  0  0
M  END
>  <MODEL>
9

>  <REMARK>
 VINA RESULT:      -6.9      2.557      5.554
  Name = 
  7 active torsions:
  status: ('A' for Active; 'I' for Inactive)
    1  A    between atoms: C_4  and  C_13
    2  A    between atoms: C_7  and  N_15
    3  A    between atoms: C_7  and  C_16
    4  A    between atoms: C_8  and  C_13
    5  A    between atoms: C_13  and  C_27
    6  A    between atoms: C_16  and  C_30
    7  A    between atoms: C_27  and  C_30
                            x       y       z     vdW  Elec       q    Type
                         _______ _______ _______ _____ _____    ______ ____

>  <TORSDO>
F 7

$$$$
