=
 OpenBabel10272413173D

 32 34  0  0  1  0  0  0  0  0999 V2000
  189.3650  176.5960  142.3700 N   0  0  0  0  0  2  0  0  0  0  0  0
  190.2750  177.6230  142.0350 N   0  0  0  0  0  0  0  0  0  0  0  0
  189.3660  176.4670  143.8140 C   0  0  1  0  0  3  0  0  0  0  0  0
  190.5600  177.2280  144.2900 C   0  0  2  0  0  3  0  0  0  0  0  0
  191.3430  179.1900  143.3380 C   0  0  0  0  0  1  0  0  0  0  0  0
  191.1950  177.7610  143.1010 N   0  0  0  0  0  0  0  0  0  0  0  0
  188.1160  177.0440  144.3940 C   0  0  0  0  0  0  0  0  0  0  0  0
  188.0500  177.2830  145.7730 C   0  0  0  0  0  3  0  0  0  0  0  0
  183.6880  178.7890  143.7810 C   0  0  0  0  0  3  0  0  0  0  0  0
  187.0580  177.3650  143.5910 N   0  0  0  0  0  0  0  0  0  0  0  0
  184.6470  178.7160  146.0080 C   0  0  0  0  0  3  0  0  0  0  0  0
  185.8170  178.1580  145.4860 C   0  0  0  0  0  0  0  0  0  0  0  0
  186.8920  177.8410  146.3200 C   0  0  0  0  0  3  0  0  0  0  0  0
  185.9210  177.9100  144.0980 C   0  0  0  0  0  0  0  0  0  0  0  0
  183.5830  179.0300  145.1550 C   0  0  0  0  0  3  0  0  0  0  0  0
  184.8560  178.2310  143.2520 C   0  0  0  0  0  3  0  0  0  0  0  0
  190.9930  177.1700  140.8320 C   0  0  2  0  0  3  0  0  0  0  0  0
  192.4590  177.5980  140.8070 C   0  0  0  0  0  1  0  0  0  0  0  0
  190.2440  177.5780  139.5380 C   0  0  0  0  0  2  0  0  0  0  0  0
  190.1250  176.5570  138.4790 N   0  0  0  0  0  0  0  0  0  0  0  0
  193.3050  175.8070  136.4990 C   0  0  0  0  0  1  0  0  0  0  0  0
  191.2200  176.6860  137.6100 N   0  0  0  0  0  2  0  0  0  0  0  0
  191.9580  174.4970  137.9560 O   0  0  0  0  0  0  0  0  0  0  0  0
  192.1350  175.6110  137.3940 C   0  0  0  0  0  0  0  0  0  0  0  0
  188.8940  176.7030  137.7050 C   0  0  0  0  0  2  0  0  0  0  0  0
  189.0360  177.8590  136.7390 C   0  0  0  0  0  2  0  0  0  0  0  0
  187.7540  178.6680  136.7340 C   0  0  0  0  0  2  0  0  0  0  0  0
  186.6470  177.8550  137.3770 C   0  0  0  0  0  1  0  0  0  0  0  0
  191.5230  176.3040  145.0270 C   0  0  0  0  0  2  0  0  0  0  0  0
  191.8150  176.8300  146.3540 N   0  0  0  0  0  2  0  0  0  0  0  0
  192.7970  176.1770  148.2240 O   0  0  0  0  0  1  0  0  0  0  0  0
  192.0170  175.7360  147.2080 N   0  0  0  0  0  2  0  0  0  0  0  0
  1  3  1  0  0  0  0
  2  1  1  0  0  0  0
  2  6  1  0  0  0  0
  3  4  1  0  0  0  0
  3  7  1  1  0  0  0
  4 29  1  6  0  0  0
  6  5  1  0  0  0  0
  6  4  1  0  0  0  0
  7  8  1  0  0  0  0
  8 13  2  0  0  0  0
  9 15  1  0  0  0  0
 10 14  1  0  0  0  0
 10  7  2  0  0  0  0
 12 11  1  0  0  0  0
 12 13  1  0  0  0  0
 14 12  2  0  0  0  0
 15 11  2  0  0  0  0
 16  9  2  0  0  0  0
 16 14  1  0  0  0  0
 17 18  1  6  0  0  0
 17  2  1  0  0  0  0
 19 17  1  0  0  0  0
 20 19  1  0  0  0  0
 21 24  1  0  0  0  0
 22 20  1  0  0  0  0
 24 22  1  0  0  0  0
 24 23  2  0  0  0  0
 25 20  1  0  0  0  0
 26 25  1  0  0  0  0
 27 26  1  0  0  0  0
 27 28  1  0  0  0  0
 29 30  1  0  0  0  0
 30 32  1  0  0  0  0
 32 31  1  0  0  0  0
M  END
>  <MODEL>
1

>  <REMARK>
 VINA RESULT:      -8.3      0.000      0.000
  Name = 
  11 active torsions:
  status: ('A' for Active; 'I' for Inactive)
    1  A    between atoms: C_2  and  C_5
    2  A    between atoms: C_3  and  C_8
    3  A    between atoms: C_3  and  N_20
    4  A    between atoms: N_4  and  C_24
    5  A    between atoms: C_8  and  C_22
    6  A    between atoms: N_13  and  C_18
    7  A    between atoms: N_13  and  N_29
    8  A    between atoms: C_14  and  C_18
    9  A    between atoms: N_15  and  N_20
   10  A    between atoms: C_16  and  N_20
   11  A    between atoms: C_16  and  C_24
                            x       y       z     vdW  Elec       q    Type
                         _______ _______ _______ _____ _____    ______ ____

>  <TORSDO>
F 11

$$$$
=
 OpenBabel10272413173D

 32 34  0  0  1  0  0  0  0  0999 V2000
  188.9250  176.3950  143.6080 N   0  0  0  0  0  2  0  0  0  0  0  0
  189.8970  177.3230  143.1740 N   0  0  0  0  0  0  0  0  0  0  0  0
  188.5300  176.7730  144.9500 C   0  0  1  0  0  3  0  0  0  0  0  0
  189.5500  177.7620  145.4130 C   0  0  2  0  0  3  0  0  0  0  0  0
  190.5710  179.3390  144.0570 C   0  0  0  0  0  1  0  0  0  0  0  0
  190.4890  177.9090  144.3180 N   0  0  0  0  0  0  0  0  0  0  0  0
  187.1700  177.3940  144.9420 C   0  0  0  0  0  0  0  0  0  0  0  0
  186.6290  177.8680  146.1440 C   0  0  0  0  0  3  0  0  0  0  0  0
  183.2890  178.8280  142.5130 C   0  0  0  0  0  3  0  0  0  0  0  0
  186.4720  177.5260  143.7750 N   0  0  0  0  0  0  0  0  0  0  0  0
  183.4000  179.1850  144.9100 C   0  0  0  0  0  3  0  0  0  0  0  0
  184.6640  178.5910  144.9400 C   0  0  0  0  0  0  0  0  0  0  0  0
  185.3680  178.4680  146.1400 C   0  0  0  0  0  3  0  0  0  0  0  0
  185.2440  178.1070  143.7450 C   0  0  0  0  0  0  0  0  0  0  0  0
  182.7130  179.3020  143.6960 C   0  0  0  0  0  3  0  0  0  0  0  0
  184.5530  178.2320  142.5360 C   0  0  0  0  0  3  0  0  0  0  0  0
  190.9160  176.5540  142.4420 C   0  0  2  0  0  3  0  0  0  0  0  0
  191.9450  175.8920  143.3560 C   0  0  0  0  0  1  0  0  0  0  0  0
  191.5830  177.4070  141.3330 C   0  0  0  0  0  2  0  0  0  0  0  0
  190.9060  177.4560  140.0230 N   0  0  0  0  0  0  0  0  0  0  0  0
  187.1800  178.2850  139.8590 C   0  0  0  0  0  1  0  0  0  0  0  0
  189.5180  177.4240  140.2370 N   0  0  0  0  0  2  0  0  0  0  0  0
  189.0830  179.1590  138.7350 O   0  0  0  0  0  0  0  0  0  0  0  0
  188.6360  178.3270  139.5690 C   0  0  0  0  0  0  0  0  0  0  0  0
  191.2730  176.3320  139.1660 C   0  0  0  0  0  2  0  0  0  0  0  0
  192.5970  176.6190  138.4910 C   0  0  0  0  0  2  0  0  0  0  0  0
  192.5150  176.2090  137.0340 C   0  0  0  0  0  2  0  0  0  0  0  0
  193.9140  175.9530  136.5070 C   0  0  0  0  0  1  0  0  0  0  0  0
  190.2700  177.2450  146.6530 C   0  0  0  0  0  2  0  0  0  0  0  0
  191.6790  177.0200  146.3640 N   0  0  0  0  0  2  0  0  0  0  0  0
  192.7130  176.1720  148.1250 O   0  0  0  0  0  1  0  0  0  0  0  0
  192.0550  175.8240  146.9940 N   0  0  0  0  0  2  0  0  0  0  0  0
  1  3  1  0  0  0  0
  2  1  1  0  0  0  0
  2  6  1  0  0  0  0
  3  7  1  6  0  0  0
  3  4  1  0  0  0  0
  4 29  1  1  0  0  0
  5  6  1  0  0  0  0
  6  4  1  0  0  0  0
  7  8  1  0  0  0  0
  9 16  2  0  0  0  0
  9 15  1  0  0  0  0
 10  7  2  0  0  0  0
 11 12  1  0  0  0  0
 12 13  1  0  0  0  0
 13  8  2  0  0  0  0
 14 10  1  0  0  0  0
 14 12  2  0  0  0  0
 15 11  2  0  0  0  0
 16 14  1  0  0  0  0
 17  2  1  0  0  0  0
 17 18  1  1  0  0  0
 19 17  1  0  0  0  0
 20 22  1  0  0  0  0
 20 19  1  0  0  0  0
 23 24  2  0  0  0  0
 24 21  1  0  0  0  0
 24 22  1  0  0  0  0
 25 20  1  0  0  0  0
 26 25  1  0  0  0  0
 27 26  1  0  0  0  0
 28 27  1  0  0  0  0
 30 29  1  0  0  0  0
 30 32  1  0  0  0  0
 32 31  1  0  0  0  0
M  END
>  <MODEL>
2

>  <REMARK>
 VINA RESULT:      -8.2      1.736      2.995
  Name = 
  11 active torsions:
  status: ('A' for Active; 'I' for Inactive)
    1  A    between atoms: C_2  and  C_5
    2  A    between atoms: C_3  and  C_8
    3  A    between atoms: C_3  and  N_20
    4  A    between atoms: N_4  and  C_24
    5  A    between atoms: C_8  and  C_22
    6  A    between atoms: N_13  and  C_18
    7  A    between atoms: N_13  and  N_29
    8  A    between atoms: C_14  and  C_18
    9  A    between atoms: N_15  and  N_20
   10  A    between atoms: C_16  and  N_20
   11  A    between atoms: C_16  and  C_24
                            x       y       z     vdW  Elec       q    Type
                         _______ _______ _______ _____ _____    ______ ____

>  <TORSDO>
F 11

$$$$
=
 OpenBabel10272413173D

 32 34  0  0  1  0  0  0  0  0999 V2000
  189.3920  176.4600  142.6570 N   0  0  0  0  0  2  0  0  0  0  0  0
  190.3110  177.4570  142.2610 N   0  0  0  0  0  0  0  0  0  0  0  0
  189.2400  176.5550  144.0950 C   0  0  1  0  0  3  0  0  0  0  0  0
  190.3580  177.4250  144.5680 C   0  0  2  0  0  3  0  0  0  0  0  0
  191.1970  179.2460  143.4070 C   0  0  0  0  0  1  0  0  0  0  0  0
  191.1070  177.7930  143.3820 N   0  0  0  0  0  0  0  0  0  0  0  0
  187.9220  177.1650  144.4450 C   0  0  0  0  0  0  0  0  0  0  0  0
  187.6620  177.5110  145.7770 C   0  0  0  0  0  3  0  0  0  0  0  0
  183.6310  178.8200  143.0740 C   0  0  0  0  0  3  0  0  0  0  0  0
  186.9890  177.4130  143.4770 N   0  0  0  0  0  0  0  0  0  0  0  0
  184.2650  178.9300  145.4140 C   0  0  0  0  0  3  0  0  0  0  0  0
  185.4950  178.3430  145.1080 C   0  0  0  0  0  0  0  0  0  0  0  0
  186.4400  178.1010  146.1080 C   0  0  0  0  0  3  0  0  0  0  0  0
  185.7940  177.9870  143.7740 C   0  0  0  0  0  0  0  0  0  0  0  0
  183.3330  179.1680  144.3970 C   0  0  0  0  0  3  0  0  0  0  0  0
  184.8600  178.2320  142.7620 C   0  0  0  0  0  3  0  0  0  0  0  0
  191.1650  176.8540  141.2250 C   0  0  2  0  0  3  0  0  0  0  0  0
  192.3170  177.7570  140.7900 C   0  0  0  0  0  1  0  0  0  0  0  0
  190.3280  176.3550  140.0200 C   0  0  0  0  0  2  0  0  0  0  0  0
  190.2510  177.2400  138.8410 N   0  0  0  0  0  0  0  0  0  0  0  0
  186.5280  178.0210  138.4830 C   0  0  0  0  0  1  0  0  0  0  0  0
  188.9260  177.2500  138.3770 N   0  0  0  0  0  2  0  0  0  0  0  0
  188.2240  178.8490  139.9290 O   0  0  0  0  0  0  0  0  0  0  0  0
  187.9270  178.0750  138.9800 C   0  0  0  0  0  0  0  0  0  0  0  0
  191.1230  176.7960  137.7570 C   0  0  0  0  0  2  0  0  0  0  0  0
  191.4320  175.3230  137.9240 C   0  0  0  0  0  2  0  0  0  0  0  0
  192.9230  175.1040  137.7700 C   0  0  0  0  0  2  0  0  0  0  0  0
  193.5060  176.2090  136.9110 C   0  0  0  0  0  1  0  0  0  0  0  0
  191.2550  176.6630  145.5360 C   0  0  0  0  0  2  0  0  0  0  0  0
  190.9950  177.0820  146.9060 N   0  0  0  0  0  2  0  0  0  0  0  0
  192.4600  175.4360  147.0850 O   0  0  0  0  0  1  0  0  0  0  0  0
  192.0090  176.5480  147.7140 N   0  0  0  0  0  2  0  0  0  0  0  0
  1  3  1  0  0  0  0
  2  1  1  0  0  0  0
  2  6  1  0  0  0  0
  3  7  1  6  0  0  0
  3  4  1  0  0  0  0
  4 29  1  1  0  0  0
  6  5  1  0  0  0  0
  6  4  1  0  0  0  0
  7  8  1  0  0  0  0
  8 13  2  0  0  0  0
  9 15  1  0  0  0  0
 10 14  1  0  0  0  0
 10  7  2  0  0  0  0
 12 11  1  0  0  0  0
 12 13  1  0  0  0  0
 14 12  2  0  0  0  0
 15 11  2  0  0  0  0
 16  9  2  0  0  0  0
 16 14  1  0  0  0  0
 17 18  1  6  0  0  0
 17  2  1  0  0  0  0
 19 17  1  0  0  0  0
 20 19  1  0  0  0  0
 21 24  1  0  0  0  0
 22 20  1  0  0  0  0
 22 24  1  0  0  0  0
 24 23  2  0  0  0  0
 25 26  1  0  0  0  0
 25 20  1  0  0  0  0
 27 26  1  0  0  0  0
 28 27  1  0  0  0  0
 29 30  1  0  0  0  0
 30 32  1  0  0  0  0
 31 32  1  0  0  0  0
M  END
>  <MODEL>
3

>  <REMARK>
 VINA RESULT:      -8.0      1.460      2.759
  Name = 
  11 active torsions:
  status: ('A' for Active; 'I' for Inactive)
    1  A    between atoms: C_2  and  C_5
    2  A    between atoms: C_3  and  C_8
    3  A    between atoms: C_3  and  N_20
    4  A    between atoms: N_4  and  C_24
    5  A    between atoms: C_8  and  C_22
    6  A    between atoms: N_13  and  C_18
    7  A    between atoms: N_13  and  N_29
    8  A    between atoms: C_14  and  C_18
    9  A    between atoms: N_15  and  N_20
   10  A    between atoms: C_16  and  N_20
   11  A    between atoms: C_16  and  C_24
                            x       y       z     vdW  Elec       q    Type
                         _______ _______ _______ _____ _____    ______ ____

>  <TORSDO>
F 11

$$$$
=
 OpenBabel10272413173D

 32 34  0  0  1  0  0  0  0  0999 V2000
  188.6170  179.1280  142.5440 N   0  0  0  0  0  2  0  0  0  0  0  0
  189.0810  178.0190  143.2850 N   0  0  0  0  0  0  0  0  0  0  0  0
  188.0900  178.6250  141.2910 C   0  0  1  0  0  3  0  0  0  0  0  0
  188.5690  177.2140  141.1840 C   0  0  2  0  0  3  0  0  0  0  0  0
  188.7950  175.7570  142.9710 C   0  0  0  0  0  1  0  0  0  0  0  0
  189.3500  176.9650  142.3800 N   0  0  0  0  0  0  0  0  0  0  0  0
  186.5970  178.6700  141.2920 C   0  0  0  0  0  0  0  0  0  0  0  0
  185.9100  178.5690  140.0760 C   0  0  0  0  0  3  0  0  0  0  0  0
  182.4660  178.9280  143.7200 C   0  0  0  0  0  3  0  0  0  0  0  0
  185.9040  178.7770  142.4650 N   0  0  0  0  0  0  0  0  0  0  0  0
  182.4230  178.7290  141.3020 C   0  0  0  0  0  3  0  0  0  0  0  0
  183.8200  178.7050  141.2790 C   0  0  0  0  0  0  0  0  0  0  0  0
  184.5130  178.5890  140.0720 C   0  0  0  0  0  3  0  0  0  0  0  0
  184.5460  178.7970  142.4880 C   0  0  0  0  0  0  0  0  0  0  0  0
  181.7470  178.8420  142.5220 C   0  0  0  0  0  3  0  0  0  0  0  0
  183.8640  178.9050  143.7030 C   0  0  0  0  0  3  0  0  0  0  0  0
  190.3370  178.4390  143.9270 C   0  0  2  0  0  3  0  0  0  0  0  0
  191.5720  177.7620  143.3370 C   0  0  0  0  0  1  0  0  0  0  0  0
  190.2660  178.2840  145.4670 C   0  0  0  0  0  2  0  0  0  0  0  0
  189.2180  177.3970  146.0070 N   0  0  0  0  0  0  0  0  0  0  0  0
  185.7830  178.9130  146.7190 C   0  0  0  0  0  1  0  0  0  0  0  0
  188.1930  178.1930  146.5430 N   0  0  0  0  0  2  0  0  0  0  0  0
  186.5050  177.1110  145.3460 O   0  0  0  0  0  0  0  0  0  0  0  0
  186.8280  178.0180  146.1580 C   0  0  0  0  0  0  0  0  0  0  0  0
  189.7240  176.5170  147.0570 C   0  0  0  0  0  2  0  0  0  0  0  0
  191.1370  176.9190  147.4200 C   0  0  0  0  0  2  0  0  0  0  0  0
  192.0050  175.6800  147.5060 C   0  0  0  0  0  2  0  0  0  0  0  0
  192.2830  175.1660  146.1070 C   0  0  0  0  0  1  0  0  0  0  0  0
  189.4390  177.0370  139.9450 C   0  0  0  0  0  2  0  0  0  0  0  0
  189.7130  178.3280  139.3290 N   0  0  0  0  0  2  0  0  0  0  0  0
  188.8530  179.4610  137.6370 O   0  0  0  0  0  1  0  0  0  0  0  0
  189.3360  178.2440  137.9810 N   0  0  0  0  0  2  0  0  0  0  0  0
  1  2  1  0  0  0  0
  2 17  1  0  0  0  0
  3  7  1  1  0  0  0
  3  1  1  0  0  0  0
  4 29  1  6  0  0  0
  4  3  1  0  0  0  0
  4  6  1  0  0  0  0
  6  5  1  0  0  0  0
  6  2  1  0  0  0  0
  7 10  1  0  0  0  0
  8  7  2  0  0  0  0
 10 14  2  0  0  0  0
 11 15  2  0  0  0  0
 12 11  1  0  0  0  0
 12 14  1  0  0  0  0
 13  8  1  0  0  0  0
 13 12  2  0  0  0  0
 14 16  1  0  0  0  0
 15  9  1  0  0  0  0
 16  9  2  0  0  0  0
 17 18  1  6  0  0  0
 17 19  1  0  0  0  0
 19 20  1  0  0  0  0
 20 22  1  0  0  0  0
 20 25  1  0  0  0  0
 23 24  2  0  0  0  0
 24 22  1  0  0  0  0
 24 21  1  0  0  0  0
 25 26  1  0  0  0  0
 26 27  1  0  0  0  0
 28 27  1  0  0  0  0
 30 29  1  0  0  0  0
 31 32  1  0  0  0  0
 32 30  1  0  0  0  0
M  END
>  <MODEL>
4

>  <REMARK>
 VINA RESULT:      -7.7      2.762      7.063
  Name = 
  11 active torsions:
  status: ('A' for Active; 'I' for Inactive)
    1  A    between atoms: C_2  and  C_5
    2  A    between atoms: C_3  and  C_8
    3  A    between atoms: C_3  and  N_20
    4  A    between atoms: N_4  and  C_24
    5  A    between atoms: C_8  and  C_22
    6  A    between atoms: N_13  and  C_18
    7  A    between atoms: N_13  and  N_29
    8  A    between atoms: C_14  and  C_18
    9  A    between atoms: N_15  and  N_20
   10  A    between atoms: C_16  and  N_20
   11  A    between atoms: C_16  and  C_24
                            x       y       z     vdW  Elec       q    Type
                         _______ _______ _______ _____ _____    ______ ____

>  <TORSDO>
F 11

$$$$
=
 OpenBabel10272413173D

 32 34  0  0  1  0  0  0  0  0999 V2000
  188.7760  177.1180  141.4040 N   0  0  0  0  0  2  0  0  0  0  0  0
  189.8740  178.0040  141.3250 N   0  0  0  0  0  0  0  0  0  0  0  0
  188.8290  176.4740  142.7010 C   0  0  1  0  0  3  0  0  0  0  0  0
  190.1890  176.7680  143.2470 C   0  0  2  0  0  3  0  0  0  0  0  0
  191.3370  178.7550  142.9340 C   0  0  0  0  0  1  0  0  0  0  0  0
  190.8590  177.5680  142.2410 N   0  0  0  0  0  0  0  0  0  0  0  0
  187.7750  177.0250  143.6050 C   0  0  0  0  0  0  0  0  0  0  0  0
  188.0360  177.1230  144.9780 C   0  0  0  0  0  3  0  0  0  0  0  0
  183.4200  178.9520  144.1940 C   0  0  0  0  0  3  0  0  0  0  0  0
  186.5810  177.4570  143.1010 N   0  0  0  0  0  0  0  0  0  0  0  0
  184.8540  178.6230  146.1230 C   0  0  0  0  0  3  0  0  0  0  0  0
  185.8450  178.0880  145.2960 C   0  0  0  0  0  0  0  0  0  0  0  0
  187.0620  177.6560  145.8270 C   0  0  0  0  0  3  0  0  0  0  0  0
  185.6190  177.9810  143.9050 C   0  0  0  0  0  0  0  0  0  0  0  0
  183.6420  179.0540  145.5720 C   0  0  0  0  0  3  0  0  0  0  0  0
  184.4070  178.4170  143.3610 C   0  0  0  0  0  3  0  0  0  0  0  0
  190.4040  177.8940  139.9560 C   0  0  2  0  0  3  0  0  0  0  0  0
  189.3560  178.1690  138.8790 C   0  0  0  0  0  1  0  0  0  0  0  0
  191.1270  176.5420  139.7340 C   0  0  0  0  0  2  0  0  0  0  0  0
  191.4490  176.1700  138.3430 N   0  0  0  0  0  0  0  0  0  0  0  0
  189.2610  173.3860  136.9070 C   0  0  0  0  0  1  0  0  0  0  0  0
  190.8940  174.9080  138.0790 N   0  0  0  0  0  2  0  0  0  0  0  0
  189.4200  175.7150  136.4570 O   0  0  0  0  0  0  0  0  0  0  0  0
  189.8480  174.7340  137.1210 C   0  0  0  0  0  0  0  0  0  0  0  0
  192.8880  176.1070  138.1040 C   0  0  0  0  0  2  0  0  0  0  0  0
  193.2780  174.6950  137.7240 C   0  0  0  0  0  2  0  0  0  0  0  0
  194.7810  174.6230  137.5380 C   0  0  0  0  0  2  0  0  0  0  0  0
  195.4260  174.1880  138.8390 C   0  0  0  0  0  1  0  0  0  0  0  0
  190.9590  175.4740  143.4860 C   0  0  0  0  0  2  0  0  0  0  0  0
  191.9670  175.6680  144.5190 N   0  0  0  0  0  2  0  0  0  0  0  0
  192.1660  176.3400  146.6160 O   0  0  0  0  0  1  0  0  0  0  0  0
  191.4140  176.5020  145.5010 N   0  0  0  0  0  2  0  0  0  0  0  0
  1  3  1  0  0  0  0
  2  1  1  0  0  0  0
  2  6  1  0  0  0  0
  3  4  1  0  0  0  0
  3  7  1  1  0  0  0
  4 29  1  6  0  0  0
  6  5  1  0  0  0  0
  6  4  1  0  0  0  0
  7  8  1  0  0  0  0
  8 13  2  0  0  0  0
  9 15  1  0  0  0  0
 10  7  2  0  0  0  0
 10 14  1  0  0  0  0
 12 13  1  0  0  0  0
 12 11  1  0  0  0  0
 14 12  2  0  0  0  0
 15 11  2  0  0  0  0
 16 14  1  0  0  0  0
 16  9  2  0  0  0  0
 17 18  1  6  0  0  0
 17  2  1  0  0  0  0
 19 17  1  0  0  0  0
 20 19  1  0  0  0  0
 21 24  1  0  0  0  0
 22 20  1  0  0  0  0
 23 24  2  0  0  0  0
 24 22  1  0  0  0  0
 25 20  1  0  0  0  0
 26 25  1  0  0  0  0
 27 26  1  0  0  0  0
 27 28  1  0  0  0  0
 29 30  1  0  0  0  0
 30 32  1  0  0  0  0
 32 31  1  0  0  0  0
M  END
>  <MODEL>
5

>  <REMARK>
 VINA RESULT:      -7.6      1.545      3.012
  Name = 
  11 active torsions:
  status: ('A' for Active; 'I' for Inactive)
    1  A    between atoms: C_2  and  C_5
    2  A    between atoms: C_3  and  C_8
    3  A    between atoms: C_3  and  N_20
    4  A    between atoms: N_4  and  C_24
    5  A    between atoms: C_8  and  C_22
    6  A    between atoms: N_13  and  C_18
    7  A    between atoms: N_13  and  N_29
    8  A    between atoms: C_14  and  C_18
    9  A    between atoms: N_15  and  N_20
   10  A    between atoms: C_16  and  N_20
   11  A    between atoms: C_16  and  C_24
                            x       y       z     vdW  Elec       q    Type
                         _______ _______ _______ _____ _____    ______ ____

>  <TORSDO>
F 11

$$$$
=
 OpenBabel10272413173D

 32 34  0  0  1  0  0  0  0  0999 V2000
  188.6630  179.1780  142.5460 N   0  0  0  0  0  2  0  0  0  0  0  0
  189.1880  178.0550  143.2220 N   0  0  0  0  0  0  0  0  0  0  0  0
  188.1010  178.7090  141.2960 C   0  0  1  0  0  3  0  0  0  0  0  0
  188.6150  177.3180  141.1130 C   0  0  2  0  0  3  0  0  0  0  0  0
  188.9550  175.7990  142.8290 C   0  0  0  0  0  1  0  0  0  0  0  0
  189.4510  177.0460  142.2650 N   0  0  0  0  0  0  0  0  0  0  0  0
  186.6080  178.7080  141.3580 C   0  0  0  0  0  0  0  0  0  0  0  0
  185.9740  178.3290  142.5480 C   0  0  0  0  0  3  0  0  0  0  0  0
  182.3760  179.5540  139.2590 C   0  0  0  0  0  3  0  0  0  0  0  0
  185.8650  179.0990  140.2800 N   0  0  0  0  0  0  0  0  0  0  0  0
  182.4380  178.7660  141.5520 C   0  0  0  0  0  3  0  0  0  0  0  0
  183.8350  178.7430  141.5070 C   0  0  0  0  0  0  0  0  0  0  0  0
  184.5790  178.3450  142.6200 C   0  0  0  0  0  3  0  0  0  0  0  0
  184.5070  179.1250  140.3250 C   0  0  0  0  0  0  0  0  0  0  0  0
  181.7100  179.1710  140.4280 C   0  0  0  0  0  3  0  0  0  0  0  0
  183.7730  179.5320  139.2070 C   0  0  0  0  0  3  0  0  0  0  0  0
  190.4580  178.4870  143.8310 C   0  0  2  0  0  3  0  0  0  0  0  0
  191.6790  177.7870  143.2400 C   0  0  0  0  0  1  0  0  0  0  0  0
  190.4120  178.3750  145.3760 C   0  0  0  0  0  2  0  0  0  0  0  0
  189.4480  177.4200  145.9540 N   0  0  0  0  0  0  0  0  0  0  0  0
  185.9470  178.6790  146.8240 C   0  0  0  0  0  1  0  0  0  0  0  0
  188.3930  178.1450  146.5310 N   0  0  0  0  0  2  0  0  0  0  0  0
  186.7350  176.9080  145.4470 O   0  0  0  0  0  0  0  0  0  0  0  0
  187.0280  177.8560  146.2240 C   0  0  0  0  0  0  0  0  0  0  0  0
  190.0520  176.5760  146.9820 C   0  0  0  0  0  2  0  0  0  0  0  0
  191.5600  176.6720  146.8960 C   0  0  0  0  0  2  0  0  0  0  0  0
  192.1760  175.4130  147.4740 C   0  0  0  0  0  2  0  0  0  0  0  0
  193.1010  175.7870  148.6150 C   0  0  0  0  0  1  0  0  0  0  0  0
  189.4380  177.2170  139.8340 C   0  0  0  0  0  2  0  0  0  0  0  0
  188.5790  177.3550  138.6660 N   0  0  0  0  0  2  0  0  0  0  0  0
  188.1700  179.1640  137.4620 O   0  0  0  0  0  1  0  0  0  0  0  0
  189.1610  178.3130  137.8230 N   0  0  0  0  0  2  0  0  0  0  0  0
  1  2  1  0  0  0  0
  2 17  1  0  0  0  0
  3  7  1  1  0  0  0
  3  1  1  0  0  0  0
  4 29  1  6  0  0  0
  4  3  1  0  0  0  0
  4  6  1  0  0  0  0
  6  5  1  0  0  0  0
  6  2  1  0  0  0  0
  7  8  1  0  0  0  0
  8 13  2  0  0  0  0
  9 15  1  0  0  0  0
 10 14  1  0  0  0  0
 10  7  2  0  0  0  0
 12 11  1  0  0  0  0
 12 13  1  0  0  0  0
 14 12  2  0  0  0  0
 15 11  2  0  0  0  0
 16  9  2  0  0  0  0
 16 14  1  0  0  0  0
 17 18  1  6  0  0  0
 17 19  1  0  0  0  0
 19 20  1  0  0  0  0
 20 22  1  0  0  0  0
 20 25  1  0  0  0  0
 23 24  2  0  0  0  0
 24 22  1  0  0  0  0
 24 21  1  0  0  0  0
 26 25  1  0  0  0  0
 26 27  1  0  0  0  0
 27 28  1  0  0  0  0
 30 29  1  0  0  0  0
 31 32  1  0  0  0  0
 32 30  1  0  0  0  0
M  END
>  <MODEL>
6

>  <REMARK>
 VINA RESULT:      -7.4      2.898      7.261
  Name = 
  11 active torsions:
  status: ('A' for Active; 'I' for Inactive)
    1  A    between atoms: C_2  and  C_5
    2  A    between atoms: C_3  and  C_8
    3  A    between atoms: C_3  and  N_20
    4  A    between atoms: N_4  and  C_24
    5  A    between atoms: C_8  and  C_22
    6  A    between atoms: N_13  and  C_18
    7  A    between atoms: N_13  and  N_29
    8  A    between atoms: C_14  and  C_18
    9  A    between atoms: N_15  and  N_20
   10  A    between atoms: C_16  and  N_20
   11  A    between atoms: C_16  and  C_24
                            x       y       z     vdW  Elec       q    Type
                         _______ _______ _______ _____ _____    ______ ____

>  <TORSDO>
F 11

$$$$
=
 OpenBabel10272413173D

 32 34  0  0  1  0  0  0  0  0999 V2000
  189.7670  176.4880  141.6550 N   0  0  0  0  0  2  0  0  0  0  0  0
  190.8190  177.4080  141.4510 N   0  0  0  0  0  0  0  0  0  0  0  0
  189.7790  176.1170  143.0560 C   0  0  1  0  0  3  0  0  0  0  0  0
  191.0880  176.5970  143.5950 C   0  0  2  0  0  3  0  0  0  0  0  0
  192.1470  178.5510  142.9430 C   0  0  0  0  0  1  0  0  0  0  0  0
  191.7720  177.2230  142.4810 N   0  0  0  0  0  0  0  0  0  0  0  0
  188.6470  176.7680  143.7830 C   0  0  0  0  0  0  0  0  0  0  0  0
  187.4750  177.0810  143.0820 C   0  0  0  0  0  3  0  0  0  0  0  0
  186.7720  178.4500  147.8670 C   0  0  0  0  0  3  0  0  0  0  0  0
  188.7380  177.0310  145.1200 N   0  0  0  0  0  0  0  0  0  0  0  0
  185.4620  178.5300  145.8270 C   0  0  0  0  0  3  0  0  0  0  0  0
  186.5160  177.9380  145.1260 C   0  0  0  0  0  0  0  0  0  0  0  0
  186.4060  177.6710  143.7600 C   0  0  0  0  0  3  0  0  0  0  0  0
  187.7110  177.6040  145.8020 C   0  0  0  0  0  0  0  0  0  0  0  0
  185.5910  178.7860  147.1960 C   0  0  0  0  0  3  0  0  0  0  0  0
  187.8310  177.8590  147.1720 C   0  0  0  0  0  3  0  0  0  0  0  0
  191.4320  177.0640  140.1570 C   0  0  2  0  0  3  0  0  0  0  0  0
  192.9540  177.1850  140.1590 C   0  0  0  0  0  1  0  0  0  0  0  0
  190.7840  177.8590  138.9950 C   0  0  0  0  0  2  0  0  0  0  0  0
  189.7680  177.1590  138.1850 N   0  0  0  0  0  0  0  0  0  0  0  0
  191.5010  174.7490  135.7800 C   0  0  0  0  0  1  0  0  0  0  0  0
  190.3940  176.6260  137.0470 N   0  0  0  0  0  2  0  0  0  0  0  0
  190.5750  174.4810  137.9530 O   0  0  0  0  0  0  0  0  0  0  0  0
  190.8030  175.2590  136.9880 C   0  0  0  0  0  0  0  0  0  0  0  0
  188.6940  178.0500  137.7540 C   0  0  0  0  0  2  0  0  0  0  0  0
  187.4120  177.6860  138.4730 C   0  0  0  0  0  2  0  0  0  0  0  0
  186.2280  178.0420  137.5970 C   0  0  0  0  0  2  0  0  0  0  0  0
  185.0450  178.4000  138.4760 C   0  0  0  0  0  1  0  0  0  0  0  0
  191.9090  175.4260  144.1220 C   0  0  0  0  0  2  0  0  0  0  0  0
  191.8180  175.3570  145.5740 N   0  0  0  0  0  2  0  0  0  0  0  0
  192.3170  176.5370  147.3760 O   0  0  0  0  0  1  0  0  0  0  0  0
  191.9730  176.6580  146.0720 N   0  0  0  0  0  2  0  0  0  0  0  0
  1  3  1  0  0  0  0
  2  1  1  0  0  0  0
  2  6  1  0  0  0  0
  3  4  1  0  0  0  0
  3  7  1  1  0  0  0
  4 29  1  6  0  0  0
  6  5  1  0  0  0  0
  6  4  1  0  0  0  0
  7 10  1  0  0  0  0
  8 13  1  0  0  0  0
  8  7  2  0  0  0  0
 10 14  2  0  0  0  0
 11 15  2  0  0  0  0
 12 14  1  0  0  0  0
 12 11  1  0  0  0  0
 13 12  2  0  0  0  0
 14 16  1  0  0  0  0
 15  9  1  0  0  0  0
 16  9  2  0  0  0  0
 17 18  1  1  0  0  0
 17  2  1  0  0  0  0
 19 17  1  0  0  0  0
 20 19  1  0  0  0  0
 21 24  1  0  0  0  0
 22 20  1  0  0  0  0
 24 22  1  0  0  0  0
 24 23  2  0  0  0  0
 25 20  1  0  0  0  0
 25 26  1  0  0  0  0
 27 26  1  0  0  0  0
 27 28  1  0  0  0  0
 29 30  1  0  0  0  0
 30 32  1  0  0  0  0
 32 31  1  0  0  0  0
M  END
>  <MODEL>
7

>  <REMARK>
 VINA RESULT:      -7.1      1.275      2.000
  Name = 
  11 active torsions:
  status: ('A' for Active; 'I' for Inactive)
    1  A    between atoms: C_2  and  C_5
    2  A    between atoms: C_3  and  C_8
    3  A    between atoms: C_3  and  N_20
    4  A    between atoms: N_4  and  C_24
    5  A    between atoms: C_8  and  C_22
    6  A    between atoms: N_13  and  C_18
    7  A    between atoms: N_13  and  N_29
    8  A    between atoms: C_14  and  C_18
    9  A    between atoms: N_15  and  N_20
   10  A    between atoms: C_16  and  N_20
   11  A    between atoms: C_16  and  C_24
                            x       y       z     vdW  Elec       q    Type
                         _______ _______ _______ _____ _____    ______ ____

>  <TORSDO>
F 11

$$$$
=
 OpenBabel10272413173D

 32 34  0  0  1  0  0  0  0  0999 V2000
  188.3820  176.3500  143.0890 N   0  0  0  0  0  2  0  0  0  0  0  0
  189.3530  177.2500  142.5990 N   0  0  0  0  0  0  0  0  0  0  0  0
  187.9600  176.8310  144.3900 C   0  0  1  0  0  3  0  0  0  0  0  0
  188.9650  177.8630  144.7890 C   0  0  2  0  0  3  0  0  0  0  0  0
  189.9970  179.3350  143.3280 C   0  0  0  0  0  1  0  0  0  0  0  0
  189.9210  177.9300  143.7020 N   0  0  0  0  0  0  0  0  0  0  0  0
  186.5960  177.4370  144.3100 C   0  0  0  0  0  0  0  0  0  0  0  0
  186.0160  177.9680  145.4690 C   0  0  0  0  0  3  0  0  0  0  0  0
  182.7760  178.7020  141.6960 C   0  0  0  0  0  3  0  0  0  0  0  0
  185.9310  177.5010  143.1180 N   0  0  0  0  0  0  0  0  0  0  0  0
  182.8130  179.1860  144.0730 C   0  0  0  0  0  3  0  0  0  0  0  0
  184.0810  178.6070  144.1720 C   0  0  0  0  0  0  0  0  0  0  0  0
  184.7500  178.5540  145.3970 C   0  0  0  0  0  3  0  0  0  0  0  0
  184.7000  178.0670  143.0220 C   0  0  0  0  0  0  0  0  0  0  0  0
  182.1610  179.2330  142.8360 C   0  0  0  0  0  3  0  0  0  0  0  0
  184.0440  178.1210  141.7880 C   0  0  0  0  0  3  0  0  0  0  0  0
  190.3910  176.4330  141.9470 C   0  0  2  0  0  3  0  0  0  0  0  0
  191.6240  176.2150  142.8210 C   0  0  0  0  0  1  0  0  0  0  0  0
  190.7570  176.9920  140.5490 C   0  0  0  0  0  2  0  0  0  0  0  0
  190.3810  176.1760  139.3780 N   0  0  0  0  0  0  0  0  0  0  0  0
  192.8890  175.4950  136.5770 C   0  0  0  0  0  1  0  0  0  0  0  0
  191.3500  176.3570  138.3790 N   0  0  0  0  0  2  0  0  0  0  0  0
  191.3630  174.1060  137.7570 O   0  0  0  0  0  0  0  0  0  0  0  0
  191.8310  175.2640  137.5940 C   0  0  0  0  0  0  0  0  0  0  0  0
  189.0770  176.5510  138.8380 C   0  0  0  0  0  2  0  0  0  0  0  0
  188.8910  178.0480  138.9530 C   0  0  0  0  0  2  0  0  0  0  0  0
  187.4190  178.3580  139.1430 C   0  0  0  0  0  2  0  0  0  0  0  0
  186.6920  178.1620  137.8270 C   0  0  0  0  0  1  0  0  0  0  0  0
  189.6670  177.4540  146.0780 C   0  0  0  0  0  2  0  0  0  0  0  0
  189.1760  178.2470  147.1970 N   0  0  0  0  0  2  0  0  0  0  0  0
  188.2140  177.9320  149.1630 O   0  0  0  0  0  1  0  0  0  0  0  0
  188.2390  177.4670  147.8900 N   0  0  0  0  0  2  0  0  0  0  0  0
  1  3  1  0  0  0  0
  2  1  1  0  0  0  0
  2  6  1  0  0  0  0
  3  7  1  6  0  0  0
  3  4  1  0  0  0  0
  4 29  1  1  0  0  0
  5  6  1  0  0  0  0
  6  4  1  0  0  0  0
  7  8  1  0  0  0  0
  9 16  2  0  0  0  0
  9 15  1  0  0  0  0
 10  7  2  0  0  0  0
 11 12  1  0  0  0  0
 12 13  1  0  0  0  0
 13  8  2  0  0  0  0
 14 10  1  0  0  0  0
 14 12  2  0  0  0  0
 15 11  2  0  0  0  0
 16 14  1  0  0  0  0
 17  2  1  0  0  0  0
 17 18  1  1  0  0  0
 19 17  1  0  0  0  0
 20 19  1  0  0  0  0
 21 24  1  0  0  0  0
 22 20  1  0  0  0  0
 24 23  2  0  0  0  0
 24 22  1  0  0  0  0
 25 26  1  0  0  0  0
 25 20  1  0  0  0  0
 26 27  1  0  0  0  0
 28 27  1  0  0  0  0
 29 30  1  0  0  0  0
 30 32  1  0  0  0  0
 32 31  1  0  0  0  0
M  END
>  <MODEL>
8

>  <REMARK>
 VINA RESULT:      -7.0      1.709      2.103
  Name = 
  11 active torsions:
  status: ('A' for Active; 'I' for Inactive)
    1  A    between atoms: C_2  and  C_5
    2  A    between atoms: C_3  and  C_8
    3  A    between atoms: C_3  and  N_20
    4  A    between atoms: N_4  and  C_24
    5  A    between atoms: C_8  and  C_22
    6  A    between atoms: N_13  and  C_18
    7  A    between atoms: N_13  and  N_29
    8  A    between atoms: C_14  and  C_18
    9  A    between atoms: N_15  and  N_20
   10  A    between atoms: C_16  and  N_20
   11  A    between atoms: C_16  and  C_24
                            x       y       z     vdW  Elec       q    Type
                         _______ _______ _______ _____ _____    ______ ____

>  <TORSDO>
F 11

$$$$
=
 OpenBabel10272413173D

 32 34  0  0  1  0  0  0  0  0999 V2000
  191.2170  176.8390  138.9620 N   0  0  0  0  0  2  0  0  0  0  0  0
  190.7170  175.8650  138.0700 N   0  0  0  0  0  0  0  0  0  0  0  0
  190.1320  177.7510  139.2640 C   0  0  1  0  0  3  0  0  0  0  0  0
  189.0680  177.4680  138.2530 C   0  0  2  0  0  3  0  0  0  0  0  0
  188.5680  175.3670  137.4140 C   0  0  0  0  0  1  0  0  0  0  0  0
  189.5870  176.4070  137.4130 N   0  0  0  0  0  0  0  0  0  0  0  0
  189.6130  177.5120  140.6450 C   0  0  0  0  0  0  0  0  0  0  0  0
  190.4380  176.8800  141.5850 C   0  0  0  0  0  3  0  0  0  0  0  0
  186.1090  177.9810  143.8900 C   0  0  0  0  0  3  0  0  0  0  0  0
  188.3620  177.9300  141.0010 N   0  0  0  0  0  0  0  0  0  0  0  0
  188.1890  176.9030  144.5220 C   0  0  0  0  0  3  0  0  0  0  0  0
  188.6840  177.1010  143.2300 C   0  0  0  0  0  0  0  0  0  0  0  0
  189.9670  176.6730  142.8830 C   0  0  0  0  0  3  0  0  0  0  0  0
  187.8820  177.7410  142.2580 C   0  0  0  0  0  0  0  0  0  0  0  0
  186.9020  177.3430  144.8500 C   0  0  0  0  0  3  0  0  0  0  0  0
  186.5980  178.1810  142.5950 C   0  0  0  0  0  3  0  0  0  0  0  0
  191.7790  175.6170  137.0810 C   0  0  2  0  0  3  0  0  0  0  0  0
  191.4510  176.1630  135.6930 C   0  0  0  0  0  1  0  0  0  0  0  0
  192.1780  174.1200  137.0410 C   0  0  0  0  0  2  0  0  0  0  0  0
  193.5980  173.8080  136.7880 N   0  0  0  0  0  0  0  0  0  0  0  0
  196.0410  174.6600  139.6000 C   0  0  0  0  0  1  0  0  0  0  0  0
  194.3820  174.5250  137.7060 N   0  0  0  0  0  2  0  0  0  0  0  0
  195.3860  172.6100  138.5900 O   0  0  0  0  0  0  0  0  0  0  0  0
  195.2630  173.8640  138.6160 C   0  0  0  0  0  0  0  0  0  0  0  0
  194.0130  174.1720  135.4350 C   0  0  0  0  0  2  0  0  0  0  0  0
  195.1120  175.2100  135.5030 C   0  0  0  0  0  2  0  0  0  0  0  0
  194.8110  176.3240  134.5200 C   0  0  0  0  0  2  0  0  0  0  0  0
  195.7040  177.5120  134.8210 C   0  0  0  0  0  1  0  0  0  0  0  0
  188.7860  178.7090  137.4140 C   0  0  0  0  0  2  0  0  0  0  0  0
  187.3540  178.8560  137.1930 N   0  0  0  0  0  2  0  0  0  0  0  0
  185.5430  179.1230  138.4350 O   0  0  0  0  0  1  0  0  0  0  0  0
  186.6990  178.4200  138.3530 N   0  0  0  0  0  2  0  0  0  0  0  0
  1  3  1  0  0  0  0
  2  1  1  0  0  0  0
  3  7  1  1  0  0  0
  4 29  1  6  0  0  0
  4  3  1  0  0  0  0
  6  5  1  0  0  0  0
  6  2  1  0  0  0  0
  6  4  1  0  0  0  0
  7 10  2  0  0  0  0
  7  8  1  0  0  0  0
  8 13  2  0  0  0  0
  9 15  1  0  0  0  0
 10 14  1  0  0  0  0
 11 15  2  0  0  0  0
 12 11  1  0  0  0  0
 13 12  1  0  0  0  0
 14 16  1  0  0  0  0
 14 12  2  0  0  0  0
 16  9  2  0  0  0  0
 17 18  1  6  0  0  0
 17  2  1  0  0  0  0
 19 17  1  0  0  0  0
 20 19  1  0  0  0  0
 20 22  1  0  0  0  0
 22 24  1  0  0  0  0
 23 24  2  0  0  0  0
 24 21  1  0  0  0  0
 25 26  1  0  0  0  0
 25 20  1  0  0  0  0
 27 28  1  0  0  0  0
 27 26  1  0  0  0  0
 30 29  1  0  0  0  0
 30 32  1  0  0  0  0
 32 31  1  0  0  0  0
M  END
>  <MODEL>
9

>  <REMARK>
 VINA RESULT:      -6.8      3.202      6.024
  Name = 
  11 active torsions:
  status: ('A' for Active; 'I' for Inactive)
    1  A    between atoms: C_2  and  C_5
    2  A    between atoms: C_3  and  C_8
    3  A    between atoms: C_3  and  N_20
    4  A    between atoms: N_4  and  C_24
    5  A    between atoms: C_8  and  C_22
    6  A    between atoms: N_13  and  C_18
    7  A    between atoms: N_13  and  N_29
    8  A    between atoms: C_14  and  C_18
    9  A    between atoms: N_15  and  N_20
   10  A    between atoms: C_16  and  N_20
   11  A    between atoms: C_16  and  C_24
                            x       y       z     vdW  Elec       q    Type
                         _______ _______ _______ _____ _____    ______ ____

>  <TORSDO>
F 11

$$$$
