=
 OpenBabel10272401093D

 27 31  0  0  0  0  0  0  0  0999 V2000
  187.2700  178.1990  141.7540 C   0  0  0  0  0  0  0  0  0  0  0  0
  187.5370  177.7690  144.1910 C   0  0  0  0  0  0  0  0  0  0  0  0
  189.4170  177.5310  142.6690 O   0  0  0  0  0  0  0  0  0  0  0  0
  189.9710  176.7250  147.4330 C   0  0  0  0  0  3  0  0  0  0  0  0
  192.0970  176.0760  148.2920 F   0  0  0  0  0  0  0  0  0  0  0  0
  187.0440  177.7220  145.5050 C   0  0  0  0  0  3  0  0  0  0  0  0
  191.0700  176.8040  144.8560 C   0  0  0  0  0  3  0  0  0  0  0  0
  191.8680  176.4540  145.9490 C   0  0  0  0  0  3  0  0  0  0  0  0
  189.7170  177.1150  145.0460 C   0  0  0  0  0  0  0  0  0  0  0  0
  186.6920  178.1440  143.0790 N   0  0  0  0  0  0  0  0  0  0  0  0
  191.3200  176.4150  147.2360 C   0  0  0  0  0  0  0  0  0  0  0  0
  189.1660  177.0750  146.3450 C   0  0  0  0  0  0  0  0  0  0  0  0
  186.5060  178.5340  140.6260 C   0  0  0  0  0  3  0  0  0  0  0  0
  188.8940  177.4690  143.9670 C   0  0  0  0  0  0  0  0  0  0  0  0
  189.1920  177.9280  140.2990 C   0  0  0  0  0  3  0  0  0  0  0  0
  187.8570  177.3790  146.5390 N   0  0  0  0  0  0  0  0  0  0  0  0
  188.3920  178.2690  139.2070 C   0  0  0  0  0  0  0  0  0  0  0  0
  187.0770  178.5650  139.3920 N   0  0  0  0  0  0  0  0  0  0  0  0
  188.6280  177.8870  141.5740 C   0  0  0  0  0  0  0  0  0  0  0  0
  182.5910  179.0580  143.6840 C   0  0  0  0  0  3  0  0  0  0  0  0
  185.3010  178.4550  143.2840 C   0  0  0  0  0  0  0  0  0  0  0  0
  184.3630  178.2070  142.2710 C   0  0  0  0  0  3  0  0  0  0  0  0
  183.0130  178.5080  142.4700 C   0  0  0  0  0  3  0  0  0  0  0  0
  183.5200  179.3060  144.6990 C   0  0  0  0  0  3  0  0  0  0  0  0
  184.8710  179.0050  144.5010 C   0  0  0  0  0  3  0  0  0  0  0  0
  188.9850  178.3400  137.8450 C   0  0  0  0  0  2  0  0  0  0  0  0
  188.9240  179.6510  137.3750 O   0  0  0  0  0  1  0  0  0  0  0  0
  1 10  1  0  0  0  0
  2  6  1  0  0  0  0
  3 14  1  0  0  0  0
  6 16  2  0  0  0  0
  7  9  2  0  0  0  0
  7  8  1  0  0  0  0
  8 11  2  0  0  0  0
  9 12  1  0  0  0  0
 10 21  1  0  0  0  0
 10  2  1  0  0  0  0
 11  4  1  0  0  0  0
 11  5  1  0  0  0  0
 12 16  1  0  0  0  0
 12  4  2  0  0  0  0
 13  1  2  0  0  0  0
 14  2  2  0  0  0  0
 14  9  1  0  0  0  0
 15 19  2  0  0  0  0
 17 18  2  0  0  0  0
 17 15  1  0  0  0  0
 18 13  1  0  0  0  0
 19  1  1  0  0  0  0
 19  3  1  0  0  0  0
 20 24  1  0  0  0  0
 21 25  1  0  0  0  0
 22 23  1  0  0  0  0
 22 21  2  0  0  0  0
 23 20  2  0  0  0  0
 25 24  2  0  0  0  0
 26 17  1  0  0  0  0
 27 26  1  0  0  0  0
M  END
>  <MODEL>
1

>  <REMARK>
 VINA RESULT:     -11.2      0.000      0.000
  Name = 
  2 active torsions:
  status: ('A' for Active; 'I' for Inactive)
    1  A    between atoms: C_9  and  N_15
    2  A    between atoms: C_10  and  CA_22
                            x       y       z     vdW  Elec       q    Type
                         _______ _______ _______ _____ _____    ______ ____

>  <TORSDO>
F 2

$$$$
=
 OpenBabel10272401093D

 27 31  0  0  0  0  0  0  0  0999 V2000
  189.3190  177.1770  145.3100 C   0  0  0  0  0  0  0  0  0  0  0  0
  188.3740  177.7350  143.0750 C   0  0  0  0  0  0  0  0  0  0  0  0
  190.6470  176.9010  143.2960 O   0  0  0  0  0  0  0  0  0  0  0  0
  188.8080  177.9470  138.9170 C   0  0  0  0  0  3  0  0  0  0  0  0
  190.1430  177.6580  136.9650 F   0  0  0  0  0  0  0  0  0  0  0  0
  187.3300  178.1630  142.2410 C   0  0  0  0  0  3  0  0  0  0  0  0
  190.9570  177.0600  140.4820 C   0  0  0  0  0  3  0  0  0  0  0  0
  191.0860  177.1390  139.0920 C   0  0  0  0  0  3  0  0  0  0  0  0
  189.7520  177.4250  141.0970 C   0  0  0  0  0  0  0  0  0  0  0  0
  188.2110  177.6520  144.5100 N   0  0  0  0  0  0  0  0  0  0  0  0
  190.0130  177.5830  138.3110 C   0  0  0  0  0  0  0  0  0  0  0  0
  188.6710  177.8710  140.3060 C   0  0  0  0  0  0  0  0  0  0  0  0
  189.2400  177.0890  146.7080 C   0  0  0  0  0  3  0  0  0  0  0  0
  189.5960  177.3540  142.4880 C   0  0  0  0  0  0  0  0  0  0  0  0
  191.6000  176.3610  145.4460 C   0  0  0  0  0  3  0  0  0  0  0  0
  187.4980  178.2230  140.8940 N   0  0  0  0  0  0  0  0  0  0  0  0
  191.4720  176.2900  146.8350 C   0  0  0  0  0  0  0  0  0  0  0  0
  190.3040  176.6500  147.4320 N   0  0  0  0  0  0  0  0  0  0  0  0
  190.5220  176.8110  144.6840 C   0  0  0  0  0  0  0  0  0  0  0  0
  184.5560  178.7880  146.3460 C   0  0  0  0  0  3  0  0  0  0  0  0
  186.9710  178.0370  145.1330 C   0  0  0  0  0  0  0  0  0  0  0  0
  186.9440  178.4140  146.4830 C   0  0  0  0  0  3  0  0  0  0  0  0
  185.7410  178.7880  147.0870 C   0  0  0  0  0  3  0  0  0  0  0  0
  184.5750  178.4130  144.9990 C   0  0  0  0  0  3  0  0  0  0  0  0
  185.7790  178.0390  144.3930 C   0  0  0  0  0  3  0  0  0  0  0  0
  192.6040  175.7880  147.6600 C   0  0  0  0  0  2  0  0  0  0  0  0
  192.8280  176.6570  148.7270 O   0  0  0  0  0  1  0  0  0  0  0  0
  1 13  1  0  0  0  0
  2 10  1  0  0  0  0
  3 19  1  0  0  0  0
  4 12  1  0  0  0  0
  5 11  1  0  0  0  0
  6  2  2  0  0  0  0
  7  9  1  0  0  0  0
  8  7  2  0  0  0  0
  9 14  2  0  0  0  0
 10 21  1  0  0  0  0
 10  1  1  0  0  0  0
 11  4  2  0  0  0  0
 11  8  1  0  0  0  0
 12 16  2  0  0  0  0
 12  9  1  0  0  0  0
 13 18  2  0  0  0  0
 14  2  1  0  0  0  0
 14  3  1  0  0  0  0
 15 17  2  0  0  0  0
 16  6  1  0  0  0  0
 17 18  1  0  0  0  0
 17 26  1  0  0  0  0
 19  1  2  0  0  0  0
 19 15  1  0  0  0  0
 20 23  1  0  0  0  0
 21 22  1  0  0  0  0
 22 23  2  0  0  0  0
 24 20  2  0  0  0  0
 25 24  1  0  0  0  0
 25 21  2  0  0  0  0
 26 27  1  0  0  0  0
M  END
>  <MODEL>
2

>  <REMARK>
 VINA RESULT:     -10.3      2.939      6.312
  Name = 
  2 active torsions:
  status: ('A' for Active; 'I' for Inactive)
    1  A    between atoms: C_9  and  N_15
    2  A    between atoms: C_10  and  CA_22
                            x       y       z     vdW  Elec       q    Type
                         _______ _______ _______ _____ _____    ______ ____

>  <TORSDO>
F 2

$$$$
=
 OpenBabel10272401093D

 27 31  0  0  0  0  0  0  0  0999 V2000
  190.0840  177.0730  144.2910 C   0  0  0  0  0  0  0  0  0  0  0  0
  188.0640  177.7540  143.0060 C   0  0  0  0  0  0  0  0  0  0  0  0
  188.0030  177.5900  145.4300 O   0  0  0  0  0  0  0  0  0  0  0  0
  184.0550  178.9600  142.9420 C   0  0  0  0  0  3  0  0  0  0  0  0
  182.0340  179.4630  144.0990 F   0  0  0  0  0  0  0  0  0  0  0  0
  187.4000  178.0640  141.8080 C   0  0  0  0  0  3  0  0  0  0  0  0
  185.2820  178.3870  145.3960 C   0  0  0  0  0  3  0  0  0  0  0  0
  183.9430  178.7880  145.3570 C   0  0  0  0  0  3  0  0  0  0  0  0
  186.0150  178.2690  144.2080 C   0  0  0  0  0  0  0  0  0  0  0  0
  189.4530  177.3510  143.0190 N   0  0  0  0  0  0  0  0  0  0  0  0
  183.3310  179.0740  144.1320 C   0  0  0  0  0  0  0  0  0  0  0  0
  185.3940  178.5590  142.9730 C   0  0  0  0  0  0  0  0  0  0  0  0
  191.4220  176.6580  144.3780 C   0  0  0  0  0  3  0  0  0  0  0  0
  187.3580  177.8690  144.2190 C   0  0  0  0  0  0  0  0  0  0  0  0
  189.9390  176.9220  146.7070 C   0  0  0  0  0  3  0  0  0  0  0  0
  186.0980  178.4520  141.8160 N   0  0  0  0  0  0  0  0  0  0  0  0
  191.2740  176.5130  146.7440 C   0  0  0  0  0  0  0  0  0  0  0  0
  191.9820  176.3940  145.5890 N   0  0  0  0  0  0  0  0  0  0  0  0
  189.3420  177.1960  145.4770 C   0  0  0  0  0  0  0  0  0  0  0  0
  191.6400  176.9820  139.4000 C   0  0  0  0  0  3  0  0  0  0  0  0
  190.1940  177.2260  141.7910 C   0  0  0  0  0  0  0  0  0  0  0  0
  191.5230  177.6700  141.7180 C   0  0  0  0  0  3  0  0  0  0  0  0
  192.2430  177.5480  140.5270 C   0  0  0  0  0  3  0  0  0  0  0  0
  190.3170  176.5370  139.4650 C   0  0  0  0  0  3  0  0  0  0  0  0
  189.5950  176.6580  140.6570 C   0  0  0  0  0  3  0  0  0  0  0  0
  191.9310  176.2400  148.0500 C   0  0  0  0  0  2  0  0  0  0  0  0
  193.1010  175.5110  147.8440 O   0  0  0  0  0  1  0  0  0  0  0  0
  1 13  2  0  0  0  0
  1 19  1  0  0  0  0
  2 10  1  0  0  0  0
  2 14  1  0  0  0  0
  3 19  1  0  0  0  0
  4 12  1  0  0  0  0
  4 11  2  0  0  0  0
  5 11  1  0  0  0  0
  6 16  1  0  0  0  0
  6  2  2  0  0  0  0
  8  7  2  0  0  0  0
  9 14  2  0  0  0  0
  9  7  1  0  0  0  0
 10  1  1  0  0  0  0
 11  8  1  0  0  0  0
 12  9  1  0  0  0  0
 13 18  1  0  0  0  0
 14  3  1  0  0  0  0
 15 17  1  0  0  0  0
 16 12  2  0  0  0  0
 17 26  1  0  0  0  0
 18 17  2  0  0  0  0
 19 15  2  0  0  0  0
 20 24  2  0  0  0  0
 20 23  1  0  0  0  0
 21 10  1  0  0  0  0
 22 21  1  0  0  0  0
 23 22  2  0  0  0  0
 24 25  1  0  0  0  0
 25 21  2  0  0  0  0
 27 26  1  0  0  0  0
M  END
>  <MODEL>
3

>  <REMARK>
 VINA RESULT:     -10.3      3.136      7.183
  Name = 
  2 active torsions:
  status: ('A' for Active; 'I' for Inactive)
    1  A    between atoms: C_9  and  N_15
    2  A    between atoms: C_10  and  CA_22
                            x       y       z     vdW  Elec       q    Type
                         _______ _______ _______ _____ _____    ______ ____

>  <TORSDO>
F 2

$$$$
=
 OpenBabel10272401093D

 27 31  0  0  0  0  0  0  0  0999 V2000
  188.9800  177.2810  144.8270 C   0  0  0  0  0  0  0  0  0  0  0  0
  188.0110  177.8830  142.6150 C   0  0  0  0  0  0  0  0  0  0  0  0
  190.2920  177.0640  142.7950 O   0  0  0  0  0  0  0  0  0  0  0  0
  188.4050  178.1980  138.4590 C   0  0  0  0  0  3  0  0  0  0  0  0
  189.7250  177.9670  136.4890 F   0  0  0  0  0  0  0  0  0  0  0  0
  186.9550  178.3210  141.8000 C   0  0  0  0  0  3  0  0  0  0  0  0
  190.5760  177.2930  139.9830 C   0  0  0  0  0  3  0  0  0  0  0  0
  190.6920  177.4070  138.5950 C   0  0  0  0  0  3  0  0  0  0  0  0
  189.3740  177.6330  140.6180 C   0  0  0  0  0  0  0  0  0  0  0  0
  187.8610  177.7650  144.0480 N   0  0  0  0  0  0  0  0  0  0  0  0
  189.6080  177.8590  137.8340 C   0  0  0  0  0  0  0  0  0  0  0  0
  188.2820  178.0880  139.8470 C   0  0  0  0  0  0  0  0  0  0  0  0
  188.9140  177.1590  146.2230 C   0  0  0  0  0  3  0  0  0  0  0  0
  189.2310  177.5270  142.0080 C   0  0  0  0  0  0  0  0  0  0  0  0
  191.2690  176.4820  144.9240 C   0  0  0  0  0  3  0  0  0  0  0  0
  187.1110  178.4150  140.4530 N   0  0  0  0  0  0  0  0  0  0  0  0
  191.1540  176.3760  146.3120 C   0  0  0  0  0  0  0  0  0  0  0  0
  189.9880  176.7120  146.9270 N   0  0  0  0  0  0  0  0  0  0  0  0
  190.1810  176.9410  144.1820 C   0  0  0  0  0  0  0  0  0  0  0  0
  184.2110  178.8190  145.9410 C   0  0  0  0  0  3  0  0  0  0  0  0
  186.6230  178.1230  144.6910 C   0  0  0  0  0  0  0  0  0  0  0  0
  185.4680  178.3480  143.9270 C   0  0  0  0  0  3  0  0  0  0  0  0
  184.2670  178.6940  144.5500 C   0  0  0  0  0  3  0  0  0  0  0  0
  185.3570  178.5960  146.7090 C   0  0  0  0  0  3  0  0  0  0  0  0
  186.5600  178.2480  146.0870 C   0  0  0  0  0  3  0  0  0  0  0  0
  192.2970  175.8660  147.1150 C   0  0  0  0  0  2  0  0  0  0  0  0
  192.4570  176.6500  148.2560 O   0  0  0  0  0  1  0  0  0  0  0  0
  1 13  1  0  0  0  0
  2 10  1  0  0  0  0
  3 19  1  0  0  0  0
  4 12  1  0  0  0  0
  5 11  1  0  0  0  0
  6  2  2  0  0  0  0
  7  9  1  0  0  0  0
  8  7  2  0  0  0  0
  9 14  2  0  0  0  0
 10 21  1  0  0  0  0
 10  1  1  0  0  0  0
 11  4  2  0  0  0  0
 11  8  1  0  0  0  0
 12 16  2  0  0  0  0
 12  9  1  0  0  0  0
 13 18  2  0  0  0  0
 14  2  1  0  0  0  0
 14  3  1  0  0  0  0
 15 17  2  0  0  0  0
 16  6  1  0  0  0  0
 17 18  1  0  0  0  0
 17 26  1  0  0  0  0
 19  1  2  0  0  0  0
 19 15  1  0  0  0  0
 20 24  1  0  0  0  0
 21 25  1  0  0  0  0
 22 23  1  0  0  0  0
 22 21  2  0  0  0  0
 23 20  2  0  0  0  0
 25 24  2  0  0  0  0
 26 27  1  0  0  0  0
M  END
>  <MODEL>
4

>  <REMARK>
 VINA RESULT:     -10.2      2.881      6.187
  Name = 
  2 active torsions:
  status: ('A' for Active; 'I' for Inactive)
    1  A    between atoms: C_9  and  N_15
    2  A    between atoms: C_10  and  CA_22
                            x       y       z     vdW  Elec       q    Type
                         _______ _______ _______ _____ _____    ______ ____

>  <TORSDO>
F 2

$$$$
=
 OpenBabel10272401093D

 27 31  0  0  0  0  0  0  0  0999 V2000
  187.9470  177.9480  140.6040 C   0  0  0  0  0  0  0  0  0  0  0  0
  189.2640  177.4540  142.6590 C   0  0  0  0  0  0  0  0  0  0  0  0
  186.9530  178.1920  142.8060 O   0  0  0  0  0  0  0  0  0  0  0  0
  189.4950  177.1940  146.8310 C   0  0  0  0  0  3  0  0  0  0  0  0
  188.4800  177.4420  148.9710 F   0  0  0  0  0  0  0  0  0  0  0  0
  190.4310  177.0280  143.3130 C   0  0  0  0  0  3  0  0  0  0  0  0
  187.1060  178.0380  145.6340 C   0  0  0  0  0  3  0  0  0  0  0  0
  187.2000  177.9490  147.0260 C   0  0  0  0  0  3  0  0  0  0  0  0
  188.2060  177.7070  144.8320 C   0  0  0  0  0  0  0  0  0  0  0  0
  189.1900  177.5280  141.2160 N   0  0  0  0  0  0  0  0  0  0  0  0
  188.3930  177.5280  147.6230 C   0  0  0  0  0  0  0  0  0  0  0  0
  189.4080  177.2820  145.4370 C   0  0  0  0  0  0  0  0  0  0  0  0
  187.8080  178.0620  139.2130 C   0  0  0  0  0  3  0  0  0  0  0  0
  188.1380  177.7880  143.4340 C   0  0  0  0  0  0  0  0  0  0  0  0
  185.6500  178.6920  140.8370 C   0  0  0  0  0  3  0  0  0  0  0  0
  190.4790  176.9540  144.6690 N   0  0  0  0  0  0  0  0  0  0  0  0
  185.5590  178.7880  139.4470 C   0  0  0  0  0  0  0  0  0  0  0  0
  186.6310  178.4720  138.6700 N   0  0  0  0  0  0  0  0  0  0  0  0
  186.8490  178.2760  141.4160 C   0  0  0  0  0  0  0  0  0  0  0  0
  192.5470  176.5380  138.8150 C   0  0  0  0  0  3  0  0  0  0  0  0
  190.3290  177.1920  140.4020 C   0  0  0  0  0  0  0  0  0  0  0  0
  190.1720  176.3920  139.2610 C   0  0  0  0  0  3  0  0  0  0  0  0
  191.2770  176.0670  138.4700 C   0  0  0  0  0  3  0  0  0  0  0  0
  192.7110  177.3370  139.9510 C   0  0  0  0  0  3  0  0  0  0  0  0
  191.6060  177.6630  140.7430 C   0  0  0  0  0  3  0  0  0  0  0  0
  184.2800  179.2060  138.8140 C   0  0  0  0  0  2  0  0  0  0  0  0
  184.1720  180.5960  138.8460 O   0  0  0  0  0  1  0  0  0  0  0  0
  1 10  1  0  0  0  0
  1 19  1  0  0  0  0
  2  6  2  0  0  0  0
  2 14  1  0  0  0  0
  3 14  1  0  0  0  0
  4 11  2  0  0  0  0
  6 16  1  0  0  0  0
  7  8  2  0  0  0  0
  8 11  1  0  0  0  0
  9 12  1  0  0  0  0
  9  7  1  0  0  0  0
 10  2  1  0  0  0  0
 11  5  1  0  0  0  0
 12  4  1  0  0  0  0
 13  1  2  0  0  0  0
 14  9  2  0  0  0  0
 15 19  2  0  0  0  0
 16 12  2  0  0  0  0
 17 15  1  0  0  0  0
 18 13  1  0  0  0  0
 18 17  2  0  0  0  0
 19  3  1  0  0  0  0
 20 24  1  0  0  0  0
 21 25  1  0  0  0  0
 21 10  1  0  0  0  0
 22 21  2  0  0  0  0
 23 20  2  0  0  0  0
 23 22  1  0  0  0  0
 24 25  2  0  0  0  0
 26 27  1  0  0  0  0
 26 17  1  0  0  0  0
M  END
>  <MODEL>
5

>  <REMARK>
 VINA RESULT:     -10.1      2.386      5.008
  Name = 
  2 active torsions:
  status: ('A' for Active; 'I' for Inactive)
    1  A    between atoms: C_9  and  N_15
    2  A    between atoms: C_10  and  CA_22
                            x       y       z     vdW  Elec       q    Type
                         _______ _______ _______ _____ _____    ______ ____

>  <TORSDO>
F 2

$$$$
=
 OpenBabel10272401093D

 27 31  0  0  0  0  0  0  0  0999 V2000
  187.0270  178.0830  141.9550 C   0  0  0  0  0  0  0  0  0  0  0  0
  189.3040  177.4370  142.7270 C   0  0  0  0  0  0  0  0  0  0  0  0
  187.5040  177.8040  144.3200 O   0  0  0  0  0  0  0  0  0  0  0  0
  191.9360  176.5050  145.8460 C   0  0  0  0  0  3  0  0  0  0  0  0
  192.3610  176.2370  148.1750 F   0  0  0  0  0  0  0  0  0  0  0  0
  190.6390  177.0770  142.4890 C   0  0  0  0  0  3  0  0  0  0  0  0
  189.2850  177.1930  146.4410 C   0  0  0  0  0  3  0  0  0  0  0  0
  190.1770  176.8810  147.4710 C   0  0  0  0  0  3  0  0  0  0  0  0
  189.7130  177.1630  145.1070 C   0  0  0  0  0  0  0  0  0  0  0  0
  188.3980  177.7450  141.6420 N   0  0  0  0  0  0  0  0  0  0  0  0
  191.5010  176.5380  147.1740 C   0  0  0  0  0  0  0  0  0  0  0  0
  191.0490  176.8160  144.8100 C   0  0  0  0  0  0  0  0  0  0  0  0
  186.0980  178.4120  140.9560 C   0  0  0  0  0  3  0  0  0  0  0  0
  188.8390  177.4700  144.0560 C   0  0  0  0  0  0  0  0  0  0  0  0
  185.2880  178.4420  143.6090 C   0  0  0  0  0  3  0  0  0  0  0  0
  191.4720  176.7800  143.5210 N   0  0  0  0  0  0  0  0  0  0  0  0
  184.4000  178.7600  142.5790 C   0  0  0  0  0  0  0  0  0  0  0  0
  184.8190  178.7360  141.2860 N   0  0  0  0  0  0  0  0  0  0  0  0
  186.6050  178.1080  143.2950 C   0  0  0  0  0  0  0  0  0  0  0  0
  189.7320  177.6630  137.6130 C   0  0  0  0  0  3  0  0  0  0  0  0
  188.8510  177.7180  140.2750 C   0  0  0  0  0  0  0  0  0  0  0  0
  189.3760  176.5380  139.7270 C   0  0  0  0  0  3  0  0  0  0  0  0
  189.8150  176.5110  138.4010 C   0  0  0  0  0  3  0  0  0  0  0  0
  189.2090  178.8420  138.1520 C   0  0  0  0  0  3  0  0  0  0  0  0
  188.7690  178.8700  139.4800 C   0  0  0  0  0  3  0  0  0  0  0  0
  182.9860  179.0940  142.8960 C   0  0  0  0  0  2  0  0  0  0  0  0
  182.7180  178.7880  144.2300 O   0  0  0  0  0  1  0  0  0  0  0  0
  1 19  1  0  0  0  0
  2 14  1  0  0  0  0
  4 11  2  0  0  0  0
  6  2  2  0  0  0  0
  6 16  1  0  0  0  0
  7  8  2  0  0  0  0
  9  7  1  0  0  0  0
 10  1  1  0  0  0  0
 10  2  1  0  0  0  0
 11  8  1  0  0  0  0
 11  5  1  0  0  0  0
 12  9  1  0  0  0  0
 12  4  1  0  0  0  0
 13 18  1  0  0  0  0
 13  1  2  0  0  0  0
 14  3  1  0  0  0  0
 14  9  2  0  0  0  0
 16 12  2  0  0  0  0
 17 26  1  0  0  0  0
 17 15  1  0  0  0  0
 18 17  2  0  0  0  0
 19 15  2  0  0  0  0
 19  3  1  0  0  0  0
 20 24  2  0  0  0  0
 20 23  1  0  0  0  0
 21 10  1  0  0  0  0
 22 21  1  0  0  0  0
 23 22  2  0  0  0  0
 24 25  1  0  0  0  0
 25 21  2  0  0  0  0
 26 27  1  0  0  0  0
M  END
>  <MODEL>
6

>  <REMARK>
 VINA RESULT:     -10.1      2.042      4.843
  Name = 
  2 active torsions:
  status: ('A' for Active; 'I' for Inactive)
    1  A    between atoms: C_9  and  N_15
    2  A    between atoms: C_10  and  CA_22
                            x       y       z     vdW  Elec       q    Type
                         _______ _______ _______ _____ _____    ______ ____

>  <TORSDO>
F 2

$$$$
=
 OpenBabel10272401093D

 27 31  0  0  0  0  0  0  0  0999 V2000
  189.3060  177.3030  142.8240 C   0  0  0  0  0  0  0  0  0  0  0  0
  187.3650  177.8070  144.2990 C   0  0  0  0  0  0  0  0  0  0  0  0
  187.1360  177.8460  141.8800 O   0  0  0  0  0  0  0  0  0  0  0  0
  183.3210  178.7960  144.7430 C   0  0  0  0  0  3  0  0  0  0  0  0
  181.2080  179.3200  143.7760 F   0  0  0  0  0  0  0  0  0  0  0  0
  186.7680  177.9420  145.5630 C   0  0  0  0  0  3  0  0  0  0  0  0
  184.4010  178.5350  142.1700 C   0  0  0  0  0  3  0  0  0  0  0  0
  183.0530  178.8680  142.3360 C   0  0  0  0  0  3  0  0  0  0  0  0
  185.2170  178.3320  143.2900 C   0  0  0  0  0  0  0  0  0  0  0  0
  188.7600  177.4530  144.1560 N   0  0  0  0  0  0  0  0  0  0  0  0
  182.5140  178.9980  143.6200 C   0  0  0  0  0  0  0  0  0  0  0  0
  184.6710  178.4640  144.5860 C   0  0  0  0  0  0  0  0  0  0  0  0
  190.6540  176.9800  142.6090 C   0  0  0  0  0  3  0  0  0  0  0  0
  186.5710  177.9980  143.1520 C   0  0  0  0  0  0  0  0  0  0  0  0
  188.9980  177.3740  140.4190 C   0  0  0  0  0  3  0  0  0  0  0  0
  185.4530  178.2650  145.6770 N   0  0  0  0  0  0  0  0  0  0  0  0
  190.3470  177.0500  140.2550 C   0  0  0  0  0  0  0  0  0  0  0  0
  191.1390  176.8580  141.3440 N   0  0  0  0  0  0  0  0  0  0  0  0
  188.4790  177.5060  141.7070 C   0  0  0  0  0  0  0  0  0  0  0  0
  191.2090  176.8630  147.5720 C   0  0  0  0  0  3  0  0  0  0  0  0
  189.5910  177.2530  145.3150 C   0  0  0  0  0  0  0  0  0  0  0  0
  189.1390  177.6390  146.5850 C   0  0  0  0  0  3  0  0  0  0  0  0
  189.9450  177.4440  147.7100 C   0  0  0  0  0  3  0  0  0  0  0  0
  191.6660  176.4760  146.3090 C   0  0  0  0  0  3  0  0  0  0  0  0
  190.8600  176.6700  145.1830 C   0  0  0  0  0  3  0  0  0  0  0  0
  190.9090  176.8810  138.8880 C   0  0  0  0  0  2  0  0  0  0  0  0
  190.8730  175.5340  138.5290 O   0  0  0  0  0  1  0  0  0  0  0  0
  1 10  1  0  0  0  0
  2  6  1  0  0  0  0
  3 14  1  0  0  0  0
  6 16  2  0  0  0  0
  7  8  2  0  0  0  0
  7  9  1  0  0  0  0
  8 11  1  0  0  0  0
  9 12  2  0  0  0  0
 10  2  1  0  0  0  0
 10 21  1  0  0  0  0
 11  5  1  0  0  0  0
 11  4  2  0  0  0  0
 12  4  1  0  0  0  0
 12 16  1  0  0  0  0
 13  1  1  0  0  0  0
 14  9  1  0  0  0  0
 14  2  2  0  0  0  0
 15 19  1  0  0  0  0
 17 15  2  0  0  0  0
 17 18  1  0  0  0  0
 18 13  2  0  0  0  0
 19  3  1  0  0  0  0
 19  1  2  0  0  0  0
 20 23  1  0  0  0  0
 21 22  1  0  0  0  0
 22 23  2  0  0  0  0
 24 20  2  0  0  0  0
 25 21  2  0  0  0  0
 25 24  1  0  0  0  0
 26 17  1  0  0  0  0
 27 26  1  0  0  0  0
M  END
>  <MODEL>
7

>  <REMARK>
 VINA RESULT:     -10.0      2.954      6.005
  Name = 
  2 active torsions:
  status: ('A' for Active; 'I' for Inactive)
    1  A    between atoms: C_9  and  N_15
    2  A    between atoms: C_10  and  CA_22
                            x       y       z     vdW  Elec       q    Type
                         _______ _______ _______ _____ _____    ______ ____

>  <TORSDO>
F 2

$$$$
=
 OpenBabel10272401093D

 27 31  0  0  0  0  0  0  0  0999 V2000
  188.5660  177.8900  141.0580 C   0  0  0  0  0  0  0  0  0  0  0  0
  187.0160  178.1250  142.9920 C   0  0  0  0  0  0  0  0  0  0  0  0
  186.1960  178.2850  140.7090 O   0  0  0  0  0  0  0  0  0  0  0  0
  183.1430  178.7080  144.4710 C   0  0  0  0  0  3  0  0  0  0  0  0
  180.8230  179.0900  144.0840 F   0  0  0  0  0  0  0  0  0  0  0  0
  186.7390  178.1290  144.3680 C   0  0  0  0  0  3  0  0  0  0  0  0
  183.5720  178.7000  141.7010 C   0  0  0  0  0  3  0  0  0  0  0  0
  182.2860  178.8960  142.2120 C   0  0  0  0  0  3  0  0  0  0  0  0
  184.6520  178.5080  142.5730 C   0  0  0  0  0  0  0  0  0  0  0  0
  188.3550  177.9100  142.4900 N   0  0  0  0  0  0  0  0  0  0  0  0
  182.0710  178.9000  143.5940 C   0  0  0  0  0  0  0  0  0  0  0  0
  184.4330  178.5120  143.9680 C   0  0  0  0  0  0  0  0  0  0  0  0
  189.8410  177.7070  140.5000 C   0  0  0  0  0  3  0  0  0  0  0  0
  185.9520  178.3090  142.0880 C   0  0  0  0  0  0  0  0  0  0  0  0
  187.6720  178.0740  138.8110 C   0  0  0  0  0  3  0  0  0  0  0  0
  185.4720  178.3220  144.8210 N   0  0  0  0  0  0  0  0  0  0  0  0
  188.9590  177.8860  138.3020 C   0  0  0  0  0  0  0  0  0  0  0  0
  190.0070  177.7050  139.1510 N   0  0  0  0  0  0  0  0  0  0  0  0
  187.4770  178.0820  140.1920 C   0  0  0  0  0  0  0  0  0  0  0  0
  191.6070  177.3530  145.1600 C   0  0  0  0  0  3  0  0  0  0  0  0
  189.4590  177.7200  143.3950 C   0  0  0  0  0  0  0  0  0  0  0  0
  190.3150  178.7880  143.7000 C   0  0  0  0  0  3  0  0  0  0  0  0
  191.3850  178.6050  144.5800 C   0  0  0  0  0  3  0  0  0  0  0  0
  190.7570  176.2840  144.8620 C   0  0  0  0  0  3  0  0  0  0  0  0
  189.6850  176.4660  143.9820 C   0  0  0  0  0  3  0  0  0  0  0  0
  189.1780  177.8510  136.8320 C   0  0  0  0  0  2  0  0  0  0  0  0
  188.0290  178.2880  136.1750 O   0  0  0  0  0  1  0  0  0  0  0  0
  1 10  1  0  0  0  0
  2  6  1  0  0  0  0
  3 14  1  0  0  0  0
  6 16  2  0  0  0  0
  7  8  2  0  0  0  0
  7  9  1  0  0  0  0
  8 11  1  0  0  0  0
  9 12  2  0  0  0  0
 10  2  1  0  0  0  0
 10 21  1  0  0  0  0
 11  5  1  0  0  0  0
 11  4  2  0  0  0  0
 12  4  1  0  0  0  0
 12 16  1  0  0  0  0
 13  1  1  0  0  0  0
 14  9  1  0  0  0  0
 14  2  2  0  0  0  0
 15 19  1  0  0  0  0
 17 15  2  0  0  0  0
 17 18  1  0  0  0  0
 18 13  2  0  0  0  0
 19  3  1  0  0  0  0
 19  1  2  0  0  0  0
 21 22  2  0  0  0  0
 21 25  1  0  0  0  0
 22 23  1  0  0  0  0
 23 20  2  0  0  0  0
 24 20  1  0  0  0  0
 25 24  2  0  0  0  0
 26 17  1  0  0  0  0
 27 26  1  0  0  0  0
M  END
>  <MODEL>
8

>  <REMARK>
 VINA RESULT:      -9.8      2.904      5.942
  Name = 
  2 active torsions:
  status: ('A' for Active; 'I' for Inactive)
    1  A    between atoms: C_9  and  N_15
    2  A    between atoms: C_10  and  CA_22
                            x       y       z     vdW  Elec       q    Type
                         _______ _______ _______ _____ _____    ______ ____

>  <TORSDO>
F 2

$$$$
=
 OpenBabel10272401093D

 27 31  0  0  0  0  0  0  0  0999 V2000
  187.1890  178.1200  142.6790 C   0  0  0  0  0  0  0  0  0  0  0  0
  188.7100  177.7790  140.7380 C   0  0  0  0  0  0  0  0  0  0  0  0
  186.3780  178.3770  140.4050 O   0  0  0  0  0  0  0  0  0  0  0  0
  189.3420  177.7560  136.6000 C   0  0  0  0  0  3  0  0  0  0  0  0
  188.5070  178.0230  134.3850 F   0  0  0  0  0  0  0  0  0  0  0  0
  189.9680  177.5010  140.1810 C   0  0  0  0  0  3  0  0  0  0  0  0
  186.7910  178.3450  137.6000 C   0  0  0  0  0  3  0  0  0  0  0  0
  187.0180  178.3300  136.2200 C   0  0  0  0  0  3  0  0  0  0  0  0
  187.8380  178.0640  138.4870 C   0  0  0  0  0  0  0  0  0  0  0  0
  188.5040  177.7980  142.1700 N   0  0  0  0  0  0  0  0  0  0  0  0
  188.2920  178.0350  135.7210 C   0  0  0  0  0  0  0  0  0  0  0  0
  189.1220  177.7680  137.9810 C   0  0  0  0  0  0  0  0  0  0  0  0
  186.9110  178.1370  144.0540 C   0  0  0  0  0  3  0  0  0  0  0  0
  187.6370  178.0720  139.8740 C   0  0  0  0  0  0  0  0  0  0  0  0
  184.8720  178.7040  142.2620 C   0  0  0  0  0  3  0  0  0  0  0  0
  190.1450  177.4990  138.8330 N   0  0  0  0  0  0  0  0  0  0  0  0
  184.6440  178.7100  143.6400 C   0  0  0  0  0  0  0  0  0  0  0  0
  185.6610  178.4320  144.5000 N   0  0  0  0  0  0  0  0  0  0  0  0
  186.1460  178.4020  141.7820 C   0  0  0  0  0  0  0  0  0  0  0  0
  191.6920  176.9240  144.8320 C   0  0  0  0  0  3  0  0  0  0  0  0
  189.5870  177.5010  143.0720 C   0  0  0  0  0  0  0  0  0  0  0  0
  190.2920  178.5400  143.6970 C   0  0  0  0  0  3  0  0  0  0  0  0
  191.3410  178.2520  144.5740 C   0  0  0  0  0  3  0  0  0  0  0  0
  190.9930  175.8830  144.2140 C   0  0  0  0  0  3  0  0  0  0  0  0
  189.9430  176.1700  143.3360 C   0  0  0  0  0  3  0  0  0  0  0  0
  183.2970  179.0540  144.1690 C   0  0  0  0  0  2  0  0  0  0  0  0
  183.3510  179.1620  145.5570 O   0  0  0  0  0  1  0  0  0  0  0  0
  1 13  1  0  0  0  0
  2 10  1  0  0  0  0
  3 19  1  0  0  0  0
  4 12  1  0  0  0  0
  5 11  1  0  0  0  0
  6  2  1  0  0  0  0
  7  9  1  0  0  0  0
  8  7  2  0  0  0  0
  9 14  1  0  0  0  0
 10  1  1  0  0  0  0
 10 21  1  0  0  0  0
 11  8  1  0  0  0  0
 11  4  2  0  0  0  0
 12  9  2  0  0  0  0
 12 16  1  0  0  0  0
 13 18  2  0  0  0  0
 14  3  1  0  0  0  0
 14  2  2  0  0  0  0
 15 17  2  0  0  0  0
 16  6  2  0  0  0  0
 17 26  1  0  0  0  0
 17 18  1  0  0  0  0
 19 15  1  0  0  0  0
 19  1  2  0  0  0  0
 21 25  2  0  0  0  0
 21 22  1  0  0  0  0
 22 23  2  0  0  0  0
 23 20  1  0  0  0  0
 24 20  2  0  0  0  0
 25 24  1  0  0  0  0
 26 27  1  0  0  0  0
M  END
>  <MODEL>
9

>  <REMARK>
 VINA RESULT:      -9.8      3.491      7.545
  Name = 
  2 active torsions:
  status: ('A' for Active; 'I' for Inactive)
    1  A    between atoms: C_9  and  N_15
    2  A    between atoms: C_10  and  CA_22
                            x       y       z     vdW  Elec       q    Type
                         _______ _______ _______ _____ _____    ______ ____

>  <TORSDO>
F 2

$$$$
