=
 OpenBabel10272401333D

 55 61  0  0  1  0  0  0  0  0999 V2000
  191.4790  176.8810  142.5480 C   0  0  0  0  0  3  0  0  0  0  0  0
  188.9560  177.8170  143.3080 C   0  0  0  0  0  0  0  0  0  0  0  0
  189.2480  177.6020  141.9600 C   0  0  0  0  0  3  0  0  0  0  0  0
  191.1880  177.0930  143.8990 C   0  0  0  0  0  3  0  0  0  0  0  0
  190.5090  177.1310  141.5730 C   0  0  0  0  0  0  0  0  0  0  0  0
  189.9280  177.5620  144.2810 C   0  0  0  0  0  3  0  0  0  0  0  0
  190.8340  176.9260  140.1600 C   0  0  0  0  0  3  0  0  0  0  0  0
  190.1460  176.1000  139.4380 N   0  0  0  0  0  0  0  0  0  0  0  0
  187.4760  174.6210  135.9470 N   0  0  0  0  0  2  0  0  0  0  0  0
  186.6850  172.8430  134.6420 O   0  0  0  0  0  0  0  0  0  0  0  0
  189.3310  173.4320  136.9780 C   0  0  2  0  0  3  0  0  0  0  0  0
  188.7190  172.5180  135.9180 C   0  0  0  0  0  2  0  0  0  0  0  0
  187.5400  173.2990  135.4440 C   0  0  0  0  0  0  0  0  0  0  0  0
  188.6030  174.7220  136.8060 C   0  0  0  0  0  0  0  0  0  0  0  0
  191.3210  174.6790  137.7890 C   0  0  2  0  0  3  0  0  0  0  0  0
  190.8080  173.6780  136.7410 C   0  0  0  0  0  2  0  0  0  0  0  0
  189.0840  175.8850  137.2630 C   0  0  0  0  0  0  0  0  0  0  0  0
  190.4040  175.9120  138.0170 C   0  0  1  0  0  3  0  0  0  0  0  0
  193.7180  173.9670  137.5690 C   0  0  0  0  0  3  0  0  0  0  0  0
  195.2870  175.2700  136.2150 C   0  0  0  0  0  0  0  0  0  0  0  0
  192.8900  175.8970  136.1900 C   0  0  0  0  0  2  0  0  0  0  0  0
  194.3380  176.1590  135.8780 C   0  0  0  0  0  3  0  0  0  0  0  0
  194.9180  174.0620  136.9860 C   0  0  0  0  0  3  0  0  0  0  0  0
  192.7570  175.1260  137.5140 C   0  0  1  0  0  3  0  0  0  0  0  0
  196.6920  175.4990  135.8450 C   0  0  0  0  0  0  0  0  0  0  0  0
  197.0500  175.4760  134.6380 O   0  0  0  0  0  0  0  0  0  0  0  0
  197.6420  175.7510  136.8270 O   0  0  0  0  0  1  0  0  0  0  0  0
  188.8690  179.0750  137.6520 C   0  0  0  0  0  2  0  0  0  0  0  0
  187.4390  177.7620  139.2770 O   0  0  0  0  0  0  0  0  0  0  0  0
  188.3370  177.1620  136.9840 C   0  0  2  0  0  3  0  0  0  0  0  0
  189.3540  178.3380  136.0860 S   0  0  0  0  0  0  0  0  0  0  0  0
  188.0570  177.9480  138.2420 C   0  0  0  0  0  0  0  0  0  0  0  0
  187.6220  178.3530  143.6970 C   0  0  0  0  0  2  0  0  0  0  0  0
  186.5280  177.5180  143.0620 C   0  0  0  0  0  2  0  0  0  0  0  0
  184.3060  178.2480  142.2870 C   0  0  2  0  0  3  0  0  0  0  0  0
  185.0710  179.4740  142.7280 C   0  0  0  0  0  2  0  0  0  0  0  0
  185.7950  178.3440  142.0290 C   0  0  1  0  0  3  0  0  0  0  0  0
  183.6170  178.5340  141.0970 O   0  0  0  0  0  0  0  0  0  0  0  0
  181.7920  178.3320  143.0880 S   0  0  0  0  0  1  0  0  0  0  0  0
  182.2280  178.7000  141.3380 C   0  0  1  0  0  0  0  0  0  0  0  0
  181.9690  180.0430  141.1600 F   0  0  0  0  0  0  0  0  0  0  0  0
  181.9250  179.0840  138.0320 C   0  0  2  0  0  0  0  0  0  0  0  0
  181.5700  176.0650  138.6690 O   0  0  0  0  0  0  0  0  0  0  0  0
  181.3420  177.8740  140.3430 C   0  0  1  0  0  0  0  0  0  0  0  0
  183.3720  176.4280  140.1440 F   0  0  0  0  0  0  0  0  0  0  0  0
  182.0050  176.5430  139.9260 C   0  0  2  0  0  3  0  0  0  0  0  0
  182.6110  180.2180  138.4270 F   0  0  0  0  0  0  0  0  0  0  0  0
  182.9170  177.9790  137.6350 C   0  0  2  0  0  3  0  0  0  0  0  0
  181.1370  179.4550  136.7920 C   0  0  0  0  0  1  0  0  0  0  0  0
  182.3600  176.5360  137.5880 C   0  0  1  0  0  3  0  0  0  0  0  0
  180.1550  177.5270  140.9910 O   0  0  0  0  0  1  0  0  0  0  0  0
  184.1300  178.0730  138.3210 O   0  0  0  0  0  1  0  0  0  0  0  0
  180.9040  178.7030  139.1140 C   0  0  0  0  0  2  0  0  0  0  0  0
  183.3440  175.5110  137.1090 C   0  0  0  0  0  3  0  0  0  0  0  0
  183.3650  174.3880  137.5860 O   0  0  0  0  0  0  0  0  0  0  0  0
  1  4  1  0  0  0  0
  2 33  1  0  0  0  0
  2  6  1  0  0  0  0
  3  2  2  0  0  0  0
  4  6  2  0  0  0  0
  5  3  1  0  0  0  0
  5  1  2  0  0  0  0
  7  5  1  0  0  0  0
  8  7  2  0  0  0  0
  9 14  1  0  0  0  0
 10 13  2  0  0  0  0
 11 12  1  6  0  0  0
 13 12  1  0  0  0  0
 13  9  1  0  0  0  0
 14 11  1  0  0  0  0
 14 17  2  0  0  0  0
 15 16  1  6  0  0  0
 15 18  1  0  0  0  0
 16 11  1  0  0  0  0
 17 18  1  0  0  0  0
 18  8  1  1  0  0  0
 20 23  1  0  0  0  0
 22 21  1  0  0  0  0
 22 20  2  0  0  0  0
 23 19  2  0  0  0  0
 24 21  1  6  0  0  0
 24 19  1  0  0  0  0
 24 15  1  0  0  0  0
 25 20  1  0  0  0  0
 25 27  1  0  0  0  0
 26 25  2  0  0  0  0
 28 32  1  0  0  0  0
 30 17  1  1  0  0  0
 30 32  1  0  0  0  0
 31 30  1  0  0  0  0
 31 28  1  0  0  0  0
 32 29  2  0  0  0  0
 34 33  1  0  0  0  0
 35 38  1  6  0  0  0
 35 36  1  0  0  0  0
 37 35  1  0  0  0  0
 37 36  1  0  0  0  0
 37 34  1  1  0  0  0
 38 40  1  0  0  0  0
 40 41  1  6  0  0  0
 40 39  1  0  0  0  0
 42 49  1  6  0  0  0
 42 47  1  0  0  0  0
 42 53  1  0  0  0  0
 43 46  1  0  0  0  0
 44 51  1  1  0  0  0
 44 40  1  0  0  0  0
 46 45  1  6  0  0  0
 46 44  1  0  0  0  0
 48 42  1  0  0  0  0
 48 52  1  1  0  0  0
 50 54  1  1  0  0  0
 50 48  1  0  0  0  0
 50 43  1  0  0  0  0
 53 44  1  0  0  0  0
 54 55  2  0  0  0  0
M  END
>  <MODEL>
1

>  <REMARK>
 VINA RESULT:      -7.4      0.000      0.000
  Name = 
  12 active torsions:
  status: ('A' for Active; 'I' for Inactive)
    1  A    between atoms: C_2  and  C_44
    2  A    between atoms: C_6  and  C_20
    3  A    between atoms: C_8  and  O_22
    4  A    between atoms: C_10  and  C_32
    5  A    between atoms: C_11  and  C_38
    6  A    between atoms: C_19  and  C_45
    7  A    between atoms: C_20  and  O_22
    8  A    between atoms: C_27  and  C_54
    9  A    between atoms: N_28  and  C_49
   10  A    between atoms: C_33  and  C_52
   11  A    between atoms: C_43  and  C_51
   12  A    between atoms: C_51  and  C_54
                            x       y       z     vdW  Elec       q    Type
                         _______ _______ _______ _____ _____    ______ ____

>  <TORSDO>
F 12

$$$$
=
 OpenBabel10272401333D

 55 61  0  0  1  0  0  0  0  0999 V2000
  181.4460  177.2110  139.8570 C   0  0  0  0  0  3  0  0  0  0  0  0
  183.4600  178.5070  141.3010 C   0  0  0  0  0  0  0  0  0  0  0  0
  183.7920  177.6190  140.2750 C   0  0  0  0  0  3  0  0  0  0  0  0
  181.1120  178.1020  140.8830 C   0  0  0  0  0  3  0  0  0  0  0  0
  182.7870  176.9690  139.5470 C   0  0  0  0  0  0  0  0  0  0  0  0
  182.1170  178.7490  141.6060 C   0  0  0  0  0  3  0  0  0  0  0  0
  183.1240  176.0180  138.4860 C   0  0  0  0  0  3  0  0  0  0  0  0
  184.1500  176.2180  137.7220 N   0  0  0  0  0  0  0  0  0  0  0  0
  181.8430  172.8520  135.5210 N   0  0  0  0  0  2  0  0  0  0  0  0
  181.1880  170.6040  135.4200 O   0  0  0  0  0  0  0  0  0  0  0  0
  183.5890  172.5800  137.1910 C   0  0  2  0  0  3  0  0  0  0  0  0
  183.0880  171.1890  136.8060 C   0  0  0  0  0  2  0  0  0  0  0  0
  181.9590  171.4870  135.8770 C   0  0  0  0  0  0  0  0  0  0  0  0
  182.8790  173.4920  136.2510 C   0  0  0  0  0  0  0  0  0  0  0  0
  185.4860  174.1810  137.2910 C   0  0  2  0  0  3  0  0  0  0  0  0
  185.0820  172.7320  136.9730 C   0  0  0  0  0  2  0  0  0  0  0  0
  183.3090  174.7340  135.9920 C   0  0  0  0  0  0  0  0  0  0  0  0
  184.5480  175.2660  136.6940 C   0  0  1  0  0  3  0  0  0  0  0  0
  187.7900  173.2310  136.9870 C   0  0  0  0  0  3  0  0  0  0  0  0
  189.3990  174.3150  135.4950 C   0  0  0  0  0  0  0  0  0  0  0  0
  187.0750  175.1700  135.5580 C   0  0  0  0  0  2  0  0  0  0  0  0
  188.5220  175.2760  135.1620 C   0  0  0  0  0  3  0  0  0  0  0  0
  188.9600  173.1830  136.3410 C   0  0  0  0  0  3  0  0  0  0  0  0
  186.9420  174.4740  136.9230 C   0  0  1  0  0  3  0  0  0  0  0  0
  190.7980  174.3890  135.0450 C   0  0  0  0  0  0  0  0  0  0  0  0
  191.4280  173.3450  134.7320 O   0  0  0  0  0  0  0  0  0  0  0  0
  191.4390  175.6180  134.9530 O   0  0  0  0  0  1  0  0  0  0  0  0
  182.1420  177.6140  135.1440 C   0  0  0  0  0  2  0  0  0  0  0  0
  180.3990  176.0740  136.1440 O   0  0  0  0  0  0  0  0  0  0  0  0
  182.5890  175.5750  134.9700 C   0  0  2  0  0  3  0  0  0  0  0  0
  183.6180  176.9240  134.3850 S   0  0  0  0  0  0  0  0  0  0  0  0
  181.4410  176.3480  135.5720 C   0  0  0  0  0  0  0  0  0  0  0  0
  184.5420  179.1600  142.0890 C   0  0  0  0  0  2  0  0  0  0  0  0
  184.6840  178.4730  143.4340 C   0  0  0  0  0  2  0  0  0  0  0  0
  187.1070  178.0430  143.3190 C   0  0  2  0  0  3  0  0  0  0  0  0
  186.5850  177.4280  144.5970 C   0  0  0  0  0  2  0  0  0  0  0  0
  185.7390  177.3950  143.3430 C   0  0  1  0  0  3  0  0  0  0  0  0
  188.0200  177.1620  142.7190 O   0  0  0  0  0  0  0  0  0  0  0  0
  188.0360  177.4180  140.0230 S   0  0  0  0  0  1  0  0  0  0  0  0
  188.7410  177.8030  141.6780 C   0  0  1  0  0  0  0  0  0  0  0  0
  188.5510  179.1580  141.8630 F   0  0  0  0  0  0  0  0  0  0  0  0
  190.9470  178.6740  144.0340 C   0  0  2  0  0  0  0  0  0  0  0  0
  191.8530  175.9480  142.8520 O   0  0  0  0  0  0  0  0  0  0  0  0
  190.2770  177.4940  141.7300 C   0  0  1  0  0  0  0  0  0  0  0  0
  189.5550  175.4340  142.9500 F   0  0  0  0  0  0  0  0  0  0  0  0
  190.5760  176.0740  142.2590 C   0  0  2  0  0  3  0  0  0  0  0  0
  189.8240  179.4150  144.3540 F   0  0  0  0  0  0  0  0  0  0  0  0
  190.9300  177.3370  144.7920 C   0  0  2  0  0  3  0  0  0  0  0  0
  192.1470  179.4600  144.5220 C   0  0  0  0  0  1  0  0  0  0  0  0
  191.8510  176.2210  144.2440 C   0  0  1  0  0  3  0  0  0  0  0  0
  190.7810  177.5350  140.4290 O   0  0  0  0  0  1  0  0  0  0  0  0
  189.6360  176.8900  145.0660 O   0  0  0  0  0  1  0  0  0  0  0  0
  191.0710  178.5700  142.5070 C   0  0  0  0  0  2  0  0  0  0  0  0
  191.8650  174.9710  145.0720 C   0  0  0  0  0  3  0  0  0  0  0  0
  192.4160  173.9590  144.6730 O   0  0  0  0  0  0  0  0  0  0  0  0
  1  4  1  0  0  0  0
  2  6  1  0  0  0  0
  2 33  1  0  0  0  0
  3  2  2  0  0  0  0
  4  6  2  0  0  0  0
  5  1  2  0  0  0  0
  5  3  1  0  0  0  0
  7  5  1  0  0  0  0
  8  7  2  0  0  0  0
  9 13  1  0  0  0  0
  9 14  1  0  0  0  0
 10 13  2  0  0  0  0
 11 12  1  6  0  0  0
 13 12  1  0  0  0  0
 14 11  1  0  0  0  0
 15 16  1  6  0  0  0
 16 11  1  0  0  0  0
 17 14  2  0  0  0  0
 17 18  1  0  0  0  0
 18 15  1  0  0  0  0
 18  8  1  1  0  0  0
 20 23  1  0  0  0  0
 22 20  2  0  0  0  0
 22 21  1  0  0  0  0
 23 19  2  0  0  0  0
 24 21  1  6  0  0  0
 24 19  1  0  0  0  0
 24 15  1  0  0  0  0
 25 20  1  0  0  0  0
 26 25  2  0  0  0  0
 27 25  1  0  0  0  0
 28 32  1  0  0  0  0
 30 32  1  0  0  0  0
 30 17  1  1  0  0  0
 31 30  1  0  0  0  0
 31 28  1  0  0  0  0
 32 29  2  0  0  0  0
 33 34  1  0  0  0  0
 35 38  1  6  0  0  0
 35 37  1  0  0  0  0
 35 36  1  0  0  0  0
 37 34  1  1  0  0  0
 37 36  1  0  0  0  0
 40 39  1  6  0  0  0
 40 44  1  0  0  0  0
 40 41  1  0  0  0  0
 40 38  1  0  0  0  0
 42 47  1  0  0  0  0
 42 49  1  1  0  0  0
 42 48  1  0  0  0  0
 43 50  1  0  0  0  0
 44 51  1  6  0  0  0
 44 46  1  0  0  0  0
 44 53  1  0  0  0  0
 46 43  1  0  0  0  0
 46 45  1  1  0  0  0
 48 52  1  6  0  0  0
 50 48  1  0  0  0  0
 50 54  1  1  0  0  0
 53 42  1  0  0  0  0
 55 54  2  0  0  0  0
M  END
>  <MODEL>
2

>  <REMARK>
 VINA RESULT:      -6.6      3.559      7.613
  Name = 
  12 active torsions:
  status: ('A' for Active; 'I' for Inactive)
    1  A    between atoms: C_2  and  C_44
    2  A    between atoms: C_6  and  C_20
    3  A    between atoms: C_8  and  O_22
    4  A    between atoms: C_10  and  C_32
    5  A    between atoms: C_11  and  C_38
    6  A    between atoms: C_19  and  C_45
    7  A    between atoms: C_20  and  O_22
    8  A    between atoms: C_27  and  C_54
    9  A    between atoms: N_28  and  C_49
   10  A    between atoms: C_33  and  C_52
   11  A    between atoms: C_43  and  C_51
   12  A    between atoms: C_51  and  C_54
                            x       y       z     vdW  Elec       q    Type
                         _______ _______ _______ _____ _____    ______ ____

>  <TORSDO>
F 12

$$$$
=
 OpenBabel10272401333D

 55 61  0  0  1  0  0  0  0  0999 V2000
  181.3920  175.7190  139.0570 C   0  0  0  0  0  3  0  0  0  0  0  0
  182.5200  177.6950  140.6820 C   0  0  0  0  0  0  0  0  0  0  0  0
  183.2070  177.2340  139.5570 C   0  0  0  0  0  3  0  0  0  0  0  0
  180.7000  176.1810  140.1820 C   0  0  0  0  0  3  0  0  0  0  0  0
  182.6450  176.2470  138.7380 C   0  0  0  0  0  0  0  0  0  0  0  0
  181.2630  177.1670  140.9960 C   0  0  0  0  0  3  0  0  0  0  0  0
  183.3680  175.7390  137.5700 C   0  0  0  0  0  3  0  0  0  0  0  0
  183.3010  174.4880  137.2440 N   0  0  0  0  0  0  0  0  0  0  0  0
  182.7170  170.5740  134.8290 N   0  0  0  0  0  2  0  0  0  0  0  0
  183.2920  168.3300  134.4760 O   0  0  0  0  0  0  0  0  0  0  0  0
  184.5960  171.1420  136.2630 C   0  0  2  0  0  3  0  0  0  0  0  0
  184.8200  169.7260  135.7380 C   0  0  0  0  0  2  0  0  0  0  0  0
  183.5670  169.4510  134.9760 C   0  0  0  0  0  0  0  0  0  0  0  0
  183.3820  171.6100  135.5360 C   0  0  0  0  0  0  0  0  0  0  0  0
  185.4010  173.4890  136.4010 C   0  0  2  0  0  3  0  0  0  0  0  0
  185.7470  172.0690  135.9230 C   0  0  0  0  0  2  0  0  0  0  0  0
  183.0730  172.9070  135.4140 C   0  0  0  0  0  0  0  0  0  0  0  0
  183.9600  173.9590  136.0590 C   0  0  1  0  0  3  0  0  0  0  0  0
  187.3760  174.9000  137.0440 C   0  0  0  0  0  3  0  0  0  0  0  0
  188.9690  175.6610  135.3500 C   0  0  0  0  0  0  0  0  0  0  0  0
  187.1860  174.0780  134.6770 C   0  0  0  0  0  2  0  0  0  0  0  0
  188.2970  175.0420  134.3650 C   0  0  0  0  0  3  0  0  0  0  0  0
  188.5520  175.4660  136.7560 C   0  0  0  0  0  3  0  0  0  0  0  0
  186.4250  174.5260  135.9370 C   0  0  1  0  0  3  0  0  0  0  0  0
  190.1010  176.5490  135.0410 C   0  0  0  0  0  0  0  0  0  0  0  0
  191.2840  176.1780  135.2550 O   0  0  0  0  0  1  0  0  0  0  0  0
  189.8740  177.8080  134.5000 O   0  0  0  0  0  0  0  0  0  0  0  0
  180.3320  174.5870  135.2180 C   0  0  0  0  0  2  0  0  0  0  0  0
  179.9820  172.1530  135.8180 O   0  0  0  0  0  0  0  0  0  0  0  0
  181.8750  173.3140  134.5960 C   0  0  2  0  0  3  0  0  0  0  0  0
  181.8210  175.0910  134.3470 S   0  0  0  0  0  0  0  0  0  0  0  0
  180.5770  173.1030  135.3390 C   0  0  0  0  0  0  0  0  0  0  0  0
  183.1490  178.7190  141.5620 C   0  0  0  0  0  2  0  0  0  0  0  0
  184.3250  178.1090  142.3000 C   0  0  0  0  0  2  0  0  0  0  0  0
  186.7420  178.1180  141.8210 C   0  0  2  0  0  3  0  0  0  0  0  0
  186.0440  178.8620  140.7060 C   0  0  0  0  0  2  0  0  0  0  0  0
  185.5420  178.9890  142.1280 C   0  0  1  0  0  3  0  0  0  0  0  0
  187.9110  178.8080  142.1790 O   0  0  0  0  0  0  0  0  0  0  0  0
  189.4550  177.1520  140.6930 S   0  0  0  0  0  1  0  0  0  0  0  0
  189.0110  177.9200  142.3050 C   0  0  1  0  0  0  0  0  0  0  0  0
  190.0910  178.7000  142.6620 F   0  0  0  0  0  0  0  0  0  0  0  0
  191.3060  176.1620  143.9840 C   0  0  2  0  0  0  0  0  0  0  0  0
  188.8790  176.5970  145.8740 O   0  0  0  0  0  0  0  0  0  0  0  0
  188.7820  176.8320  143.4110 C   0  0  1  0  0  0  0  0  0  0  0  0
  188.9000  178.7760  144.9790 F   0  0  0  0  0  0  0  0  0  0  0  0
  188.5270  177.4500  144.8040 C   0  0  2  0  0  3  0  0  0  0  0  0
  192.0350  176.7640  142.9740 F   0  0  0  0  0  0  0  0  0  0  0  0
  191.3180  177.0460  145.2420 C   0  0  2  0  0  3  0  0  0  0  0  0
  192.0150  174.8680  144.3290 C   0  0  0  0  0  1  0  0  0  0  0  0
  190.2240  176.7570  146.2980 C   0  0  1  0  0  3  0  0  0  0  0  0
  187.6290  176.1130  143.0930 O   0  0  0  0  0  1  0  0  0  0  0  0
  191.4430  178.4050  144.9440 O   0  0  0  0  0  1  0  0  0  0  0  0
  189.9160  175.7830  143.4520 C   0  0  0  0  0  2  0  0  0  0  0  0
  190.3360  177.5850  147.5430 C   0  0  0  0  0  3  0  0  0  0  0  0
  189.3410  177.9410  148.1530 O   0  0  0  0  0  0  0  0  0  0  0  0
  1  4  1  0  0  0  0
  2  6  1  0  0  0  0
  2 33  1  0  0  0  0
  3  2  2  0  0  0  0
  4  6  2  0  0  0  0
  5  1  2  0  0  0  0
  5  3  1  0  0  0  0
  7  5  1  0  0  0  0
  8  7  2  0  0  0  0
  9 13  1  0  0  0  0
  9 14  1  0  0  0  0
 10 13  2  0  0  0  0
 11 12  1  6  0  0  0
 13 12  1  0  0  0  0
 14 11  1  0  0  0  0
 15 16  1  6  0  0  0
 16 11  1  0  0  0  0
 17 14  2  0  0  0  0
 17 18  1  0  0  0  0
 18 15  1  0  0  0  0
 18  8  1  1  0  0  0
 20 23  1  0  0  0  0
 22 21  1  0  0  0  0
 22 20  2  0  0  0  0
 23 19  2  0  0  0  0
 24 21  1  6  0  0  0
 24 15  1  0  0  0  0
 24 19  1  0  0  0  0
 25 26  1  0  0  0  0
 25 20  1  0  0  0  0
 27 25  2  0  0  0  0
 28 32  1  0  0  0  0
 30 32  1  0  0  0  0
 30 17  1  1  0  0  0
 31 30  1  0  0  0  0
 31 28  1  0  0  0  0
 32 29  2  0  0  0  0
 33 34  1  0  0  0  0
 35 37  1  0  0  0  0
 35 38  1  1  0  0  0
 36 35  1  0  0  0  0
 36 37  1  0  0  0  0
 37 34  1  6  0  0  0
 38 40  1  0  0  0  0
 40 39  1  6  0  0  0
 40 41  1  0  0  0  0
 40 44  1  0  0  0  0
 42 49  1  1  0  0  0
 42 48  1  0  0  0  0
 43 50  1  0  0  0  0
 44 51  1  6  0  0  0
 44 53  1  0  0  0  0
 44 46  1  0  0  0  0
 46 45  1  6  0  0  0
 46 43  1  0  0  0  0
 47 42  1  0  0  0  0
 48 52  1  6  0  0  0
 48 50  1  0  0  0  0
 50 54  1  1  0  0  0
 53 42  1  0  0  0  0
 54 55  2  0  0  0  0
M  END
>  <MODEL>
3

>  <REMARK>
 VINA RESULT:      -6.6      4.120      8.121
  Name = 
  12 active torsions:
  status: ('A' for Active; 'I' for Inactive)
    1  A    between atoms: C_2  and  C_44
    2  A    between atoms: C_6  and  C_20
    3  A    between atoms: C_8  and  O_22
    4  A    between atoms: C_10  and  C_32
    5  A    between atoms: C_11  and  C_38
    6  A    between atoms: C_19  and  C_45
    7  A    between atoms: C_20  and  O_22
    8  A    between atoms: C_27  and  C_54
    9  A    between atoms: N_28  and  C_49
   10  A    between atoms: C_33  and  C_52
   11  A    between atoms: C_43  and  C_51
   12  A    between atoms: C_51  and  C_54
                            x       y       z     vdW  Elec       q    Type
                         _______ _______ _______ _____ _____    ______ ____

>  <TORSDO>
F 12

$$$$
=
 OpenBabel10272401333D

 55 61  0  0  1  0  0  0  0  0999 V2000
  188.9840  178.3990  138.6240 C   0  0  0  0  0  3  0  0  0  0  0  0
  189.1290  176.5610  136.5220 C   0  0  0  0  0  0  0  0  0  0  0  0
  187.8980  176.8580  137.1110 C   0  0  0  0  0  3  0  0  0  0  0  0
  190.2180  178.1040  138.0340 C   0  0  0  0  0  3  0  0  0  0  0  0
  187.8200  177.7800  138.1630 C   0  0  0  0  0  0  0  0  0  0  0  0
  190.2920  177.1850  136.9840 C   0  0  0  0  0  3  0  0  0  0  0  0
  186.5380  178.0810  138.8040 C   0  0  0  0  0  3  0  0  0  0  0  0
  185.4960  177.3480  138.5720 N   0  0  0  0  0  0  0  0  0  0  0  0
  181.4580  179.0500  137.0570 N   0  0  0  0  0  2  0  0  0  0  0  0
  180.0660  180.9030  136.7110 O   0  0  0  0  0  0  0  0  0  0  0  0
  183.0340  180.1360  138.5560 C   0  0  2  0  0  3  0  0  0  0  0  0
  181.8880  181.1110  138.2950 C   0  0  0  0  0  2  0  0  0  0  0  0
  181.0580  180.3880  137.2890 C   0  0  0  0  0  0  0  0  0  0  0  0
  182.5990  178.8790  137.8840 C   0  0  0  0  0  0  0  0  0  0  0  0
  184.3250  178.7950  140.2020 C   0  0  2  0  0  3  0  0  0  0  0  0
  183.2220  179.8520  140.0340 C   0  0  0  0  0  2  0  0  0  0  0  0
  183.1200  177.6840  138.1900 C   0  0  0  0  0  0  0  0  0  0  0  0
  184.2200  177.5840  139.2340 C   0  0  1  0  0  3  0  0  0  0  0  0
  185.8520  178.5150  142.1750 C   0  0  0  0  0  3  0  0  0  0  0  0
  184.9480  178.4350  144.4480 C   0  0  0  0  0  0  0  0  0  0  0  0
  183.4110  178.9530  142.5770 C   0  0  0  0  0  2  0  0  0  0  0  0
  183.6890  178.5880  144.0090 C   0  0  0  0  0  3  0  0  0  0  0  0
  186.0740  178.5330  143.4930 C   0  0  0  0  0  3  0  0  0  0  0  0
  184.4550  178.3130  141.6470 C   0  0  1  0  0  3  0  0  0  0  0  0
  185.2170  178.1470  145.8660 C   0  0  0  0  0  0  0  0  0  0  0  0
  184.4470  178.5750  146.7650 O   0  0  0  0  0  1  0  0  0  0  0  0
  186.3240  177.3890  146.2280 O   0  0  0  0  0  0  0  0  0  0  0  0
  183.6450  174.6830  137.1430 C   0  0  0  0  0  2  0  0  0  0  0  0
  183.8180  176.4320  135.3200 O   0  0  0  0  0  0  0  0  0  0  0  0
  182.5770  176.4430  137.5300 C   0  0  2  0  0  3  0  0  0  0  0  0
  182.6780  175.0200  138.6200 S   0  0  0  0  0  0  0  0  0  0  0  0
  183.4470  175.9750  136.3880 C   0  0  0  0  0  0  0  0  0  0  0  0
  189.1980  175.5500  135.4300 C   0  0  0  0  0  2  0  0  0  0  0  0
  190.6380  175.3630  134.9940 C   0  0  0  0  0  2  0  0  0  0  0  0
  192.6250  174.1450  135.7930 C   0  0  2  0  0  3  0  0  0  0  0  0
  191.6170  174.1800  136.9180 C   0  0  0  0  0  2  0  0  0  0  0  0
  191.1470  174.0280  135.4890 C   0  0  1  0  0  3  0  0  0  0  0  0
  193.2070  172.8680  135.7310 O   0  0  0  0  0  0  0  0  0  0  0  0
  195.3990  172.0850  134.3470 S   0  0  0  0  0  1  0  0  0  0  0  0
  194.6230  172.9500  135.7740 C   0  0  1  0  0  0  0  0  0  0  0  0
  194.9330  174.2860  135.6200 F   0  0  0  0  0  0  0  0  0  0  0  0
  197.8000  173.0390  136.8100 C   0  0  2  0  0  0  0  0  0  0  0  0
  195.9820  173.3510  139.3090 O   0  0  0  0  0  0  0  0  0  0  0  0
  195.2140  172.4460  137.1360 C   0  0  1  0  0  0  0  0  0  0  0  0
  194.7360  174.7770  137.9060 F   0  0  0  0  0  0  0  0  0  0  0  0
  195.0230  173.4700  138.2770 C   0  0  2  0  0  3  0  0  0  0  0  0
  197.8890  173.3600  135.4680 F   0  0  0  0  0  0  0  0  0  0  0  0
  197.6740  174.3180  137.6520 C   0  0  2  0  0  3  0  0  0  0  0  0
  199.1060  172.3690  137.1900 C   0  0  0  0  0  1  0  0  0  0  0  0
  197.1370  174.1470  139.0930 C   0  0  1  0  0  3  0  0  0  0  0  0
  194.5160  171.3010  137.5250 O   0  0  0  0  0  1  0  0  0  0  0  0
  197.0530  175.3600  136.9590 O   0  0  0  0  0  1  0  0  0  0  0  0
  196.6890  171.9990  137.0120 C   0  0  0  0  0  2  0  0  0  0  0  0
  197.1200  175.4110  139.8990 C   0  0  0  0  0  3  0  0  0  0  0  0
  196.2040  175.6540  140.6680 O   0  0  0  0  0  0  0  0  0  0  0  0
  2  6  2  0  0  0  0
  2  3  1  0  0  0  0
  3  5  2  0  0  0  0
  4  1  2  0  0  0  0
  5  1  1  0  0  0  0
  5  7  1  0  0  0  0
  6  4  1  0  0  0  0
  8  7  2  0  0  0  0
  9 13  1  0  0  0  0
  9 14  1  0  0  0  0
 10 13  2  0  0  0  0
 11 12  1  1  0  0  0
 11 16  1  0  0  0  0
 13 12  1  0  0  0  0
 14 17  2  0  0  0  0
 14 11  1  0  0  0  0
 15 16  1  1  0  0  0
 15 24  1  0  0  0  0
 17 18  1  0  0  0  0
 18  8  1  6  0  0  0
 18 15  1  0  0  0  0
 19 23  2  0  0  0  0
 20 25  1  0  0  0  0
 21 22  1  0  0  0  0
 22 20  2  0  0  0  0
 23 20  1  0  0  0  0
 24 19  1  1  0  0  0
 24 21  1  0  0  0  0
 25 27  2  0  0  0  0
 25 26  1  0  0  0  0
 28 31  1  0  0  0  0
 29 32  2  0  0  0  0
 30 17  1  1  0  0  0
 30 31  1  0  0  0  0
 32 28  1  0  0  0  0
 32 30  1  0  0  0  0
 33  2  1  0  0  0  0
 34 33  1  0  0  0  0
 35 38  1  1  0  0  0
 35 36  1  0  0  0  0
 37 34  1  6  0  0  0
 37 35  1  0  0  0  0
 37 36  1  0  0  0  0
 38 40  1  0  0  0  0
 40 39  1  6  0  0  0
 40 44  1  0  0  0  0
 41 40  1  0  0  0  0
 42 53  1  0  0  0  0
 42 49  1  1  0  0  0
 42 48  1  0  0  0  0
 44 51  1  1  0  0  0
 44 46  1  0  0  0  0
 46 45  1  6  0  0  0
 46 43  1  0  0  0  0
 47 42  1  0  0  0  0
 48 52  1  6  0  0  0
 48 50  1  0  0  0  0
 50 43  1  0  0  0  0
 50 54  1  6  0  0  0
 53 44  1  0  0  0  0
 54 55  2  0  0  0  0
M  END
>  <MODEL>
4

>  <REMARK>
 VINA RESULT:      -6.4      4.376     11.713
  Name = 
  12 active torsions:
  status: ('A' for Active; 'I' for Inactive)
    1  A    between atoms: C_2  and  C_44
    2  A    between atoms: C_6  and  C_20
    3  A    between atoms: C_8  and  O_22
    4  A    between atoms: C_10  and  C_32
    5  A    between atoms: C_11  and  C_38
    6  A    between atoms: C_19  and  C_45
    7  A    between atoms: C_20  and  O_22
    8  A    between atoms: C_27  and  C_54
    9  A    between atoms: N_28  and  C_49
   10  A    between atoms: C_33  and  C_52
   11  A    between atoms: C_43  and  C_51
   12  A    between atoms: C_51  and  C_54
                            x       y       z     vdW  Elec       q    Type
                         _______ _______ _______ _____ _____    ______ ____

>  <TORSDO>
F 12

$$$$
=
 OpenBabel10272401333D

 55 61  0  0  1  0  0  0  0  0999 V2000
  180.9210  178.0260  140.7840 C   0  0  0  0  0  3  0  0  0  0  0  0
  182.7770  178.7590  142.7420 C   0  0  0  0  0  0  0  0  0  0  0  0
  183.2130  178.2400  141.5210 C   0  0  0  0  0  3  0  0  0  0  0  0
  180.4820  178.5490  142.0050 C   0  0  0  0  0  3  0  0  0  0  0  0
  182.2870  177.8730  140.5360 C   0  0  0  0  0  0  0  0  0  0  0  0
  181.4090  178.9140  142.9850 C   0  0  0  0  0  3  0  0  0  0  0  0
  182.7320  177.3050  139.2610 C   0  0  0  0  0  3  0  0  0  0  0  0
  182.0170  176.4150  138.6500 N   0  0  0  0  0  0  0  0  0  0  0  0
  180.4400  172.8180  136.1860 N   0  0  0  0  0  2  0  0  0  0  0  0
  180.5730  170.5400  135.6530 O   0  0  0  0  0  0  0  0  0  0  0  0
  182.5760  172.9800  137.3380 C   0  0  2  0  0  3  0  0  0  0  0  0
  182.4800  171.5850  136.7240 C   0  0  0  0  0  2  0  0  0  0  0  0
  181.1020  171.5670  136.1520 C   0  0  0  0  0  0  0  0  0  0  0  0
  181.3650  173.6840  136.8270 C   0  0  0  0  0  0  0  0  0  0  0  0
  183.7750  175.1540  137.4510 C   0  0  2  0  0  3  0  0  0  0  0  0
  183.8050  173.7320  136.8660 C   0  0  0  0  0  2  0  0  0  0  0  0
  181.2640  175.0200  136.8090 C   0  0  0  0  0  0  0  0  0  0  0  0
  182.4000  175.8700  137.3550 C   0  0  1  0  0  3  0  0  0  0  0  0
  185.0630  177.2940  137.7000 C   0  0  0  0  0  3  0  0  0  0  0  0
  187.3230  177.5020  136.7830 C   0  0  0  0  0  0  0  0  0  0  0  0
  186.2110  175.2900  136.7110 C   0  0  0  0  0  2  0  0  0  0  0  0
  187.3070  176.2420  136.3180 C   0  0  0  0  0  3  0  0  0  0  0  0
  186.2020  177.9900  137.6160 C   0  0  0  0  0  3  0  0  0  0  0  0
  184.8810  176.0420  136.8810 C   0  0  1  0  0  3  0  0  0  0  0  0
  188.4340  178.4080  136.4520 C   0  0  0  0  0  0  0  0  0  0  0  0
  188.5260  179.5380  137.0000 O   0  0  0  0  0  1  0  0  0  0  0  0
  189.4020  178.0210  135.5340 O   0  0  0  0  0  0  0  0  0  0  0  0
  180.0380  177.3280  134.9270 C   0  0  0  0  0  2  0  0  0  0  0  0
  179.9920  177.9050  137.3920 O   0  0  0  0  0  0  0  0  0  0  0  0
  180.0470  175.6670  136.2040 C   0  0  2  0  0  3  0  0  0  0  0  0
  180.0920  175.6070  134.4100 S   0  0  0  0  0  0  0  0  0  0  0  0
  180.0220  177.1600  136.4270 C   0  0  0  0  0  0  0  0  0  0  0  0
  183.7750  179.1080  143.7920 C   0  0  0  0  0  2  0  0  0  0  0  0
  185.1380  179.3080  143.1590 C   0  0  0  0  0  2  0  0  0  0  0  0
  187.3140  178.1790  143.4080 C   0  0  2  0  0  3  0  0  0  0  0  0
  186.3700  177.6020  144.4380 C   0  0  0  0  0  2  0  0  0  0  0  0
  185.8530  177.9790  143.0670 C   0  0  1  0  0  3  0  0  0  0  0  0
  188.0640  177.1410  142.8330 O   0  0  0  0  0  0  0  0  0  0  0  0
  188.6980  177.4060  140.2140 S   0  0  0  0  0  1  0  0  0  0  0  0
  189.0880  177.6550  141.9950 C   0  0  1  0  0  0  0  0  0  0  0  0
  189.0930  179.0200  142.1930 F   0  0  0  0  0  0  0  0  0  0  0  0
  191.3310  178.8890  144.1440 C   0  0  2  0  0  0  0  0  0  0  0  0
  191.6170  175.7960  144.1520 O   0  0  0  0  0  0  0  0  0  0  0  0
  190.5030  177.0840  142.3550 C   0  0  1  0  0  0  0  0  0  0  0  0
  189.2610  175.8360  144.1300 F   0  0  0  0  0  0  0  0  0  0  0  0
  190.4330  175.9430  143.3940 C   0  0  2  0  0  3  0  0  0  0  0  0
  190.4020  179.9080  144.0260 F   0  0  0  0  0  0  0  0  0  0  0  0
  190.9640  177.9760  145.3240 C   0  0  2  0  0  3  0  0  0  0  0  0
  192.6610  179.5410  144.4680 C   0  0  0  0  0  1  0  0  0  0  0  0
  191.6190  176.5730  145.3400 C   0  0  1  0  0  3  0  0  0  0  0  0
  191.0600  176.5230  141.2040 O   0  0  0  0  0  1  0  0  0  0  0  0
  189.5900  177.9390  145.5700 O   0  0  0  0  0  1  0  0  0  0  0  0
  191.4940  178.1890  142.7870 C   0  0  0  0  0  2  0  0  0  0  0  0
  191.3000  175.7580  146.5570 C   0  0  0  0  0  3  0  0  0  0  0  0
  192.1350  175.5740  147.4270 O   0  0  0  0  0  0  0  0  0  0  0  0
  1  4  1  0  0  0  0
  2  6  1  0  0  0  0
  2 33  1  0  0  0  0
  3  2  2  0  0  0  0
  4  6  2  0  0  0  0
  5  1  2  0  0  0  0
  5  3  1  0  0  0  0
  7  5  1  0  0  0  0
  8  7  2  0  0  0  0
  9 14  1  0  0  0  0
 10 13  2  0  0  0  0
 11 12  1  6  0  0  0
 13  9  1  0  0  0  0
 13 12  1  0  0  0  0
 14 11  1  0  0  0  0
 15 16  1  6  0  0  0
 16 11  1  0  0  0  0
 17 14  2  0  0  0  0
 17 18  1  0  0  0  0
 18 15  1  0  0  0  0
 18  8  1  1  0  0  0
 20 23  1  0  0  0  0
 22 21  1  0  0  0  0
 22 20  2  0  0  0  0
 23 19  2  0  0  0  0
 24 21  1  1  0  0  0
 24 15  1  0  0  0  0
 24 19  1  0  0  0  0
 25 20  1  0  0  0  0
 25 26  1  0  0  0  0
 27 25  2  0  0  0  0
 28 32  1  0  0  0  0
 30 32  1  0  0  0  0
 30 17  1  1  0  0  0
 31 28  1  0  0  0  0
 31 30  1  0  0  0  0
 32 29  2  0  0  0  0
 34 33  1  0  0  0  0
 35 38  1  6  0  0  0
 35 36  1  0  0  0  0
 37 34  1  1  0  0  0
 37 35  1  0  0  0  0
 37 36  1  0  0  0  0
 40 39  1  6  0  0  0
 40 41  1  0  0  0  0
 40 44  1  0  0  0  0
 40 38  1  0  0  0  0
 42 49  1  1  0  0  0
 42 48  1  0  0  0  0
 43 50  1  0  0  0  0
 44 51  1  6  0  0  0
 44 53  1  0  0  0  0
 44 46  1  0  0  0  0
 46 45  1  1  0  0  0
 46 43  1  0  0  0  0
 47 42  1  0  0  0  0
 48 50  1  0  0  0  0
 48 52  1  6  0  0  0
 50 54  1  1  0  0  0
 53 42  1  0  0  0  0
 54 55  2  0  0  0  0
M  END
>  <MODEL>
5

>  <REMARK>
 VINA RESULT:      -6.0      4.408      8.584
  Name = 
  12 active torsions:
  status: ('A' for Active; 'I' for Inactive)
    1  A    between atoms: C_2  and  C_44
    2  A    between atoms: C_6  and  C_20
    3  A    between atoms: C_8  and  O_22
    4  A    between atoms: C_10  and  C_32
    5  A    between atoms: C_11  and  C_38
    6  A    between atoms: C_19  and  C_45
    7  A    between atoms: C_20  and  O_22
    8  A    between atoms: C_27  and  C_54
    9  A    between atoms: N_28  and  C_49
   10  A    between atoms: C_33  and  C_52
   11  A    between atoms: C_43  and  C_51
   12  A    between atoms: C_51  and  C_54
                            x       y       z     vdW  Elec       q    Type
                         _______ _______ _______ _____ _____    ______ ____

>  <TORSDO>
F 12

$$$$
=
 OpenBabel10272401333D

 55 61  0  0  1  0  0  0  0  0999 V2000
  188.4080  178.0580  137.8490 C   0  0  0  0  0  3  0  0  0  0  0  0
  188.2810  176.1170  135.8390 C   0  0  0  0  0  0  0  0  0  0  0  0
  187.1120  176.5640  136.4580 C   0  0  0  0  0  3  0  0  0  0  0  0
  189.5800  177.6130  137.2290 C   0  0  0  0  0  3  0  0  0  0  0  0
  187.1700  177.5380  137.4640 C   0  0  0  0  0  0  0  0  0  0  0  0
  189.5190  176.6430  136.2250 C   0  0  0  0  0  3  0  0  0  0  0  0
  185.9520  177.9960  138.1360 C   0  0  0  0  0  3  0  0  0  0  0  0
  185.0620  177.1470  138.5410 N   0  0  0  0  0  0  0  0  0  0  0  0
  181.1650  179.2570  137.1770 N   0  0  0  0  0  2  0  0  0  0  0  0
  179.9820  181.2480  136.8210 O   0  0  0  0  0  0  0  0  0  0  0  0
  182.9490  180.2080  138.5290 C   0  0  2  0  0  3  0  0  0  0  0  0
  181.9110  181.3020  138.2870 C   0  0  0  0  0  2  0  0  0  0  0  0
  180.9400  180.6420  137.3660 C   0  0  0  0  0  0  0  0  0  0  0  0
  182.3280  178.9850  137.9460 C   0  0  0  0  0  0  0  0  0  0  0  0
  184.1730  178.7900  140.1620 C   0  0  2  0  0  3  0  0  0  0  0  0
  183.1940  179.9650  140.0060 C   0  0  0  0  0  2  0  0  0  0  0  0
  182.7230  177.7490  138.2790 C   0  0  0  0  0  0  0  0  0  0  0  0
  183.8670  177.5610  139.2620 C   0  0  1  0  0  3  0  0  0  0  0  0
  185.7860  178.3110  142.0250 C   0  0  0  0  0  3  0  0  0  0  0  0
  185.0850  178.5070  144.3620 C   0  0  0  0  0  0  0  0  0  0  0  0
  183.5140  179.2260  142.5860 C   0  0  0  0  0  2  0  0  0  0  0  0
  183.8430  178.8790  144.0130 C   0  0  0  0  0  3  0  0  0  0  0  0
  186.1220  178.3450  143.3190 C   0  0  0  0  0  3  0  0  0  0  0  0
  184.3360  178.3570  141.6190 C   0  0  1  0  0  3  0  0  0  0  0  0
  185.4170  178.2360  145.7700 C   0  0  0  0  0  0  0  0  0  0  0  0
  184.5830  178.4720  146.6830 O   0  0  0  0  0  1  0  0  0  0  0  0
  186.6560  177.7060  146.1060 O   0  0  0  0  0  0  0  0  0  0  0  0
  182.7960  174.6380  137.4490 C   0  0  0  0  0  2  0  0  0  0  0  0
  183.1910  176.2100  135.5040 O   0  0  0  0  0  0  0  0  0  0  0  0
  181.9970  176.5570  137.7130 C   0  0  2  0  0  3  0  0  0  0  0  0
  181.9090  175.2150  138.9020 S   0  0  0  0  0  0  0  0  0  0  0  0
  182.7740  175.8880  136.6040 C   0  0  0  0  0  0  0  0  0  0  0  0
  188.2040  175.0550  134.7980 C   0  0  0  0  0  2  0  0  0  0  0  0
  188.8020  173.7680  135.3330 C   0  0  0  0  0  2  0  0  0  0  0  0
  190.9820  172.6240  135.2200 C   0  0  2  0  0  3  0  0  0  0  0  0
  189.9760  171.7850  134.4660 C   0  0  0  0  0  2  0  0  0  0  0  0
  189.8970  173.2940  134.4040 C   0  0  1  0  0  3  0  0  0  0  0  0
  192.1860  172.6640  134.5000 O   0  0  0  0  0  0  0  0  0  0  0  0
  193.5240  171.0640  136.2270 S   0  0  0  0  0  1  0  0  0  0  0  0
  193.3040  172.6800  135.3740 C   0  0  1  0  0  0  0  0  0  0  0  0
  194.4140  172.8360  134.5690 F   0  0  0  0  0  0  0  0  0  0  0  0
  195.8260  174.0480  137.0890 C   0  0  2  0  0  0  0  0  0  0  0  0
  193.7500  176.2860  136.5130 O   0  0  0  0  0  0  0  0  0  0  0  0
  193.2500  173.8640  136.4000 C   0  0  1  0  0  0  0  0  0  0  0  0
  193.6470  175.2860  134.3820 F   0  0  0  0  0  0  0  0  0  0  0  0
  193.2360  175.2450  135.7080 C   0  0  2  0  0  3  0  0  0  0  0  0
  196.3850  172.9020  136.5520 F   0  0  0  0  0  0  0  0  0  0  0  0
  196.0550  175.2380  136.1430 C   0  0  2  0  0  3  0  0  0  0  0  0
  196.5690  174.3390  138.3770 C   0  0  0  0  0  1  0  0  0  0  0  0
  195.1490  176.4740  136.3570 C   0  0  1  0  0  3  0  0  0  0  0  0
  192.0520  173.7780  137.1120 O   0  0  0  0  0  1  0  0  0  0  0  0
  196.1440  174.8530  134.8040 O   0  0  0  0  0  1  0  0  0  0  0  0
  194.3640  173.7730  137.4680 C   0  0  0  0  0  2  0  0  0  0  0  0
  195.4740  177.6380  135.4700 C   0  0  0  0  0  3  0  0  0  0  0  0
  196.6120  178.0710  135.3920 O   0  0  0  0  0  0  0  0  0  0  0  0
  2  6  2  0  0  0  0
  2  3  1  0  0  0  0
  3  5  2  0  0  0  0
  4  1  2  0  0  0  0
  5  1  1  0  0  0  0
  5  7  1  0  0  0  0
  6  4  1  0  0  0  0
  7  8  2  0  0  0  0
  9 13  1  0  0  0  0
  9 14  1  0  0  0  0
 10 13  2  0  0  0  0
 11 12  1  1  0  0  0
 11 16  1  0  0  0  0
 13 12  1  0  0  0  0
 14 17  2  0  0  0  0
 14 11  1  0  0  0  0
 15 16  1  1  0  0  0
 15 24  1  0  0  0  0
 17 18  1  0  0  0  0
 18  8  1  6  0  0  0
 18 15  1  0  0  0  0
 19 23  2  0  0  0  0
 20 25  1  0  0  0  0
 21 22  1  0  0  0  0
 22 20  2  0  0  0  0
 23 20  1  0  0  0  0
 24 19  1  1  0  0  0
 24 21  1  0  0  0  0
 25 27  2  0  0  0  0
 25 26  1  0  0  0  0
 28 31  1  0  0  0  0
 29 32  2  0  0  0  0
 30 17  1  1  0  0  0
 30 31  1  0  0  0  0
 32 28  1  0  0  0  0
 32 30  1  0  0  0  0
 33 34  1  0  0  0  0
 33  2  1  0  0  0  0
 35 38  1  6  0  0  0
 36 35  1  0  0  0  0
 37 36  1  0  0  0  0
 37 35  1  0  0  0  0
 37 34  1  1  0  0  0
 38 40  1  0  0  0  0
 40 41  1  6  0  0  0
 40 39  1  0  0  0  0
 40 44  1  0  0  0  0
 42 53  1  0  0  0  0
 42 49  1  1  0  0  0
 44 51  1  1  0  0  0
 44 53  1  0  0  0  0
 46 45  1  6  0  0  0
 46 44  1  0  0  0  0
 46 43  1  0  0  0  0
 47 42  1  0  0  0  0
 48 52  1  6  0  0  0
 48 50  1  0  0  0  0
 48 42  1  0  0  0  0
 50 54  1  6  0  0  0
 50 43  1  0  0  0  0
 55 54  2  0  0  0  0
M  END
>  <MODEL>
6

>  <REMARK>
 VINA RESULT:      -5.8      4.272     11.252
  Name = 
  12 active torsions:
  status: ('A' for Active; 'I' for Inactive)
    1  A    between atoms: C_2  and  C_44
    2  A    between atoms: C_6  and  C_20
    3  A    between atoms: C_8  and  O_22
    4  A    between atoms: C_10  and  C_32
    5  A    between atoms: C_11  and  C_38
    6  A    between atoms: C_19  and  C_45
    7  A    between atoms: C_20  and  O_22
    8  A    between atoms: C_27  and  C_54
    9  A    between atoms: N_28  and  C_49
   10  A    between atoms: C_33  and  C_52
   11  A    between atoms: C_43  and  C_51
   12  A    between atoms: C_51  and  C_54
                            x       y       z     vdW  Elec       q    Type
                         _______ _______ _______ _____ _____    ______ ____

>  <TORSDO>
F 12

$$$$
=
 OpenBabel10272401333D

 55 61  0  0  1  0  0  0  0  0999 V2000
  191.6880  177.3550  141.1200 C   0  0  0  0  0  3  0  0  0  0  0  0
  188.9910  177.7200  141.7630 C   0  0  0  0  0  0  0  0  0  0  0  0
  189.3530  177.2070  140.5150 C   0  0  0  0  0  3  0  0  0  0  0  0
  191.3290  177.8660  142.3720 C   0  0  0  0  0  3  0  0  0  0  0  0
  190.7020  177.0200  140.1890 C   0  0  0  0  0  0  0  0  0  0  0  0
  189.9820  178.0510  142.6940 C   0  0  0  0  0  3  0  0  0  0  0  0
  191.0930  176.5060  138.8750 C   0  0  0  0  0  3  0  0  0  0  0  0
  191.7490  175.3940  138.7690 N   0  0  0  0  0  0  0  0  0  0  0  0
  195.7240  175.3000  136.3860 N   0  0  0  0  0  2  0  0  0  0  0  0
  197.1360  176.2940  134.8010 O   0  0  0  0  0  0  0  0  0  0  0  0
  193.7300  176.5890  135.8580 C   0  0  2  0  0  3  0  0  0  0  0  0
  194.7990  176.9360  134.8240 C   0  0  0  0  0  2  0  0  0  0  0  0
  195.9920  176.1840  135.3120 C   0  0  0  0  0  0  0  0  0  0  0  0
  194.3430  175.4890  136.6550 C   0  0  0  0  0  0  0  0  0  0  0  0
  191.4760  175.6540  136.3250 C   0  0  2  0  0  3  0  0  0  0  0  0
  192.4590  176.0680  135.2170 C   0  0  0  0  0  2  0  0  0  0  0  0
  193.6130  174.6490  137.4010 C   0  0  0  0  0  0  0  0  0  0  0  0
  192.1050  174.8240  137.4780 C   0  0  1  0  0  3  0  0  0  0  0  0
  190.1170  173.5430  136.3050 C   0  0  0  0  0  3  0  0  0  0  0  0
  187.7280  173.6040  135.7750 C   0  0  0  0  0  0  0  0  0  0  0  0
  188.9470  175.7480  136.0110 C   0  0  0  0  0  2  0  0  0  0  0  0
  187.7450  174.9370  135.6120 C   0  0  0  0  0  3  0  0  0  0  0  0
  188.9400  172.9110  136.2660 C   0  0  0  0  0  3  0  0  0  0  0  0
  190.2380  174.9470  135.7710 C   0  0  1  0  0  3  0  0  0  0  0  0
  186.5240  172.8250  135.4480 C   0  0  0  0  0  0  0  0  0  0  0  0
  186.6080  171.7700  134.7650 O   0  0  0  0  0  0  0  0  0  0  0  0
  185.2770  173.2410  135.8980 O   0  0  0  0  0  1  0  0  0  0  0  0
  196.1780  172.7220  137.6770 C   0  0  0  0  0  2  0  0  0  0  0  0
  194.2840  171.6950  136.3460 O   0  0  0  0  0  0  0  0  0  0  0  0
  194.2870  173.5090  138.1170 C   0  0  2  0  0  3  0  0  0  0  0  0
  195.8350  174.0260  138.8650 S   0  0  0  0  0  0  0  0  0  0  0  0
  194.7850  172.4490  137.1640 C   0  0  0  0  0  0  0  0  0  0  0  0
  187.5540  177.9470  142.0780 C   0  0  0  0  0  2  0  0  0  0  0  0
  186.9310  178.8380  141.0210 C   0  0  0  0  0  2  0  0  0  0  0  0
  184.5890  178.8150  140.2550 C   0  0  2  0  0  3  0  0  0  0  0  0
  185.4780  178.8620  139.0340 C   0  0  0  0  0  2  0  0  0  0  0  0
  185.8990  178.0550  140.2430 C   0  0  1  0  0  3  0  0  0  0  0  0
  183.5360  177.9150  140.0290 O   0  0  0  0  0  0  0  0  0  0  0  0
  182.1270  178.7710  142.1770 S   0  0  0  0  0  1  0  0  0  0  0  0
  182.2860  178.4970  140.3650 C   0  0  1  0  0  0  0  0  0  0  0  0
  182.2850  179.7530  139.7930 F   0  0  0  0  0  0  0  0  0  0  0  0
  181.4530  177.9680  137.1710 C   0  0  2  0  0  0  0  0  0  0  0  0
  180.5860  175.4700  138.8010 O   0  0  0  0  0  0  0  0  0  0  0  0
  181.0710  177.6820  139.8010 C   0  0  1  0  0  0  0  0  0  0  0  0
  182.6690  175.7590  139.8640 F   0  0  0  0  0  0  0  0  0  0  0  0
  181.3430  176.1610  139.7730 C   0  0  2  0  0  3  0  0  0  0  0  0
  182.4280  178.9460  137.0920 F   0  0  0  0  0  0  0  0  0  0  0  0
  182.0920  176.5750  137.0520 C   0  0  2  0  0  3  0  0  0  0  0  0
  180.5420  178.1560  135.9740 C   0  0  0  0  0  1  0  0  0  0  0  0
  181.2400  175.3810  137.5440 C   0  0  1  0  0  3  0  0  0  0  0  0
  179.9820  177.8630  140.6560 O   0  0  0  0  0  1  0  0  0  0  0  0
  183.4040  176.5420  137.5290 O   0  0  0  0  0  1  0  0  0  0  0  0
  180.5970  178.2010  138.4240 C   0  0  0  0  0  2  0  0  0  0  0  0
  181.8720  174.0390  137.3220 C   0  0  0  0  0  3  0  0  0  0  0  0
  181.8300  173.4970  136.2290 O   0  0  0  0  0  0  0  0  0  0  0  0
  1  4  1  0  0  0  0
  2 33  1  0  0  0  0
  2  6  1  0  0  0  0
  3  2  2  0  0  0  0
  4  6  2  0  0  0  0
  5  3  1  0  0  0  0
  5  1  2  0  0  0  0
  7  5  1  0  0  0  0
  8  7  2  0  0  0  0
  9 14  1  0  0  0  0
 10 13  2  0  0  0  0
 11 12  1  6  0  0  0
 11 14  1  0  0  0  0
 12 13  1  0  0  0  0
 13  9  1  0  0  0  0
 14 17  2  0  0  0  0
 15 16  1  6  0  0  0
 15 18  1  0  0  0  0
 16 11  1  0  0  0  0
 17 18  1  0  0  0  0
 18  8  1  1  0  0  0
 20 23  1  0  0  0  0
 22 20  2  0  0  0  0
 22 21  1  0  0  0  0
 23 19  2  0  0  0  0
 24 21  1  1  0  0  0
 24 19  1  0  0  0  0
 24 15  1  0  0  0  0
 25 20  1  0  0  0  0
 25 27  1  0  0  0  0
 26 25  2  0  0  0  0
 28 31  1  0  0  0  0
 29 32  2  0  0  0  0
 30 17  1  6  0  0  0
 30 31  1  0  0  0  0
 32 28  1  0  0  0  0
 32 30  1  0  0  0  0
 34 33  1  0  0  0  0
 35 38  1  6  0  0  0
 36 37  1  0  0  0  0
 36 35  1  0  0  0  0
 37 35  1  0  0  0  0
 37 34  1  1  0  0  0
 38 40  1  0  0  0  0
 40 41  1  6  0  0  0
 40 39  1  0  0  0  0
 42 49  1  6  0  0  0
 42 53  1  0  0  0  0
 43 46  1  0  0  0  0
 44 40  1  0  0  0  0
 44 51  1  1  0  0  0
 46 44  1  0  0  0  0
 46 45  1  6  0  0  0
 47 42  1  0  0  0  0
 48 42  1  0  0  0  0
 48 52  1  1  0  0  0
 48 50  1  0  0  0  0
 50 54  1  1  0  0  0
 50 43  1  0  0  0  0
 53 44  1  0  0  0  0
 55 54  2  0  0  0  0
M  END
>  <MODEL>
7

>  <REMARK>
 VINA RESULT:      -5.6      2.053      5.182
  Name = 
  12 active torsions:
  status: ('A' for Active; 'I' for Inactive)
    1  A    between atoms: C_2  and  C_44
    2  A    between atoms: C_6  and  C_20
    3  A    between atoms: C_8  and  O_22
    4  A    between atoms: C_10  and  C_32
    5  A    between atoms: C_11  and  C_38
    6  A    between atoms: C_19  and  C_45
    7  A    between atoms: C_20  and  O_22
    8  A    between atoms: C_27  and  C_54
    9  A    between atoms: N_28  and  C_49
   10  A    between atoms: C_33  and  C_52
   11  A    between atoms: C_43  and  C_51
   12  A    between atoms: C_51  and  C_54
                            x       y       z     vdW  Elec       q    Type
                         _______ _______ _______ _____ _____    ______ ____

>  <TORSDO>
F 12

$$$$
=
 OpenBabel10272401333D

 55 61  0  0  1  0  0  0  0  0999 V2000
  180.9910  177.0830  140.2950 C   0  0  0  0  0  3  0  0  0  0  0  0
  182.2790  178.7750  142.1110 C   0  0  0  0  0  0  0  0  0  0  0  0
  182.9640  178.2900  140.9950 C   0  0  0  0  0  3  0  0  0  0  0  0
  180.3010  177.5690  141.4100 C   0  0  0  0  0  3  0  0  0  0  0  0
  182.3240  177.4440  140.0810 C   0  0  0  0  0  0  0  0  0  0  0  0
  180.9430  178.4140  142.3190 C   0  0  0  0  0  3  0  0  0  0  0  0
  183.0410  176.9110  138.9210 C   0  0  0  0  0  3  0  0  0  0  0  0
  182.7250  175.7580  138.4230 N   0  0  0  0  0  0  0  0  0  0  0  0
  181.3700  172.6760  135.2350 N   0  0  0  0  0  2  0  0  0  0  0  0
  181.2690  170.4480  134.5150 O   0  0  0  0  0  0  0  0  0  0  0  0
  183.0610  172.3580  136.9530 C   0  0  2  0  0  3  0  0  0  0  0  0
  182.9180  171.0440  136.1880 C   0  0  0  0  0  2  0  0  0  0  0  0
  181.7910  171.3240  135.2520 C   0  0  0  0  0  0  0  0  0  0  0  0
  182.1950  173.3090  136.2020 C   0  0  0  0  0  0  0  0  0  0  0  0
  184.5210  174.2480  137.6390 C   0  0  2  0  0  3  0  0  0  0  0  0
  184.4840  172.8820  136.9330 C   0  0  0  0  0  2  0  0  0  0  0  0
  182.3310  174.6380  136.3030 C   0  0  0  0  0  0  0  0  0  0  0  0
  183.3790  175.2210  137.2370 C   0  0  1  0  0  3  0  0  0  0  0  0
  186.9990  173.9340  137.3850 C   0  0  0  0  0  3  0  0  0  0  0  0
  188.3770  175.6730  136.3520 C   0  0  0  0  0  0  0  0  0  0  0  0
  185.9150  175.9490  136.3490 C   0  0  0  0  0  2  0  0  0  0  0  0
  187.3130  176.4660  136.1450 C   0  0  0  0  0  3  0  0  0  0  0  0
  188.1780  174.3030  136.8760 C   0  0  0  0  0  3  0  0  0  0  0  0
  185.8800  174.9360  137.5050 C   0  0  1  0  0  3  0  0  0  0  0  0
  189.7390  176.1610  136.0840 C   0  0  0  0  0  0  0  0  0  0  0  0
  190.5710  176.2860  137.0200 O   0  0  0  0  0  1  0  0  0  0  0  0
  190.1240  176.4840  134.7890 O   0  0  0  0  0  0  0  0  0  0  0  0
  181.5270  177.6360  135.4430 C   0  0  0  0  0  2  0  0  0  0  0  0
  179.9820  176.6370  137.1840 O   0  0  0  0  0  0  0  0  0  0  0  0
  181.4760  175.5420  135.4540 C   0  0  2  0  0  3  0  0  0  0  0  0
  182.4760  176.5580  134.3630 S   0  0  0  0  0  0  0  0  0  0  0  0
  180.7880  176.6110  136.2690 C   0  0  0  0  0  0  0  0  0  0  0  0
  182.9870  179.6430  143.0920 C   0  0  0  0  0  2  0  0  0  0  0  0
  183.8400  178.7890  144.0100 C   0  0  0  0  0  2  0  0  0  0  0  0
  186.1540  178.0730  144.4610 C   0  0  2  0  0  3  0  0  0  0  0  0
  185.9570  178.0970  142.9620 C   0  0  0  0  0  2  0  0  0  0  0  0
  185.2970  179.1480  143.8270 C   0  0  1  0  0  3  0  0  0  0  0  0
  187.4110  178.6150  144.7720 O   0  0  0  0  0  0  0  0  0  0  0  0
  188.1440  176.8880  146.7250 S   0  0  0  0  0  1  0  0  0  0  0  0
  188.3570  177.5910  145.0380 C   0  0  1  0  0  0  0  0  0  0  0  0
  188.0640  176.5650  144.1620 F   0  0  0  0  0  0  0  0  0  0  0  0
  190.9820  175.7490  144.0940 C   0  0  2  0  0  0  0  0  0  0  0  0
  191.3590  178.6010  142.9240 O   0  0  0  0  0  0  0  0  0  0  0  0
  189.8340  178.0580  144.7970 C   0  0  1  0  0  0  0  0  0  0  0  0
  189.0570  178.4320  142.4500 F   0  0  0  0  0  0  0  0  0  0  0  0
  190.0330  178.6930  143.4030 C   0  0  2  0  0  3  0  0  0  0  0  0
  190.0190  174.8050  144.4020 F   0  0  0  0  0  0  0  0  0  0  0  0
  190.9160  176.1010  142.6000 C   0  0  2  0  0  3  0  0  0  0  0  0
  192.3290  175.1040  144.3510 C   0  0  0  0  0  1  0  0  0  0  0  0
  191.6000  177.4210  142.1720 C   0  0  1  0  0  3  0  0  0  0  0  0
  190.1390  179.0580  145.7220 O   0  0  0  0  0  1  0  0  0  0  0  0
  189.6320  175.9560  142.0690 O   0  0  0  0  0  1  0  0  0  0  0  0
  190.8610  176.9340  145.0630 C   0  0  0  0  0  2  0  0  0  0  0  0
  191.5860  177.6730  140.6930 C   0  0  0  0  0  3  0  0  0  0  0  0
  190.5560  177.5640  140.0470 O   0  0  0  0  0  0  0  0  0  0  0  0
  1  4  1  0  0  0  0
  2  6  1  0  0  0  0
  2 33  1  0  0  0  0
  3  2  2  0  0  0  0
  4  6  2  0  0  0  0
  5  1  2  0  0  0  0
  5  3  1  0  0  0  0
  7  5  1  0  0  0  0
  8  7  2  0  0  0  0
  9 13  1  0  0  0  0
  9 14  1  0  0  0  0
 10 13  2  0  0  0  0
 11 12  1  6  0  0  0
 13 12  1  0  0  0  0
 14 17  2  0  0  0  0
 14 11  1  0  0  0  0
 15 16  1  6  0  0  0
 16 11  1  0  0  0  0
 17 18  1  0  0  0  0
 18 15  1  0  0  0  0
 18  8  1  1  0  0  0
 19 24  1  0  0  0  0
 20 23  1  0  0  0  0
 22 21  1  0  0  0  0
 22 20  2  0  0  0  0
 23 19  2  0  0  0  0
 24 21  1  6  0  0  0
 24 15  1  0  0  0  0
 25 20  1  0  0  0  0
 25 26  1  0  0  0  0
 27 25  2  0  0  0  0
 28 32  1  0  0  0  0
 30 32  1  0  0  0  0
 30 17  1  1  0  0  0
 31 28  1  0  0  0  0
 31 30  1  0  0  0  0
 32 29  2  0  0  0  0
 33 34  1  0  0  0  0
 35 38  1  6  0  0  0
 36 37  1  0  0  0  0
 36 35  1  0  0  0  0
 37 34  1  1  0  0  0
 37 35  1  0  0  0  0
 38 40  1  0  0  0  0
 40 41  1  6  0  0  0
 40 39  1  0  0  0  0
 42 49  1  1  0  0  0
 42 47  1  0  0  0  0
 42 53  1  0  0  0  0
 43 46  1  0  0  0  0
 44 40  1  0  0  0  0
 44 53  1  0  0  0  0
 44 51  1  1  0  0  0
 46 45  1  6  0  0  0
 46 44  1  0  0  0  0
 48 52  1  1  0  0  0
 48 42  1  0  0  0  0
 50 54  1  6  0  0  0
 50 48  1  0  0  0  0
 50 43  1  0  0  0  0
 55 54  2  0  0  0  0
M  END
>  <MODEL>
8

>  <REMARK>
 VINA RESULT:      -5.3      3.915      7.910
  Name = 
  12 active torsions:
  status: ('A' for Active; 'I' for Inactive)
    1  A    between atoms: C_2  and  C_44
    2  A    between atoms: C_6  and  C_20
    3  A    between atoms: C_8  and  O_22
    4  A    between atoms: C_10  and  C_32
    5  A    between atoms: C_11  and  C_38
    6  A    between atoms: C_19  and  C_45
    7  A    between atoms: C_20  and  O_22
    8  A    between atoms: C_27  and  C_54
    9  A    between atoms: N_28  and  C_49
   10  A    between atoms: C_33  and  C_52
   11  A    between atoms: C_43  and  C_51
   12  A    between atoms: C_51  and  C_54
                            x       y       z     vdW  Elec       q    Type
                         _______ _______ _______ _____ _____    ______ ____

>  <TORSDO>
F 12

$$$$
=
 OpenBabel10272401333D

 55 61  0  0  1  0  0  0  0  0999 V2000
  191.3480  176.0070  138.5860 C   0  0  0  0  0  3  0  0  0  0  0  0
  189.6130  174.6690  136.8480 C   0  0  0  0  0  0  0  0  0  0  0  0
  189.1240  175.6550  137.7080 C   0  0  0  0  0  3  0  0  0  0  0  0
  191.8400  175.0210  137.7250 C   0  0  0  0  0  3  0  0  0  0  0  0
  189.9890  176.3300  138.5780 C   0  0  0  0  0  0  0  0  0  0  0  0
  190.9750  174.3500  136.8570 C   0  0  0  0  0  3  0  0  0  0  0  0
  189.4820  177.3490  139.5000 C   0  0  0  0  0  3  0  0  0  0  0  0
  188.8910  177.0080  140.6000 N   0  0  0  0  0  0  0  0  0  0  0  0
  189.8410  177.6720  145.0900 N   0  0  0  0  0  2  0  0  0  0  0  0
  189.3240  177.2390  147.3340 O   0  0  0  0  0  0  0  0  0  0  0  0
  187.7600  176.8450  144.1400 C   0  0  2  0  0  3  0  0  0  0  0  0
  187.6200  176.8290  145.6600 C   0  0  0  0  0  2  0  0  0  0  0  0
  188.9760  177.2410  146.1250 C   0  0  0  0  0  0  0  0  0  0  0  0
  189.0740  177.5090  143.9060 C   0  0  0  0  0  0  0  0  0  0  0  0
  186.9480  177.7140  141.9590 C   0  0  2  0  0  3  0  0  0  0  0  0
  186.6780  177.6710  143.4720 C   0  0  0  0  0  2  0  0  0  0  0  0
  189.4010  178.0610  142.7300 C   0  0  0  0  0  0  0  0  0  0  0  0
  188.4250  177.9930  141.5670 C   0  0  1  0  0  3  0  0  0  0  0  0
  185.9900  178.4090  139.7440 C   0  0  0  0  0  3  0  0  0  0  0  0
  183.8230  179.5400  139.6240 C   0  0  0  0  0  0  0  0  0  0  0  0
  184.5890  178.6730  141.8140 C   0  0  0  0  0  2  0  0  0  0  0  0
  183.6650  179.4940  140.9570 C   0  0  0  0  0  3  0  0  0  0  0  0
  184.9730  178.8530  138.9980 C   0  0  0  0  0  3  0  0  0  0  0  0
  186.0110  178.6760  141.2270 C   0  0  1  0  0  3  0  0  0  0  0  0
  182.8740  180.2890  138.7840 C   0  0  0  0  0  0  0  0  0  0  0  0
  181.9950  179.6840  138.1150 O   0  0  0  0  0  0  0  0  0  0  0  0
  182.9340  181.6750  138.7260 O   0  0  0  0  0  1  0  0  0  0  0  0
  192.3580  178.6290  143.8730 C   0  0  0  0  0  2  0  0  0  0  0  0
  190.6580  180.3760  144.5600 O   0  0  0  0  0  0  0  0  0  0  0  0
  190.7130  178.7870  142.5860 C   0  0  2  0  0  3  0  0  0  0  0  0
  192.0820  177.6410  142.3980 S   0  0  0  0  0  0  0  0  0  0  0  0
  191.1190  179.4920  143.8580 C   0  0  0  0  0  0  0  0  0  0  0  0
  188.6720  173.9360  135.9570 C   0  0  0  0  0  2  0  0  0  0  0  0
  187.3870  173.6320  136.7040 C   0  0  0  0  0  2  0  0  0  0  0  0
  185.0150  174.2740  136.8790 C   0  0  2  0  0  3  0  0  0  0  0  0
  185.8180  175.5270  136.6200 C   0  0  0  0  0  2  0  0  0  0  0  0
  186.2150  174.2270  135.9570 C   0  0  1  0  0  3  0  0  0  0  0  0
  183.8450  174.3040  136.1040 O   0  0  0  0  0  0  0  0  0  0  0  0
  183.2240  171.7790  135.3490 S   0  0  0  0  0  1  0  0  0  0  0  0
  182.9770  173.2350  136.4470 C   0  0  1  0  0  0  0  0  0  0  0  0
  183.3580  172.8250  137.7080 F   0  0  0  0  0  0  0  0  0  0  0  0
  181.5850  175.7080  138.2130 C   0  0  2  0  0  0  0  0  0  0  0  0
  179.9900  175.4250  135.5630 O   0  0  0  0  0  0  0  0  0  0  0  0
  181.4710  173.6700  136.4870 C   0  0  1  0  0  0  0  0  0  0  0  0
  182.1270  175.1770  134.6020 F   0  0  0  0  0  0  0  0  0  0  0  0
  181.0860  174.5740  135.2950 C   0  0  2  0  0  3  0  0  0  0  0  0
  182.8570  175.6060  138.7470 F   0  0  0  0  0  0  0  0  0  0  0  0
  181.5710  176.7460  137.0790 C   0  0  2  0  0  3  0  0  0  0  0  0
  180.6840  176.2260  139.3160 C   0  0  0  0  0  1  0  0  0  0  0  0
  180.3760  176.6810  136.0990 C   0  0  1  0  0  3  0  0  0  0  0  0
  180.6770  172.5270  136.3760 O   0  0  0  0  0  1  0  0  0  0  0  0
  182.8040  176.8520  136.4300 O   0  0  0  0  0  1  0  0  0  0  0  0
  181.0760  174.3090  137.8380 C   0  0  0  0  0  2  0  0  0  0  0  0
  180.3640  177.7710  135.0680 C   0  0  0  0  0  3  0  0  0  0  0  0
  180.2950  178.9440  135.3950 O   0  0  0  0  0  0  0  0  0  0  0  0
  2  6  2  0  0  0  0
  2  3  1  0  0  0  0
  3  5  2  0  0  0  0
  4  1  2  0  0  0  0
  5  1  1  0  0  0  0
  5  7  1  0  0  0  0
  6  4  1  0  0  0  0
  7  8  2  0  0  0  0
  9 13  1  0  0  0  0
 11 16  1  6  0  0  0
 11 12  1  0  0  0  0
 12 13  1  0  0  0  0
 13 10  2  0  0  0  0
 14 11  1  0  0  0  0
 14  9  1  0  0  0  0
 15 16  1  1  0  0  0
 17 14  2  0  0  0  0
 18  8  1  6  0  0  0
 18 15  1  0  0  0  0
 18 17  1  0  0  0  0
 20 22  2  0  0  0  0
 22 21  1  0  0  0  0
 23 20  1  0  0  0  0
 23 19  2  0  0  0  0
 24 19  1  6  0  0  0
 24 21  1  0  0  0  0
 24 15  1  0  0  0  0
 25 20  1  0  0  0  0
 26 25  2  0  0  0  0
 27 25  1  0  0  0  0
 30 17  1  1  0  0  0
 30 32  1  0  0  0  0
 31 30  1  0  0  0  0
 31 28  1  0  0  0  0
 32 28  1  0  0  0  0
 32 29  2  0  0  0  0
 33 34  1  0  0  0  0
 33  2  1  0  0  0  0
 35 38  1  6  0  0  0
 36 35  1  0  0  0  0
 37 36  1  0  0  0  0
 37 34  1  1  0  0  0
 37 35  1  0  0  0  0
 38 40  1  0  0  0  0
 40 39  1  6  0  0  0
 40 44  1  0  0  0  0
 40 41  1  0  0  0  0
 42 47  1  0  0  0  0
 42 49  1  1  0  0  0
 43 50  1  0  0  0  0
 44 51  1  6  0  0  0
 44 53  1  0  0  0  0
 46 45  1  1  0  0  0
 46 43  1  0  0  0  0
 46 44  1  0  0  0  0
 48 52  1  6  0  0  0
 48 42  1  0  0  0  0
 50 54  1  6  0  0  0
 50 48  1  0  0  0  0
 53 42  1  0  0  0  0
 54 55  2  0  0  0  0
M  END
>  <MODEL>
9

>  <REMARK>
 VINA RESULT:      -4.8      3.736      8.051
  Name = 
  12 active torsions:
  status: ('A' for Active; 'I' for Inactive)
    1  A    between atoms: C_2  and  C_44
    2  A    between atoms: C_6  and  C_20
    3  A    between atoms: C_8  and  O_22
    4  A    between atoms: C_10  and  C_32
    5  A    between atoms: C_11  and  C_38
    6  A    between atoms: C_19  and  C_45
    7  A    between atoms: C_20  and  O_22
    8  A    between atoms: C_27  and  C_54
    9  A    between atoms: N_28  and  C_49
   10  A    between atoms: C_33  and  C_52
   11  A    between atoms: C_43  and  C_51
   12  A    between atoms: C_51  and  C_54
                            x       y       z     vdW  Elec       q    Type
                         _______ _______ _______ _____ _____    ______ ____

>  <TORSDO>
F 12

$$$$
