=
 OpenBabel10272400463D

 25 28  0  0  1  0  0  0  0  0999 V2000
  187.4620  178.0840  145.6000 C   0  0  0  0  0  0  0  0  0  0  0  0
  188.7230  177.5960  145.2460 C   0  0  0  0  0  0  0  0  0  0  0  0
  187.8660  177.5240  147.8980 C   0  0  0  0  0  3  0  0  0  0  0  0
  186.4400  178.6830  144.7070 C   0  0  2  0  0  3  0  0  0  0  0  0
  183.6960  178.9090  143.8110 C   0  0  0  0  0  2  0  0  0  0  0  0
  189.0970  177.0490  147.5550 N   0  0  0  0  0  0  0  0  0  0  0  0
  185.3320  179.1480  145.6920 C   0  0  1  0  0  3  0  0  0  0  0  0
  183.9270  178.6830  145.3030 C   0  0  0  0  0  2  0  0  0  0  0  0
  190.9110  176.5200  145.9230 C   0  0  2  0  0  3  0  0  0  0  0  0
  191.8530  176.7610  147.0030 N   0  0  0  0  0  1  0  0  0  0  0  0
  189.1830  177.6380  143.8920 N   0  0  0  0  0  2  0  0  0  0  0  0
  184.7170  178.1670  142.9360 C   0  0  0  0  0  2  0  0  0  0  0  0
  187.0460  178.0560  146.9050 C   0  0  0  0  0  0  0  0  0  0  0  0
  185.6950  178.6260  147.0890 C   0  0  0  0  0  2  0  0  0  0  0  0
  191.4660  177.1170  144.6300 C   0  0  0  0  0  2  0  0  0  0  0  0
  185.9250  177.6380  143.7140 C   0  0  0  0  0  2  0  0  0  0  0  0
  190.4360  176.9960  143.5070 C   0  0  2  0  0  3  0  0  0  0  0  0
  189.5550  177.0900  146.2670 C   0  0  0  0  0  0  0  0  0  0  0  0
  190.9610  177.5740  142.1980 C   0  0  0  0  0  2  0  0  0  0  0  0
  190.4850  176.7790  140.9890 C   0  0  0  0  0  2  0  0  0  0  0  0
  189.8720  177.6570  138.6770 N   0  0  0  0  0  0  0  0  0  0  0  0
  190.9040  176.8380  138.0620 C   0  0  0  0  0  1  0  0  0  0  0  0
  189.0520  178.4920  137.8150 C   0  0  0  0  0  1  0  0  0  0  0  0
  189.6660  177.6530  140.0980 C   0  0  0  0  0  0  0  0  0  0  0  0
  188.7690  178.3730  140.6110 O   0  0  0  0  0  0  0  0  0  0  0  0
  1 13  1  0  0  0  0
  2  1  2  0  0  0  0
  2 18  1  0  0  0  0
  4 16  1  6  0  0  0
  4  1  1  0  0  0  0
  4  7  1  0  0  0  0
  5  8  1  0  0  0  0
  6  3  1  0  0  0  0
  7  8  1  6  0  0  0
  7 14  1  0  0  0  0
  9 18  1  0  0  0  0
  9 10  1  1  0  0  0
 11  2  1  0  0  0  0
 12 16  1  0  0  0  0
 12  5  1  0  0  0  0
 13 14  1  0  0  0  0
 13  3  2  0  0  0  0
 15  9  1  0  0  0  0
 17 19  1  6  0  0  0
 17 11  1  0  0  0  0
 17 15  1  0  0  0  0
 18  6  2  0  0  0  0
 20 19  1  0  0  0  0
 21 24  1  0  0  0  0
 22 21  1  0  0  0  0
 23 21  1  0  0  0  0
 24 25  2  0  0  0  0
 24 20  1  0  0  0  0
M  END
>  <MODEL>
1

>  <REMARK>
 VINA RESULT:     -10.0      0.000      0.000
  Name = 
  3 active torsions:
  status: ('A' for Active; 'I' for Inactive)
    1  A    between atoms: C_6  and  C_15
    2  A    between atoms: C_6  and  C_23
    3  A    between atoms: C_15  and  C_21
                            x       y       z     vdW  Elec       q    Type
                         _______ _______ _______ _____ _____    ______ ____

>  <TORSDO>
F 3

$$$$
=
 OpenBabel10272400463D

 25 28  0  0  1  0  0  0  0  0999 V2000
  187.3420  177.8340  145.4570 C   0  0  0  0  0  0  0  0  0  0  0  0
  186.5240  178.3470  144.4460 C   0  0  0  0  0  0  0  0  0  0  0  0
  185.7040  178.4190  147.1100 C   0  0  0  0  0  3  0  0  0  0  0  0
  188.6780  177.2060  145.3090 C   0  0  2  0  0  3  0  0  0  0  0  0
  191.4330  176.9130  146.1510 C   0  0  0  0  0  2  0  0  0  0  0  0
  184.9040  178.9180  146.1250 N   0  0  0  0  0  0  0  0  0  0  0  0
  189.0080  176.7230  146.7490 C   0  0  1  0  0  3  0  0  0  0  0  0
  190.3910  177.1550  147.2410 C   0  0  0  0  0  2  0  0  0  0  0  0
  184.3690  179.4760  143.7510 C   0  0  2  0  0  3  0  0  0  0  0  0
  182.9720  179.2630  144.0920 N   0  0  0  0  0  1  0  0  0  0  0  0
  186.9250  178.3050  143.0730 N   0  0  0  0  0  2  0  0  0  0  0  0
  191.1160  177.6720  144.8530 C   0  0  0  0  0  2  0  0  0  0  0  0
  186.9330  177.8620  146.7640 C   0  0  0  0  0  0  0  0  0  0  0  0
  187.9210  177.2640  147.6870 C   0  0  0  0  0  2  0  0  0  0  0  0
  184.6440  178.8820  142.3690 C   0  0  0  0  0  2  0  0  0  0  0  0
  189.6930  178.2330  144.8000 C   0  0  0  0  0  2  0  0  0  0  0  0
  186.1350  178.9720  142.0430 C   0  0  2  0  0  3  0  0  0  0  0  0
  185.2680  178.8780  144.8070 C   0  0  0  0  0  0  0  0  0  0  0  0
  186.4450  178.3960  140.6660 C   0  0  0  0  0  2  0  0  0  0  0  0
  187.9420  178.2390  140.4340 C   0  0  0  0  0  2  0  0  0  0  0  0
  189.4520  177.5890  138.4870 N   0  0  0  0  0  0  0  0  0  0  0  0
  190.4780  177.1190  139.4040 C   0  0  0  0  0  1  0  0  0  0  0  0
  189.7050  177.4830  137.0600 C   0  0  0  0  0  1  0  0  0  0  0  0
  188.2220  178.1510  138.9710 C   0  0  0  0  0  0  0  0  0  0  0  0
  187.3480  178.5560  138.1590 O   0  0  0  0  0  0  0  0  0  0  0  0
  1 13  1  0  0  0  0
  2 18  1  0  0  0  0
  2  1  2  0  0  0  0
  4 16  1  1  0  0  0
  4  1  1  0  0  0  0
  4  7  1  0  0  0  0
  5  8  1  0  0  0  0
  6  3  1  0  0  0  0
  7  8  1  1  0  0  0
  7 14  1  0  0  0  0
  9 10  1  1  0  0  0
  9 18  1  0  0  0  0
 11  2  1  0  0  0  0
 12  5  1  0  0  0  0
 13  3  2  0  0  0  0
 13 14  1  0  0  0  0
 15  9  1  0  0  0  0
 16 12  1  0  0  0  0
 17 19  1  6  0  0  0
 17 15  1  0  0  0  0
 17 11  1  0  0  0  0
 18  6  2  0  0  0  0
 20 19  1  0  0  0  0
 21 24  1  0  0  0  0
 21 22  1  0  0  0  0
 23 21  1  0  0  0  0
 24 20  1  0  0  0  0
 25 24  2  0  0  0  0
M  END
>  <MODEL>
2

>  <REMARK>
 VINA RESULT:      -9.5      2.074      4.715
  Name = 
  3 active torsions:
  status: ('A' for Active; 'I' for Inactive)
    1  A    between atoms: C_6  and  C_15
    2  A    between atoms: C_6  and  C_23
    3  A    between atoms: C_15  and  C_21
                            x       y       z     vdW  Elec       q    Type
                         _______ _______ _______ _____ _____    ______ ____

>  <TORSDO>
F 3

$$$$
=
 OpenBabel10272400463D

 25 28  0  0  1  0  0  0  0  0999 V2000
  189.0730  177.1510  144.2240 C   0  0  0  0  0  0  0  0  0  0  0  0
  188.1930  177.6640  145.1800 C   0  0  0  0  0  0  0  0  0  0  0  0
  190.7630  176.8570  145.9020 C   0  0  0  0  0  3  0  0  0  0  0  0
  188.8200  176.9520  142.7750 C   0  0  2  0  0  3  0  0  0  0  0  0
  189.6570  177.1950  140.0140 C   0  0  0  0  0  2  0  0  0  0  0  0
  189.9050  177.3560  146.8370 N   0  0  0  0  0  0  0  0  0  0  0  0
  190.1060  176.2330  142.2820 C   0  0  1  0  0  3  0  0  0  0  0  0
  190.7360  176.8770  141.0450 C   0  0  0  0  0  2  0  0  0  0  0  0
  187.7260  178.3220  147.5790 C   0  0  2  0  0  3  0  0  0  0  0  0
  187.9560  177.6720  148.8580 N   0  0  0  0  0  1  0  0  0  0  0  0
  186.8670  178.0700  144.8290 N   0  0  0  0  0  2  0  0  0  0  0  0
  188.5760  178.1400  140.5620 C   0  0  0  0  0  2  0  0  0  0  0  0
  190.3320  176.7460  144.5820 C   0  0  0  0  0  0  0  0  0  0  0  0
  191.1110  176.2190  143.4410 C   0  0  0  0  0  2  0  0  0  0  0  0
  186.2510  178.1820  147.2030 C   0  0  0  0  0  2  0  0  0  0  0  0
  188.6150  178.3030  142.0840 C   0  0  0  0  0  2  0  0  0  0  0  0
  186.0070  178.7380  145.8000 C   0  0  2  0  0  3  0  0  0  0  0  0
  188.6320  177.7400  146.5190 C   0  0  0  0  0  0  0  0  0  0  0  0
  184.5420  178.6240  145.3960 C   0  0  0  0  0  2  0  0  0  0  0  0
  184.1640  179.6350  144.3220 C   0  0  0  0  0  2  0  0  0  0  0  0
  183.6800  178.7270  141.9900 N   0  0  0  0  0  0  0  0  0  0  0  0
  185.0160  179.0870  141.5430 C   0  0  0  0  0  1  0  0  0  0  0  0
  182.7870  178.0870  141.0390 C   0  0  0  0  0  1  0  0  0  0  0  0
  183.2450  179.0010  143.3300 C   0  0  0  0  0  0  0  0  0  0  0  0
  182.0810  178.6860  143.6960 O   0  0  0  0  0  0  0  0  0  0  0  0
  1 13  2  0  0  0  0
  1  2  1  0  0  0  0
  2 18  2  0  0  0  0
  3  6  2  0  0  0  0
  4 16  1  6  0  0  0
  4  1  1  0  0  0  0
  5 12  1  0  0  0  0
  5  8  1  0  0  0  0
  7  8  1  6  0  0  0
  7  4  1  0  0  0  0
  7 14  1  0  0  0  0
  9 10  1  1  0  0  0
 11  2  1  0  0  0  0
 11 17  1  0  0  0  0
 12 16  1  0  0  0  0
 13  3  1  0  0  0  0
 14 13  1  0  0  0  0
 15  9  1  0  0  0  0
 17 19  1  6  0  0  0
 17 15  1  0  0  0  0
 18  6  1  0  0  0  0
 18  9  1  0  0  0  0
 20 19  1  0  0  0  0
 21 24  1  0  0  0  0
 22 21  1  0  0  0  0
 23 21  1  0  0  0  0
 24 25  2  0  0  0  0
 24 20  1  0  0  0  0
M  END
>  <MODEL>
3

>  <REMARK>
 VINA RESULT:      -9.3      2.419      5.553
  Name = 
  3 active torsions:
  status: ('A' for Active; 'I' for Inactive)
    1  A    between atoms: C_6  and  C_15
    2  A    between atoms: C_6  and  C_23
    3  A    between atoms: C_15  and  C_21
                            x       y       z     vdW  Elec       q    Type
                         _______ _______ _______ _____ _____    ______ ____

>  <TORSDO>
F 3

$$$$
=
 OpenBabel10272400463D

 25 28  0  0  1  0  0  0  0  0999 V2000
  186.9970  178.1370  144.5370 C   0  0  0  0  0  0  0  0  0  0  0  0
  188.1270  177.6750  143.8570 C   0  0  0  0  0  0  0  0  0  0  0  0
  187.9050  177.3630  146.6190 C   0  0  0  0  0  3  0  0  0  0  0  0
  185.8130  178.8250  143.9640 C   0  0  2  0  0  3  0  0  0  0  0  0
  182.9440  179.1540  143.7570 C   0  0  0  0  0  2  0  0  0  0  0  0
  189.0090  176.9120  145.9570 N   0  0  0  0  0  0  0  0  0  0  0  0
  184.9780  179.2050  145.2180 C   0  0  1  0  0  3  0  0  0  0  0  0
  183.5080  178.7880  145.1280 C   0  0  0  0  0  2  0  0  0  0  0  0
  190.3790  176.5230  143.9070 C   0  0  2  0  0  3  0  0  0  0  0  0
  191.5520  176.6560  144.7540 N   0  0  0  0  0  1  0  0  0  0  0  0
  188.2610  177.8390  142.4420 N   0  0  0  0  0  2  0  0  0  0  0  0
  183.7130  178.4890  142.6060 C   0  0  0  0  0  2  0  0  0  0  0  0
  186.8940  177.9910  145.8950 C   0  0  0  0  0  0  0  0  0  0  0  0
  185.6390  178.5520  146.4390 C   0  0  0  0  0  2  0  0  0  0  0  0
  190.6370  177.2340  142.5780 C   0  0  0  0  0  2  0  0  0  0  0  0
  185.0520  177.8800  143.0310 C   0  0  0  0  0  2  0  0  0  0  0  0
  189.3720  177.2270  141.7200 C   0  0  2  0  0  3  0  0  0  0  0  0
  189.1570  177.0700  144.6070 C   0  0  0  0  0  0  0  0  0  0  0  0
  189.5960  177.9200  140.3810 C   0  0  0  0  0  2  0  0  0  0  0  0
  188.3130  178.0200  139.5670 C   0  0  0  0  0  2  0  0  0  0  0  0
  188.5330  177.3710  137.1120 N   0  0  0  0  0  0  0  0  0  0  0  0
  188.1420  176.0030  137.4100 C   0  0  0  0  0  1  0  0  0  0  0  0
  188.8260  177.7170  135.7310 C   0  0  0  0  0  1  0  0  0  0  0  0
  188.6370  178.3590  138.1500 C   0  0  0  0  0  0  0  0  0  0  0  0
  188.9820  179.5380  137.8700 O   0  0  0  0  0  0  0  0  0  0  0  0
  1 13  1  0  0  0  0
  2  1  2  0  0  0  0
  2 18  1  0  0  0  0
  4 16  1  6  0  0  0
  4  1  1  0  0  0  0
  4  7  1  0  0  0  0
  5  8  1  0  0  0  0
  6  3  1  0  0  0  0
  7  8  1  6  0  0  0
  7 14  1  0  0  0  0
  9 18  1  0  0  0  0
  9 10  1  1  0  0  0
 11  2  1  0  0  0  0
 12 16  1  0  0  0  0
 12  5  1  0  0  0  0
 13 14  1  0  0  0  0
 13  3  2  0  0  0  0
 15  9  1  0  0  0  0
 17 19  1  6  0  0  0
 17 11  1  0  0  0  0
 17 15  1  0  0  0  0
 18  6  2  0  0  0  0
 20 19  1  0  0  0  0
 21 22  1  0  0  0  0
 21 24  1  0  0  0  0
 23 21  1  0  0  0  0
 24 20  1  0  0  0  0
 25 24  2  0  0  0  0
M  END
>  <MODEL>
4

>  <REMARK>
 VINA RESULT:      -9.2      1.438      1.840
  Name = 
  3 active torsions:
  status: ('A' for Active; 'I' for Inactive)
    1  A    between atoms: C_6  and  C_15
    2  A    between atoms: C_6  and  C_23
    3  A    between atoms: C_15  and  C_21
                            x       y       z     vdW  Elec       q    Type
                         _______ _______ _______ _____ _____    ______ ____

>  <TORSDO>
F 3

$$$$
=
 OpenBabel10272400463D

 25 28  0  0  1  0  0  0  0  0999 V2000
  187.8730  177.4180  143.6660 C   0  0  0  0  0  0  0  0  0  0  0  0
  186.6500  177.9850  144.0350 C   0  0  0  0  0  0  0  0  0  0  0  0
  188.6150  177.4740  145.9470 C   0  0  0  0  0  3  0  0  0  0  0  0
  188.3080  177.0140  142.3060 C   0  0  2  0  0  3  0  0  0  0  0  0
  190.3100  176.9540  140.2140 C   0  0  0  0  0  2  0  0  0  0  0  0
  187.4220  178.0260  146.3090 N   0  0  0  0  0  0  0  0  0  0  0  0
  189.6830  176.3340  142.5590 C   0  0  1  0  0  3  0  0  0  0  0  0
  190.8030  176.8560  141.6550 C   0  0  0  0  0  2  0  0  0  0  0  0
  185.1380  178.9160  145.8380 C   0  0  2  0  0  3  0  0  0  0  0  0
  184.7640  178.4580  147.1660 N   0  0  0  0  0  1  0  0  0  0  0  0
  185.6270  178.2410  143.0680 N   0  0  0  0  0  2  0  0  0  0  0  0
  189.0920  177.8790  140.0690 C   0  0  0  0  0  2  0  0  0  0  0  0
  188.8330  177.1590  144.6080 C   0  0  0  0  0  0  0  0  0  0  0  0
  190.0500  176.5480  144.0330 C   0  0  0  0  0  2  0  0  0  0  0  0
  183.9960  178.6170  144.8650 C   0  0  0  0  0  2  0  0  0  0  0  0
  188.4320  178.2420  141.4020 C   0  0  0  0  0  2  0  0  0  0  0  0
  184.4140  178.9650  143.4360 C   0  0  2  0  0  3  0  0  0  0  0  0
  186.4300  178.2690  145.4000 C   0  0  0  0  0  0  0  0  0  0  0  0
  183.2950  178.6890  142.4400 C   0  0  0  0  0  2  0  0  0  0  0  0
  183.8190  178.0870  141.1430 C   0  0  0  0  0  2  0  0  0  0  0  0
  182.3440  179.0490  139.3010 N   0  0  0  0  0  0  0  0  0  0  0  0
  181.2770  178.1170  139.6300 C   0  0  0  0  0  1  0  0  0  0  0  0
  182.1200  179.9950  138.2200 C   0  0  0  0  0  1  0  0  0  0  0  0
  183.5900  179.0370  140.0140 C   0  0  0  0  0  0  0  0  0  0  0  0
  184.5030  179.8500  139.7090 O   0  0  0  0  0  0  0  0  0  0  0  0
  1  2  2  0  0  0  0
  1 13  1  0  0  0  0
  2 18  1  0  0  0  0
  3  6  1  0  0  0  0
  4 16  1  6  0  0  0
  4  7  1  0  0  0  0
  4  1  1  0  0  0  0
  5  8  1  0  0  0  0
  7  8  1  6  0  0  0
  7 14  1  0  0  0  0
  9 10  1  1  0  0  0
 11 17  1  0  0  0  0
 11  2  1  0  0  0  0
 12  5  1  0  0  0  0
 12 16  1  0  0  0  0
 13  3  2  0  0  0  0
 14 13  1  0  0  0  0
 15  9  1  0  0  0  0
 17 19  1  6  0  0  0
 17 15  1  0  0  0  0
 18  9  1  0  0  0  0
 18  6  2  0  0  0  0
 20 19  1  0  0  0  0
 21 22  1  0  0  0  0
 21 24  1  0  0  0  0
 23 21  1  0  0  0  0
 24 20  1  0  0  0  0
 25 24  2  0  0  0  0
M  END
>  <MODEL>
5

>  <REMARK>
 VINA RESULT:      -9.1      2.914      5.875
  Name = 
  3 active torsions:
  status: ('A' for Active; 'I' for Inactive)
    1  A    between atoms: C_6  and  C_15
    2  A    between atoms: C_6  and  C_23
    3  A    between atoms: C_15  and  C_21
                            x       y       z     vdW  Elec       q    Type
                         _______ _______ _______ _____ _____    ______ ____

>  <TORSDO>
F 3

$$$$
=
 OpenBabel10272400463D

 25 28  0  0  1  0  0  0  0  0999 V2000
  187.4660  177.8130  145.4670 C   0  0  0  0  0  0  0  0  0  0  0  0
  186.4170  178.3110  144.6890 C   0  0  0  0  0  0  0  0  0  0  0  0
  186.2730  178.3670  147.4740 C   0  0  0  0  0  3  0  0  0  0  0  0
  188.7360  177.2090  144.9930 C   0  0  2  0  0  3  0  0  0  0  0  0
  191.6180  176.9660  145.1330 C   0  0  0  0  0  2  0  0  0  0  0  0
  185.2480  178.8530  146.7170 N   0  0  0  0  0  0  0  0  0  0  0  0
  189.4170  176.7320  146.3060 C   0  0  1  0  0  3  0  0  0  0  0  0
  190.8710  177.1880  146.4460 C   0  0  0  0  0  2  0  0  0  0  0  0
  184.1380  179.4020  144.5490 C   0  0  2  0  0  3  0  0  0  0  0  0
  182.8710  179.1630  145.2210 N   0  0  0  0  0  1  0  0  0  0  0  0
  186.4700  178.2780  143.2600 N   0  0  0  0  0  2  0  0  0  0  0  0
  190.9790  177.7190  143.9560 C   0  0  0  0  0  2  0  0  0  0  0  0
  187.3890  177.8330  146.8350 C   0  0  0  0  0  0  0  0  0  0  0  0
  188.5830  177.2520  147.4840 C   0  0  0  0  0  2  0  0  0  0  0  0
  184.0760  178.8130  143.1390 C   0  0  0  0  0  2  0  0  0  0  0  0
  189.5770  178.2550  144.2560 C   0  0  0  0  0  2  0  0  0  0  0  0
  185.4400  178.9300  142.4580 C   0  0  2  0  0  3  0  0  0  0  0  0
  185.2780  178.8200  145.3500 C   0  0  0  0  0  0  0  0  0  0  0  0
  185.4130  178.3610  141.0440 C   0  0  0  0  0  2  0  0  0  0  0  0
  183.9920  178.1270  140.5490 C   0  0  0  0  0  2  0  0  0  0  0  0
  182.1710  179.5410  139.4620 N   0  0  0  0  0  0  0  0  0  0  0  0
  181.1340  178.7040  140.0460 C   0  0  0  0  0  1  0  0  0  0  0  0
  181.7630  180.6660  138.6380 C   0  0  0  0  0  1  0  0  0  0  0  0
  183.5630  179.2640  139.6820 C   0  0  0  0  0  0  0  0  0  0  0  0
  184.4450  179.9990  139.1630 O   0  0  0  0  0  0  0  0  0  0  0  0
  1 13  1  0  0  0  0
  2 18  1  0  0  0  0
  2  1  2  0  0  0  0
  4 16  1  1  0  0  0
  4  1  1  0  0  0  0
  4  7  1  0  0  0  0
  5  8  1  0  0  0  0
  6  3  1  0  0  0  0
  7  8  1  1  0  0  0
  7 14  1  0  0  0  0
  9 10  1  1  0  0  0
  9 18  1  0  0  0  0
 11  2  1  0  0  0  0
 12 16  1  0  0  0  0
 12  5  1  0  0  0  0
 13  3  2  0  0  0  0
 13 14  1  0  0  0  0
 15  9  1  0  0  0  0
 17 19  1  6  0  0  0
 17 15  1  0  0  0  0
 17 11  1  0  0  0  0
 18  6  2  0  0  0  0
 20 19  1  0  0  0  0
 21 24  1  0  0  0  0
 21 22  1  0  0  0  0
 23 21  1  0  0  0  0
 24 20  1  0  0  0  0
 25 24  2  0  0  0  0
M  END
>  <MODEL>
6

>  <REMARK>
 VINA RESULT:      -9.0      3.130      5.915
  Name = 
  3 active torsions:
  status: ('A' for Active; 'I' for Inactive)
    1  A    between atoms: C_6  and  C_15
    2  A    between atoms: C_6  and  C_23
    3  A    between atoms: C_15  and  C_21
                            x       y       z     vdW  Elec       q    Type
                         _______ _______ _______ _____ _____    ______ ____

>  <TORSDO>
F 3

$$$$
=
 OpenBabel10272400463D

 25 28  0  0  1  0  0  0  0  0999 V2000
  187.3880  177.7650  143.1440 C   0  0  0  0  0  0  0  0  0  0  0  0
  187.9420  177.8510  141.8630 C   0  0  0  0  0  0  0  0  0  0  0  0
  185.3720  178.8100  142.3680 C   0  0  0  0  0  3  0  0  0  0  0  0
  188.0110  177.1900  144.3620 C   0  0  2  0  0  3  0  0  0  0  0  0
  188.6380  177.3450  147.1850 C   0  0  0  0  0  2  0  0  0  0  0  0
  185.9100  178.8940  141.1180 N   0  0  0  0  0  0  0  0  0  0  0  0
  186.8690  177.2580  145.4140 C   0  0  1  0  0  3  0  0  0  0  0  0
  187.2880  177.9010  146.7370 C   0  0  0  0  0  2  0  0  0  0  0  0
  187.7310  178.5600  139.4440 C   0  0  2  0  0  3  0  0  0  0  0  0
  186.6860  178.4120  138.4450 N   0  0  0  0  0  1  0  0  0  0  0  0
  189.2540  177.3520  141.5860 N   0  0  0  0  0  2  0  0  0  0  0  0
  189.7480  177.5860  146.1500 C   0  0  0  0  0  2  0  0  0  0  0  0
  186.1220  178.2280  143.3880 C   0  0  0  0  0  0  0  0  0  0  0  0
  185.7030  178.0380  144.7930 C   0  0  0  0  0  2  0  0  0  0  0  0
  188.8330  177.5350  139.1730 C   0  0  0  0  0  2  0  0  0  0  0  0
  189.2260  178.0230  144.7780 C   0  0  0  0  0  2  0  0  0  0  0  0
  189.8790  177.5770  140.2860 C   0  0  2  0  0  3  0  0  0  0  0  0
  187.1580  178.4130  140.8330 C   0  0  0  0  0  0  0  0  0  0  0  0
  191.0000  176.5730  140.0440 C   0  0  0  0  0  2  0  0  0  0  0  0
  191.0940  176.1630  138.5800 C   0  0  0  0  0  2  0  0  0  0  0  0
  192.8660  175.9660  136.7590 N   0  0  0  0  0  0  0  0  0  0  0  0
  191.9150  175.3250  135.8640 C   0  0  0  0  0  1  0  0  0  0  0  0
  194.2190  176.1890  136.2780 C   0  0  0  0  0  1  0  0  0  0  0  0
  192.4880  176.3640  138.0860 C   0  0  0  0  0  0  0  0  0  0  0  0
  193.3290  176.9130  138.8460 O   0  0  0  0  0  0  0  0  0  0  0  0
  1 13  1  0  0  0  0
  1  4  1  0  0  0  0
  2  1  2  0  0  0  0
  3 13  2  0  0  0  0
  4 16  1  1  0  0  0
  4  7  1  0  0  0  0
  6  3  1  0  0  0  0
  7 14  1  6  0  0  0
  7  8  1  0  0  0  0
  8  5  1  0  0  0  0
  9 10  1  6  0  0  0
  9 18  1  0  0  0  0
 11  2  1  0  0  0  0
 12  5  1  0  0  0  0
 13 14  1  0  0  0  0
 15  9  1  0  0  0  0
 15 17  1  0  0  0  0
 16 12  1  0  0  0  0
 17 19  1  6  0  0  0
 17 11  1  0  0  0  0
 18  6  2  0  0  0  0
 18  2  1  0  0  0  0
 20 19  1  0  0  0  0
 21 24  1  0  0  0  0
 22 21  1  0  0  0  0
 23 21  1  0  0  0  0
 24 20  1  0  0  0  0
 24 25  2  0  0  0  0
M  END
>  <MODEL>
7

>  <REMARK>
 VINA RESULT:      -8.8      2.485      4.903
  Name = 
  3 active torsions:
  status: ('A' for Active; 'I' for Inactive)
    1  A    between atoms: C_6  and  C_15
    2  A    between atoms: C_6  and  C_23
    3  A    between atoms: C_15  and  C_21
                            x       y       z     vdW  Elec       q    Type
                         _______ _______ _______ _____ _____    ______ ____

>  <TORSDO>
F 3

$$$$
=
 OpenBabel10272400463D

 25 28  0  0  1  0  0  0  0  0999 V2000
  189.6020  177.6520  143.9190 C   0  0  0  0  0  0  0  0  0  0  0  0
  188.9710  177.7100  142.6730 C   0  0  0  0  0  0  0  0  0  0  0  0
  191.6060  176.8240  142.8910 C   0  0  0  0  0  3  0  0  0  0  0  0
  189.0360  178.0260  145.2390 C   0  0  2  0  0  3  0  0  0  0  0  0
  188.6020  177.4640  148.0460 C   0  0  0  0  0  2  0  0  0  0  0  0
  190.9920  176.8800  141.6750 N   0  0  0  0  0  0  0  0  0  0  0  0
  190.2470  177.8760  146.2020 C   0  0  1  0  0  3  0  0  0  0  0  0
  189.9420  177.0420  147.4480 C   0  0  0  0  0  2  0  0  0  0  0  0
  189.0530  177.3420  140.1710 C   0  0  2  0  0  3  0  0  0  0  0  0
  190.0240  177.6750  139.1420 N   0  0  0  0  0  1  0  0  0  0  0  0
  187.6240  178.1740  142.5440 N   0  0  0  0  0  2  0  0  0  0  0  0
  187.4380  177.3080  147.0550 C   0  0  0  0  0  2  0  0  0  0  0  0
  190.9000  177.2250  144.0220 C   0  0  0  0  0  0  0  0  0  0  0  0
  191.4020  177.2460  145.4130 C   0  0  0  0  0  2  0  0  0  0  0  0
  187.8940  178.3370  140.1090 C   0  0  0  0  0  2  0  0  0  0  0  0
  187.8870  177.0850  145.6080 C   0  0  0  0  0  2  0  0  0  0  0  0
  186.9250  178.0930  141.2650 C   0  0  2  0  0  3  0  0  0  0  0  0
  189.7080  177.3310  141.5320 C   0  0  0  0  0  0  0  0  0  0  0  0
  185.7490  179.0630  141.2280 C   0  0  0  0  0  2  0  0  0  0  0  0
  185.1600  179.3020  142.6130 C   0  0  0  0  0  2  0  0  0  0  0  0
  182.9610  178.8800  143.8290 N   0  0  0  0  0  0  0  0  0  0  0  0
  183.6130  179.0320  145.1190 C   0  0  0  0  0  1  0  0  0  0  0  0
  181.5340  178.6030  143.8080 C   0  0  0  0  0  1  0  0  0  0  0  0
  183.7000  178.9910  142.6030 C   0  0  0  0  0  0  0  0  0  0  0  0
  183.1160  178.8510  141.4950 O   0  0  0  0  0  0  0  0  0  0  0  0
  1 13  1  0  0  0  0
  1  4  1  0  0  0  0
  2  1  2  0  0  0  0
  3 13  2  0  0  0  0
  4 16  1  1  0  0  0
  4  7  1  0  0  0  0
  6  3  1  0  0  0  0
  7 14  1  6  0  0  0
  7  8  1  0  0  0  0
  8  5  1  0  0  0  0
  9 10  1  6  0  0  0
  9 18  1  0  0  0  0
 11  2  1  0  0  0  0
 12  5  1  0  0  0  0
 13 14  1  0  0  0  0
 15  9  1  0  0  0  0
 15 17  1  0  0  0  0
 16 12  1  0  0  0  0
 17 19  1  1  0  0  0
 17 11  1  0  0  0  0
 18  6  2  0  0  0  0
 18  2  1  0  0  0  0
 19 20  1  0  0  0  0
 21 22  1  0  0  0  0
 23 21  1  0  0  0  0
 24 20  1  0  0  0  0
 24 21  1  0  0  0  0
 25 24  2  0  0  0  0
M  END
>  <MODEL>
8

>  <REMARK>
 VINA RESULT:      -8.8      2.373      6.036
  Name = 
  3 active torsions:
  status: ('A' for Active; 'I' for Inactive)
    1  A    between atoms: C_6  and  C_15
    2  A    between atoms: C_6  and  C_23
    3  A    between atoms: C_15  and  C_21
                            x       y       z     vdW  Elec       q    Type
                         _______ _______ _______ _____ _____    ______ ____

>  <TORSDO>
F 3

$$$$
=
 OpenBabel10272400463D

 25 28  0  0  1  0  0  0  0  0999 V2000
  186.1720  177.9360  144.2610 C   0  0  0  0  0  0  0  0  0  0  0  0
  185.0280  178.2760  143.5340 C   0  0  0  0  0  0  0  0  0  0  0  0
  185.0980  178.5920  146.3040 C   0  0  0  0  0  3  0  0  0  0  0  0
  187.4470  177.3870  143.7370 C   0  0  2  0  0  3  0  0  0  0  0  0
  190.3420  177.3760  143.6520 C   0  0  0  0  0  2  0  0  0  0  0  0
  183.9800  178.9230  145.5960 N   0  0  0  0  0  0  0  0  0  0  0  0
  188.2660  177.0920  145.0250 C   0  0  1  0  0  3  0  0  0  0  0  0
  189.6830  177.6680  144.9980 C   0  0  0  0  0  2  0  0  0  0  0  0
  182.6630  179.1730  143.4900 C   0  0  2  0  0  3  0  0  0  0  0  0
  181.4770  178.9070  144.2870 N   0  0  0  0  0  1  0  0  0  0  0  0
  184.9730  178.1080  142.1140 N   0  0  0  0  0  2  0  0  0  0  0  0
  189.5530  177.9600  142.4700 C   0  0  0  0  0  2  0  0  0  0  0  0
  186.2010  178.0840  145.6220 C   0  0  0  0  0  0  0  0  0  0  0  0
  187.4860  177.6600  146.2180 C   0  0  0  0  0  2  0  0  0  0  0  0
  182.5410  178.4470  142.1500 C   0  0  0  0  0  2  0  0  0  0  0  0
  188.1390  178.4150  142.8390 C   0  0  0  0  0  2  0  0  0  0  0  0
  183.8330  178.5990  141.3470 C   0  0  2  0  0  3  0  0  0  0  0  0
  183.9070  178.7590  144.2400 C   0  0  0  0  0  0  0  0  0  0  0  0
  183.7430  177.8950  139.9980 C   0  0  0  0  0  2  0  0  0  0  0  0
  184.2660  178.7640  138.8620 C   0  0  0  0  0  2  0  0  0  0  0  0
  185.8410  177.4720  137.3310 N   0  0  0  0  0  0  0  0  0  0  0  0
  184.7210  176.9940  136.5360 C   0  0  0  0  0  1  0  0  0  0  0  0
  187.1810  177.0640  136.9440 C   0  0  0  0  0  1  0  0  0  0  0  0
  185.6360  178.3180  138.4730 C   0  0  0  0  0  0  0  0  0  0  0  0
  186.6210  178.7180  139.1500 O   0  0  0  0  0  0  0  0  0  0  0  0
  1 13  1  0  0  0  0
  2 18  1  0  0  0  0
  2  1  2  0  0  0  0
  4 16  1  6  0  0  0
  4  1  1  0  0  0  0
  4  7  1  0  0  0  0
  5  8  1  0  0  0  0
  6  3  1  0  0  0  0
  7  8  1  6  0  0  0
  7 14  1  0  0  0  0
  9 18  1  0  0  0  0
  9 10  1  1  0  0  0
 11  2  1  0  0  0  0
 12 16  1  0  0  0  0
 12  5  1  0  0  0  0
 13 14  1  0  0  0  0
 13  3  2  0  0  0  0
 15  9  1  0  0  0  0
 17 19  1  6  0  0  0
 17 11  1  0  0  0  0
 17 15  1  0  0  0  0
 18  6  2  0  0  0  0
 20 19  1  0  0  0  0
 21 24  1  0  0  0  0
 22 21  1  0  0  0  0
 23 21  1  0  0  0  0
 24 20  1  0  0  0  0
 24 25  2  0  0  0  0
M  END
>  <MODEL>
9

>  <REMARK>
 VINA RESULT:      -8.7      3.046      5.638
  Name = 
  3 active torsions:
  status: ('A' for Active; 'I' for Inactive)
    1  A    between atoms: C_6  and  C_15
    2  A    between atoms: C_6  and  C_23
    3  A    between atoms: C_15  and  C_21
                            x       y       z     vdW  Elec       q    Type
                         _______ _______ _______ _____ _____    ______ ____

>  <TORSDO>
F 3

$$$$
