=
 OpenBabel10272414393D

 43 47  0  0  1  0  0  0  0  0999 V2000
  184.0580  179.4250  139.8240 C   0  0  0  0  0  2  0  0  0  0  0  0
  182.6400  178.9240  140.1370 C   0  0  1  0  0  3  0  0  0  0  0  0
  184.5010  178.9970  138.4290 C   0  0  0  0  0  2  0  0  0  0  0  0
  182.2660  177.6160  139.4210 C   0  0  0  0  0  2  0  0  0  0  0  0
  183.4910  176.7390  139.1670 C   0  0  0  0  0  2  0  0  0  0  0  0
  184.5510  177.4650  138.3150 C   0  0  1  0  0  3  0  0  0  0  0  0
  183.5190  179.0440  142.5130 N   0  0  0  0  0  2  0  0  0  0  0  0
  182.4370  178.7940  141.6100 C   0  0  0  0  0  0  0  0  0  0  0  0
  181.3120  178.4290  142.0450 O   0  0  0  0  0  0  0  0  0  0  0  0
  183.3960  178.9110  143.9600 C   0  0  0  0  0  2  0  0  0  0  0  0
  185.6100  177.6930  144.0210 N   0  0  0  0  0  2  0  0  0  0  0  0
  185.0680  179.3600  145.5840 O   0  0  0  0  0  0  0  0  0  0  0  0
  184.7310  178.6780  144.5810 C   0  0  0  0  0  0  0  0  0  0  0  0
  186.9230  177.3630  144.4890 C   0  0  0  0  0  0  0  0  0  0  0  0
  187.6040  176.5120  143.8570 O   0  0  0  0  0  0  0  0  0  0  0  0
  187.5070  177.9900  145.7150 C   0  0  0  0  0  2  0  0  0  0  0  0
  188.9690  177.6980  145.8130 C   0  0  0  0  0  0  0  0  0  0  0  0
  190.8560  176.5950  147.0240 C   0  0  0  0  0  2  0  0  0  0  0  0
  191.3620  177.9140  144.9910 C   0  0  0  0  0  2  0  0  0  0  0  0
  191.5950  176.5830  145.6910 C   0  0  0  0  0  2  0  0  0  0  0  0
  189.8770  178.0820  144.6650 C   0  0  0  0  0  2  0  0  0  0  0  0
  189.4050  176.9550  146.8440 C   0  0  0  0  0  3  0  0  0  0  0  0
  184.5690  177.0180  136.8470 C   0  0  2  0  0  3  0  0  0  0  0  0
  181.6890  171.2120  136.0890 C   0  0  0  0  0  0  0  0  0  0  0  0
  183.7150  175.8090  136.5690 C   0  0  0  0  0  0  0  0  0  0  0  0
  182.0570  173.6050  136.0570 C   0  0  0  0  0  0  0  0  0  0  0  0
  182.9680  171.0180  136.6200 C   0  0  0  0  0  3  0  0  0  0  0  0
  180.8890  170.1460  135.8470 F   0  0  0  0  0  0  0  0  0  0  0  0
  183.3500  173.4090  136.5940 C   0  0  0  0  0  0  0  0  0  0  0  0
  181.2330  172.5050  135.8080 C   0  0  0  0  0  3  0  0  0  0  0  0
  183.7990  172.1160  136.8730 C   0  0  0  0  0  3  0  0  0  0  0  0
  184.1710  174.5110  136.8490 C   0  0  0  0  0  3  0  0  0  0  0  0
  182.4350  175.9950  136.0350 C   0  0  0  0  0  3  0  0  0  0  0  0
  181.6070  174.8990  135.7790 C   0  0  0  0  0  3  0  0  0  0  0  0
  185.9970  176.8690  136.3250 C   0  0  0  0  0  2  0  0  0  0  0  0
  189.0320  176.8500  138.5070 C   0  0  0  0  0  2  0  0  0  0  0  0
  189.0140  178.3630  138.7530 C   0  0  1  0  0  3  0  0  0  0  0  0
  187.7680  178.3880  136.5230 C   0  0  0  0  0  2  0  0  0  0  0  0
  187.7950  176.3490  137.7360 C   0  0  0  0  0  2  0  0  0  0  0  0
  186.9410  177.4440  137.2690 N   0  0  0  0  0  0  0  0  0  0  0  0
  188.7090  179.1420  137.4660 C   0  0  0  0  0  2  0  0  0  0  0  0
  188.5920  178.1330  140.9150 C   0  0  0  0  0  1  0  0  0  0  0  0
  188.0730  178.6760  139.7380 O   0  0  0  0  0  0  0  0  0  0  0  0
  1  2  1  0  0  0  0
  2  8  1  1  0  0  0
  3  1  1  0  0  0  0
  4  2  1  0  0  0  0
  5  4  1  0  0  0  0
  6 23  1  6  0  0  0
  6  3  1  0  0  0  0
  6  5  1  0  0  0  0
  7 10  1  0  0  0  0
  8  9  2  0  0  0  0
  8  7  1  0  0  0  0
 10 13  1  0  0  0  0
 11 14  1  0  0  0  0
 11 13  1  0  0  0  0
 13 12  2  0  0  0  0
 14 16  1  0  0  0  0
 15 14  2  0  0  0  0
 16 17  1  0  0  0  0
 17 22  2  0  0  0  0
 19 20  1  0  0  0  0
 20 18  1  0  0  0  0
 21 19  1  0  0  0  0
 21 17  1  0  0  0  0
 22 18  1  0  0  0  0
 23 35  1  1  0  0  0
 24 27  1  0  0  0  0
 25 23  1  0  0  0  0
 25 32  1  0  0  0  0
 26 29  1  0  0  0  0
 27 31  2  0  0  0  0
 28 24  1  0  0  0  0
 29 32  2  0  0  0  0
 29 31  1  0  0  0  0
 30 26  1  0  0  0  0
 30 24  2  0  0  0  0
 33 25  2  0  0  0  0
 34 33  1  0  0  0  0
 34 26  2  0  0  0  0
 35 40  1  0  0  0  0
 36 37  1  0  0  0  0
 37 43  1  1  0  0  0
 38 40  1  0  0  0  0
 38 41  1  0  0  0  0
 39 36  1  0  0  0  0
 40 39  1  0  0  0  0
 41 37  1  0  0  0  0
 43 42  1  0  0  0  0
M  END
>  <MODEL>
1

>  <REMARK>
 VINA RESULT:      -8.7      0.000      0.000
  Name = 
  10 active torsions:
  status: ('A' for Active; 'I' for Inactive)
    1  A    between atoms: C_1  and  C_34
    2  A    between atoms: C_1  and  N_35
    3  A    between atoms: N_3  and  C_42
    4  A    between atoms: C_6  and  C_12
    5  A    between atoms: C_8  and  C_34
    6  A    between atoms: C_11  and  C_14
    7  A    between atoms: C_14  and  C_22
    8  A    between atoms: C_15  and  C_42
    9  A    between atoms: C_19  and  O_37
   10  A    between atoms: C_34  and  C_38
                            x       y       z     vdW  Elec       q    Type
                         _______ _______ _______ _____ _____    ______ ____

>  <TORSDO>
F 10

$$$$
=
 OpenBabel10272414393D

 43 47  0  0  1  0  0  0  0  0999 V2000
  183.6590  175.8890  138.4210 C   0  0  0  0  0  2  0  0  0  0  0  0
  183.8210  176.8620  137.2420 C   0  0  1  0  0  3  0  0  0  0  0  0
  183.1510  176.6080  139.6660 C   0  0  0  0  0  2  0  0  0  0  0  0
  184.1470  178.3040  137.6620 C   0  0  0  0  0  2  0  0  0  0  0  0
  184.9270  178.3500  138.9750 C   0  0  0  0  0  2  0  0  0  0  0  0
  184.1510  177.6800  140.1280 C   0  0  1  0  0  3  0  0  0  0  0  0
  185.6200  175.2000  136.5850 N   0  0  0  0  0  2  0  0  0  0  0  0
  184.8350  176.3550  136.2720 C   0  0  0  0  0  0  0  0  0  0  0  0
  185.0130  176.9750  135.1890 O   0  0  0  0  0  0  0  0  0  0  0  0
  186.6440  174.6670  135.6940 C   0  0  0  0  0  2  0  0  0  0  0  0
  188.9690  174.3160  136.6230 N   0  0  0  0  0  2  0  0  0  0  0  0
  188.2410  176.4160  135.8620 O   0  0  0  0  0  0  0  0  0  0  0  0
  187.9880  175.1990  136.0610 C   0  0  0  0  0  0  0  0  0  0  0  0
  190.3020  174.6670  137.0120 C   0  0  0  0  0  0  0  0  0  0  0  0
  191.0730  173.7670  137.4400 O   0  0  0  0  0  0  0  0  0  0  0  0
  190.8040  176.0740  136.9380 C   0  0  0  0  0  2  0  0  0  0  0  0
  190.9810  176.6450  138.3070 C   0  0  0  0  0  0  0  0  0  0  0  0
  189.9570  177.4690  140.4330 C   0  0  0  0  0  2  0  0  0  0  0  0
  192.4220  177.5240  140.2050 C   0  0  0  0  0  2  0  0  0  0  0  0
  191.2730  177.1050  141.1110 C   0  0  0  0  0  2  0  0  0  0  0  0
  192.3720  176.7330  138.8950 C   0  0  0  0  0  2  0  0  0  0  0  0
  189.8840  176.9070  139.0380 C   0  0  0  0  0  3  0  0  0  0  0  0
  183.4890  178.6810  141.0840 C   0  0  2  0  0  3  0  0  0  0  0  0
  186.6570  177.9990  146.7470 C   0  0  0  0  0  0  0  0  0  0  0  0
  184.0060  178.6060  142.4960 C   0  0  0  0  0  0  0  0  0  0  0  0
  184.9180  178.5280  145.1490 C   0  0  0  0  0  0  0  0  0  0  0  0
  187.4780  177.5440  145.7110 C   0  0  0  0  0  3  0  0  0  0  0  0
  187.1020  177.9640  148.0260 F   0  0  0  0  0  0  0  0  0  0  0  0
  185.7470  178.0680  144.1000 C   0  0  0  0  0  0  0  0  0  0  0  0
  185.3780  178.4910  146.4670 C   0  0  0  0  0  3  0  0  0  0  0  0
  187.0240  177.5780  144.3870 C   0  0  0  0  0  3  0  0  0  0  0  0
  185.2890  178.1110  142.7810 C   0  0  0  0  0  3  0  0  0  0  0  0
  183.1890  179.0580  143.5390 C   0  0  0  0  0  3  0  0  0  0  0  0
  183.6410  179.0190  144.8610 C   0  0  0  0  0  3  0  0  0  0  0  0
  181.9650  178.6060  141.0060 C   0  0  0  0  0  2  0  0  0  0  0  0
  179.9830  179.3920  137.9360 C   0  0  0  0  0  2  0  0  0  0  0  0
  180.1540  180.9100  138.0660 C   0  0  1  0  0  3  0  0  0  0  0  0
  180.4650  180.3420  140.5370 C   0  0  0  0  0  2  0  0  0  0  0  0
  180.8140  178.6000  138.9630 C   0  0  0  0  0  2  0  0  0  0  0  0
  181.4730  179.4680  139.9430 N   0  0  0  0  0  0  0  0  0  0  0  0
  179.9820  181.3770  139.5170 C   0  0  0  0  0  2  0  0  0  0  0  0
  181.1770  182.4670  136.8660 C   0  0  0  0  0  1  0  0  0  0  0  0
  181.4090  181.2920  137.5840 O   0  0  0  0  0  0  0  0  0  0  0  0
  1  3  1  0  0  0  0
  2  8  1  6  0  0  0
  2  4  1  0  0  0  0
  2  1  1  0  0  0  0
  3  6  1  0  0  0  0
  4  5  1  0  0  0  0
  5  6  1  0  0  0  0
  6 23  1  6  0  0  0
  8  7  1  0  0  0  0
  9  8  2  0  0  0  0
 10 13  1  0  0  0  0
 10  7  1  0  0  0  0
 11 14  1  0  0  0  0
 12 13  2  0  0  0  0
 13 11  1  0  0  0  0
 14 15  2  0  0  0  0
 16 14  1  0  0  0  0
 16 17  1  0  0  0  0
 17 21  1  0  0  0  0
 17 22  2  0  0  0  0
 18 20  1  0  0  0  0
 19 20  1  0  0  0  0
 21 19  1  0  0  0  0
 22 18  1  0  0  0  0
 23 35  1  1  0  0  0
 23 25  1  0  0  0  0
 24 28  1  0  0  0  0
 25 32  2  0  0  0  0
 25 33  1  0  0  0  0
 26 30  2  0  0  0  0
 27 24  2  0  0  0  0
 29 31  2  0  0  0  0
 29 26  1  0  0  0  0
 30 24  1  0  0  0  0
 31 27  1  0  0  0  0
 32 29  1  0  0  0  0
 33 34  2  0  0  0  0
 34 26  1  0  0  0  0
 36 37  1  0  0  0  0
 36 39  1  0  0  0  0
 37 43  1  1  0  0  0
 37 41  1  0  0  0  0
 39 40  1  0  0  0  0
 40 38  1  0  0  0  0
 40 35  1  0  0  0  0
 41 38  1  0  0  0  0
 42 43  1  0  0  0  0
M  END
>  <MODEL>
2

>  <REMARK>
 VINA RESULT:      -8.6      4.149      8.374
  Name = 
  10 active torsions:
  status: ('A' for Active; 'I' for Inactive)
    1  A    between atoms: C_1  and  C_34
    2  A    between atoms: C_1  and  N_35
    3  A    between atoms: N_3  and  C_42
    4  A    between atoms: C_6  and  C_12
    5  A    between atoms: C_8  and  C_34
    6  A    between atoms: C_11  and  C_14
    7  A    between atoms: C_14  and  C_22
    8  A    between atoms: C_15  and  C_42
    9  A    between atoms: C_19  and  O_37
   10  A    between atoms: C_34  and  C_38
                            x       y       z     vdW  Elec       q    Type
                         _______ _______ _______ _____ _____    ______ ____

>  <TORSDO>
F 10

$$$$
=
 OpenBabel10272414393D

 43 47  0  0  1  0  0  0  0  0999 V2000
  188.8660  176.0090  137.3240 C   0  0  0  0  0  2  0  0  0  0  0  0
  189.7170  177.2880  137.3800 C   0  0  1  0  0  3  0  0  0  0  0  0
  187.4170  176.3230  136.9700 C   0  0  0  0  0  2  0  0  0  0  0  0
  188.9300  178.5450  137.7830 C   0  0  0  0  0  2  0  0  0  0  0  0
  187.7540  178.2090  138.7000 C   0  0  0  0  0  2  0  0  0  0  0  0
  186.7730  177.2210  138.0370 C   0  0  1  0  0  3  0  0  0  0  0  0
  190.8340  177.4890  139.6490 N   0  0  0  0  0  2  0  0  0  0  0  0
  190.8980  177.1000  138.2720 C   0  0  0  0  0  0  0  0  0  0  0  0
  191.9620  176.6260  137.7910 O   0  0  0  0  0  0  0  0  0  0  0  0
  191.9580  177.3570  140.5670 C   0  0  0  0  0  2  0  0  0  0  0  0
  191.4350  178.4750  142.7740 N   0  0  0  0  0  2  0  0  0  0  0  0
  191.1080  176.1730  142.4420 O   0  0  0  0  0  0  0  0  0  0  0  0
  191.4780  177.2830  141.9770 C   0  0  0  0  0  0  0  0  0  0  0  0
  190.9890  178.5730  144.1310 C   0  0  0  0  0  0  0  0  0  0  0  0
  190.9550  179.7040  144.6850 O   0  0  0  0  0  0  0  0  0  0  0  0
  190.5730  177.3700  144.9160 C   0  0  0  0  0  2  0  0  0  0  0  0
  189.1110  177.4180  145.2220 C   0  0  0  0  0  0  0  0  0  0  0  0
  187.2830  177.6860  146.9060 C   0  0  0  0  0  2  0  0  0  0  0  0
  186.6680  177.2780  144.5420 C   0  0  0  0  0  2  0  0  0  0  0  0
  186.4050  178.1610  145.7530 C   0  0  0  0  0  2  0  0  0  0  0  0
  188.1180  177.4390  144.0810 C   0  0  0  0  0  2  0  0  0  0  0  0
  188.7300  177.6090  146.4970 C   0  0  0  0  0  3  0  0  0  0  0  0
  185.4970  177.8890  137.5050 C   0  0  2  0  0  3  0  0  0  0  0  0
  181.8870  179.0160  142.8220 C   0  0  0  0  0  0  0  0  0  0  0  0
  184.4730  178.1790  138.5700 C   0  0  0  0  0  0  0  0  0  0  0  0
  182.5230  178.7670  140.5000 C   0  0  0  0  0  0  0  0  0  0  0  0
  183.1840  178.6750  143.2180 C   0  0  0  0  0  3  0  0  0  0  0  0
  180.9490  179.3040  143.7560 F   0  0  0  0  0  0  0  0  0  0  0  0
  183.8340  178.4220  140.9000 C   0  0  0  0  0  0  0  0  0  0  0  0
  181.5560  179.0630  141.4640 C   0  0  0  0  0  3  0  0  0  0  0  0
  184.1580  178.3780  142.2580 C   0  0  0  0  0  3  0  0  0  0  0  0
  184.8020  178.1320  139.9350 C   0  0  0  0  0  3  0  0  0  0  0  0
  183.1730  178.5200  138.1810 C   0  0  0  0  0  3  0  0  0  0  0  0
  182.1990  178.8120  139.1410 C   0  0  0  0  0  3  0  0  0  0  0  0
  184.9180  177.1210  136.3190 C   0  0  0  0  0  2  0  0  0  0  0  0
  181.7530  175.1780  135.8910 C   0  0  0  0  0  2  0  0  0  0  0  0
  181.9080  174.4040  137.2060 C   0  0  1  0  0  3  0  0  0  0  0  0
  184.3870  174.9000  136.8360 C   0  0  0  0  0  2  0  0  0  0  0  0
  182.8160  176.2790  135.7100 C   0  0  0  0  0  2  0  0  0  0  0  0
  183.8390  176.2520  136.7590 N   0  0  0  0  0  0  0  0  0  0  0  0
  183.3530  173.9330  137.4200 C   0  0  0  0  0  2  0  0  0  0  0  0
  180.3250  174.6020  138.7430 C   0  0  0  0  0  1  0  0  0  0  0  0
  181.4990  175.2000  138.2790 O   0  0  0  0  0  0  0  0  0  0  0  0
  1  2  1  0  0  0  0
  2  4  1  0  0  0  0
  2  8  1  1  0  0  0
  3  1  1  0  0  0  0
  3  6  1  0  0  0  0
  4  5  1  0  0  0  0
  6 23  1  6  0  0  0
  6  5  1  0  0  0  0
  7 10  1  0  0  0  0
  8  7  1  0  0  0  0
  9  8  2  0  0  0  0
 10 13  1  0  0  0  0
 11 14  1  0  0  0  0
 13 12  2  0  0  0  0
 13 11  1  0  0  0  0
 14 15  2  0  0  0  0
 14 16  1  0  0  0  0
 16 17  1  0  0  0  0
 17 22  2  0  0  0  0
 19 20  1  0  0  0  0
 20 18  1  0  0  0  0
 21 19  1  0  0  0  0
 21 17  1  0  0  0  0
 22 18  1  0  0  0  0
 23 35  1  6  0  0  0
 23 25  1  0  0  0  0
 24 27  1  0  0  0  0
 24 28  1  0  0  0  0
 25 32  1  0  0  0  0
 26 29  1  0  0  0  0
 26 30  1  0  0  0  0
 29 31  1  0  0  0  0
 30 24  2  0  0  0  0
 31 27  2  0  0  0  0
 32 29  2  0  0  0  0
 33 25  2  0  0  0  0
 33 34  1  0  0  0  0
 34 26  2  0  0  0  0
 35 40  1  0  0  0  0
 36 37  1  0  0  0  0
 37 41  1  0  0  0  0
 37 43  1  1  0  0  0
 38 41  1  0  0  0  0
 39 36  1  0  0  0  0
 39 40  1  0  0  0  0
 40 38  1  0  0  0  0
 43 42  1  0  0  0  0
M  END
>  <MODEL>
3

>  <REMARK>
 VINA RESULT:      -8.2      3.082      6.632
  Name = 
  10 active torsions:
  status: ('A' for Active; 'I' for Inactive)
    1  A    between atoms: C_1  and  C_34
    2  A    between atoms: C_1  and  N_35
    3  A    between atoms: N_3  and  C_42
    4  A    between atoms: C_6  and  C_12
    5  A    between atoms: C_8  and  C_34
    6  A    between atoms: C_11  and  C_14
    7  A    between atoms: C_14  and  C_22
    8  A    between atoms: C_15  and  C_42
    9  A    between atoms: C_19  and  O_37
   10  A    between atoms: C_34  and  C_38
                            x       y       z     vdW  Elec       q    Type
                         _______ _______ _______ _____ _____    ______ ____

>  <TORSDO>
F 10

$$$$
=
 OpenBabel10272414393D

 43 47  0  0  1  0  0  0  0  0999 V2000
  189.2550  176.6670  137.2730 C   0  0  0  0  0  2  0  0  0  0  0  0
  189.9000  177.8070  138.0770 C   0  0  1  0  0  3  0  0  0  0  0  0
  187.8290  177.0190  136.8620 C   0  0  0  0  0  2  0  0  0  0  0  0
  188.8980  178.6490  138.8830 C   0  0  0  0  0  2  0  0  0  0  0  0
  187.6810  177.8290  139.3090 C   0  0  0  0  0  2  0  0  0  0  0  0
  186.9380  177.2310  138.0970 C   0  0  1  0  0  3  0  0  0  0  0  0
  191.0170  177.6470  140.3490 N   0  0  0  0  0  2  0  0  0  0  0  0
  190.9800  177.2840  138.9650 C   0  0  0  0  0  0  0  0  0  0  0  0
  191.8760  176.5470  138.4740 O   0  0  0  0  0  0  0  0  0  0  0  0
  192.0560  177.1930  141.2650 C   0  0  0  0  0  2  0  0  0  0  0  0
  191.8170  176.4760  143.6780 N   0  0  0  0  0  2  0  0  0  0  0  0
  191.2580  178.6440  142.9670 O   0  0  0  0  0  0  0  0  0  0  0  0
  191.6810  177.4940  142.6770 C   0  0  0  0  0  0  0  0  0  0  0  0
  191.5150  176.6110  145.0710 C   0  0  0  0  0  0  0  0  0  0  0  0
  191.7410  175.6420  145.8440 O   0  0  0  0  0  0  0  0  0  0  0  0
  190.9270  177.8650  145.6360 C   0  0  0  0  0  2  0  0  0  0  0  0
  189.4690  177.6880  145.9100 C   0  0  0  0  0  0  0  0  0  0  0  0
  187.6020  177.5610  147.5650 C   0  0  0  0  0  2  0  0  0  0  0  0
  187.0770  177.2790  145.1620 C   0  0  0  0  0  2  0  0  0  0  0  0
  186.6810  178.0100  146.4370 C   0  0  0  0  0  2  0  0  0  0  0  0
  188.4970  177.6740  144.7510 C   0  0  0  0  0  2  0  0  0  0  0  0
  189.0500  177.7150  147.1860 C   0  0  0  0  0  3  0  0  0  0  0  0
  185.6540  177.9870  137.7310 C   0  0  2  0  0  3  0  0  0  0  0  0
  182.5060  178.9210  143.3700 C   0  0  0  0  0  0  0  0  0  0  0  0
  184.7180  178.1940  138.8920 C   0  0  0  0  0  0  0  0  0  0  0  0
  182.9200  178.6150  141.0040 C   0  0  0  0  0  0  0  0  0  0  0  0
  183.8760  178.8020  143.6290 C   0  0  0  0  0  3  0  0  0  0  0  0
  181.6410  179.1280  144.3910 F   0  0  0  0  0  0  0  0  0  0  0  0
  184.3030  178.4940  141.2650 C   0  0  0  0  0  0  0  0  0  0  0  0
  182.0280  178.8280  142.0580 C   0  0  0  0  0  3  0  0  0  0  0  0
  184.7750  178.5890  142.5780 C   0  0  0  0  0  3  0  0  0  0  0  0
  185.1950  178.2870  140.2100 C   0  0  0  0  0  3  0  0  0  0  0  0
  183.3460  178.3130  138.6410 C   0  0  0  0  0  3  0  0  0  0  0  0
  182.4480  178.5210  139.6910 C   0  0  0  0  0  3  0  0  0  0  0  0
  184.9660  177.3660  136.5170 C   0  0  0  0  0  2  0  0  0  0  0  0
  183.9770  173.7740  136.8170 C   0  0  0  0  0  2  0  0  0  0  0  0
  185.2640  173.2400  136.1760 C   0  0  1  0  0  3  0  0  0  0  0  0
  185.2960  175.5480  135.0800 C   0  0  0  0  0  2  0  0  0  0  0  0
  184.0090  175.2960  137.0580 C   0  0  0  0  0  2  0  0  0  0  0  0
  185.1980  175.9320  136.4850 N   0  0  0  0  0  0  0  0  0  0  0  0
  185.6730  174.0690  134.9510 C   0  0  0  0  0  2  0  0  0  0  0  0
  187.2070  172.2830  136.6430 C   0  0  0  0  0  1  0  0  0  0  0  0
  186.2980  173.2320  137.1170 O   0  0  0  0  0  0  0  0  0  0  0  0
  1  2  1  0  0  0  0
  2  4  1  0  0  0  0
  2  8  1  1  0  0  0
  3  1  1  0  0  0  0
  3  6  1  0  0  0  0
  4  5  1  0  0  0  0
  6 23  1  6  0  0  0
  6  5  1  0  0  0  0
  7 10  1  0  0  0  0
  8  7  1  0  0  0  0
  9  8  2  0  0  0  0
 10 13  1  0  0  0  0
 11 14  1  0  0  0  0
 13 12  2  0  0  0  0
 13 11  1  0  0  0  0
 14 16  1  0  0  0  0
 14 15  2  0  0  0  0
 16 17  1  0  0  0  0
 17 22  2  0  0  0  0
 19 20  1  0  0  0  0
 20 18  1  0  0  0  0
 21 19  1  0  0  0  0
 21 17  1  0  0  0  0
 22 18  1  0  0  0  0
 23 35  1  6  0  0  0
 23 25  1  0  0  0  0
 24 27  1  0  0  0  0
 24 28  1  0  0  0  0
 25 32  1  0  0  0  0
 26 29  1  0  0  0  0
 26 30  1  0  0  0  0
 29 31  1  0  0  0  0
 30 24  2  0  0  0  0
 31 27  2  0  0  0  0
 32 29  2  0  0  0  0
 33 25  2  0  0  0  0
 33 34  1  0  0  0  0
 34 26  2  0  0  0  0
 36 39  1  0  0  0  0
 37 36  1  0  0  0  0
 37 43  1  1  0  0  0
 38 40  1  0  0  0  0
 40 35  1  0  0  0  0
 40 39  1  0  0  0  0
 41 38  1  0  0  0  0
 41 37  1  0  0  0  0
 42 43  1  0  0  0  0
M  END
>  <MODEL>
4

>  <REMARK>
 VINA RESULT:      -8.2      3.390      6.425
  Name = 
  10 active torsions:
  status: ('A' for Active; 'I' for Inactive)
    1  A    between atoms: C_1  and  C_34
    2  A    between atoms: C_1  and  N_35
    3  A    between atoms: N_3  and  C_42
    4  A    between atoms: C_6  and  C_12
    5  A    between atoms: C_8  and  C_34
    6  A    between atoms: C_11  and  C_14
    7  A    between atoms: C_14  and  C_22
    8  A    between atoms: C_15  and  C_42
    9  A    between atoms: C_19  and  O_37
   10  A    between atoms: C_34  and  C_38
                            x       y       z     vdW  Elec       q    Type
                         _______ _______ _______ _____ _____    ______ ____

>  <TORSDO>
F 10

$$$$
=
 OpenBabel10272414393D

 43 47  0  0  1  0  0  0  0  0999 V2000
  189.7040  177.9900  140.1400 C   0  0  0  0  0  2  0  0  0  0  0  0
  191.1730  177.6200  140.3940 C   0  0  1  0  0  3  0  0  0  0  0  0
  188.9620  178.2400  141.4480 C   0  0  0  0  0  2  0  0  0  0  0  0
  191.4160  176.9050  141.7320 C   0  0  0  0  0  2  0  0  0  0  0  0
  190.1980  176.0910  142.1700 C   0  0  0  0  0  2  0  0  0  0  0  0
  188.9420  176.9740  142.3190 C   0  0  1  0  0  3  0  0  0  0  0  0
  190.8760  175.9100  138.5440 N   0  0  0  0  0  2  0  0  0  0  0  0
  191.7210  176.8160  139.2620 C   0  0  0  0  0  0  0  0  0  0  0  0
  192.9410  176.9200  138.9680 O   0  0  0  0  0  0  0  0  0  0  0  0
  191.3510  175.0780  137.4460 C   0  0  0  0  0  2  0  0  0  0  0  0
  189.2080  175.3660  136.1350 N   0  0  0  0  0  2  0  0  0  0  0  0
  190.1310  173.2470  136.5510 O   0  0  0  0  0  0  0  0  0  0  0  0
  190.2020  174.4960  136.6920 C   0  0  0  0  0  0  0  0  0  0  0  0
  188.0600  174.9670  135.3770 C   0  0  0  0  0  0  0  0  0  0  0  0
  187.3020  175.8530  134.9000 O   0  0  0  0  0  0  0  0  0  0  0  0
  187.7260  173.5280  135.1450 C   0  0  0  0  0  2  0  0  0  0  0  0
  186.3900  173.1950  135.7240 C   0  0  0  0  0  0  0  0  0  0  0  0
  184.9530  172.8600  137.7410 C   0  0  0  0  0  2  0  0  0  0  0  0
  183.9470  172.5360  135.5020 C   0  0  0  0  0  2  0  0  0  0  0  0
  183.7660  173.2150  136.8520 C   0  0  0  0  0  2  0  0  0  0  0  0
  185.1940  173.0830  134.8030 C   0  0  0  0  0  2  0  0  0  0  0  0
  186.2600  173.1710  137.0610 C   0  0  0  0  0  3  0  0  0  0  0  0
  188.5970  177.3070  143.7760 C   0  0  2  0  0  3  0  0  0  0  0  0
  182.3250  179.0950  143.5700 C   0  0  0  0  0  0  0  0  0  0  0  0
  187.1720  177.7510  143.9780 C   0  0  0  0  0  0  0  0  0  0  0  0
  184.5210  178.5480  144.4310 C   0  0  0  0  0  0  0  0  0  0  0  0
  182.7720  178.8570  142.2670 C   0  0  0  0  0  3  0  0  0  0  0  0
  181.0430  179.4750  143.7860 F   0  0  0  0  0  0  0  0  0  0  0  0
  184.9730  178.3070  143.1140 C   0  0  0  0  0  0  0  0  0  0  0  0
  183.1980  178.9410  144.6520 C   0  0  0  0  0  3  0  0  0  0  0  0
  184.0950  178.4620  142.0370 C   0  0  0  0  0  3  0  0  0  0  0  0
  186.2940  177.9090  142.8940 C   0  0  0  0  0  3  0  0  0  0  0  0
  186.7190  177.9940  145.2800 C   0  0  0  0  0  3  0  0  0  0  0  0
  185.3980  178.3920  145.5080 C   0  0  0  0  0  3  0  0  0  0  0  0
  189.6110  178.2740  144.3840 C   0  0  0  0  0  2  0  0  0  0  0  0
  189.8260  176.0900  147.4100 C   0  0  0  0  0  2  0  0  0  0  0  0
  191.3580  176.1180  147.4710 C   0  0  1  0  0  3  0  0  0  0  0  0
  191.1310  176.5920  144.9710 C   0  0  0  0  0  2  0  0  0  0  0  0
  189.2470  177.0400  146.3440 C   0  0  0  0  0  2  0  0  0  0  0  0
  190.2860  177.6530  145.5120 N   0  0  0  0  0  0  0  0  0  0  0  0
  191.9830  175.9650  146.0780 C   0  0  0  0  0  2  0  0  0  0  0  0
  192.7490  176.9140  149.0010 C   0  0  0  0  0  1  0  0  0  0  0  0
  191.7910  177.3070  148.0640 O   0  0  0  0  0  0  0  0  0  0  0  0
  1  2  1  0  0  0  0
  1  3  1  0  0  0  0
  2  8  1  6  0  0  0
  2  4  1  0  0  0  0
  3  6  1  0  0  0  0
  4  5  1  0  0  0  0
  5  6  1  0  0  0  0
  6 23  1  1  0  0  0
  7  8  1  0  0  0  0
  9  8  2  0  0  0  0
 10  7  1  0  0  0  0
 11 13  1  0  0  0  0
 12 13  2  0  0  0  0
 13 10  1  0  0  0  0
 14 11  1  0  0  0  0
 15 14  2  0  0  0  0
 16 14  1  0  0  0  0
 16 17  1  0  0  0  0
 17 22  2  0  0  0  0
 19 20  1  0  0  0  0
 20 18  1  0  0  0  0
 21 19  1  0  0  0  0
 21 17  1  0  0  0  0
 22 18  1  0  0  0  0
 23 25  1  0  0  0  0
 23 35  1  6  0  0  0
 24 28  1  0  0  0  0
 24 30  1  0  0  0  0
 25 33  1  0  0  0  0
 26 30  2  0  0  0  0
 26 34  1  0  0  0  0
 27 24  2  0  0  0  0
 29 26  1  0  0  0  0
 31 27  1  0  0  0  0
 31 29  2  0  0  0  0
 32 29  1  0  0  0  0
 32 25  2  0  0  0  0
 33 34  2  0  0  0  0
 35 40  1  0  0  0  0
 36 37  1  0  0  0  0
 37 43  1  6  0  0  0
 38 40  1  0  0  0  0
 38 41  1  0  0  0  0
 39 36  1  0  0  0  0
 40 39  1  0  0  0  0
 41 37  1  0  0  0  0
 43 42  1  0  0  0  0
M  END
>  <MODEL>
5

>  <REMARK>
 VINA RESULT:      -8.1      3.841      9.815
  Name = 
  10 active torsions:
  status: ('A' for Active; 'I' for Inactive)
    1  A    between atoms: C_1  and  C_34
    2  A    between atoms: C_1  and  N_35
    3  A    between atoms: N_3  and  C_42
    4  A    between atoms: C_6  and  C_12
    5  A    between atoms: C_8  and  C_34
    6  A    between atoms: C_11  and  C_14
    7  A    between atoms: C_14  and  C_22
    8  A    between atoms: C_15  and  C_42
    9  A    between atoms: C_19  and  O_37
   10  A    between atoms: C_34  and  C_38
                            x       y       z     vdW  Elec       q    Type
                         _______ _______ _______ _____ _____    ______ ____

>  <TORSDO>
F 10

$$$$
=
 OpenBabel10272414393D

 43 47  0  0  1  0  0  0  0  0999 V2000
  189.3550  178.0440  139.8820 C   0  0  0  0  0  2  0  0  0  0  0  0
  190.7180  177.3900  140.1570 C   0  0  1  0  0  3  0  0  0  0  0  0
  188.6510  178.4210  141.1800 C   0  0  0  0  0  2  0  0  0  0  0  0
  190.7890  176.6280  141.4890 C   0  0  0  0  0  2  0  0  0  0  0  0
  189.4270  176.0650  141.8940 C   0  0  0  0  0  2  0  0  0  0  0  0
  188.3650  177.1750  142.0330 C   0  0  1  0  0  3  0  0  0  0  0  0
  192.2180  176.8670  138.1790 N   0  0  0  0  0  2  0  0  0  0  0  0
  191.1200  176.5050  139.0240 C   0  0  0  0  0  0  0  0  0  0  0  0
  190.4620  175.4550  138.8010 O   0  0  0  0  0  0  0  0  0  0  0  0
  192.6470  176.0620  137.0420 C   0  0  0  0  0  2  0  0  0  0  0  0
  194.6150  175.4410  138.5040 N   0  0  0  0  0  2  0  0  0  0  0  0
  193.7680  173.9750  136.8750 O   0  0  0  0  0  0  0  0  0  0  0  0
  193.7030  175.0920  137.4530 C   0  0  0  0  0  0  0  0  0  0  0  0
  195.6670  174.6200  139.0220 C   0  0  0  0  0  0  0  0  0  0  0  0
  196.3550  175.0410  139.9890 O   0  0  0  0  0  0  0  0  0  0  0  0
  195.9840  173.2790  138.4390 C   0  0  0  0  0  2  0  0  0  0  0  0
  197.1470  173.3700  137.5050 C   0  0  0  0  0  0  0  0  0  0  0  0
  199.0630  172.2510  136.3550 C   0  0  0  0  0  2  0  0  0  0  0  0
  198.6820  174.6630  135.9480 C   0  0  0  0  0  2  0  0  0  0  0  0
  198.9330  173.3210  135.2770 C   0  0  0  0  0  2  0  0  0  0  0  0
  197.3470  174.6330  136.6960 C   0  0  0  0  0  2  0  0  0  0  0  0
  197.8810  172.2660  137.2880 C   0  0  0  0  0  3  0  0  0  0  0  0
  188.0630  177.5560  143.4880 C   0  0  2  0  0  3  0  0  0  0  0  0
  181.7400  179.1640  143.4460 C   0  0  0  0  0  0  0  0  0  0  0  0
  186.6390  177.9850  143.7210 C   0  0  0  0  0  0  0  0  0  0  0  0
  183.9930  178.7650  144.2360 C   0  0  0  0  0  0  0  0  0  0  0  0
  182.1230  178.7960  142.1530 C   0  0  0  0  0  3  0  0  0  0  0  0
  180.4610  179.5360  143.6920 F   0  0  0  0  0  0  0  0  0  0  0  0
  184.3810  178.3930  142.9280 C   0  0  0  0  0  0  0  0  0  0  0  0
  182.6740  179.1480  144.4880 C   0  0  0  0  0  3  0  0  0  0  0  0
  183.4430  178.4110  141.8920 C   0  0  0  0  0  3  0  0  0  0  0  0
  185.6990  178.0040  142.6780 C   0  0  0  0  0  3  0  0  0  0  0  0
  186.2490  178.3570  145.0130 C   0  0  0  0  0  3  0  0  0  0  0  0
  184.9310  178.7460  145.2710 C   0  0  0  0  0  3  0  0  0  0  0  0
  189.0810  178.5580  144.0270 C   0  0  0  0  0  2  0  0  0  0  0  0
  189.2280  176.3500  147.0390 C   0  0  0  0  0  2  0  0  0  0  0  0
  190.6330  176.8030  147.4540 C   0  0  1  0  0  3  0  0  0  0  0  0
  190.8470  177.3390  144.9650 C   0  0  0  0  0  2  0  0  0  0  0  0
  188.6560  177.1590  145.8600 C   0  0  0  0  0  2  0  0  0  0  0  0
  189.6340  178.0870  145.2860 N   0  0  0  0  0  0  0  0  0  0  0  0
  191.5720  176.9130  146.2450 C   0  0  0  0  0  2  0  0  0  0  0  0
  189.2720  178.0740  148.6540 C   0  0  0  0  0  1  0  0  0  0  0  0
  190.5620  178.0290  148.1200 O   0  0  0  0  0  0  0  0  0  0  0  0
  1  2  1  0  0  0  0
  1  3  1  0  0  0  0
  2  8  1  6  0  0  0
  2  4  1  0  0  0  0
  3  6  1  0  0  0  0
  4  5  1  0  0  0  0
  5  6  1  0  0  0  0
  6 23  1  1  0  0  0
  7  8  1  0  0  0  0
  9  8  2  0  0  0  0
 10 13  1  0  0  0  0
 10  7  1  0  0  0  0
 11 14  1  0  0  0  0
 12 13  2  0  0  0  0
 13 11  1  0  0  0  0
 14 15  2  0  0  0  0
 16 14  1  0  0  0  0
 17 16  1  0  0  0  0
 18 22  1  0  0  0  0
 19 21  1  0  0  0  0
 20 19  1  0  0  0  0
 20 18  1  0  0  0  0
 21 17  1  0  0  0  0
 22 17  2  0  0  0  0
 23 25  1  0  0  0  0
 23 35  1  6  0  0  0
 24 28  1  0  0  0  0
 24 30  1  0  0  0  0
 25 33  1  0  0  0  0
 26 30  2  0  0  0  0
 26 34  1  0  0  0  0
 27 24  2  0  0  0  0
 29 26  1  0  0  0  0
 31 27  1  0  0  0  0
 31 29  2  0  0  0  0
 32 29  1  0  0  0  0
 32 25  2  0  0  0  0
 33 34  2  0  0  0  0
 35 40  1  0  0  0  0
 36 37  1  0  0  0  0
 37 43  1  6  0  0  0
 38 40  1  0  0  0  0
 38 41  1  0  0  0  0
 39 36  1  0  0  0  0
 40 39  1  0  0  0  0
 41 37  1  0  0  0  0
 43 42  1  0  0  0  0
M  END
>  <MODEL>
6

>  <REMARK>
 VINA RESULT:      -8.1      5.430      9.952
  Name = 
  10 active torsions:
  status: ('A' for Active; 'I' for Inactive)
    1  A    between atoms: C_1  and  C_34
    2  A    between atoms: C_1  and  N_35
    3  A    between atoms: N_3  and  C_42
    4  A    between atoms: C_6  and  C_12
    5  A    between atoms: C_8  and  C_34
    6  A    between atoms: C_11  and  C_14
    7  A    between atoms: C_14  and  C_22
    8  A    between atoms: C_15  and  C_42
    9  A    between atoms: C_19  and  O_37
   10  A    between atoms: C_34  and  C_38
                            x       y       z     vdW  Elec       q    Type
                         _______ _______ _______ _____ _____    ______ ____

>  <TORSDO>
F 10

$$$$
=
 OpenBabel10272414393D

 43 47  0  0  1  0  0  0  0  0999 V2000
  190.8910  178.2750  143.3500 C   0  0  0  0  0  2  0  0  0  0  0  0
  190.9480  176.8960  142.6740 C   0  0  1  0  0  3  0  0  0  0  0  0
  189.8100  178.3200  144.4240 C   0  0  0  0  0  2  0  0  0  0  0  0
  189.6010  176.1570  142.6450 C   0  0  0  0  0  2  0  0  0  0  0  0
  188.4220  177.1290  142.6010 C   0  0  0  0  0  2  0  0  0  0  0  0
  188.4190  178.0830  143.8130 C   0  0  1  0  0  3  0  0  0  0  0  0
  190.6990  176.7390  140.1540 N   0  0  0  0  0  2  0  0  0  0  0  0
  191.5180  177.0030  141.2990 C   0  0  0  0  0  0  0  0  0  0  0  0
  192.7350  177.2960  141.1590 O   0  0  0  0  0  0  0  0  0  0  0  0
  191.1970  176.8010  138.7860 C   0  0  0  0  0  2  0  0  0  0  0  0
  189.3840  175.6820  137.4250 N   0  0  0  0  0  2  0  0  0  0  0  0
  189.7220  178.0060  137.3680 O   0  0  0  0  0  0  0  0  0  0  0  0
  190.0660  176.8810  137.8180 C   0  0  0  0  0  0  0  0  0  0  0  0
  188.2760  175.5930  136.5220 C   0  0  0  0  0  0  0  0  0  0  0  0
  187.7410  174.4710  136.3170 O   0  0  0  0  0  0  0  0  0  0  0  0
  187.7420  176.7910  135.8050 C   0  0  0  0  0  2  0  0  0  0  0  0
  186.4260  177.2080  136.3780 C   0  0  0  0  0  0  0  0  0  0  0  0
  183.9340  177.2600  136.2030 C   0  0  0  0  0  2  0  0  0  0  0  0
  185.0100  178.3610  138.1430 C   0  0  0  0  0  2  0  0  0  0  0  0
  183.9130  177.3930  137.7220 C   0  0  0  0  0  2  0  0  0  0  0  0
  186.3810  177.7920  137.7730 C   0  0  0  0  0  2  0  0  0  0  0  0
  185.3070  176.8970  135.7030 C   0  0  0  0  0  3  0  0  0  0  0  0
  187.3970  177.7010  144.8920 C   0  0  2  0  0  3  0  0  0  0  0  0
  181.5020  179.0000  142.4160 C   0  0  0  0  0  0  0  0  0  0  0  0
  185.9810  178.0850  144.5520 C   0  0  0  0  0  0  0  0  0  0  0  0
  183.3220  178.7870  143.9970 C   0  0  0  0  0  0  0  0  0  0  0  0
  182.3290  178.5230  141.3930 C   0  0  0  0  0  3  0  0  0  0  0  0
  180.2170  179.3340  142.1450 F   0  0  0  0  0  0  0  0  0  0  0  0
  184.1580  178.3050  142.9640 C   0  0  0  0  0  0  0  0  0  0  0  0
  181.9980  179.1310  143.7170 C   0  0  0  0  0  3  0  0  0  0  0  0
  183.6560  178.1760  141.6660 C   0  0  0  0  0  3  0  0  0  0  0  0
  185.4810  177.9550  143.2460 C   0  0  0  0  0  3  0  0  0  0  0  0
  185.1490  178.5640  145.5690 C   0  0  0  0  0  3  0  0  0  0  0  0
  183.8240  178.9150  145.2950 C   0  0  0  0  0  3  0  0  0  0  0  0
  187.8300  178.1920  146.2720 C   0  0  0  0  0  2  0  0  0  0  0  0
  190.8900  177.8100  148.3840 C   0  0  0  0  0  2  0  0  0  0  0  0
  191.3460  176.5140  147.7030 C   0  0  1  0  0  3  0  0  0  0  0  0
  188.8570  176.2910  147.1740 C   0  0  0  0  0  2  0  0  0  0  0  0
  189.6740  178.4580  147.6950 C   0  0  0  0  0  2  0  0  0  0  0  0
  189.1180  177.6200  146.6290 N   0  0  0  0  0  0  0  0  0  0  0  0
  190.1710  175.5580  147.4580 C   0  0  0  0  0  2  0  0  0  0  0  0
  192.2710  175.5650  145.9270 C   0  0  0  0  0  1  0  0  0  0  0  0
  191.9840  176.8090  146.4950 O   0  0  0  0  0  0  0  0  0  0  0  0
  1  3  1  0  0  0  0
  2  8  1  6  0  0  0
  2  1  1  0  0  0  0
  4  2  1  0  0  0  0
  5  4  1  0  0  0  0
  5  6  1  0  0  0  0
  6  3  1  0  0  0  0
  6 23  1  1  0  0  0
  7  8  1  0  0  0  0
  9  8  2  0  0  0  0
 10  7  1  0  0  0  0
 11 13  1  0  0  0  0
 12 13  2  0  0  0  0
 13 10  1  0  0  0  0
 14 11  1  0  0  0  0
 15 14  2  0  0  0  0
 16 17  1  0  0  0  0
 16 14  1  0  0  0  0
 17 21  1  0  0  0  0
 18 20  1  0  0  0  0
 20 19  1  0  0  0  0
 21 19  1  0  0  0  0
 22 18  1  0  0  0  0
 22 17  2  0  0  0  0
 23 35  1  1  0  0  0
 24 30  1  0  0  0  0
 25 23  1  0  0  0  0
 25 33  1  0  0  0  0
 26 34  1  0  0  0  0
 27 31  1  0  0  0  0
 27 24  2  0  0  0  0
 28 24  1  0  0  0  0
 29 32  1  0  0  0  0
 29 26  1  0  0  0  0
 30 26  2  0  0  0  0
 31 29  2  0  0  0  0
 32 25  2  0  0  0  0
 34 33  2  0  0  0  0
 35 40  1  0  0  0  0
 37 43  1  6  0  0  0
 37 36  1  0  0  0  0
 38 41  1  0  0  0  0
 39 36  1  0  0  0  0
 40 38  1  0  0  0  0
 40 39  1  0  0  0  0
 41 37  1  0  0  0  0
 42 43  1  0  0  0  0
M  END
>  <MODEL>
7

>  <REMARK>
 VINA RESULT:      -7.8      3.821      9.329
  Name = 
  10 active torsions:
  status: ('A' for Active; 'I' for Inactive)
    1  A    between atoms: C_1  and  C_34
    2  A    between atoms: C_1  and  N_35
    3  A    between atoms: N_3  and  C_42
    4  A    between atoms: C_6  and  C_12
    5  A    between atoms: C_8  and  C_34
    6  A    between atoms: C_11  and  C_14
    7  A    between atoms: C_14  and  C_22
    8  A    between atoms: C_15  and  C_42
    9  A    between atoms: C_19  and  O_37
   10  A    between atoms: C_34  and  C_38
                            x       y       z     vdW  Elec       q    Type
                         _______ _______ _______ _____ _____    ______ ____

>  <TORSDO>
F 10

$$$$
=
 OpenBabel10272414393D

 43 47  0  0  1  0  0  0  0  0999 V2000
  185.5050  177.9860  145.0070 C   0  0  0  0  0  2  0  0  0  0  0  0
  185.0330  179.1490  144.1200 C   0  0  1  0  0  3  0  0  0  0  0  0
  186.9000  177.5160  144.6070 C   0  0  0  0  0  2  0  0  0  0  0  0
  185.6180  179.1280  142.6990 C   0  0  0  0  0  2  0  0  0  0  0  0
  185.9160  177.7060  142.2280 C   0  0  0  0  0  2  0  0  0  0  0  0
  186.9080  176.9870  143.1650 C   0  0  1  0  0  3  0  0  0  0  0  0
  182.8450  178.9280  142.8550 N   0  0  0  0  0  2  0  0  0  0  0  0
  183.5430  179.2090  144.0740 C   0  0  0  0  0  0  0  0  0  0  0  0
  182.9080  179.5410  145.1110 O   0  0  0  0  0  0  0  0  0  0  0  0
  181.3940  178.9920  142.7340 C   0  0  0  0  0  2  0  0  0  0  0  0
  181.7850  179.5730  140.3050 N   0  0  0  0  0  2  0  0  0  0  0  0
  179.9820  180.4630  141.5180 O   0  0  0  0  0  0  0  0  0  0  0  0
  181.0030  179.7260  141.4970 C   0  0  0  0  0  0  0  0  0  0  0  0
  181.5340  180.1940  139.0390 C   0  0  0  0  0  0  0  0  0  0  0  0
  182.2800  179.9170  138.0620 O   0  0  0  0  0  0  0  0  0  0  0  0
  180.4200  181.1710  138.8440 C   0  0  0  0  0  2  0  0  0  0  0  0
  180.6400  181.9860  137.6110 C   0  0  0  0  0  0  0  0  0  0  0  0
  180.4970  182.1890  135.1240 C   0  0  0  0  0  2  0  0  0  0  0  0
  181.4210  184.0880  136.4180 C   0  0  0  0  0  2  0  0  0  0  0  0
  180.4250  183.6970  135.3350 C   0  0  0  0  0  2  0  0  0  0  0  0
  181.0280  183.4420  137.7480 C   0  0  0  0  0  2  0  0  0  0  0  0
  180.3250  181.4450  136.4220 C   0  0  0  0  0  3  0  0  0  0  0  0
  188.3370  176.9170  142.6070 C   0  0  2  0  0  3  0  0  0  0  0  0
  192.1980  176.3520  147.8370 C   0  0  0  0  0  0  0  0  0  0  0  0
  189.3880  176.6720  143.6570 C   0  0  0  0  0  0  0  0  0  0  0  0
  191.3720  176.1480  145.5700 C   0  0  0  0  0  0  0  0  0  0  0  0
  191.0560  177.0780  148.1920 C   0  0  0  0  0  3  0  0  0  0  0  0
  193.1520  176.0970  148.7640 F   0  0  0  0  0  0  0  0  0  0  0  0
  190.2190  176.8820  145.9280 C   0  0  0  0  0  0  0  0  0  0  0  0
  192.3560  175.8870  146.5270 C   0  0  0  0  0  3  0  0  0  0  0  0
  190.0660  177.3430  147.2390 C   0  0  0  0  0  3  0  0  0  0  0  0
  189.2330  177.1390  144.9720 C   0  0  0  0  0  3  0  0  0  0  0  0
  190.5340  175.9480  143.3080 C   0  0  0  0  0  3  0  0  0  0  0  0
  191.5240  175.6870  144.2590 C   0  0  0  0  0  3  0  0  0  0  0  0
  188.6510  178.1220  141.7230 C   0  0  0  0  0  2  0  0  0  0  0  0
  189.1070  178.6930  138.0570 C   0  0  0  0  0  2  0  0  0  0  0  0
  189.1940  177.2010  137.7120 C   0  0  1  0  0  3  0  0  0  0  0  0
  189.9710  177.0130  140.1380 C   0  0  0  0  0  2  0  0  0  0  0  0
  188.7430  178.9510  139.5310 C   0  0  0  0  0  2  0  0  0  0  0  0
  188.7070  177.7210  140.3270 N   0  0  0  0  0  0  0  0  0  0  0  0
  190.0590  176.4360  138.7220 C   0  0  0  0  0  2  0  0  0  0  0  0
  187.5680  176.6640  136.3060 C   0  0  0  0  0  1  0  0  0  0  0  0
  187.9120  176.6470  137.6600 O   0  0  0  0  0  0  0  0  0  0  0  0
  2  8  1  6  0  0  0
  2  1  1  0  0  0  0
  3  1  1  0  0  0  0
  4  2  1  0  0  0  0
  5  4  1  0  0  0  0
  5  6  1  0  0  0  0
  6 23  1  6  0  0  0
  6  3  1  0  0  0  0
  7  8  1  0  0  0  0
  8  9  2  0  0  0  0
 10  7  1  0  0  0  0
 11 13  1  0  0  0  0
 13 12  2  0  0  0  0
 13 10  1  0  0  0  0
 14 11  1  0  0  0  0
 15 14  2  0  0  0  0
 16 14  1  0  0  0  0
 17 21  1  0  0  0  0
 17 16  1  0  0  0  0
 18 20  1  0  0  0  0
 18 22  1  0  0  0  0
 19 21  1  0  0  0  0
 20 19  1  0  0  0  0
 22 17  2  0  0  0  0
 23 35  1  1  0  0  0
 23 25  1  0  0  0  0
 24 27  1  0  0  0  0
 24 28  1  0  0  0  0
 25 32  1  0  0  0  0
 26 29  1  0  0  0  0
 26 30  1  0  0  0  0
 29 31  1  0  0  0  0
 30 24  2  0  0  0  0
 31 27  2  0  0  0  0
 32 29  2  0  0  0  0
 33 25  2  0  0  0  0
 33 34  1  0  0  0  0
 34 26  2  0  0  0  0
 36 39  1  0  0  0  0
 37 43  1  1  0  0  0
 37 36  1  0  0  0  0
 37 41  1  0  0  0  0
 38 40  1  0  0  0  0
 39 40  1  0  0  0  0
 40 35  1  0  0  0  0
 41 38  1  0  0  0  0
 42 43  1  0  0  0  0
M  END
>  <MODEL>
8

>  <REMARK>
 VINA RESULT:      -7.7      4.567      9.770
  Name = 
  10 active torsions:
  status: ('A' for Active; 'I' for Inactive)
    1  A    between atoms: C_1  and  C_34
    2  A    between atoms: C_1  and  N_35
    3  A    between atoms: N_3  and  C_42
    4  A    between atoms: C_6  and  C_12
    5  A    between atoms: C_8  and  C_34
    6  A    between atoms: C_11  and  C_14
    7  A    between atoms: C_14  and  C_22
    8  A    between atoms: C_15  and  C_42
    9  A    between atoms: C_19  and  O_37
   10  A    between atoms: C_34  and  C_38
                            x       y       z     vdW  Elec       q    Type
                         _______ _______ _______ _____ _____    ______ ____

>  <TORSDO>
F 10

$$$$
=
 OpenBabel10272414393D

 43 47  0  0  1  0  0  0  0  0999 V2000
  185.5490  178.0250  145.1000 C   0  0  0  0  0  2  0  0  0  0  0  0
  185.0470  179.1500  144.1810 C   0  0  1  0  0  3  0  0  0  0  0  0
  186.9420  177.5570  144.6930 C   0  0  0  0  0  2  0  0  0  0  0  0
  185.6070  179.0850  142.7510 C   0  0  0  0  0  2  0  0  0  0  0  0
  185.9140  177.6500  142.3260 C   0  0  0  0  0  2  0  0  0  0  0  0
  186.9320  176.9770  143.2700 C   0  0  1  0  0  3  0  0  0  0  0  0
  182.8500  179.1610  142.9140 N   0  0  0  0  0  2  0  0  0  0  0  0
  183.5560  179.1910  144.1590 C   0  0  0  0  0  0  0  0  0  0  0  0
  182.9270  179.2850  145.2470 O   0  0  0  0  0  0  0  0  0  0  0  0
  181.3960  179.2230  142.8200 C   0  0  0  0  0  2  0  0  0  0  0  0
  180.8110  180.1570  140.5450 N   0  0  0  0  0  2  0  0  0  0  0  0
  180.7180  177.8550  141.0020 O   0  0  0  0  0  0  0  0  0  0  0  0
  180.9520  179.0220  141.4100 C   0  0  0  0  0  0  0  0  0  0  0  0
  180.4100  180.1300  139.1700 C   0  0  0  0  0  0  0  0  0  0  0  0
  180.3860  181.2080  138.5170 O   0  0  0  0  0  0  0  0  0  0  0  0
  180.0070  178.8620  138.4880 C   0  0  0  0  0  2  0  0  0  0  0  0
  181.0340  178.4530  137.4820 C   0  0  0  0  0  0  0  0  0  0  0  0
  183.3550  177.6680  136.9900 C   0  0  0  0  0  2  0  0  0  0  0  0
  181.8060  178.0500  135.0960 C   0  0  0  0  0  2  0  0  0  0  0  0
  182.7900  177.0640  135.7090 C   0  0  0  0  0  2  0  0  0  0  0  0
  180.6200  178.2620  136.0400 C   0  0  0  0  0  2  0  0  0  0  0  0
  182.2560  178.1070  137.9210 C   0  0  0  0  0  3  0  0  0  0  0  0
  188.3510  176.9040  142.6900 C   0  0  2  0  0  3  0  0  0  0  0  0
  192.2950  176.2580  147.8470 C   0  0  0  0  0  0  0  0  0  0  0  0
  189.4160  176.6370  143.7200 C   0  0  0  0  0  0  0  0  0  0  0  0
  191.4240  176.0720  145.5960 C   0  0  0  0  0  0  0  0  0  0  0  0
  191.1760  177.0080  148.2230 C   0  0  0  0  0  3  0  0  0  0  0  0
  193.2610  175.9830  148.7560 F   0  0  0  0  0  0  0  0  0  0  0  0
  190.2930  176.8300  145.9750 C   0  0  0  0  0  0  0  0  0  0  0  0
  192.4190  175.7890  146.5340 C   0  0  0  0  0  3  0  0  0  0  0  0
  190.1750  177.2940  147.2880 C   0  0  0  0  0  3  0  0  0  0  0  0
  189.2950  177.1070  145.0370 C   0  0  0  0  0  3  0  0  0  0  0  0
  190.5390  175.8890  143.3500 C   0  0  0  0  0  3  0  0  0  0  0  0
  191.5420  175.6070  144.2830 C   0  0  0  0  0  3  0  0  0  0  0  0
  188.6610  178.1180  141.8160 C   0  0  0  0  0  2  0  0  0  0  0  0
  188.9850  178.6210  138.1270 C   0  0  0  0  0  2  0  0  0  0  0  0
  189.6980  177.2850  137.8840 C   0  0  1  0  0  3  0  0  0  0  0  0
  190.3840  177.5730  140.3280 C   0  0  0  0  0  2  0  0  0  0  0  0
  188.4880  178.7860  139.5750 C   0  0  0  0  0  2  0  0  0  0  0  0
  188.9350  177.7000  140.4510 N   0  0  0  0  0  0  0  0  0  0  0  0
  190.7610  177.0080  138.9550 C   0  0  0  0  0  2  0  0  0  0  0  0
  189.2440  175.3610  136.8830 C   0  0  0  0  0  1  0  0  0  0  0  0
  188.7650  176.2450  137.8530 O   0  0  0  0  0  0  0  0  0  0  0  0
  2  8  1  6  0  0  0
  2  1  1  0  0  0  0
  3  1  1  0  0  0  0
  4  2  1  0  0  0  0
  5  4  1  0  0  0  0
  5  6  1  0  0  0  0
  6 23  1  6  0  0  0
  6  3  1  0  0  0  0
  7  8  1  0  0  0  0
  8  9  2  0  0  0  0
 10  7  1  0  0  0  0
 11 13  1  0  0  0  0
 12 13  2  0  0  0  0
 13 10  1  0  0  0  0
 14 11  1  0  0  0  0
 15 14  2  0  0  0  0
 16 14  1  0  0  0  0
 17 22  2  0  0  0  0
 17 16  1  0  0  0  0
 18 22  1  0  0  0  0
 19 20  1  0  0  0  0
 19 21  1  0  0  0  0
 20 18  1  0  0  0  0
 21 17  1  0  0  0  0
 23 35  1  1  0  0  0
 23 25  1  0  0  0  0
 24 27  1  0  0  0  0
 24 28  1  0  0  0  0
 25 32  1  0  0  0  0
 26 29  1  0  0  0  0
 26 30  1  0  0  0  0
 29 31  1  0  0  0  0
 30 24  2  0  0  0  0
 31 27  2  0  0  0  0
 32 29  2  0  0  0  0
 33 25  2  0  0  0  0
 33 34  1  0  0  0  0
 34 26  2  0  0  0  0
 36 39  1  0  0  0  0
 37 43  1  1  0  0  0
 37 36  1  0  0  0  0
 37 41  1  0  0  0  0
 38 40  1  0  0  0  0
 39 40  1  0  0  0  0
 40 35  1  0  0  0  0
 41 38  1  0  0  0  0
 42 43  1  0  0  0  0
M  END
>  <MODEL>
9

>  <REMARK>
 VINA RESULT:      -7.7      3.919      9.444
  Name = 
  10 active torsions:
  status: ('A' for Active; 'I' for Inactive)
    1  A    between atoms: C_1  and  C_34
    2  A    between atoms: C_1  and  N_35
    3  A    between atoms: N_3  and  C_42
    4  A    between atoms: C_6  and  C_12
    5  A    between atoms: C_8  and  C_34
    6  A    between atoms: C_11  and  C_14
    7  A    between atoms: C_14  and  C_22
    8  A    between atoms: C_15  and  C_42
    9  A    between atoms: C_19  and  O_37
   10  A    between atoms: C_34  and  C_38
                            x       y       z     vdW  Elec       q    Type
                         _______ _______ _______ _____ _____    ______ ____

>  <TORSDO>
F 10

$$$$
