=
 OpenBabel10262423433D

 34 39  0  0  1  0  0  0  0  0999 V2000
  190.3930  177.3110  146.7010 C   0  0  0  0  0  0  0  0  0  0  0  0
  191.5790  175.7110  145.3280 C   0  0  0  0  0  0  0  0  0  0  0  0
  189.6870  177.1150  144.3160 C   0  0  0  0  0  0  0  0  0  0  0  0
  189.0940  177.3930  141.9840 C   0  0  0  0  0  0  0  0  0  0  0  0
  192.2470  176.1020  147.5910 N   0  0  0  0  0  0  0  0  0  0  0  0
  192.4120  175.4400  146.4170 C   0  0  0  0  0  3  0  0  0  0  0  0
  191.7060  177.0670  142.2950 S   0  0  0  0  0  0  0  0  0  0  0  0
  190.6130  176.7380  145.4300 C   0  0  0  0  0  0  0  0  0  0  0  0
  189.6000  177.4670  140.5960 C   0  0  0  0  0  2  0  0  0  0  0  0
  191.2500  177.0060  147.7600 C   0  0  0  0  0  3  0  0  0  0  0  0
  188.3870  177.5460  144.6700 C   0  0  0  0  0  0  0  0  0  0  0  0
  189.2350  178.2300  146.9330 C   0  0  0  0  0  2  0  0  0  0  0  0
  191.6790  174.9070  144.2010 O   0  0  0  0  0  1  0  0  0  0  0  0
  187.7760  177.6800  142.3270 C   0  0  0  0  0  3  0  0  0  0  0  0
  187.3960  177.7520  143.6770 C   0  0  0  0  0  0  0  0  0  0  0  0
  191.0910  177.7500  140.7130 C   0  0  2  0  0  3  0  0  0  0  0  0
  190.0410  177.1130  142.9490 C   0  0  0  0  0  0  0  0  0  0  0  0
  188.1320  177.8820  146.0410 N   0  0  0  0  0  2  0  0  0  0  0  0
  183.6990  178.5650  143.3120 C   0  0  0  0  0  0  0  0  0  0  0  0
  183.3360  178.7970  144.6400 C   0  0  0  0  0  3  0  0  0  0  0  0
  185.9860  178.0950  144.0040 C   0  0  0  0  0  0  0  0  0  0  0  0
  184.2920  178.6870  145.6530 C   0  0  0  0  0  3  0  0  0  0  0  0
  185.0160  178.2210  142.9960 C   0  0  0  0  0  3  0  0  0  0  0  0
  185.6090  178.3400  145.3360 C   0  0  0  0  0  3  0  0  0  0  0  0
  182.7740  178.6770  142.3280 F   0  0  0  0  0  0  0  0  0  0  0  0
  191.8140  177.1390  139.5610 C   0  0  0  0  0  3  0  0  0  0  0  0
  191.1640  176.5330  138.6340 N   0  0  0  0  0  0  0  0  0  0  0  0
  193.3700  176.0160  137.7350 C   0  0  0  0  0  2  0  0  0  0  0  0
  191.8550  175.9420  137.5190 C   0  0  1  0  0  3  0  0  0  0  0  0
  194.1270  175.3480  136.5860 C   0  0  1  0  0  3  0  0  0  0  0  0
  193.6500  173.9070  136.3850 C   0  0  0  0  0  2  0  0  0  0  0  0
  192.1370  173.8480  136.1840 C   0  0  0  0  0  2  0  0  0  0  0  0
  191.4210  174.4870  137.3680 C   0  0  0  0  0  2  0  0  0  0  0  0
  193.9670  176.0800  135.4080 O   0  0  0  0  0  1  0  0  0  0  0  0
  1 12  1  0  0  0  0
  1 10  1  0  0  0  0
  2  8  1  0  0  0  0
  2  6  2  0  0  0  0
  3 11  1  0  0  0  0
  3  8  1  0  0  0  0
  4 14  2  0  0  0  0
  4 17  1  0  0  0  0
  5 10  2  0  0  0  0
  6  5  1  0  0  0  0
  7 17  1  0  0  0  0
  8  1  2  0  0  0  0
  9 16  1  0  0  0  0
  9  4  1  0  0  0  0
 11 18  1  0  0  0  0
 13  2  1  0  0  0  0
 14 15  1  0  0  0  0
 15 21  1  0  0  0  0
 15 11  2  0  0  0  0
 16 26  1  6  0  0  0
 16  7  1  0  0  0  0
 17  3  2  0  0  0  0
 18 12  1  0  0  0  0
 19 20  1  0  0  0  0
 20 22  2  0  0  0  0
 21 24  2  0  0  0  0
 23 19  2  0  0  0  0
 23 21  1  0  0  0  0
 24 22  1  0  0  0  0
 25 19  1  0  0  0  0
 27 26  2  0  0  0  0
 29 28  1  0  0  0  0
 29 27  1  1  0  0  0
 30 34  1  6  0  0  0
 30 28  1  0  0  0  0
 31 30  1  0  0  0  0
 32 31  1  0  0  0  0
 32 33  1  0  0  0  0
 33 29  1  0  0  0  0
M  END
>  <MODEL>
1

>  <REMARK>
 VINA RESULT:     -10.6      0.000      0.000
  Name = 
  3 active torsions:
  status: ('A' for Active; 'I' for Inactive)
    1  A    between atoms: C_3  and  C_29
    2  A    between atoms: C_12  and  C_28
    3  A    between atoms: C_13  and  N_17
                            x       y       z     vdW  Elec       q    Type
                         _______ _______ _______ _____ _____    ______ ____

>  <TORSDO>
F 3

$$$$
=
 OpenBabel10262423433D

 34 39  0  0  1  0  0  0  0  0999 V2000
  191.7650  177.2550  140.0270 C   0  0  0  0  0  0  0  0  0  0  0  0
  189.8560  176.4570  138.7760 C   0  0  0  0  0  0  0  0  0  0  0  0
  189.5510  177.3070  141.1750 C   0  0  0  0  0  0  0  0  0  0  0  0
  187.4940  177.8230  142.3450 C   0  0  0  0  0  0  0  0  0  0  0  0
  192.0110  176.5950  137.7470 N   0  0  0  0  0  0  0  0  0  0  0  0
  190.6940  176.2750  137.6730 C   0  0  0  0  0  3  0  0  0  0  0  0
  187.3020  178.3460  139.7540 S   0  0  0  0  0  0  0  0  0  0  0  0
  190.3710  177.0540  139.9480 C   0  0  0  0  0  0  0  0  0  0  0  0
  186.1130  178.3360  142.2170 C   0  0  0  0  0  2  0  0  0  0  0  0
  192.5630  177.0560  138.8990 C   0  0  0  0  0  3  0  0  0  0  0  0
  190.2030  177.1940  142.4260 C   0  0  0  0  0  0  0  0  0  0  0  0
  192.4060  177.6630  141.3170 C   0  0  0  0  0  2  0  0  0  0  0  0
  188.5570  175.9730  138.7080 O   0  0  0  0  0  1  0  0  0  0  0  0
  188.0990  177.5730  143.5720 C   0  0  0  0  0  3  0  0  0  0  0  0
  189.4630  177.2440  143.6350 C   0  0  0  0  0  0  0  0  0  0  0  0
  186.0670  179.0790  140.8890 C   0  0  2  0  0  3  0  0  0  0  0  0
  188.1930  177.6960  141.1620 C   0  0  0  0  0  0  0  0  0  0  0  0
  191.6360  177.1450  142.4450 N   0  0  0  0  0  2  0  0  0  0  0  0
  190.0530  177.2550  147.3920 C   0  0  0  0  0  0  0  0  0  0  0  0
  191.2960  176.6260  147.4770 C   0  0  0  0  0  3  0  0  0  0  0  0
  190.0820  177.0180  144.9690 C   0  0  0  0  0  0  0  0  0  0  0  0
  191.9400  176.1960  146.3140 C   0  0  0  0  0  3  0  0  0  0  0  0
  189.4520  177.4530  146.1460 C   0  0  0  0  0  3  0  0  0  0  0  0
  191.3380  176.3930  145.0680 C   0  0  0  0  0  3  0  0  0  0  0  0
  189.4290  177.6770  148.5190 F   0  0  0  0  0  0  0  0  0  0  0  0
  184.6990  178.9890  140.3050 C   0  0  0  0  0  3  0  0  0  0  0  0
  184.3320  179.7990  139.3790 N   0  0  0  0  0  0  0  0  0  0  0  0
  182.1100  178.8450  139.6910 C   0  0  0  0  0  2  0  0  0  0  0  0
  183.0130  179.7160  138.8100 C   0  0  1  0  0  3  0  0  0  0  0  0
  180.6870  178.7830  139.1340 C   0  0  1  0  0  3  0  0  0  0  0  0
  180.1140  180.1890  138.9460 C   0  0  0  0  0  2  0  0  0  0  0  0
  181.0310  181.0490  138.0770 C   0  0  0  0  0  2  0  0  0  0  0  0
  182.4250  181.1180  138.6890 C   0  0  0  0  0  2  0  0  0  0  0  0
  180.6690  178.0870  137.9240 O   0  0  0  0  0  1  0  0  0  0  0  0
  1 12  1  0  0  0  0
  2  8  2  0  0  0  0
  3 11  1  0  0  0  0
  4 14  2  0  0  0  0
  5 10  1  0  0  0  0
  6  5  2  0  0  0  0
  6  2  1  0  0  0  0
  7 16  1  0  0  0  0
  7 17  1  0  0  0  0
  8  1  1  0  0  0  0
  8  3  1  0  0  0  0
  9  4  1  0  0  0  0
 10  1  2  0  0  0  0
 11 18  1  0  0  0  0
 11 15  2  0  0  0  0
 12 18  1  0  0  0  0
 13  2  1  0  0  0  0
 14 15  1  0  0  0  0
 15 21  1  0  0  0  0
 16 26  1  6  0  0  0
 16  9  1  0  0  0  0
 17  3  2  0  0  0  0
 17  4  1  0  0  0  0
 19 20  1  0  0  0  0
 19 25  1  0  0  0  0
 21 24  2  0  0  0  0
 21 23  1  0  0  0  0
 22 20  2  0  0  0  0
 23 19  2  0  0  0  0
 24 22  1  0  0  0  0
 27 26  2  0  0  0  0
 29 27  1  1  0  0  0
 29 28  1  0  0  0  0
 30 34  1  6  0  0  0
 30 28  1  0  0  0  0
 31 30  1  0  0  0  0
 32 33  1  0  0  0  0
 32 31  1  0  0  0  0
 33 29  1  0  0  0  0
M  END
>  <MODEL>
2

>  <REMARK>
 VINA RESULT:      -9.7      4.199      8.097
  Name = 
  3 active torsions:
  status: ('A' for Active; 'I' for Inactive)
    1  A    between atoms: C_3  and  C_29
    2  A    between atoms: C_12  and  C_28
    3  A    between atoms: C_13  and  N_17
                            x       y       z     vdW  Elec       q    Type
                         _______ _______ _______ _____ _____    ______ ____

>  <TORSDO>
F 3

$$$$
=
 OpenBabel10262423433D

 34 39  0  0  1  0  0  0  0  0999 V2000
  186.6570  178.3910  145.8430 C   0  0  0  0  0  0  0  0  0  0  0  0
  188.2600  176.9300  144.7740 C   0  0  0  0  0  0  0  0  0  0  0  0
  186.4440  178.0800  143.3760 C   0  0  0  0  0  0  0  0  0  0  0  0
  186.2770  178.2560  140.9660 C   0  0  0  0  0  0  0  0  0  0  0  0
  188.4360  177.4270  147.1070 N   0  0  0  0  0  0  0  0  0  0  0  0
  188.8970  176.7760  146.0080 C   0  0  0  0  0  3  0  0  0  0  0  0
  188.8020  178.2520  141.7720 S   0  0  0  0  0  0  0  0  0  0  0  0
  187.1800  177.8330  144.6570 C   0  0  0  0  0  0  0  0  0  0  0  0
  187.0260  178.3720  139.6960 C   0  0  0  0  0  2  0  0  0  0  0  0
  187.3260  178.2060  147.0540 C   0  0  0  0  0  3  0  0  0  0  0  0
  185.0590  178.3560  143.4660 C   0  0  0  0  0  0  0  0  0  0  0  0
  185.3760  179.1660  145.8210 C   0  0  0  0  0  2  0  0  0  0  0  0
  188.6650  176.1290  143.7140 O   0  0  0  0  0  1  0  0  0  0  0  0
  184.8940  178.3850  141.0460 C   0  0  0  0  0  3  0  0  0  0  0  0
  184.2590  178.4280  142.2970 C   0  0  0  0  0  0  0  0  0  0  0  0
  188.4240  178.8360  140.0790 C   0  0  2  0  0  3  0  0  0  0  0  0
  187.0500  178.1040  142.1000 C   0  0  0  0  0  0  0  0  0  0  0  0
  184.5110  178.6750  144.7520 N   0  0  0  0  0  2  0  0  0  0  0  0
  180.7100  178.8570  143.5960 C   0  0  0  0  0  0  0  0  0  0  0  0
  179.9820  178.8760  142.4050 C   0  0  0  0  0  3  0  0  0  0  0  0
  182.7820  178.6010  142.3420 C   0  0  0  0  0  0  0  0  0  0  0  0
  180.6440  178.7520  141.1810 C   0  0  0  0  0  3  0  0  0  0  0  0
  182.1000  178.7160  143.5640 C   0  0  0  0  0  3  0  0  0  0  0  0
  182.0350  178.6130  141.1510 C   0  0  0  0  0  3  0  0  0  0  0  0
  180.0680  178.9720  144.7840 F   0  0  0  0  0  0  0  0  0  0  0  0
  189.4190  178.3020  139.1060 C   0  0  0  0  0  3  0  0  0  0  0  0
  190.0840  177.2370  139.3740 N   0  0  0  0  0  0  0  0  0  0  0  0
  192.4120  176.5620  139.1140 C   0  0  0  0  0  2  0  0  0  0  0  0
  191.0440  176.7150  138.4390 C   0  0  1  0  0  3  0  0  0  0  0  0
  193.4390  175.9610  138.1540 C   0  0  1  0  0  3  0  0  0  0  0  0
  192.9360  174.6340  137.5800 C   0  0  0  0  0  2  0  0  0  0  0  0
  191.5670  174.7990  136.9220 C   0  0  0  0  0  2  0  0  0  0  0  0
  190.5650  175.3620  137.9230 C   0  0  0  0  0  2  0  0  0  0  0  0
  193.7240  176.8580  137.1220 O   0  0  0  0  0  1  0  0  0  0  0  0
  1 10  1  0  0  0  0
  2  6  2  0  0  0  0
  3 11  1  0  0  0  0
  3  8  1  0  0  0  0
  4 14  2  0  0  0  0
  4 17  1  0  0  0  0
  6  5  1  0  0  0  0
  7 17  1  0  0  0  0
  8  2  1  0  0  0  0
  8  1  2  0  0  0  0
  9 16  1  0  0  0  0
  9  4  1  0  0  0  0
 10  5  2  0  0  0  0
 11 18  1  0  0  0  0
 12  1  1  0  0  0  0
 13  2  1  0  0  0  0
 14 15  1  0  0  0  0
 15 21  1  0  0  0  0
 15 11  2  0  0  0  0
 16 26  1  6  0  0  0
 16  7  1  0  0  0  0
 17  3  2  0  0  0  0
 18 12  1  0  0  0  0
 19 25  1  0  0  0  0
 20 19  2  0  0  0  0
 21 23  2  0  0  0  0
 22 20  1  0  0  0  0
 23 19  1  0  0  0  0
 24 22  2  0  0  0  0
 24 21  1  0  0  0  0
 26 27  2  0  0  0  0
 29 28  1  0  0  0  0
 29 27  1  1  0  0  0
 30 34  1  6  0  0  0
 30 28  1  0  0  0  0
 31 30  1  0  0  0  0
 32 31  1  0  0  0  0
 32 33  1  0  0  0  0
 33 29  1  0  0  0  0
M  END
>  <MODEL>
3

>  <REMARK>
 VINA RESULT:      -9.5      2.089      3.351
  Name = 
  3 active torsions:
  status: ('A' for Active; 'I' for Inactive)
    1  A    between atoms: C_3  and  C_29
    2  A    between atoms: C_12  and  C_28
    3  A    between atoms: C_13  and  N_17
                            x       y       z     vdW  Elec       q    Type
                         _______ _______ _______ _____ _____    ______ ____

>  <TORSDO>
F 3

$$$$
=
 OpenBabel10262423433D

 34 39  0  0  1  0  0  0  0  0999 V2000
  191.8950  177.2930  140.1850 C   0  0  0  0  0  0  0  0  0  0  0  0
  190.0270  176.4760  138.8860 C   0  0  0  0  0  0  0  0  0  0  0  0
  189.6540  177.3140  141.2800 C   0  0  0  0  0  0  0  0  0  0  0  0
  187.5630  177.8020  142.4020 C   0  0  0  0  0  0  0  0  0  0  0  0
  192.2040  176.6430  137.9100 N   0  0  0  0  0  0  0  0  0  0  0  0
  190.8930  176.3070  137.8030 C   0  0  0  0  0  3  0  0  0  0  0  0
  187.4260  178.3310  139.8080 S   0  0  0  0  0  0  0  0  0  0  0  0
  190.5060  177.0750  140.0730 C   0  0  0  0  0  0  0  0  0  0  0  0
  186.1790  178.2990  142.2420 C   0  0  0  0  0  2  0  0  0  0  0  0
  192.7220  177.1070  139.0760 C   0  0  0  0  0  3  0  0  0  0  0  0
  190.2760  177.2050  142.5460 C   0  0  0  0  0  0  0  0  0  0  0  0
  192.5000  177.7040  141.4910 C   0  0  0  0  0  2  0  0  0  0  0  0
  188.7350  175.9760  138.7860 O   0  0  0  0  0  1  0  0  0  0  0  0
  188.1420  177.5550  143.6420 C   0  0  0  0  0  3  0  0  0  0  0  0
  189.5070  177.2430  143.7370 C   0  0  0  0  0  0  0  0  0  0  0  0
  186.1560  179.0460  140.9150 C   0  0  2  0  0  3  0  0  0  0  0  0
  188.2920  177.6870  141.2350 C   0  0  0  0  0  0  0  0  0  0  0  0
  191.7090  177.1740  142.5990 N   0  0  0  0  0  2  0  0  0  0  0  0
  191.8150  176.0600  146.5190 C   0  0  0  0  0  0  0  0  0  0  0  0
  191.1650  176.5640  147.6480 C   0  0  0  0  0  3  0  0  0  0  0  0
  190.0960  177.0190  145.0840 C   0  0  0  0  0  0  0  0  0  0  0  0
  189.9800  177.2900  147.5040 C   0  0  0  0  0  3  0  0  0  0  0  0
  191.2810  176.2820  145.2470 C   0  0  0  0  0  3  0  0  0  0  0  0
  189.4480  177.5140  146.2300 C   0  0  0  0  0  3  0  0  0  0  0  0
  192.9610  175.3510  146.6580 F   0  0  0  0  0  0  0  0  0  0  0  0
  184.8030  178.9400  140.2990 C   0  0  0  0  0  3  0  0  0  0  0  0
  183.8640  178.3020  140.8970 N   0  0  0  0  0  0  0  0  0  0  0  0
  182.4290  179.1620  139.1250 C   0  0  0  0  0  2  0  0  0  0  0  0
  182.5550  178.1980  140.3090 C   0  0  1  0  0  3  0  0  0  0  0  0
  181.0630  179.0350  138.4500 C   0  0  1  0  0  3  0  0  0  0  0  0
  180.7940  177.5860  138.0340 C   0  0  0  0  0  2  0  0  0  0  0  0
  180.9360  176.6350  139.2220 C   0  0  0  0  0  2  0  0  0  0  0  0
  182.3240  176.7650  139.8390 C   0  0  0  0  0  2  0  0  0  0  0  0
  180.0550  179.4890  139.3020 O   0  0  0  0  0  1  0  0  0  0  0  0
  1 12  1  0  0  0  0
  2  8  2  0  0  0  0
  3 11  1  0  0  0  0
  4 14  2  0  0  0  0
  5 10  1  0  0  0  0
  6  5  2  0  0  0  0
  6  2  1  0  0  0  0
  7 16  1  0  0  0  0
  7 17  1  0  0  0  0
  8  1  1  0  0  0  0
  8  3  1  0  0  0  0
  9  4  1  0  0  0  0
 10  1  2  0  0  0  0
 11 18  1  0  0  0  0
 11 15  2  0  0  0  0
 12 18  1  0  0  0  0
 13  2  1  0  0  0  0
 14 15  1  0  0  0  0
 15 21  1  0  0  0  0
 16 26  1  6  0  0  0
 16  9  1  0  0  0  0
 17  3  2  0  0  0  0
 17  4  1  0  0  0  0
 19 25  1  0  0  0  0
 19 20  1  0  0  0  0
 21 23  1  0  0  0  0
 21 24  2  0  0  0  0
 22 20  2  0  0  0  0
 23 19  2  0  0  0  0
 24 22  1  0  0  0  0
 26 27  2  0  0  0  0
 28 29  1  0  0  0  0
 29 27  1  6  0  0  0
 30 28  1  0  0  0  0
 30 34  1  1  0  0  0
 31 30  1  0  0  0  0
 31 32  1  0  0  0  0
 32 33  1  0  0  0  0
 33 29  1  0  0  0  0
M  END
>  <MODEL>
4

>  <REMARK>
 VINA RESULT:      -9.2      4.264      7.963
  Name = 
  3 active torsions:
  status: ('A' for Active; 'I' for Inactive)
    1  A    between atoms: C_3  and  C_29
    2  A    between atoms: C_12  and  C_28
    3  A    between atoms: C_13  and  N_17
                            x       y       z     vdW  Elec       q    Type
                         _______ _______ _______ _____ _____    ______ ____

>  <TORSDO>
F 3

$$$$
=
 OpenBabel10262423433D

 34 39  0  0  1  0  0  0  0  0999 V2000
  186.7760  178.5460  146.4000 C   0  0  0  0  0  0  0  0  0  0  0  0
  188.3690  177.0150  145.4160 C   0  0  0  0  0  0  0  0  0  0  0  0
  186.5900  178.1320  143.9460 C   0  0  0  0  0  0  0  0  0  0  0  0
  186.4560  178.2040  141.5290 C   0  0  0  0  0  0  0  0  0  0  0  0
  188.5230  177.6110  147.7280 N   0  0  0  0  0  0  0  0  0  0  0  0
  188.9880  176.9050  146.6640 C   0  0  0  0  0  3  0  0  0  0  0  0
  188.9700  178.1980  142.3680 S   0  0  0  0  0  0  0  0  0  0  0  0
  187.3050  177.9290  145.2460 C   0  0  0  0  0  0  0  0  0  0  0  0
  187.2220  178.2540  140.2650 C   0  0  0  0  0  2  0  0  0  0  0  0
  187.4260  178.4030  147.6260 C   0  0  0  0  0  3  0  0  0  0  0  0
  185.2080  178.4320  144.0050 C   0  0  0  0  0  0  0  0  0  0  0  0
  185.5080  179.3390  146.3280 C   0  0  0  0  0  2  0  0  0  0  0  0
  188.7750  176.1630  144.3980 O   0  0  0  0  0  1  0  0  0  0  0  0
  185.0740  178.3580  141.5850 C   0  0  0  0  0  3  0  0  0  0  0  0
  184.4240  178.4650  142.8240 C   0  0  0  0  0  0  0  0  0  0  0  0
  188.6230  178.7130  140.6460 C   0  0  2  0  0  3  0  0  0  0  0  0
  187.2110  178.0910  142.6790 C   0  0  0  0  0  0  0  0  0  0  0  0
  184.6490  178.8150  145.2690 N   0  0  0  0  0  2  0  0  0  0  0  0
  180.8360  178.9960  141.6770 C   0  0  0  0  0  0  0  0  0  0  0  0
  180.1680  179.0900  142.9000 C   0  0  0  0  0  3  0  0  0  0  0  0
  182.9490  178.6630  142.8420 C   0  0  0  0  0  0  0  0  0  0  0  0
  180.8830  178.9780  144.0950 C   0  0  0  0  0  3  0  0  0  0  0  0
  182.2180  178.7880  141.6490 C   0  0  0  0  0  3  0  0  0  0  0  0
  182.2650  178.7680  144.0660 C   0  0  0  0  0  3  0  0  0  0  0  0
  180.1450  179.1100  140.5180 F   0  0  0  0  0  0  0  0  0  0  0  0
  189.6210  178.1220  139.7100 C   0  0  0  0  0  3  0  0  0  0  0  0
  189.8530  176.8600  139.7200 N   0  0  0  0  0  0  0  0  0  0  0  0
  190.3930  176.5310  137.3650 C   0  0  0  0  0  2  0  0  0  0  0  0
  190.8140  176.2820  138.8180 C   0  0  1  0  0  3  0  0  0  0  0  0
  191.4250  175.9700  136.3860 C   0  0  1  0  0  3  0  0  0  0  0  0
  192.8170  176.5350  136.6790 C   0  0  0  0  0  2  0  0  0  0  0  0
  193.2170  176.2900  138.1340 C   0  0  0  0  0  2  0  0  0  0  0  0
  192.1840  176.8990  139.0750 C   0  0  0  0  0  2  0  0  0  0  0  0
  191.4450  174.5760  136.4460 O   0  0  0  0  0  1  0  0  0  0  0  0
  1 10  1  0  0  0  0
  2  6  2  0  0  0  0
  3 11  1  0  0  0  0
  3  8  1  0  0  0  0
  4 14  2  0  0  0  0
  4 17  1  0  0  0  0
  6  5  1  0  0  0  0
  7 17  1  0  0  0  0
  8  2  1  0  0  0  0
  8  1  2  0  0  0  0
  9 16  1  0  0  0  0
  9  4  1  0  0  0  0
 10  5  2  0  0  0  0
 11 18  1  0  0  0  0
 12  1  1  0  0  0  0
 13  2  1  0  0  0  0
 14 15  1  0  0  0  0
 15 21  1  0  0  0  0
 15 11  2  0  0  0  0
 16 26  1  6  0  0  0
 16  7  1  0  0  0  0
 17  3  2  0  0  0  0
 18 12  1  0  0  0  0
 19 20  1  0  0  0  0
 20 22  2  0  0  0  0
 21 24  2  0  0  0  0
 23 19  2  0  0  0  0
 23 21  1  0  0  0  0
 24 22  1  0  0  0  0
 25 19  1  0  0  0  0
 26 27  2  0  0  0  0
 28 29  1  0  0  0  0
 29 33  1  0  0  0  0
 29 27  1  1  0  0  0
 30 34  1  1  0  0  0
 30 31  1  0  0  0  0
 30 28  1  0  0  0  0
 31 32  1  0  0  0  0
 32 33  1  0  0  0  0
M  END
>  <MODEL>
5

>  <REMARK>
 VINA RESULT:      -9.2      2.104      3.224
  Name = 
  3 active torsions:
  status: ('A' for Active; 'I' for Inactive)
    1  A    between atoms: C_3  and  C_29
    2  A    between atoms: C_12  and  C_28
    3  A    between atoms: C_13  and  N_17
                            x       y       z     vdW  Elec       q    Type
                         _______ _______ _______ _____ _____    ______ ____

>  <TORSDO>
F 3

$$$$
=
 OpenBabel10262423433D

 34 39  0  0  1  0  0  0  0  0999 V2000
  185.3830  178.9250  144.6120 C   0  0  0  0  0  0  0  0  0  0  0  0
  187.1430  177.3120  144.2290 C   0  0  0  0  0  0  0  0  0  0  0  0
  185.9040  178.3520  142.2400 C   0  0  0  0  0  0  0  0  0  0  0  0
  186.4810  178.2670  139.8890 C   0  0  0  0  0  0  0  0  0  0  0  0
  186.6380  178.0560  146.4460 N   0  0  0  0  0  0  0  0  0  0  0  0
  187.3680  177.2760  145.6080 C   0  0  0  0  0  3  0  0  0  0  0  0
  188.6410  178.2820  141.4250 S   0  0  0  0  0  0  0  0  0  0  0  0
  186.2040  178.2260  143.7020 C   0  0  0  0  0  0  0  0  0  0  0  0
  187.5820  178.2230  138.9030 C   0  0  0  0  0  2  0  0  0  0  0  0
  185.6440  178.8550  145.9810 C   0  0  0  0  0  3  0  0  0  0  0  0
  184.5750  178.6730  141.8750 C   0  0  0  0  0  0  0  0  0  0  0  0
  184.2160  179.7280  144.1260 C   0  0  0  0  0  2  0  0  0  0  0  0
  187.8000  176.3890  143.4260 O   0  0  0  0  0  1  0  0  0  0  0  0
  185.1480  178.4420  139.5300 C   0  0  0  0  0  3  0  0  0  0  0  0
  184.1690  178.6390  140.5170 C   0  0  0  0  0  0  0  0  0  0  0  0
  188.8260  178.6870  139.6490 C   0  0  2  0  0  3  0  0  0  0  0  0
  186.8650  178.2200  141.2140 C   0  0  0  0  0  0  0  0  0  0  0  0
  183.6860  179.1470  142.8960 N   0  0  0  0  0  2  0  0  0  0  0  0
  181.0890  180.1110  138.8400 C   0  0  0  0  0  0  0  0  0  0  0  0
  180.0820  179.2850  139.3420 C   0  0  0  0  0  3  0  0  0  0  0  0
  182.7610  178.8570  140.0920 C   0  0  0  0  0  0  0  0  0  0  0  0
  180.4040  178.2490  140.2230 C   0  0  0  0  0  3  0  0  0  0  0  0
  182.4190  179.9010  139.2160 C   0  0  0  0  0  3  0  0  0  0  0  0
  181.7340  178.0390  140.5970 C   0  0  0  0  0  3  0  0  0  0  0  0
  180.7770  181.1190  137.9900 F   0  0  0  0  0  0  0  0  0  0  0  0
  190.0330  178.0220  139.0820 C   0  0  0  0  0  3  0  0  0  0  0  0
  189.9120  177.1020  138.1960 N   0  0  0  0  0  0  0  0  0  0  0  0
  192.2450  176.5420  138.6270 C   0  0  0  0  0  2  0  0  0  0  0  0
  191.0730  176.4570  137.6430 C   0  0  1  0  0  3  0  0  0  0  0  0
  193.4780  175.8190  138.0830 C   0  0  1  0  0  3  0  0  0  0  0  0
  193.1440  174.3700  137.7210 C   0  0  0  0  0  2  0  0  0  0  0  0
  191.9660  174.3000  136.7500 C   0  0  0  0  0  2  0  0  0  0  0  0
  190.7490  174.9960  137.3460 C   0  0  0  0  0  2  0  0  0  0  0  0
  193.9850  176.4920  136.9700 O   0  0  0  0  0  1  0  0  0  0  0  0
  1 10  1  0  0  0  0
  2  6  2  0  0  0  0
  3  8  1  0  0  0  0
  4 17  1  0  0  0  0
  6  5  1  0  0  0  0
  8  2  1  0  0  0  0
  8  1  2  0  0  0  0
  9 16  1  0  0  0  0
  9  4  1  0  0  0  0
 10  5  2  0  0  0  0
 11  3  1  0  0  0  0
 11 18  1  0  0  0  0
 12  1  1  0  0  0  0
 13  2  1  0  0  0  0
 14  4  2  0  0  0  0
 14 15  1  0  0  0  0
 15 11  2  0  0  0  0
 16 26  1  6  0  0  0
 16  7  1  0  0  0  0
 17  7  1  0  0  0  0
 17  3  2  0  0  0  0
 18 12  1  0  0  0  0
 19 23  2  0  0  0  0
 19 20  1  0  0  0  0
 20 22  2  0  0  0  0
 21 15  1  0  0  0  0
 21 24  2  0  0  0  0
 22 24  1  0  0  0  0
 23 21  1  0  0  0  0
 25 19  1  0  0  0  0
 27 26  2  0  0  0  0
 29 27  1  1  0  0  0
 29 28  1  0  0  0  0
 30 34  1  6  0  0  0
 30 28  1  0  0  0  0
 31 30  1  0  0  0  0
 32 33  1  0  0  0  0
 32 31  1  0  0  0  0
 33 29  1  0  0  0  0
M  END
>  <MODEL>
6

>  <REMARK>
 VINA RESULT:      -9.1      2.853      4.370
  Name = 
  3 active torsions:
  status: ('A' for Active; 'I' for Inactive)
    1  A    between atoms: C_3  and  C_29
    2  A    between atoms: C_12  and  C_28
    3  A    between atoms: C_13  and  N_17
                            x       y       z     vdW  Elec       q    Type
                         _______ _______ _______ _____ _____    ______ ____

>  <TORSDO>
F 3

$$$$
=
 OpenBabel10262423433D

 34 39  0  0  1  0  0  0  0  0999 V2000
  188.2450  177.5490  135.1450 C   0  0  0  0  0  0  0  0  0  0  0  0
  186.7260  176.9180  136.9180 C   0  0  0  0  0  0  0  0  0  0  0  0
  189.2580  176.8530  137.3160 C   0  0  0  0  0  0  0  0  0  0  0  0
  190.4510  176.6070  139.4090 C   0  0  0  0  0  0  0  0  0  0  0  0
  185.8870  177.7400  134.8340 N   0  0  0  0  0  0  0  0  0  0  0  0
  185.6580  177.2540  136.0810 C   0  0  0  0  0  3  0  0  0  0  0  0
  188.1770  177.9290  139.7320 S   0  0  0  0  0  0  0  0  0  0  0  0
  188.0490  177.1620  136.4880 C   0  0  0  0  0  0  0  0  0  0  0  0
  190.4480  176.9020  140.8590 C   0  0  0  0  0  2  0  0  0  0  0  0
  187.1460  177.8710  134.3460 C   0  0  0  0  0  3  0  0  0  0  0  0
  190.4230  176.4340  136.6330 C   0  0  0  0  0  0  0  0  0  0  0  0
  189.6210  177.5980  134.5580 C   0  0  0  0  0  2  0  0  0  0  0  0
  186.4500  176.2810  138.1200 O   0  0  0  0  0  1  0  0  0  0  0  0
  191.5480  176.0610  138.7490 C   0  0  0  0  0  3  0  0  0  0  0  0
  191.5500  175.9560  137.3490 C   0  0  0  0  0  0  0  0  0  0  0  0
  189.4430  178.0300  141.0500 C   0  0  2  0  0  3  0  0  0  0  0  0
  189.3220  176.9980  138.7200 C   0  0  0  0  0  0  0  0  0  0  0  0
  190.4800  176.6150  135.2110 N   0  0  0  0  0  2  0  0  0  0  0  0
  194.9810  175.6820  135.7300 C   0  0  0  0  0  0  0  0  0  0  0  0
  195.0020  174.3360  135.3580 C   0  0  0  0  0  3  0  0  0  0  0  0
  192.7550  175.3990  136.6770 C   0  0  0  0  0  0  0  0  0  0  0  0
  193.9040  173.5190  135.6360 C   0  0  0  0  0  3  0  0  0  0  0  0
  193.8630  176.2100  136.3810 C   0  0  0  0  0  3  0  0  0  0  0  0
  192.7870  174.0480  136.2890 C   0  0  0  0  0  3  0  0  0  0  0  0
  196.0430  176.4770  135.4560 F   0  0  0  0  0  0  0  0  0  0  0  0
  188.8100  177.9200  142.3950 C   0  0  0  0  0  3  0  0  0  0  0  0
  189.2570  177.0800  143.2570 N   0  0  0  0  0  0  0  0  0  0  0  0
  189.4060  177.8410  145.5680 C   0  0  0  0  0  2  0  0  0  0  0  0
  188.6520  176.9690  144.5580 C   0  0  1  0  0  3  0  0  0  0  0  0
  188.7510  177.7800  146.9490 C   0  0  1  0  0  3  0  0  0  0  0  0
  187.2700  178.1570  146.8660 C   0  0  0  0  0  2  0  0  0  0  0  0
  186.5350  177.2890  145.8460 C   0  0  0  0  0  2  0  0  0  0  0  0
  187.1940  177.4100  144.4770 C   0  0  0  0  0  2  0  0  0  0  0  0
  188.8970  176.5060  147.5010 O   0  0  0  0  0  1  0  0  0  0  0  0
  1  8  1  0  0  0  0
  2 13  1  0  0  0  0
  3 17  1  0  0  0  0
  4  9  1  0  0  0  0
  5  6  2  0  0  0  0
  6  2  1  0  0  0  0
  7 16  1  0  0  0  0
  8  2  2  0  0  0  0
  8  3  1  0  0  0  0
  9 16  1  0  0  0  0
 10  5  1  0  0  0  0
 10  1  2  0  0  0  0
 11  3  2  0  0  0  0
 11 15  1  0  0  0  0
 12  1  1  0  0  0  0
 12 18  1  0  0  0  0
 14  4  1  0  0  0  0
 15 14  2  0  0  0  0
 16 26  1  1  0  0  0
 17  4  2  0  0  0  0
 17  7  1  0  0  0  0
 18 11  1  0  0  0  0
 19 23  1  0  0  0  0
 20 22  1  0  0  0  0
 20 19  2  0  0  0  0
 21 15  1  0  0  0  0
 22 24  2  0  0  0  0
 23 21  2  0  0  0  0
 24 21  1  0  0  0  0
 25 19  1  0  0  0  0
 26 27  2  0  0  0  0
 28 30  1  0  0  0  0
 29 27  1  6  0  0  0
 29 28  1  0  0  0  0
 30 34  1  6  0  0  0
 31 30  1  0  0  0  0
 32 31  1  0  0  0  0
 33 29  1  0  0  0  0
 33 32  1  0  0  0  0
M  END
>  <MODEL>
7

>  <REMARK>
 VINA RESULT:      -8.8      4.152     10.337
  Name = 
  3 active torsions:
  status: ('A' for Active; 'I' for Inactive)
    1  A    between atoms: C_3  and  C_29
    2  A    between atoms: C_12  and  C_28
    3  A    between atoms: C_13  and  N_17
                            x       y       z     vdW  Elec       q    Type
                         _______ _______ _______ _____ _____    ______ ____

>  <TORSDO>
F 3

$$$$
=
 OpenBabel10262423433D

 34 39  0  0  1  0  0  0  0  0999 V2000
  186.9030  177.3620  144.7000 C   0  0  0  0  0  0  0  0  0  0  0  0
  185.3580  179.2090  144.4790 C   0  0  0  0  0  0  0  0  0  0  0  0
  186.4740  178.2160  142.3950 C   0  0  0  0  0  0  0  0  0  0  0  0
  185.9300  178.5930  140.0650 C   0  0  0  0  0  0  0  0  0  0  0  0
  185.7510  178.2020  146.6130 N   0  0  0  0  0  0  0  0  0  0  0  0
  185.1280  179.1420  145.8550 C   0  0  0  0  0  3  0  0  0  0  0  0
  183.7730  178.7000  141.6020 S   0  0  0  0  0  0  0  0  0  0  0  0
  186.1810  178.2400  143.8630 C   0  0  0  0  0  0  0  0  0  0  0  0
  184.8490  178.8660  139.0930 C   0  0  0  0  0  2  0  0  0  0  0  0
  186.6420  177.3340  146.0710 C   0  0  0  0  0  3  0  0  0  0  0  0
  187.7550  177.7690  141.9960 C   0  0  0  0  0  0  0  0  0  0  0  0
  187.9650  176.4710  144.1350 C   0  0  0  0  0  2  0  0  0  0  0  0
  184.8260  180.2770  143.7700 O   0  0  0  0  0  1  0  0  0  0  0  0
  187.2330  178.2900  139.6860 C   0  0  0  0  0  3  0  0  0  0  0  0
  188.1730  177.8810  140.6450 C   0  0  0  0  0  0  0  0  0  0  0  0
  183.5520  178.4900  139.7970 C   0  0  2  0  0  3  0  0  0  0  0  0
  185.5440  178.5630  141.3900 C   0  0  0  0  0  0  0  0  0  0  0  0
  188.5720  177.0950  142.9630 N   0  0  0  0  0  2  0  0  0  0  0  0
  191.9330  177.3080  140.6300 C   0  0  0  0  0  0  0  0  0  0  0  0
  192.1460  176.9170  139.3070 C   0  0  0  0  0  3  0  0  0  0  0  0
  189.5470  177.5320  140.1950 C   0  0  0  0  0  0  0  0  0  0  0  0
  191.0680  176.8360  138.4220 C   0  0  0  0  0  3  0  0  0  0  0  0
  190.6430  177.6180  141.0690 C   0  0  0  0  0  3  0  0  0  0  0  0
  189.7780  177.1440  138.8630 C   0  0  0  0  0  3  0  0  0  0  0  0
  192.9780  177.3920  141.4880 F   0  0  0  0  0  0  0  0  0  0  0  0
  182.4400  179.3500  139.3000 C   0  0  0  0  0  3  0  0  0  0  0  0
  182.6900  180.4820  138.7490 N   0  0  0  0  0  0  0  0  0  0  0  0
  182.1120  182.7580  138.0960 C   0  0  0  0  0  2  0  0  0  0  0  0
  181.6220  181.3160  138.2660 C   0  0  1  0  0  3  0  0  0  0  0  0
  181.0080  183.6550  137.5340 C   0  0  1  0  0  3  0  0  0  0  0  0
  180.4540  183.0840  136.2270 C   0  0  0  0  0  2  0  0  0  0  0  0
  179.9820  181.6430  136.4090 C   0  0  0  0  0  2  0  0  0  0  0  0
  181.1220  180.7750  136.9300 C   0  0  0  0  0  2  0  0  0  0  0  0
  179.9820  183.8060  138.4700 O   0  0  0  0  0  1  0  0  0  0  0  0
  1 10  1  0  0  0  0
  2  6  2  0  0  0  0
  3  8  1  0  0  0  0
  4 17  1  0  0  0  0
  6  5  1  0  0  0  0
  8  2  1  0  0  0  0
  8  1  2  0  0  0  0
  9 16  1  0  0  0  0
  9  4  1  0  0  0  0
 10  5  2  0  0  0  0
 11  3  1  0  0  0  0
 11 18  1  0  0  0  0
 12  1  1  0  0  0  0
 13  2  1  0  0  0  0
 14  4  2  0  0  0  0
 14 15  1  0  0  0  0
 15 11  2  0  0  0  0
 16 26  1  6  0  0  0
 16  7  1  0  0  0  0
 17  7  1  0  0  0  0
 17  3  2  0  0  0  0
 18 12  1  0  0  0  0
 19 23  1  0  0  0  0
 19 25  1  0  0  0  0
 20 19  2  0  0  0  0
 21 15  1  0  0  0  0
 21 23  2  0  0  0  0
 22 24  2  0  0  0  0
 22 20  1  0  0  0  0
 24 21  1  0  0  0  0
 27 26  2  0  0  0  0
 28 29  1  0  0  0  0
 29 27  1  6  0  0  0
 30 28  1  0  0  0  0
 30 34  1  1  0  0  0
 31 32  1  0  0  0  0
 31 30  1  0  0  0  0
 32 33  1  0  0  0  0
 33 29  1  0  0  0  0
M  END
>  <MODEL>
8

>  <REMARK>
 VINA RESULT:      -8.4      5.536      8.887
  Name = 
  3 active torsions:
  status: ('A' for Active; 'I' for Inactive)
    1  A    between atoms: C_3  and  C_29
    2  A    between atoms: C_12  and  C_28
    3  A    between atoms: C_13  and  N_17
                            x       y       z     vdW  Elec       q    Type
                         _______ _______ _______ _____ _____    ______ ____

>  <TORSDO>
F 3

$$$$
=
 OpenBabel10262423433D

 34 39  0  0  1  0  0  0  0  0999 V2000
  191.5670  177.5010  140.9270 C   0  0  0  0  0  0  0  0  0  0  0  0
  190.0380  176.5760  139.2980 C   0  0  0  0  0  0  0  0  0  0  0  0
  189.1410  177.5150  141.5080 C   0  0  0  0  0  0  0  0  0  0  0  0
  186.8490  178.0010  142.1240 C   0  0  0  0  0  0  0  0  0  0  0  0
  192.3730  176.7530  138.8090 N   0  0  0  0  0  0  0  0  0  0  0  0
  191.1210  176.3790  138.4380 C   0  0  0  0  0  3  0  0  0  0  0  0
  187.2730  178.4050  139.5390 S   0  0  0  0  0  0  0  0  0  0  0  0
  190.2390  177.2420  140.5280 C   0  0  0  0  0  0  0  0  0  0  0  0
  185.5260  178.4550  141.6430 C   0  0  0  0  0  2  0  0  0  0  0  0
  192.6180  177.2840  140.0340 C   0  0  0  0  0  3  0  0  0  0  0  0
  189.4750  177.4810  142.8830 C   0  0  0  0  0  0  0  0  0  0  0  0
  191.8670  177.9870  142.3110 C   0  0  0  0  0  2  0  0  0  0  0  0
  188.8070  176.0400  138.9460 O   0  0  0  0  0  1  0  0  0  0  0  0
  187.1480  177.8270  143.4720 C   0  0  0  0  0  3  0  0  0  0  0  0
  188.4640  177.5540  143.8750 C   0  0  0  0  0  0  0  0  0  0  0  0
  185.7820  179.1380  140.3070 C   0  0  2  0  0  3  0  0  0  0  0  0
  187.8160  177.8500  141.1510 C   0  0  0  0  0  0  0  0  0  0  0  0
  190.8620  177.4890  143.2460 N   0  0  0  0  0  2  0  0  0  0  0  0
  188.1030  177.6920  147.6590 C   0  0  0  0  0  0  0  0  0  0  0  0
  189.3330  177.1740  148.0710 C   0  0  0  0  0  3  0  0  0  0  0  0
  188.7500  177.4090  145.3280 C   0  0  0  0  0  0  0  0  0  0  0  0
  190.2760  176.7790  147.1200 C   0  0  0  0  0  3  0  0  0  0  0  0
  187.8160  177.8120  146.2970 C   0  0  0  0  0  3  0  0  0  0  0  0
  189.9870  176.8980  145.7580 C   0  0  0  0  0  3  0  0  0  0  0  0
  187.1890  178.0800  148.5810 F   0  0  0  0  0  0  0  0  0  0  0  0
  184.5970  178.9700  139.4180 C   0  0  0  0  0  3  0  0  0  0  0  0
  184.3130  177.8200  138.9240 N   0  0  0  0  0  0  0  0  0  0  0  0
  183.6180  177.1990  136.6710 C   0  0  0  0  0  2  0  0  0  0  0  0
  183.1710  177.6500  138.0660 C   0  0  1  0  0  3  0  0  0  0  0  0
  182.4170  176.9620  135.7540 C   0  0  1  0  0  3  0  0  0  0  0  0
  181.4370  175.9700  136.3860 C   0  0  0  0  0  2  0  0  0  0  0  0
  181.0110  176.4260  137.7810 C   0  0  0  0  0  2  0  0  0  0  0  0
  182.2330  176.6110  138.6720 C   0  0  0  0  0  2  0  0  0  0  0  0
  181.7720  178.1690  135.4760 O   0  0  0  0  0  1  0  0  0  0  0  0
  1 12  1  0  0  0  0
  2  8  2  0  0  0  0
  3 11  1  0  0  0  0
  4 14  2  0  0  0  0
  5 10  1  0  0  0  0
  6  5  2  0  0  0  0
  6  2  1  0  0  0  0
  7 16  1  0  0  0  0
  7 17  1  0  0  0  0
  8  1  1  0  0  0  0
  8  3  1  0  0  0  0
  9  4  1  0  0  0  0
 10  1  2  0  0  0  0
 11 18  1  0  0  0  0
 11 15  2  0  0  0  0
 12 18  1  0  0  0  0
 13  2  1  0  0  0  0
 14 15  1  0  0  0  0
 15 21  1  0  0  0  0
 16 26  1  6  0  0  0
 16  9  1  0  0  0  0
 17  3  2  0  0  0  0
 17  4  1  0  0  0  0
 19 20  1  0  0  0  0
 19 25  1  0  0  0  0
 21 24  2  0  0  0  0
 21 23  1  0  0  0  0
 22 20  2  0  0  0  0
 23 19  2  0  0  0  0
 24 22  1  0  0  0  0
 27 26  2  0  0  0  0
 28 29  1  0  0  0  0
 29 33  1  0  0  0  0
 29 27  1  1  0  0  0
 30 34  1  1  0  0  0
 30 31  1  0  0  0  0
 30 28  1  0  0  0  0
 31 32  1  0  0  0  0
 32 33  1  0  0  0  0
M  END
>  <MODEL>
9

>  <REMARK>
 VINA RESULT:      -8.3      4.377      7.038
  Name = 
  3 active torsions:
  status: ('A' for Active; 'I' for Inactive)
    1  A    between atoms: C_3  and  C_29
    2  A    between atoms: C_12  and  C_28
    3  A    between atoms: C_13  and  N_17
                            x       y       z     vdW  Elec       q    Type
                         _______ _______ _______ _____ _____    ______ ____

>  <TORSDO>
F 3

$$$$
