=
 OpenBabel10272402113D

 32 37  0  0  1  0  0  0  0  0999 V2000
  191.2730  177.5230  140.2170 C   0  0  2  0  0  3  0  0  0  0  0  0
  189.8460  177.2420  138.1930 C   0  0  1  0  0  3  0  0  0  0  0  0
  192.6290  177.5180  140.8720 C   0  0  0  0  0  2  0  0  0  0  0  0
  191.1790  177.3140  138.8840 C   0  0  2  0  0  3  0  0  0  0  0  0
  189.5470  175.7670  137.8830 C   0  0  1  0  0  3  0  0  0  0  0  0
  185.0060  178.1340  138.2980 C   0  0  0  0  0  3  0  0  0  0  0  0
  188.7230  177.8780  139.0330 C   0  0  2  0  0  3  0  0  0  0  0  0
  185.8870  176.2410  137.0700 C   0  0  0  0  0  3  0  0  0  0  0  0
  187.1590  176.4880  137.5940 C   0  0  0  0  0  0  0  0  0  0  0  0
  192.3310  176.7410  138.0870 C   0  0  2  0  0  3  0  0  0  0  0  0
  188.2590  175.6590  137.2070 N   0  0  0  0  0  2  0  0  0  0  0  0
  192.0300  175.2800  137.7390 C   0  0  0  0  0  2  0  0  0  0  0  0
  193.6360  176.8800  138.7510 N   0  0  0  0  0  2  0  0  0  0  0  0
  188.8070  177.4130  140.4130 N   0  0  0  0  0  2  0  0  0  0  0  0
  190.0420  177.9330  141.0110 C   0  0  1  0  0  3  0  0  0  0  0  0
  187.3610  177.5800  138.4650 C   0  0  0  0  0  0  0  0  0  0  0  0
  190.6700  175.1520  137.0310 C   0  0  1  0  0  3  0  0  0  0  0  0
  193.5400  176.5250  140.1670 C   0  0  0  0  0  2  0  0  0  0  0  0
  184.8110  177.0600  137.4240 C   0  0  0  0  0  3  0  0  0  0  0  0
  186.2770  178.3930  138.8170 C   0  0  0  0  0  3  0  0  0  0  0  0
  188.7320  177.8850  144.6530 C   0  0  1  0  0  3  0  0  0  0  0  0
  192.0040  176.3590  146.4390 Cl  0  0  0  0  0  0  0  0  0  0  0  0
  187.3430  177.8090  145.2660 C   0  0  0  0  0  1  0  0  0  0  0  0
  191.5710  178.2280  144.4270 C   0  0  0  0  0  3  0  0  0  0  0  0
  190.1270  177.5470  142.4930 C   0  0  1  0  0  3  0  0  0  0  0  0
  189.6770  177.0930  145.4330 N   0  0  0  0  0  0  0  0  0  0  0  0
  191.1590  178.4110  143.1700 C   0  0  0  0  0  3  0  0  0  0  0  0
  188.7350  177.4830  143.1690 C   0  0  1  0  0  3  0  0  0  0  0  0
  188.1320  176.1000  142.9670 C   0  0  0  0  0  1  0  0  0  0  0  0
  190.9650  177.2470  145.3480 C   0  0  0  0  0  0  0  0  0  0  0  0
  190.3890  173.7470  136.7820 N   0  0  0  0  0  2  0  0  0  0  0  0
  191.5870  173.1690  136.1980 C   0  0  0  0  0  1  0  0  0  0  0  0
  1  3  1  6  0  0  0
  1 15  1  0  0  0  0
  2  4  1  0  0  0  0
  2  7  1  0  0  0  0
  4  1  1  0  0  0  0
  5  2  1  0  0  0  0
  6 20  1  0  0  0  0
  7 14  1  0  0  0  0
  8 19  1  0  0  0  0
  8  9  2  0  0  0  0
  9 16  1  0  0  0  0
 10 13  1  0  0  0  0
 10  4  1  0  0  0  0
 11  9  1  0  0  0  0
 11  5  1  0  0  0  0
 12 10  1  0  0  0  0
 13 18  1  0  0  0  0
 14 15  1  0  0  0  0
 15 25  1  0  0  0  0
 16 20  2  0  0  0  0
 16  7  1  0  0  0  0
 17 12  1  0  0  0  0
 17  5  1  0  0  0  0
 18  3  1  0  0  0  0
 19  6  2  0  0  0  0
 21 23  1  0  0  0  0
 21 26  1  0  0  0  0
 24 30  1  0  0  0  0
 25 28  1  0  0  0  0
 25 27  1  0  0  0  0
 27 24  2  0  0  0  0
 28 21  1  0  0  0  0
 29 28  1  0  0  0  0
 30 26  2  0  0  0  0
 30 22  1  0  0  0  0
 31 17  1  0  0  0  0
 32 31  1  0  0  0  0
M  END
>  <MODEL>
1

>  <REMARK>
 VINA RESULT:      -8.3      0.000      0.000
  Name = 
  2 active torsions:
  status: ('A' for Active; 'I' for Inactive)
    1  A    between atoms: N_13  and  C_29
    2  A    between atoms: C_16  and  C_27
                            x       y       z     vdW  Elec       q    Type
                         _______ _______ _______ _____ _____    ______ ____

>  <TORSDO>
F 2

$$$$
=
 OpenBabel10272402113D

 32 37  0  0  1  0  0  0  0  0999 V2000
  190.2480  177.6780  140.0060 C   0  0  2  0  0  3  0  0  0  0  0  0
  188.4610  177.6950  138.2680 C   0  0  1  0  0  3  0  0  0  0  0  0
  191.6870  177.4770  140.4010 C   0  0  0  0  0  2  0  0  0  0  0  0
  189.8950  177.5700  138.7050 C   0  0  2  0  0  3  0  0  0  0  0  0
  187.9330  176.2870  137.9540 C   0  0  1  0  0  3  0  0  0  0  0  0
  183.8650  179.1210  139.2990 C   0  0  0  0  0  3  0  0  0  0  0  0
  187.5930  178.3980  139.3270 C   0  0  2  0  0  3  0  0  0  0  0  0
  184.2730  177.2260  137.8480 C   0  0  0  0  0  3  0  0  0  0  0  0
  185.6390  177.2920  138.1390 C   0  0  0  0  0  0  0  0  0  0  0  0
  190.8080  176.9230  137.6860 C   0  0  2  0  0  3  0  0  0  0  0  0
  186.5420  176.3700  137.5220 N   0  0  0  0  0  2  0  0  0  0  0  0
  190.2710  175.5320  137.3350 C   0  0  0  0  0  2  0  0  0  0  0  0
  192.2160  176.8690  138.1050 N   0  0  0  0  0  2  0  0  0  0  0  0
  187.8610  177.8370  140.6470 N   0  0  0  0  0  2  0  0  0  0  0  0
  189.2380  178.1730  141.0300 C   0  0  1  0  0  3  0  0  0  0  0  0
  186.1260  178.2940  139.0060 C   0  0  0  0  0  0  0  0  0  0  0  0
  188.8030  175.6060  136.8840 C   0  0  1  0  0  3  0  0  0  0  0  0
  192.3300  176.4350  139.4960 C   0  0  0  0  0  2  0  0  0  0  0  0
  183.3870  178.1360  138.4290 C   0  0  0  0  0  3  0  0  0  0  0  0
  185.2300  179.2000  139.5860 C   0  0  0  0  0  3  0  0  0  0  0  0
  188.4730  177.8650  144.8120 C   0  0  1  0  0  3  0  0  0  0  0  0
  191.9590  176.2230  145.9880 Cl  0  0  0  0  0  0  0  0  0  0  0  0
  187.1890  177.7430  145.6150 C   0  0  0  0  0  1  0  0  0  0  0  0
  191.2520  178.2290  144.1980 C   0  0  0  0  0  3  0  0  0  0  0  0
  189.5340  177.6820  142.4520 C   0  0  1  0  0  3  0  0  0  0  0  0
  189.5160  177.0210  145.3880 N   0  0  0  0  0  0  0  0  0  0  0  0
  190.6620  178.4990  143.0310 C   0  0  0  0  0  3  0  0  0  0  0  0
  188.2560  177.5690  143.3190 C   0  0  1  0  0  3  0  0  0  0  0  0
  187.6180  176.2020  143.1110 C   0  0  0  0  0  1  0  0  0  0  0  0
  190.7780  177.1840  145.1260 C   0  0  0  0  0  0  0  0  0  0  0  0
  188.3110  174.2610  136.6280 N   0  0  0  0  0  2  0  0  0  0  0  0
  189.3740  173.3410  136.9910 C   0  0  0  0  0  1  0  0  0  0  0  0
  1  3  1  6  0  0  0
  1 15  1  0  0  0  0
  2  4  1  0  0  0  0
  2  7  1  0  0  0  0
  4  1  1  0  0  0  0
  5  2  1  0  0  0  0
  6 20  1  0  0  0  0
  7 14  1  0  0  0  0
  8  9  2  0  0  0  0
  8 19  1  0  0  0  0
  9 16  1  0  0  0  0
 10 13  1  0  0  0  0
 10  4  1  0  0  0  0
 11  5  1  0  0  0  0
 11  9  1  0  0  0  0
 12 10  1  0  0  0  0
 13 18  1  0  0  0  0
 14 15  1  0  0  0  0
 15 25  1  0  0  0  0
 16  7  1  0  0  0  0
 16 20  2  0  0  0  0
 17 12  1  0  0  0  0
 17  5  1  0  0  0  0
 18  3  1  0  0  0  0
 19  6  2  0  0  0  0
 21 26  1  0  0  0  0
 21 23  1  0  0  0  0
 24 30  1  0  0  0  0
 25 27  1  0  0  0  0
 25 28  1  0  0  0  0
 27 24  2  0  0  0  0
 28 21  1  0  0  0  0
 29 28  1  0  0  0  0
 30 26  2  0  0  0  0
 30 22  1  0  0  0  0
 31 17  1  0  0  0  0
 31 32  1  0  0  0  0
M  END
>  <MODEL>
2

>  <REMARK>
 VINA RESULT:      -7.8      1.081      1.387
  Name = 
  2 active torsions:
  status: ('A' for Active; 'I' for Inactive)
    1  A    between atoms: N_13  and  C_29
    2  A    between atoms: C_16  and  C_27
                            x       y       z     vdW  Elec       q    Type
                         _______ _______ _______ _____ _____    ______ ____

>  <TORSDO>
F 2

$$$$
=
 OpenBabel10272402113D

 32 37  0  0  1  0  0  0  0  0999 V2000
  186.8190  178.5330  140.3560 C   0  0  2  0  0  3  0  0  0  0  0  0
  184.3610  178.6980  139.9740 C   0  0  1  0  0  3  0  0  0  0  0  0
  188.2230  178.4520  139.8190 C   0  0  0  0  0  2  0  0  0  0  0  0
  185.7860  178.6800  139.4950 C   0  0  2  0  0  3  0  0  0  0  0  0
  183.7250  177.3420  139.6360 C   0  0  1  0  0  3  0  0  0  0  0  0
  181.1910  179.1810  143.7080 C   0  0  0  0  0  3  0  0  0  0  0  0
  184.2610  179.0060  141.4790 C   0  0  2  0  0  3  0  0  0  0  0  0
  180.6710  177.7510  141.8240 C   0  0  0  0  0  3  0  0  0  0  0  0
  181.9610  177.9410  141.3200 C   0  0  0  0  0  0  0  0  0  0  0  0
  185.9470  178.4230  138.0120 C   0  0  2  0  0  3  0  0  0  0  0  0
  182.3370  177.3250  140.0850 N   0  0  0  0  0  2  0  0  0  0  0  0
  185.2840  177.0890  137.6540 C   0  0  0  0  0  2  0  0  0  0  0  0
  187.3420  178.4740  137.5510 N   0  0  0  0  0  2  0  0  0  0  0  0
  185.2240  178.1990  142.2200 N   0  0  0  0  0  2  0  0  0  0  0  0
  186.5780  178.6290  141.8550 C   0  0  1  0  0  3  0  0  0  0  0  0
  182.8700  178.7740  142.0060 C   0  0  0  0  0  0  0  0  0  0  0  0
  183.8210  177.0570  138.1270 C   0  0  1  0  0  3  0  0  0  0  0  0
  188.2200  177.7500  138.4690 C   0  0  0  0  0  2  0  0  0  0  0  0
  180.2880  178.3670  143.0180 C   0  0  0  0  0  3  0  0  0  0  0  0
  182.4780  179.3840  143.2040 C   0  0  0  0  0  3  0  0  0  0  0  0
  188.5120  177.8540  145.1180 C   0  0  1  0  0  3  0  0  0  0  0  0
  191.3450  175.4450  143.5690 Cl  0  0  0  0  0  0  0  0  0  0  0  0
  188.1230  177.8360  146.5870 C   0  0  0  0  0  1  0  0  0  0  0  0
  190.1310  177.8080  142.7500 C   0  0  0  0  0  3  0  0  0  0  0  0
  187.6240  177.8690  142.6810 C   0  0  1  0  0  3  0  0  0  0  0  0
  189.4250  176.7550  144.8180 N   0  0  0  0  0  0  0  0  0  0  0  0
  188.9990  178.3650  142.3130 C   0  0  0  0  0  3  0  0  0  0  0  0
  187.2850  177.8470  144.1910 C   0  0  1  0  0  3  0  0  0  0  0  0
  186.3680  176.6690  144.4910 C   0  0  0  0  0  1  0  0  0  0  0  0
  190.1710  176.7290  143.7550 C   0  0  0  0  0  0  0  0  0  0  0  0
  183.2500  175.7530  137.8320 N   0  0  0  0  0  2  0  0  0  0  0  0
  184.2460  175.0100  137.0800 C   0  0  0  0  0  1  0  0  0  0  0  0
  1  3  1  6  0  0  0
  1 15  1  0  0  0  0
  2  7  1  0  0  0  0
  4  2  1  0  0  0  0
  4  1  1  0  0  0  0
  5  2  1  0  0  0  0
  5 11  1  0  0  0  0
  7 16  1  0  0  0  0
  7 14  1  0  0  0  0
  8 19  1  0  0  0  0
  9  8  2  0  0  0  0
  9 16  1  0  0  0  0
 10  4  1  0  0  0  0
 11  9  1  0  0  0  0
 12 10  1  0  0  0  0
 12 17  1  0  0  0  0
 13 10  1  0  0  0  0
 13 18  1  0  0  0  0
 15 14  1  0  0  0  0
 15 25  1  0  0  0  0
 16 20  2  0  0  0  0
 17  5  1  0  0  0  0
 18  3  1  0  0  0  0
 19  6  2  0  0  0  0
 20  6  1  0  0  0  0
 21 23  1  0  0  0  0
 22 30  1  0  0  0  0
 24 30  1  0  0  0  0
 25 28  1  0  0  0  0
 26 21  1  0  0  0  0
 27 25  1  0  0  0  0
 27 24  2  0  0  0  0
 28 29  1  0  0  0  0
 28 21  1  0  0  0  0
 30 26  2  0  0  0  0
 31 17  1  0  0  0  0
 32 31  1  0  0  0  0
M  END
>  <MODEL>
3

>  <REMARK>
 VINA RESULT:      -7.3      3.258      5.275
  Name = 
  2 active torsions:
  status: ('A' for Active; 'I' for Inactive)
    1  A    between atoms: N_13  and  C_29
    2  A    between atoms: C_16  and  C_27
                            x       y       z     vdW  Elec       q    Type
                         _______ _______ _______ _____ _____    ______ ____

>  <TORSDO>
F 2

$$$$
=
 OpenBabel10272402113D

 32 37  0  0  1  0  0  0  0  0999 V2000
  186.7210  177.9510  138.6170 C   0  0  2  0  0  3  0  0  0  0  0  0
  189.1960  177.7910  138.8730 C   0  0  1  0  0  3  0  0  0  0  0  0
  185.3810  178.4140  139.1240 C   0  0  0  0  0  2  0  0  0  0  0  0
  187.8410  178.2840  139.2990 C   0  0  2  0  0  3  0  0  0  0  0  0
  189.6170  176.6650  139.8290 C   0  0  1  0  0  3  0  0  0  0  0  0
  192.0320  175.7980  135.3780 C   0  0  0  0  0  3  0  0  0  0  0  0
  189.2040  177.3160  137.4080 C   0  0  2  0  0  3  0  0  0  0  0  0
  192.4740  175.3700  137.7210 C   0  0  0  0  0  3  0  0  0  0  0  0
  191.2900  176.0270  138.0680 C   0  0  0  0  0  0  0  0  0  0  0  0
  187.7790  178.8040  140.7190 C   0  0  2  0  0  3  0  0  0  0  0  0
  190.9320  176.1630  139.4470 N   0  0  0  0  0  2  0  0  0  0  0  0
  188.2340  177.7020  141.6820 C   0  0  0  0  0  2  0  0  0  0  0  0
  186.4640  179.3420  141.0960 N   0  0  0  0  0  2  0  0  0  0  0  0
  188.0500  176.4600  137.1530 N   0  0  0  0  0  2  0  0  0  0  0  0
  186.8310  177.2700  137.2620 C   0  0  1  0  0  3  0  0  0  0  0  0
  190.4770  176.5910  137.0620 C   0  0  0  0  0  0  0  0  0  0  0  0
  189.6180  177.1610  141.2850 C   0  0  1  0  0  3  0  0  0  0  0  0
  185.3910  178.4570  140.6450 C   0  0  0  0  0  2  0  0  0  0  0  0
  192.8430  175.2520  136.3780 C   0  0  0  0  0  3  0  0  0  0  0  0
  190.8520  176.4650  135.7190 C   0  0  0  0  0  3  0  0  0  0  0  0
  184.9510  174.5700  135.2210 C   0  0  1  0  0  3  0  0  0  0  0  0
  181.2230  175.3080  136.5570 Cl  0  0  0  0  0  0  0  0  0  0  0  0
  185.3640  173.2400  134.6120 C   0  0  0  0  0  1  0  0  0  0  0  0
  183.3830  176.8960  135.8230 C   0  0  0  0  0  3  0  0  0  0  0  0
  185.5960  176.4310  136.9090 C   0  0  1  0  0  3  0  0  0  0  0  0
  183.6040  174.4800  135.7760 N   0  0  0  0  0  0  0  0  0  0  0  0
  184.6170  177.2880  136.1500 C   0  0  0  0  0  3  0  0  0  0  0  0
  185.9660  175.0750  136.2590 C   0  0  1  0  0  3  0  0  0  0  0  0
  186.2110  174.0380  137.3460 C   0  0  0  0  0  1  0  0  0  0  0  0
  182.8810  175.5260  136.0430 C   0  0  0  0  0  0  0  0  0  0  0  0
  189.9810  176.0720  142.1780 N   0  0  0  0  0  2  0  0  0  0  0  0
  189.1120  176.1630  143.3390 C   0  0  0  0  0  1  0  0  0  0  0  0
  1  3  1  6  0  0  0
  1  4  1  0  0  0  0
  2  4  1  0  0  0  0
  2  5  1  0  0  0  0
  3 18  1  0  0  0  0
  4 10  1  0  0  0  0
  5 17  1  0  0  0  0
  6 20  2  0  0  0  0
  6 19  1  0  0  0  0
  7  2  1  0  0  0  0
  8  9  1  0  0  0  0
  9 11  1  0  0  0  0
 10 13  1  0  0  0  0
 10 12  1  0  0  0  0
 11  5  1  0  0  0  0
 14 15  1  0  0  0  0
 14  7  1  0  0  0  0
 15  1  1  0  0  0  0
 16  7  1  0  0  0  0
 16  9  2  0  0  0  0
 17 12  1  0  0  0  0
 17 31  1  0  0  0  0
 18 13  1  0  0  0  0
 19  8  2  0  0  0  0
 20 16  1  0  0  0  0
 21 26  1  0  0  0  0
 21 28  1  0  0  0  0
 23 21  1  0  0  0  0
 24 30  1  0  0  0  0
 24 27  2  0  0  0  0
 25 15  1  0  0  0  0
 26 30  2  0  0  0  0
 27 25  1  0  0  0  0
 28 25  1  0  0  0  0
 28 29  1  0  0  0  0
 30 22  1  0  0  0  0
 31 32  1  0  0  0  0
M  END
>  <MODEL>
4

>  <REMARK>
 VINA RESULT:      -7.1      3.279      7.636
  Name = 
  2 active torsions:
  status: ('A' for Active; 'I' for Inactive)
    1  A    between atoms: N_13  and  C_29
    2  A    between atoms: C_16  and  C_27
                            x       y       z     vdW  Elec       q    Type
                         _______ _______ _______ _____ _____    ______ ____

>  <TORSDO>
F 2

$$$$
=
 OpenBabel10272402113D

 32 37  0  0  1  0  0  0  0  0999 V2000
  190.3990  177.8250  140.4700 C   0  0  2  0  0  3  0  0  0  0  0  0
  189.2800  177.3430  138.2950 C   0  0  1  0  0  3  0  0  0  0  0  0
  191.6440  177.8920  141.3140 C   0  0  0  0  0  2  0  0  0  0  0  0
  190.4990  177.4910  139.1630 C   0  0  2  0  0  3  0  0  0  0  0  0
  189.0210  175.8440  138.0850 C   0  0  1  0  0  3  0  0  0  0  0  0
  184.4830  178.2040  137.6080 C   0  0  0  0  0  3  0  0  0  0  0  0
  188.0510  178.0470  138.8980 C   0  0  2  0  0  3  0  0  0  0  0  0
  185.5220  176.2110  136.7050 C   0  0  0  0  0  3  0  0  0  0  0  0
  186.7060  176.5160  137.3840 C   0  0  0  0  0  0  0  0  0  0  0  0
  191.7520  176.8540  138.6010 C   0  0  2  0  0  3  0  0  0  0  0  0
  187.8450  175.6620  137.2420 N   0  0  0  0  0  2  0  0  0  0  0  0
  191.4950  175.3640  138.3520 C   0  0  0  0  0  2  0  0  0  0  0  0
  192.9460  177.0650  139.4320 N   0  0  0  0  0  2  0  0  0  0  0  0
  187.9300  177.7150  140.3140 N   0  0  0  0  0  2  0  0  0  0  0  0
  189.0680  178.2990  141.0330 C   0  0  1  0  0  3  0  0  0  0  0  0
  186.7850  177.6860  138.1680 C   0  0  0  0  0  0  0  0  0  0  0  0
  190.2530  175.1600  137.4680 C   0  0  1  0  0  3  0  0  0  0  0  0
  192.6430  176.8440  140.8450 C   0  0  0  0  0  2  0  0  0  0  0  0
  184.4120  177.0510  136.8200 C   0  0  0  0  0  3  0  0  0  0  0  0
  185.6670  178.5200  138.2800 C   0  0  0  0  0  3  0  0  0  0  0  0
  190.3090  176.9530  144.4440 C   0  0  1  0  0  3  0  0  0  0  0  0
  186.9130  177.4570  146.5510 Cl  0  0  0  0  0  0  0  0  0  0  0  0
  191.6790  176.8510  145.0950 C   0  0  0  0  0  1  0  0  0  0  0  0
  187.5030  176.5770  143.9800 C   0  0  0  0  0  3  0  0  0  0  0  0
  188.9330  178.0540  142.5410 C   0  0  1  0  0  3  0  0  0  0  0  0
  189.3000  177.3140  145.4350 N   0  0  0  0  0  0  0  0  0  0  0  0
  187.9480  176.9370  142.7740 C   0  0  0  0  0  3  0  0  0  0  0  0
  190.3050  177.9150  143.2450 C   0  0  1  0  0  3  0  0  0  0  0  0
  190.8190  179.2930  143.6370 C   0  0  0  0  0  1  0  0  0  0  0  0
  188.0270  177.1380  145.2410 C   0  0  0  0  0  0  0  0  0  0  0  0
  190.0030  173.7360  137.3140 N   0  0  0  0  0  2  0  0  0  0  0  0
  190.5690  173.3390  136.0360 C   0  0  0  0  0  1  0  0  0  0  0  0
  1 15  1  0  0  0  0
  1  3  1  6  0  0  0
  2  7  1  0  0  0  0
  2  4  1  0  0  0  0
  4  1  1  0  0  0  0
  5  2  1  0  0  0  0
  6 20  1  0  0  0  0
  7 14  1  0  0  0  0
  8 19  1  0  0  0  0
  8  9  2  0  0  0  0
  9 16  1  0  0  0  0
 10  4  1  0  0  0  0
 10 13  1  0  0  0  0
 11  9  1  0  0  0  0
 11  5  1  0  0  0  0
 12 10  1  0  0  0  0
 13 18  1  0  0  0  0
 14 15  1  0  0  0  0
 15 25  1  0  0  0  0
 16 20  2  0  0  0  0
 16  7  1  0  0  0  0
 17  5  1  0  0  0  0
 17 12  1  0  0  0  0
 18  3  1  0  0  0  0
 19  6  2  0  0  0  0
 21 23  1  0  0  0  0
 21 26  1  0  0  0  0
 24 30  1  0  0  0  0
 25 27  1  0  0  0  0
 25 28  1  0  0  0  0
 27 24  2  0  0  0  0
 28 29  1  0  0  0  0
 28 21  1  0  0  0  0
 30 26  2  0  0  0  0
 30 22  1  0  0  0  0
 31 17  1  0  0  0  0
 32 31  1  0  0  0  0
M  END
>  <MODEL>
5

>  <REMARK>
 VINA RESULT:      -6.8      1.235      2.000
  Name = 
  2 active torsions:
  status: ('A' for Active; 'I' for Inactive)
    1  A    between atoms: N_13  and  C_29
    2  A    between atoms: C_16  and  C_27
                            x       y       z     vdW  Elec       q    Type
                         _______ _______ _______ _____ _____    ______ ____

>  <TORSDO>
F 2

$$$$
=
 OpenBabel10272402113D

 32 37  0  0  1  0  0  0  0  0999 V2000
  189.3430  177.8810  139.8790 C   0  0  2  0  0  3  0  0  0  0  0  0
  187.6190  177.8450  138.0780 C   0  0  1  0  0  3  0  0  0  0  0  0
  190.7590  177.6570  140.3380 C   0  0  0  0  0  2  0  0  0  0  0  0
  189.0310  177.7000  138.5750 C   0  0  2  0  0  3  0  0  0  0  0  0
  187.0520  176.4380  137.8340 C   0  0  1  0  0  3  0  0  0  0  0  0
  183.0430  179.4870  138.8460 C   0  0  0  0  0  3  0  0  0  0  0  0
  186.7400  178.6430  139.0580 C   0  0  2  0  0  3  0  0  0  0  0  0
  183.4340  177.4900  137.5330 C   0  0  0  0  0  3  0  0  0  0  0  0
  184.7900  177.5290  137.8710 C   0  0  0  0  0  0  0  0  0  0  0  0
  189.9560  176.9590  137.6330 C   0  0  2  0  0  3  0  0  0  0  0  0
  185.6810  176.5400  137.3460 N   0  0  0  0  0  2  0  0  0  0  0  0
  189.3820  175.5670  137.3510 C   0  0  0  0  0  2  0  0  0  0  0  0
  191.3460  176.8850  138.1060 N   0  0  0  0  0  2  0  0  0  0  0  0
  186.9420  178.1590  140.4190 N   0  0  0  0  0  2  0  0  0  0  0  0
  188.3150  178.4730  140.8310 C   0  0  1  0  0  3  0  0  0  0  0  0
  185.2820  178.5680  138.6890 C   0  0  0  0  0  0  0  0  0  0  0  0
  187.9340  175.6610  136.8420 C   0  0  1  0  0  3  0  0  0  0  0  0
  191.3950  176.5380  139.5260 C   0  0  0  0  0  2  0  0  0  0  0  0
  182.5620  178.4650  138.0220 C   0  0  0  0  0  3  0  0  0  0  0  0
  184.4000  179.5380  139.1780 C   0  0  0  0  0  3  0  0  0  0  0  0
  190.1560  176.5390  143.6340 C   0  0  1  0  0  3  0  0  0  0  0  0
  187.5930  177.2890  146.6500 Cl  0  0  0  0  0  0  0  0  0  0  0  0
  191.6070  176.1490  143.8590 C   0  0  0  0  0  1  0  0  0  0  0  0
  187.3070  176.6570  143.9580 C   0  0  0  0  0  3  0  0  0  0  0  0
  188.5450  178.0650  142.2920 C   0  0  1  0  0  3  0  0  0  0  0  0
  189.5300  176.9230  144.8960 N   0  0  0  0  0  0  0  0  0  0  0  0
  187.4720  177.0910  142.7070 C   0  0  0  0  0  3  0  0  0  0  0  0
  190.0060  177.6320  142.5640 C   0  0  1  0  0  3  0  0  0  0  0  0
  190.8470  178.8560  142.8990 C   0  0  0  0  0  1  0  0  0  0  0  0
  188.2410  176.9690  145.0570 C   0  0  0  0  0  0  0  0  0  0  0  0
  187.4040  174.3200  136.6530 N   0  0  0  0  0  2  0  0  0  0  0  0
  188.5390  173.4150  136.6010 C   0  0  0  0  0  1  0  0  0  0  0  0
  1  3  1  6  0  0  0
  1 15  1  0  0  0  0
  2  4  1  0  0  0  0
  2  7  1  0  0  0  0
  4  1  1  0  0  0  0
  5  2  1  0  0  0  0
  6 20  1  0  0  0  0
  7 14  1  0  0  0  0
  8  9  2  0  0  0  0
  8 19  1  0  0  0  0
  9 16  1  0  0  0  0
 10 13  1  0  0  0  0
 10  4  1  0  0  0  0
 11  5  1  0  0  0  0
 11  9  1  0  0  0  0
 12 10  1  0  0  0  0
 13 18  1  0  0  0  0
 14 15  1  0  0  0  0
 15 25  1  0  0  0  0
 16  7  1  0  0  0  0
 16 20  2  0  0  0  0
 17 12  1  0  0  0  0
 17  5  1  0  0  0  0
 18  3  1  0  0  0  0
 19  6  2  0  0  0  0
 21 23  1  0  0  0  0
 21 26  1  0  0  0  0
 24 30  1  0  0  0  0
 25 28  1  0  0  0  0
 25 27  1  0  0  0  0
 26 30  2  0  0  0  0
 27 24  2  0  0  0  0
 28 29  1  0  0  0  0
 28 21  1  0  0  0  0
 30 22  1  0  0  0  0
 31 17  1  0  0  0  0
 32 31  1  0  0  0  0
M  END
>  <MODEL>
6

>  <REMARK>
 VINA RESULT:      -6.7      1.685      2.766
  Name = 
  2 active torsions:
  status: ('A' for Active; 'I' for Inactive)
    1  A    between atoms: N_13  and  C_29
    2  A    between atoms: C_16  and  C_27
                            x       y       z     vdW  Elec       q    Type
                         _______ _______ _______ _____ _____    ______ ____

>  <TORSDO>
F 2

$$$$
=
 OpenBabel10272402113D

 32 37  0  0  1  0  0  0  0  0999 V2000
  182.8600  177.1620  138.2730 C   0  0  2  0  0  3  0  0  0  0  0  0
  184.9430  178.5150  138.4780 C   0  0  1  0  0  3  0  0  0  0  0  0
  181.4340  176.8880  138.6720 C   0  0  0  0  0  2  0  0  0  0  0  0
  183.5000  178.2350  138.7910 C   0  0  2  0  0  3  0  0  0  0  0  0
  185.7830  178.1210  139.7020 C   0  0  1  0  0  3  0  0  0  0  0  0
  188.8550  177.6880  135.6070 C   0  0  0  0  0  3  0  0  0  0  0  0
  185.4140  177.7760  137.2120 C   0  0  2  0  0  3  0  0  0  0  0  0
  189.1350  178.2040  137.9570 C   0  0  0  0  0  3  0  0  0  0  0  0
  187.7510  178.1300  138.1420 C   0  0  0  0  0  0  0  0  0  0  0  0
  182.9660  178.9680  140.0030 C   0  0  2  0  0  3  0  0  0  0  0  0
  187.1930  178.3830  139.4340 N   0  0  0  0  0  2  0  0  0  0  0  0
  183.8190  178.6130  141.2260 C   0  0  0  0  0  2  0  0  0  0  0  0
  181.5370  178.7330  140.2550 N   0  0  0  0  0  2  0  0  0  0  0  0
  184.9780  176.3850  137.2530 N   0  0  0  0  0  2  0  0  0  0  0  0
  183.5140  176.3480  137.1670 C   0  0  1  0  0  3  0  0  0  0  0  0
  186.9090  177.8490  137.0450 C   0  0  0  0  0  0  0  0  0  0  0  0
  185.3090  178.8790  140.9530 C   0  0  1  0  0  3  0  0  0  0  0  0
  181.2100  177.3150  140.1150 C   0  0  0  0  0  2  0  0  0  0  0  0
  189.6860  177.9800  136.6930 C   0  0  0  0  0  3  0  0  0  0  0  0
  187.4700  177.6230  135.7820 C   0  0  0  0  0  3  0  0  0  0  0  0
  183.7010  172.6670  135.9830 C   0  0  1  0  0  3  0  0  0  0  0  0
  180.1140  171.4270  137.3340 Cl  0  0  0  0  0  0  0  0  0  0  0  0
  184.8510  171.7160  135.6960 C   0  0  0  0  0  1  0  0  0  0  0  0
  181.0400  173.7350  136.0920 C   0  0  0  0  0  3  0  0  0  0  0  0
  183.0150  174.8980  137.1140 C   0  0  1  0  0  3  0  0  0  0  0  0
  182.6020  171.9570  136.6290 N   0  0  0  0  0  0  0  0  0  0  0  0
  181.7950  174.8280  136.2310 C   0  0  0  0  0  3  0  0  0  0  0  0
  184.1490  173.8920  136.7960 C   0  0  1  0  0  3  0  0  0  0  0  0
  184.8410  173.4790  138.0870 C   0  0  0  0  0  1  0  0  0  0  0  0
  181.3910  172.4260  136.6750 C   0  0  0  0  0  0  0  0  0  0  0  0
  186.0890  178.4650  142.1080 N   0  0  0  0  0  2  0  0  0  0  0  0
  185.1870  178.4380  143.2460 C   0  0  0  0  0  1  0  0  0  0  0  0
  1  3  1  6  0  0  0
  1  4  1  0  0  0  0
  2  4  1  0  0  0  0
  2  5  1  0  0  0  0
  3 18  1  0  0  0  0
  4 10  1  0  0  0  0
  5 17  1  0  0  0  0
  6 20  2  0  0  0  0
  6 19  1  0  0  0  0
  7 14  1  0  0  0  0
  7  2  1  0  0  0  0
  8  9  1  0  0  0  0
  9 11  1  0  0  0  0
 10 13  1  0  0  0  0
 10 12  1  0  0  0  0
 11  5  1  0  0  0  0
 15 14  1  0  0  0  0
 15  1  1  0  0  0  0
 16  7  1  0  0  0  0
 16  9  2  0  0  0  0
 17 12  1  0  0  0  0
 17 31  1  0  0  0  0
 18 13  1  0  0  0  0
 19  8  2  0  0  0  0
 20 16  1  0  0  0  0
 21 26  1  0  0  0  0
 21 28  1  0  0  0  0
 23 21  1  0  0  0  0
 24 27  2  0  0  0  0
 24 30  1  0  0  0  0
 25 15  1  0  0  0  0
 26 30  2  0  0  0  0
 27 25  1  0  0  0  0
 28 25  1  0  0  0  0
 28 29  1  0  0  0  0
 30 22  1  0  0  0  0
 31 32  1  0  0  0  0
M  END
>  <MODEL>
7

>  <REMARK>
 VINA RESULT:      -6.7      4.707      9.102
  Name = 
  2 active torsions:
  status: ('A' for Active; 'I' for Inactive)
    1  A    between atoms: N_13  and  C_29
    2  A    between atoms: C_16  and  C_27
                            x       y       z     vdW  Elec       q    Type
                         _______ _______ _______ _____ _____    ______ ____

>  <TORSDO>
F 2

$$$$
=
 OpenBabel10272402113D

 32 37  0  0  1  0  0  0  0  0999 V2000
  183.8790  178.9380  141.3250 C   0  0  2  0  0  3  0  0  0  0  0  0
  186.2780  179.0060  142.0000 C   0  0  1  0  0  3  0  0  0  0  0  0
  182.4240  179.1620  141.6430 C   0  0  0  0  0  2  0  0  0  0  0  0
  184.8180  179.2720  142.2400 C   0  0  2  0  0  3  0  0  0  0  0  0
  186.6870  177.7890  142.8420 C   0  0  1  0  0  3  0  0  0  0  0  0
  189.8860  177.9450  138.8260 C   0  0  0  0  0  3  0  0  0  0  0  0
  186.5880  178.7880  140.5080 C   0  0  2  0  0  3  0  0  0  0  0  0
  189.9970  177.1810  141.1220 C   0  0  0  0  0  3  0  0  0  0  0  0
  188.6950  177.6390  141.3410 C   0  0  0  0  0  0  0  0  0  0  0  0
  184.4570  179.5370  143.6860 C   0  0  2  0  0  3  0  0  0  0  0  0
  188.1030  177.5030  142.6360 N   0  0  0  0  0  2  0  0  0  0  0  0
  184.8940  178.3450  144.5440 C   0  0  0  0  0  2  0  0  0  0  0  0
  183.0370  179.8590  143.8930 N   0  0  0  0  0  2  0  0  0  0  0  0
  185.6170  177.8670  139.9250 N   0  0  0  0  0  2  0  0  0  0  0  0
  184.2980  178.5100  139.9280 C   0  0  1  0  0  3  0  0  0  0  0  0
  187.9870  178.2730  140.2970 C   0  0  0  0  0  0  0  0  0  0  0  0
  186.3840  178.0310  144.3310 C   0  0  1  0  0  3  0  0  0  0  0  0
  182.1810  178.9510  143.1300 C   0  0  0  0  0  2  0  0  0  0  0  0
  190.5910  177.3310  139.8660 C   0  0  0  0  0  3  0  0  0  0  0  0
  188.5880  178.4140  139.0410 C   0  0  0  0  0  3  0  0  0  0  0  0
  180.8800  177.8410  138.2390 C   0  0  1  0  0  3  0  0  0  0  0  0
  181.0760  173.8210  138.0770 Cl  0  0  0  0  0  0  0  0  0  0  0  0
  179.9820  178.6630  137.3290 C   0  0  0  0  0  1  0  0  0  0  0  0
  181.7700  175.7340  139.9710 C   0  0  0  0  0  3  0  0  0  0  0  0
  183.2620  177.6130  139.2380 C   0  0  1  0  0  3  0  0  0  0  0  0
  180.8760  176.4410  137.8280 N   0  0  0  0  0  0  0  0  0  0  0  0
  182.6120  176.7270  140.2690 C   0  0  0  0  0  3  0  0  0  0  0  0
  182.3050  178.4110  138.3200 C   0  0  1  0  0  3  0  0  0  0  0  0
  182.9250  178.5540  136.9370 C   0  0  0  0  0  1  0  0  0  0  0  0
  181.2670  175.4770  138.6080 C   0  0  0  0  0  0  0  0  0  0  0  0
  186.7420  176.8540  145.1060 N   0  0  0  0  0  2  0  0  0  0  0  0
  187.5270  177.3110  146.2400 C   0  0  0  0  0  1  0  0  0  0  0  0
  1  3  1  6  0  0  0
  1  4  1  0  0  0  0
  2  4  1  0  0  0  0
  2  5  1  0  0  0  0
  3 18  1  0  0  0  0
  4 10  1  0  0  0  0
  5 17  1  0  0  0  0
  6 20  2  0  0  0  0
  6 19  1  0  0  0  0
  7  2  1  0  0  0  0
  8  9  1  0  0  0  0
  9 11  1  0  0  0  0
 10 13  1  0  0  0  0
 10 12  1  0  0  0  0
 11  5  1  0  0  0  0
 14 15  1  0  0  0  0
 14  7  1  0  0  0  0
 15  1  1  0  0  0  0
 16  7  1  0  0  0  0
 16  9  2  0  0  0  0
 17 12  1  0  0  0  0
 17 31  1  0  0  0  0
 18 13  1  0  0  0  0
 19  8  2  0  0  0  0
 20 16  1  0  0  0  0
 21 28  1  0  0  0  0
 22 30  1  0  0  0  0
 23 21  1  0  0  0  0
 24 27  2  0  0  0  0
 25 15  1  0  0  0  0
 25 27  1  0  0  0  0
 26 21  1  0  0  0  0
 26 30  2  0  0  0  0
 28 25  1  0  0  0  0
 29 28  1  0  0  0  0
 30 24  1  0  0  0  0
 31 32  1  0  0  0  0
M  END
>  <MODEL>
8

>  <REMARK>
 VINA RESULT:      -6.7      4.187      8.658
  Name = 
  2 active torsions:
  status: ('A' for Active; 'I' for Inactive)
    1  A    between atoms: N_13  and  C_29
    2  A    between atoms: C_16  and  C_27
                            x       y       z     vdW  Elec       q    Type
                         _______ _______ _______ _____ _____    ______ ____

>  <TORSDO>
F 2

$$$$
=
 OpenBabel10272402113D

 32 37  0  0  1  0  0  0  0  0999 V2000
  185.7160  177.2150  137.3990 C   0  0  2  0  0  3  0  0  0  0  0  0
  188.0670  177.8920  137.8800 C   0  0  1  0  0  3  0  0  0  0  0  0
  184.2360  177.3870  137.6150 C   0  0  0  0  0  2  0  0  0  0  0  0
  186.5790  178.0610  138.0080 C   0  0  2  0  0  3  0  0  0  0  0  0
  188.5950  177.2940  139.1930 C   0  0  1  0  0  3  0  0  0  0  0  0
  191.8750  175.8730  135.5040 C   0  0  0  0  0  3  0  0  0  0  0  0
  188.4480  177.0170  136.6710 C   0  0  2  0  0  3  0  0  0  0  0  0
  192.0060  176.3360  137.8770 C   0  0  0  0  0  3  0  0  0  0  0  0
  190.6510  176.6810  137.8880 C   0  0  0  0  0  0  0  0  0  0  0  0
  186.1440  178.9470  139.1550 C   0  0  2  0  0  3  0  0  0  0  0  0
  190.0410  177.1190  139.1060 N   0  0  0  0  0  2  0  0  0  0  0  0
  186.6950  178.3830  140.4690 C   0  0  0  0  0  2  0  0  0  0  0  0
  184.6900  179.1540  139.2250 N   0  0  0  0  0  2  0  0  0  0  0  0
  187.6150  175.8200  136.6380 N   0  0  0  0  0  2  0  0  0  0  0  0
  186.2280  176.2180  136.3710 C   0  0  1  0  0  3  0  0  0  0  0  0
  189.9050  176.6390  136.6920 C   0  0  0  0  0  0  0  0  0  0  0  0
  188.2190  178.1870  140.3870 C   0  0  1  0  0  3  0  0  0  0  0  0
  183.9750  177.8940  139.0250 C   0  0  0  0  0  2  0  0  0  0  0  0
  192.6170  175.9300  136.6880 C   0  0  0  0  0  3  0  0  0  0  0  0
  190.5240  176.2270  135.5060 C   0  0  0  0  0  3  0  0  0  0  0  0
  182.8120  174.3990  136.4430 C   0  0  1  0  0  3  0  0  0  0  0  0
  184.1560  170.6080  136.2090 Cl  0  0  0  0  0  0  0  0  0  0  0  0
  181.4020  174.8020  136.0480 C   0  0  0  0  0  1  0  0  0  0  0  0
  184.9750  172.8890  137.5710 C   0  0  0  0  0  3  0  0  0  0  0  0
  185.3310  174.9820  136.2350 C   0  0  1  0  0  3  0  0  0  0  0  0
  183.0650  173.0080  136.0800 N   0  0  0  0  0  0  0  0  0  0  0  0
  185.5080  174.1070  137.4490 C   0  0  0  0  0  3  0  0  0  0  0  0
  183.8730  175.3450  135.8590 C   0  0  1  0  0  3  0  0  0  0  0  0
  183.7490  175.4540  134.3460 C   0  0  0  0  0  1  0  0  0  0  0  0
  184.0350  172.3110  136.5920 C   0  0  0  0  0  0  0  0  0  0  0  0
  188.6920  177.5870  141.6230 N   0  0  0  0  0  2  0  0  0  0  0  0
  187.5980  177.6510  142.5770 C   0  0  0  0  0  1  0  0  0  0  0  0
  1  3  1  6  0  0  0
  1  4  1  0  0  0  0
  2  4  1  0  0  0  0
  2  5  1  0  0  0  0
  3 18  1  0  0  0  0
  4 10  1  0  0  0  0
  5 17  1  0  0  0  0
  6 20  2  0  0  0  0
  6 19  1  0  0  0  0
  7 16  1  0  0  0  0
  7  2  1  0  0  0  0
  8  9  1  0  0  0  0
  9 11  1  0  0  0  0
 10 13  1  0  0  0  0
 10 12  1  0  0  0  0
 11  5  1  0  0  0  0
 14  7  1  0  0  0  0
 15 14  1  0  0  0  0
 15  1  1  0  0  0  0
 16  9  2  0  0  0  0
 17 12  1  0  0  0  0
 17 31  1  0  0  0  0
 18 13  1  0  0  0  0
 19  8  2  0  0  0  0
 20 16  1  0  0  0  0
 22 30  1  0  0  0  0
 23 21  1  0  0  0  0
 25 15  1  0  0  0  0
 25 27  1  0  0  0  0
 26 21  1  0  0  0  0
 26 30  2  0  0  0  0
 27 24  2  0  0  0  0
 28 25  1  0  0  0  0
 28 21  1  0  0  0  0
 29 28  1  0  0  0  0
 30 24  1  0  0  0  0
 31 32  1  0  0  0  0
M  END
>  <MODEL>
9

>  <REMARK>
 VINA RESULT:      -6.6      3.442      7.988
  Name = 
  2 active torsions:
  status: ('A' for Active; 'I' for Inactive)
    1  A    between atoms: N_13  and  C_29
    2  A    between atoms: C_16  and  C_27
                            x       y       z     vdW  Elec       q    Type
                         _______ _______ _______ _____ _____    ______ ____

>  <TORSDO>
F 2

$$$$
