=
 OpenBabel10272400533D

 25 28  0  0  1  0  0  0  0  0999 V2000
  187.3490  177.9430  145.7430 C   0  0  0  0  0  0  0  0  0  0  0  0
  186.5740  178.1130  144.5790 C   0  0  0  0  0  0  0  0  0  0  0  0
  185.5530  178.7560  147.0910 N   0  0  0  0  0  0  0  0  0  0  0  0
  188.6690  177.4670  145.8770 C   0  0  0  0  0  0  0  0  0  0  0  0
  186.8670  178.7210  142.1520 C   0  0  2  0  0  3  0  0  0  0  0  0
  191.2400  176.5870  146.5400 C   0  0  0  0  0  3  0  0  0  0  0  0
  184.8030  178.9210  146.0020 N   0  0  0  0  0  0  0  0  0  0  0  0
  189.1010  177.4440  147.2040 C   0  0  0  0  0  0  0  0  0  0  0  0
  190.3760  177.0110  147.5600 C   0  0  0  0  0  3  0  0  0  0  0  0
  184.3140  178.9290  143.5770 C   0  0  2  0  0  3  0  0  0  0  0  0
  182.8530  178.9500  144.0010 C   0  0  0  0  0  1  0  0  0  0  0  0
  187.1510  177.7010  143.2470 C   0  0  0  0  0  2  0  0  0  0  0  0
  190.8210  176.6050  145.1970 C   0  0  0  0  0  3  0  0  0  0  0  0
  186.8060  178.2720  146.9740 C   0  0  0  0  0  0  0  0  0  0  0  0
  187.8900  178.0010  148.2350 S   0  0  0  0  0  0  0  0  0  0  0  0
  184.4510  177.9780  142.3980 C   0  0  0  0  0  2  0  0  0  0  0  0
  189.5320  177.0470  144.8590 C   0  0  0  0  0  3  0  0  0  0  0  0
  185.5410  178.4510  141.4420 C   0  0  0  0  0  2  0  0  0  0  0  0
  185.2380  178.6020  144.7410 C   0  0  0  0  0  0  0  0  0  0  0  0
  188.0260  178.8940  141.1590 C   0  0  0  0  0  2  0  0  0  0  0  0
  188.2120  177.8180  138.8580 C   0  0  0  0  0  1  0  0  0  0  0  0
  188.4580  177.6600  140.3490 C   0  0  1  0  0  3  0  0  0  0  0  0
  189.8410  177.1760  140.6510 C   0  0  0  0  0  0  0  0  0  0  0  0
  190.4510  176.2240  139.8430 O   0  0  0  0  0  0  0  0  0  0  0  0
  190.4700  177.6600  141.6260 O   0  0  0  0  0  1  0  0  0  0  0  0
  1  4  1  0  0  0  0
  1 14  2  0  0  0  0
  2 19  2  0  0  0  0
  2  1  1  0  0  0  0
  4  8  1  0  0  0  0
  5 20  1  6  0  0  0
  5 12  1  0  0  0  0
  6  9  1  0  0  0  0
  7  3  2  0  0  0  0
  8  9  2  0  0  0  0
  8 15  1  0  0  0  0
 10 11  1  1  0  0  0
 10 19  1  0  0  0  0
 12  2  1  0  0  0  0
 13  6  2  0  0  0  0
 14  3  1  0  0  0  0
 14 15  1  0  0  0  0
 16 10  1  0  0  0  0
 17 13  1  0  0  0  0
 17  4  2  0  0  0  0
 18  5  1  0  0  0  0
 18 16  1  0  0  0  0
 19  7  1  0  0  0  0
 22 21  1  6  0  0  0
 22 23  1  0  0  0  0
 22 20  1  0  0  0  0
 23 25  1  0  0  0  0
 24 23  2  0  0  0  0
M  END
>  <MODEL>
1

>  <REMARK>
 VINA RESULT:     -10.4      0.000      0.000
  Name = 
  3 active torsions:
  status: ('A' for Active; 'I' for Inactive)
    1  A    between atoms: C_2  and  C_25
    2  A    between atoms: C_6  and  C_15
    3  A    between atoms: C_15  and  C_25
                            x       y       z     vdW  Elec       q    Type
                         _______ _______ _______ _____ _____    ______ ____

>  <TORSDO>
F 3

$$$$
=
 OpenBabel10272400533D

 25 28  0  0  1  0  0  0  0  0999 V2000
  186.7340  178.1890  142.5460 C   0  0  0  0  0  0  0  0  0  0  0  0
  188.0520  177.6960  142.6070 C   0  0  0  0  0  0  0  0  0  0  0  0
  186.9300  178.5050  140.1880 N   0  0  0  0  0  0  0  0  0  0  0  0
  185.7980  178.3680  143.5840 C   0  0  0  0  0  0  0  0  0  0  0  0
  190.0280  177.6880  144.1700 C   0  0  2  0  0  3  0  0  0  0  0  0
  183.6930  178.8640  145.3580 C   0  0  0  0  0  3  0  0  0  0  0  0
  188.1780  178.0370  140.2230 N   0  0  0  0  0  0  0  0  0  0  0  0
  184.5850  178.8890  143.1320 C   0  0  0  0  0  0  0  0  0  0  0  0
  183.5220  179.1450  143.9950 C   0  0  0  0  0  3  0  0  0  0  0  0
  190.2380  177.1820  141.2900 C   0  0  2  0  0  3  0  0  0  0  0  0
  190.6100  176.7010  139.8950 C   0  0  0  0  0  1  0  0  0  0  0  0
  188.5980  177.2210  143.9300 C   0  0  0  0  0  2  0  0  0  0  0  0
  184.9090  178.3410  145.8310 C   0  0  0  0  0  3  0  0  0  0  0  0
  186.2110  178.5810  141.3250 C   0  0  0  0  0  0  0  0  0  0  0  0
  184.6290  179.1420  141.4670 S   0  0  0  0  0  0  0  0  0  0  0  0
  190.6250  176.0970  142.2820 C   0  0  0  0  0  2  0  0  0  0  0  0
  185.9690  178.0900  144.9450 C   0  0  0  0  0  3  0  0  0  0  0  0
  191.0570  176.7050  143.6130 C   0  0  0  0  0  2  0  0  0  0  0  0
  188.7780  177.6020  141.3760 C   0  0  0  0  0  0  0  0  0  0  0  0
  190.3160  178.0560  145.6330 C   0  0  0  0  0  2  0  0  0  0  0  0
  191.2550  176.4060  147.3310 C   0  0  0  0  0  1  0  0  0  0  0  0
  190.0040  176.9990  146.7060 C   0  0  1  0  0  3  0  0  0  0  0  0
  189.0060  177.4350  147.7300 C   0  0  0  0  0  0  0  0  0  0  0  0
  189.3180  178.4340  148.6460 O   0  0  0  0  0  1  0  0  0  0  0  0
  187.8600  176.9170  147.7420 O   0  0  0  0  0  0  0  0  0  0  0  0
  1  2  1  0  0  0  0
  1  4  1  0  0  0  0
  2 12  1  0  0  0  0
  3  7  2  0  0  0  0
  3 14  1  0  0  0  0
  4 17  1  0  0  0  0
  5 20  1  1  0  0  0
  6 13  1  0  0  0  0
  7 19  1  0  0  0  0
  8  4  2  0  0  0  0
  8  9  1  0  0  0  0
  9  6  2  0  0  0  0
 10 11  1  6  0  0  0
 10 19  1  0  0  0  0
 10 16  1  0  0  0  0
 12  5  1  0  0  0  0
 14 15  1  0  0  0  0
 14  1  2  0  0  0  0
 15  8  1  0  0  0  0
 16 18  1  0  0  0  0
 17 13  2  0  0  0  0
 18  5  1  0  0  0  0
 19  2  2  0  0  0  0
 20 22  1  0  0  0  0
 22 21  1  1  0  0  0
 22 23  1  0  0  0  0
 23 25  2  0  0  0  0
 23 24  1  0  0  0  0
M  END
>  <MODEL>
2

>  <REMARK>
 VINA RESULT:     -10.1      3.417      6.372
  Name = 
  3 active torsions:
  status: ('A' for Active; 'I' for Inactive)
    1  A    between atoms: C_2  and  C_25
    2  A    between atoms: C_6  and  C_15
    3  A    between atoms: C_15  and  C_25
                            x       y       z     vdW  Elec       q    Type
                         _______ _______ _______ _____ _____    ______ ____

>  <TORSDO>
F 3

$$$$
=
 OpenBabel10272400533D

 25 28  0  0  1  0  0  0  0  0999 V2000
  187.1380  177.9180  145.3390 C   0  0  0  0  0  0  0  0  0  0  0  0
  188.4340  177.6500  144.8560 C   0  0  0  0  0  0  0  0  0  0  0  0
  187.7890  177.2490  147.5370 N   0  0  0  0  0  0  0  0  0  0  0  0
  186.0050  178.3900  144.6460 C   0  0  0  0  0  0  0  0  0  0  0  0
  189.5680  176.8210  142.7650 C   0  0  2  0  0  3  0  0  0  0  0  0
  183.5650  179.3010  143.6260 C   0  0  0  0  0  3  0  0  0  0  0  0
  189.0220  176.9940  147.1000 N   0  0  0  0  0  0  0  0  0  0  0  0
  184.8880  178.5300  145.4710 C   0  0  0  0  0  0  0  0  0  0  0  0
  183.6630  178.9800  144.9870 C   0  0  0  0  0  3  0  0  0  0  0  0
  190.8190  176.7700  145.4150 C   0  0  2  0  0  3  0  0  0  0  0  0
  191.7650  176.8030  146.6060 C   0  0  0  0  0  1  0  0  0  0  0  0
  188.7500  177.9330  143.4080 C   0  0  0  0  0  2  0  0  0  0  0  0
  184.6800  179.1640  142.7800 C   0  0  0  0  0  3  0  0  0  0  0  0
  186.8560  177.7070  146.6780 C   0  0  0  0  0  0  0  0  0  0  0  0
  185.2560  178.0810  147.0530 S   0  0  0  0  0  0  0  0  0  0  0  0
  191.4300  177.6080  144.3030 C   0  0  0  0  0  2  0  0  0  0  0  0
  185.9070  178.7080  143.2870 C   0  0  0  0  0  3  0  0  0  0  0  0
  191.0710  177.0390  142.9340 C   0  0  0  0  0  2  0  0  0  0  0  0
  189.4080  177.1920  145.8000 C   0  0  0  0  0  0  0  0  0  0  0  0
  189.1880  176.5470  141.3020 C   0  0  0  0  0  2  0  0  0  0  0  0
  190.5880  176.7620  139.1860 C   0  0  0  0  0  1  0  0  0  0  0  0
  189.7600  177.4900  140.2310 C   0  0  1  0  0  3  0  0  0  0  0  0
  188.7540  178.4130  139.6200 C   0  0  0  0  0  0  0  0  0  0  0  0
  189.0600  179.1390  138.4750 O   0  0  0  0  0  0  0  0  0  0  0  0
  187.6070  178.5060  140.1270 O   0  0  0  0  0  1  0  0  0  0  0  0
  1 14  1  0  0  0  0
  2  1  2  0  0  0  0
  2 19  1  0  0  0  0
  4  1  1  0  0  0  0
  4  8  1  0  0  0  0
  5 20  1  6  0  0  0
  5 18  1  0  0  0  0
  5 12  1  0  0  0  0
  6  9  1  0  0  0  0
  7  3  1  0  0  0  0
  8 15  1  0  0  0  0
  9  8  2  0  0  0  0
 10 19  1  0  0  0  0
 10 11  1  1  0  0  0
 12  2  1  0  0  0  0
 13 17  1  0  0  0  0
 13  6  2  0  0  0  0
 14 15  1  0  0  0  0
 14  3  2  0  0  0  0
 16 10  1  0  0  0  0
 17  4  2  0  0  0  0
 18 16  1  0  0  0  0
 19  7  2  0  0  0  0
 22 21  1  6  0  0  0
 22 20  1  0  0  0  0
 23 25  1  0  0  0  0
 23 22  1  0  0  0  0
 24 23  2  0  0  0  0
M  END
>  <MODEL>
3

>  <REMARK>
 VINA RESULT:      -9.7      1.831      4.811
  Name = 
  3 active torsions:
  status: ('A' for Active; 'I' for Inactive)
    1  A    between atoms: C_2  and  C_25
    2  A    between atoms: C_6  and  C_15
    3  A    between atoms: C_15  and  C_25
                            x       y       z     vdW  Elec       q    Type
                         _______ _______ _______ _____ _____    ______ ____

>  <TORSDO>
F 3

$$$$
=
 OpenBabel10272400533D

 25 28  0  0  1  0  0  0  0  0999 V2000
  186.6750  178.2480  142.8060 C   0  0  0  0  0  0  0  0  0  0  0  0
  187.9640  177.8560  142.3960 C   0  0  0  0  0  0  0  0  0  0  0  0
  186.1360  178.9110  140.5760 N   0  0  0  0  0  0  0  0  0  0  0  0
  186.0910  178.2030  144.0880 C   0  0  0  0  0  0  0  0  0  0  0  0
  190.3190  177.7810  143.2860 C   0  0  2  0  0  3  0  0  0  0  0  0
  184.6080  178.2760  146.4590 C   0  0  0  0  0  3  0  0  0  0  0  0
  187.3500  178.5420  140.1670 N   0  0  0  0  0  0  0  0  0  0  0  0
  184.7820  178.6860  144.1020 C   0  0  0  0  0  0  0  0  0  0  0  0
  184.0230  178.7330  145.2690 C   0  0  0  0  0  3  0  0  0  0  0  0
  189.6640  177.7080  140.4310 C   0  0  2  0  0  3  0  0  0  0  0  0
  189.6100  177.4610  138.9300 C   0  0  0  0  0  1  0  0  0  0  0  0
  188.9000  177.2420  143.4070 C   0  0  0  0  0  2  0  0  0  0  0  0
  185.9270  177.7870  146.4630 C   0  0  0  0  0  3  0  0  0  0  0  0
  185.7930  178.7670  141.8720 C   0  0  0  0  0  0  0  0  0  0  0  0
  184.3110  179.1770  142.5600 S   0  0  0  0  0  0  0  0  0  0  0  0
  190.3680  176.5260  141.0790 C   0  0  0  0  0  2  0  0  0  0  0  0
  186.6760  177.7490  145.2760 C   0  0  0  0  0  3  0  0  0  0  0  0
  191.1620  176.9710  142.3020 C   0  0  0  0  0  2  0  0  0  0  0  0
  188.2850  177.9960  141.0080 C   0  0  0  0  0  0  0  0  0  0  0  0
  191.0260  177.9580  144.6390 C   0  0  0  0  0  2  0  0  0  0  0  0
  191.9940  175.7830  145.5430 C   0  0  0  0  0  1  0  0  0  0  0  0
  190.8910  176.8210  145.6650 C   0  0  1  0  0  3  0  0  0  0  0  0
  190.6940  177.2810  147.0740 C   0  0  0  0  0  0  0  0  0  0  0  0
  189.4730  177.8040  147.4850 O   0  0  0  0  0  0  0  0  0  0  0  0
  191.6310  177.1620  147.9050 O   0  0  0  0  0  1  0  0  0  0  0  0
  1  4  1  0  0  0  0
  2  1  1  0  0  0  0
  2 12  1  0  0  0  0
  3 14  1  0  0  0  0
  4  8  2  0  0  0  0
  4 17  1  0  0  0  0
  5 12  1  0  0  0  0
  5 20  1  1  0  0  0
  6 13  1  0  0  0  0
  7  3  2  0  0  0  0
  7 19  1  0  0  0  0
  8  9  1  0  0  0  0
  9  6  2  0  0  0  0
 10 11  1  6  0  0  0
 10 19  1  0  0  0  0
 10 16  1  0  0  0  0
 14 15  1  0  0  0  0
 14  1  2  0  0  0  0
 15  8  1  0  0  0  0
 16 18  1  0  0  0  0
 17 13  2  0  0  0  0
 18  5  1  0  0  0  0
 19  2  2  0  0  0  0
 20 22  1  0  0  0  0
 22 21  1  1  0  0  0
 22 23  1  0  0  0  0
 23 24  2  0  0  0  0
 23 25  1  0  0  0  0
M  END
>  <MODEL>
4

>  <REMARK>
 VINA RESULT:      -9.6      3.123      5.787
  Name = 
  3 active torsions:
  status: ('A' for Active; 'I' for Inactive)
    1  A    between atoms: C_2  and  C_25
    2  A    between atoms: C_6  and  C_15
    3  A    between atoms: C_15  and  C_25
                            x       y       z     vdW  Elec       q    Type
                         _______ _______ _______ _____ _____    ______ ____

>  <TORSDO>
F 3

$$$$
=
 OpenBabel10272400533D

 25 28  0  0  1  0  0  0  0  0999 V2000
  185.5230  178.3960  144.4150 C   0  0  0  0  0  0  0  0  0  0  0  0
  186.7830  178.1000  144.9720 C   0  0  0  0  0  0  0  0  0  0  0  0
  184.5280  178.3750  146.5850 N   0  0  0  0  0  0  0  0  0  0  0  0
  185.1650  178.5920  143.0660 C   0  0  0  0  0  0  0  0  0  0  0  0
  188.8820  176.8300  144.4000 C   0  0  2  0  0  3  0  0  0  0  0  0
  184.0790  179.0340  140.5270 C   0  0  0  0  0  3  0  0  0  0  0  0
  185.7120  178.0980  147.1320 N   0  0  0  0  0  0  0  0  0  0  0  0
  183.8070  178.8670  142.9040 C   0  0  0  0  0  0  0  0  0  0  0  0
  183.2420  179.0900  141.6500 C   0  0  0  0  0  3  0  0  0  0  0  0
  188.1260  177.5630  147.1360 C   0  0  2  0  0  3  0  0  0  0  0  0
  188.0850  177.9720  148.6010 C   0  0  0  0  0  1  0  0  0  0  0  0
  187.9840  178.0140  144.0640 C   0  0  0  0  0  2  0  0  0  0  0  0
  185.4500  178.7560  140.6730 C   0  0  0  0  0  3  0  0  0  0  0  0
  184.4260  178.5270  145.2500 C   0  0  0  0  0  0  0  0  0  0  0  0
  183.0180  178.8760  144.3930 S   0  0  0  0  0  0  0  0  0  0  0  0
  189.4030  178.1180  146.5260 C   0  0  0  0  0  2  0  0  0  0  0  0
  186.0000  178.5330  141.9450 C   0  0  0  0  0  3  0  0  0  0  0  0
  189.9390  177.1860  145.4440 C   0  0  0  0  0  2  0  0  0  0  0  0
  186.8610  177.9740  146.3960 C   0  0  0  0  0  0  0  0  0  0  0  0
  189.4970  176.1550  143.1650 C   0  0  0  0  0  2  0  0  0  0  0  0
  191.7440  177.0430  142.3600 C   0  0  0  0  0  1  0  0  0  0  0  0
  190.2390  177.0530  142.1610 C   0  0  1  0  0  3  0  0  0  0  0  0
  189.8510  176.8340  140.7330 C   0  0  0  0  0  0  0  0  0  0  0  0
  190.6730  176.1100  139.8770 O   0  0  0  0  0  0  0  0  0  0  0  0
  188.7530  177.2810  140.3110 O   0  0  0  0  0  1  0  0  0  0  0  0
  1  2  2  0  0  0  0
  1 14  1  0  0  0  0
  2 19  1  0  0  0  0
  3  7  1  0  0  0  0
  4  1  1  0  0  0  0
  5 20  1  6  0  0  0
  5 18  1  0  0  0  0
  6 13  2  0  0  0  0
  6  9  1  0  0  0  0
  8  4  1  0  0  0  0
  8 15  1  0  0  0  0
  9  8  2  0  0  0  0
 10 11  1  1  0  0  0
 12  5  1  0  0  0  0
 12  2  1  0  0  0  0
 13 17  1  0  0  0  0
 14  3  2  0  0  0  0
 15 14  1  0  0  0  0
 16 10  1  0  0  0  0
 17  4  2  0  0  0  0
 18 16  1  0  0  0  0
 19  7  2  0  0  0  0
 19 10  1  0  0  0  0
 22 21  1  6  0  0  0
 22 20  1  0  0  0  0
 23 22  1  0  0  0  0
 24 23  2  0  0  0  0
 25 23  1  0  0  0  0
M  END
>  <MODEL>
5

>  <REMARK>
 VINA RESULT:      -9.6      1.780      4.965
  Name = 
  3 active torsions:
  status: ('A' for Active; 'I' for Inactive)
    1  A    between atoms: C_2  and  C_25
    2  A    between atoms: C_6  and  C_15
    3  A    between atoms: C_15  and  C_25
                            x       y       z     vdW  Elec       q    Type
                         _______ _______ _______ _____ _____    ______ ____

>  <TORSDO>
F 3

$$$$
=
 OpenBabel10272400533D

 25 28  0  0  1  0  0  0  0  0999 V2000
  189.4230  177.5360  143.4460 C   0  0  0  0  0  0  0  0  0  0  0  0
  188.3760  177.6680  144.3780 C   0  0  0  0  0  0  0  0  0  0  0  0
  191.0270  177.4610  145.2130 N   0  0  0  0  0  0  0  0  0  0  0  0
  189.3670  177.4900  142.0380 C   0  0  0  0  0  0  0  0  0  0  0  0
  186.1310  178.7880  144.5950 C   0  0  2  0  0  3  0  0  0  0  0  0
  189.6560  177.3680  139.2590 C   0  0  0  0  0  3  0  0  0  0  0  0
  190.0500  177.5810  146.1120 N   0  0  0  0  0  0  0  0  0  0  0  0
  190.6260  177.3540  141.4520 C   0  0  0  0  0  0  0  0  0  0  0  0
  190.7960  177.2910  140.0710 C   0  0  0  0  0  3  0  0  0  0  0  0
  187.7230  177.8950  146.8880 C   0  0  2  0  0  3  0  0  0  0  0  0
  188.2310  177.3670  148.2220 C   0  0  0  0  0  1  0  0  0  0  0  0
  186.9530  177.7240  143.8820 C   0  0  0  0  0  2  0  0  0  0  0  0
  188.3800  177.5070  139.8330 C   0  0  0  0  0  3  0  0  0  0  0  0
  190.7280  177.4340  143.8990 C   0  0  0  0  0  0  0  0  0  0  0  0
  191.8280  177.2880  142.6310 S   0  0  0  0  0  0  0  0  0  0  0  0
  186.3570  177.2810  146.6270 C   0  0  0  0  0  2  0  0  0  0  0  0
  188.2290  177.5700  141.2270 C   0  0  0  0  0  3  0  0  0  0  0  0
  185.4630  178.2500  145.8600 C   0  0  0  0  0  2  0  0  0  0  0  0
  188.7260  177.6640  145.7670 C   0  0  0  0  0  0  0  0  0  0  0  0
  185.1310  179.5090  143.6790 C   0  0  0  0  0  2  0  0  0  0  0  0
  182.6940  178.8430  143.3530 C   0  0  0  0  0  1  0  0  0  0  0  0
  184.1290  178.6400  142.8990 C   0  0  1  0  0  3  0  0  0  0  0  0
  184.2730  178.7150  141.4120 C   0  0  0  0  0  0  0  0  0  0  0  0
  185.2320  179.5380  140.8330 O   0  0  0  0  0  1  0  0  0  0  0  0
  183.5420  178.0010  140.6790 O   0  0  0  0  0  0  0  0  0  0  0  0
  1 14  1  0  0  0  0
  1  2  2  0  0  0  0
  2 19  1  0  0  0  0
  3  7  1  0  0  0  0
  4  1  1  0  0  0  0
  5 20  1  6  0  0  0
  5 18  1  0  0  0  0
  6 13  2  0  0  0  0
  6  9  1  0  0  0  0
  8  4  1  0  0  0  0
  8 15  1  0  0  0  0
  9  8  2  0  0  0  0
 10 11  1  1  0  0  0
 12  2  1  0  0  0  0
 12  5  1  0  0  0  0
 13 17  1  0  0  0  0
 14  3  2  0  0  0  0
 15 14  1  0  0  0  0
 16 10  1  0  0  0  0
 17  4  2  0  0  0  0
 18 16  1  0  0  0  0
 19  7  2  0  0  0  0
 19 10  1  0  0  0  0
 22 21  1  6  0  0  0
 22 20  1  0  0  0  0
 23 22  1  0  0  0  0
 24 23  1  0  0  0  0
 25 23  2  0  0  0  0
M  END
>  <MODEL>
6

>  <REMARK>
 VINA RESULT:      -9.3      2.902      5.349
  Name = 
  3 active torsions:
  status: ('A' for Active; 'I' for Inactive)
    1  A    between atoms: C_2  and  C_25
    2  A    between atoms: C_6  and  C_15
    3  A    between atoms: C_15  and  C_25
                            x       y       z     vdW  Elec       q    Type
                         _______ _______ _______ _____ _____    ______ ____

>  <TORSDO>
F 3

$$$$
=
 OpenBabel10272400533D

 25 28  0  0  1  0  0  0  0  0999 V2000
  186.7660  178.1850  142.3350 C   0  0  0  0  0  0  0  0  0  0  0  0
  187.8570  177.7980  141.5330 C   0  0  0  0  0  0  0  0  0  0  0  0
  185.6790  179.1510  140.4410 N   0  0  0  0  0  0  0  0  0  0  0  0
  186.5610  177.9980  143.7170 C   0  0  0  0  0  0  0  0  0  0  0  0
  190.3540  177.5160  141.6990 C   0  0  2  0  0  3  0  0  0  0  0  0
  185.8050  177.8230  146.4050 C   0  0  0  0  0  3  0  0  0  0  0  0
  186.7000  178.7900  139.6640 N   0  0  0  0  0  0  0  0  0  0  0  0
  185.3470  178.5270  144.1580 C   0  0  0  0  0  0  0  0  0  0  0  0
  184.9480  178.4530  145.4910 C   0  0  0  0  0  3  0  0  0  0  0  0
  188.9260  177.8380  139.1600 C   0  0  2  0  0  3  0  0  0  0  0  0
  188.4390  177.7890  137.7190 C   0  0  0  0  0  1  0  0  0  0  0  0
  188.9890  177.0220  142.1590 C   0  0  0  0  0  2  0  0  0  0  0  0
  187.0330  177.2860  145.9770 C   0  0  0  0  0  3  0  0  0  0  0  0
  185.7000  178.8540  141.7560 C   0  0  0  0  0  0  0  0  0  0  0  0
  184.5030  179.2300  142.8800 S   0  0  0  0  0  0  0  0  0  0  0  0
  189.6930  176.5560  139.4430 C   0  0  0  0  0  2  0  0  0  0  0  0
  187.4170  177.3720  144.6290 C   0  0  0  0  0  3  0  0  0  0  0  0
  190.8280  176.8070  140.4310 C   0  0  0  0  0  2  0  0  0  0  0  0
  187.7890  178.1030  140.1360 C   0  0  0  0  0  0  0  0  0  0  0  0
  191.4210  177.4890  142.8050 C   0  0  0  0  0  2  0  0  0  0  0  0
  191.9860  175.3650  144.0900 C   0  0  0  0  0  1  0  0  0  0  0  0
  191.1380  176.6230  144.0440 C   0  0  1  0  0  3  0  0  0  0  0  0
  191.1570  177.3730  145.3380 C   0  0  0  0  0  0  0  0  0  0  0  0
  191.8990  176.9050  146.4170 O   0  0  0  0  0  1  0  0  0  0  0  0
  190.5240  178.4540  145.4410 O   0  0  0  0  0  0  0  0  0  0  0  0
  1  4  1  0  0  0  0
  2 12  1  0  0  0  0
  2  1  1  0  0  0  0
  3 14  1  0  0  0  0
  4  8  2  0  0  0  0
  4 17  1  0  0  0  0
  5 12  1  0  0  0  0
  5 20  1  1  0  0  0
  7 19  1  0  0  0  0
  7  3  2  0  0  0  0
  8  9  1  0  0  0  0
  9  6  2  0  0  0  0
 10 11  1  6  0  0  0
 10 16  1  0  0  0  0
 10 19  1  0  0  0  0
 13  6  1  0  0  0  0
 14  1  2  0  0  0  0
 14 15  1  0  0  0  0
 15  8  1  0  0  0  0
 16 18  1  0  0  0  0
 17 13  2  0  0  0  0
 18  5  1  0  0  0  0
 19  2  2  0  0  0  0
 20 22  1  0  0  0  0
 22 21  1  1  0  0  0
 22 23  1  0  0  0  0
 23 25  2  0  0  0  0
 23 24  1  0  0  0  0
M  END
>  <MODEL>
7

>  <REMARK>
 VINA RESULT:      -9.2      2.887      5.305
  Name = 
  3 active torsions:
  status: ('A' for Active; 'I' for Inactive)
    1  A    between atoms: C_2  and  C_25
    2  A    between atoms: C_6  and  C_15
    3  A    between atoms: C_15  and  C_25
                            x       y       z     vdW  Elec       q    Type
                         _______ _______ _______ _____ _____    ______ ____

>  <TORSDO>
F 3

$$$$
=
 OpenBabel10272400533D

 25 28  0  0  1  0  0  0  0  0999 V2000
  187.7550  178.1150  142.0050 C   0  0  0  0  0  0  0  0  0  0  0  0
  187.0950  178.2850  143.2370 C   0  0  0  0  0  0  0  0  0  0  0  0
  185.6830  178.3070  140.8350 N   0  0  0  0  0  0  0  0  0  0  0  0
  189.1260  177.9140  141.7450 C   0  0  0  0  0  0  0  0  0  0  0  0
  187.2670  177.5110  145.6280 C   0  0  2  0  0  3  0  0  0  0  0  0
  191.7400  177.4970  140.8400 C   0  0  0  0  0  3  0  0  0  0  0  0
  185.0390  178.4730  141.9900 N   0  0  0  0  0  0  0  0  0  0  0  0
  189.4030  177.7840  140.3840 C   0  0  0  0  0  0  0  0  0  0  0  0
  190.6950  177.5760  139.9080 C   0  0  0  0  0  3  0  0  0  0  0  0
  184.8130  178.5970  144.4500 C   0  0  2  0  0  3  0  0  0  0  0  0
  183.4870  179.2890  144.1660 C   0  0  0  0  0  1  0  0  0  0  0  0
  187.9080  178.3180  144.5070 C   0  0  0  0  0  2  0  0  0  0  0  0
  191.4780  177.6230  142.2160 C   0  0  0  0  0  3  0  0  0  0  0  0
  187.0200  178.1340  140.8310 C   0  0  0  0  0  0  0  0  0  0  0  0
  187.9910  177.9110  139.4730 S   0  0  0  0  0  0  0  0  0  0  0  0
  185.4840  179.3190  145.6070 C   0  0  0  0  0  2  0  0  0  0  0  0
  190.1680  177.8320  142.6760 C   0  0  0  0  0  3  0  0  0  0  0  0
  186.2940  178.3470  146.4590 C   0  0  0  0  0  2  0  0  0  0  0  0
  185.6790  178.4950  143.2030 C   0  0  0  0  0  0  0  0  0  0  0  0
  188.2830  176.7680  146.5080 C   0  0  0  0  0  2  0  0  0  0  0  0
  189.2770  178.0470  148.4730 C   0  0  0  0  0  1  0  0  0  0  0  0
  189.4790  177.5710  147.0450 C   0  0  1  0  0  3  0  0  0  0  0  0
  190.8060  176.9110  146.8460 C   0  0  0  0  0  0  0  0  0  0  0  0
  191.1600  176.3880  145.6080 O   0  0  0  0  0  0  0  0  0  0  0  0
  191.6240  176.8580  147.8000 O   0  0  0  0  0  1  0  0  0  0  0  0
  1  2  2  0  0  0  0
  2 12  1  0  0  0  0
  3  7  1  0  0  0  0
  4  1  1  0  0  0  0
  4 17  1  0  0  0  0
  5 18  1  0  0  0  0
  5 20  1  1  0  0  0
  6 13  1  0  0  0  0
  7 19  2  0  0  0  0
  8  4  2  0  0  0  0
  9  8  1  0  0  0  0
  9  6  2  0  0  0  0
 10 11  1  6  0  0  0
 10 16  1  0  0  0  0
 12  5  1  0  0  0  0
 13 17  2  0  0  0  0
 14  3  2  0  0  0  0
 14  1  1  0  0  0  0
 15  8  1  0  0  0  0
 15 14  1  0  0  0  0
 16 18  1  0  0  0  0
 19  2  1  0  0  0  0
 19 10  1  0  0  0  0
 20 22  1  0  0  0  0
 22 21  1  1  0  0  0
 23 22  1  0  0  0  0
 23 25  1  0  0  0  0
 24 23  2  0  0  0  0
M  END
>  <MODEL>
8

>  <REMARK>
 VINA RESULT:      -8.6      2.904      5.310
  Name = 
  3 active torsions:
  status: ('A' for Active; 'I' for Inactive)
    1  A    between atoms: C_2  and  C_25
    2  A    between atoms: C_6  and  C_15
    3  A    between atoms: C_15  and  C_25
                            x       y       z     vdW  Elec       q    Type
                         _______ _______ _______ _____ _____    ______ ____

>  <TORSDO>
F 3

$$$$
=
 OpenBabel10272400533D

 25 28  0  0  1  0  0  0  0  0999 V2000
  186.1510  178.3010  142.0280 C   0  0  0  0  0  0  0  0  0  0  0  0
  187.3670  177.8610  142.5850 C   0  0  0  0  0  0  0  0  0  0  0  0
  187.1730  178.5010  139.8800 N   0  0  0  0  0  0  0  0  0  0  0  0
  184.9020  178.4980  142.6510 C   0  0  0  0  0  0  0  0  0  0  0  0
  188.6510  178.0090  144.7470 C   0  0  2  0  0  3  0  0  0  0  0  0
  182.2930  179.0070  143.5220 C   0  0  0  0  0  3  0  0  0  0  0  0
  188.3330  178.0830  140.3860 N   0  0  0  0  0  0  0  0  0  0  0  0
  183.9230  178.9480  141.7640 C   0  0  0  0  0  0  0  0  0  0  0  0
  182.6170  179.2090  142.1730 C   0  0  0  0  0  3  0  0  0  0  0  0
  189.8880  177.3630  142.1700 C   0  0  2  0  0  3  0  0  0  0  0  0
  190.7430  176.8240  141.0310 C   0  0  0  0  0  1  0  0  0  0  0  0
  187.4110  177.4770  144.0430 C   0  0  0  0  0  2  0  0  0  0  0  0
  183.2680  178.5550  144.4290 C   0  0  0  0  0  3  0  0  0  0  0  0
  186.0930  178.6080  140.6790 C   0  0  0  0  0  0  0  0  0  0  0  0
  184.5560  179.1170  140.2110 S   0  0  0  0  0  0  0  0  0  0  0  0
  189.9120  176.3460  143.3000 C   0  0  0  0  0  2  0  0  0  0  0  0
  184.5780  178.2980  143.9970 C   0  0  0  0  0  3  0  0  0  0  0  0
  189.8280  177.0380  144.6560 C   0  0  0  0  0  2  0  0  0  0  0  0
  188.4870  177.7310  141.7030 C   0  0  0  0  0  0  0  0  0  0  0  0
  188.3910  178.4630  146.1910 C   0  0  0  0  0  2  0  0  0  0  0  0
  187.8130  177.1360  148.2860 C   0  0  0  0  0  1  0  0  0  0  0  0
  187.3000  177.7220  146.9830 C   0  0  1  0  0  3  0  0  0  0  0  0
  186.0340  178.4980  147.1650 C   0  0  0  0  0  0  0  0  0  0  0  0
  186.0400  179.8870  147.1120 O   0  0  0  0  0  0  0  0  0  0  0  0
  184.9490  177.8870  147.3350 O   0  0  0  0  0  1  0  0  0  0  0  0
  1  2  1  0  0  0  0
  1  4  1  0  0  0  0
  2 12  1  0  0  0  0
  3  7  2  0  0  0  0
  3 14  1  0  0  0  0
  4 17  1  0  0  0  0
  5 20  1  1  0  0  0
  6 13  1  0  0  0  0
  7 19  1  0  0  0  0
  8  9  1  0  0  0  0
  8  4  2  0  0  0  0
  9  6  2  0  0  0  0
 10 11  1  6  0  0  0
 10 16  1  0  0  0  0
 12  5  1  0  0  0  0
 14  1  2  0  0  0  0
 15 14  1  0  0  0  0
 15  8  1  0  0  0  0
 16 18  1  0  0  0  0
 17 13  2  0  0  0  0
 18  5  1  0  0  0  0
 19 10  1  0  0  0  0
 19  2  2  0  0  0  0
 20 22  1  0  0  0  0
 22 23  1  0  0  0  0
 22 21  1  1  0  0  0
 23 25  1  0  0  0  0
 24 23  2  0  0  0  0
M  END
>  <MODEL>
9

>  <REMARK>
 VINA RESULT:      -8.6      3.757      6.850
  Name = 
  3 active torsions:
  status: ('A' for Active; 'I' for Inactive)
    1  A    between atoms: C_2  and  C_25
    2  A    between atoms: C_6  and  C_15
    3  A    between atoms: C_15  and  C_25
                            x       y       z     vdW  Elec       q    Type
                         _______ _______ _______ _____ _____    ______ ____

>  <TORSDO>
F 3

$$$$
