=
 OpenBabel10272414553D

 37 40  0  0  1  0  0  0  0  0999 V2000
  189.7140  177.1760  136.6140 N   0  0  0  0  0  2  0  0  0  0  0  0
  192.4850  175.3270  138.3670 C   0  0  0  0  0  2  0  0  0  0  0  0
  187.3200  174.6290  135.1570 C   0  0  0  0  0  3  0  0  0  0  0  0
  189.8310  176.5350  137.9220 C   0  0  2  0  0  3  0  0  0  0  0  0
  188.2960  175.2370  135.9650 C   0  0  0  0  0  0  0  0  0  0  0  0
  190.8810  177.2360  138.7870 C   0  0  2  0  0  3  0  0  0  0  0  0
  188.5430  177.2270  134.4950 C   0  0  0  0  0  1  0  0  0  0  0  0
  189.0410  174.4280  136.8570 C   0  0  0  0  0  0  0  0  0  0  0  0
  187.8570  172.4590  136.0820 C   0  0  0  0  0  3  0  0  0  0  0  0
  188.4700  176.7550  135.9420 C   0  0  2  0  0  0  0  0  0  0  0  0
  188.8200  173.0460  136.9050 C   0  0  0  0  0  3  0  0  0  0  0  0
  192.3140  176.8450  138.4110 C   0  0  0  0  0  2  0  0  0  0  0  0
  190.0900  175.0310  137.7450 C   0  0  1  0  0  3  0  0  0  0  0  0
  187.1100  173.2480  135.2050 C   0  0  0  0  0  0  0  0  0  0  0  0
  191.5460  174.7020  137.3270 C   0  0  1  0  0  3  0  0  0  0  0  0
  186.0670  172.6200  134.3460 C   0  0  0  0  0  2  0  0  0  0  0  0
  185.7920  171.2030  134.8110 C   0  0  0  0  0  1  0  0  0  0  0  0
  187.3140  178.9270  136.6080 C   0  0  0  0  0  1  0  0  0  0  0  0
  187.2550  177.4050  136.6220 C   0  0  0  0  0  2  0  0  0  0  0  0
  191.9170  175.1340  135.8840 C   0  0  2  0  0  3  0  0  0  0  0  0
  192.0760  173.9500  134.9290 C   0  0  0  0  0  2  0  0  0  0  0  0
  193.2070  171.9130  134.9870 C   0  0  0  0  0  1  0  0  0  0  0  0
  192.2290  172.7230  135.6910 N   0  0  0  0  0  2  0  0  0  0  0  0
  193.0890  176.0240  135.8320 N   0  0  0  0  0  2  0  0  0  0  0  0
  194.0660  175.5700  134.8400 C   0  0  0  0  0  2  0  0  0  0  0  0
  195.4670  175.5260  135.4330 C   0  0  0  0  0  2  0  0  0  0  0  0
  195.6330  173.6300  137.3080 C   0  0  0  0  0  3  0  0  0  0  0  0
  195.5620  174.4880  136.4630 C   0  0  0  0  0  0  0  0  0  0  0  0
  190.5990  176.9900  140.2640 C   0  0  0  0  0  2  0  0  0  0  0  0
  188.9020  177.5020  140.6960 S   0  0  0  0  0  0  0  0  0  0  0  0
  188.2440  177.2570  143.3780 C   0  0  0  0  0  3  0  0  0  0  0  0
  189.2470  177.5640  142.4530 C   0  0  0  0  0  0  0  0  0  0  0  0
  190.5230  177.9210  142.9010 C   0  0  0  0  0  3  0  0  0  0  0  0
  192.0290  178.3330  144.7010 F   0  0  0  0  0  0  0  0  0  0  0  0
  189.7910  177.6800  145.1940 C   0  0  0  0  0  3  0  0  0  0  0  0
  190.7950  177.9800  144.2710 C   0  0  0  0  0  0  0  0  0  0  0  0
  188.5170  177.3170  144.7490 C   0  0  0  0  0  3  0  0  0  0  0  0
  2 12  1  0  0  0  0
  3 14  2  0  0  0  0
  3  5  1  0  0  0  0
  4  1  1  6  0  0  0
  4  6  1  0  0  0  0
  5  8  2  0  0  0  0
  6 29  1  1  0  0  0
  8 11  1  0  0  0  0
  9 11  2  0  0  0  0
 10  7  1  6  0  0  0
 10  5  1  0  0  0  0
 10  1  1  0  0  0  0
 10 19  1  0  0  0  0
 12  6  1  0  0  0  0
 13  8  1  6  0  0  0
 13  4  1  0  0  0  0
 14  9  1  0  0  0  0
 15 20  1  6  0  0  0
 15 13  1  0  0  0  0
 15  2  1  0  0  0  0
 16 17  1  0  0  0  0
 16 14  1  0  0  0  0
 18 19  1  0  0  0  0
 20 21  1  6  0  0  0
 21 23  1  0  0  0  0
 22 23  1  0  0  0  0
 24 20  1  0  0  0  0
 25 26  1  0  0  0  0
 25 24  1  0  0  0  0
 26 28  1  0  0  0  0
 28 27  3  0  0  0  0
 29 30  1  0  0  0  0
 30 32  1  0  0  0  0
 31 37  1  0  0  0  0
 32 33  1  0  0  0  0
 32 31  2  0  0  0  0
 33 36  2  0  0  0  0
 36 34  1  0  0  0  0
 36 35  1  0  0  0  0
 37 35  2  0  0  0  0
M  END
>  <MODEL>
1

>  <REMARK>
 VINA RESULT:      -5.3      0.000      0.000
  Name = 
  12 active torsions:
  status: ('A' for Active; 'I' for Inactive)
    1  A    between atoms: C_1  and  C_5
    2  A    between atoms: C_1  and  N_33
    3  A    between atoms: C_1  and  C_36
    4  A    between atoms: C_3  and  C_32
    5  A    between atoms: C_5  and  N_23
    6  A    between atoms: C_6  and  S_31
    7  A    between atoms: C_14  and  C_37
    8  A    between atoms: C_17  and  C_26
    9  A    between atoms: C_17  and  N_33
   10  A    between atoms: C_24  and  C_28
   11  A    between atoms: C_26  and  C_34
   12  A    between atoms: S_31  and  C_37
                            x       y       z     vdW  Elec       q    Type
                         _______ _______ _______ _____ _____    ______ ____

>  <TORSDO>
F 12

$$$$
=
 OpenBabel10272414553D

 37 40  0  0  1  0  0  0  0  0999 V2000
  189.9320  177.1370  136.6640 N   0  0  0  0  0  2  0  0  0  0  0  0
  192.7720  175.1380  138.1160 C   0  0  0  0  0  2  0  0  0  0  0  0
  187.3370  174.7230  135.3310 C   0  0  0  0  0  3  0  0  0  0  0  0
  190.1340  176.4470  137.9360 C   0  0  2  0  0  3  0  0  0  0  0  0
  188.3980  175.2700  136.0730 C   0  0  0  0  0  0  0  0  0  0  0  0
  191.2770  177.0820  138.7320 C   0  0  2  0  0  3  0  0  0  0  0  0
  188.5930  177.3010  134.6530 C   0  0  0  0  0  1  0  0  0  0  0  0
  189.1850  174.4060  136.8730 C   0  0  0  0  0  0  0  0  0  0  0  0
  187.8720  172.5050  136.1360 C   0  0  0  0  0  3  0  0  0  0  0  0
  188.6230  176.7810  136.0860 C   0  0  2  0  0  0  0  0  0  0  0  0
  188.9200  173.0310  136.8940 C   0  0  0  0  0  3  0  0  0  0  0  0
  192.6590  176.6590  138.2240 C   0  0  0  0  0  2  0  0  0  0  0  0
  190.3250  174.9430  137.6890 C   0  0  1  0  0  3  0  0  0  0  0  0
  187.0830  173.3490  135.3510 C   0  0  0  0  0  0  0  0  0  0  0  0
  191.7290  174.5810  137.1390 C   0  0  1  0  0  3  0  0  0  0  0  0
  185.9520  172.7860  134.5630 C   0  0  0  0  0  2  0  0  0  0  0  0
  185.7140  171.3390  134.9500 C   0  0  0  0  0  1  0  0  0  0  0  0
  187.1940  178.8650  136.4200 C   0  0  0  0  0  1  0  0  0  0  0  0
  187.4920  177.4460  136.8860 C   0  0  0  0  0  2  0  0  0  0  0  0
  191.9940  175.0520  135.6850 C   0  0  2  0  0  3  0  0  0  0  0  0
  192.1140  173.8930  134.6960 C   0  0  0  0  0  2  0  0  0  0  0  0
  191.5480  171.6340  134.6070 C   0  0  0  0  0  1  0  0  0  0  0  0
  192.2090  172.6370  135.4200 N   0  0  0  0  0  2  0  0  0  0  0  0
  193.1400  175.9690  135.5760 N   0  0  0  0  0  2  0  0  0  0  0  0
  194.1220  175.4910  134.6000 C   0  0  0  0  0  2  0  0  0  0  0  0
  195.5410  175.7940  135.0580 C   0  0  0  0  0  2  0  0  0  0  0  0
  196.0400  178.4140  134.8900 C   0  0  0  0  0  3  0  0  0  0  0  0
  195.8180  177.2310  134.9670 C   0  0  0  0  0  0  0  0  0  0  0  0
  191.1090  176.7930  140.2190 C   0  0  0  0  0  2  0  0  0  0  0  0
  189.4210  177.2010  140.7740 S   0  0  0  0  0  0  0  0  0  0  0  0
  191.2200  177.4850  142.8630 C   0  0  0  0  0  3  0  0  0  0  0  0
  189.8860  177.2760  142.5030 C   0  0  0  0  0  0  0  0  0  0  0  0
  188.9100  177.1260  143.4940 C   0  0  0  0  0  3  0  0  0  0  0  0
  188.3240  177.0220  145.8020 F   0  0  0  0  0  0  0  0  0  0  0  0
  190.6040  177.3760  145.2040 C   0  0  0  0  0  3  0  0  0  0  0  0
  189.2690  177.1740  144.8440 C   0  0  0  0  0  0  0  0  0  0  0  0
  191.5790  177.5330  144.2150 C   0  0  0  0  0  3  0  0  0  0  0  0
  2 12  1  0  0  0  0
  3 14  2  0  0  0  0
  3  5  1  0  0  0  0
  4  1  1  6  0  0  0
  4  6  1  0  0  0  0
  5 10  1  0  0  0  0
  5  8  2  0  0  0  0
  6 29  1  1  0  0  0
  8 11  1  0  0  0  0
  9 11  2  0  0  0  0
 10  7  1  6  0  0  0
 10  1  1  0  0  0  0
 10 19  1  0  0  0  0
 12  6  1  0  0  0  0
 13  8  1  6  0  0  0
 13  4  1  0  0  0  0
 14  9  1  0  0  0  0
 15 20  1  6  0  0  0
 15 13  1  0  0  0  0
 15  2  1  0  0  0  0
 16 17  1  0  0  0  0
 16 14  1  0  0  0  0
 18 19  1  0  0  0  0
 20 21  1  6  0  0  0
 21 23  1  0  0  0  0
 22 23  1  0  0  0  0
 24 20  1  0  0  0  0
 25 26  1  0  0  0  0
 25 24  1  0  0  0  0
 27 28  3  0  0  0  0
 28 26  1  0  0  0  0
 29 30  1  0  0  0  0
 30 32  1  0  0  0  0
 31 37  1  0  0  0  0
 32 31  2  0  0  0  0
 32 33  1  0  0  0  0
 33 36  2  0  0  0  0
 36 35  1  0  0  0  0
 36 34  1  0  0  0  0
 37 35  2  0  0  0  0
M  END
>  <MODEL>
2

>  <REMARK>
 VINA RESULT:      -5.3      1.032      1.542
  Name = 
  12 active torsions:
  status: ('A' for Active; 'I' for Inactive)
    1  A    between atoms: C_1  and  C_5
    2  A    between atoms: C_1  and  N_33
    3  A    between atoms: C_1  and  C_36
    4  A    between atoms: C_3  and  C_32
    5  A    between atoms: C_5  and  N_23
    6  A    between atoms: C_6  and  S_31
    7  A    between atoms: C_14  and  C_37
    8  A    between atoms: C_17  and  C_26
    9  A    between atoms: C_17  and  N_33
   10  A    between atoms: C_24  and  C_28
   11  A    between atoms: C_26  and  C_34
   12  A    between atoms: S_31  and  C_37
                            x       y       z     vdW  Elec       q    Type
                         _______ _______ _______ _____ _____    ______ ____

>  <TORSDO>
F 12

$$$$
=
 OpenBabel10272414553D

 37 40  0  0  1  0  0  0  0  0999 V2000
  188.2920  177.0220  136.4360 N   0  0  0  0  0  2  0  0  0  0  0  0
  191.3410  175.7580  138.2470 C   0  0  0  0  0  2  0  0  0  0  0  0
  186.3090  174.0350  135.2160 C   0  0  0  0  0  3  0  0  0  0  0  0
  188.5240  176.5030  137.7820 C   0  0  2  0  0  3  0  0  0  0  0  0
  187.1880  174.8450  135.9560 C   0  0  0  0  0  0  0  0  0  0  0  0
  189.4630  177.4190  138.5720 C   0  0  2  0  0  3  0  0  0  0  0  0
  187.1020  176.7370  134.3460 C   0  0  0  0  0  1  0  0  0  0  0  0
  188.0610  174.2280  136.8850 C   0  0  0  0  0  0  0  0  0  0  0  0
  187.1910  172.0480  136.2760 C   0  0  0  0  0  3  0  0  0  0  0  0
  187.1210  176.3660  135.8250 C   0  0  2  0  0  0  0  0  0  0  0  0
  188.0600  172.8360  137.0330 C   0  0  0  0  0  3  0  0  0  0  0  0
  190.9340  177.2300  138.1900 C   0  0  0  0  0  2  0  0  0  0  0  0
  189.0140  175.0490  137.7040 C   0  0  1  0  0  3  0  0  0  0  0  0
  186.3190  172.6460  135.3640 C   0  0  0  0  0  0  0  0  0  0  0  0
  190.4980  174.9210  137.2750 C   0  0  1  0  0  3  0  0  0  0  0  0
  185.3770  171.8030  134.5760 C   0  0  0  0  0  2  0  0  0  0  0  0
  185.8810  170.3740  134.5140 C   0  0  0  0  0  1  0  0  0  0  0  0
  184.7480  177.2280  135.4730 C   0  0  0  0  0  1  0  0  0  0  0  0
  185.8280  176.8660  136.4860 C   0  0  0  0  0  2  0  0  0  0  0  0
  190.7790  175.3000  135.7970 C   0  0  2  0  0  3  0  0  0  0  0  0
  191.0810  174.0870  134.9180 C   0  0  0  0  0  2  0  0  0  0  0  0
  192.3450  172.1330  135.0510 C   0  0  0  0  0  1  0  0  0  0  0  0
  191.3560  172.9310  135.7530 N   0  0  0  0  0  2  0  0  0  0  0  0
  191.8160  176.3350  135.6550 N   0  0  0  0  0  2  0  0  0  0  0  0
  192.9430  175.8610  134.8500 C   0  0  0  0  0  2  0  0  0  0  0  0
  194.2590  176.0310  135.5970 C   0  0  0  0  0  2  0  0  0  0  0  0
  194.5580  174.1000  137.4200 C   0  0  0  0  0  3  0  0  0  0  0  0
  194.4260  174.9730  136.5980 C   0  0  0  0  0  0  0  0  0  0  0  0
  189.2400  177.2390  140.0680 C   0  0  0  0  0  2  0  0  0  0  0  0
  187.8900  178.3130  140.6600 S   0  0  0  0  0  0  0  0  0  0  0  0
  189.4920  177.9640  142.8950 C   0  0  0  0  0  3  0  0  0  0  0  0
  188.1900  177.9340  142.3850 C   0  0  0  0  0  0  0  0  0  0  0  0
  187.1200  177.6050  143.2230 C   0  0  0  0  0  3  0  0  0  0  0  0
  186.3120  176.9750  145.3740 F   0  0  0  0  0  0  0  0  0  0  0  0
  188.6510  177.3220  145.0750 C   0  0  0  0  0  3  0  0  0  0  0  0
  187.3500  177.2990  144.5670 C   0  0  0  0  0  0  0  0  0  0  0  0
  189.7210  177.6560  144.2400 C   0  0  0  0  0  3  0  0  0  0  0  0
  3 14  2  0  0  0  0
  3  5  1  0  0  0  0
  4  1  1  6  0  0  0
  4  6  1  0  0  0  0
  5  8  2  0  0  0  0
  6 29  1  1  0  0  0
  8 11  1  0  0  0  0
  9 11  2  0  0  0  0
 10  7  1  6  0  0  0
 10  5  1  0  0  0  0
 10  1  1  0  0  0  0
 10 19  1  0  0  0  0
 12  2  1  0  0  0  0
 12  6  1  0  0  0  0
 13  8  1  6  0  0  0
 13  4  1  0  0  0  0
 14  9  1  0  0  0  0
 15 20  1  6  0  0  0
 15 13  1  0  0  0  0
 15  2  1  0  0  0  0
 16 14  1  0  0  0  0
 17 16  1  0  0  0  0
 18 19  1  0  0  0  0
 20 21  1  6  0  0  0
 21 23  1  0  0  0  0
 22 23  1  0  0  0  0
 24 20  1  0  0  0  0
 25 26  1  0  0  0  0
 25 24  1  0  0  0  0
 26 28  1  0  0  0  0
 28 27  3  0  0  0  0
 29 30  1  0  0  0  0
 30 32  1  0  0  0  0
 31 37  1  0  0  0  0
 32 31  2  0  0  0  0
 32 33  1  0  0  0  0
 33 36  2  0  0  0  0
 36 35  1  0  0  0  0
 36 34  1  0  0  0  0
 37 35  2  0  0  0  0
M  END
>  <MODEL>
3

>  <REMARK>
 VINA RESULT:      -5.2      1.508      1.791
  Name = 
  12 active torsions:
  status: ('A' for Active; 'I' for Inactive)
    1  A    between atoms: C_1  and  C_5
    2  A    between atoms: C_1  and  N_33
    3  A    between atoms: C_1  and  C_36
    4  A    between atoms: C_3  and  C_32
    5  A    between atoms: C_5  and  N_23
    6  A    between atoms: C_6  and  S_31
    7  A    between atoms: C_14  and  C_37
    8  A    between atoms: C_17  and  C_26
    9  A    between atoms: C_17  and  N_33
   10  A    between atoms: C_24  and  C_28
   11  A    between atoms: C_26  and  C_34
   12  A    between atoms: S_31  and  C_37
                            x       y       z     vdW  Elec       q    Type
                         _______ _______ _______ _____ _____    ______ ____

>  <TORSDO>
F 12

$$$$
=
 OpenBabel10272414553D

 37 40  0  0  1  0  0  0  0  0999 V2000
  183.6130  177.2590  136.4040 N   0  0  0  0  0  2  0  0  0  0  0  0
  187.1050  177.2060  137.8100 C   0  0  0  0  0  2  0  0  0  0  0  0
  182.4230  173.6830  136.0370 C   0  0  0  0  0  3  0  0  0  0  0  0
  184.1580  177.0950  137.7500 C   0  0  2  0  0  3  0  0  0  0  0  0
  183.1230  174.8210  136.4730 C   0  0  0  0  0  0  0  0  0  0  0  0
  184.8900  178.3600  138.2060 C   0  0  2  0  0  3  0  0  0  0  0  0
  182.2920  176.2700  134.6320 C   0  0  0  0  0  1  0  0  0  0  0  0
  184.2500  174.6460  137.3130 C   0  0  0  0  0  0  0  0  0  0  0  0
  183.9660  172.2400  137.2160 C   0  0  0  0  0  3  0  0  0  0  0  0
  182.6090  176.2170  136.1220 C   0  0  2  0  0  0  0  0  0  0  0  0
  184.6650  173.3580  137.6730 C   0  0  0  0  0  3  0  0  0  0  0  0
  186.2920  178.4830  137.6000 C   0  0  0  0  0  2  0  0  0  0  0  0
  185.0270  175.8300  137.8110 C   0  0  1  0  0  3  0  0  0  0  0  0
  182.8480  172.4010  136.3950 C   0  0  0  0  0  0  0  0  0  0  0  0
  186.4170  176.0050  137.1470 C   0  0  1  0  0  3  0  0  0  0  0  0
  182.0910  171.2060  135.9280 C   0  0  0  0  0  2  0  0  0  0  0  0
  183.0520  170.1060  135.5190 C   0  0  0  0  0  1  0  0  0  0  0  0
  180.9200  177.9570  136.9040 C   0  0  0  0  0  1  0  0  0  0  0  0
  181.3240  176.4890  136.9200 C   0  0  0  0  0  2  0  0  0  0  0  0
  186.3830  176.1430  135.6020 C   0  0  2  0  0  3  0  0  0  0  0  0
  186.8710  174.8870  134.8810 C   0  0  0  0  0  2  0  0  0  0  0  0
  188.2280  173.0020  135.0720 C   0  0  0  0  0  1  0  0  0  0  0  0
  187.4660  173.9710  135.8380 N   0  0  0  0  0  2  0  0  0  0  0  0
  187.0800  177.3450  135.1160 N   0  0  0  0  0  2  0  0  0  0  0  0
  188.2840  176.9980  134.3580 C   0  0  0  0  0  2  0  0  0  0  0  0
  189.5320  177.5590  135.0270 C   0  0  0  0  0  2  0  0  0  0  0  0
  190.6700  175.7130  136.5880 C   0  0  0  0  0  3  0  0  0  0  0  0
  190.1600  176.5460  135.8810 C   0  0  0  0  0  0  0  0  0  0  0  0
  184.9260  178.4290  139.7280 C   0  0  0  0  0  2  0  0  0  0  0  0
  183.2680  178.1400  140.4310 S   0  0  0  0  0  0  0  0  0  0  0  0
  182.9190  178.8440  143.0890 C   0  0  0  0  0  3  0  0  0  0  0  0
  183.8160  178.3890  142.1190 C   0  0  0  0  0  0  0  0  0  0  0  0
  185.1450  178.1270  142.4650 C   0  0  0  0  0  3  0  0  0  0  0  0
  186.8690  178.0800  144.1100 F   0  0  0  0  0  0  0  0  0  0  0  0
  184.6850  178.7900  144.7460 C   0  0  0  0  0  3  0  0  0  0  0  0
  185.5800  178.3280  143.7780 C   0  0  0  0  0  0  0  0  0  0  0  0
  183.3550  179.0470  144.4030 C   0  0  0  0  0  3  0  0  0  0  0  0
  3 14  2  0  0  0  0
  3  5  1  0  0  0  0
  4  1  1  6  0  0  0
  4 13  1  0  0  0  0
  4  6  1  0  0  0  0
  5  8  2  0  0  0  0
  6 29  1  1  0  0  0
  8 11  1  0  0  0  0
  9 11  2  0  0  0  0
 10  7  1  6  0  0  0
 10  1  1  0  0  0  0
 10  5  1  0  0  0  0
 10 19  1  0  0  0  0
 12  2  1  0  0  0  0
 12  6  1  0  0  0  0
 13  8  1  6  0  0  0
 14  9  1  0  0  0  0
 15 20  1  6  0  0  0
 15  2  1  0  0  0  0
 15 13  1  0  0  0  0
 16 14  1  0  0  0  0
 17 16  1  0  0  0  0
 18 19  1  0  0  0  0
 20 21  1  6  0  0  0
 21 23  1  0  0  0  0
 22 23  1  0  0  0  0
 24 20  1  0  0  0  0
 25 26  1  0  0  0  0
 25 24  1  0  0  0  0
 26 28  1  0  0  0  0
 28 27  3  0  0  0  0
 29 30  1  0  0  0  0
 30 32  1  0  0  0  0
 31 37  1  0  0  0  0
 32 33  1  0  0  0  0
 32 31  2  0  0  0  0
 33 36  2  0  0  0  0
 36 34  1  0  0  0  0
 36 35  1  0  0  0  0
 37 35  2  0  0  0  0
M  END
>  <MODEL>
4

>  <REMARK>
 VINA RESULT:      -4.9      3.814      5.459
  Name = 
  12 active torsions:
  status: ('A' for Active; 'I' for Inactive)
    1  A    between atoms: C_1  and  C_5
    2  A    between atoms: C_1  and  N_33
    3  A    between atoms: C_1  and  C_36
    4  A    between atoms: C_3  and  C_32
    5  A    between atoms: C_5  and  N_23
    6  A    between atoms: C_6  and  S_31
    7  A    between atoms: C_14  and  C_37
    8  A    between atoms: C_17  and  C_26
    9  A    between atoms: C_17  and  N_33
   10  A    between atoms: C_24  and  C_28
   11  A    between atoms: C_26  and  C_34
   12  A    between atoms: S_31  and  C_37
                            x       y       z     vdW  Elec       q    Type
                         _______ _______ _______ _____ _____    ______ ____

>  <TORSDO>
F 12

$$$$
=
 OpenBabel10272414553D

 37 40  0  0  1  0  0  0  0  0999 V2000
  189.2700  173.9980  136.9320 N   0  0  0  0  0  2  0  0  0  0  0  0
  191.9860  176.5490  137.4680 C   0  0  0  0  0  2  0  0  0  0  0  0
  186.3070  175.7330  135.3330 C   0  0  0  0  0  3  0  0  0  0  0  0
  190.2780  174.5990  136.0610 C   0  0  2  0  0  3  0  0  0  0  0  0
  187.6170  175.4270  135.7420 C   0  0  0  0  0  0  0  0  0  0  0  0
  191.6920  174.2250  136.5150 C   0  0  2  0  0  3  0  0  0  0  0  0
  186.9070  173.6630  137.3430 C   0  0  0  0  0  1  0  0  0  0  0  0
  188.6330  176.3950  135.5490 C   0  0  0  0  0  0  0  0  0  0  0  0
  187.0110  177.9290  134.6030 C   0  0  0  0  0  3  0  0  0  0  0  0
  187.9430  174.0390  136.2900 C   0  0  2  0  0  0  0  0  0  0  0  0
  188.3220  177.6390  134.9860 C   0  0  0  0  0  3  0  0  0  0  0  0
  192.1640  175.0510  137.7160 C   0  0  0  0  0  2  0  0  0  0  0  0
  190.0490  176.1140  135.9630 C   0  0  1  0  0  3  0  0  0  0  0  0
  186.0030  176.9800  134.7790 C   0  0  0  0  0  0  0  0  0  0  0  0
  190.5100  176.8900  137.2230 C   0  0  1  0  0  3  0  0  0  0  0  0
  184.6110  177.2850  134.3460 C   0  0  0  0  0  2  0  0  0  0  0  0
  183.6430  177.0380  135.4870 C   0  0  0  0  0  1  0  0  0  0  0  0
  187.4230  171.6420  135.5930 C   0  0  0  0  0  1  0  0  0  0  0  0
  187.8800  173.0230  135.1380 C   0  0  0  0  0  2  0  0  0  0  0  0
  189.6460  176.6440  138.4870 C   0  0  2  0  0  3  0  0  0  0  0  0
  188.7710  177.8430  138.8530 C   0  0  0  0  0  2  0  0  0  0  0  0
  186.5690  178.4120  139.3630 C   0  0  0  0  0  1  0  0  0  0  0  0
  187.3860  177.5590  138.5190 N   0  0  0  0  0  2  0  0  0  0  0  0
  190.4330  176.1820  139.6420 N   0  0  0  0  0  2  0  0  0  0  0  0
  190.2150  177.0320  140.8150 C   0  0  0  0  0  2  0  0  0  0  0  0
  190.1890  176.2040  142.0930 C   0  0  0  0  0  2  0  0  0  0  0  0
  187.8890  176.5670  143.4050 C   0  0  0  0  0  3  0  0  0  0  0  0
  188.9290  176.4060  142.8140 C   0  0  0  0  0  0  0  0  0  0  0  0
  192.6650  174.3210  135.3470 C   0  0  0  0  0  2  0  0  0  0  0  0
  193.4220  172.6990  134.9960 S   0  0  0  0  0  0  0  0  0  0  0  0
  195.0890  172.0970  137.1270 C   0  0  0  0  0  3  0  0  0  0  0  0
  194.8150  172.9870  136.0850 C   0  0  0  0  0  0  0  0  0  0  0  0
  195.6310  174.1070  135.8920 C   0  0  0  0  0  3  0  0  0  0  0  0
  197.4980  175.4300  136.5590 F   0  0  0  0  0  0  0  0  0  0  0  0
  196.9830  173.4550  137.7900 C   0  0  0  0  0  3  0  0  0  0  0  0
  196.7140  174.3420  136.7440 C   0  0  0  0  0  0  0  0  0  0  0  0
  196.1720  172.3330  137.9800 C   0  0  0  0  0  3  0  0  0  0  0  0
  2 12  1  0  0  0  0
  3  5  1  0  0  0  0
  4  6  1  0  0  0  0
  4  1  1  1  0  0  0
  5 10  1  0  0  0  0
  6 29  1  6  0  0  0
  6 12  1  0  0  0  0
  8  5  2  0  0  0  0
  9 14  1  0  0  0  0
  9 11  2  0  0  0  0
 10  1  1  0  0  0  0
 10  7  1  1  0  0  0
 11  8  1  0  0  0  0
 13  8  1  1  0  0  0
 13  4  1  0  0  0  0
 13 15  1  0  0  0  0
 14  3  2  0  0  0  0
 15  2  1  0  0  0  0
 15 20  1  1  0  0  0
 16 14  1  0  0  0  0
 16 17  1  0  0  0  0
 19 18  1  0  0  0  0
 19 10  1  0  0  0  0
 20 21  1  1  0  0  0
 20 24  1  0  0  0  0
 23 21  1  0  0  0  0
 23 22  1  0  0  0  0
 24 25  1  0  0  0  0
 25 26  1  0  0  0  0
 26 28  1  0  0  0  0
 28 27  3  0  0  0  0
 30 29  1  0  0  0  0
 30 32  1  0  0  0  0
 31 37  1  0  0  0  0
 32 31  2  0  0  0  0
 33 32  1  0  0  0  0
 33 36  2  0  0  0  0
 34 36  1  0  0  0  0
 35 37  2  0  0  0  0
 36 35  1  0  0  0  0
M  END
>  <MODEL>
5

>  <REMARK>
 VINA RESULT:      -4.7      2.826      6.833
  Name = 
  12 active torsions:
  status: ('A' for Active; 'I' for Inactive)
    1  A    between atoms: C_1  and  C_5
    2  A    between atoms: C_1  and  N_33
    3  A    between atoms: C_1  and  C_36
    4  A    between atoms: C_3  and  C_32
    5  A    between atoms: C_5  and  N_23
    6  A    between atoms: C_6  and  S_31
    7  A    between atoms: C_14  and  C_37
    8  A    between atoms: C_17  and  C_26
    9  A    between atoms: C_17  and  N_33
   10  A    between atoms: C_24  and  C_28
   11  A    between atoms: C_26  and  C_34
   12  A    between atoms: S_31  and  C_37
                            x       y       z     vdW  Elec       q    Type
                         _______ _______ _______ _____ _____    ______ ____

>  <TORSDO>
F 12

$$$$
=
 OpenBabel10272414553D

 37 40  0  0  1  0  0  0  0  0999 V2000
  193.4220  174.2780  138.0390 N   0  0  0  0  0  2  0  0  0  0  0  0
  190.7270  175.9840  136.0380 C   0  0  0  0  0  2  0  0  0  0  0  0
  196.7360  174.8450  136.2960 C   0  0  0  0  0  3  0  0  0  0  0  0
  192.9640  175.6620  137.9340 C   0  0  2  0  0  3  0  0  0  0  0  0
  195.4060  175.0010  136.7230 C   0  0  0  0  0  0  0  0  0  0  0  0
  191.5220  175.8040  138.4320 C   0  0  2  0  0  3  0  0  0  0  0  0
  195.2750  172.7450  137.7600 C   0  0  0  0  0  1  0  0  0  0  0  0
  194.5930  175.9650  136.0780 C   0  0  0  0  0  0  0  0  0  0  0  0
  196.4260  176.5390  134.5980 C   0  0  0  0  0  3  0  0  0  0  0  0
  194.8900  174.2110  137.9250 C   0  0  2  0  0  0  0  0  0  0  0  0
  195.1070  176.7220  135.0180 C   0  0  0  0  0  3  0  0  0  0  0  0
  190.4920  175.3320  137.4010 C   0  0  0  0  0  2  0  0  0  0  0  0
  193.1680  176.1740  136.5010 C   0  0  1  0  0  3  0  0  0  0  0  0
  197.2400  175.5990  135.2330 C   0  0  0  0  0  0  0  0  0  0  0  0
  192.1190  175.6310  135.4970 C   0  0  1  0  0  3  0  0  0  0  0  0
  198.6530  175.4250  134.7970 C   0  0  0  0  0  2  0  0  0  0  0  0
  199.0310  173.9560  134.8250 C   0  0  0  0  0  1  0  0  0  0  0  0
  196.9830  174.2880  139.3780 C   0  0  0  0  0  1  0  0  0  0  0  0
  195.5470  174.7630  139.2000 C   0  0  0  0  0  2  0  0  0  0  0  0
  192.2470  174.1170  135.1830 C   0  0  2  0  0  3  0  0  0  0  0  0
  193.4820  173.7840  134.3470 C   0  0  0  0  0  2  0  0  0  0  0  0
  195.1350  172.1440  134.4430 C   0  0  0  0  0  1  0  0  0  0  0  0
  193.7010  172.3480  134.3470 N   0  0  0  0  0  2  0  0  0  0  0  0
  191.0270  173.5470  134.5870 N   0  0  0  0  0  2  0  0  0  0  0  0
  190.5280  172.4120  135.3670 C   0  0  0  0  0  2  0  0  0  0  0  0
  189.0920  172.0770  134.9860 C   0  0  0  0  0  2  0  0  0  0  0  0
  187.4020  172.8170  136.9190 C   0  0  0  0  0  3  0  0  0  0  0  0
  188.1670  172.4810  136.0490 C   0  0  0  0  0  0  0  0  0  0  0  0
  191.2580  177.2360  138.8800 C   0  0  0  0  0  2  0  0  0  0  0  0
  189.5360  177.4330  139.4480 S   0  0  0  0  0  0  0  0  0  0  0  0
  191.2910  177.3100  141.5900 C   0  0  0  0  0  3  0  0  0  0  0  0
  189.9610  177.2080  141.1740 C   0  0  0  0  0  0  0  0  0  0  0  0
  188.9580  176.9280  142.1080 C   0  0  0  0  0  3  0  0  0  0  0  0
  188.3120  176.4660  144.3550 F   0  0  0  0  0  0  0  0  0  0  0  0
  190.6160  176.8380  143.8680 C   0  0  0  0  0  3  0  0  0  0  0  0
  189.2850  176.7430  143.4540 C   0  0  0  0  0  0  0  0  0  0  0  0
  191.6180  177.1240  142.9370 C   0  0  0  0  0  3  0  0  0  0  0  0
  2 12  1  0  0  0  0
  3  5  1  0  0  0  0
  4  1  1  6  0  0  0
  4  6  1  0  0  0  0
  5 10  1  0  0  0  0
  6 29  1  6  0  0  0
  8  5  2  0  0  0  0
  9 11  2  0  0  0  0
  9 14  1  0  0  0  0
 10  7  1  6  0  0  0
 10  1  1  0  0  0  0
 10 19  1  0  0  0  0
 11  8  1  0  0  0  0
 12  6  1  0  0  0  0
 13  8  1  6  0  0  0
 13  4  1  0  0  0  0
 14  3  2  0  0  0  0
 15 20  1  1  0  0  0
 15  2  1  0  0  0  0
 15 13  1  0  0  0  0
 16 17  1  0  0  0  0
 16 14  1  0  0  0  0
 19 18  1  0  0  0  0
 20 21  1  6  0  0  0
 23 21  1  0  0  0  0
 23 22  1  0  0  0  0
 24 20  1  0  0  0  0
 24 25  1  0  0  0  0
 26 25  1  0  0  0  0
 26 28  1  0  0  0  0
 28 27  3  0  0  0  0
 29 30  1  0  0  0  0
 30 32  1  0  0  0  0
 31 37  1  0  0  0  0
 32 31  2  0  0  0  0
 32 33  1  0  0  0  0
 33 36  2  0  0  0  0
 36 35  1  0  0  0  0
 36 34  1  0  0  0  0
 37 35  2  0  0  0  0
M  END
>  <MODEL>
6

>  <REMARK>
 VINA RESULT:      -4.3      2.099      6.308
  Name = 
  12 active torsions:
  status: ('A' for Active; 'I' for Inactive)
    1  A    between atoms: C_1  and  C_5
    2  A    between atoms: C_1  and  N_33
    3  A    between atoms: C_1  and  C_36
    4  A    between atoms: C_3  and  C_32
    5  A    between atoms: C_5  and  N_23
    6  A    between atoms: C_6  and  S_31
    7  A    between atoms: C_14  and  C_37
    8  A    between atoms: C_17  and  C_26
    9  A    between atoms: C_17  and  N_33
   10  A    between atoms: C_24  and  C_28
   11  A    between atoms: C_26  and  C_34
   12  A    between atoms: S_31  and  C_37
                            x       y       z     vdW  Elec       q    Type
                         _______ _______ _______ _____ _____    ______ ____

>  <TORSDO>
F 12

$$$$
=
 OpenBabel10272414553D

 37 40  0  0  1  0  0  0  0  0999 V2000
  189.1050  174.2050  137.1040 N   0  0  0  0  0  2  0  0  0  0  0  0
  191.6420  176.9030  137.7860 C   0  0  0  0  0  2  0  0  0  0  0  0
  186.1190  175.7850  135.3920 C   0  0  0  0  0  3  0  0  0  0  0  0
  190.1140  174.8740  136.2850 C   0  0  2  0  0  3  0  0  0  0  0  0
  187.4260  175.5510  135.8560 C   0  0  0  0  0  0  0  0  0  0  0  0
  191.5260  174.5780  136.7980 C   0  0  2  0  0  3  0  0  0  0  0  0
  186.7510  173.7290  137.4070 C   0  0  0  0  0  1  0  0  0  0  0  0
  188.3910  176.5780  135.7170 C   0  0  0  0  0  0  0  0  0  0  0  0
  186.7250  178.0270  134.7150 C   0  0  0  0  0  3  0  0  0  0  0  0
  187.8080  174.1770  136.4040 C   0  0  2  0  0  0  0  0  0  0  0  0
  188.0320  177.8090  135.1540 C   0  0  0  0  0  3  0  0  0  0  0  0
  191.8960  175.4150  138.0270 C   0  0  0  0  0  2  0  0  0  0  0  0
  189.8010  176.3750  136.1910 C   0  0  1  0  0  3  0  0  0  0  0  0
  185.7670  177.0180  134.8370 C   0  0  0  0  0  0  0  0  0  0  0  0
  190.1610  177.1610  137.4780 C   0  0  1  0  0  3  0  0  0  0  0  0
  184.3800  177.2480  134.3460 C   0  0  0  0  0  2  0  0  0  0  0  0
  183.3950  177.1450  135.4950 C   0  0  0  0  0  1  0  0  0  0  0  0
  188.5810  171.8830  135.6030 C   0  0  0  0  0  1  0  0  0  0  0  0
  187.8550  173.1730  135.2410 C   0  0  0  0  0  2  0  0  0  0  0  0
  189.2570  176.8500  138.7000 C   0  0  2  0  0  3  0  0  0  0  0  0
  188.4560  178.0620  139.1740 C   0  0  0  0  0  2  0  0  0  0  0  0
  186.2080  178.0630  138.5590 C   0  0  0  0  0  1  0  0  0  0  0  0
  187.5330  178.4770  138.1330 N   0  0  0  0  0  2  0  0  0  0  0  0
  189.9890  176.2230  139.8130 N   0  0  0  0  0  2  0  0  0  0  0  0
  189.7190  176.9010  141.0830 C   0  0  0  0  0  2  0  0  0  0  0  0
  191.0090  177.3850  141.7310 C   0  0  0  0  0  2  0  0  0  0  0  0
  191.5650  175.9550  143.9190 C   0  0  0  0  0  3  0  0  0  0  0  0
  191.3140  176.5970  142.9290 C   0  0  0  0  0  0  0  0  0  0  0  0
  192.5420  174.7440  135.6750 C   0  0  0  0  0  2  0  0  0  0  0  0
  192.4850  173.3260  134.5300 S   0  0  0  0  0  0  0  0  0  0  0  0
  194.6860  172.7780  136.1230 C   0  0  0  0  0  3  0  0  0  0  0  0
  193.4920  172.2870  135.5870 C   0  0  0  0  0  0  0  0  0  0  0  0
  193.0820  170.9810  135.8750 C   0  0  0  0  0  3  0  0  0  0  0  0
  193.4740  168.8980  136.9630 F   0  0  0  0  0  0  0  0  0  0  0  0
  195.0660  170.6520  137.2210 C   0  0  0  0  0  3  0  0  0  0  0  0
  193.8690  170.1630  136.6910 C   0  0  0  0  0  0  0  0  0  0  0  0
  195.4740  171.9590  136.9380 C   0  0  0  0  0  3  0  0  0  0  0  0
  2 12  1  0  0  0  0
  3  5  1  0  0  0  0
  4  6  1  0  0  0  0
  4  1  1  1  0  0  0
  5 10  1  0  0  0  0
  6 29  1  6  0  0  0
  6 12  1  0  0  0  0
  8  5  2  0  0  0  0
  9 14  1  0  0  0  0
  9 11  2  0  0  0  0
 10  1  1  0  0  0  0
 10  7  1  1  0  0  0
 11  8  1  0  0  0  0
 13  8  1  1  0  0  0
 13  4  1  0  0  0  0
 13 15  1  0  0  0  0
 14  3  2  0  0  0  0
 15  2  1  0  0  0  0
 15 20  1  1  0  0  0
 16 14  1  0  0  0  0
 16 17  1  0  0  0  0
 19 18  1  0  0  0  0
 19 10  1  0  0  0  0
 20 21  1  1  0  0  0
 20 24  1  0  0  0  0
 23 22  1  0  0  0  0
 23 21  1  0  0  0  0
 24 25  1  0  0  0  0
 25 26  1  0  0  0  0
 26 28  1  0  0  0  0
 28 27  3  0  0  0  0
 30 32  1  0  0  0  0
 30 29  1  0  0  0  0
 31 37  1  0  0  0  0
 32 33  1  0  0  0  0
 32 31  2  0  0  0  0
 33 36  2  0  0  0  0
 36 34  1  0  0  0  0
 36 35  1  0  0  0  0
 37 35  2  0  0  0  0
M  END
>  <MODEL>
7

>  <REMARK>
 VINA RESULT:      -4.2      3.102      6.922
  Name = 
  12 active torsions:
  status: ('A' for Active; 'I' for Inactive)
    1  A    between atoms: C_1  and  C_5
    2  A    between atoms: C_1  and  N_33
    3  A    between atoms: C_1  and  C_36
    4  A    between atoms: C_3  and  C_32
    5  A    between atoms: C_5  and  N_23
    6  A    between atoms: C_6  and  S_31
    7  A    between atoms: C_14  and  C_37
    8  A    between atoms: C_17  and  C_26
    9  A    between atoms: C_17  and  N_33
   10  A    between atoms: C_24  and  C_28
   11  A    between atoms: C_26  and  C_34
   12  A    between atoms: S_31  and  C_37
                            x       y       z     vdW  Elec       q    Type
                         _______ _______ _______ _____ _____    ______ ____

>  <TORSDO>
F 12

$$$$
=
 OpenBabel10272414553D

 37 40  0  0  1  0  0  0  0  0999 V2000
  185.1030  176.9130  139.0010 N   0  0  0  0  0  2  0  0  0  0  0  0
  186.6740  179.2750  141.4750 C   0  0  0  0  0  2  0  0  0  0  0  0
  181.9760  178.5430  137.6190 C   0  0  0  0  0  3  0  0  0  0  0  0
  185.9530  178.0930  138.8700 C   0  0  2  0  0  3  0  0  0  0  0  0
  183.2420  178.3580  138.2040 C   0  0  0  0  0  0  0  0  0  0  0  0
  187.3320  177.8510  139.4920 C   0  0  2  0  0  3  0  0  0  0  0  0
  182.9660  175.9020  138.4730 C   0  0  0  0  0  1  0  0  0  0  0  0
  183.8790  179.4680  138.8100 C   0  0  0  0  0  0  0  0  0  0  0  0
  181.9770  180.8720  138.2740 C   0  0  0  0  0  3  0  0  0  0  0  0
  183.9450  177.0070  138.0920 C   0  0  2  0  0  0  0  0  0  0  0  0
  183.2410  180.7130  138.8450 C   0  0  0  0  0  3  0  0  0  0  0  0
  187.3200  177.9670  141.0190 C   0  0  0  0  0  2  0  0  0  0  0  0
  185.2330  179.3230  139.4430 C   0  0  1  0  0  3  0  0  0  0  0  0
  181.3420  179.7880  137.6640 C   0  0  0  0  0  0  0  0  0  0  0  0
  185.2200  179.3640  140.9930 C   0  0  1  0  0  3  0  0  0  0  0  0
  180.0050  179.9680  137.0350 C   0  0  0  0  0  2  0  0  0  0  0  0
  180.1010  180.9340  135.8700 C   0  0  0  0  0  1  0  0  0  0  0  0
  184.8530  175.3730  136.3580 C   0  0  0  0  0  1  0  0  0  0  0  0
  184.3960  176.8000  136.6380 C   0  0  0  0  0  2  0  0  0  0  0  0
  184.3270  178.2860  141.6610 C   0  0  2  0  0  3  0  0  0  0  0  0
  182.9210  178.7930  141.9820 C   0  0  0  0  0  2  0  0  0  0  0  0
  180.7100  178.7710  141.2450 C   0  0  0  0  0  1  0  0  0  0  0  0
  181.9370  177.9970  141.2690 N   0  0  0  0  0  2  0  0  0  0  0  0
  184.9540  177.6660  142.8390 N   0  0  0  0  0  2  0  0  0  0  0  0
  184.4040  178.2010  144.0860 C   0  0  0  0  0  2  0  0  0  0  0  0
  185.4830  178.8910  144.9090 C   0  0  0  0  0  2  0  0  0  0  0  0
  187.6430  177.3320  145.1220 C   0  0  0  0  0  3  0  0  0  0  0  0
  186.6670  178.0350  145.0300 C   0  0  0  0  0  0  0  0  0  0  0  0
  188.3640  178.7790  138.8640 C   0  0  0  0  0  2  0  0  0  0  0  0
  188.4350  178.5440  137.0560 S   0  0  0  0  0  0  0  0  0  0  0  0
  190.5840  176.9190  137.7080 C   0  0  0  0  0  3  0  0  0  0  0  0
  189.2910  176.9750  137.1790 C   0  0  0  0  0  0  0  0  0  0  0  0
  188.6640  175.8040  136.7420 C   0  0  0  0  0  3  0  0  0  0  0  0
  188.7240  173.4460  136.3980 F   0  0  0  0  0  0  0  0  0  0  0  0
  190.6250  174.5230  137.3500 C   0  0  0  0  0  3  0  0  0  0  0  0
  189.3310  174.5780  136.8270 C   0  0  0  0  0  0  0  0  0  0  0  0
  191.2510  175.6920  137.7920 C   0  0  0  0  0  3  0  0  0  0  0  0
  3 14  2  0  0  0  0
  3  5  1  0  0  0  0
  4  1  1  1  0  0  0
  4 13  1  0  0  0  0
  4  6  1  0  0  0  0
  5  8  2  0  0  0  0
  6 29  1  6  0  0  0
  6 12  1  0  0  0  0
  8 11  1  0  0  0  0
  9 11  2  0  0  0  0
 10  5  1  0  0  0  0
 10  7  1  1  0  0  0
 10  1  1  0  0  0  0
 12  2  1  0  0  0  0
 13  8  1  1  0  0  0
 13 15  1  0  0  0  0
 14  9  1  0  0  0  0
 15  2  1  0  0  0  0
 15 20  1  1  0  0  0
 16 14  1  0  0  0  0
 17 16  1  0  0  0  0
 18 19  1  0  0  0  0
 19 10  1  0  0  0  0
 20 21  1  1  0  0  0
 20 24  1  0  0  0  0
 22 23  1  0  0  0  0
 23 21  1  0  0  0  0
 24 25  1  0  0  0  0
 25 26  1  0  0  0  0
 26 28  1  0  0  0  0
 28 27  3  0  0  0  0
 30 32  1  0  0  0  0
 30 29  1  0  0  0  0
 31 37  1  0  0  0  0
 32 31  2  0  0  0  0
 33 36  2  0  0  0  0
 33 32  1  0  0  0  0
 34 36  1  0  0  0  0
 35 37  2  0  0  0  0
 36 35  1  0  0  0  0
M  END
>  <MODEL>
8

>  <REMARK>
 VINA RESULT:      -4.0      4.769      8.920
  Name = 
  12 active torsions:
  status: ('A' for Active; 'I' for Inactive)
    1  A    between atoms: C_1  and  C_5
    2  A    between atoms: C_1  and  N_33
    3  A    between atoms: C_1  and  C_36
    4  A    between atoms: C_3  and  C_32
    5  A    between atoms: C_5  and  N_23
    6  A    between atoms: C_6  and  S_31
    7  A    between atoms: C_14  and  C_37
    8  A    between atoms: C_17  and  C_26
    9  A    between atoms: C_17  and  N_33
   10  A    between atoms: C_24  and  C_28
   11  A    between atoms: C_26  and  C_34
   12  A    between atoms: S_31  and  C_37
                            x       y       z     vdW  Elec       q    Type
                         _______ _______ _______ _____ _____    ______ ____

>  <TORSDO>
F 12

$$$$
=
 OpenBabel10272414553D

 37 40  0  0  1  0  0  0  0  0999 V2000
  188.3620  178.0720  137.3360 N   0  0  0  0  0  2  0  0  0  0  0  0
  191.0940  175.8180  138.6110 C   0  0  0  0  0  2  0  0  0  0  0  0
  185.6590  175.9120  135.7970 C   0  0  0  0  0  3  0  0  0  0  0  0
  188.5240  177.2640  138.5430 C   0  0  2  0  0  3  0  0  0  0  0  0
  186.7410  176.3400  136.5850 C   0  0  0  0  0  0  0  0  0  0  0  0
  189.6920  177.7720  139.3930 C   0  0  2  0  0  3  0  0  0  0  0  0
  187.0420  178.4750  135.3460 C   0  0  0  0  0  1  0  0  0  0  0  0
  187.4810  175.3730  137.3070 C   0  0  0  0  0  0  0  0  0  0  0  0
  186.0810  173.6100  136.4070 C   0  0  0  0  0  3  0  0  0  0  0  0
  187.0400  177.8320  136.7280 C   0  0  2  0  0  0  0  0  0  0  0  0
  187.1490  174.0160  137.2080 C   0  0  0  0  0  3  0  0  0  0  0  0
  191.0550  177.3270  138.8510 C   0  0  0  0  0  2  0  0  0  0  0  0
  188.6420  175.7800  138.1670 C   0  0  1  0  0  3  0  0  0  0  0  0
  185.3380  174.5550  135.6980 C   0  0  0  0  0  0  0  0  0  0  0  0
  190.0290  175.3990  137.5890 C   0  0  1  0  0  3  0  0  0  0  0  0
  184.1840  174.1190  134.8630 C   0  0  0  0  0  2  0  0  0  0  0  0
  183.0350  173.6800  135.7490 C   0  0  0  0  0  1  0  0  0  0  0  0
  184.6640  177.6450  137.6330 C   0  0  0  0  0  1  0  0  0  0  0  0
  185.9380  178.4790  137.5830 C   0  0  0  0  0  2  0  0  0  0  0  0
  190.3240  175.9800  136.1810 C   0  0  2  0  0  3  0  0  0  0  0  0
  189.8420  175.0740  135.0490 C   0  0  0  0  0  2  0  0  0  0  0  0
  189.6040  172.8550  134.3780 C   0  0  0  0  0  1  0  0  0  0  0  0
  190.3840  173.7380  135.2260 N   0  0  0  0  0  2  0  0  0  0  0  0
  191.7350  176.3610  135.9990 N   0  0  0  0  0  2  0  0  0  0  0  0
  192.4050  175.4930  135.0270 C   0  0  0  0  0  2  0  0  0  0  0  0
  193.9050  175.4480  135.2780 C   0  0  0  0  0  2  0  0  0  0  0  0
  194.7820  172.9230  135.2660 C   0  0  0  0  0  3  0  0  0  0  0  0
  194.3890  174.0640  135.2690 C   0  0  0  0  0  0  0  0  0  0  0  0
  189.5030  177.3630  140.8480 C   0  0  0  0  0  2  0  0  0  0  0  0
  187.9840  178.1010  141.5390 S   0  0  0  0  0  0  0  0  0  0  0  0
  187.5160  177.6520  144.2340 C   0  0  0  0  0  3  0  0  0  0  0  0
  188.4820  177.8150  143.2360 C   0  0  0  0  0  0  0  0  0  0  0  0
  189.8400  177.7560  143.5640 C   0  0  0  0  0  3  0  0  0  0  0  0
  191.5490  177.4920  145.2030 F   0  0  0  0  0  0  0  0  0  0  0  0
  189.2680  177.3870  145.8860 C   0  0  0  0  0  3  0  0  0  0  0  0
  190.2340  177.5420  144.8880 C   0  0  0  0  0  0  0  0  0  0  0  0
  187.9110  177.4400  145.5590 C   0  0  0  0  0  3  0  0  0  0  0  0
  2 12  1  0  0  0  0
  3  5  1  0  0  0  0
  4  1  1  6  0  0  0
  4  6  1  0  0  0  0
  5 10  1  0  0  0  0
  5  8  2  0  0  0  0
  6 29  1  1  0  0  0
  9 11  2  0  0  0  0
 10  7  1  6  0  0  0
 10  1  1  0  0  0  0
 10 19  1  0  0  0  0
 11  8  1  0  0  0  0
 12  6  1  0  0  0  0
 13  8  1  6  0  0  0
 13  4  1  0  0  0  0
 14  3  2  0  0  0  0
 14  9  1  0  0  0  0
 15 20  1  6  0  0  0
 15 13  1  0  0  0  0
 15  2  1  0  0  0  0
 16 14  1  0  0  0  0
 16 17  1  0  0  0  0
 19 18  1  0  0  0  0
 20 21  1  6  0  0  0
 21 23  1  0  0  0  0
 22 23  1  0  0  0  0
 24 20  1  0  0  0  0
 25 26  1  0  0  0  0
 25 24  1  0  0  0  0
 27 28  3  0  0  0  0
 28 26  1  0  0  0  0
 29 30  1  0  0  0  0
 30 32  1  0  0  0  0
 31 37  1  0  0  0  0
 32 33  1  0  0  0  0
 32 31  2  0  0  0  0
 33 36  2  0  0  0  0
 36 34  1  0  0  0  0
 36 35  1  0  0  0  0
 37 35  2  0  0  0  0
M  END
>  <MODEL>
9

>  <REMARK>
 VINA RESULT:      -4.0      1.638      1.956
  Name = 
  12 active torsions:
  status: ('A' for Active; 'I' for Inactive)
    1  A    between atoms: C_1  and  C_5
    2  A    between atoms: C_1  and  N_33
    3  A    between atoms: C_1  and  C_36
    4  A    between atoms: C_3  and  C_32
    5  A    between atoms: C_5  and  N_23
    6  A    between atoms: C_6  and  S_31
    7  A    between atoms: C_14  and  C_37
    8  A    between atoms: C_17  and  C_26
    9  A    between atoms: C_17  and  N_33
   10  A    between atoms: C_24  and  C_28
   11  A    between atoms: C_26  and  C_34
   12  A    between atoms: S_31  and  C_37
                            x       y       z     vdW  Elec       q    Type
                         _______ _______ _______ _____ _____    ______ ____

>  <TORSDO>
F 12

$$$$
