=
 OpenBabel10272401353D

 55 60  0  0  1  0  0  0  0  0999 V2000
  190.9700  176.9530  142.8990 C   0  0  0  0  0  3  0  0  0  0  0  0
  188.3280  177.3940  143.7070 C   0  0  0  0  0  0  0  0  0  0  0  0
  188.6170  177.1450  142.3620 C   0  0  0  0  0  3  0  0  0  0  0  0
  190.6840  177.2100  144.2440 C   0  0  0  0  0  3  0  0  0  0  0  0
  189.9350  176.9200  141.9590 C   0  0  0  0  0  0  0  0  0  0  0  0
  189.3640  177.4350  144.6470 C   0  0  0  0  0  3  0  0  0  0  0  0
  190.2280  176.6750  140.5770 C   0  0  0  0  0  0  0  0  0  0  0  0
  190.4630  176.4750  139.4110 C   0  0  0  0  0  0  0  0  0  0  0  0
  187.4130  174.9510  136.3630 C   0  0  0  0  0  2  0  0  0  0  0  0
  186.6570  172.9910  135.1430 O   0  0  0  0  0  0  0  0  0  0  0  0
  189.4350  173.8640  136.9410 C   0  0  0  0  0  0  0  0  0  0  0  0
  188.7300  172.9570  136.1790 O   0  0  0  0  0  0  0  0  0  0  0  0
  187.5350  173.5590  135.8410 C   0  0  0  0  0  0  0  0  0  0  0  0
  188.6180  175.0560  137.3070 C   0  0  1  0  0  3  0  0  0  0  0  0
  191.4920  174.8730  137.8840 C   0  0  2  0  0  3  0  0  0  0  0  0
  190.7370  173.7590  137.1960 C   0  0  0  0  0  3  0  0  0  0  0  0
  189.4830  176.3010  137.1000 C   0  0  2  0  0  3  0  0  0  0  0  0
  190.7510  176.2290  137.9920 C   0  0  1  0  0  3  0  0  0  0  0  0
  193.7770  173.9960  137.3940 C   0  0  0  0  0  3  0  0  0  0  0  0
  195.4370  175.3330  136.2280 C   0  0  0  0  0  0  0  0  0  0  0  0
  193.2290  176.2410  136.6680 C   0  0  0  0  0  3  0  0  0  0  0  0
  194.5140  176.3840  136.1350 C   0  0  0  0  0  3  0  0  0  0  0  0
  195.0610  174.1390  136.8600 C   0  0  0  0  0  3  0  0  0  0  0  0
  192.8580  175.0450  137.3000 C   0  0  0  0  0  0  0  0  0  0  0  0
  196.7920  175.4910  135.6720 C   0  0  0  0  0  0  0  0  0  0  0  0
  197.4770  174.3890  135.1730 O   0  0  0  0  0  0  0  0  0  0  0  0
  197.3390  176.6260  135.6370 O   0  0  0  0  0  1  0  0  0  0  0  0
  188.7130  177.6360  137.0950 C   0  0  2  0  0  3  0  0  0  0  0  0
  187.7250  177.7190  138.2510 C   0  0  0  0  0  1  0  0  0  0  0  0
  186.9560  178.5470  135.7220 O   0  0  0  0  0  1  0  0  0  0  0  0
  188.7860  177.7560  134.5980 O   0  0  0  0  0  0  0  0  0  0  0  0
  188.0960  178.0110  135.7760 C   0  0  0  0  0  0  0  0  0  0  0  0
  186.9260  177.6600  144.1300 C   0  0  0  0  0  2  0  0  0  0  0  0
  186.0920  177.6840  143.0100 O   0  0  0  0  0  0  0  0  0  0  0  0
  184.9700  178.9140  144.7070 C   0  0  0  0  0  1  0  0  0  0  0  0
  185.2390  178.7690  143.2200 C   0  0  2  0  0  3  0  0  0  0  0  0
  183.9360  178.5420  142.4740 C   0  0  0  0  0  2  0  0  0  0  0  0
  184.2080  177.8910  141.1230 C   0  0  0  0  0  2  0  0  0  0  0  0
  181.1200  177.4900  138.0240 C   0  0  2  0  0  3  0  0  0  0  0  0
  182.1950  178.9270  139.9750 C   0  0  0  0  0  0  0  0  0  0  0  0
  184.3150  179.9830  139.9750 O   0  0  0  0  0  1  0  0  0  0  0  0
  182.7410  176.1460  139.3400 O   0  0  0  0  0  0  0  0  0  0  0  0
  181.3840  176.2780  138.9330 C   0  0  0  0  0  2  0  0  0  0  0  0
  183.7090  178.7250  139.9320 C   0  0  1  0  0  0  0  0  0  0  0  0
  183.1920  176.5010  136.9220 C   0  0  0  0  0  2  0  0  0  0  0  0
  181.9550  177.3830  136.7370 C   0  0  1  0  0  3  0  0  0  0  0  0
  184.1840  178.0390  138.6420 C   0  0  0  0  0  2  0  0  0  0  0  0
  181.6740  179.2500  141.0320 O   0  0  0  0  0  0  0  0  0  0  0  0
  183.6810  176.6060  138.3700 C   0  0  1  0  0  3  0  0  0  0  0  0
  181.2900  178.8390  138.7640 C   0  0  1  0  0  3  0  0  0  0  0  0
  181.2390  180.0830  137.9230 C   0  0  0  0  0  0  0  0  0  0  0  0
  181.9640  181.1580  138.2330 C   0  0  0  0  0  2  0  0  0  0  0  0
  180.2420  180.1730  136.8210 C   0  0  0  0  0  1  0  0  0  0  0  0
  181.1090  176.9030  135.5640 C   0  0  0  0  0  2  0  0  0  0  0  0
  181.6540  177.3310  134.3490 O   0  0  0  0  0  1  0  0  0  0  0  0
  1  4  1  0  0  0  0
  2 33  1  0  0  0  0
  2  6  1  0  0  0  0
  3  2  2  0  0  0  0
  4  6  2  0  0  0  0
  5  3  1  0  0  0  0
  5  1  2  0  0  0  0
  7  5  1  0  0  0  0
  8  7  3  0  0  0  0
 10 13  2  0  0  0  0
 11 16  2  0  0  0  0
 11 14  1  0  0  0  0
 12 11  1  0  0  0  0
 13 12  1  0  0  0  0
 13  9  1  0  0  0  0
 14  9  1  6  0  0  0
 15 24  1  6  0  0  0
 15 18  1  0  0  0  0
 16 15  1  0  0  0  0
 17 28  1  1  0  0  0
 17 14  1  0  0  0  0
 17 18  1  0  0  0  0
 18  8  1  1  0  0  0
 20 23  1  0  0  0  0
 21 24  2  0  0  0  0
 22 20  2  0  0  0  0
 22 21  1  0  0  0  0
 23 19  2  0  0  0  0
 24 19  1  0  0  0  0
 25 20  1  0  0  0  0
 26 25  2  0  0  0  0
 27 25  1  0  0  0  0
 28 29  1  1  0  0  0
 30 32  1  0  0  0  0
 31 32  2  0  0  0  0
 32 28  1  0  0  0  0
 34 36  1  0  0  0  0
 34 33  1  0  0  0  0
 36 35  1  1  0  0  0
 37 36  1  0  0  0  0
 38 37  1  0  0  0  0
 39 50  1  0  0  0  0
 39 43  1  1  0  0  0
 40 48  2  0  0  0  0
 43 42  1  0  0  0  0
 44 40  1  0  0  0  0
 44 41  1  1  0  0  0
 44 38  1  0  0  0  0
 46 54  1  6  0  0  0
 46 45  1  0  0  0  0
 46 39  1  0  0  0  0
 47 44  1  0  0  0  0
 49 45  1  6  0  0  0
 49 47  1  0  0  0  0
 49 42  1  0  0  0  0
 50 51  1  6  0  0  0
 50 40  1  0  0  0  0
 51 52  2  0  0  0  0
 53 51  1  0  0  0  0
 55 54  1  0  0  0  0
M  END
>  <MODEL>
1

>  <REMARK>
 VINA RESULT:      -7.9      0.000      0.000
  Name = 
  14 active torsions:
  status: ('A' for Active; 'I' for Inactive)
    1  A    between atoms: C_1  and  C_53
    2  A    between atoms: C_2  and  C_44
    3  A    between atoms: C_8  and  C_22
    4  A    between atoms: C_8  and  C_43
    5  A    between atoms: C_10  and  C_32
    6  A    between atoms: C_11  and  C_38
    7  A    between atoms: C_19  and  C_40
    8  A    between atoms: C_19  and  C_45
    9  A    between atoms: C_20  and  C_22
   10  A    between atoms: C_27  and  C_54
   11  A    between atoms: C_28  and  C_49
   12  A    between atoms: C_33  and  C_52
   13  A    between atoms: C_43  and  O_51
   14  A    between atoms: O_51  and  C_54
                            x       y       z     vdW  Elec       q    Type
                         _______ _______ _______ _____ _____    ______ ____

>  <TORSDO>
F 14

$$$$
=
 OpenBabel10272401353D

 55 60  0  0  1  0  0  0  0  0999 V2000
  181.1940  177.1270  139.6080 C   0  0  0  0  0  3  0  0  0  0  0  0
  182.7300  178.4920  141.5050 C   0  0  0  0  0  0  0  0  0  0  0  0
  183.3570  177.7490  140.5000 C   0  0  0  0  0  3  0  0  0  0  0  0
  180.5650  177.8630  140.6180 C   0  0  0  0  0  3  0  0  0  0  0  0
  182.5890  177.0710  139.5490 C   0  0  0  0  0  0  0  0  0  0  0  0
  181.3330  178.5420  141.5680 C   0  0  0  0  0  3  0  0  0  0  0  0
  183.2350  176.3030  138.5260 C   0  0  0  0  0  0  0  0  0  0  0  0
  183.7840  175.6470  137.6750 C   0  0  0  0  0  0  0  0  0  0  0  0
  181.9550  171.9940  135.6180 C   0  0  0  0  0  2  0  0  0  0  0  0
  181.9510  169.5660  135.5530 O   0  0  0  0  0  0  0  0  0  0  0  0
  183.9620  172.0000  136.8750 C   0  0  0  0  0  0  0  0  0  0  0  0
  183.6720  170.6720  136.6440 O   0  0  0  0  0  0  0  0  0  0  0  0
  182.4930  170.6380  135.9270 C   0  0  0  0  0  0  0  0  0  0  0  0
  182.8470  172.9040  136.4740 C   0  0  1  0  0  3  0  0  0  0  0  0
  185.4680  173.9140  137.3330 C   0  0  2  0  0  3  0  0  0  0  0  0
  185.1560  172.4360  137.2700 C   0  0  0  0  0  3  0  0  0  0  0  0
  183.4500  174.0930  135.7250 C   0  0  2  0  0  3  0  0  0  0  0  0
  184.4510  174.8520  136.6360 C   0  0  1  0  0  3  0  0  0  0  0  0
  187.4850  175.3840  137.2740 C   0  0  0  0  0  3  0  0  0  0  0  0
  189.4830  174.7630  136.0390 C   0  0  0  0  0  0  0  0  0  0  0  0
  187.5570  173.2860  136.0640 C   0  0  0  0  0  3  0  0  0  0  0  0
  188.8600  173.5710  135.6460 C   0  0  0  0  0  3  0  0  0  0  0  0
  188.7880  175.6680  136.8560 C   0  0  0  0  0  3  0  0  0  0  0  0
  186.8650  174.1940  136.8800 C   0  0  0  0  0  0  0  0  0  0  0  0
  190.8530  175.0620  135.5900 C   0  0  0  0  0  0  0  0  0  0  0  0
  191.9300  174.3440  136.0980 O   0  0  0  0  0  1  0  0  0  0  0  0
  191.0620  175.9670  134.7370 O   0  0  0  0  0  0  0  0  0  0  0  0
  182.4380  174.9520  134.9410 C   0  0  2  0  0  3  0  0  0  0  0  0
  183.0940  176.1900  134.3460 C   0  0  0  0  0  1  0  0  0  0  0  0
  181.0080  176.3710  136.2620 O   0  0  0  0  0  1  0  0  0  0  0  0
  180.1450  174.3220  135.7190 O   0  0  0  0  0  0  0  0  0  0  0  0
  181.1640  175.2650  135.6760 C   0  0  0  0  0  0  0  0  0  0  0  0
  183.5490  179.1910  142.5320 C   0  0  0  0  0  2  0  0  0  0  0  0
  184.1920  178.2530  143.3420 O   0  0  0  0  0  0  0  0  0  0  0  0
  182.7040  179.6310  144.5820 C   0  0  0  0  0  1  0  0  0  0  0  0
  183.6620  178.4550  144.6180 C   0  0  2  0  0  3  0  0  0  0  0  0
  184.7890  178.7310  145.5970 C   0  0  0  0  0  2  0  0  0  0  0  0
  186.1390  178.6050  144.9000 C   0  0  0  0  0  2  0  0  0  0  0  0
  190.4210  177.6400  144.7420 C   0  0  2  0  0  3  0  0  0  0  0  0
  188.2930  178.2600  146.1950 C   0  0  0  0  0  0  0  0  0  0  0  0
  186.3790  176.9200  146.5760 O   0  0  0  0  0  1  0  0  0  0  0  0
  188.5460  178.4070  143.3070 O   0  0  0  0  0  0  0  0  0  0  0  0
  189.8800  178.6630  143.7300 C   0  0  0  0  0  2  0  0  0  0  0  0
  187.0770  177.5850  145.5650 C   0  0  1  0  0  0  0  0  0  0  0  0
  189.4050  176.0980  142.9890 C   0  0  0  0  0  2  0  0  0  0  0  0
  190.4200  176.2310  144.1260 C   0  0  1  0  0  3  0  0  0  0  0  0
  187.4560  176.5330  144.5120 C   0  0  0  0  0  2  0  0  0  0  0  0
  188.1260  179.2620  146.8740 O   0  0  0  0  0  0  0  0  0  0  0  0
  188.2120  177.0200  143.2590 C   0  0  1  0  0  3  0  0  0  0  0  0
  189.7060  177.7190  146.1110 C   0  0  1  0  0  3  0  0  0  0  0  0
  190.0280  176.6410  147.1070 C   0  0  0  0  0  0  0  0  0  0  0  0
  189.0670  176.0140  147.7840 C   0  0  0  0  0  2  0  0  0  0  0  0
  191.4520  176.3820  147.4600 C   0  0  0  0  0  1  0  0  0  0  0  0
  191.8150  175.8230  143.6670 C   0  0  0  0  0  2  0  0  0  0  0  0
  192.2410  174.6690  144.3330 O   0  0  0  0  0  1  0  0  0  0  0  0
  1  4  1  0  0  0  0
  2  6  1  0  0  0  0
  2 33  1  0  0  0  0
  3  2  2  0  0  0  0
  4  6  2  0  0  0  0
  5  1  2  0  0  0  0
  5  3  1  0  0  0  0
  7  5  1  0  0  0  0
  8  7  3  0  0  0  0
  9 13  1  0  0  0  0
 10 13  2  0  0  0  0
 11 16  2  0  0  0  0
 12 11  1  0  0  0  0
 13 12  1  0  0  0  0
 14  9  1  6  0  0  0
 14 11  1  0  0  0  0
 15 24  1  6  0  0  0
 16 15  1  0  0  0  0
 17 28  1  1  0  0  0
 17 14  1  0  0  0  0
 17 18  1  0  0  0  0
 18 15  1  0  0  0  0
 18  8  1  1  0  0  0
 20 23  1  0  0  0  0
 21 24  2  0  0  0  0
 22 20  2  0  0  0  0
 22 21  1  0  0  0  0
 23 19  2  0  0  0  0
 24 19  1  0  0  0  0
 25 20  1  0  0  0  0
 25 26  1  0  0  0  0
 27 25  2  0  0  0  0
 28 29  1  1  0  0  0
 28 32  1  0  0  0  0
 32 31  2  0  0  0  0
 32 30  1  0  0  0  0
 33 34  1  0  0  0  0
 34 36  1  0  0  0  0
 36 35  1  6  0  0  0
 36 37  1  0  0  0  0
 38 44  1  0  0  0  0
 38 37  1  0  0  0  0
 39 43  1  6  0  0  0
 39 50  1  0  0  0  0
 40 48  2  0  0  0  0
 42 43  1  0  0  0  0
 44 40  1  0  0  0  0
 44 41  1  1  0  0  0
 45 46  1  0  0  0  0
 46 54  1  6  0  0  0
 46 39  1  0  0  0  0
 47 44  1  0  0  0  0
 49 45  1  1  0  0  0
 49 42  1  0  0  0  0
 49 47  1  0  0  0  0
 50 40  1  0  0  0  0
 50 51  1  6  0  0  0
 51 53  1  0  0  0  0
 51 52  2  0  0  0  0
 54 55  1  0  0  0  0
M  END
>  <MODEL>
2

>  <REMARK>
 VINA RESULT:      -6.1      2.829      8.012
  Name = 
  14 active torsions:
  status: ('A' for Active; 'I' for Inactive)
    1  A    between atoms: C_1  and  C_53
    2  A    between atoms: C_2  and  C_44
    3  A    between atoms: C_8  and  C_22
    4  A    between atoms: C_8  and  C_43
    5  A    between atoms: C_10  and  C_32
    6  A    between atoms: C_11  and  C_38
    7  A    between atoms: C_19  and  C_40
    8  A    between atoms: C_19  and  C_45
    9  A    between atoms: C_20  and  C_22
   10  A    between atoms: C_27  and  C_54
   11  A    between atoms: C_28  and  C_49
   12  A    between atoms: C_33  and  C_52
   13  A    between atoms: C_43  and  O_51
   14  A    between atoms: O_51  and  C_54
                            x       y       z     vdW  Elec       q    Type
                         _______ _______ _______ _____ _____    ______ ____

>  <TORSDO>
F 14

$$$$
=
 OpenBabel10272401353D

 55 60  0  0  1  0  0  0  0  0999 V2000
  190.4850  177.3260  142.6860 C   0  0  0  0  0  3  0  0  0  0  0  0
  187.8380  177.0980  143.5630 C   0  0  0  0  0  0  0  0  0  0  0  0
  188.1570  176.8480  142.2250 C   0  0  0  0  0  3  0  0  0  0  0  0
  190.1670  177.5850  144.0230 C   0  0  0  0  0  3  0  0  0  0  0  0
  189.4790  176.9560  141.7870 C   0  0  0  0  0  0  0  0  0  0  0  0
  188.8440  177.4750  144.4600 C   0  0  0  0  0  3  0  0  0  0  0  0
  189.8000  176.7070  140.4130 C   0  0  0  0  0  0  0  0  0  0  0  0
  190.0840  176.4940  139.2600 C   0  0  0  0  0  0  0  0  0  0  0  0
  187.1630  174.8990  136.1230 C   0  0  0  0  0  2  0  0  0  0  0  0
  186.4740  172.9180  134.8990 O   0  0  0  0  0  0  0  0  0  0  0  0
  189.1760  173.8430  136.7850 C   0  0  0  0  0  0  0  0  0  0  0  0
  188.5090  172.9190  136.0090 O   0  0  0  0  0  0  0  0  0  0  0  0
  187.3200  173.5030  135.6220 C   0  0  0  0  0  0  0  0  0  0  0  0
  188.3320  175.0300  137.1080 C   0  0  1  0  0  3  0  0  0  0  0  0
  191.1860  174.8870  137.7890 C   0  0  2  0  0  3  0  0  0  0  0  0
  190.4690  173.7560  137.0880 C   0  0  0  0  0  3  0  0  0  0  0  0
  189.1890  176.2820  136.9180 C   0  0  2  0  0  3  0  0  0  0  0  0
  190.4260  176.2350  137.8550 C   0  0  1  0  0  3  0  0  0  0  0  0
  193.5970  174.2450  137.7210 C   0  0  0  0  0  3  0  0  0  0  0  0
  195.1840  175.3870  136.2790 C   0  0  0  0  0  0  0  0  0  0  0  0
  192.8500  176.0540  136.2940 C   0  0  0  0  0  3  0  0  0  0  0  0
  194.1520  176.2120  135.8110 C   0  0  0  0  0  3  0  0  0  0  0  0
  194.8990  174.4030  137.2370 C   0  0  0  0  0  3  0  0  0  0  0  0
  192.5690  175.0690  137.2520 C   0  0  0  0  0  0  0  0  0  0  0  0
  196.5560  175.5630  135.7730 C   0  0  0  0  0  0  0  0  0  0  0  0
  197.1210  174.6080  134.9350 O   0  0  0  0  0  0  0  0  0  0  0  0
  197.2270  176.5820  136.0880 O   0  0  0  0  0  1  0  0  0  0  0  0
  188.4050  177.6080  136.8700 C   0  0  2  0  0  3  0  0  0  0  0  0
  189.3360  178.8060  136.7390 C   0  0  0  0  0  1  0  0  0  0  0  0
  186.2150  177.3240  137.8330 O   0  0  0  0  0  0  0  0  0  0  0  0
  187.7240  178.4680  139.1190 O   0  0  0  0  0  1  0  0  0  0  0  0
  187.3820  177.7830  137.9590 C   0  0  0  0  0  0  0  0  0  0  0  0
  186.4250  177.0080  144.0200 C   0  0  0  0  0  2  0  0  0  0  0  0
  186.0020  178.2510  144.4940 O   0  0  0  0  0  0  0  0  0  0  0  0
  184.8090  180.1930  143.8180 C   0  0  0  0  0  1  0  0  0  0  0  0
  185.4600  178.8950  143.3800 C   0  0  2  0  0  3  0  0  0  0  0  0
  184.4310  177.9910  142.7230 C   0  0  0  0  0  2  0  0  0  0  0  0
  184.2900  178.3380  141.2450 C   0  0  0  0  0  2  0  0  0  0  0  0
  182.4010  178.4060  137.2800 C   0  0  2  0  0  3  0  0  0  0  0  0
  183.0810  177.0280  139.4400 C   0  0  0  0  0  0  0  0  0  0  0  0
  182.1930  177.2590  141.6230 O   0  0  0  0  0  1  0  0  0  0  0  0
  183.9760  179.6910  138.7070 O   0  0  0  0  0  0  0  0  0  0  0  0
  183.7690  179.0900  137.4330 C   0  0  0  0  0  2  0  0  0  0  0  0
  182.9270  177.9440  140.6530 C   0  0  1  0  0  0  0  0  0  0  0  0
  181.7150  180.6360  138.2970 C   0  0  0  0  0  2  0  0  0  0  0  0
  181.2690  179.4290  137.4700 C   0  0  1  0  0  3  0  0  0  0  0  0
  182.1600  179.2350  140.3330 C   0  0  0  0  0  2  0  0  0  0  0  0
  183.8580  176.0870  139.5060 O   0  0  0  0  0  0  0  0  0  0  0  0
  182.7830  180.2000  139.3040 C   0  0  1  0  0  3  0  0  0  0  0  0
  182.2600  177.1500  138.1720 C   0  0  1  0  0  3  0  0  0  0  0  0
  180.8990  176.5160  138.2390 C   0  0  0  0  0  0  0  0  0  0  0  0
  180.4430  175.7500  137.2490 C   0  0  0  0  0  2  0  0  0  0  0  0
  179.9840  176.8790  139.3560 C   0  0  0  0  0  1  0  0  0  0  0  0
  180.6830  179.8650  136.1330 C   0  0  0  0  0  2  0  0  0  0  0  0
  180.4590  181.2450  136.1140 O   0  0  0  0  0  1  0  0  0  0  0  0
  1  4  1  0  0  0  0
  2 33  1  0  0  0  0
  2  6  1  0  0  0  0
  3  2  2  0  0  0  0
  4  6  2  0  0  0  0
  5  3  1  0  0  0  0
  5  1  2  0  0  0  0
  7  5  1  0  0  0  0
  8  7  3  0  0  0  0
 10 13  2  0  0  0  0
 11 16  2  0  0  0  0
 11 14  1  0  0  0  0
 12 11  1  0  0  0  0
 13 12  1  0  0  0  0
 13  9  1  0  0  0  0
 14  9  1  6  0  0  0
 15 24  1  6  0  0  0
 15 18  1  0  0  0  0
 16 15  1  0  0  0  0
 17 28  1  1  0  0  0
 17 14  1  0  0  0  0
 17 18  1  0  0  0  0
 18  8  1  1  0  0  0
 20 23  1  0  0  0  0
 21 24  2  0  0  0  0
 22 20  2  0  0  0  0
 22 21  1  0  0  0  0
 23 19  2  0  0  0  0
 24 19  1  0  0  0  0
 25 27  1  0  0  0  0
 25 20  1  0  0  0  0
 26 25  2  0  0  0  0
 28 29  1  1  0  0  0
 28 32  1  0  0  0  0
 30 32  2  0  0  0  0
 32 31  1  0  0  0  0
 33 34  1  0  0  0  0
 36 35  1  1  0  0  0
 36 34  1  0  0  0  0
 37 36  1  0  0  0  0
 38 37  1  0  0  0  0
 39 43  1  1  0  0  0
 39 46  1  0  0  0  0
 39 50  1  0  0  0  0
 40 48  2  0  0  0  0
 40 44  1  0  0  0  0
 42 49  1  0  0  0  0
 43 42  1  0  0  0  0
 44 38  1  0  0  0  0
 44 41  1  1  0  0  0
 46 54  1  6  0  0  0
 46 45  1  0  0  0  0
 47 44  1  0  0  0  0
 49 45  1  6  0  0  0
 49 47  1  0  0  0  0
 50 51  1  1  0  0  0
 50 40  1  0  0  0  0
 51 53  1  0  0  0  0
 52 51  2  0  0  0  0
 55 54  1  0  0  0  0
M  END
>  <MODEL>
3

>  <REMARK>
 VINA RESULT:      -5.5      1.246      2.211
  Name = 
  14 active torsions:
  status: ('A' for Active; 'I' for Inactive)
    1  A    between atoms: C_1  and  C_53
    2  A    between atoms: C_2  and  C_44
    3  A    between atoms: C_8  and  C_22
    4  A    between atoms: C_8  and  C_43
    5  A    between atoms: C_10  and  C_32
    6  A    between atoms: C_11  and  C_38
    7  A    between atoms: C_19  and  C_40
    8  A    between atoms: C_19  and  C_45
    9  A    between atoms: C_20  and  C_22
   10  A    between atoms: C_27  and  C_54
   11  A    between atoms: C_28  and  C_49
   12  A    between atoms: C_33  and  C_52
   13  A    between atoms: C_43  and  O_51
   14  A    between atoms: O_51  and  C_54
                            x       y       z     vdW  Elec       q    Type
                         _______ _______ _______ _____ _____    ______ ____

>  <TORSDO>
F 14

$$$$
=
 OpenBabel10272401353D

 55 60  0  0  1  0  0  0  0  0999 V2000
  187.1080  172.0990  136.1010 C   0  0  0  0  0  3  0  0  0  0  0  0
  184.4310  172.3060  136.8860 C   0  0  0  0  0  0  0  0  0  0  0  0
  185.3260  173.3420  137.1700 C   0  0  0  0  0  3  0  0  0  0  0  0
  186.2160  171.0580  135.8240 C   0  0  0  0  0  3  0  0  0  0  0  0
  186.6620  173.2400  136.7730 C   0  0  0  0  0  0  0  0  0  0  0  0
  184.8790  171.1600  136.2200 C   0  0  0  0  0  3  0  0  0  0  0  0
  187.5790  174.3010  137.0740 C   0  0  0  0  0  0  0  0  0  0  0  0
  188.3500  175.1880  137.3410 C   0  0  0  0  0  0  0  0  0  0  0  0
  191.8230  176.5010  134.6690 C   0  0  0  0  0  2  0  0  0  0  0  0
  194.2260  176.3560  134.3490 O   0  0  0  0  0  0  0  0  0  0  0  0
  192.0260  175.6940  136.8860 C   0  0  0  0  0  0  0  0  0  0  0  0
  193.3110  175.7450  136.3890 O   0  0  0  0  0  0  0  0  0  0  0  0
  193.2210  176.1960  135.0880 C   0  0  0  0  0  0  0  0  0  0  0  0
  190.9990  175.9300  135.8310 C   0  0  1  0  0  3  0  0  0  0  0  0
  190.3190  175.7240  138.6810 C   0  0  2  0  0  3  0  0  0  0  0  0
  191.7400  175.5940  138.1820 C   0  0  0  0  0  3  0  0  0  0  0  0
  189.9500  176.8870  136.4000 C   0  0  2  0  0  3  0  0  0  0  0  0
  189.2880  176.2720  137.6620 C   0  0  1  0  0  3  0  0  0  0  0  0
  191.3720  176.4600  140.8210 C   0  0  0  0  0  3  0  0  0  0  0  0
  190.1930  177.8730  142.4070 C   0  0  0  0  0  0  0  0  0  0  0  0
  189.1160  177.1980  140.3390 C   0  0  0  0  0  3  0  0  0  0  0  0
  189.0820  177.8910  141.5520 C   0  0  0  0  0  3  0  0  0  0  0  0
  191.3380  177.1540  142.0340 C   0  0  0  0  0  3  0  0  0  0  0  0
  190.2630  176.4790  139.9700 C   0  0  0  0  0  0  0  0  0  0  0  0
  190.1500  178.5990  143.6880 C   0  0  0  0  0  0  0  0  0  0  0  0
  190.5720  179.9220  143.7580 O   0  0  0  0  0  0  0  0  0  0  0  0
  189.7240  178.0310  144.7290 O   0  0  0  0  0  1  0  0  0  0  0  0
  189.0050  177.5140  135.3570 C   0  0  2  0  0  3  0  0  0  0  0  0
  189.7670  178.3620  134.3480 C   0  0  0  0  0  1  0  0  0  0  0  0
  186.6370  177.8460  135.6500 O   0  0  0  0  0  0  0  0  0  0  0  0
  187.9910  179.3170  136.7640 O   0  0  0  0  0  1  0  0  0  0  0  0
  187.8070  178.2230  135.9270 C   0  0  0  0  0  0  0  0  0  0  0  0
  183.0150  172.4040  137.3320 C   0  0  0  0  0  2  0  0  0  0  0  0
  182.1630  172.0680  136.2780 O   0  0  0  0  0  0  0  0  0  0  0  0
  182.4040  173.9720  134.8770 C   0  0  0  0  0  1  0  0  0  0  0  0
  181.5490  173.2670  135.9140 C   0  0  2  0  0  3  0  0  0  0  0  0
  181.3880  174.1470  137.1420 C   0  0  0  0  0  2  0  0  0  0  0  0
  182.2930  175.3690  137.0390 C   0  0  0  0  0  2  0  0  0  0  0  0
  182.2210  178.7160  139.8820 C   0  0  2  0  0  3  0  0  0  0  0  0
  182.4930  177.8750  137.3830 C   0  0  0  0  0  0  0  0  0  0  0  0
  180.8170  176.9340  136.0000 O   0  0  0  0  0  1  0  0  0  0  0  0
  182.4820  176.2490  139.7890 O   0  0  0  0  0  0  0  0  0  0  0  0
  183.0370  177.4710  140.2640 C   0  0  0  0  0  2  0  0  0  0  0  0
  181.5380  176.7020  137.1740 C   0  0  1  0  0  0  0  0  0  0  0  0
  180.3820  177.1780  140.7380 C   0  0  0  0  0  2  0  0  0  0  0  0
  180.8020  178.6240  140.4670 C   0  0  1  0  0  3  0  0  0  0  0  0
  180.5150  176.5530  138.3100 C   0  0  0  0  0  2  0  0  0  0  0  0
  183.4850  177.9620  136.6750 O   0  0  0  0  0  0  0  0  0  0  0  0
  181.0560  176.2510  139.7220 C   0  0  1  0  0  3  0  0  0  0  0  0
  182.2490  179.0050  138.3630 C   0  0  1  0  0  3  0  0  0  0  0  0
  181.3350  180.0880  137.8620 C   0  0  0  0  0  0  0  0  0  0  0  0
  180.6920  179.9680  136.7010 C   0  0  0  0  0  2  0  0  0  0  0  0
  181.2720  181.3810  138.5970 C   0  0  0  0  0  1  0  0  0  0  0  0
  180.6590  179.4820  141.7180 C   0  0  0  0  0  2  0  0  0  0  0  0
  181.2300  178.8470  142.8250 O   0  0  0  0  0  1  0  0  0  0  0  0
  1  5  1  0  0  0  0
  2  3  1  0  0  0  0
  2 33  1  0  0  0  0
  4  1  2  0  0  0  0
  4  6  1  0  0  0  0
  5  7  1  0  0  0  0
  5  3  2  0  0  0  0
  6  2  2  0  0  0  0
  7  8  3  0  0  0  0
  9 13  1  0  0  0  0
 10 13  2  0  0  0  0
 11 16  2  0  0  0  0
 12 11  1  0  0  0  0
 13 12  1  0  0  0  0
 14  9  1  6  0  0  0
 14 17  1  0  0  0  0
 14 11  1  0  0  0  0
 15 24  1  1  0  0  0
 16 15  1  0  0  0  0
 17 28  1  6  0  0  0
 17 18  1  0  0  0  0
 18  8  1  6  0  0  0
 18 15  1  0  0  0  0
 19 23  1  0  0  0  0
 20 25  1  0  0  0  0
 21 22  2  0  0  0  0
 22 20  1  0  0  0  0
 23 20  2  0  0  0  0
 24 21  1  0  0  0  0
 24 19  2  0  0  0  0
 25 26  2  0  0  0  0
 25 27  1  0  0  0  0
 28 29  1  1  0  0  0
 28 32  1  0  0  0  0
 30 32  2  0  0  0  0
 32 31  1  0  0  0  0
 34 33  1  0  0  0  0
 36 35  1  6  0  0  0
 36 34  1  0  0  0  0
 36 37  1  0  0  0  0
 38 37  1  0  0  0  0
 38 44  1  0  0  0  0
 39 43  1  6  0  0  0
 39 46  1  0  0  0  0
 40 50  1  0  0  0  0
 42 43  1  0  0  0  0
 44 41  1  6  0  0  0
 44 40  1  0  0  0  0
 44 47  1  0  0  0  0
 46 45  1  0  0  0  0
 46 54  1  1  0  0  0
 48 40  2  0  0  0  0
 49 47  1  6  0  0  0
 49 42  1  0  0  0  0
 49 45  1  0  0  0  0
 50 51  1  6  0  0  0
 50 39  1  0  0  0  0
 51 53  1  0  0  0  0
 52 51  2  0  0  0  0
 54 55  1  0  0  0  0
M  END
>  <MODEL>
4

>  <REMARK>
 VINA RESULT:      -5.0      2.270      6.384
  Name = 
  14 active torsions:
  status: ('A' for Active; 'I' for Inactive)
    1  A    between atoms: C_1  and  C_53
    2  A    between atoms: C_2  and  C_44
    3  A    between atoms: C_8  and  C_22
    4  A    between atoms: C_8  and  C_43
    5  A    between atoms: C_10  and  C_32
    6  A    between atoms: C_11  and  C_38
    7  A    between atoms: C_19  and  C_40
    8  A    between atoms: C_19  and  C_45
    9  A    between atoms: C_20  and  C_22
   10  A    between atoms: C_27  and  C_54
   11  A    between atoms: C_28  and  C_49
   12  A    between atoms: C_33  and  C_52
   13  A    between atoms: C_43  and  O_51
   14  A    between atoms: O_51  and  C_54
                            x       y       z     vdW  Elec       q    Type
                         _______ _______ _______ _____ _____    ______ ____

>  <TORSDO>
F 14

$$$$
=
 OpenBabel10272401353D

 55 60  0  0  1  0  0  0  0  0999 V2000
  183.0010  179.2280  138.4670 C   0  0  0  0  0  3  0  0  0  0  0  0
  182.8230  178.5820  141.1830 C   0  0  0  0  0  0  0  0  0  0  0  0
  183.7060  177.8840  140.3530 C   0  0  0  0  0  3  0  0  0  0  0  0
  182.1100  179.9200  139.2930 C   0  0  0  0  0  3  0  0  0  0  0  0
  183.7990  178.2100  138.9980 C   0  0  0  0  0  0  0  0  0  0  0  0
  182.0180  179.5950  140.6490 C   0  0  0  0  0  3  0  0  0  0  0  0
  184.7000  177.4870  138.1490 C   0  0  0  0  0  0  0  0  0  0  0  0
  185.4560  176.8670  137.4440 C   0  0  0  0  0  0  0  0  0  0  0  0
  184.2150  173.4810  134.6300 C   0  0  0  0  0  2  0  0  0  0  0  0
  184.1570  171.0690  134.3570 O   0  0  0  0  0  0  0  0  0  0  0  0
  185.7550  173.2850  136.4180 C   0  0  0  0  0  0  0  0  0  0  0  0
  185.5070  171.9960  135.9980 O   0  0  0  0  0  0  0  0  0  0  0  0
  184.5950  172.0790  134.9640 C   0  0  0  0  0  0  0  0  0  0  0  0
  184.8380  174.2760  135.7860 C   0  0  1  0  0  3  0  0  0  0  0  0
  187.1130  175.0740  137.4640 C   0  0  2  0  0  3  0  0  0  0  0  0
  186.7900  173.6240  137.1840 C   0  0  0  0  0  3  0  0  0  0  0  0
  185.6730  175.4820  135.3540 C   0  0  2  0  0  3  0  0  0  0  0  0
  186.3790  176.1160  136.5830 C   0  0  1  0  0  3  0  0  0  0  0  0
  189.0830  176.5350  137.9280 C   0  0  0  0  0  3  0  0  0  0  0  0
  191.3550  175.7970  137.4820 C   0  0  0  0  0  0  0  0  0  0  0  0
  189.4810  174.3260  137.0170 C   0  0  0  0  0  3  0  0  0  0  0  0
  190.8570  174.5700  137.0230 C   0  0  0  0  0  3  0  0  0  0  0  0
  190.4600  176.7780  137.9350 C   0  0  0  0  0  3  0  0  0  0  0  0
  188.5890  175.3100  137.4690 C   0  0  0  0  0  0  0  0  0  0  0  0
  192.8050  176.0520  137.4800 C   0  0  0  0  0  0  0  0  0  0  0  0
  193.6500  175.2840  136.6860 O   0  0  0  0  0  0  0  0  0  0  0  0
  193.2930  176.9710  138.1910 O   0  0  0  0  0  1  0  0  0  0  0  0
  184.9670  176.4500  134.3840 C   0  0  2  0  0  3  0  0  0  0  0  0
  185.6560  177.8070  134.3460 C   0  0  0  0  0  1  0  0  0  0  0  0
  182.7490  175.5310  134.5810 O   0  0  0  0  0  0  0  0  0  0  0  0
  182.8930  177.8120  134.7060 O   0  0  0  0  0  1  0  0  0  0  0  0
  183.4770  176.5590  134.5640 C   0  0  0  0  0  0  0  0  0  0  0  0
  182.7060  178.2150  142.6200 C   0  0  0  0  0  2  0  0  0  0  0  0
  183.9780  178.1330  143.1910 O   0  0  0  0  0  0  0  0  0  0  0  0
  182.4820  179.0750  144.7800 C   0  0  0  0  0  1  0  0  0  0  0  0
  183.7680  178.3010  144.5610 C   0  0  2  0  0  3  0  0  0  0  0  0
  184.9400  179.0550  145.1650 C   0  0  0  0  0  2  0  0  0  0  0  0
  186.2320  178.6900  144.4440 C   0  0  0  0  0  2  0  0  0  0  0  0
  190.4780  177.6100  144.7570 C   0  0  2  0  0  3  0  0  0  0  0  0
  188.2080  178.2410  145.9710 C   0  0  0  0  0  0  0  0  0  0  0  0
  186.2300  176.9420  146.0720 O   0  0  0  0  0  1  0  0  0  0  0  0
  188.8070  178.4790  143.1400 O   0  0  0  0  0  0  0  0  0  0  0  0
  190.0870  178.6830  143.7280 C   0  0  0  0  0  2  0  0  0  0  0  0
  187.0600  177.6210  145.1770 C   0  0  1  0  0  0  0  0  0  0  0  0
  189.6420  176.1590  142.8400 C   0  0  0  0  0  2  0  0  0  0  0  0
  190.5180  176.2240  144.0940 C   0  0  1  0  0  3  0  0  0  0  0  0
  187.5360  176.5970  144.1370 C   0  0  0  0  0  2  0  0  0  0  0  0
  187.9840  179.2230  146.6620 O   0  0  0  0  0  0  0  0  0  0  0  0
  188.4490  177.1050  143.0010 C   0  0  1  0  0  3  0  0  0  0  0  0
  189.6070  177.6630  146.0350 C   0  0  1  0  0  3  0  0  0  0  0  0
  189.7820  176.5430  147.0210 C   0  0  0  0  0  0  0  0  0  0  0  0
  188.8430  176.2630  147.9250 C   0  0  0  0  0  2  0  0  0  0  0  0
  191.0930  175.8400  147.0940 C   0  0  0  0  0  1  0  0  0  0  0  0
  191.9470  175.7930  143.7890 C   0  0  0  0  0  2  0  0  0  0  0  0
  192.4020  176.3810  142.6050 O   0  0  0  0  0  1  0  0  0  0  0  0
  1  5  2  0  0  0  0
  1  4  1  0  0  0  0
  2 33  1  0  0  0  0
  3  2  2  0  0  0  0
  4  6  2  0  0  0  0
  5  3  1  0  0  0  0
  6  2  1  0  0  0  0
  7  5  1  0  0  0  0
  8  7  3  0  0  0  0
  9 13  1  0  0  0  0
 10 13  2  0  0  0  0
 11 16  2  0  0  0  0
 12 11  1  0  0  0  0
 13 12  1  0  0  0  0
 14  9  1  6  0  0  0
 14 11  1  0  0  0  0
 15 24  1  6  0  0  0
 16 15  1  0  0  0  0
 17 28  1  1  0  0  0
 17 14  1  0  0  0  0
 17 18  1  0  0  0  0
 18  8  1  1  0  0  0
 18 15  1  0  0  0  0
 19 23  1  0  0  0  0
 20 23  2  0  0  0  0
 21 22  2  0  0  0  0
 21 24  1  0  0  0  0
 22 20  1  0  0  0  0
 24 19  2  0  0  0  0
 25 20  1  0  0  0  0
 25 27  1  0  0  0  0
 26 25  2  0  0  0  0
 28 29  1  1  0  0  0
 28 32  1  0  0  0  0
 32 30  2  0  0  0  0
 32 31  1  0  0  0  0
 33 34  1  0  0  0  0
 34 36  1  0  0  0  0
 36 35  1  6  0  0  0
 36 37  1  0  0  0  0
 38 37  1  0  0  0  0
 38 44  1  0  0  0  0
 39 43  1  6  0  0  0
 39 50  1  0  0  0  0
 40 50  1  0  0  0  0
 40 48  2  0  0  0  0
 42 43  1  0  0  0  0
 44 40  1  0  0  0  0
 44 41  1  1  0  0  0
 45 46  1  0  0  0  0
 46 54  1  6  0  0  0
 46 39  1  0  0  0  0
 47 44  1  0  0  0  0
 49 45  1  1  0  0  0
 49 42  1  0  0  0  0
 49 47  1  0  0  0  0
 50 51  1  6  0  0  0
 51 53  1  0  0  0  0
 51 52  2  0  0  0  0
 55 54  1  0  0  0  0
M  END
>  <MODEL>
5

>  <REMARK>
 VINA RESULT:      -4.9      2.331      7.231
  Name = 
  14 active torsions:
  status: ('A' for Active; 'I' for Inactive)
    1  A    between atoms: C_1  and  C_53
    2  A    between atoms: C_2  and  C_44
    3  A    between atoms: C_8  and  C_22
    4  A    between atoms: C_8  and  C_43
    5  A    between atoms: C_10  and  C_32
    6  A    between atoms: C_11  and  C_38
    7  A    between atoms: C_19  and  C_40
    8  A    between atoms: C_19  and  C_45
    9  A    between atoms: C_20  and  C_22
   10  A    between atoms: C_27  and  C_54
   11  A    between atoms: C_28  and  C_49
   12  A    between atoms: C_33  and  C_52
   13  A    between atoms: C_43  and  O_51
   14  A    between atoms: O_51  and  C_54
                            x       y       z     vdW  Elec       q    Type
                         _______ _______ _______ _____ _____    ______ ____

>  <TORSDO>
F 14

$$$$
