=
 OpenBabel10272413573D

 30 36  0  0  1  0  0  0  0  0999 V2000
  186.3410  178.5320  142.2080 C   0  0  0  0  0  0  0  0  0  0  0  0
  183.1410  178.7550  144.0370 C   0  0  0  0  0  3  0  0  0  0  0  0
  187.3700  177.4460  147.2900 C   0  0  0  0  0  2  0  0  0  0  0  0
  187.7500  178.4890  142.3810 N   0  0  0  0  0  0  0  0  0  0  0  0
  185.8870  178.4680  140.8670 C   0  0  0  0  0  0  0  0  0  0  0  0
  186.3180  178.3360  138.4980 N   0  0  0  0  0  0  0  0  0  0  0  0
  189.8270  178.4590  142.1840 C   0  0  1  0  0  3  0  0  0  0  0  0
  186.8080  178.4010  139.7650 C   0  0  0  0  0  0  0  0  0  0  0  0
  184.5040  178.4730  140.6040 C   0  0  0  0  0  0  0  0  0  0  0  0
  189.0400  177.0410  145.3970 C   0  0  1  0  0  3  0  0  0  0  0  0
  187.6080  176.8670  145.9020 C   0  0  0  0  0  2  0  0  0  0  0  0
  183.5900  178.5560  141.6620 C   0  0  0  0  0  3  0  0  0  0  0  0
  188.2940  178.4040  139.9760 C   0  0  0  0  0  3  0  0  0  0  0  0
  183.6110  178.8770  145.3460 C   0  0  0  0  0  3  0  0  0  0  0  0
  189.0310  177.0490  143.8670 C   0  0  1  0  0  3  0  0  0  0  0  0
  189.9980  175.1100  143.0020 C   0  0  0  0  0  1  0  0  0  0  0  0
  184.0540  178.4020  139.2860 C   0  0  0  0  0  3  0  0  0  0  0  0
  184.0480  178.6500  142.9830 C   0  0  0  0  0  0  0  0  0  0  0  0
  186.9720  178.9120  147.1870 C   0  0  0  0  0  2  0  0  0  0  0  0
  185.4640  179.0720  147.0030 C   0  0  0  0  0  2  0  0  0  0  0  0
  184.9820  178.3330  138.2420 C   0  0  0  0  0  3  0  0  0  0  0  0
  185.4320  178.6550  143.2640 C   0  0  0  0  0  0  0  0  0  0  0  0
  188.6560  178.4490  141.2460 C   0  0  0  0  0  0  0  0  0  0  0  0
  189.6550  178.1900  145.9080 O   0  0  0  0  0  1  0  0  0  0  0  0
  188.8870  178.4380  143.2750 C   0  0  2  0  0  3  0  0  0  0  0  0
  190.2670  176.4980  143.3430 N   0  0  0  0  0  0  0  0  0  0  0  0
  191.9440  177.4710  142.1040 C   0  0  0  0  0  1  0  0  0  0  0  0
  184.9870  178.8950  145.5910 C   0  0  0  0  0  0  0  0  0  0  0  0
  185.8600  178.7950  144.5480 N   0  0  0  0  0  0  0  0  0  0  0  0
  190.5220  177.1740  142.1330 N   0  0  0  0  0  0  0  0  0  0  0  0
  1  4  1  0  0  0  0
  1 22  1  0  0  0  0
  2 14  1  0  0  0  0
  5  1  2  0  0  0  0
  6  8  2  0  0  0  0
  7 23  1  6  0  0  0
  7 25  1  0  0  0  0
  8 13  1  0  0  0  0
  8  5  1  0  0  0  0
  9  5  1  0  0  0  0
  9 12  2  0  0  0  0
 10 11  1  0  0  0  0
 10 24  1  1  0  0  0
 11  3  1  0  0  0  0
 12 18  1  0  0  0  0
 13 23  2  0  0  0  0
 14 28  2  0  0  0  0
 15 26  1  6  0  0  0
 15 10  1  0  0  0  0
 16 26  1  0  0  0  0
 17  9  1  0  0  0  0
 18 22  1  0  0  0  0
 18  2  2  0  0  0  0
 19  3  1  0  0  0  0
 20 19  1  0  0  0  0
 21  6  1  0  0  0  0
 21 17  2  0  0  0  0
 22 29  2  0  0  0  0
 23  4  1  0  0  0  0
 25  4  1  6  0  0  0
 25 15  1  0  0  0  0
 27 30  1  0  0  0  0
 28 20  1  0  0  0  0
 29 28  1  0  0  0  0
 30  7  1  0  0  0  0
 30 26  1  0  0  0  0
M  END
>  <MODEL>
1

>  <REMARK>
 VINA RESULT:      -9.5      0.000      0.000
  Name = 
  0 active torsions:
  status: ('A' for Active; 'I' for Inactive)
                            x       y       z     vdW  Elec       q    Type
                         _______ _______ _______ _____ _____    ______ ____

>  <TORSDO>
F 0

$$$$
=
 OpenBabel10272413573D

 30 36  0  0  1  0  0  0  0  0999 V2000
  186.5640  177.8230  142.6280 C   0  0  0  0  0  0  0  0  0  0  0  0
  184.2690  179.3440  140.1660 C   0  0  0  0  0  3  0  0  0  0  0  0
  189.2120  178.2080  138.0570 C   0  0  0  0  0  2  0  0  0  0  0  0
  187.7850  177.1100  142.7570 N   0  0  0  0  0  0  0  0  0  0  0  0
  185.8960  178.1170  143.8430 C   0  0  0  0  0  0  0  0  0  0  0  0
  185.7390  177.9920  146.2470 N   0  0  0  0  0  0  0  0  0  0  0  0
  189.4570  176.0280  143.3790 C   0  0  1  0  0  3  0  0  0  0  0  0
  186.4170  177.6790  145.1100 C   0  0  0  0  0  0  0  0  0  0  0  0
  184.6940  178.8480  143.8130 C   0  0  0  0  0  0  0  0  0  0  0  0
  190.3300  177.6560  140.2890 C   0  0  1  0  0  3  0  0  0  0  0  0
  189.3670  178.5660  139.5270 C   0  0  0  0  0  2  0  0  0  0  0  0
  184.1600  179.2660  142.5880 C   0  0  0  0  0  3  0  0  0  0  0  0
  187.6880  176.8860  145.2110 C   0  0  0  0  0  3  0  0  0  0  0  0
  184.9120  178.9940  138.9780 C   0  0  0  0  0  3  0  0  0  0  0  0
  189.9430  177.6500  141.7690 C   0  0  1  0  0  3  0  0  0  0  0  0
  191.5250  178.7740  143.0630 C   0  0  0  0  0  1  0  0  0  0  0  0
  184.0380  179.1450  145.0080 C   0  0  0  0  0  3  0  0  0  0  0  0
  184.8100  178.9470  141.3890 C   0  0  0  0  0  0  0  0  0  0  0  0
  188.1040  177.1780  137.8800 C   0  0  0  0  0  2  0  0  0  0  0  0
  186.7390  177.8450  137.7270 C   0  0  0  0  0  2  0  0  0  0  0  0
  184.5800  178.7060  146.2210 C   0  0  0  0  0  3  0  0  0  0  0  0
  186.0120  178.2060  141.4010 C   0  0  0  0  0  0  0  0  0  0  0  0
  188.2720  176.6580  144.0480 C   0  0  0  0  0  0  0  0  0  0  0  0
  190.3670  176.3570  139.7680 O   0  0  0  0  0  1  0  0  0  0  0  0
  188.9630  176.5500  142.1300 C   0  0  2  0  0  3  0  0  0  0  0  0
  191.1140  177.4560  142.6050 N   0  0  0  0  0  0  0  0  0  0  0  0
  191.6860  175.7370  144.0230 C   0  0  0  0  0  1  0  0  0  0  0  0
  186.0930  178.2460  139.0210 C   0  0  0  0  0  0  0  0  0  0  0  0
  186.6060  177.8630  140.2250 N   0  0  0  0  0  0  0  0  0  0  0  0
  190.6790  176.7460  143.7410 N   0  0  0  0  0  0  0  0  0  0  0  0
  1  4  1  0  0  0  0
  1  5  1  0  0  0  0
  2 18  1  0  0  0  0
  3 11  1  0  0  0  0
  4 23  1  0  0  0  0
  5  8  1  0  0  0  0
  7 30  1  0  0  0  0
  7 23  1  1  0  0  0
  8 13  1  0  0  0  0
  8  6  2  0  0  0  0
  9  5  2  0  0  0  0
  9 17  1  0  0  0  0
 10 24  1  6  0  0  0
 10 15  1  0  0  0  0
 11 10  1  0  0  0  0
 12  9  1  0  0  0  0
 14 28  1  0  0  0  0
 14  2  2  0  0  0  0
 15 25  1  0  0  0  0
 15 26  1  1  0  0  0
 17 21  2  0  0  0  0
 18 22  1  0  0  0  0
 18 12  2  0  0  0  0
 19  3  1  0  0  0  0
 20 19  1  0  0  0  0
 20 28  1  0  0  0  0
 21  6  1  0  0  0  0
 22  1  2  0  0  0  0
 23 13  2  0  0  0  0
 25  4  1  1  0  0  0
 25  7  1  0  0  0  0
 26 16  1  0  0  0  0
 26 30  1  0  0  0  0
 28 29  2  0  0  0  0
 29 22  1  0  0  0  0
 30 27  1  0  0  0  0
M  END
>  <MODEL>
2

>  <REMARK>
 VINA RESULT:      -9.4      1.789      5.210
  Name = 
  0 active torsions:
  status: ('A' for Active; 'I' for Inactive)
                            x       y       z     vdW  Elec       q    Type
                         _______ _______ _______ _____ _____    ______ ____

>  <TORSDO>
F 0

$$$$
=
 OpenBabel10272413573D

 30 36  0  0  1  0  0  0  0  0999 V2000
  186.7330  178.2310  141.7930 C   0  0  0  0  0  0  0  0  0  0  0  0
  190.2410  177.4370  140.9530 C   0  0  0  0  0  3  0  0  0  0  0  0
  186.9640  177.5480  136.5450 C   0  0  0  0  0  2  0  0  0  0  0  0
  185.4930  178.6370  141.2330 N   0  0  0  0  0  0  0  0  0  0  0  0
  186.7320  178.0200  143.1940 C   0  0  0  0  0  0  0  0  0  0  0  0
  185.6050  178.0220  145.3260 N   0  0  0  0  0  0  0  0  0  0  0  0
  183.5420  179.2650  140.8430 C   0  0  1  0  0  3  0  0  0  0  0  0
  185.5530  178.2440  143.9860 C   0  0  0  0  0  0  0  0  0  0  0  0
  187.9110  177.5860  143.8300 C   0  0  0  0  0  0  0  0  0  0  0  0
  184.7710  177.6840  137.8520 C   0  0  1  0  0  3  0  0  0  0  0  0
  186.1660  177.0690  137.7490 C   0  0  0  0  0  2  0  0  0  0  0  0
  189.0750  177.3810  143.0790 C   0  0  0  0  0  3  0  0  0  0  0  0
  184.2670  178.7170  143.3730 C   0  0  0  0  0  3  0  0  0  0  0  0
  190.2350  177.7070  139.5830 C   0  0  0  0  0  3  0  0  0  0  0  0
  184.3330  177.6830  139.3170 C   0  0  1  0  0  3  0  0  0  0  0  0
  182.6180  176.1460  139.6890 C   0  0  0  0  0  1  0  0  0  0  0  0
  187.9110  177.3710  145.2080 C   0  0  0  0  0  3  0  0  0  0  0  0
  189.0770  177.6200  141.6990 C   0  0  0  0  0  0  0  0  0  0  0  0
  187.7370  178.8120  136.8950 C   0  0  0  0  0  2  0  0  0  0  0  0
  189.0990  178.4860  137.5040 C   0  0  0  0  0  2  0  0  0  0  0  0
  186.7410  177.5940  145.9420 C   0  0  0  0  0  3  0  0  0  0  0  0
  187.9050  178.0640  141.0470 C   0  0  0  0  0  0  0  0  0  0  0  0
  184.3260  178.8810  142.0620 C   0  0  0  0  0  0  0  0  0  0  0  0
  184.7090  178.9710  137.3040 O   0  0  0  0  0  1  0  0  0  0  0  0
  184.7090  178.9520  140.0580 C   0  0  2  0  0  3  0  0  0  0  0  0
  182.8920  177.5490  139.4230 N   0  0  0  0  0  0  0  0  0  0  0  0
  181.2990  178.9970  140.2360 C   0  0  0  0  0  1  0  0  0  0  0  0
  189.0640  178.1610  138.9690 C   0  0  0  0  0  0  0  0  0  0  0  0
  187.9360  178.3380  139.7150 N   0  0  0  0  0  0  0  0  0  0  0  0
  182.5090  178.2650  140.5740 N   0  0  0  0  0  0  0  0  0  0  0  0
  1  5  1  0  0  0  0
  2 18  1  0  0  0  0
  3 19  1  0  0  0  0
  3 11  1  0  0  0  0
  4  1  1  0  0  0  0
  4 23  1  0  0  0  0
  5  9  2  0  0  0  0
  5  8  1  0  0  0  0
  6 21  1  0  0  0  0
  7 23  1  1  0  0  0
  8  6  2  0  0  0  0
  9 17  1  0  0  0  0
 10 24  1  1  0  0  0
 10 15  1  0  0  0  0
 11 10  1  0  0  0  0
 12  9  1  0  0  0  0
 13  8  1  0  0  0  0
 14  2  2  0  0  0  0
 15 26  1  6  0  0  0
 15 25  1  0  0  0  0
 17 21  2  0  0  0  0
 18 12  2  0  0  0  0
 19 20  1  0  0  0  0
 20 28  1  0  0  0  0
 22 18  1  0  0  0  0
 22  1  2  0  0  0  0
 23 13  2  0  0  0  0
 25  7  1  0  0  0  0
 25  4  1  1  0  0  0
 26 16  1  0  0  0  0
 26 30  1  0  0  0  0
 27 30  1  0  0  0  0
 28 14  1  0  0  0  0
 28 29  2  0  0  0  0
 29 22  1  0  0  0  0
 30  7  1  0  0  0  0
M  END
>  <MODEL>
3

>  <REMARK>
 VINA RESULT:      -8.9      2.620      7.240
  Name = 
  0 active torsions:
  status: ('A' for Active; 'I' for Inactive)
                            x       y       z     vdW  Elec       q    Type
                         _______ _______ _______ _____ _____    ______ ____

>  <TORSDO>
F 0

$$$$
=
 OpenBabel10272413573D

 30 36  0  0  1  0  0  0  0  0999 V2000
  186.9040  178.1390  141.9850 C   0  0  0  0  0  0  0  0  0  0  0  0
  190.3230  176.7700  142.2640 C   0  0  0  0  0  3  0  0  0  0  0  0
  188.5190  176.9630  137.0780 C   0  0  0  0  0  2  0  0  0  0  0  0
  185.9630  178.6700  141.0640 N   0  0  0  0  0  0  0  0  0  0  0  0
  186.4650  178.0560  143.3300 C   0  0  0  0  0  0  0  0  0  0  0  0
  184.7890  178.4130  145.0260 N   0  0  0  0  0  0  0  0  0  0  0  0
  184.3390  179.5380  140.0830 C   0  0  1  0  0  3  0  0  0  0  0  0
  185.1620  178.5200  143.7230 C   0  0  0  0  0  0  0  0  0  0  0  0
  187.3220  177.5140  144.3050 C   0  0  0  0  0  0  0  0  0  0  0  0
  186.0970  177.5340  137.6650 C   0  0  1  0  0  3  0  0  0  0  0  0
  187.3410  176.7150  138.0090 C   0  0  0  0  0  2  0  0  0  0  0  0
  188.6020  177.0740  143.9460 C   0  0  0  0  0  3  0  0  0  0  0  0
  184.2050  179.1190  142.7350 C   0  0  0  0  0  3  0  0  0  0  0  0
  190.7570  176.9130  140.9450 C   0  0  0  0  0  3  0  0  0  0  0  0
  185.2620  177.7280  138.9310 C   0  0  1  0  0  3  0  0  0  0  0  0
  183.2830  176.4970  138.8380 C   0  0  0  0  0  1  0  0  0  0  0  0
  186.8900  177.4250  145.6290 C   0  0  0  0  0  3  0  0  0  0  0  0
  189.0400  177.1860  142.6200 C   0  0  0  0  0  0  0  0  0  0  0  0
  189.3570  178.1270  137.5900 C   0  0  0  0  0  2  0  0  0  0  0  0
  190.4120  177.6610  138.5900 C   0  0  0  0  0  2  0  0  0  0  0  0
  185.6130  177.8810  145.9700 C   0  0  0  0  0  3  0  0  0  0  0  0
  188.1970  177.7370  141.6310 C   0  0  0  0  0  0  0  0  0  0  0  0
  184.6640  179.1550  141.4960 C   0  0  0  0  0  0  0  0  0  0  0  0
  186.4100  178.7620  137.0690 O   0  0  0  0  0  1  0  0  0  0  0  0
  185.6140  178.9890  139.6960 C   0  0  2  0  0  3  0  0  0  0  0  0
  183.8500  177.8160  138.6080 N   0  0  0  0  0  0  0  0  0  0  0  0
  182.3540  179.5480  138.8470 C   0  0  0  0  0  1  0  0  0  0  0  0
  189.9040  177.4770  139.9910 C   0  0  0  0  0  0  0  0  0  0  0  0
  188.6550  177.8830  140.3570 N   0  0  0  0  0  0  0  0  0  0  0  0
  183.2770  178.6800  139.5600 N   0  0  0  0  0  0  0  0  0  0  0  0
  1  5  1  0  0  0  0
  2 18  1  0  0  0  0
  3 19  1  0  0  0  0
  3 11  1  0  0  0  0
  4 23  1  0  0  0  0
  4  1  1  0  0  0  0
  5  8  2  0  0  0  0
  5  9  1  0  0  0  0
  6 21  2  0  0  0  0
  7 23  1  1  0  0  0
  8  6  1  0  0  0  0
  9 17  2  0  0  0  0
 10 24  1  1  0  0  0
 10 11  1  0  0  0  0
 10 15  1  0  0  0  0
 12  9  1  0  0  0  0
 13  8  1  0  0  0  0
 14  2  2  0  0  0  0
 15 26  1  6  0  0  0
 15 25  1  0  0  0  0
 17 21  1  0  0  0  0
 18 12  2  0  0  0  0
 19 20  1  0  0  0  0
 20 28  1  0  0  0  0
 22  1  2  0  0  0  0
 22 18  1  0  0  0  0
 23 13  2  0  0  0  0
 25  7  1  0  0  0  0
 25  4  1  1  0  0  0
 26 16  1  0  0  0  0
 26 30  1  0  0  0  0
 27 30  1  0  0  0  0
 28 29  2  0  0  0  0
 28 14  1  0  0  0  0
 29 22  1  0  0  0  0
 30  7  1  0  0  0  0
M  END
>  <MODEL>
4

>  <REMARK>
 VINA RESULT:      -8.9      2.483      6.963
  Name = 
  0 active torsions:
  status: ('A' for Active; 'I' for Inactive)
                            x       y       z     vdW  Elec       q    Type
                         _______ _______ _______ _____ _____    ______ ____

>  <TORSDO>
F 0

$$$$
=
 OpenBabel10272413573D

 30 36  0  0  1  0  0  0  0  0999 V2000
  186.8010  178.3000  141.7530 C   0  0  0  0  0  0  0  0  0  0  0  0
  186.8360  177.7290  145.4010 C   0  0  0  0  0  3  0  0  0  0  0  0
  191.5970  176.4210  142.9930 C   0  0  0  0  0  2  0  0  0  0  0  0
  187.6380  178.4190  140.6120 N   0  0  0  0  0  0  0  0  0  0  0  0
  185.4120  178.4290  141.5090 C   0  0  0  0  0  0  0  0  0  0  0  0
  183.5600  178.8110  140.0110 N   0  0  0  0  0  0  0  0  0  0  0  0
  188.4850  178.7130  138.7280 C   0  0  1  0  0  3  0  0  0  0  0  0
  184.9040  178.7010  140.1910 C   0  0  0  0  0  0  0  0  0  0  0  0
  184.5060  178.2940  142.5770 C   0  0  0  0  0  0  0  0  0  0  0  0
  190.7380  176.6160  140.5920 C   0  0  1  0  0  3  0  0  0  0  0  0
  190.4560  176.1550  142.0220 C   0  0  0  0  0  2  0  0  0  0  0  0
  184.9810  178.0490  143.8710 C   0  0  0  0  0  3  0  0  0  0  0  0
  185.8160  178.8670  139.0110 C   0  0  0  0  0  3  0  0  0  0  0  0
  188.2120  177.6640  145.6300 C   0  0  0  0  0  3  0  0  0  0  0  0
  189.4110  176.9140  139.8930 C   0  0  1  0  0  3  0  0  0  0  0  0
  188.9440  175.3260  138.2490 C   0  0  0  0  0  1  0  0  0  0  0  0
  183.1360  178.4130  142.3380 C   0  0  0  0  0  3  0  0  0  0  0  0
  186.3580  177.9520  144.1100 C   0  0  0  0  0  0  0  0  0  0  0  0
  191.4590  177.8110  143.5980 C   0  0  0  0  0  2  0  0  0  0  0  0
  190.5750  177.7940  144.8440 C   0  0  0  0  0  2  0  0  0  0  0  0
  182.6810  178.6720  141.0410 C   0  0  0  0  0  3  0  0  0  0  0  0
  187.2820  178.0940  143.0510 C   0  0  0  0  0  0  0  0  0  0  0  0
  187.0980  178.7210  139.2980 C   0  0  0  0  0  0  0  0  0  0  0  0
  191.5970  177.7210  140.5440 O   0  0  0  0  0  1  0  0  0  0  0  0
  188.9660  178.3560  140.0380 C   0  0  2  0  0  3  0  0  0  0  0  0
  189.5090  176.6480  138.4700 N   0  0  0  0  0  0  0  0  0  0  0  0
  189.3570  178.0590  136.6590 C   0  0  0  0  0  1  0  0  0  0  0  0
  189.1010  177.8240  144.5630 C   0  0  0  0  0  0  0  0  0  0  0  0
  188.6170  178.0450  143.3070 N   0  0  0  0  0  0  0  0  0  0  0  0
  188.6540  177.5690  137.8330 N   0  0  0  0  0  0  0  0  0  0  0  0
  1 22  1  0  0  0  0
  2 14  1  0  0  0  0
  3 19  1  0  0  0  0
  4  1  1  0  0  0  0
  5  1  2  0  0  0  0
  5  9  1  0  0  0  0
  6  8  2  0  0  0  0
  6 21  1  0  0  0  0
  7 23  1  1  0  0  0
  7 25  1  0  0  0  0
  8  5  1  0  0  0  0
  9 12  2  0  0  0  0
 10 24  1  1  0  0  0
 10 11  1  0  0  0  0
 11  3  1  0  0  0  0
 12 18  1  0  0  0  0
 13 23  2  0  0  0  0
 13  8  1  0  0  0  0
 15 26  1  6  0  0  0
 15 25  1  0  0  0  0
 15 10  1  0  0  0  0
 16 26  1  0  0  0  0
 17  9  1  0  0  0  0
 18  2  2  0  0  0  0
 19 20  1  0  0  0  0
 21 17  2  0  0  0  0
 22 29  2  0  0  0  0
 22 18  1  0  0  0  0
 23  4  1  0  0  0  0
 25  4  1  1  0  0  0
 27 30  1  0  0  0  0
 28 20  1  0  0  0  0
 28 14  2  0  0  0  0
 29 28  1  0  0  0  0
 30 26  1  0  0  0  0
 30  7  1  0  0  0  0
M  END
>  <MODEL>
5

>  <REMARK>
 VINA RESULT:      -8.7      2.058      3.996
  Name = 
  0 active torsions:
  status: ('A' for Active; 'I' for Inactive)
                            x       y       z     vdW  Elec       q    Type
                         _______ _______ _______ _____ _____    ______ ____

>  <TORSDO>
F 0

$$$$
=
 OpenBabel10272413573D

 30 36  0  0  1  0  0  0  0  0999 V2000
  185.3050  178.4930  142.0540 C   0  0  0  0  0  0  0  0  0  0  0  0
  188.9120  177.8430  141.5930 C   0  0  0  0  0  3  0  0  0  0  0  0
  186.0080  177.1220  136.9850 C   0  0  0  0  0  2  0  0  0  0  0  0
  184.0930  178.7300  141.3530 N   0  0  0  0  0  0  0  0  0  0  0  0
  185.2020  178.4740  143.4670 C   0  0  0  0  0  0  0  0  0  0  0  0
  183.9050  178.6860  145.4890 N   0  0  0  0  0  0  0  0  0  0  0  0
  182.1470  179.1600  140.7360 C   0  0  1  0  0  3  0  0  0  0  0  0
  183.9500  178.7190  144.1310 C   0  0  0  0  0  0  0  0  0  0  0  0
  186.3480  178.2150  144.2420 C   0  0  0  0  0  0  0  0  0  0  0  0
  183.7110  177.2790  138.0960 C   0  0  1  0  0  3  0  0  0  0  0  0
  185.1440  176.7550  138.1830 C   0  0  0  0  0  2  0  0  0  0  0  0
  187.5800  177.9930  143.6150 C   0  0  0  0  0  3  0  0  0  0  0  0
  182.6930  179.0130  143.3640 C   0  0  0  0  0  3  0  0  0  0  0  0
  189.0030  177.9230  140.2020 C   0  0  0  0  0  3  0  0  0  0  0  0
  183.1540  177.4450  139.5110 C   0  0  1  0  0  3  0  0  0  0  0  0
  181.5100  175.8550  139.9680 C   0  0  0  0  0  1  0  0  0  0  0  0
  186.2480  178.1890  145.6330 C   0  0  0  0  0  3  0  0  0  0  0  0
  187.6810  178.0420  142.2190 C   0  0  0  0  0  0  0  0  0  0  0  0
  186.6720  178.4740  137.2100 C   0  0  0  0  0  2  0  0  0  0  0  0
  187.9970  178.3300  137.9570 C   0  0  0  0  0  2  0  0  0  0  0  0
  185.0100  178.4270  146.2400 C   0  0  0  0  0  3  0  0  0  0  0  0
  186.5430  178.3100  141.4270 C   0  0  0  0  0  0  0  0  0  0  0  0
  182.8500  179.0010  142.0520 C   0  0  0  0  0  0  0  0  0  0  0  0
  183.6170  178.4720  137.3690 O   0  0  0  0  0  1  0  0  0  0  0  0
  183.3910  178.8260  140.0910 C   0  0  2  0  0  3  0  0  0  0  0  0
  181.7200  177.2260  139.5290 N   0  0  0  0  0  0  0  0  0  0  0  0
  179.9820  178.6540  140.0110 C   0  0  0  0  0  1  0  0  0  0  0  0
  187.8610  178.2050  139.4460 C   0  0  0  0  0  0  0  0  0  0  0  0
  186.6670  178.4020  140.0750 N   0  0  0  0  0  0  0  0  0  0  0  0
  181.2020  178.0620  140.5360 N   0  0  0  0  0  0  0  0  0  0  0  0
  1  5  1  0  0  0  0
  2 18  1  0  0  0  0
  3 19  1  0  0  0  0
  3 11  1  0  0  0  0
  4 23  1  0  0  0  0
  4  1  1  0  0  0  0
  5  8  2  0  0  0  0
  5  9  1  0  0  0  0
  6 21  2  0  0  0  0
  7 23  1  1  0  0  0
  8  6  1  0  0  0  0
  9 17  2  0  0  0  0
 10 24  1  1  0  0  0
 10 11  1  0  0  0  0
 10 15  1  0  0  0  0
 12  9  1  0  0  0  0
 13  8  1  0  0  0  0
 14  2  2  0  0  0  0
 15 26  1  6  0  0  0
 15 25  1  0  0  0  0
 17 21  1  0  0  0  0
 18 12  2  0  0  0  0
 19 20  1  0  0  0  0
 20 28  1  0  0  0  0
 22  1  2  0  0  0  0
 22 18  1  0  0  0  0
 23 13  2  0  0  0  0
 25  7  1  0  0  0  0
 25  4  1  1  0  0  0
 26 16  1  0  0  0  0
 26 30  1  0  0  0  0
 27 30  1  0  0  0  0
 28 29  2  0  0  0  0
 28 14  1  0  0  0  0
 29 22  1  0  0  0  0
 30  7  1  0  0  0  0
M  END
>  <MODEL>
6

>  <REMARK>
 VINA RESULT:      -8.6      2.897      7.371
  Name = 
  0 active torsions:
  status: ('A' for Active; 'I' for Inactive)
                            x       y       z     vdW  Elec       q    Type
                         _______ _______ _______ _____ _____    ______ ____

>  <TORSDO>
F 0

$$$$
=
 OpenBabel10272413573D

 30 36  0  0  1  0  0  0  0  0999 V2000
  187.8520  177.9720  140.8960 C   0  0  0  0  0  0  0  0  0  0  0  0
  190.4770  177.3510  143.4200 C   0  0  0  0  0  3  0  0  0  0  0  0
  192.0100  175.9020  138.3470 C   0  0  0  0  0  2  0  0  0  0  0  0
  187.6190  178.0750  139.5000 N   0  0  0  0  0  0  0  0  0  0  0  0
  186.7160  178.1550  141.7220 C   0  0  0  0  0  0  0  0  0  0  0  0
  184.3670  178.6230  142.0040 N   0  0  0  0  0  0  0  0  0  0  0  0
  186.8640  178.3630  137.5760 C   0  0  1  0  0  3  0  0  0  0  0  0
  185.4260  178.4620  141.1660 C   0  0  0  0  0  0  0  0  0  0  0  0
  186.8490  178.0380  143.1190 C   0  0  0  0  0  0  0  0  0  0  0  0
  189.6960  176.1610  137.2900 C   0  0  1  0  0  3  0  0  0  0  0  0
  190.5100  175.6910  138.4960 C   0  0  0  0  0  2  0  0  0  0  0  0
  188.1000  177.7590  143.6810 C   0  0  0  0  0  3  0  0  0  0  0  0
  185.2180  178.6110  139.6870 C   0  0  0  0  0  3  0  0  0  0  0  0
  191.5950  177.2320  142.5920 C   0  0  0  0  0  3  0  0  0  0  0  0
  188.2820  176.5150  137.7520 C   0  0  1  0  0  3  0  0  0  0  0  0
  186.7210  174.9680  136.9710 C   0  0  0  0  0  1  0  0  0  0  0  0
  185.7300  178.2110  143.9340 C   0  0  0  0  0  3  0  0  0  0  0  0
  189.2250  177.6080  142.8610 C   0  0  0  0  0  0  0  0  0  0  0  0
  192.3970  177.2880  138.8440 C   0  0  0  0  0  2  0  0  0  0  0  0
  192.6780  177.2870  140.3460 C   0  0  0  0  0  2  0  0  0  0  0  0
  184.4910  178.5030  143.3540 C   0  0  0  0  0  3  0  0  0  0  0  0
  189.1110  177.7310  141.4580 C   0  0  0  0  0  0  0  0  0  0  0  0
  186.3100  178.4130  138.9690 C   0  0  0  0  0  0  0  0  0  0  0  0
  190.2970  177.2340  136.6220 O   0  0  0  0  0  1  0  0  0  0  0  0
  188.1270  177.9710  138.1480 C   0  0  2  0  0  3  0  0  0  0  0  0
  187.3180  176.2650  136.6960 N   0  0  0  0  0  0  0  0  0  0  0  0
  185.9610  177.7050  135.5220 C   0  0  0  0  0  1  0  0  0  0  0  0
  191.4520  177.3750  141.2080 C   0  0  0  0  0  0  0  0  0  0  0  0
  190.2220  177.6300  140.6780 N   0  0  0  0  0  0  0  0  0  0  0  0
  186.3000  177.2250  136.8510 N   0  0  0  0  0  0  0  0  0  0  0  0
  1 22  2  0  0  0  0
  1  5  1  0  0  0  0
  3 11  1  0  0  0  0
  3 19  1  0  0  0  0
  4  1  1  0  0  0  0
  5  9  1  0  0  0  0
  6 21  2  0  0  0  0
  7 25  1  0  0  0  0
  7 23  1  1  0  0  0
  8  5  2  0  0  0  0
  8  6  1  0  0  0  0
  9 12  1  0  0  0  0
  9 17  2  0  0  0  0
 10 24  1  1  0  0  0
 10 15  1  0  0  0  0
 10 11  1  0  0  0  0
 13  8  1  0  0  0  0
 14  2  2  0  0  0  0
 15 26  1  6  0  0  0
 15 25  1  0  0  0  0
 18  2  1  0  0  0  0
 18 12  2  0  0  0  0
 19 20  1  0  0  0  0
 20 28  1  0  0  0  0
 21 17  1  0  0  0  0
 22 18  1  0  0  0  0
 23  4  1  0  0  0  0
 23 13  2  0  0  0  0
 25  4  1  1  0  0  0
 26 30  1  0  0  0  0
 26 16  1  0  0  0  0
 27 30  1  0  0  0  0
 28 14  1  0  0  0  0
 29 28  2  0  0  0  0
 29 22  1  0  0  0  0
 30  7  1  0  0  0  0
M  END
>  <MODEL>
7

>  <REMARK>
 VINA RESULT:      -8.3      2.756      6.485
  Name = 
  0 active torsions:
  status: ('A' for Active; 'I' for Inactive)
                            x       y       z     vdW  Elec       q    Type
                         _______ _______ _______ _____ _____    ______ ____

>  <TORSDO>
F 0

$$$$
=
 OpenBabel10272413573D

 30 36  0  0  1  0  0  0  0  0999 V2000
  188.4880  177.2420  145.0700 C   0  0  0  0  0  0  0  0  0  0  0  0
  186.4450  178.5780  147.8420 C   0  0  0  0  0  3  0  0  0  0  0  0
  184.2990  179.6500  142.9000 C   0  0  0  0  0  2  0  0  0  0  0  0
  188.4650  176.9370  143.6840 N   0  0  0  0  0  0  0  0  0  0  0  0
  189.7110  176.9730  145.7360 C   0  0  0  0  0  0  0  0  0  0  0  0
  191.9820  176.1620  145.7280 N   0  0  0  0  0  0  0  0  0  0  0  0
  188.8340  176.3040  141.7300 C   0  0  1  0  0  3  0  0  0  0  0  0
  190.8310  176.3950  145.0430 C   0  0  0  0  0  0  0  0  0  0  0  0
  189.8340  177.2740  147.1050 C   0  0  0  0  0  0  0  0  0  0  0  0
  186.3390  178.8920  141.5580 C   0  0  1  0  0  3  0  0  0  0  0  0
  185.8170  179.6280  142.7910 C   0  0  0  0  0  2  0  0  0  0  0  0
  188.7490  177.8200  147.8020 C   0  0  0  0  0  3  0  0  0  0  0  0
  190.7610  176.0410  143.5860 C   0  0  0  0  0  3  0  0  0  0  0  0
  185.2320  178.7800  147.1810 C   0  0  0  0  0  3  0  0  0  0  0  0
  187.7460  178.3670  141.8500 C   0  0  1  0  0  3  0  0  0  0  0  0
  189.3570  179.5340  140.6320 C   0  0  0  0  0  1  0  0  0  0  0  0
  191.0380  177.0180  147.7600 C   0  0  0  0  0  3  0  0  0  0  0  0
  187.5340  178.0550  147.1450 C   0  0  0  0  0  0  0  0  0  0  0  0
  183.8070  178.4140  143.6410 C   0  0  0  0  0  2  0  0  0  0  0  0
  183.7880  178.6390  145.1520 C   0  0  0  0  0  2  0  0  0  0  0  0
  192.1060  176.4600  147.0500 C   0  0  0  0  0  3  0  0  0  0  0  0
  187.3910  177.7500  145.7730 C   0  0  0  0  0  0  0  0  0  0  0  0
  189.6030  176.3280  143.0180 C   0  0  0  0  0  0  0  0  0  0  0  0
  185.4870  177.8610  141.1460 O   0  0  0  0  0  1  0  0  0  0  0  0
  187.7560  176.9630  142.4220 C   0  0  2  0  0  3  0  0  0  0  0  0
  188.5430  178.3290  140.6370 N   0  0  0  0  0  0  0  0  0  0  0  0
  189.4610  176.5580  139.4920 C   0  0  0  0  0  1  0  0  0  0  0  0
  185.1160  178.4540  145.8260 C   0  0  0  0  0  0  0  0  0  0  0  0
  186.1900  177.9390  145.1610 N   0  0  0  0  0  0  0  0  0  0  0  0
  189.4250  177.2400  140.7750 N   0  0  0  0  0  0  0  0  0  0  0  0
  1  5  2  0  0  0  0
  1 22  1  0  0  0  0
  3 19  1  0  0  0  0
  4  1  1  0  0  0  0
  5  9  1  0  0  0  0
  6 21  1  0  0  0  0
  7 25  1  0  0  0  0
  7 23  1  1  0  0  0
  8  6  2  0  0  0  0
  8  5  1  0  0  0  0
  9 17  1  0  0  0  0
  9 12  2  0  0  0  0
 10 24  1  1  0  0  0
 10 15  1  0  0  0  0
 10 11  1  0  0  0  0
 11  3  1  0  0  0  0
 13  8  1  0  0  0  0
 14  2  1  0  0  0  0
 15 26  1  6  0  0  0
 15 25  1  0  0  0  0
 16 26  1  0  0  0  0
 18 12  1  0  0  0  0
 18  2  2  0  0  0  0
 19 20  1  0  0  0  0
 20 28  1  0  0  0  0
 21 17  2  0  0  0  0
 22 18  1  0  0  0  0
 23 13  2  0  0  0  0
 23  4  1  0  0  0  0
 25  4  1  1  0  0  0
 26 30  1  0  0  0  0
 27 30  1  0  0  0  0
 28 14  2  0  0  0  0
 29 22  2  0  0  0  0
 29 28  1  0  0  0  0
 30  7  1  0  0  0  0
M  END
>  <MODEL>
8

>  <REMARK>
 VINA RESULT:      -7.3      2.029      5.531
  Name = 
  0 active torsions:
  status: ('A' for Active; 'I' for Inactive)
                            x       y       z     vdW  Elec       q    Type
                         _______ _______ _______ _____ _____    ______ ____

>  <TORSDO>
F 0

$$$$
=
 OpenBabel10272413573D

 30 36  0  0  1  0  0  0  0  0999 V2000
  188.1560  177.6160  141.9070 C   0  0  0  0  0  0  0  0  0  0  0  0
  185.5600  178.5450  144.3640 C   0  0  0  0  0  3  0  0  0  0  0  0
  183.8050  178.8980  139.1710 C   0  0  0  0  0  2  0  0  0  0  0  0
  188.3610  177.2610  140.5480 N   0  0  0  0  0  0  0  0  0  0  0  0
  189.3230  177.6650  142.7090 C   0  0  0  0  0  0  0  0  0  0  0  0
  191.7050  177.4050  142.9850 N   0  0  0  0  0  0  0  0  0  0  0  0
  189.0850  176.6570  138.6860 C   0  0  1  0  0  3  0  0  0  0  0  0
  190.6170  177.3370  142.1730 C   0  0  0  0  0  0  0  0  0  0  0  0
  189.2180  178.0380  144.0620 C   0  0  0  0  0  0  0  0  0  0  0  0
  186.1040  178.5850  138.0950 C   0  0  1  0  0  3  0  0  0  0  0  0
  185.2900  179.2260  139.2200 C   0  0  0  0  0  2  0  0  0  0  0  0
  187.9650  178.3430  144.6080 C   0  0  0  0  0  3  0  0  0  0  0  0
  190.7960  176.9210  140.7420 C   0  0  0  0  0  3  0  0  0  0  0  0
  184.4170  178.4340  143.5710 C   0  0  0  0  0  3  0  0  0  0  0  0
  187.5500  178.4130  138.5620 C   0  0  1  0  0  3  0  0  0  0  0  0
  188.9820  179.8760  137.4430 C   0  0  0  0  0  1  0  0  0  0  0  0
  190.3660  178.0950  144.8520 C   0  0  0  0  0  3  0  0  0  0  0  0
  186.8120  178.2640  143.8170 C   0  0  0  0  0  0  0  0  0  0  0  0
  183.5250  177.6120  139.9360 C   0  0  0  0  0  2  0  0  0  0  0  0
  183.2830  177.8830  141.4190 C   0  0  0  0  0  2  0  0  0  0  0  0
  191.6070  177.7740  144.2920 C   0  0  0  0  0  3  0  0  0  0  0  0
  186.8990  177.8820  142.4600 C   0  0  0  0  0  0  0  0  0  0  0  0
  189.6760  176.9090  140.0410 C   0  0  0  0  0  0  0  0  0  0  0  0
  185.5600  177.3690  137.6650 O   0  0  0  0  0  1  0  0  0  0  0  0
  187.8130  177.0730  139.2210 C   0  0  2  0  0  3  0  0  0  0  0  0
  188.4670  178.5150  137.4420 N   0  0  0  0  0  0  0  0  0  0  0  0
  189.8880  176.9640  136.5120 C   0  0  0  0  0  1  0  0  0  0  0  0
  184.5330  178.0380  142.2350 C   0  0  0  0  0  0  0  0  0  0  0  0
  185.7640  177.7630  141.7180 N   0  0  0  0  0  0  0  0  0  0  0  0
  189.5520  177.6680  137.7380 N   0  0  0  0  0  0  0  0  0  0  0  0
  1 22  2  0  0  0  0
  1  5  1  0  0  0  0
  3 11  1  0  0  0  0
  3 19  1  0  0  0  0
  4  1  1  0  0  0  0
  5  9  1  0  0  0  0
  6 21  2  0  0  0  0
  7 25  1  0  0  0  0
  7 23  1  1  0  0  0
  8  5  2  0  0  0  0
  8  6  1  0  0  0  0
  9 12  1  0  0  0  0
  9 17  2  0  0  0  0
 10 24  1  1  0  0  0
 10 15  1  0  0  0  0
 10 11  1  0  0  0  0
 13  8  1  0  0  0  0
 14  2  2  0  0  0  0
 15 26  1  6  0  0  0
 15 25  1  0  0  0  0
 18  2  1  0  0  0  0
 18 12  2  0  0  0  0
 19 20  1  0  0  0  0
 20 28  1  0  0  0  0
 21 17  1  0  0  0  0
 22 18  1  0  0  0  0
 23  4  1  0  0  0  0
 23 13  2  0  0  0  0
 25  4  1  1  0  0  0
 26 16  1  0  0  0  0
 26 30  1  0  0  0  0
 27 30  1  0  0  0  0
 28 14  1  0  0  0  0
 29 28  2  0  0  0  0
 29 22  1  0  0  0  0
 30  7  1  0  0  0  0
M  END
>  <MODEL>
9

>  <REMARK>
 VINA RESULT:      -7.2      2.488      5.710
  Name = 
  0 active torsions:
  status: ('A' for Active; 'I' for Inactive)
                            x       y       z     vdW  Elec       q    Type
                         _______ _______ _______ _____ _____    ______ ____

>  <TORSDO>
F 0

$$$$
